
  -OEChem-04042323383D

 83 91  0     1  0  0  0  0  0999 V2000
  -19.0425  -24.3629   23.2836 C   0  0  0  0  0  0  0  0  0  0  0  0
  -20.3576  -24.4747   22.8438 C   0  0  0  0  0  0  0  0  0  0  0  0
  -23.9367   -9.3372   21.7556 C   0  0  0  0  0  0  0  0  0  0  0  0
  -24.1270  -11.0395   23.4594 C   0  0  0  0  0  0  0  0  0  0  0  0
  -28.1838  -20.2410   19.2401 C   0  0  0  0  0  0  0  0  0  0  0  0
  -30.5747  -19.9547   19.4370 C   0  0  0  0  0  0  0  0  0  0  0  0
  -18.2205  -25.4886   23.3134 C   0  0  0  0  0  0  0  0  0  0  0  0
  -20.8511  -25.7123   22.4324 C   0  0  0  0  0  0  0  0  0  0  0  0
  -25.4622  -26.6796   24.2891 C   0  0  0  0  0  0  0  0  0  0  0  0
  -28.0250  -18.8578   19.1563 C   0  0  0  0  0  0  0  0  0  0  0  0
  -30.4159  -18.5715   19.3532 C   0  0  0  0  0  0  0  0  0  0  0  0
  -23.4207   -8.4497   22.6998 C   0  0  0  0  0  0  0  0  0  0  0  0
  -23.6110  -10.1520   24.4037 C   0  0  0  0  0  0  0  0  0  0  0  0
  -26.5423  -26.0514   23.6706 C   0  0  0  0  0  0  0  0  0  0  0  0
  -20.4589   -7.8851   24.2301 C   0  0  0  0  0  0  0  0  0  0  0  0
  -19.3406   -7.1333   23.8699 C   0  0  0  0  0  0  0  0  0  0  0  0
  -27.0136  -28.0776   22.4494 C   0  0  0  0  0  0  0  0  0  0  0  0
  -20.5942   -5.0986   24.2246 C   0  0  0  0  0  0  0  0  0  0  0  0
  -24.2900  -10.6321   22.1354 C   0  0  0  0  0  0  0  0  0  0  0  0
  -29.4586  -20.7895   19.3804 C   0  0  0  0  0  0  0  0  0  0  0  0
  -24.0999  -12.4430   20.3487 C   0  0  0  0  0  0  0  0  0  0  0  0
  -18.7071  -26.7425   22.9113 C   0  0  0  0  0  0  0  0  0  0  0  0
  -25.1425  -28.0104   23.9837 C   0  0  0  0  0  0  0  0  0  0  0  0
  -20.0344  -26.8557   22.4556 C   0  0  0  0  0  0  0  0  0  0  0  0
  -25.9305  -28.7212   23.0673 C   0  0  0  0  0  0  0  0  0  0  0  0
  -29.1411  -18.0230   19.2129 C   0  0  0  0  0  0  0  0  0  0  0  0
  -23.2578   -8.8571   24.0239 C   0  0  0  0  0  0  0  0  0  0  0  0
  -27.3164  -26.7495   22.7484 C   0  0  0  0  0  0  0  0  0  0  0  0
  -21.6449   -7.2436   24.5874 C   0  0  0  0  0  0  0  0  0  0  0  0
  -19.4082   -5.7400   23.8671 C   0  0  0  0  0  0  0  0  0  0  0  0
  -21.7125   -5.8504   24.5847 C   0  0  0  0  0  0  0  0  0  0  0  0
  -24.8236  -11.5492   21.1605 C   0  0  0  0  0  0  0  0  0  0  0  0
  -25.0592  -13.0833   19.6030 C   0  0  0  0  0  0  0  0  0  0  0  0
  -29.6269  -22.2546   19.4690 C   0  0  0  0  0  0  0  0  0  0  0  0
  -22.6867  -12.6738   20.2752 C   0  0  0  0  0  0  0  0  0  0  0  0
  -22.6242  -29.4782   22.7160 C   0  0  0  0  0  0  0  0  0  0  0  0
  -24.2944  -32.1547   23.4707 C   0  0  0  0  0  0  0  0  0  0  0  0
  -29.0609  -24.3221   20.7242 C   0  0  0  0  0  0  0  0  0  0  0  0
  -27.3206  -33.5980   24.1078 C   0  0  0  0  0  0  0  0  0  0  0  0
  -29.9819  -15.6487   19.1675 C   0  0  0  0  0  0  0  0  0  0  0  0
  -17.7668  -27.9217   22.9163 C   0  0  0  0  0  0  0  0  0  0  0  0
  -23.9905  -28.6820   24.6795 C   0  0  0  0  0  0  0  0  0  0  0  0
  -25.6416  -30.1580   22.7199 C   0  0  0  0  0  0  0  0  0  0  0  0
  -18.4784  -29.2686   22.8181 C   0  0  0  0  0  0  0  0  0  0  0  0
  -29.9892  -12.0910   19.0265 C   0  0  0  0  0  0  0  0  0  0  0  0
  -19.5370  -29.2342   21.7203 C   0  0  0  0  0  0  0  0  0  0  0  0
  -28.5864  -11.7064   19.5023 C   0  0  0  0  0  0  0  0  0  0  0  0
  -30.5312  -13.3040   19.7805 C   0  0  0  0  0  0  0  0  0  0  0  0
  -28.2471  -14.0940   20.2580 C   0  0  0  0  0  0  0  0  0  0  0  0
  -20.6137  -28.1857   22.0247 C   0  0  1  0  0  0  0  0  0  0  0  0
  -23.4438  -29.8802   23.9095 C   0  0  1  0  0  0  0  0  0  0  0  0
  -27.6329  -12.9172   19.4824 C   0  0  2  0  0  0  0  0  0  0  0  0
  -28.3719  -35.8098   24.6554 C   0  0  0  0  0  0  0  0  0  0  0  0
  -23.9686  -33.0263   20.5648 C   0  0  0  0  0  0  0  0  0  0  0  0
  -25.7931  -34.7002   20.9352 C   0  0  0  0  0  0  0  0  0  0  0  0
  -23.6744  -34.8575   22.2424 C   0  0  0  0  0  0  0  0  0  0  0  0
  -28.3615  -32.5950   26.6903 C   0  0  0  0  0  0  0  0  0  0  0  0
  -28.2780  -24.7284   21.9443 C   0  0  0  0  0  0  0  0  0  1  0  0
  -25.3191  -33.0099   22.7652 C   0  0  1  0  0  0  0  0  0  0  0  0
  -27.7801  -34.5266   25.2173 C   0  0  2  0  0  0  0  0  0  0  0  0
  -24.6933  -33.8708   21.6318 C   0  0  0  0  0  0  0  0  0  0  0  0
  -26.1411  -11.6130   20.9504 N   0  0  0  0  0  0  0  0  0  0  0  0
  -26.2528  -12.5545   19.9979 N   0  0  0  0  0  0  0  0  0  0  0  0
  -24.5007  -30.7687   23.4220 N   0  0  0  0  0  0  0  0  0  0  0  0
  -29.5768  -14.4130   19.7150 N   0  0  0  0  0  0  0  0  0  0  0  0
  -24.9899  -14.0414   18.6545 N   0  0  0  0  0  0  0  0  0  0  0  0
  -21.8438  -11.9296   21.1118 N   0  0  0  0  0  0  0  0  0  0  0  0
  -28.9800  -16.6178   19.1278 N   0  0  0  0  0  0  0  0  0  0  0  0
  -29.0241  -22.9000   20.4771 N   0  0  0  0  0  0  0  0  0  0  0  0
  -21.5361  -28.6835   23.0226 N   0  0  0  0  0  0  0  0  0  0  0  0
  -25.9887  -33.7851   23.8040 N   0  0  0  0  0  0  0  0  0  0  0  0
  -30.3732  -22.8505   18.5394 N   0  3  0  0  0  0  0  0  0  0  0  0
  -28.8157  -33.8591   26.0558 N   0  3  0  0  0  0  0  0  0  0  0  0
  -22.1850  -13.5034   19.4792 O   0  0  0  0  0  0  0  0  0  0  0  0
  -22.9537  -29.8620   21.5999 O   0  0  0  0  0  0  0  0  0  0  0  0
  -23.3498  -32.6968   24.0498 O   0  0  0  0  0  0  0  0  0  0  0  0
  -29.6762  -25.0875   19.9960 O   0  0  0  0  0  0  0  0  0  0  0  0
  -28.0693  -32.7902   23.5624 O   0  0  0  0  0  0  0  0  0  0  0  0
  -31.1251  -15.8249   18.7386 O   0  0  0  0  0  0  0  0  0  0  0  0
  -22.7541   -7.9914   24.9455 O   0  0  0  0  0  0  0  0  0  0  0  0
  -28.3708  -26.1385   22.1428 O   0  0  0  0  0  0  0  0  0  1  0  0
  -18.3337   -5.0182   23.5227 F   0  0  0  0  0  0  0  0  0  0  0  0
  -22.8488   -5.2286   24.9282 F   0  0  0  0  0  0  0  0  0  0  0  0
  1  2  1  0  0  0  0
  1  7  2  0  0  0  0
  2  8  2  0  0  0  0
  3 12  2  0  0  0  0
  3 19  1  0  0  0  0
  4 13  1  0  0  0  0
  4 19  2  0  0  0  0
  5 10  2  0  0  0  0
  5 20  1  0  0  0  0
  6 11  1  0  0  0  0
  6 20  2  0  0  0  0
  7 22  1  0  0  0  0
  8 24  1  0  0  0  0
  9 14  2  0  0  0  0
  9 23  1  0  0  0  0
 10 26  1  0  0  0  0
 11 26  2  0  0  0  0
 12 27  1  0  0  0  0
 13 27  2  0  0  0  0
 14 28  1  0  0  0  0
 15 16  2  0  0  0  0
 15 29  1  0  0  0  0
 16 30  1  0  0  0  0
 17 25  1  0  0  0  0
 17 28  2  0  0  0  0
 18 30  2  0  0  0  0
 18 31  1  0  0  0  0
 19 32  1  0  0  0  0
 20 34  1  0  0  0  0
 21 32  1  0  0  0  0
 21 33  2  0  0  0  0
 21 35  1  0  0  0  0
 22 24  2  0  0  0  0
 22 41  1  0  0  0  0
 23 25  2  0  0  0  0
 23 42  1  0  0  0  0
 24 50  1  0  0  0  0
 25 43  1  0  0  0  0
 26 68  1  0  0  0  0
 27 80  1  0  0  0  0
 28 81  1  0  0  0  0
 29 31  2  0  0  0  0
 29 80  1  0  0  0  0
 30 82  1  0  0  0  0
 31 83  1  0  0  0  0
 32 62  2  0  0  0  0
 33 63  1  0  0  0  0
 33 66  1  0  0  0  0
 34 69  1  0  0  0  0
 34 72  2  0  0  0  0
 35 67  1  0  0  0  0
 35 74  2  0  0  0  0
 36 51  1  0  0  0  0
 36 70  1  0  0  0  0
 36 75  2  0  0  0  0
 37 59  1  0  0  0  0
 37 64  1  0  0  0  0
 37 76  2  0  0  0  0
 38 58  1  0  0  0  0
 38 69  1  0  0  0  0
 38 77  2  0  0  0  0
 39 60  1  0  0  0  0
 39 71  1  0  0  0  0
 39 78  2  0  0  0  0
 40 65  1  0  0  0  0
 40 68  1  0  0  0  0
 40 79  2  0  0  0  0
 41 44  1  0  0  0  0
 42 51  1  0  0  0  0
 43 64  1  0  0  0  0
 44 46  1  0  0  0  0
 45 47  1  0  0  0  0
 45 48  1  0  0  0  0
 46 50  1  0  0  0  0
 47 52  1  0  0  0  0
 48 65  1  0  0  0  0
 49 52  1  0  0  0  0
 49 65  1  0  0  0  0
 50 70  1  0  0  0  0
 51 64  1  0  0  0  0
 52 63  1  0  0  0  0
 53 60  1  0  0  0  0
 54 61  1  0  0  0  0
 55 61  1  0  0  0  0
 56 61  1  0  0  0  0
 57 73  1  0  0  0  0
 58 81  1  0  0  0  0
 59 61  1  0  0  0  0
 59 71  1  0  0  0  0
 60 73  1  0  0  0  0
 62 63  1  0  0  0  0
M  CHG  2  72   1  73   1
M  ISO  4  40 100  58 101  68 100  81 101
M  END
> <Batch ID>
0072

> <Smiles>
CNC(C)C(=O)NC(C(=O)N1Cc2cc([101O:1][101CH2:1]C(=O)NC(=N)c3ccc([100NH:0][100C:0](=O)N4CCCC(n5nc(-c6ccc(Oc7ccc(F)cc7F)cc6)c(C(N)=O)c5N)C4)cc3)ccc2CC1C(=O)NC1CCCc2ccccc21)C(C)(C)C

> <Shape>
0.321

> <Color>
0.113

> <Negative vol penalty>
0.000

$$$$

  -OEChem-04042323383D

 88 96  0     1  0  0  0  0  0999 V2000
  -16.4968  -29.3154   22.8382 C   0  0  0  0  0  0  0  0  0  0  0  0
  -17.4363  -29.6835   21.8805 C   0  0  0  0  0  0  0  0  0  0  0  0
  -25.4933  -12.6594   20.0007 C   0  0  0  0  0  0  0  0  0  0  0  0
  -25.7475  -13.3469   22.3029 C   0  0  0  0  0  0  0  0  0  0  0  0
  -16.8011  -29.4351   24.1936 C   0  0  0  0  0  0  0  0  0  0  0  0
  -18.6803  -30.1726   22.2776 C   0  0  0  0  0  0  0  0  0  0  0  0
  -24.7699  -26.8976   20.2570 C   0  0  0  0  0  0  0  0  0  0  0  0
  -26.0550  -11.4204   20.3087 C   0  0  0  0  0  0  0  0  0  0  0  0
  -26.3091  -12.1078   22.6109 C   0  0  0  0  0  0  0  0  0  0  0  0
  -25.9855  -26.4509   19.7386 C   0  0  0  0  0  0  0  0  0  0  0  0
  -29.1426  -10.1430   20.8179 C   0  0  0  0  0  0  0  0  0  0  0  0
  -30.1065   -9.6348   19.9471 C   0  0  0  0  0  0  0  0  0  0  0  0
  -29.0486  -22.2218   22.6578 C   0  0  0  0  0  0  0  0  0  0  0  0
  -27.1684  -28.0750   21.0844 C   0  0  0  0  0  0  0  0  0  0  0  0
  -27.7569  -20.9773   24.2763 C   0  0  0  0  0  0  0  0  0  0  0  0
  -28.7191   -7.6988   19.5414 C   0  0  0  0  0  0  0  0  0  0  0  0
  -25.3397  -13.6227   20.9978 C   0  0  0  0  0  0  0  0  0  0  0  0
  -29.7985  -22.7858   23.6899 C   0  0  0  0  0  0  0  0  0  0  0  0
  -23.3976  -15.2544   20.7259 C   0  0  0  0  0  0  0  0  0  0  0  0
  -18.0529  -29.9169   24.6075 C   0  0  0  0  0  0  0  0  0  0  0  0
  -24.7500  -27.9256   21.2037 C   0  0  0  0  0  0  0  0  0  0  0  0
  -19.0011  -30.3002   23.6398 C   0  0  0  0  0  0  0  0  0  0  0  0
  -25.9547  -28.5182   21.6165 C   0  0  0  0  0  0  0  0  0  0  0  0
  -29.5276  -22.4455   25.0152 C   0  0  0  0  0  0  0  0  0  0  0  0
  -28.0278  -21.3176   22.9510 C   0  0  0  0  0  0  0  0  0  0  0  0
  -26.4629  -11.1445   21.6138 C   0  0  0  0  0  0  0  0  0  0  0  0
  -27.1818  -27.0383   20.1511 C   0  0  0  0  0  0  0  0  0  0  0  0
  -27.9670   -9.4291   21.0505 C   0  0  0  0  0  0  0  0  0  0  0  0
  -29.8948   -8.4127   19.3089 C   0  0  0  0  0  0  0  0  0  0  0  0
  -28.5068  -21.5413   25.3084 C   0  0  0  0  0  0  0  0  0  0  0  0
  -27.7553   -8.2071   20.4123 C   0  0  0  0  0  0  0  0  0  0  0  0
  -24.7601  -14.9031   20.6802 C   0  0  0  0  0  0  0  0  0  0  0  0
  -23.3693  -16.5713   20.3367 C   0  0  0  0  0  0  0  0  0  0  0  0
  -30.8796  -23.7461   23.3489 C   0  0  0  0  0  0  0  0  0  0  0  0
  -22.2594  -14.4612   21.0880 C   0  0  0  0  0  0  0  0  0  0  0  0
  -22.6863  -30.1182   23.4419 C   0  0  0  0  0  0  0  0  0  0  0  0
  -25.1844  -29.3202   25.0334 C   0  0  0  0  0  0  0  0  0  0  0  0
  -30.5196  -25.6200   20.1584 C   0  0  0  0  0  0  0  0  0  0  0  0
  -27.3435  -27.5631   26.5010 C   0  0  0  0  0  0  0  0  0  0  0  0
  -27.4043  -20.9741   20.5344 C   0  0  0  0  0  0  0  0  0  0  0  0
  -18.3187  -30.0731   26.0839 C   0  0  0  0  0  0  0  0  0  0  0  0
  -23.4595  -28.4803   21.7431 C   0  0  0  0  0  0  0  0  0  0  0  0
  -25.8825  -29.6445   22.6110 C   0  0  0  0  0  0  0  0  0  0  0  0
  -19.7971  -30.2475   26.4215 C   0  0  0  0  0  0  0  0  0  0  0  0
  -25.7500  -19.7303   17.6373 C   0  0  0  0  0  0  0  0  0  0  0  0
  -20.4397  -31.2722   25.4921 C   0  0  0  0  0  0  0  0  0  0  0  0
  -25.1792  -18.3860   18.0948 C   0  0  0  0  0  0  0  0  0  0  0  0
  -27.1156  -20.0090   18.2628 C   0  0  0  0  0  0  0  0  0  0  0  0
  -26.5902  -18.5595   20.1843 C   0  0  0  0  0  0  0  0  0  0  0  0
  -20.3705  -30.8117   24.0311 C   0  0  1  0  0  0  0  0  0  0  0  0
  -23.5599  -28.9196   23.2149 C   0  0  1  0  0  0  0  0  0  0  0  0
  -25.1864  -18.2643   19.6312 C   0  0  2  0  0  0  0  0  0  0  0  0
  -30.3164  -23.0374   26.1379 C   0  0  0  0  0  0  0  0  0  0  0  0
  -29.0394  -27.1059   28.2934 C   0  0  0  0  0  0  0  0  0  0  0  0
  -26.4195  -32.0403   24.4174 C   0  0  0  0  0  0  0  0  0  0  0  0
  -28.2382  -31.5056   26.0529 C   0  0  0  0  0  0  0  0  0  0  0  0
  -25.8726  -31.6644   26.8286 C   0  0  0  0  0  0  0  0  0  0  0  0
  -25.8835  -25.1630   27.4321 C   0  0  0  0  0  0  0  0  0  0  0  0
  -29.5123  -26.7012   20.4867 C   0  0  0  0  0  0  0  0  0  1  0  0
  -33.0237  -24.0587   22.1402 C   0  0  0  0  0  0  0  0  0  0  0  0
  -32.7681  -24.8060   20.8422 C   0  0  0  0  0  0  0  0  0  0  0  0
  -26.5914  -29.6765   25.4417 C   0  0  1  0  0  0  0  0  0  0  0  0
  -27.5917  -26.9343   27.8603 C   0  0  2  0  0  0  0  0  0  0  0  0
  -26.7753  -31.2045   25.6631 C   0  0  0  0  0  0  0  0  0  0  0  0
  -25.5408  -15.9151   20.2923 N   0  0  0  0  0  0  0  0  0  0  0  0
  -24.6660  -16.9152   20.0907 N   0  0  0  0  0  0  0  0  0  0  0  0
  -24.9035  -29.3249   23.6617 N   0  0  0  0  0  0  0  0  0  0  0  0
  -27.0448  -19.8796   19.7199 N   0  0  0  0  0  0  0  0  0  0  0  0
  -22.3620  -17.4569   20.1842 N   0  0  0  0  0  0  0  0  0  0  0  0
  -22.4669  -13.1268   21.4628 N   0  0  0  0  0  0  0  0  0  0  0  0
  -27.2657  -20.7445   21.9029 N   0  0  0  0  0  0  0  0  0  0  0  0
  -31.8962  -23.2585   22.5368 N   0  0  0  0  0  0  0  0  0  0  0  0
  -21.3800  -29.8083   23.7691 N   0  0  0  0  0  0  0  0  0  0  0  0
  -31.6515  -25.7161   20.9526 N   0  0  0  0  0  0  0  0  0  0  0  0
  -26.8951  -28.8621   26.6134 N   0  0  0  0  0  0  0  0  0  0  0  0
  -27.2825  -25.4770   27.8211 N   0  3  0  0  0  0  0  0  0  0  0  0
  -30.8354  -24.8858   23.8046 O   0  0  0  0  0  0  0  0  0  0  0  0
  -21.0912  -14.9175   21.0636 O   0  0  0  0  0  0  0  0  0  0  0  0
  -23.1616  -31.2421   23.3304 O   0  0  0  0  0  0  0  0  0  0  0  0
  -24.3535  -29.0501   25.9052 O   0  0  0  0  0  0  0  0  0  0  0  0
  -30.3280  -24.7757   19.2875 O   0  0  0  0  0  0  0  0  0  0  0  0
  -27.5323  -26.9632   25.4451 O   0  0  0  0  0  0  0  0  0  0  0  0
  -27.7797  -22.0459   20.0526 O   0  0  0  0  0  0  0  0  0  0  0  0
  -27.0107   -9.9354   21.9147 O   0  0  0  0  0  0  0  0  0  0  0  0
  -28.3654  -26.5942   19.6444 O   0  0  0  0  0  0  0  0  0  1  0  0
  -30.8197   -7.9255   18.4715 F   0  0  0  0  0  0  0  0  0  0  0  0
  -28.2377  -21.2079   26.5785 F   0  0  0  0  0  0  0  0  0  0  0  0
  -26.6274   -7.5173   20.6309 F   0  0  0  0  0  0  0  0  0  0  0  0
  1  2  1  0  0  0  0
  1  5  2  0  0  0  0
  2  6  2  0  0  0  0
  3  8  2  0  0  0  0
  3 17  1  0  0  0  0
  4  9  1  0  0  0  0
  4 17  2  0  0  0  0
  5 20  1  0  0  0  0
  6 22  1  0  0  0  0
  7 10  2  0  0  0  0
  7 21  1  0  0  0  0
  8 26  1  0  0  0  0
  9 26  2  0  0  0  0
 10 27  1  0  0  0  0
 11 12  2  0  0  0  0
 11 28  1  0  0  0  0
 12 29  1  0  0  0  0
 13 18  1  0  0  0  0
 13 25  2  0  0  0  0
 14 23  1  0  0  0  0
 14 27  2  0  0  0  0
 15 25  1  0  0  0  0
 15 30  2  0  0  0  0
 16 29  2  0  0  0  0
 16 31  1  0  0  0  0
 17 32  1  0  0  0  0
 18 24  2  0  0  0  0
 18 34  1  0  0  0  0
 19 32  1  0  0  0  0
 19 33  2  0  0  0  0
 19 35  1  0  0  0  0
 20 22  2  0  0  0  0
 20 41  1  0  0  0  0
 21 23  2  0  0  0  0
 21 42  1  0  0  0  0
 22 50  1  0  0  0  0
 23 43  1  0  0  0  0
 24 30  1  0  0  0  0
 24 53  1  0  0  0  0
 25 71  1  0  0  0  0
 26 84  1  0  0  0  0
 27 85  1  0  0  0  0
 28 31  2  0  0  0  0
 28 84  1  0  0  0  0
 29 86  1  0  0  0  0
 30 87  1  0  0  0  0
 31 88  1  0  0  0  0
 32 65  2  0  0  0  0
 33 66  1  0  0  0  0
 33 69  1  0  0  0  0
 34 72  1  0  0  0  0
 34 77  2  0  0  0  0
 35 70  1  0  0  0  0
 35 78  2  0  0  0  0
 36 51  1  0  0  0  0
 36 73  1  0  0  0  0
 36 79  2  0  0  0  0
 37 62  1  0  0  0  0
 37 67  1  0  0  0  0
 37 80  2  0  0  0  0
 38 59  1  0  0  0  0
 38 74  1  0  0  0  0
 38 81  2  0  0  0  0
 39 63  1  0  0  0  0
 39 75  1  0  0  0  0
 39 82  2  0  0  0  0
 40 68  1  0  0  0  0
 40 71  1  0  0  0  0
 40 83  2  0  0  0  0
 41 44  1  0  0  0  0
 42 51  1  0  0  0  0
 43 67  1  0  0  0  0
 44 46  1  0  0  0  0
 45 47  1  0  0  0  0
 45 48  1  0  0  0  0
 46 50  1  0  0  0  0
 47 52  1  0  0  0  0
 48 68  1  0  0  0  0
 49 52  1  0  0  0  0
 49 68  1  0  0  0  0
 50 73  1  0  0  0  0
 51 67  1  0  0  0  0
 52 66  1  0  0  0  0
 54 63  1  0  0  0  0
 55 64  1  0  0  0  0
 56 64  1  0  0  0  0
 57 64  1  0  0  0  0
 58 76  1  0  0  0  0
 59 85  1  0  0  0  0
 60 61  1  0  0  0  0
 60 72  1  0  0  0  0
 61 74  1  0  0  0  0
 62 64  1  0  0  0  0
 62 75  1  0  0  0  0
 63 76  1  0  0  0  0
 65 66  1  0  0  0  0
M  CHG  1  76   1
M  ISO  4  40 100  59 101  71 100  85 101
M  END
> <Batch ID>
0072

> <Smiles>
CNC(C)C(=O)NC(C(=O)N1Cc2cc([101O:1][101CH2:1]C(=O)NCCNC(=O)c3cc([100NH:0][100C:0](=O)N4CCCC(n5nc(-c6ccc(Oc7ccc(F)cc7F)cc6)c(C(N)=O)c5N)C4)cc(F)c3C)ccc2CC1C(=O)NC1CCCc2ccccc21)C(C)(C)C

> <Shape>
0.209

> <Color>
0.109

> <Negative vol penalty>
0.000

$$$$

  -OEChem-04042323383D

 84 92  0     1  0  0  0  0  0999 V2000
  -16.5651  -26.1208   23.7948 C   0  0  0  0  0  0  0  0  0  0  0  0
  -17.7763  -25.8088   23.1856 C   0  0  0  0  0  0  0  0  0  0  0  0
  -22.5898  -10.3014   20.5836 C   0  0  0  0  0  0  0  0  0  0  0  0
  -24.4158   -8.7196   20.5546 C   0  0  0  0  0  0  0  0  0  0  0  0
  -16.1937  -27.4541   23.9627 C   0  0  0  0  0  0  0  0  0  0  0  0
  -18.6163  -26.8300   22.7430 C   0  0  0  0  0  0  0  0  0  0  0  0
  -23.4605  -26.0381   23.9885 C   0  0  0  0  0  0  0  0  0  0  0  0
  -21.7345   -9.3055   21.0549 C   0  0  0  0  0  0  0  0  0  0  0  0
  -23.5605   -7.7236   21.0260 C   0  0  0  0  0  0  0  0  0  0  0  0
  -24.1756  -25.1245   23.2153 C   0  0  0  0  0  0  0  0  0  0  0  0
  -22.2126   -6.7943   23.9823 C   0  0  0  0  0  0  0  0  0  0  0  0
  -22.6771   -5.9779   25.0134 C   0  0  0  0  0  0  0  0  0  0  0  0
  -25.1734  -26.9492   21.9930 C   0  0  0  0  0  0  0  0  0  0  0  0
  -22.4084   -4.0380   23.5985 C   0  0  0  0  0  0  0  0  0  0  0  0
  -23.9305  -10.0084   20.3333 C   0  0  0  0  0  0  0  0  0  0  0  0
  -24.6885  -11.7693   18.6504 C   0  0  0  0  0  0  0  0  0  0  0  0
  -17.0339  -28.4923   23.5305 C   0  0  0  0  0  0  0  0  0  0  0  0
  -23.5884  -27.4160   23.7622 C   0  0  0  0  0  0  0  0  0  0  0  0
  -18.2551  -28.1785   22.9040 C   0  0  0  0  0  0  0  0  0  0  0  0
  -24.4607  -27.8783   22.7664 C   0  0  0  0  0  0  0  0  0  0  0  0
  -22.2198   -8.0166   21.2762 C   0  0  0  0  0  0  0  0  0  0  0  0
  -25.0300  -25.5799   22.2155 C   0  0  0  0  0  0  0  0  0  0  0  0
  -21.8458   -6.2326   22.7593 C   0  0  0  0  0  0  0  0  0  0  0  0
  -22.7750   -4.5997   24.8215 C   0  0  0  0  0  0  0  0  0  0  0  0
  -21.9438   -4.8545   22.5674 C   0  0  0  0  0  0  0  0  0  0  0  0
  -24.8144  -11.0366   19.8459 C   0  0  0  0  0  0  0  0  0  0  0  0
  -25.7713  -12.6144   18.6500 C   0  0  0  0  0  0  0  0  0  0  0  0
  -27.8360  -22.4167   21.2002 C   0  0  0  0  0  0  0  0  0  0  0  0
  -23.6827  -11.6930   17.6314 C   0  0  0  0  0  0  0  0  0  0  0  0
  -21.6048  -29.7380   22.8806 C   0  0  0  0  0  0  0  0  0  0  0  0
  -24.1751  -31.6266   23.4713 C   0  0  0  0  0  0  0  0  0  0  0  0
  -27.2824  -18.9788   20.1456 C   0  0  0  0  0  0  0  0  0  0  0  0
  -27.5663  -31.9055   23.7331 C   0  0  0  0  0  0  0  0  0  0  0  0
  -29.1607  -16.1829   21.2811 C   0  0  0  0  0  0  0  0  0  0  0  0
  -16.5681  -29.9178   23.6911 C   0  0  0  0  0  0  0  0  0  0  0  0
  -22.8304  -28.3894   24.6227 C   0  0  0  0  0  0  0  0  0  0  0  0
  -24.6490  -29.3481   22.4970 C   0  0  0  0  0  0  0  0  0  0  0  0
  -28.4353  -21.0489   21.0168 C   0  0  0  0  0  0  0  0  0  0  0  0
  -17.6856  -30.9454   23.5320 C   0  0  0  0  0  0  0  0  0  0  0  0
  -29.8740  -12.7099   21.6072 C   0  0  0  0  0  0  0  0  0  0  0  0
  -18.5303  -30.6294   22.3018 C   0  0  0  0  0  0  0  0  0  0  0  0
  -28.6090  -12.0262   21.0855 C   0  0  0  0  0  0  0  0  0  0  0  0
  -29.5487  -13.9921   22.3703 C   0  0  0  0  0  0  0  0  0  0  0  0
  -26.0183  -21.0115   20.7818 C   0  0  0  0  0  0  0  0  0  0  0  0
  -27.4503  -14.2746   21.1090 C   0  0  0  0  0  0  0  0  0  0  0  0
  -19.2047  -29.2585   22.4328 C   0  0  1  0  0  0  0  0  0  0  0  0
  -26.3845  -22.4846   20.7911 C   0  0  1  0  0  0  0  0  0  0  0  0
  -22.6467  -29.7527   23.9631 C   0  0  1  0  0  0  0  0  0  0  0  0
  -27.7312  -13.0066   20.2846 C   0  0  2  0  0  0  0  0  0  0  0  0
  -29.3754  -33.5835   24.1901 C   0  0  0  0  0  0  0  0  0  0  0  0
  -30.8183  -18.2276   18.8454 C   0  0  0  0  0  0  0  0  0  0  0  0
  -28.7214  -17.3891   17.7772 C   0  0  0  0  0  0  0  0  0  0  0  0
  -23.8335  -32.7575   20.6581 C   0  0  0  0  0  0  0  0  0  0  0  0
  -26.1550  -33.6803   20.8224 C   0  0  0  0  0  0  0  0  0  0  0  0
  -24.3908  -34.4578   22.4054 C   0  0  0  0  0  0  0  0  0  0  0  0
  -28.4901  -30.4306   26.1269 C   0  0  0  0  0  0  0  0  0  0  0  0
  -25.5383  -23.3051   21.7437 C   0  0  0  0  0  0  0  0  0  1  0  0
  -25.3425  -32.1290   22.6566 C   0  0  1  0  0  0  0  0  0  0  0  0
  -28.6365  -18.3147   20.1237 C   0  0  2  0  0  0  0  0  0  0  0  0
  -28.4458  -32.5425   24.7939 C   0  0  2  0  0  0  0  0  0  0  0  0
  -29.3013  -18.4240   18.7477 C   0  0  0  0  0  0  0  0  0  0  0  0
  -24.9256  -33.2283   21.6391 C   0  0  0  0  0  0  0  0  0  0  0  0
  -25.8922  -11.3855   20.5534 N   0  0  0  0  0  0  0  0  0  0  0  0
  -26.4535  -12.3466   19.8003 N   0  0  0  0  0  0  0  0  0  0  0  0
  -23.8811  -30.2602   23.3608 N   0  0  0  0  0  0  0  0  0  0  0  0
  -27.2678  -20.2951   20.5844 N   0  0  0  0  0  0  0  0  0  0  0  0
  -28.7155  -14.8791   21.5549 N   0  0  0  0  0  0  0  0  0  0  0  0
  -26.1969  -13.5528   17.7779 N   0  0  0  0  0  0  0  0  0  0  0  0
  -23.8786  -10.8055   16.5645 N   0  0  0  0  0  0  0  0  0  0  0  0
  -20.3526  -29.3418   23.3102 N   0  0  0  0  0  0  0  0  0  0  0  0
  -26.3560  -32.5555   23.6153 N   0  0  0  0  0  0  0  0  0  0  0  0
  -28.3136  -16.9554   20.4959 N   0  0  0  0  0  0  0  0  0  0  0  0
  -29.2765  -31.5056   25.4690 N   0  3  0  0  0  0  0  0  0  0  0  0
  -28.4819  -23.3796   21.5979 O   0  0  0  0  0  0  0  0  0  0  0  0
  -22.6490  -12.4030   17.6575 O   0  0  0  0  0  0  0  0  0  0  0  0
  -21.9137  -30.0636   21.7403 O   0  0  0  0  0  0  0  0  0  0  0  0
  -23.5516  -32.4161   24.1853 O   0  0  0  0  0  0  0  0  0  0  0  0
  -26.2804  -18.3595   19.7837 O   0  0  0  0  0  0  0  0  0  0  0  0
  -27.9194  -30.9313   23.0722 O   0  0  0  0  0  0  0  0  0  0  0  0
  -30.2360  -16.6240   21.7006 O   0  0  0  0  0  0  0  0  0  0  0  0
  -21.3855   -7.0446   21.7364 O   0  0  0  0  0  0  0  0  0  0  0  0
  -25.7286  -24.6904   21.4589 O   0  0  0  0  0  0  0  0  0  1  0  0
  -23.2226   -3.8160   25.8113 F   0  0  0  0  0  0  0  0  0  0  0  0
  -21.5941   -4.3093   21.3943 F   0  0  0  0  0  0  0  0  0  0  0  0
  1  2  1  0  0  0  0
  1  5  2  0  0  0  0
  2  6  2  0  0  0  0
  3  8  2  0  0  0  0
  3 15  1  0  0  0  0
  4  9  1  0  0  0  0
  4 15  2  0  0  0  0
  5 17  1  0  0  0  0
  6 19  1  0  0  0  0
  7 10  2  0  0  0  0
  7 18  1  0  0  0  0
  8 21  1  0  0  0  0
  9 21  2  0  0  0  0
 10 22  1  0  0  0  0
 11 12  2  0  0  0  0
 11 23  1  0  0  0  0
 12 24  1  0  0  0  0
 13 20  1  0  0  0  0
 13 22  2  0  0  0  0
 14 24  2  0  0  0  0
 14 25  1  0  0  0  0
 15 26  1  0  0  0  0
 16 26  1  0  0  0  0
 16 27  2  0  0  0  0
 16 29  1  0  0  0  0
 17 19  2  0  0  0  0
 17 35  1  0  0  0  0
 18 20  2  0  0  0  0
 18 36  1  0  0  0  0
 19 46  1  0  0  0  0
 20 37  1  0  0  0  0
 21 81  1  0  0  0  0
 22 82  1  0  0  0  0
 23 25  2  0  0  0  0
 23 81  1  0  0  0  0
 24 83  1  0  0  0  0
 25 84  1  0  0  0  0
 26 63  2  0  0  0  0
 27 64  1  0  0  0  0
 27 68  1  0  0  0  0
 28 38  1  0  0  0  0
 28 47  1  0  0  0  0
 28 74  2  0  0  0  0
 29 69  1  0  0  0  0
 29 75  2  0  0  0  0
 30 48  1  0  0  0  0
 30 70  1  0  0  0  0
 30 76  2  0  0  0  0
 31 58  1  0  0  0  0
 31 65  1  0  0  0  0
 31 77  2  0  0  0  0
 32 59  1  0  0  0  0
 32 66  1  0  0  0  0
 32 78  2  0  0  0  0
 33 60  1  0  0  0  0
 33 71  1  0  0  0  0
 33 79  2  0  0  0  0
 34 67  1  0  0  0  0
 34 72  1  0  0  0  0
 34 80  2  0  0  0  0
 35 39  1  0  0  0  0
 36 48  1  0  0  0  0
 37 65  1  0  0  0  0
 38 66  1  0  0  0  0
 39 41  1  0  0  0  0
 40 42  1  0  0  0  0
 40 43  1  0  0  0  0
 41 46  1  0  0  0  0
 42 49  1  0  0  0  0
 43 67  1  0  0  0  0
 44 47  1  0  0  0  0
 44 66  1  0  0  0  0
 45 49  1  0  0  0  0
 45 67  1  0  0  0  0
 46 70  1  0  0  0  0
 47 57  1  0  0  0  0
 48 65  1  0  0  0  0
 49 64  1  0  0  0  0
 50 60  1  0  0  0  0
 51 61  1  0  0  0  0
 52 61  1  0  0  0  0
 53 62  1  0  0  0  0
 54 62  1  0  0  0  0
 55 62  1  0  0  0  0
 56 73  1  0  0  0  0
 57 82  1  0  0  0  0
 58 62  1  0  0  0  0
 58 71  1  0  0  0  0
 59 61  1  0  0  0  0
 59 72  1  0  0  0  0
 60 73  1  0  0  0  0
 63 64  1  0  0  0  0
M  CHG  1  73   1
M  ISO  4  34 100  57 101  72 100  82 101
M  END
> <Batch ID>
0072

> <Smiles>
CNC(C)C(=O)NC(C(=O)N1Cc2cc([101O:1][101CH2:1]C3CN(C(=O)C([100NH:0][100C:0](=O)N4CCCC(n5nc(-c6ccc(Oc7ccc(F)cc7F)cc6)c(C(N)=O)c5N)C4)C(C)C)CC3=O)ccc2CC1C(=O)NC1CCCc2ccccc21)C(C)(C)C

> <Shape>
0.304

> <Color>
0.099

> <Negative vol penalty>
0.000

$$$$

  -OEChem-04042323383D

 87 96  0     1  0  0  0  0  0999 V2000
  -21.8287  -12.1310   19.3753 C   0  0  0  0  0  0  0  0  0  0  0  0
  -21.7282  -13.3687   20.0026 C   0  0  0  0  0  0  0  0  0  0  0  0
  -24.4986  -26.7825   17.2306 C   0  0  0  0  0  0  0  0  0  0  0  0
  -26.9079  -26.9632   17.2257 C   0  0  0  0  0  0  0  0  0  0  0  0
  -23.0533  -11.4654   19.3413 C   0  0  0  0  0  0  0  0  0  0  0  0
  -22.8522  -13.9409   20.5973 C   0  0  0  0  0  0  0  0  0  0  0  0
  -23.3358  -18.8617   19.5036 C   0  0  0  0  0  0  0  0  0  0  0  0
  -24.4898  -26.8619   15.8380 C   0  0  0  0  0  0  0  0  0  0  0  0
  -26.8991  -27.0425   15.8331 C   0  0  0  0  0  0  0  0  0  0  0  0
  -22.5217  -19.7523   20.2022 C   0  0  0  0  0  0  0  0  0  0  0  0
  -25.0880  -24.8048   13.2220 C   0  0  0  0  0  0  0  0  0  0  0  0
  -24.2798  -23.9056   12.5266 C   0  0  0  0  0  0  0  0  0  0  0  0
  -24.3639  -20.2764   21.6688 C   0  0  0  0  0  0  0  0  0  0  0  0
  -22.6998  -27.0473   24.7034 C   0  0  0  0  0  0  0  0  0  0  0  0
  -21.5590  -28.5085   22.6187 C   0  0  0  0  0  0  0  0  0  0  0  0
  -23.0516  -25.7515   11.5669 C   0  0  0  0  0  0  0  0  0  0  0  0
  -25.7077  -26.8333   17.9244 C   0  0  0  0  0  0  0  0  0  0  0  0
  -25.8066  -25.5867   20.1479 C   0  0  0  0  0  0  0  0  0  0  0  0
  -24.1950  -12.0341   19.9275 C   0  0  0  0  0  0  0  0  0  0  0  0
  -24.6692  -18.6634   19.8898 C   0  0  0  0  0  0  0  0  0  0  0  0
  -24.0929  -13.2816   20.5723 C   0  0  0  0  0  0  0  0  0  0  0  0
  -25.1935  -19.3847   20.9719 C   0  0  0  0  0  0  0  0  0  0  0  0
  -22.0365  -26.3861   23.6698 C   0  0  0  0  0  0  0  0  0  0  0  0
  -22.7927  -28.4391   24.6948 C   0  0  0  0  0  0  0  0  0  0  0  0
  -22.2223  -29.1696   23.6524 C   0  0  0  0  0  0  0  0  0  0  0  0
  -25.6900  -26.9919   15.1393 C   0  0  0  0  0  0  0  0  0  0  0  0
  -23.0349  -20.4576   21.2867 C   0  0  0  0  0  0  0  0  0  0  0  0
  -24.8780  -26.1775   13.0899 C   0  0  0  0  0  0  0  0  0  0  0  0
  -23.2616  -24.3789   11.6990 C   0  0  0  0  0  0  0  0  0  0  0  0
  -21.4661  -27.1167   22.6274 C   0  0  0  0  0  0  0  0  0  0  0  0
  -23.8599  -26.6508   12.2623 C   0  0  0  0  0  0  0  0  0  0  0  0
  -25.7174  -26.7519   19.3630 C   0  0  0  0  0  0  0  0  0  0  0  0
  -25.7759  -26.0422   21.4433 C   0  0  0  0  0  0  0  0  0  0  0  0
  -22.3976  -24.0759   24.5533 C   0  0  0  0  0  0  0  0  0  0  0  0
  -25.9082  -24.2153   19.7424 C   0  0  0  0  0  0  0  0  0  0  0  0
  -26.3569  -16.1795   20.9317 C   0  0  0  0  0  0  0  0  0  0  0  0
  -28.8364  -18.2561   20.6814 C   0  0  0  0  0  0  0  0  0  0  0  0
  -29.9066  -21.4960   20.6154 C   0  0  0  0  0  0  0  0  0  0  0  0
  -23.5219  -31.3140   23.5887 C   0  0  0  0  0  0  0  0  0  0  0  0
  -25.4863  -11.2552   19.9067 C   0  0  0  0  0  0  0  0  0  0  0  0
  -25.5419  -17.7191   19.1093 C   0  0  0  0  0  0  0  0  0  0  0  0
  -26.6242  -19.2229   21.4141 C   0  0  0  0  0  0  0  0  0  0  0  0
  -26.7137  -12.1018   20.2339 C   0  0  0  0  0  0  0  0  0  0  0  0
  -26.8733  -29.8412   24.1288 C   0  0  0  0  0  0  0  0  0  0  0  0
  -26.4513  -12.9710   21.4596 C   0  0  0  0  0  0  0  0  0  0  0  0
  -26.9939  -28.8417   22.9799 C   0  0  0  0  0  0  0  0  0  0  0  0
  -25.9716  -31.0167   23.7646 C   0  0  0  0  0  0  0  0  0  0  0  0
  -24.7318  -29.6020   22.1512 C   0  0  0  0  0  0  0  0  0  0  0  0
  -21.3184  -24.0886   22.7438 C   0  0  0  0  0  0  0  0  0  0  0  0
  -25.2952  -13.9462   21.2072 C   0  0  1  0  0  0  0  0  0  0  0  0
  -26.7381  -17.2120   19.9089 C   0  0  1  0  0  0  0  0  0  0  0  0
  -25.6028  -28.3880   22.5075 C   0  0  1  0  0  0  0  0  0  0  0  0
  -21.7943  -22.9378   23.6805 C   0  0  2  0  0  0  0  0  0  0  0  0
  -20.6694  -22.1674   24.3631 C   0  0  0  0  0  0  0  0  0  0  0  0
  -31.5019  -23.4165   20.3626 C   0  0  0  0  0  0  0  0  0  0  0  0
  -29.5121  -17.6046   23.5847 C   0  0  0  0  0  0  0  0  0  0  0  0
  -30.9502  -19.6533   23.6368 C   0  0  0  0  0  0  0  0  0  0  0  0
  -31.4927  -17.7903   22.0690 C   0  0  0  0  0  0  0  0  0  0  0  0
  -21.0859  -31.3696   23.8965 C   0  0  0  0  0  0  0  0  0  0  0  0
  -29.4386  -21.6517   17.6972 C   0  0  0  0  0  0  0  0  0  0  0  0
  -22.8332  -22.0162   23.0716 C   0  0  0  0  0  0  0  0  0  1  0  0
  -29.4882  -19.2589   21.6026 C   0  0  1  0  0  0  0  0  0  0  0  0
  -30.8497  -22.2263   19.6765 C   0  0  2  0  0  0  0  0  0  0  0  0
  -30.3332  -18.5786   22.7164 C   0  0  0  0  0  0  0  0  0  0  0  0
  -25.6360  -27.8640   20.0982 N   0  0  0  0  0  0  0  0  0  0  0  0
  -25.6738  -27.3997   21.3588 N   0  0  0  0  0  0  0  0  0  0  0  0
  -21.9451  -25.0139   23.6812 N   0  0  0  0  0  0  0  0  0  0  0  0
  -27.4358  -18.2833   20.6230 N   0  0  0  0  0  0  0  0  0  0  0  0
  -24.6727  -30.5685   23.2599 N   0  0  0  0  0  0  0  0  0  0  0  0
  -23.4696  -29.0885   25.7514 N   0  0  0  0  0  0  0  0  0  0  0  0
  -25.8265  -25.4101   22.6351 N   0  0  0  0  0  0  0  0  0  0  0  0
  -25.9265  -23.9234   18.3717 N   0  0  0  0  0  0  0  0  0  0  0  0
  -25.7419  -15.0618   20.4008 N   0  0  0  0  0  0  0  0  0  0  0  0
  -30.2460  -20.1661   20.7476 N   0  0  0  0  0  0  0  0  0  0  0  0
  -22.3033  -30.6095   23.6217 N   0  0  0  0  0  0  0  0  0  0  0  0
  -30.1103  -22.7205   18.4806 N   0  3  0  0  0  0  0  0  0  0  0  0
  -23.0203  -24.1464   25.5884 O   0  0  0  0  0  0  0  0  0  0  0  0
  -25.9640  -23.2752   20.5711 O   0  0  0  0  0  0  0  0  0  0  0  0
  -26.6039  -16.3813   22.1150 O   0  0  0  0  0  0  0  0  0  0  0  0
  -29.5441  -17.4821   20.0321 O   0  0  0  0  0  0  0  0  0  0  0  0
  -28.9653  -22.0507   21.1783 O   0  0  0  0  0  0  0  0  0  0  0  0
  -23.5669  -32.5347   23.7848 O   0  0  0  0  0  0  0  0  0  0  0  0
  -25.6818  -27.0691   13.7804 O   0  0  0  0  0  0  0  0  0  0  0  0
  -22.2423  -21.3269   21.9707 O   0  0  0  0  0  0  0  0  0  1  0  0
  -22.4865  -23.5152   11.0300 F   0  0  0  0  0  0  0  0  0  0  0  0
  -20.8267  -26.4918   21.6283 F   0  0  0  0  0  0  0  0  0  0  0  0
  -23.6541  -27.9684   12.1305 F   0  0  0  0  0  0  0  0  0  0  0  0
  1  2  1  0  0  0  0
  1  5  2  0  0  0  0
  2  6  2  0  0  0  0
  3  8  2  0  0  0  0
  3 17  1  0  0  0  0
  4  9  1  0  0  0  0
  4 17  2  0  0  0  0
  5 19  1  0  0  0  0
  6 21  1  0  0  0  0
  7 10  2  0  0  0  0
  7 20  1  0  0  0  0
  8 26  1  0  0  0  0
  9 26  2  0  0  0  0
 10 27  1  0  0  0  0
 11 12  2  0  0  0  0
 11 28  1  0  0  0  0
 12 29  1  0  0  0  0
 13 22  1  0  0  0  0
 13 27  2  0  0  0  0
 14 23  1  0  0  0  0
 14 24  2  0  0  0  0
 15 25  2  0  0  0  0
 15 30  1  0  0  0  0
 16 29  2  0  0  0  0
 16 31  1  0  0  0  0
 17 32  1  0  0  0  0
 18 32  1  0  0  0  0
 18 33  2  0  0  0  0
 18 35  1  0  0  0  0
 19 21  2  0  0  0  0
 19 40  1  0  0  0  0
 20 22  2  0  0  0  0
 20 41  1  0  0  0  0
 21 50  1  0  0  0  0
 22 42  1  0  0  0  0
 23 30  2  0  0  0  0
 23 67  1  0  0  0  0
 24 25  1  0  0  0  0
 24 70  1  0  0  0  0
 25 75  1  0  0  0  0
 26 83  1  0  0  0  0
 27 84  1  0  0  0  0
 28 31  2  0  0  0  0
 28 83  1  0  0  0  0
 29 85  1  0  0  0  0
 30 86  1  0  0  0  0
 31 87  1  0  0  0  0
 32 65  2  0  0  0  0
 33 66  1  0  0  0  0
 33 71  1  0  0  0  0
 34 53  1  0  0  0  0
 34 67  1  0  0  0  0
 34 77  2  0  0  0  0
 35 72  1  0  0  0  0
 35 78  2  0  0  0  0
 36 51  1  0  0  0  0
 36 73  1  0  0  0  0
 36 79  2  0  0  0  0
 37 62  1  0  0  0  0
 37 68  1  0  0  0  0
 37 80  2  0  0  0  0
 38 63  1  0  0  0  0
 38 74  1  0  0  0  0
 38 81  2  0  0  0  0
 39 69  1  0  0  0  0
 39 75  1  0  0  0  0
 39 82  2  0  0  0  0
 40 43  1  0  0  0  0
 41 51  1  0  0  0  0
 42 68  1  0  0  0  0
 43 45  1  0  0  0  0
 44 46  1  0  0  0  0
 44 47  1  0  0  0  0
 45 50  1  0  0  0  0
 46 52  1  0  0  0  0
 47 69  1  0  0  0  0
 48 52  1  0  0  0  0
 48 69  1  0  0  0  0
 49 53  1  0  0  0  0
 49 67  1  0  0  0  0
 50 73  1  0  0  0  0
 51 68  1  0  0  0  0
 52 66  1  0  0  0  0
 53 54  1  0  0  0  0
 53 61  1  0  0  0  0
 55 63  1  0  0  0  0
 56 64  1  0  0  0  0
 57 64  1  0  0  0  0
 58 64  1  0  0  0  0
 59 75  1  0  0  0  0
 60 76  1  0  0  0  0
 61 84  1  0  0  0  0
 62 64  1  0  0  0  0
 62 74  1  0  0  0  0
 63 76  1  0  0  0  0
 65 66  1  0  0  0  0
M  CHG  1  76   1
M  ISO  4  39 100  61 101  75 100  84 101
M  END
> <Batch ID>
0072

> <Smiles>
CNC(C)C(=O)NC(C(=O)N1Cc2cc([101O:1][101CH2:1]C3(C)CN(c4cc(N)c([100N:0](C)[100C:0](=O)N5CCCC(n6nc(-c7ccc(Oc8ccc(F)cc8F)cc7)c(C(N)=O)c6N)C5)cc4F)C3=O)ccc2CC1C(=O)NC1CCCc2ccccc21)C(C)(C)C

> <Shape>
0.185

> <Color>
0.062

> <Negative vol penalty>
0.000

$$$$

  -OEChem-04042323383D

 86 95  0     1  0  0  0  0  0999 V2000
  -28.5180  -13.1215   17.3580 C   0  0  0  0  0  0  0  0  0  0  0  0
  -27.2030  -13.3343   16.9569 C   0  0  0  0  0  0  0  0  0  0  0  0
  -18.2204  -28.1076   23.8450 C   0  0  0  0  0  0  0  0  0  0  0  0
  -29.2721  -25.7834   20.1647 C   0  0  0  0  0  0  0  0  0  0  0  0
  -27.1523  -24.7424   20.6747 C   0  0  0  0  0  0  0  0  0  0  0  0
  -28.8392  -13.1147   18.7148 C   0  0  0  0  0  0  0  0  0  0  0  0
  -26.2082  -13.5393   17.9123 C   0  0  0  0  0  0  0  0  0  0  0  0
  -22.2727  -19.5727   17.9328 C   0  0  0  0  0  0  0  0  0  0  0  0
  -17.7397  -27.0944   23.0156 C   0  0  0  0  0  0  0  0  0  0  0  0
  -19.4361  -28.7275   23.5561 C   0  0  0  0  0  0  0  0  0  0  0  0
  -29.9279  -24.5840   20.4422 C   0  0  0  0  0  0  0  0  0  0  0  0
  -27.8081  -23.5430   20.9521 C   0  0  0  0  0  0  0  0  0  0  0  0
  -21.3364  -20.6052   17.8750 C   0  0  0  0  0  0  0  0  0  0  0  0
  -28.8887  -20.1069   21.4461 C   0  0  0  0  0  0  0  0  0  0  0  0
  -28.3438  -18.9335   20.9251 C   0  0  0  0  0  0  0  0  0  0  0  0
  -20.2702  -19.7646   19.8762 C   0  0  0  0  0  0  0  0  0  0  0  0
  -28.6091  -19.8039   18.6870 C   0  0  0  0  0  0  0  0  0  0  0  0
  -27.8843  -25.8626   20.2810 C   0  0  0  0  0  0  0  0  0  0  0  0
  -27.2055  -27.8088   18.7780 C   0  0  0  0  0  0  0  0  0  0  0  0
  -27.8496  -13.3292   19.6870 C   0  0  0  0  0  0  0  0  0  0  0  0
  -22.2206  -18.6400   18.9724 C   0  0  0  0  0  0  0  0  0  0  0  0
  -26.5163  -13.5339   19.2834 C   0  0  0  0  0  0  0  0  0  0  0  0
  -21.2130  -18.7355   19.9462 C   0  0  0  0  0  0  0  0  0  0  0  0
  -19.6907  -27.3207   21.6086 C   0  0  0  0  0  0  0  0  0  0  0  0
  -18.4749  -26.7009   21.8974 C   0  0  0  0  0  0  0  0  0  0  0  0
  -20.1713  -28.3340   22.4379 C   0  0  0  0  0  0  0  0  0  0  0  0
  -29.1959  -23.4638   20.8358 C   0  0  0  0  0  0  0  0  0  0  0  0
  -20.3375  -20.7008   18.8442 C   0  0  0  0  0  0  0  0  0  0  0  0
  -29.2938  -21.1290   20.5876 C   0  0  0  0  0  0  0  0  0  0  0  0
  -28.2040  -18.7819   19.5455 C   0  0  0  0  0  0  0  0  0  0  0  0
  -29.1541  -20.9775   19.2081 C   0  0  0  0  0  0  0  0  0  0  0  0
  -27.2064  -27.1015   19.9951 C   0  0  0  0  0  0  0  0  0  0  0  0
  -26.4208  -28.9096   19.0211 C   0  0  0  0  0  0  0  0  0  0  0  0
  -16.4802  -24.9053   19.2522 C   0  0  0  0  0  0  0  0  0  0  0  0
  -27.8557  -27.4985   17.5383 C   0  0  0  0  0  0  0  0  0  0  0  0
  -23.7333  -15.5987   20.5655 C   0  0  0  0  0  0  0  0  0  0  0  0
  -22.9437  -17.4976   22.8418 C   0  0  0  0  0  0  0  0  0  0  0  0
  -22.8136  -20.0479   24.6808 C   0  0  0  0  0  0  0  0  0  0  0  0
  -22.0050  -29.9994   22.8963 C   0  0  0  0  0  0  0  0  0  0  0  0
  -28.2368  -13.2658   21.1432 C   0  0  0  0  0  0  0  0  0  0  0  0
  -23.1711  -17.4757   19.0398 C   0  0  0  0  0  0  0  0  0  0  0  0
  -21.1747  -17.6896   21.0268 C   0  0  0  0  0  0  0  0  0  0  0  0
  -16.6838  -25.8500   20.4189 C   0  0  0  0  0  0  0  0  0  0  0  0
  -27.1889  -13.8636   22.0786 C   0  0  0  0  0  0  0  0  0  0  0  0
  -25.0473  -31.8197   22.5678 C   0  0  0  0  0  0  0  0  0  0  0  0
  -25.7965  -13.3602   21.7118 C   0  0  0  0  0  0  0  0  0  0  0  0
  -25.9441  -30.8832   21.7548 C   0  0  0  0  0  0  0  0  0  0  0  0
  -24.1616  -31.0495   23.5455 C   0  0  0  0  0  0  0  0  0  0  0  0
  -24.2633  -29.0341   22.1324 C   0  0  0  0  0  0  0  0  0  0  0  0
  -18.4405  -24.3134   21.2677 C   0  0  0  0  0  0  0  0  0  0  0  0
  -25.4135  -13.7846   20.2889 C   0  0  1  0  0  0  0  0  0  0  0  0
  -23.5455  -17.0850   20.4808 C   0  0  1  0  0  0  0  0  0  0  0  0
  -25.1273  -29.7592   21.0877 C   0  0  2  0  0  0  0  0  0  0  0  0
  -18.5569  -23.6585   19.8967 C   0  0  1  0  0  0  0  0  0  0  0  0
  -20.4792  -26.8986   20.4076 C   0  0  0  0  0  0  0  0  0  0  0  0
  -22.5566  -21.2324   26.8781 C   0  0  0  0  0  0  0  0  0  0  0  0
  -20.4334  -15.8349   23.3293 C   0  0  0  0  0  0  0  0  0  0  0  0
  -20.0506  -17.1561   25.4213 C   0  0  0  0  0  0  0  0  0  0  0  0
  -22.1080  -15.7654   25.1855 C   0  0  0  0  0  0  0  0  0  0  0  0
  -25.4818  -21.3065   24.4463 C   0  0  0  0  0  0  0  0  0  0  0  0
  -18.8904  -22.1756   20.0224 C   0  0  0  0  0  0  0  0  0  1  0  0
  -21.8945  -17.8997   23.8471 C   0  0  1  0  0  0  0  0  0  0  0  0
  -23.5370  -20.6524   25.8706 C   0  0  2  0  0  0  0  0  0  0  0  0
  -21.1239  -16.6771   24.4207 C   0  0  0  0  0  0  0  0  0  0  0  0
  -26.4801  -27.7026   20.9413 N   0  0  0  0  0  0  0  0  0  0  0  0
  -26.0156  -28.7992   20.3187 N   0  0  0  0  0  0  0  0  0  0  0  0
  -17.3396  -23.8414   19.1241 N   0  0  0  0  0  0  0  0  0  0  0  0
  -17.9757  -25.6853   21.0791 N   0  0  2  0  0  0  0  0  0  0  0  0
  -22.5381  -17.4107   21.5045 N   0  0  0  0  0  0  0  0  0  0  0  0
  -23.4149  -30.0043   22.8421 N   0  0  0  0  0  0  0  0  0  0  0  0
  -26.0450  -29.9515   18.2494 N   0  0  0  0  0  0  0  0  0  0  0  0
  -27.1637  -26.7253   16.5962 N   0  0  0  0  0  0  0  0  0  0  0  0
  -21.4033  -28.9776   22.1627 N   0  0  0  0  0  0  0  0  0  0  0  0
  -25.0143  -15.1755   20.2666 N   0  0  0  0  0  0  0  0  0  0  0  0
  -22.5808  -18.7001   24.8555 N   0  0  0  0  0  0  0  0  0  0  0  0
  -24.4502  -21.7416   25.4228 N   0  3  0  0  0  0  0  0  0  0  0  0
  -15.5326  -25.0736   18.4802 O   0  0  0  0  0  0  0  0  0  0  0  0
  -29.0221  -27.8813   17.2807 O   0  0  0  0  0  0  0  0  0  0  0  0
  -22.7866  -14.8871   20.8804 O   0  0  0  0  0  0  0  0  0  0  0  0
  -24.0913  -17.2609   23.2296 O   0  0  0  0  0  0  0  0  0  0  0  0
  -22.4843  -20.7063   23.6966 O   0  0  0  0  0  0  0  0  0  0  0  0
  -21.3767  -30.8561   23.5236 O   0  0  0  0  0  0  0  0  0  0  0  0
  -29.8354  -22.2931   21.1064 O   0  0  0  0  0  0  0  0  0  0  0  0
  -19.4293  -21.7139   18.7844 O   0  0  0  0  0  0  0  0  0  1  0  0
  -27.6821  -17.6543   19.0452 F   0  0  0  0  0  0  0  0  0  0  0  0
  -29.5425  -21.9554   18.3783 F   0  0  0  0  0  0  0  0  0  0  0  0
  1  2  1  0  0  0  0
  1  6  2  0  0  0  0
  2  7  2  0  0  0  0
  3  9  2  0  0  0  0
  3 10  1  0  0  0  0
  4 11  2  0  0  0  0
  4 18  1  0  0  0  0
  5 12  1  0  0  0  0
  5 18  2  0  0  0  0
  6 20  1  0  0  0  0
  7 22  1  0  0  0  0
  8 13  2  0  0  0  0
  8 21  1  0  0  0  0
  9 25  1  0  0  0  0
 10 26  2  0  0  0  0
 11 27  1  0  0  0  0
 12 27  2  0  0  0  0
 13 28  1  0  0  0  0
 14 15  2  0  0  0  0
 14 29  1  0  0  0  0
 15 30  1  0  0  0  0
 16 23  1  0  0  0  0
 16 28  2  0  0  0  0
 17 30  2  0  0  0  0
 17 31  1  0  0  0  0
 18 32  1  0  0  0  0
 19 32  1  0  0  0  0
 19 33  2  0  0  0  0
 19 35  1  0  0  0  0
 20 22  2  0  0  0  0
 20 40  1  0  0  0  0
 21 23  2  0  0  0  0
 21 41  1  0  0  0  0
 22 51  1  0  0  0  0
 23 42  1  0  0  0  0
 24 25  2  0  0  0  0
 24 26  1  0  0  0  0
 24 55  1  0  0  0  0
 25 68  1  0  0  0  0
 26 73  1  0  0  0  0
 27 83  1  0  0  0  0
 28 84  1  0  0  0  0
 29 31  2  0  0  0  0
 29 83  1  0  0  0  0
 30 85  1  0  0  0  0
 31 86  1  0  0  0  0
 32 65  2  0  0  0  0
 33 66  1  0  0  0  0
 33 71  1  0  0  0  0
 34 43  1  0  0  0  0
 34 67  1  0  0  0  0
 34 77  2  0  0  0  0
 35 72  1  0  0  0  0
 35 78  2  0  0  0  0
 36 52  1  0  0  0  0
 36 74  1  0  0  0  0
 36 79  2  0  0  0  0
 37 62  1  0  0  0  0
 37 69  1  0  0  0  0
 37 80  2  0  0  0  0
 38 63  1  0  0  0  0
 38 75  1  0  0  0  0
 38 81  2  0  0  0  0
 39 70  1  0  0  0  0
 39 73  1  0  0  0  0
 39 82  2  0  0  0  0
 40 44  1  0  0  0  0
 41 52  1  0  0  0  0
 42 69  1  0  0  0  0
 43 68  1  0  0  0  0
 44 46  1  0  0  0  0
 45 47  1  0  0  0  0
 45 48  1  0  0  0  0
 46 51  1  0  0  0  0
 47 53  1  0  0  0  0
 48 70  1  0  0  0  0
 49 53  1  0  0  0  0
 49 70  1  0  0  0  0
 50 54  1  0  0  0  0
 50 68  1  0  0  0  0
 51 74  1  0  0  0  0
 52 69  1  0  0  0  0
 53 66  1  0  0  0  0
 54 61  1  0  0  0  0
 54 67  1  0  0  0  0
 56 63  1  0  0  0  0
 57 64  1  0  0  0  0
 58 64  1  0  0  0  0
 59 64  1  0  0  0  0
 60 76  1  0  0  0  0
 61 84  1  0  0  0  0
 62 64  1  0  0  0  0
 62 75  1  0  0  0  0
 63 76  1  0  0  0  0
 65 66  1  0  0  0  0
M  CHG  1  76   1
M  ISO  4  39 100  61 101  73 100  84 101
M  END
> <Batch ID>
0072

> <Smiles>
CNC(C)C(=O)NC(C(=O)N1Cc2cc([101O:1][101CH2:1]C3CN(c4cccc([100NH:0][100C:0](=O)N5CCCC(n6nc(-c7ccc(Oc8ccc(F)cc8F)cc7)c(C(N)=O)c6N)C5)c4C)CC(=O)N3)ccc2CC1C(=O)NC1CCCc2ccccc21)C(C)(C)C

> <Shape>
0.235

> <Color>
0.077

> <Negative vol penalty>
0.000

$$$$

  -OEChem-04042323383D

 87 95  0     1  0  0  0  0  0999 V2000
  -28.8291  -36.1303   25.2160 C   0  0  0  0  0  0  0  0  0  0  0  0
  -29.0734  -34.8462   24.7397 C   0  0  0  0  0  0  0  0  0  0  0  0
  -23.0404   -9.7588   20.0739 C   0  0  0  0  0  0  0  0  0  0  0  0
  -23.6569  -10.0467   22.3921 C   0  0  0  0  0  0  0  0  0  0  0  0
  -27.5426  -36.4923   25.6131 C   0  0  0  0  0  0  0  0  0  0  0  0
  -28.0313  -33.9230   24.6611 C   0  0  0  0  0  0  0  0  0  0  0  0
  -27.2748  -29.5780   20.4121 C   0  0  0  0  0  0  0  0  0  0  0  0
  -22.2748   -8.6441   20.4159 C   0  0  0  0  0  0  0  0  0  0  0  0
  -22.8912   -8.9320   22.7341 C   0  0  0  0  0  0  0  0  0  0  0  0
  -27.5645  -28.2143   20.4031 C   0  0  0  0  0  0  0  0  0  0  0  0
  -23.1939   -5.5671   22.6054 C   0  0  0  0  0  0  0  0  0  0  0  0
  -23.7569   -4.6377   23.4800 C   0  0  0  0  0  0  0  0  0  0  0  0
  -29.5544  -19.3972   21.7483 C   0  0  0  0  0  0  0  0  0  0  0  0
  -25.2880  -27.7328   21.0397 C   0  0  0  0  0  0  0  0  0  0  0  0
  -31.1119  -17.6154   20.2711 C   0  0  0  0  0  0  0  0  0  0  0  0
  -21.9543   -5.0170   25.0434 C   0  0  0  0  0  0  0  0  0  0  0  0
  -23.7315  -10.4601   21.0620 C   0  0  0  0  0  0  0  0  0  0  0  0
  -30.5115  -19.8812   20.8566 C   0  0  0  0  0  0  0  0  0  0  0  0
  -24.0970  -12.9519   20.6563 C   0  0  0  0  0  0  0  0  0  0  0  0
  -26.4823  -35.5760   25.5303 C   0  0  0  0  0  0  0  0  0  0  0  0
  -25.9903  -30.0307   20.7461 C   0  0  0  0  0  0  0  0  0  0  0  0
  -26.7296  -34.2727   25.0587 C   0  0  0  0  0  0  0  0  0  0  0  0
  -24.9840  -29.1027   21.0496 C   0  0  0  0  0  0  0  0  0  0  0  0
  -30.1548  -17.1313   21.1629 C   0  0  0  0  0  0  0  0  0  0  0  0
  -22.2002   -8.2307   21.7460 C   0  0  0  0  0  0  0  0  0  0  0  0
  -26.5718  -27.2916   20.7198 C   0  0  0  0  0  0  0  0  0  0  0  0
  -22.0111   -6.2214   22.9498 C   0  0  0  0  0  0  0  0  0  0  0  0
  -23.1371   -4.3627   24.6990 C   0  0  0  0  0  0  0  0  0  0  0  0
  -29.3761  -18.0222   21.9015 C   0  0  0  0  0  0  0  0  0  0  0  0
  -31.2903  -18.9903   20.1180 C   0  0  0  0  0  0  0  0  0  0  0  0
  -21.3913   -5.9464   24.1687 C   0  0  0  0  0  0  0  0  0  0  0  0
  -24.5230  -11.6112   20.7093 C   0  0  0  0  0  0  0  0  0  0  0  0
  -25.2145  -13.6524   20.2730 C   0  0  0  0  0  0  0  0  0  0  0  0
  -30.6982  -21.3373   20.6965 C   0  0  0  0  0  0  0  0  0  0  0  0
  -22.8065  -13.5139   20.9293 C   0  0  0  0  0  0  0  0  0  0  0  0
  -24.7843  -31.8551   23.0527 C   0  0  0  0  0  0  0  0  0  0  0  0
  -28.3377  -24.0697   20.4212 C   0  0  0  0  0  0  0  0  0  0  0  0
  -22.0488  -31.5378   21.3384 C   0  0  0  0  0  0  0  0  0  0  0  0
  -20.2338  -29.7241   19.0883 C   0  0  0  0  0  0  0  0  0  0  0  0
  -30.6663  -14.7167   20.6589 C   0  0  0  0  0  0  0  0  0  0  0  0
  -25.1182  -35.9985   26.0156 C   0  0  0  0  0  0  0  0  0  0  0  0
  -25.6869  -31.5038   20.7251 C   0  0  0  0  0  0  0  0  0  0  0  0
  -23.5836  -29.5361   21.3953 C   0  0  0  0  0  0  0  0  0  0  0  0
  -23.9935  -35.0779   25.5488 C   0  0  0  0  0  0  0  0  0  0  0  0
  -29.6845  -12.0305   18.5380 C   0  0  0  0  0  0  0  0  0  0  0  0
  -24.3786  -33.6167   25.7572 C   0  0  0  0  0  0  0  0  0  0  0  0
  -28.2191  -11.7923   18.9095 C   0  0  0  0  0  0  0  0  0  0  0  0
  -30.5250  -12.4053   19.7574 C   0  0  0  0  0  0  0  0  0  0  0  0
  -28.5410  -13.2913   20.9185 C   0  0  0  0  0  0  0  0  0  0  0  0
  -25.6203  -33.2507   24.9353 C   0  0  1  0  0  0  0  0  0  0  0  0
  -24.4809  -31.8777   21.5813 C   0  0  1  0  0  0  0  0  0  0  0  0
  -27.6419  -12.9745   19.7124 C   0  0  2  0  0  0  0  0  0  0  0  0
  -30.1224  -23.8179   18.6720 C   0  0  0  0  0  0  0  0  0  0  0  0
  -18.0179  -29.6958   17.9108 C   0  0  0  0  0  0  0  0  0  0  0  0
  -20.7017  -30.5765   23.9018 C   0  0  0  0  0  0  0  0  0  0  0  0
  -18.8299  -29.6822   22.5001 C   0  0  0  0  0  0  0  0  0  0  0  0
  -19.3163  -32.1288   22.5141 C   0  0  0  0  0  0  0  0  0  0  0  0
  -21.5152  -29.8986   16.4262 C   0  0  0  0  0  0  0  0  0  0  0  0
  -28.1839  -25.5783   20.3710 C   0  0  0  0  0  0  0  0  0  1  0  0
  -29.7148  -23.5228   20.1019 C   0  0  2  0  0  0  0  0  0  0  0  0
  -20.9015  -30.5566   21.3278 C   0  0  1  0  0  0  0  0  0  0  0  0
  -19.4715  -30.1374   17.8422 C   0  0  2  0  0  0  0  0  0  0  0  0
  -19.9641  -30.7276   22.5564 C   0  0  0  0  0  0  0  0  0  0  0  0
  -25.8107  -11.4662   20.3854 N   0  0  0  0  0  0  0  0  0  0  0  0
  -26.2034  -12.7248   20.1251 N   0  0  0  0  0  0  0  0  0  0  0  0
  -23.3381  -30.9875   21.3673 N   0  0  0  0  0  0  0  0  0  0  0  0
  -29.9197  -13.5351   20.4660 N   0  0  0  0  0  0  0  0  0  0  0  0
  -25.4379  -14.9652   20.0514 N   0  0  0  0  0  0  0  0  0  0  0  0
  -21.7696  -12.6518   21.3113 N   0  0  0  0  0  0  0  0  0  0  0  0
  -29.9757  -15.7342   21.3164 N   0  0  0  0  0  0  0  0  0  0  0  0
  -29.6584  -22.0752   20.2800 N   0  0  0  0  0  0  0  0  0  0  0  0
  -25.2665  -33.0524   23.5461 N   0  0  0  0  0  0  0  0  0  0  0  0
  -20.2354  -30.7215   20.0404 N   0  0  0  0  0  0  0  0  0  0  0  0
  -31.8970  -21.8510   20.9722 N   0  3  0  0  0  0  0  0  0  0  0  0
  -20.0908  -29.5295   16.6307 N   0  3  0  0  0  0  0  0  0  0  0  0
  -22.5753  -14.7421   20.8212 O   0  0  0  0  0  0  0  0  0  0  0  0
  -24.5935  -30.8280   23.6933 O   0  0  0  0  0  0  0  0  0  0  0  0
  -27.3909  -23.3363   20.7066 O   0  0  0  0  0  0  0  0  0  0  0  0
  -21.8100  -32.7477   21.3145 O   0  0  0  0  0  0  0  0  0  0  0  0
  -20.7707  -28.6249   19.2067 O   0  0  0  0  0  0  0  0  0  0  0  0
  -31.8232  -14.8280   20.2454 O   0  0  0  0  0  0  0  0  0  0  0  0
  -21.4530   -7.1432   22.0801 O   0  0  0  0  0  0  0  0  0  0  0  0
  -26.8520  -25.9599   20.7124 O   0  0  0  0  0  0  0  0  0  1  0  0
  -23.6771   -3.4691   25.5381 F   0  0  0  0  0  0  0  0  0  0  0  0
  -28.4532  -17.5681   22.7618 F   0  0  0  0  0  0  0  0  0  0  0  0
  -32.2127  -19.4459   19.2587 F   0  0  0  0  0  0  0  0  0  0  0  0
  -20.2543   -6.5709   24.5045 F   0  0  0  0  0  0  0  0  0  0  0  0
  1  2  1  0  0  0  0
  1  5  2  0  0  0  0
  2  6  2  0  0  0  0
  3  8  2  0  0  0  0
  3 17  1  0  0  0  0
  4  9  1  0  0  0  0
  4 17  2  0  0  0  0
  5 20  1  0  0  0  0
  6 22  1  0  0  0  0
  7 10  2  0  0  0  0
  7 21  1  0  0  0  0
  8 25  1  0  0  0  0
  9 25  2  0  0  0  0
 10 26  1  0  0  0  0
 11 12  2  0  0  0  0
 11 27  1  0  0  0  0
 12 28  1  0  0  0  0
 13 18  1  0  0  0  0
 13 29  2  0  0  0  0
 14 23  1  0  0  0  0
 14 26  2  0  0  0  0
 15 24  2  0  0  0  0
 15 30  1  0  0  0  0
 16 28  2  0  0  0  0
 16 31  1  0  0  0  0
 17 32  1  0  0  0  0
 18 30  2  0  0  0  0
 18 34  1  0  0  0  0
 19 32  1  0  0  0  0
 19 33  2  0  0  0  0
 19 35  1  0  0  0  0
 20 22  2  0  0  0  0
 20 41  1  0  0  0  0
 21 23  2  0  0  0  0
 21 42  1  0  0  0  0
 22 50  1  0  0  0  0
 23 43  1  0  0  0  0
 24 29  1  0  0  0  0
 24 70  1  0  0  0  0
 25 82  1  0  0  0  0
 26 83  1  0  0  0  0
 27 31  2  0  0  0  0
 27 82  1  0  0  0  0
 28 84  1  0  0  0  0
 29 85  1  0  0  0  0
 30 86  1  0  0  0  0
 31 87  1  0  0  0  0
 32 64  2  0  0  0  0
 33 65  1  0  0  0  0
 33 68  1  0  0  0  0
 34 71  1  0  0  0  0
 34 74  2  0  0  0  0
 35 69  1  0  0  0  0
 35 76  2  0  0  0  0
 36 51  1  0  0  0  0
 36 72  1  0  0  0  0
 36 77  2  0  0  0  0
 37 59  1  0  0  0  0
 37 60  1  0  0  0  0
 37 78  2  0  0  0  0
 38 61  1  0  0  0  0
 38 66  1  0  0  0  0
 38 79  2  0  0  0  0
 39 62  1  0  0  0  0
 39 73  1  0  0  0  0
 39 80  2  0  0  0  0
 40 67  1  0  0  0  0
 40 70  1  0  0  0  0
 40 81  2  0  0  0  0
 41 44  1  0  0  0  0
 42 51  1  0  0  0  0
 43 66  1  0  0  0  0
 44 46  1  0  0  0  0
 45 47  1  0  0  0  0
 45 48  1  0  0  0  0
 46 50  1  0  0  0  0
 47 52  1  0  0  0  0
 48 67  1  0  0  0  0
 49 52  1  0  0  0  0
 49 67  1  0  0  0  0
 50 72  1  0  0  0  0
 51 66  1  0  0  0  0
 52 65  1  0  0  0  0
 53 60  1  0  0  0  0
 54 62  1  0  0  0  0
 55 63  1  0  0  0  0
 56 63  1  0  0  0  0
 57 63  1  0  0  0  0
 58 75  1  0  0  0  0
 59 83  1  0  0  0  0
 60 71  1  0  0  0  0
 61 63  1  0  0  0  0
 61 73  1  0  0  0  0
 62 75  1  0  0  0  0
 64 65  1  0  0  0  0
M  CHG  2  74   1  75   1
M  ISO  4  40 100  59 101  70 100  83 101
M  END
> <Batch ID>
0072

> <Smiles>
CNC(C)C(=O)NC(C(=O)N1Cc2cc([101O:1][101CH2:1]C(=O)C(C)NC(=N)c3cc(F)c([100NH:0][100C:0](=O)N4CCCC(n5nc(-c6ccc(Oc7ccc(F)cc7F)cc6)c(C(N)=O)c5N)C4)cc3F)ccc2CC1C(=O)NC1CCCc2ccccc21)C(C)(C)C

> <Shape>
0.376

> <Color>
0.223

> <Negative vol penalty>
0.000

$$$$

  -OEChem-04042323383D

 85 94  0     1  0  0  0  0  0999 V2000
  -18.4876  -26.9222   23.0768 C   0  0  0  0  0  0  0  0  0  0  0  0
  -19.0199  -26.3267   21.9377 C   0  0  0  0  0  0  0  0  0  0  0  0
  -29.6844  -18.1396   14.2119 C   0  0  0  0  0  0  0  0  0  0  0  0
  -23.1758   -9.9376   19.8867 C   0  0  0  0  0  0  0  0  0  0  0  0
  -23.8960   -9.7904   22.1882 C   0  0  0  0  0  0  0  0  0  0  0  0
  -18.9563  -28.1670   23.4950 C   0  0  0  0  0  0  0  0  0  0  0  0
  -20.0205  -26.9762   21.2155 C   0  0  0  0  0  0  0  0  0  0  0  0
  -23.7979  -23.8689   19.9035 C   0  0  0  0  0  0  0  0  0  0  0  0
  -28.6020  -19.0145   14.1207 C   0  0  0  0  0  0  0  0  0  0  0  0
  -29.7470  -17.2137   15.2534 C   0  0  0  0  0  0  0  0  0  0  0  0
  -22.4604   -8.7494   20.0345 C   0  0  0  0  0  0  0  0  0  0  0  0
  -23.1805   -8.6021   22.3360 C   0  0  0  0  0  0  0  0  0  0  0  0
  -23.5768  -23.0200   18.8199 C   0  0  0  0  0  0  0  0  0  0  0  0
  -19.9661   -7.6751   22.8146 C   0  0  0  0  0  0  0  0  0  0  0  0
  -19.1907   -7.5260   23.9644 C   0  0  0  0  0  0  0  0  0  0  0  0
  -24.8139  -24.5245   17.3967 C   0  0  0  0  0  0  0  0  0  0  0  0
  -27.6446  -18.0378   16.1123 C   0  0  0  0  0  0  0  0  0  0  0  0
  -20.4732   -5.5719   24.5760 C   0  0  0  0  0  0  0  0  0  0  0  0
  -23.8937  -10.4581   20.9635 C   0  0  0  0  0  0  0  0  0  0  0  0
  -24.1666  -12.9933   21.0412 C   0  0  0  0  0  0  0  0  0  0  0  0
  -19.9699  -28.8276   22.7831 C   0  0  0  0  0  0  0  0  0  0  0  0
  -24.5206  -25.0594   19.7392 C   0  0  0  0  0  0  0  0  0  0  0  0
  -20.5022  -28.2315   21.6239 C   0  0  0  0  0  0  0  0  0  0  0  0
  -25.0450  -25.3855   18.4804 C   0  0  0  0  0  0  0  0  0  0  0  0
  -27.5821  -18.9637   15.0708 C   0  0  0  0  0  0  0  0  0  0  0  0
  -28.7271  -17.1629   16.2035 C   0  0  0  0  0  0  0  0  0  0  0  0
  -22.4627   -8.0816   21.2592 C   0  0  0  0  0  0  0  0  0  0  0  0
  -24.0824  -23.3492   17.5656 C   0  0  0  0  0  0  0  0  0  0  0  0
  -20.9951   -6.7725   22.5454 C   0  0  0  0  0  0  0  0  0  0  0  0
  -19.4442   -6.4745   24.8451 C   0  0  0  0  0  0  0  0  0  0  0  0
  -21.2486   -5.7210   23.4261 C   0  0  0  0  0  0  0  0  0  0  0  0
  -24.6334  -11.6852   20.8113 C   0  0  0  0  0  0  0  0  0  0  0  0
  -25.2434  -13.7970   20.7566 C   0  0  0  0  0  0  0  0  0  0  0  0
  -26.2052  -20.8052   14.0904 C   0  0  0  0  0  0  0  0  0  0  0  0
  -22.8752  -13.4417   21.4735 C   0  0  0  0  0  0  0  0  0  0  0  0
  -23.8629  -28.1494   20.0903 C   0  0  0  0  0  0  0  0  0  0  0  0
  -27.0326  -28.4925   19.4923 C   0  0  0  0  0  0  0  0  0  0  0  0
  -29.8731  -27.2133   18.0989 C   0  0  0  0  0  0  0  0  0  0  0  0
  -29.4386  -14.9598   17.1175 C   0  0  0  0  0  0  0  0  0  0  0  0
  -20.4110  -30.1932   23.2469 C   0  0  0  0  0  0  0  0  0  0  0  0
  -24.7732  -25.9511   20.9239 C   0  0  0  0  0  0  0  0  0  0  0  0
  -25.8448  -26.6418   18.2557 C   0  0  0  0  0  0  0  0  0  0  0  0
  -21.7362  -30.6446   22.6383 C   0  0  0  0  0  0  0  0  0  0  0  0
  -30.0932  -12.6624   19.9288 C   0  0  0  0  0  0  0  0  0  0  0  0
  -21.7475  -30.3892   21.1345 C   0  0  0  0  0  0  0  0  0  0  0  0
  -28.6881  -12.2651   20.3782 C   0  0  0  0  0  0  0  0  0  0  0  0
  -30.1415  -12.9855   18.4384 C   0  0  0  0  0  0  0  0  0  0  0  0
  -27.7496  -13.6245   18.4659 C   0  0  0  0  0  0  0  0  0  0  0  0
  -25.3348  -19.9813   15.8232 C   0  0  0  0  0  0  0  0  0  0  0  0
  -21.6061  -28.8934   20.8279 C   0  0  1  0  0  0  0  0  0  0  0  0
  -25.0835  -27.3923   20.5315 C   0  0  1  0  0  0  0  0  0  0  0  0
  -27.6593  -13.3344   19.9718 C   0  0  1  0  0  0  0  0  0  0  0  0
  -24.8903  -21.1222   14.8594 C   0  0  2  0  0  0  0  0  0  0  0  0
  -23.6237  -20.8252   14.0642 C   0  0  0  0  0  0  0  0  0  0  0  0
  -32.3000  -27.7401   17.7380 C   0  0  0  0  0  0  0  0  0  0  0  0
  -26.2755  -30.4544   17.2814 C   0  0  0  0  0  0  0  0  0  0  0  0
  -28.5923  -30.2078   16.3650 C   0  0  0  0  0  0  0  0  0  0  0  0
  -28.2507  -31.1403   18.6534 C   0  0  0  0  0  0  0  0  0  0  0  0
  -28.3929  -16.6339   18.6254 C   0  0  0  0  0  0  0  0  0  0  0  0
  -30.7372  -24.8380   19.6385 C   0  0  0  0  0  0  0  0  0  0  0  0
  -24.8640  -22.5033   15.4849 C   0  0  0  0  0  0  0  0  0  1  0  0
  -27.8730  -28.6730   18.2513 C   0  0  1  0  0  0  0  0  0  0  0  0
  -31.2824  -27.0629   18.6428 C   0  0  2  0  0  0  0  0  0  0  0  0
  -27.7312  -30.0961   17.6412 C   0  0  0  0  0  0  0  0  0  0  0  0
  -25.9074  -11.6552   20.4113 N   0  0  0  0  0  0  0  0  0  0  0  0
  -26.2503  -12.9544   20.3876 N   0  0  0  0  0  0  0  0  0  0  0  0
  -26.5148  -19.8264   14.9799 N   0  0  0  0  0  0  0  0  0  0  0  0
  -26.0594  -27.4844   19.4437 N   0  0  0  0  0  0  0  0  0  0  0  0
  -29.1236  -13.9705   18.0706 N   0  0  0  0  0  0  0  0  0  0  0  0
  -25.4176  -15.1353   20.7885 N   0  0  0  0  0  0  0  0  0  0  0  0
  -21.8835  -12.4828   21.7217 N   0  0  0  0  0  0  0  0  0  0  0  0
  -22.8645  -28.2120   21.0436 N   0  0  0  0  0  0  0  0  0  0  0  0
  -29.2371  -28.3170   18.6267 N   0  0  0  0  0  0  0  0  0  0  0  0
  -28.7923  -16.2042   17.2813 N   0  0  0  0  0  0  0  0  0  0  0  0
  -31.6420  -25.6213   18.7582 N   0  3  0  0  0  0  0  0  0  0  0  0
  -26.7637  -21.2277   13.1036 O   0  0  0  0  0  0  0  0  0  0  0  0
  -22.6036  -14.6576   21.6192 O   0  0  0  0  0  0  0  0  0  0  0  0
  -23.8299  -28.6415   18.9685 O   0  0  0  0  0  0  0  0  0  0  0  0
  -27.2369  -29.2146   20.4713 O   0  0  0  0  0  0  0  0  0  0  0  0
  -29.3867  -26.4322   17.2842 O   0  0  0  0  0  0  0  0  0  0  0  0
  -30.2548  -14.7560   16.2109 O   0  0  0  0  0  0  0  0  0  0  0  0
  -21.7645   -6.9223   21.4038 O   0  0  0  0  0  0  0  0  0  0  0  0
  -23.8675  -22.5227   16.5061 O   0  0  0  0  0  0  0  0  0  1  0  0
  -18.7005   -6.3324   25.9500 F   0  0  0  0  0  0  0  0  0  0  0  0
  -22.2364   -4.8514   23.1734 F   0  0  0  0  0  0  0  0  0  0  0  0
  1  2  1  0  0  0  0
  1  6  2  0  0  0  0
  2  7  2  0  0  0  0
  3  9  2  0  0  0  0
  3 10  1  0  0  0  0
  4 11  2  0  0  0  0
  4 19  1  0  0  0  0
  5 12  1  0  0  0  0
  5 19  2  0  0  0  0
  6 21  1  0  0  0  0
  7 23  1  0  0  0  0
  8 13  2  0  0  0  0
  8 22  1  0  0  0  0
  9 25  1  0  0  0  0
 10 26  2  0  0  0  0
 11 27  1  0  0  0  0
 12 27  2  0  0  0  0
 13 28  1  0  0  0  0
 14 15  2  0  0  0  0
 14 29  1  0  0  0  0
 15 30  1  0  0  0  0
 16 24  1  0  0  0  0
 16 28  2  0  0  0  0
 17 25  2  0  0  0  0
 17 26  1  0  0  0  0
 18 30  2  0  0  0  0
 18 31  1  0  0  0  0
 19 32  1  0  0  0  0
 20 32  1  0  0  0  0
 20 33  2  0  0  0  0
 20 35  1  0  0  0  0
 21 23  2  0  0  0  0
 21 40  1  0  0  0  0
 22 24  2  0  0  0  0
 22 41  1  0  0  0  0
 23 50  1  0  0  0  0
 24 42  1  0  0  0  0
 25 67  1  0  0  0  0
 26 74  1  0  0  0  0
 27 82  1  0  0  0  0
 28 83  1  0  0  0  0
 29 31  2  0  0  0  0
 29 82  1  0  0  0  0
 30 84  1  0  0  0  0
 31 85  1  0  0  0  0
 32 65  2  0  0  0  0
 33 66  1  0  0  0  0
 33 70  1  0  0  0  0
 34 53  1  0  0  0  0
 34 67  1  0  0  0  0
 34 76  2  0  0  0  0
 35 71  1  0  0  0  0
 35 77  2  0  0  0  0
 36 51  1  0  0  0  0
 36 72  1  0  0  0  0
 36 78  2  0  0  0  0
 37 62  1  0  0  0  0
 37 68  1  0  0  0  0
 37 79  2  0  0  0  0
 38 63  1  0  0  0  0
 38 73  1  0  0  0  0
 38 80  2  0  0  0  0
 39 69  1  0  0  0  0
 39 74  1  0  0  0  0
 39 81  2  0  0  0  0
 40 43  1  0  0  0  0
 41 51  1  0  0  0  0
 42 68  1  0  0  0  0
 43 45  1  0  0  0  0
 44 46  1  0  0  0  0
 44 47  1  0  0  0  0
 45 50  1  0  0  0  0
 46 52  1  0  0  0  0
 47 69  1  0  0  0  0
 48 52  1  0  0  0  0
 48 69  1  0  0  0  0
 49 53  1  0  0  0  0
 49 67  1  0  0  0  0
 50 72  1  0  0  0  0
 51 68  1  0  0  0  0
 52 66  1  0  0  0  0
 53 54  1  0  0  0  0
 53 61  1  0  0  0  0
 55 63  1  0  0  0  0
 56 64  1  0  0  0  0
 57 64  1  0  0  0  0
 58 64  1  0  0  0  0
 59 74  1  0  0  0  0
 60 75  1  0  0  0  0
 61 83  1  0  0  0  0
 62 64  1  0  0  0  0
 62 73  1  0  0  0  0
 63 75  1  0  0  0  0
 65 66  1  0  0  0  0
M  CHG  1  75   1
M  ISO  4  39 100  61 101  74 100  83 101
M  END
> <Batch ID>
0072

> <Smiles>
CNC(C)C(=O)NC(C(=O)N1Cc2cc([101O:1][101CH2:1]C3(C)CN(c4cccc([100N:0](C)[100C:0](=O)N5CCCC(n6nc(-c7ccc(Oc8ccc(F)cc8F)cc7)c(C(N)=O)c6N)C5)c4)C3=O)ccc2CC1C(=O)NC1CCCc2ccccc21)C(C)(C)C

> <Shape>
0.264

> <Color>
0.184

> <Negative vol penalty>
0.000

$$$$

  -OEChem-04042323383D

 91101  0     1  0  0  0  0  0999 V2000
  -30.3671  -34.5932   24.8699 C   0  0  0  0  0  0  0  0  0  0  0  0
  -30.3075  -33.3546   24.2393 C   0  0  0  0  0  0  0  0  0  0  0  0
  -23.8123   -8.3482   20.0434 C   0  0  0  0  0  0  0  0  0  0  0  0
  -23.2806  -10.5204   20.9576 C   0  0  0  0  0  0  0  0  0  0  0  0
  -29.2405  -35.0999   25.5163 C   0  0  0  0  0  0  0  0  0  0  0  0
  -29.1215  -32.6214   24.2557 C   0  0  0  0  0  0  0  0  0  0  0  0
  -26.9713  -28.9984   19.8109 C   0  0  0  0  0  0  0  0  0  0  0  0
  -28.6015  -19.5271   21.0041 C   0  0  0  0  0  0  0  0  0  0  0  0
  -28.7749  -18.1431   21.0025 C   0  0  0  0  0  0  0  0  0  0  0  0
  -22.8347   -7.7686   20.8520 C   0  0  0  0  0  0  0  0  0  0  0  0
  -22.3029   -9.9408   21.7662 C   0  0  0  0  0  0  0  0  0  0  0  0
  -27.0145  -27.6176   19.6231 C   0  0  0  0  0  0  0  0  0  0  0  0
  -22.5116   -6.8268   24.0820 C   0  0  0  0  0  0  0  0  0  0  0  0
  -22.8433   -5.6526   24.7579 C   0  0  0  0  0  0  0  0  0  0  0  0
  -26.7376  -19.2954   19.4844 C   0  0  0  0  0  0  0  0  0  0  0  0
  -24.8159  -27.4224   20.5963 C   0  0  0  0  0  0  0  0  0  0  0  0
  -21.0587   -4.4913   23.6163 C   0  0  0  0  0  0  0  0  0  0  0  0
  -24.0353   -9.7242   20.0962 C   0  0  0  0  0  0  0  0  0  0  0  0
  -25.1061  -10.3064   17.8552 C   0  0  0  0  0  0  0  0  0  0  0  0
  -28.0373  -34.3769   25.5324 C   0  0  0  0  0  0  0  0  0  0  0  0
  -25.8526  -29.6013   20.4038 C   0  0  0  0  0  0  0  0  0  0  0  0
  -27.9781  -33.1183   24.9041 C   0  0  0  0  0  0  0  0  0  0  0  0
  -26.9110  -17.9113   19.4828 C   0  0  0  0  0  0  0  0  0  0  0  0
  -24.7598  -28.8113   20.7882 C   0  0  0  0  0  0  0  0  0  0  0  0
  -27.5828  -20.1033   20.2451 C   0  0  0  0  0  0  0  0  0  0  0  0
  -27.9297  -17.3352   20.2418 C   0  0  0  0  0  0  0  0  0  0  0  0
  -22.0800   -8.5648   21.7134 C   0  0  0  0  0  0  0  0  0  0  0  0
  -25.9380  -26.8290   20.0185 C   0  0  0  0  0  0  0  0  0  0  0  0
  -21.4534   -6.8332   23.1732 C   0  0  0  0  0  0  0  0  0  0  0  0
  -22.1169   -4.4848   24.5250 C   0  0  0  0  0  0  0  0  0  0  0  0
  -20.7270   -5.6655   22.9404 C   0  0  0  0  0  0  0  0  0  0  0  0
  -25.0454  -10.3235   19.2615 C   0  0  0  0  0  0  0  0  0  0  0  0
  -26.2470  -11.0085   17.5522 C   0  0  0  0  0  0  0  0  0  0  0  0
  -27.1135  -23.4444   20.3423 C   0  0  0  0  0  0  0  0  0  0  0  0
  -28.0659  -22.4727   20.8811 C   0  0  0  0  0  0  0  0  0  0  0  0
  -26.9763  -24.7783   20.4511 C   0  0  0  0  0  0  0  0  0  1  0  0
  -24.2111   -9.7094   16.9074 C   0  0  0  0  0  0  0  0  0  0  0  0
  -25.3548  -31.2962   23.0464 C   0  0  0  0  0  0  0  0  0  0  0  0
  -22.3734  -31.6201   21.8101 C   0  0  0  0  0  0  0  0  0  0  0  0
  -19.9439  -30.3993   19.7475 C   0  0  0  0  0  0  0  0  0  0  0  0
  -29.3208  -15.2439   20.4363 C   0  0  0  0  0  0  0  0  0  0  0  0
  -26.8595  -34.9443   26.2845 C   0  0  0  0  0  0  0  0  0  0  0  0
  -25.8103  -31.0951   20.5750 C   0  0  0  0  0  0  0  0  0  0  0  0
  -23.5269  -29.4121   21.4107 C   0  0  0  0  0  0  0  0  0  0  0  0
  -26.3934  -22.3120   19.6466 C   0  0  0  0  0  0  0  0  0  0  0  0
  -25.5333  -34.2739   25.9349 C   0  0  0  0  0  0  0  0  0  0  0  0
  -30.5591  -12.0943   19.3302 C   0  0  0  0  0  0  0  0  0  0  0  0
  -25.6862  -32.7561   25.9345 C   0  0  0  0  0  0  0  0  0  0  0  0
  -29.2912  -11.2832   19.0533 C   0  0  0  0  0  0  0  0  0  0  0  0
  -24.9087  -14.4596   17.3927 C   0  0  0  0  0  0  0  0  0  0  0  0
  -26.7211  -16.2469   17.5708 C   0  0  0  0  0  0  0  0  0  0  0  0
  -30.3951  -13.0059   20.5451 C   0  0  0  0  0  0  0  0  0  0  0  0
  -27.9529  -13.0756   20.2295 C   0  0  0  0  0  0  0  0  0  0  0  0
  -24.0142  -15.1086   18.4430 C   0  0  0  0  0  0  0  0  0  0  0  0
  -26.7026  -32.3043   24.8789 C   0  0  1  0  0  0  0  0  0  0  0  0
  -25.9744  -17.0557   18.6467 C   0  0  1  0  0  0  0  0  0  0  0  0
  -24.8353  -31.5450   21.6587 C   0  0  1  0  0  0  0  0  0  0  0  0
  -28.0475  -12.1904   18.9760 C   0  0  2  0  0  0  0  0  0  0  0  0
  -25.8191  -15.4332   16.6091 C   0  0  0  0  0  0  0  0  0  0  0  0
  -24.9793  -16.3698   15.7185 C   0  0  0  0  0  0  0  0  0  0  0  0
  -26.7298  -14.6018   15.6800 C   0  0  0  0  0  0  0  0  0  0  0  0
  -17.6013  -30.8602   18.9747 C   0  0  0  0  0  0  0  0  0  0  0  0
  -21.2942  -30.5749   24.4658 C   0  0  0  0  0  0  0  0  0  0  0  0
  -19.1009  -30.1606   23.3317 C   0  0  0  0  0  0  0  0  0  0  0  0
  -20.0013  -32.4814   23.4922 C   0  0  0  0  0  0  0  0  0  0  0  0
  -20.8072  -30.6956   16.9322 C   0  0  0  0  0  0  0  0  0  0  0  0
  -21.0856  -30.8383   21.9059 C   0  0  1  0  0  0  0  0  0  0  0  0
  -19.0810  -31.0752   18.6972 C   0  0  2  0  0  0  0  0  0  0  0  0
  -20.3944  -31.0019   23.2889 C   0  0  0  0  0  0  0  0  0  0  0  0
  -26.0666  -10.9839   19.8137 N   0  0  0  0  0  0  0  0  0  0  0  0
  -26.7798  -11.3884   18.7489 N   0  0  0  0  0  0  0  0  0  0  0  0
  -27.4103  -21.4680   20.2489 N   0  0  0  0  0  0  0  0  0  0  0  0
  -23.5360  -30.8764   21.5629 N   0  0  0  0  0  0  0  0  0  0  0  0
  -29.1993  -13.8387   20.3997 N   0  0  0  0  0  0  0  0  0  0  0  0
  -26.8365  -11.3318   16.3815 N   0  0  0  0  0  0  0  0  0  0  0  0
  -23.1409  -10.4750   16.4249 N   0  0  0  0  0  0  0  0  0  0  0  0
  -28.1211  -15.9313   20.2548 N   0  0  0  0  0  0  0  0  0  0  0  0
  -26.1084  -32.3345   23.5596 N   0  0  0  0  0  0  0  0  0  0  0  0
  -20.2665  -31.2606   20.7748 N   0  0  0  0  0  0  0  0  0  0  0  0
  -19.3895  -30.5306   17.3447 N   0  3  0  0  0  0  0  0  0  0  0  0
  -29.0366  -22.5316   21.6067 O   0  0  0  0  0  0  0  0  0  0  0  0
  -24.3465   -8.5264   16.5129 O   0  0  0  0  0  0  0  0  0  0  0  0
  -25.0902  -30.2409   23.6105 O   0  0  0  0  0  0  0  0  0  0  0  0
  -22.3477  -32.8462   21.9423 O   0  0  0  0  0  0  0  0  0  0  0  0
  -20.2934  -29.2238   19.6667 O   0  0  0  0  0  0  0  0  0  0  0  0
  -30.4129  -15.7971   20.5884 O   0  0  0  0  0  0  0  0  0  0  0  0
  -21.1258   -7.9996   22.5024 O   0  0  0  0  0  0  0  0  0  0  0  0
  -25.9779  -25.4809   19.8369 O   0  0  0  0  0  0  0  0  0  1  0  0
  -22.4365   -3.3570   25.1730 F   0  0  0  0  0  0  0  0  0  0  0  0
  -19.7100   -5.6652   22.0676 F   0  0  0  0  0  0  0  0  0  0  0  0
  -24.9739  -15.9641   19.7207 S   0  0  0  0  0  0  0  0  0  0  0  0
  1  2  1  0  0  0  0
  1  5  2  0  0  0  0
  2  6  2  0  0  0  0
  3 10  2  0  0  0  0
  3 18  1  0  0  0  0
  4 11  1  0  0  0  0
  4 18  2  0  0  0  0
  5 20  1  0  0  0  0
  6 22  1  0  0  0  0
  7 12  2  0  0  0  0
  7 21  1  0  0  0  0
  8  9  2  0  0  0  0
  8 25  1  0  0  0  0
  9 26  1  0  0  0  0
 10 27  1  0  0  0  0
 11 27  2  0  0  0  0
 12 28  1  0  0  0  0
 13 14  2  0  0  0  0
 13 29  1  0  0  0  0
 14 30  1  0  0  0  0
 15 23  1  0  0  0  0
 15 25  2  0  0  0  0
 16 24  1  0  0  0  0
 16 28  2  0  0  0  0
 17 30  2  0  0  0  0
 17 31  1  0  0  0  0
 18 32  1  0  0  0  0
 19 32  1  0  0  0  0
 19 33  2  0  0  0  0
 19 37  1  0  0  0  0
 20 22  2  0  0  0  0
 20 42  1  0  0  0  0
 21 24  2  0  0  0  0
 21 43  1  0  0  0  0
 22 55  1  0  0  0  0
 23 26  2  0  0  0  0
 23 56  1  0  0  0  0
 24 44  1  0  0  0  0
 25 72  1  0  0  0  0
 26 77  1  0  0  0  0
 27 87  1  0  0  0  0
 28 88  1  0  0  0  0
 29 31  2  0  0  0  0
 29 87  1  0  0  0  0
 30 89  1  0  0  0  0
 31 90  1  0  0  0  0
 32 70  2  0  0  0  0
 33 71  1  0  0  0  0
 33 75  1  0  0  0  0
 34 35  1  0  0  0  0
 34 36  2  0  0  0  0
 34 45  1  0  0  0  0
 35 72  1  0  0  0  0
 35 81  2  0  0  0  0
 36 88  1  0  0  0  0
 37 76  1  0  0  0  0
 37 82  2  0  0  0  0
 38 57  1  0  0  0  0
 38 78  1  0  0  0  0
 38 83  2  0  0  0  0
 39 67  1  0  0  0  0
 39 73  1  0  0  0  0
 39 84  2  0  0  0  0
 40 68  1  0  0  0  0
 40 79  1  0  0  0  0
 40 85  2  0  0  0  0
 41 74  1  0  0  0  0
 41 77  1  0  0  0  0
 41 86  2  0  0  0  0
 42 46  1  0  0  0  0
 43 57  1  0  0  0  0
 44 73  1  0  0  0  0
 45 72  1  0  0  0  0
 46 48  1  0  0  0  0
 47 49  1  0  0  0  0
 47 52  1  0  0  0  0
 48 55  1  0  0  0  0
 49 58  1  0  0  0  0
 50 54  1  0  0  0  0
 50 59  1  0  0  0  0
 51 56  1  0  0  0  0
 51 59  1  0  0  0  0
 52 74  1  0  0  0  0
 53 58  1  0  0  0  0
 53 74  1  0  0  0  0
 54 91  1  0  0  0  0
 55 78  1  0  0  0  0
 56 91  1  0  0  0  0
 57 73  1  0  0  0  0
 58 71  1  0  0  0  0
 59 60  1  0  0  0  0
 59 61  1  0  0  0  0
 62 68  1  0  0  0  0
 63 69  1  0  0  0  0
 64 69  1  0  0  0  0
 65 69  1  0  0  0  0
 66 80  1  0  0  0  0
 67 69  1  0  0  0  0
 67 79  1  0  0  0  0
 68 80  1  0  0  0  0
 70 71  1  0  0  0  0
M  CHG  1  80   1
M  ISO  4  36 101  41 100  77 100  88 101
M  END
> <Batch ID>
0072

> <Smiles>
CNC(C)C(=O)NC(C(=O)N1Cc2cc([101O:1][101CH:1]=C3CN(c4ccc([100NH:0][100C:0](=O)N5CCCC(n6nc(-c7ccc(Oc8ccc(F)cc8F)cc7)c(C(N)=O)c6N)C5)c(C5CC(C)(C)CCS5)c4)C3=O)ccc2CC1C(=O)NC1CCCc2ccccc21)C(C)(C)C

> <Shape>
0.287

> <Color>
0.095

> <Negative vol penalty>
0.000

$$$$

  -OEChem-04042323383D

 87 96  0     1  0  0  0  0  0999 V2000
  -24.3552  -35.0342   19.6710 C   0  0  0  0  0  0  0  0  0  0  0  0
  -25.1860  -33.9440   19.9087 C   0  0  0  0  0  0  0  0  0  0  0  0
  -22.6528  -10.7747   21.4205 C   0  0  0  0  0  0  0  0  0  0  0  0
  -24.5929   -9.3616   21.6966 C   0  0  0  0  0  0  0  0  0  0  0  0
  -23.1245  -35.1260   20.3199 C   0  0  0  0  0  0  0  0  0  0  0  0
  -24.7870  -32.9452   20.7963 C   0  0  0  0  0  0  0  0  0  0  0  0
  -25.6401  -28.2903   18.9940 C   0  0  0  0  0  0  0  0  0  0  0  0
  -21.9165   -9.9251   22.2460 C   0  0  0  0  0  0  0  0  0  0  0  0
  -23.8566   -8.5120   22.5223 C   0  0  0  0  0  0  0  0  0  0  0  0
  -26.9486  -27.8132   19.0566 C   0  0  0  0  0  0  0  0  0  0  0  0
  -21.5625   -6.0554   22.1573 C   0  0  0  0  0  0  0  0  0  0  0  0
  -21.6788   -4.6821   21.9428 C   0  0  0  0  0  0  0  0  0  0  0  0
  -26.3855  -26.5451   21.0299 C   0  0  0  0  0  0  0  0  0  0  0  0
  -26.9231  -21.2508   17.5154 C   0  0  0  0  0  0  0  0  0  0  0  0
  -28.2221  -19.7222   18.8618 C   0  0  0  0  0  0  0  0  0  0  0  0
  -26.4888  -18.8766   17.4067 C   0  0  0  0  0  0  0  0  0  0  0  0
  -22.5042   -4.4001   24.1959 C   0  0  0  0  0  0  0  0  0  0  0  0
  -23.9910  -10.4929   21.1457 C   0  0  0  0  0  0  0  0  0  0  0  0
  -24.4818  -11.6946   18.9496 C   0  0  0  0  0  0  0  0  0  0  0  0
  -22.7061  -34.1230   21.2085 C   0  0  0  0  0  0  0  0  0  0  0  0
  -24.6957  -27.9063   19.9568 C   0  0  0  0  0  0  0  0  0  0  0  0
  -23.5502  -33.0243   21.4587 C   0  0  0  0  0  0  0  0  0  0  0  0
  -25.0650  -27.0167   20.9758 C   0  0  0  0  0  0  0  0  0  0  0  0
  -27.9339  -21.0231   18.4493 C   0  0  0  0  0  0  0  0  0  0  0  0
  -26.2005  -20.1775   16.9941 C   0  0  0  0  0  0  0  0  0  0  0  0
  -27.4996  -18.6489   18.3405 C   0  0  0  0  0  0  0  0  0  0  0  0
  -22.5183   -8.7938   22.7970 C   0  0  0  0  0  0  0  0  0  0  0  0
  -27.3223  -26.9427   20.0763 C   0  0  0  0  0  0  0  0  0  0  0  0
  -21.9170   -6.6011   23.3911 C   0  0  0  0  0  0  0  0  0  0  0  0
  -22.1496   -3.8544   22.9620 C   0  0  0  0  0  0  0  0  0  0  0  0
  -22.3878   -5.7734   24.4104 C   0  0  0  0  0  0  0  0  0  0  0  0
  -24.7521  -11.3698   20.2925 C   0  0  0  0  0  0  0  0  0  0  0  0
  -25.4904  -12.5569   18.5952 C   0  0  0  0  0  0  0  0  0  0  0  0
  -29.2182  -22.0811   20.2884 C   0  0  0  0  0  0  0  0  0  0  0  0
  -23.4144  -11.2561   18.0987 C   0  0  0  0  0  0  0  0  0  0  0  0
  -22.9662  -29.4397   22.1388 C   0  0  0  0  0  0  0  0  0  0  0  0
  -21.6183  -26.5190   22.5574 C   0  0  0  0  0  0  0  0  0  0  0  0
  -22.7488  -23.0970   22.7273 C   0  0  0  0  0  0  0  0  0  0  0  0
  -28.7657  -16.9282   19.6756 C   0  0  0  0  0  0  0  0  0  0  0  0
  -21.3880  -34.2894   21.9224 C   0  0  0  0  0  0  0  0  0  0  0  0
  -23.2813  -28.4088   19.8598 C   0  0  0  0  0  0  0  0  0  0  0  0
  -24.0836  -26.5580   22.0222 C   0  0  0  0  0  0  0  0  0  0  0  0
  -30.2601  -23.1304   20.6380 C   0  0  0  0  0  0  0  0  0  0  0  0
  -20.8752  -33.0020   22.5625 C   0  0  0  0  0  0  0  0  0  0  0  0
  -29.7745  -13.7800   20.9978 C   0  0  0  0  0  0  0  0  0  0  0  0
  -21.9937  -32.3058   23.3313 C   0  0  0  0  0  0  0  0  0  0  0  0
  -28.5355  -12.8990   20.8217 C   0  0  0  0  0  0  0  0  0  0  0  0
  -29.8223  -24.3465   18.5409 C   0  0  0  0  0  0  0  0  0  0  0  0
  -29.4021  -15.2164   21.3608 C   0  0  0  0  0  0  0  0  0  0  0  0
  -28.6875  -23.3873   18.2135 C   0  0  0  0  0  0  0  0  0  0  0  0
  -27.2027  -14.9760   20.2771 C   0  0  0  0  0  0  0  0  0  0  0  0
  -23.1418  -31.9083   22.3956 C   0  0  1  0  0  0  0  0  0  0  0  0
  -22.5362  -28.3568   21.1901 C   0  0  1  0  0  0  0  0  0  0  0  0
  -27.5253  -13.5356   19.8472 C   0  0  2  0  0  0  0  0  0  0  0  0
  -30.0120  -24.5188   20.0490 C   0  0  2  0  0  0  0  0  0  0  0  0
  -31.2409  -25.4095   20.3049 C   0  0  0  0  0  0  0  0  0  0  0  0
  -21.5549  -20.9558   22.1912 C   0  0  0  0  0  0  0  0  0  0  0  0
  -20.9614  -26.4777   25.5367 C   0  0  0  0  0  0  0  0  0  0  0  0
  -21.3029  -23.9976   25.5065 C   0  0  0  0  0  0  0  0  0  0  0  0
  -19.4965  -25.0231   24.1252 C   0  0  0  0  0  0  0  0  0  0  0  0
  -24.8536  -22.2654   20.8201 C   0  0  0  0  0  0  0  0  0  0  0  0
  -28.7896  -25.1813   20.7090 C   0  0  0  0  0  0  0  0  0  1  0  0
  -21.9090  -25.3227   23.4310 C   0  0  1  0  0  0  0  0  0  0  0  0
  -22.5251  -22.0133   21.6880 C   0  0  2  0  0  0  0  0  0  0  0  0
  -20.9381  -25.2228   24.6413 C   0  0  0  0  0  0  0  0  0  0  0  0
  -25.8467  -11.9763   20.7594 N   0  0  0  0  0  0  0  0  0  0  0  0
  -26.2732  -12.6907   19.7041 N   0  0  0  0  0  0  0  0  0  0  0  0
  -28.6853  -22.1366   18.9899 N   0  0  0  0  0  0  0  0  0  0  0  0
  -22.7143  -27.0820   21.8882 N   0  0  0  0  0  0  0  0  0  0  0  0
  -28.4455  -15.7554   20.3916 N   0  0  0  0  0  0  0  0  0  0  0  0
  -25.1784  -20.4071   16.0498 N   0  0  0  0  0  0  0  0  0  0  0  0
  -25.7752  -13.2061   17.4464 N   0  0  0  0  0  0  0  0  0  0  0  0
  -23.6032  -10.0973   17.3332 N   0  0  0  0  0  0  0  0  0  0  0  0
  -27.7938  -17.3274   18.7587 N   0  0  0  0  0  0  0  0  0  0  0  0
  -22.7949  -30.7195   21.6467 N   0  0  0  0  0  0  0  0  0  0  0  0
  -21.8881  -24.1596   22.5506 N   0  0  0  0  0  0  0  0  0  0  0  0
  -23.8139  -21.3459   21.3498 N   0  3  0  0  0  0  0  0  0  0  0  0
  -28.9537  -21.2229   21.1349 O   0  0  0  0  0  0  0  0  0  0  0  0
  -22.3316  -11.8827   18.0071 O   0  0  0  0  0  0  0  0  0  0  0  0
  -23.4185  -29.1366   23.2367 O   0  0  0  0  0  0  0  0  0  0  0  0
  -20.4603  -26.9342   22.4662 O   0  0  0  0  0  0  0  0  0  0  0  0
  -23.5994  -23.0080   23.6099 O   0  0  0  0  0  0  0  0  0  0  0  0
  -29.8361  -17.5185   19.8425 O   0  0  0  0  0  0  0  0  0  0  0  0
  -21.8002   -7.9646   23.6028 O   0  0  0  0  0  0  0  0  0  0  0  0
  -28.5990  -26.4761   20.1401 O   0  0  0  0  0  0  0  0  0  1  0  0
  -22.2599   -2.5354   22.7564 F   0  0  0  0  0  0  0  0  0  0  0  0
  -22.7289   -6.2917   25.5982 F   0  0  0  0  0  0  0  0  0  0  0  0
  1  2  1  0  0  0  0
  1  5  2  0  0  0  0
  2  6  2  0  0  0  0
  3  8  2  0  0  0  0
  3 18  1  0  0  0  0
  4  9  1  0  0  0  0
  4 18  2  0  0  0  0
  5 20  1  0  0  0  0
  6 22  1  0  0  0  0
  7 10  2  0  0  0  0
  7 21  1  0  0  0  0
  8 27  1  0  0  0  0
  9 27  2  0  0  0  0
 10 28  1  0  0  0  0
 11 12  2  0  0  0  0
 11 29  1  0  0  0  0
 12 30  1  0  0  0  0
 13 23  1  0  0  0  0
 13 28  2  0  0  0  0
 14 24  1  0  0  0  0
 14 25  2  0  0  0  0
 15 24  2  0  0  0  0
 15 26  1  0  0  0  0
 16 25  1  0  0  0  0
 16 26  2  0  0  0  0
 17 30  2  0  0  0  0
 17 31  1  0  0  0  0
 18 32  1  0  0  0  0
 19 32  1  0  0  0  0
 19 33  2  0  0  0  0
 19 35  1  0  0  0  0
 20 22  2  0  0  0  0
 20 40  1  0  0  0  0
 21 23  2  0  0  0  0
 21 41  1  0  0  0  0
 22 52  1  0  0  0  0
 23 42  1  0  0  0  0
 24 68  1  0  0  0  0
 25 71  1  0  0  0  0
 26 74  1  0  0  0  0
 27 84  1  0  0  0  0
 28 85  1  0  0  0  0
 29 31  2  0  0  0  0
 29 84  1  0  0  0  0
 30 86  1  0  0  0  0
 31 87  1  0  0  0  0
 32 66  2  0  0  0  0
 33 67  1  0  0  0  0
 33 72  1  0  0  0  0
 34 43  1  0  0  0  0
 34 68  1  0  0  0  0
 34 78  2  0  0  0  0
 35 73  1  0  0  0  0
 35 79  2  0  0  0  0
 36 53  1  0  0  0  0
 36 75  1  0  0  0  0
 36 80  2  0  0  0  0
 37 63  1  0  0  0  0
 37 69  1  0  0  0  0
 37 81  2  0  0  0  0
 38 64  1  0  0  0  0
 38 76  1  0  0  0  0
 38 82  2  0  0  0  0
 39 70  1  0  0  0  0
 39 74  1  0  0  0  0
 39 83  2  0  0  0  0
 40 44  1  0  0  0  0
 41 53  1  0  0  0  0
 42 69  1  0  0  0  0
 43 55  1  0  0  0  0
 44 46  1  0  0  0  0
 45 47  1  0  0  0  0
 45 49  1  0  0  0  0
 46 52  1  0  0  0  0
 47 54  1  0  0  0  0
 48 50  1  0  0  0  0
 48 55  1  0  0  0  0
 49 70  1  0  0  0  0
 50 68  1  0  0  0  0
 51 54  1  0  0  0  0
 51 70  1  0  0  0  0
 52 75  1  0  0  0  0
 53 69  1  0  0  0  0
 54 67  1  0  0  0  0
 55 56  1  0  0  0  0
 55 62  1  0  0  0  0
 57 64  1  0  0  0  0
 58 65  1  0  0  0  0
 59 65  1  0  0  0  0
 60 65  1  0  0  0  0
 61 77  1  0  0  0  0
 62 85  1  0  0  0  0
 63 65  1  0  0  0  0
 63 76  1  0  0  0  0
 64 77  1  0  0  0  0
 66 67  1  0  0  0  0
M  CHG  1  77   1
M  ISO  4  39 100  62 101  74 100  85 101
M  END
> <Batch ID>
0072

> <Smiles>
CNC(C)C(=O)NC(C(=O)N1Cc2cc([101O:1][101CH2:1]C3(C)CCN(c4cc(N)cc([100NH:0][100C:0](=O)N5CCCC(n6nc(-c7ccc(Oc8ccc(F)cc8F)cc7)c(C(N)=O)c6N)C5)c4)C(=O)C3)ccc2CC1C(=O)NC1CCCc2ccccc21)C(C)(C)C

> <Shape>
0.270

> <Color>
0.104

> <Negative vol penalty>
0.000

$$$$

  -OEChem-04042323383D

 86 95  0     1  0  0  0  0  0999 V2000
  -18.4064  -26.5282   23.0565 C   0  0  0  0  0  0  0  0  0  0  0  0
  -19.3480  -26.4937   22.0329 C   0  0  0  0  0  0  0  0  0  0  0  0
  -32.4387  -22.0055   16.4578 C   0  0  0  0  0  0  0  0  0  0  0  0
  -28.6305  -12.8519   20.6820 C   0  0  0  0  0  0  0  0  0  0  0  0
  -30.3333  -13.4961   19.0938 C   0  0  0  0  0  0  0  0  0  0  0  0
  -18.0886  -27.7396   23.6692 C   0  0  0  0  0  0  0  0  0  0  0  0
  -19.9715  -27.6709   21.6207 C   0  0  0  0  0  0  0  0  0  0  0  0
  -24.9662  -27.1100   21.0019 C   0  0  0  0  0  0  0  0  0  0  0  0
  -31.7497  -23.1486   16.0528 C   0  0  0  0  0  0  0  0  0  0  0  0
  -32.0269  -21.3086   17.5938 C   0  0  0  0  0  0  0  0  0  0  0  0
  -28.2677  -11.7848   19.8603 C   0  0  0  0  0  0  0  0  0  0  0  0
  -29.9705  -12.4290   18.2720 C   0  0  0  0  0  0  0  0  0  0  0  0
  -25.3965  -26.4817   19.8341 C   0  0  0  0  0  0  0  0  0  0  0  0
  -29.4154   -8.6842   19.1517 C   0  0  0  0  0  0  0  0  0  0  0  0
  -29.2097   -7.4431   19.7539 C   0  0  0  0  0  0  0  0  0  0  0  0
  -25.8918  -28.6347   18.8653 C   0  0  0  0  0  0  0  0  0  0  0  0
  -30.2369  -22.8981   17.9199 C   0  0  0  0  0  0  0  0  0  0  0  0
  -26.9295   -7.4334   18.9553 C   0  0  0  0  0  0  0  0  0  0  0  0
  -29.6632  -13.7076   20.2988 C   0  0  0  0  0  0  0  0  0  0  0  0
  -30.9998  -14.8035   22.1750 C   0  0  0  0  0  0  0  0  0  0  0  0
  -18.7155  -28.9308   23.2708 C   0  0  0  0  0  0  0  0  0  0  0  0
  -24.9853  -28.5083   21.1063 C   0  0  0  0  0  0  0  0  0  0  0  0
  -19.6607  -28.8996   22.2277 C   0  0  0  0  0  0  0  0  0  0  0  0
  -25.4636  -29.2782   20.0365 C   0  0  0  0  0  0  0  0  0  0  0  0
  -30.6488  -23.5950   16.7838 C   0  0  0  0  0  0  0  0  0  0  0  0
  -30.9260  -21.7550   18.3248 C   0  0  0  0  0  0  0  0  0  0  0  0
  -28.9377  -11.5733   18.6553 C   0  0  0  0  0  0  0  0  0  0  0  0
  -25.8567  -27.2441   18.7645 C   0  0  0  0  0  0  0  0  0  0  0  0
  -28.3781   -9.3001   18.4513 C   0  0  0  0  0  0  0  0  0  0  0  0
  -27.9668   -6.8176   19.6557 C   0  0  0  0  0  0  0  0  0  0  0  0
  -27.1352   -8.6747   18.3531 C   0  0  0  0  0  0  0  0  0  0  0  0
  -30.0381  -14.8104   21.1469 C   0  0  0  0  0  0  0  0  0  0  0  0
  -30.9803  -16.0838   22.6720 C   0  0  0  0  0  0  0  0  0  0  0  0
  -30.2368  -25.5713   15.2488 C   0  0  0  0  0  0  0  0  0  0  0  0
  -31.8362  -13.7354   22.6390 C   0  0  0  0  0  0  0  0  0  0  0  0
  -22.7784  -30.7562   21.5309 C   0  0  0  0  0  0  0  0  0  0  0  0
  -25.3627  -32.7069   21.7282 C   0  0  0  0  0  0  0  0  0  0  0  0
  -28.6389  -33.2630   20.9512 C   0  0  0  0  0  0  0  0  0  0  0  0
  -29.4367  -21.3540   20.3168 C   0  0  0  0  0  0  0  0  0  0  0  0
  -18.3046  -30.2232   23.9306 C   0  0  0  0  0  0  0  0  0  0  0  0
  -24.5428  -29.1696   22.3827 C   0  0  0  0  0  0  0  0  0  0  0  0
  -25.5233  -30.7816   20.1057 C   0  0  0  0  0  0  0  0  0  0  0  0
  -19.2847  -31.3686   23.6897 C   0  0  0  0  0  0  0  0  0  0  0  0
  -28.0621  -19.8396   23.2312 C   0  0  0  0  0  0  0  0  0  0  0  0
  -19.6724  -31.4384   22.2161 C   0  0  0  0  0  0  0  0  0  0  0  0
  -28.5055  -18.3787   23.1241 C   0  0  0  0  0  0  0  0  0  0  0  0
  -27.7249  -20.4316   21.8639 C   0  0  0  0  0  0  0  0  0  0  0  0
  -28.8246  -25.2959   17.1248 C   0  0  0  0  0  0  0  0  0  0  0  0
  -29.2194  -18.8266   20.7415 C   0  0  0  0  0  0  0  0  0  0  0  0
  -20.3767  -30.1515   21.7694 C   0  0  1  0  0  0  0  0  0  0  0  0
  -24.1231  -30.6233   22.1882 C   0  0  1  0  0  0  0  0  0  0  0  0
  -28.1384  -26.2501   16.1551 C   0  0  2  0  0  0  0  0  0  0  0  0
  -29.6320  -18.2063   22.0864 C   0  0  2  0  0  0  0  0  0  0  0  0
  -29.3041  -26.7848   15.2993 C   0  0  0  0  0  0  0  0  0  0  0  0
  -30.0731  -27.9486   15.9403 C   0  0  0  0  0  0  0  0  0  0  0  0
  -28.8404  -27.1769   13.8953 C   0  0  0  0  0  0  0  0  0  0  0  0
  -30.4652  -34.9635   21.2167 C   0  0  0  0  0  0  0  0  0  0  0  0
  -24.0748  -34.4250   19.5604 C   0  0  0  0  0  0  0  0  0  0  0  0
  -26.2992  -35.5167   19.2018 C   0  0  0  0  0  0  0  0  0  0  0  0
  -25.1555  -35.7159   21.4097 C   0  0  0  0  0  0  0  0  0  0  0  0
  -30.3403  -31.3705   22.4620 C   0  0  0  0  0  0  0  0  0  0  0  0
  -27.2914  -27.2945   16.8684 C   0  0  0  0  0  0  0  0  0  1  0  0
  -26.1789  -33.5034   20.7391 C   0  0  1  0  0  0  0  0  0  0  0  0
  -29.8118  -33.7201   21.7996 C   0  0  2  0  0  0  0  0  0  0  0  0
  -25.4243  -34.7621   20.2254 C   0  0  0  0  0  0  0  0  0  0  0  0
  -29.4503  -16.0006   20.9987 N   0  0  0  0  0  0  0  0  0  0  0  0
  -30.0442  -16.7535   21.9402 N   0  0  0  0  0  0  0  0  0  0  0  0
  -29.9436  -24.7650   16.3684 N   0  0  0  0  0  0  0  0  0  0  0  0
  -25.0738  -31.3818   21.3726 N   0  0  0  0  0  0  0  0  0  0  0  0
  -28.8394  -20.2349   20.9344 N   0  0  0  0  0  0  0  0  0  0  0  0
  -31.6726  -16.6907   23.6593 N   0  0  0  0  0  0  0  0  0  0  0  0
  -31.7285  -12.4840   22.0172 N   0  0  0  0  0  0  0  0  0  0  0  0
  -30.5080  -21.0466   19.4786 N   0  0  0  0  0  0  0  0  0  0  0  0
  -21.7510  -30.1440   22.2230 N   0  0  0  0  0  0  0  0  0  0  0  0
  -27.4476  -33.7948   21.3977 N   0  0  0  0  0  0  0  0  0  0  0  0
  -30.8400  -32.6447   21.8844 N   0  3  0  0  0  0  0  0  0  0  0  0
  -31.1004  -25.4295   14.3939 O   0  0  0  0  0  0  0  0  0  0  0  0
  -32.6430  -13.8818   23.5883 O   0  0  0  0  0  0  0  0  0  0  0  0
  -22.6801  -31.3702   20.4749 O   0  0  0  0  0  0  0  0  0  0  0  0
  -25.0010  -33.2386   22.7809 O   0  0  0  0  0  0  0  0  0  0  0  0
  -28.7672  -32.5125   19.9864 O   0  0  0  0  0  0  0  0  0  0  0  0
  -29.0455  -22.5030   20.5378 O   0  0  0  0  0  0  0  0  0  0  0  0
  -28.5841  -10.5320   17.8533 O   0  0  0  0  0  0  0  0  0  0  0  0
  -26.2767  -26.6334   17.6233 O   0  0  0  0  0  0  0  0  0  1  0  0
  -27.7699   -5.6250   20.2328 F   0  0  0  0  0  0  0  0  0  0  0  0
  -26.1352   -9.2608   17.6806 F   0  0  0  0  0  0  0  0  0  0  0  0
  1  2  1  0  0  0  0
  1  6  2  0  0  0  0
  2  7  2  0  0  0  0
  3  9  2  0  0  0  0
  3 10  1  0  0  0  0
  4 11  2  0  0  0  0
  4 19  1  0  0  0  0
  5 12  1  0  0  0  0
  5 19  2  0  0  0  0
  6 21  1  0  0  0  0
  7 23  1  0  0  0  0
  8 13  2  0  0  0  0
  8 22  1  0  0  0  0
  9 25  1  0  0  0  0
 10 26  2  0  0  0  0
 11 27  1  0  0  0  0
 12 27  2  0  0  0  0
 13 28  1  0  0  0  0
 14 15  2  0  0  0  0
 14 29  1  0  0  0  0
 15 30  1  0  0  0  0
 16 24  1  0  0  0  0
 16 28  2  0  0  0  0
 17 25  2  0  0  0  0
 17 26  1  0  0  0  0
 18 30  2  0  0  0  0
 18 31  1  0  0  0  0
 19 32  1  0  0  0  0
 20 32  1  0  0  0  0
 20 33  2  0  0  0  0
 20 35  1  0  0  0  0
 21 23  2  0  0  0  0
 21 40  1  0  0  0  0
 22 24  2  0  0  0  0
 22 41  1  0  0  0  0
 23 50  1  0  0  0  0
 24 42  1  0  0  0  0
 25 68  1  0  0  0  0
 26 73  1  0  0  0  0
 27 83  1  0  0  0  0
 28 84  1  0  0  0  0
 29 31  2  0  0  0  0
 29 83  1  0  0  0  0
 30 85  1  0  0  0  0
 31 86  1  0  0  0  0
 32 66  2  0  0  0  0
 33 67  1  0  0  0  0
 33 71  1  0  0  0  0
 34 54  1  0  0  0  0
 34 68  1  0  0  0  0
 34 77  2  0  0  0  0
 35 72  1  0  0  0  0
 35 78  2  0  0  0  0
 36 51  1  0  0  0  0
 36 74  1  0  0  0  0
 36 79  2  0  0  0  0
 37 63  1  0  0  0  0
 37 69  1  0  0  0  0
 37 80  2  0  0  0  0
 38 64  1  0  0  0  0
 38 75  1  0  0  0  0
 38 81  2  0  0  0  0
 39 70  1  0  0  0  0
 39 73  1  0  0  0  0
 39 82  2  0  0  0  0
 40 43  1  0  0  0  0
 41 51  1  0  0  0  0
 42 69  1  0  0  0  0
 43 45  1  0  0  0  0
 44 46  1  0  0  0  0
 44 47  1  0  0  0  0
 45 50  1  0  0  0  0
 46 53  1  0  0  0  0
 47 70  1  0  0  0  0
 48 52  1  0  0  0  0
 48 68  1  0  0  0  0
 49 53  1  0  0  0  0
 49 70  1  0  0  0  0
 50 74  1  0  0  0  0
 51 69  1  0  0  0  0
 52 54  1  0  0  0  0
 52 62  1  0  0  0  0
 53 67  1  0  0  0  0
 54 55  1  0  0  0  0
 54 56  1  0  0  0  0
 57 64  1  0  0  0  0
 58 65  1  0  0  0  0
 59 65  1  0  0  0  0
 60 65  1  0  0  0  0
 61 76  1  0  0  0  0
 62 84  1  0  0  0  0
 63 65  1  0  0  0  0
 63 75  1  0  0  0  0
 64 76  1  0  0  0  0
 66 67  1  0  0  0  0
M  CHG  1  76   1
M  ISO  4  39 100  62 101  73 100  84 101
M  END
> <Batch ID>
0072

> <Smiles>
CNC(C)C(=O)NC(C(=O)N1Cc2cc([101O:1][101CH2:1]C3CN(c4cccc([100NH:0][100C:0](=O)N5CCCC(n6nc(-c7ccc(Oc8ccc(F)cc8F)cc7)c(C(N)=O)c6N)C5)c4)C(=O)C3(C)C)ccc2CC1C(=O)NC1CCCc2ccccc21)C(C)(C)C

> <Shape>
0.245

> <Color>
0.073

> <Negative vol penalty>
0.000

$$$$

  -OEChem-04042323383D

 87 96  0     1  0  0  0  0  0999 V2000
  -18.8961  -31.3165   26.2313 C   0  0  0  0  0  0  0  0  0  0  0  0
  -20.2664  -31.0782   26.2043 C   0  0  0  0  0  0  0  0  0  0  0  0
  -24.0788  -10.1657   22.4511 C   0  0  0  0  0  0  0  0  0  0  0  0
  -24.5546  -11.8524   24.1141 C   0  0  0  0  0  0  0  0  0  0  0  0
  -18.0568  -30.6544   25.3361 C   0  0  0  0  0  0  0  0  0  0  0  0
  -20.7983  -30.1769   25.2828 C   0  0  0  0  0  0  0  0  0  0  0  0
  -26.6648  -29.0409   21.3319 C   0  0  0  0  0  0  0  0  0  0  0  0
  -30.8985  -20.4533   19.3172 C   0  0  0  0  0  0  0  0  0  0  0  0
  -30.6633  -19.0797   19.2576 C   0  0  0  0  0  0  0  0  0  0  0  0
  -23.6374   -9.3019   23.4535 C   0  0  0  0  0  0  0  0  0  0  0  0
  -24.1132  -10.9887   25.1165 C   0  0  0  0  0  0  0  0  0  0  0  0
  -27.6058  -28.0483   21.0617 C   0  0  0  0  0  0  0  0  0  0  0  0
  -20.8568   -8.8780   25.3300 C   0  0  0  0  0  0  0  0  0  0  0  0
  -19.6681   -8.1823   25.1092 C   0  0  0  0  0  0  0  0  0  0  0  0
  -28.2830  -19.4833   19.3483 C   0  0  0  0  0  0  0  0  0  0  0  0
  -26.0693  -27.0222   19.5108 C   0  0  0  0  0  0  0  0  0  0  0  0
  -20.8550   -6.0883   25.3176 C   0  0  0  0  0  0  0  0  0  0  0  0
  -24.5374  -11.4409   22.7815 C   0  0  0  0  0  0  0  0  0  0  0  0
  -28.5181  -20.8569   19.4079 C   0  0  0  0  0  0  0  0  0  0  0  0
  -24.2223  -13.2634   21.0244 C   0  0  0  0  0  0  0  0  0  0  0  0
  -18.5798  -29.7518   24.3967 C   0  0  0  0  0  0  0  0  0  0  0  0
  -25.4127  -29.0254   20.7006 C   0  0  0  0  0  0  0  0  0  0  0  0
  -19.9651  -29.5012   24.3751 C   0  0  0  0  0  0  0  0  0  0  0  0
  -25.1151  -28.0171   19.7728 C   0  0  0  0  0  0  0  0  0  0  0  0
  -29.8259  -21.3419   19.3924 C   0  0  0  0  0  0  0  0  0  0  0  0
  -29.3556  -18.5947   19.2732 C   0  0  0  0  0  0  0  0  0  0  0  0
  -23.6545   -9.7134   24.7861 C   0  0  0  0  0  0  0  0  0  0  0  0
  -27.3071  -27.0371   20.1532 C   0  0  0  0  0  0  0  0  0  0  0  0
  -22.0446   -8.1788   25.5446 C   0  0  0  0  0  0  0  0  0  0  0  0
  -19.6672   -6.7875   25.1030 C   0  0  0  0  0  0  0  0  0  0  0  0
  -22.0437   -6.7840   25.5384 C   0  0  0  0  0  0  0  0  0  0  0  0
  -24.9941  -12.3334   21.7465 C   0  0  0  0  0  0  0  0  0  0  0  0
  -25.1152  -13.8582   20.1669 C   0  0  0  0  0  0  0  0  0  0  0  0
  -29.7212  -23.6265   20.4873 C   0  0  0  0  0  0  0  0  0  0  0  0
  -27.3755  -21.7588   19.4858 C   0  0  0  0  0  0  0  0  0  0  0  0
  -22.8234  -13.5628   21.1204 C   0  0  0  0  0  0  0  0  0  0  0  0
  -22.4030  -28.7812   21.6935 C   0  0  0  0  0  0  0  0  0  0  0  0
  -21.7367  -29.3463   18.5695 C   0  0  0  0  0  0  0  0  0  0  0  0
  -22.7706  -29.2287   15.3193 C   0  0  0  0  0  0  0  0  0  0  0  0
  -30.0686  -16.1825   19.1351 C   0  0  0  0  0  0  0  0  0  0  0  0
  -17.6276  -29.0245   23.4807 C   0  0  0  0  0  0  0  0  0  0  0  0
  -24.4186  -30.1184   20.9829 C   0  0  0  0  0  0  0  0  0  0  0  0
  -23.7929  -27.9668   19.0532 C   0  0  0  0  0  0  0  0  0  0  0  0
  -18.3142  -28.3666   22.2865 C   0  0  0  0  0  0  0  0  0  0  0  0
  -29.8863  -12.6290   19.0061 C   0  0  0  0  0  0  0  0  0  0  0  0
  -19.5559  -27.6043   22.7380 C   0  0  0  0  0  0  0  0  0  0  0  0
  -28.5338  -12.3118   19.6482 C   0  0  0  0  0  0  0  0  0  0  0  0
  -30.5549  -24.8957   18.6547 C   0  0  0  0  0  0  0  0  0  0  0  0
  -30.5731  -13.8124   19.6856 C   0  0  0  0  0  0  0  0  0  0  0  0
  -30.8543  -23.4278   18.4256 C   0  0  0  0  0  0  0  0  0  0  0  0
  -28.4039  -14.7112   20.4311 C   0  0  0  0  0  0  0  0  0  0  0  0
  -20.5827  -28.5493   23.3738 C   0  0  1  0  0  0  0  0  0  0  0  0
  -30.3410  -24.9753   20.1593 C   0  0  1  0  0  0  0  0  0  0  0  0
  -22.9815  -29.7148   20.6681 C   0  0  1  0  0  0  0  0  0  0  0  0
  -27.6447  -13.5675   19.7388 C   0  0  2  0  0  0  0  0  0  0  0  0
  -26.4562  -21.6079   20.6609 C   0  0  0  0  0  0  0  0  0  0  0  0
  -21.9922  -29.7230   12.9854 C   0  0  0  0  0  0  0  0  0  0  0  0
  -20.0319  -26.8160   18.6048 C   0  0  0  0  0  0  0  0  0  0  0  0
  -20.0706  -26.8388   16.1016 C   0  0  0  0  0  0  0  0  0  0  0  0
  -19.0294  -28.7319   17.3484 C   0  0  0  0  0  0  0  0  0  0  0  0
  -24.9187  -31.2210   14.9006 C   0  0  0  0  0  0  0  0  0  0  0  0
  -29.4710  -26.1460   20.5767 C   0  0  0  0  0  0  0  0  0  1  0  0
  -21.5455  -28.4852   17.3444 C   0  0  1  0  0  0  0  0  0  0  0  0
  -22.7191  -30.2614   14.2079 C   0  0  2  0  0  0  0  0  0  0  0  0
  -20.1936  -27.7175   17.3646 C   0  0  0  0  0  0  0  0  0  0  0  0
  -26.2783  -12.3337   21.3796 N   0  0  0  0  0  0  0  0  0  0  0  0
  -26.3204  -13.2710   20.4174 N   0  0  0  0  0  0  0  0  0  0  0  0
  -30.0909  -22.7430   19.4522 N   0  0  0  0  0  0  0  0  0  0  0  0
  -22.8517  -29.0543   19.3677 N   0  0  0  0  0  0  0  0  0  0  0  0
  -29.6727  -14.9666   19.7314 N   0  0  0  0  0  0  0  0  0  0  0  0
  -24.9790  -14.8209   19.2304 N   0  0  0  0  0  0  0  0  0  0  0  0
  -22.0519  -12.8583   22.0546 N   0  0  0  0  0  0  0  0  0  0  0  0
  -29.1174  -17.1993   19.2127 N   0  0  0  0  0  0  0  0  0  0  0  0
  -21.2957  -29.2831   22.3504 N   0  0  0  0  0  0  0  0  0  0  0  0
  -21.7145  -29.3676   16.1949 N   0  0  0  0  0  0  0  0  0  0  0  0
  -24.0980  -30.6529   13.8002 N   0  3  0  0  0  0  0  0  0  0  0  0
  -29.0875  -23.4120   21.5105 O   0  0  0  0  0  0  0  0  0  0  0  0
  -27.1090  -22.6291   18.6572 O   0  0  0  0  0  0  0  0  0  0  0  0
  -22.2707  -14.4178   20.3876 O   0  0  0  0  0  0  0  0  0  0  0  0
  -22.9218  -27.6858   21.8741 O   0  0  0  0  0  0  0  0  0  0  0  0
  -20.9304  -30.2496   18.8056 O   0  0  0  0  0  0  0  0  0  0  0  0
  -23.6568  -28.3810   15.4004 O   0  0  0  0  0  0  0  0  0  0  0  0
  -31.1592  -16.3041   18.5715 O   0  0  0  0  0  0  0  0  0  0  0  0
  -23.2237   -8.8709   25.7645 O   0  0  0  0  0  0  0  0  0  0  0  0
  -28.2236  -26.0667   19.8882 O   0  0  0  0  0  0  0  0  0  1  0  0
  -18.5254   -6.1195   24.8924 F   0  0  0  0  0  0  0  0  0  0  0  0
  -23.1814   -6.1068   25.7451 F   0  0  0  0  0  0  0  0  0  0  0  0
  1  2  1  0  0  0  0
  1  5  2  0  0  0  0
  2  6  2  0  0  0  0
  3 10  2  0  0  0  0
  3 18  1  0  0  0  0
  4 11  1  0  0  0  0
  4 18  2  0  0  0  0
  5 21  1  0  0  0  0
  6 23  1  0  0  0  0
  7 12  2  0  0  0  0
  7 22  1  0  0  0  0
  8  9  2  0  0  0  0
  8 25  1  0  0  0  0
  9 26  1  0  0  0  0
 10 27  1  0  0  0  0
 11 27  2  0  0  0  0
 12 28  1  0  0  0  0
 13 14  2  0  0  0  0
 13 29  1  0  0  0  0
 14 30  1  0  0  0  0
 15 19  1  0  0  0  0
 15 26  2  0  0  0  0
 16 24  1  0  0  0  0
 16 28  2  0  0  0  0
 17 30  2  0  0  0  0
 17 31  1  0  0  0  0
 18 32  1  0  0  0  0
 19 25  2  0  0  0  0
 19 35  1  0  0  0  0
 20 32  1  0  0  0  0
 20 33  2  0  0  0  0
 20 36  1  0  0  0  0
 21 23  2  0  0  0  0
 21 41  1  0  0  0  0
 22 24  2  0  0  0  0
 22 42  1  0  0  0  0
 23 52  1  0  0  0  0
 24 43  1  0  0  0  0
 25 68  1  0  0  0  0
 26 73  1  0  0  0  0
 27 84  1  0  0  0  0
 28 85  1  0  0  0  0
 29 31  2  0  0  0  0
 29 84  1  0  0  0  0
 30 86  1  0  0  0  0
 31 87  1  0  0  0  0
 32 66  2  0  0  0  0
 33 67  1  0  0  0  0
 33 71  1  0  0  0  0
 34 53  1  0  0  0  0
 34 68  1  0  0  0  0
 34 77  2  0  0  0  0
 35 56  1  0  0  0  0
 35 78  2  0  0  0  0
 36 72  1  0  0  0  0
 36 79  2  0  0  0  0
 37 54  1  0  0  0  0
 37 74  1  0  0  0  0
 37 80  2  0  0  0  0
 38 63  1  0  0  0  0
 38 69  1  0  0  0  0
 38 81  2  0  0  0  0
 39 64  1  0  0  0  0
 39 75  1  0  0  0  0
 39 82  2  0  0  0  0
 40 70  1  0  0  0  0
 40 73  1  0  0  0  0
 40 83  2  0  0  0  0
 41 44  1  0  0  0  0
 42 54  1  0  0  0  0
 43 69  1  0  0  0  0
 44 46  1  0  0  0  0
 45 47  1  0  0  0  0
 45 49  1  0  0  0  0
 46 52  1  0  0  0  0
 47 55  1  0  0  0  0
 48 50  1  0  0  0  0
 48 53  1  0  0  0  0
 49 70  1  0  0  0  0
 50 68  1  0  0  0  0
 51 55  1  0  0  0  0
 51 70  1  0  0  0  0
 52 74  1  0  0  0  0
 53 62  1  0  0  0  0
 54 69  1  0  0  0  0
 55 67  1  0  0  0  0
 57 64  1  0  0  0  0
 58 65  1  0  0  0  0
 59 65  1  0  0  0  0
 60 65  1  0  0  0  0
 61 76  1  0  0  0  0
 62 85  1  0  0  0  0
 63 65  1  0  0  0  0
 63 75  1  0  0  0  0
 64 76  1  0  0  0  0
 66 67  1  0  0  0  0
M  CHG  1  76   1
M  ISO  4  40 100  62 101  73 100  85 101
M  END
> <Batch ID>
0072

> <Smiles>
CNC(C)C(=O)NC(C(=O)N1Cc2cc([101O:1][101CH2:1]C3CCN(c4ccc([100NH:0][100C:0](=O)N5CCCC(n6nc(-c7ccc(Oc8ccc(F)cc8F)cc7)c(C(N)=O)c6N)C5)cc4C(C)=O)C3=O)ccc2CC1C(=O)NC1CCCc2ccccc21)C(C)(C)C

> <Shape>
0.300

> <Color>
0.130

> <Negative vol penalty>
0.000

$$$$

  -OEChem-04042323383D

 88 97  0     1  0  0  0  0  0999 V2000
  -32.4974  -35.9316   14.8901 C   0  0  0  0  0  0  0  0  0  0  0  0
  -32.4595  -34.6035   15.3025 C   0  0  0  0  0  0  0  0  0  0  0  0
  -23.1268   -9.8439   19.8985 C   0  0  0  0  0  0  0  0  0  0  0  0
  -23.8967   -9.8156   22.1884 C   0  0  0  0  0  0  0  0  0  0  0  0
  -31.7633  -36.8957   15.5797 C   0  0  0  0  0  0  0  0  0  0  0  0
  -31.6882  -34.2389   16.4055 C   0  0  0  0  0  0  0  0  0  0  0  0
  -28.6422  -28.9846   17.1928 C   0  0  0  0  0  0  0  0  0  0  0  0
  -22.4233   -8.6601   20.1204 C   0  0  0  0  0  0  0  0  0  0  0  0
  -23.1931   -8.6318   22.4103 C   0  0  0  0  0  0  0  0  0  0  0  0
  -28.9499  -27.8175   17.8907 C   0  0  0  0  0  0  0  0  0  0  0  0
  -19.5102   -7.7265   21.5609 C   0  0  0  0  0  0  0  0  0  0  0  0
  -18.2033   -7.6492   21.0795 C   0  0  0  0  0  0  0  0  0  0  0  0
  -29.4332  -19.3988   22.5568 C   0  0  0  0  0  0  0  0  0  0  0  0
  -27.6864  -28.6222   19.7815 C   0  0  0  0  0  0  0  0  0  0  0  0
  -30.9380  -17.9188   20.7325 C   0  0  0  0  0  0  0  0  0  0  0  0
  -18.8218   -5.7618   19.7038 C   0  0  0  0  0  0  0  0  0  0  0  0
  -23.8636  -10.4216   20.9325 C   0  0  0  0  0  0  0  0  0  0  0  0
  -30.3088  -20.0476   21.6862 C   0  0  0  0  0  0  0  0  0  0  0  0
  -24.1199  -12.9592   20.8786 C   0  0  0  0  0  0  0  0  0  0  0  0
  -30.9750  -36.5411   16.6858 C   0  0  0  0  0  0  0  0  0  0  0  0
  -27.8620  -29.9857   17.7891 C   0  0  0  0  0  0  0  0  0  0  0  0
  -30.9439  -35.1994   17.1114 C   0  0  0  0  0  0  0  0  0  0  0  0
  -27.3681  -29.7999   19.0882 C   0  0  0  0  0  0  0  0  0  0  0  0
  -30.0624  -17.2700   21.6032 C   0  0  0  0  0  0  0  0  0  0  0  0
  -22.4563   -8.0541   21.3763 C   0  0  0  0  0  0  0  0  0  0  0  0
  -28.4744  -27.6374   19.1863 C   0  0  0  0  0  0  0  0  0  0  0  0
  -20.4729   -6.8215   21.1137 C   0  0  0  0  0  0  0  0  0  0  0  0
  -17.8591   -6.6668   20.1510 C   0  0  0  0  0  0  0  0  0  0  0  0
  -29.3100  -18.0100   22.5153 C   0  0  0  0  0  0  0  0  0  0  0  0
  -31.0612  -19.3077   20.7741 C   0  0  0  0  0  0  0  0  0  0  0  0
  -20.1287   -5.8392   20.1852 C   0  0  0  0  0  0  0  0  0  0  0  0
  -24.5911  -11.6442   20.7038 C   0  0  0  0  0  0  0  0  0  0  0  0
  -25.1846  -13.7544   20.5314 C   0  0  0  0  0  0  0  0  0  0  0  0
  -29.6512  -23.6961   20.9089 C   0  0  0  0  0  0  0  0  0  0  0  0
  -30.4370  -21.5151   21.7323 C   0  0  0  0  0  0  0  0  0  0  0  0
  -22.8348  -13.4206   21.3159 C   0  0  0  0  0  0  0  0  0  0  0  0
  -28.3358  -33.0291   18.5745 C   0  0  0  0  0  0  0  0  0  0  0  0
  -25.1767  -32.9272   19.3039 C   0  0  0  0  0  0  0  0  0  0  0  0
  -22.4647  -31.0499   20.1800 C   0  0  0  0  0  0  0  0  0  0  0  0
  -30.6134  -14.9785   20.7135 C   0  0  0  0  0  0  0  0  0  0  0  0
  -30.2361  -37.6262   17.4283 C   0  0  0  0  0  0  0  0  0  0  0  0
  -27.5167  -31.2271   17.0131 C   0  0  0  0  0  0  0  0  0  0  0  0
  -26.5096  -30.8354   19.7658 C   0  0  0  0  0  0  0  0  0  0  0  0
  -29.1484  -37.0954   18.3587 C   0  0  0  0  0  0  0  0  0  0  0  0
  -29.5697  -12.5921   18.2859 C   0  0  0  0  0  0  0  0  0  0  0  0
  -29.6770  -35.9288   19.1871 C   0  0  0  0  0  0  0  0  0  0  0  0
  -28.1426  -12.2410   18.7129 C   0  0  0  0  0  0  0  0  0  0  0  0
  -28.3846  -22.8382   19.1072 C   0  0  0  0  0  0  0  0  0  0  0  0
  -30.4821  -12.8197   19.4898 C   0  0  0  0  0  0  0  0  0  0  0  0
  -28.6306  -21.6918   20.0812 C   0  0  0  0  0  0  0  0  0  0  0  0
  -28.5584  -13.4426   20.8970 C   0  0  0  0  0  0  0  0  0  0  0  0
  -30.0996  -34.7606   18.2881 C   0  0  1  0  0  0  0  0  0  0  0  0
  -28.5713  -24.1127   19.9393 C   0  0  2  0  0  0  0  0  0  0  0  0
  -27.1429  -32.4057   17.9068 C   0  0  1  0  0  0  0  0  0  0  0  0
  -27.5865  -13.2680   19.7186 C   0  0  2  0  0  0  0  0  0  0  0  0
  -20.0278  -31.2524   20.7440 C   0  0  0  0  0  0  0  0  0  0  0  0
  -25.9075  -34.0014   22.0647 C   0  0  0  0  0  0  0  0  0  0  0  0
  -23.6436  -33.2909   22.8636 C   0  0  0  0  0  0  0  0  0  0  0  0
  -23.8476  -35.0077   21.0654 C   0  0  0  0  0  0  0  0  0  0  0  0
  -21.6750  -29.3415   17.8960 C   0  0  0  0  0  0  0  0  0  0  0  0
  -28.9675  -25.3124   19.1020 C   0  0  0  0  0  0  0  0  0  1  0  0
  -24.3748  -32.5919   20.5381 C   0  0  1  0  0  0  0  0  0  0  0  0
  -21.0464  -31.0156   19.6398 C   0  0  2  0  0  0  0  0  0  0  0  0
  -24.4611  -33.7041   21.6212 C   0  0  0  0  0  0  0  0  0  0  0  0
  -25.8565  -11.6021   20.2783 N   0  0  0  0  0  0  0  0  0  0  0  0
  -26.1895  -12.9006   20.1829 N   0  0  0  0  0  0  0  0  0  0  0  0
  -29.6494  -22.2595   20.9767 N   0  0  0  0  0  0  0  0  0  0  0  0
  -26.2048  -32.0348   18.9683 N   0  0  0  0  0  0  0  0  0  0  0  0
  -29.8929  -13.8075   20.3964 N   0  0  0  0  0  0  0  0  0  0  0  0
  -25.3499  -15.0936   20.4931 N   0  0  0  0  0  0  0  0  0  0  0  0
  -21.8555  -12.4692   21.6325 N   0  0  0  0  0  0  0  0  0  0  0  0
  -29.9391  -15.8591   21.5587 N   0  0  0  0  0  0  0  0  0  0  0  0
  -28.9379  -34.0274   17.8326 N   0  0  0  0  0  0  0  0  0  0  0  0
  -23.0191  -32.3084   20.0796 N   0  0  0  0  0  0  0  0  0  0  0  0
  -31.3422  -22.0670   22.5350 N   0  3  0  0  0  0  0  0  0  0  0  0
  -20.7623  -29.6932   19.0141 N   0  3  0  0  0  0  0  0  0  0  0  0
  -30.3912  -24.4011   21.5711 O   0  0  0  0  0  0  0  0  0  0  0  0
  -22.5576  -14.6406   21.4069 O   0  0  0  0  0  0  0  0  0  0  0  0
  -28.6834  -32.6347   19.6815 O   0  0  0  0  0  0  0  0  0  0  0  0
  -24.8965  -33.9395   18.6572 O   0  0  0  0  0  0  0  0  0  0  0  0
  -23.0234  -30.0602   20.6479 O   0  0  0  0  0  0  0  0  0  0  0  0
  -31.7340  -15.1974   20.2463 O   0  0  0  0  0  0  0  0  0  0  0  0
  -21.7697   -6.8991   21.5933 O   0  0  0  0  0  0  0  0  0  0  0  0
  -28.7738  -26.4995   19.8699 O   0  0  0  0  0  0  0  0  0  1  0  0
  -16.6038   -6.5917   19.6899 F   0  0  0  0  0  0  0  0  0  0  0  0
  -28.4655  -17.3968   23.3570 F   0  0  0  0  0  0  0  0  0  0  0  0
  -31.9055  -19.9221   19.9335 F   0  0  0  0  0  0  0  0  0  0  0  0
  -21.0489   -4.9662   19.7528 F   0  0  0  0  0  0  0  0  0  0  0  0
  1  2  1  0  0  0  0
  1  5  2  0  0  0  0
  2  6  2  0  0  0  0
  3  8  2  0  0  0  0
  3 17  1  0  0  0  0
  4  9  1  0  0  0  0
  4 17  2  0  0  0  0
  5 20  1  0  0  0  0
  6 22  1  0  0  0  0
  7 10  2  0  0  0  0
  7 21  1  0  0  0  0
  8 25  1  0  0  0  0
  9 25  2  0  0  0  0
 10 26  1  0  0  0  0
 11 12  2  0  0  0  0
 11 27  1  0  0  0  0
 12 28  1  0  0  0  0
 13 18  1  0  0  0  0
 13 29  2  0  0  0  0
 14 23  1  0  0  0  0
 14 26  2  0  0  0  0
 15 24  2  0  0  0  0
 15 30  1  0  0  0  0
 16 28  2  0  0  0  0
 16 31  1  0  0  0  0
 17 32  1  0  0  0  0
 18 30  2  0  0  0  0
 18 35  1  0  0  0  0
 19 32  1  0  0  0  0
 19 33  2  0  0  0  0
 19 36  1  0  0  0  0
 20 22  2  0  0  0  0
 20 41  1  0  0  0  0
 21 23  2  0  0  0  0
 21 42  1  0  0  0  0
 22 52  1  0  0  0  0
 23 43  1  0  0  0  0
 24 29  1  0  0  0  0
 24 72  1  0  0  0  0
 25 83  1  0  0  0  0
 26 84  1  0  0  0  0
 27 31  2  0  0  0  0
 27 83  1  0  0  0  0
 28 85  1  0  0  0  0
 29 86  1  0  0  0  0
 30 87  1  0  0  0  0
 31 88  1  0  0  0  0
 32 65  2  0  0  0  0
 33 66  1  0  0  0  0
 33 70  1  0  0  0  0
 34 53  1  0  0  0  0
 34 67  1  0  0  0  0
 34 77  2  0  0  0  0
 35 67  1  0  0  0  0
 35 75  2  0  0  0  0
 36 71  1  0  0  0  0
 36 78  2  0  0  0  0
 37 54  1  0  0  0  0
 37 73  1  0  0  0  0
 37 79  2  0  0  0  0
 38 62  1  0  0  0  0
 38 68  1  0  0  0  0
 38 80  2  0  0  0  0
 39 63  1  0  0  0  0
 39 74  1  0  0  0  0
 39 81  2  0  0  0  0
 40 69  1  0  0  0  0
 40 72  1  0  0  0  0
 40 82  2  0  0  0  0
 41 44  1  0  0  0  0
 42 54  1  0  0  0  0
 43 68  1  0  0  0  0
 44 46  1  0  0  0  0
 45 47  1  0  0  0  0
 45 49  1  0  0  0  0
 46 52  1  0  0  0  0
 47 55  1  0  0  0  0
 48 50  1  0  0  0  0
 48 53  1  0  0  0  0
 49 69  1  0  0  0  0
 50 67  1  0  0  0  0
 51 55  1  0  0  0  0
 51 69  1  0  0  0  0
 52 73  1  0  0  0  0
 53 61  1  0  0  0  0
 54 68  1  0  0  0  0
 55 66  1  0  0  0  0
 56 63  1  0  0  0  0
 57 64  1  0  0  0  0
 58 64  1  0  0  0  0
 59 64  1  0  0  0  0
 60 76  1  0  0  0  0
 61 84  1  0  0  0  0
 62 64  1  0  0  0  0
 62 74  1  0  0  0  0
 63 76  1  0  0  0  0
 65 66  1  0  0  0  0
M  CHG  2  75   1  76   1
M  ISO  4  40 100  61 101  72 100  84 101
M  END
> <Batch ID>
0072

> <Smiles>
CNC(C)C(=O)NC(C(=O)N1Cc2cc([101O:1][101CH2:1]C3CCN(C(=N)c4cc(F)c([100NH:0][100C:0](=O)N5CCCC(n6nc(-c7ccc(Oc8ccc(F)cc8F)cc7)c(C(N)=O)c6N)C5)cc4F)C3=O)ccc2CC1C(=O)NC1CCCc2ccccc21)C(C)(C)C

> <Shape>
0.239

> <Color>
0.202

> <Negative vol penalty>
0.000

$$$$

  -OEChem-04042323383D

 89 98  0     1  0  0  0  0  0999 V2000
  -23.8283  -37.6162   22.5973 C   0  0  0  0  0  0  0  0  0  0  0  0
  -24.7719  -36.8676   21.9010 C   0  0  0  0  0  0  0  0  0  0  0  0
  -24.7357   -9.4245   21.8494 C   0  0  0  0  0  0  0  0  0  0  0  0
  -23.3312  -11.3105   22.4041 C   0  0  0  0  0  0  0  0  0  0  0  0
  -23.0839  -37.0234   23.6163 C   0  0  0  0  0  0  0  0  0  0  0  0
  -24.9723  -35.5260   22.2242 C   0  0  0  0  0  0  0  0  0  0  0  0
  -26.7013  -29.2577   19.2184 C   0  0  0  0  0  0  0  0  0  0  0  0
  -24.0340   -8.6342   22.7596 C   0  0  0  0  0  0  0  0  0  0  0  0
  -22.6295  -10.5201   23.3143 C   0  0  0  0  0  0  0  0  0  0  0  0
  -27.6003  -28.2027   19.3686 C   0  0  0  0  0  0  0  0  0  0  0  0
  -22.3795   -6.0239   24.6738 C   0  0  0  0  0  0  0  0  0  0  0  0
  -22.0039   -4.7439   24.2665 C   0  0  0  0  0  0  0  0  0  0  0  0
  -26.5653  -18.8322   17.1316 C   0  0  0  0  0  0  0  0  0  0  0  0
  -26.2006  -27.2637   21.0944 C   0  0  0  0  0  0  0  0  0  0  0  0
  -28.2776  -19.8715   18.4825 C   0  0  0  0  0  0  0  0  0  0  0  0
  -20.7117   -5.6975   22.4615 C   0  0  0  0  0  0  0  0  0  0  0  0
  -24.3844  -10.7627   21.6716 C   0  0  0  0  0  0  0  0  0  0  0  0
  -26.2276  -20.0774   16.6016 C   0  0  0  0  0  0  0  0  0  0  0  0
  -24.8196  -11.7659   19.3669 C   0  0  0  0  0  0  0  0  0  0  0  0
  -23.2685  -35.6713   23.9456 C   0  0  0  0  0  0  0  0  0  0  0  0
  -25.5487  -29.3294   20.0139 C   0  0  0  0  0  0  0  0  0  0  0  0
  -24.2306  -34.9150   23.2495 C   0  0  0  0  0  0  0  0  0  0  0  0
  -25.2873  -28.3192   20.9505 C   0  0  0  0  0  0  0  0  0  0  0  0
  -26.9150  -21.2197   17.0119 C   0  0  0  0  0  0  0  0  0  0  0  0
  -27.9400  -21.1168   17.9524 C   0  0  0  0  0  0  0  0  0  0  0  0
  -27.5902  -18.7292   18.0721 C   0  0  0  0  0  0  0  0  0  0  0  0
  -22.9809   -9.1819   23.4921 C   0  0  0  0  0  0  0  0  0  0  0  0
  -27.3515  -27.2070   20.3087 C   0  0  0  0  0  0  0  0  0  0  0  0
  -21.9213   -7.1408   23.9750 C   0  0  0  0  0  0  0  0  0  0  0  0
  -21.1700   -4.5806   23.1604 C   0  0  0  0  0  0  0  0  0  0  0  0
  -21.0874   -6.9775   22.8688 C   0  0  0  0  0  0  0  0  0  0  0  0
  -25.1092  -11.5798   20.7319 C   0  0  0  0  0  0  0  0  0  0  0  0
  -25.7955  -12.6243   18.9228 C   0  0  0  0  0  0  0  0  0  0  0  0
  -28.1152  -23.4084   19.0231 C   0  0  0  0  0  0  0  0  0  0  0  0
  -24.3280  -19.4093   13.4155 C   0  0  0  0  0  0  0  0  0  0  0  0
  -25.2934  -19.3873   14.3398 C   0  0  0  0  0  0  0  0  0  0  0  0
  -25.1530  -20.1532   15.6207 C   0  0  0  0  0  0  0  0  0  0  0  0
  -23.7629  -11.2123   18.5715 C   0  0  0  0  0  0  0  0  0  0  0  0
  -24.4290  -31.3899   22.1596 C   0  0  0  0  0  0  0  0  0  0  0  0
  -21.8138  -29.4733   22.0602 C   0  0  0  0  0  0  0  0  0  0  0  0
  -20.5019  -26.3947   21.3912 C   0  0  0  0  0  0  0  0  0  0  0  0
  -28.9235  -17.1874   19.5525 C   0  0  0  0  0  0  0  0  0  0  0  0
  -22.4738  -35.0870   25.0865 C   0  0  0  0  0  0  0  0  0  0  0  0
  -24.5753  -30.4598   19.8210 C   0  0  0  0  0  0  0  0  0  0  0  0
  -24.0541  -28.3392   21.8150 C   0  0  0  0  0  0  0  0  0  0  0  0
  -22.4818  -33.5608   25.1156 C   0  0  0  0  0  0  0  0  0  0  0  0
  -30.0491  -14.2155   21.1581 C   0  0  0  0  0  0  0  0  0  0  0  0
  -23.8984  -33.0305   24.9181 C   0  0  0  0  0  0  0  0  0  0  0  0
  -28.8404  -13.2802   21.0781 C   0  0  0  0  0  0  0  0  0  0  0  0
  -30.3806  -23.8560   18.4472 C   0  0  0  0  0  0  0  0  0  0  0  0
  -29.6292  -15.6665   21.3866 C   0  0  0  0  0  0  0  0  0  0  0  0
  -30.0976  -22.3790   18.2591 C   0  0  0  0  0  0  0  0  0  0  0  0
  -27.4330  -15.2494   20.3513 C   0  0  0  0  0  0  0  0  0  0  0  0
  -24.4594  -33.4504   23.5541 C   0  0  1  0  0  0  0  0  0  0  0  0
  -29.2857  -24.2994   19.4066 C   0  0  1  0  0  0  0  0  0  0  0  0
  -23.6944  -30.7047   21.0422 C   0  0  1  0  0  0  0  0  0  0  0  0
  -27.8027  -13.7864   20.0571 C   0  0  2  0  0  0  0  0  0  0  0  0
  -26.5523  -22.5556   16.4414 C   0  0  0  0  0  0  0  0  0  0  0  0
  -18.3401  -25.1213   21.4414 C   0  0  0  0  0  0  0  0  0  0  0  0
  -22.0269  -29.2361   25.0947 C   0  0  0  0  0  0  0  0  0  0  0  0
  -20.4946  -27.2596   24.9780 C   0  0  0  0  0  0  0  0  0  0  0  0
  -19.6952  -29.5011   24.2302 C   0  0  0  0  0  0  0  0  0  0  0  0
  -20.5887  -25.9043   18.4738 C   0  0  0  0  0  0  0  0  0  0  0  0
  -28.9651  -25.7786   19.3028 C   0  0  0  0  0  0  0  0  0  1  0  0
  -21.3622  -28.2414   22.8068 C   0  0  1  0  0  0  0  0  0  0  0  0
  -19.2779  -25.9718   20.5989 C   0  0  2  0  0  0  0  0  0  0  0  0
  -20.9190  -28.5599   24.2627 C   0  0  0  0  0  0  0  0  0  0  0  0
  -26.1849  -12.2648   21.1289 N   0  0  0  0  0  0  0  0  0  0  0  0
  -26.5799  -12.8896   20.0065 N   0  0  0  0  0  0  0  0  0  0  0  0
  -28.6562  -22.2723   18.3867 N   0  0  0  0  0  0  0  0  0  0  0  0
  -23.1359  -29.4684   21.5933 N   0  0  0  0  0  0  0  0  0  0  0  0
  -28.6486  -16.0779   20.3796 N   0  0  0  0  0  0  0  0  0  0  0  0
  -26.0506  -13.1705   17.7149 N   0  0  0  0  0  0  0  0  0  0  0  0
  -22.8465  -10.3481   19.1860 N   0  0  0  0  0  0  0  0  0  0  0  0
  -27.9328  -17.4643   18.6111 N   0  0  0  0  0  0  0  0  0  0  0  0
  -23.9068  -32.6222   22.5037 N   0  0  0  0  0  0  0  0  0  0  0  0
  -20.3242  -27.6252   21.9875 N   0  0  0  0  0  0  0  0  0  0  0  0
  -19.6831  -25.1805   19.4028 N   0  3  0  0  0  0  0  0  0  0  0  0
  -26.9548  -23.6685   19.3069 O   0  0  0  0  0  0  0  0  0  0  0  0
  -24.1309  -20.8158   15.8489 O   0  0  0  0  0  0  0  0  0  0  0  0
  -23.6448  -11.4633   17.3481 O   0  0  0  0  0  0  0  0  0  0  0  0
  -25.3968  -30.8406   22.6727 O   0  0  0  0  0  0  0  0  0  0  0  0
  -21.0205  -30.4027   21.8911 O   0  0  0  0  0  0  0  0  0  0  0  0
  -21.5129  -25.7010   21.4758 O   0  0  0  0  0  0  0  0  0  0  0  0
  -29.9737  -17.8270   19.6526 O   0  0  0  0  0  0  0  0  0  0  0  0
  -22.2958   -8.4109   24.3802 O   0  0  0  0  0  0  0  0  0  0  0  0
  -28.2277  -26.1765   20.4579 O   0  0  0  0  0  0  0  0  0  1  0  0
  -20.8106   -3.3513   22.7684 F   0  0  0  0  0  0  0  0  0  0  0  0
  -20.6449   -8.0466   22.1928 F   0  0  0  0  0  0  0  0  0  0  0  0
  1  2  1  0  0  0  0
  1  5  2  0  0  0  0
  2  6  2  0  0  0  0
  3  8  2  0  0  0  0
  3 17  1  0  0  0  0
  4  9  1  0  0  0  0
  4 17  2  0  0  0  0
  5 20  1  0  0  0  0
  6 22  1  0  0  0  0
  7 10  2  0  0  0  0
  7 21  1  0  0  0  0
  8 27  1  0  0  0  0
  9 27  2  0  0  0  0
 10 28  1  0  0  0  0
 11 12  2  0  0  0  0
 11 29  1  0  0  0  0
 12 30  1  0  0  0  0
 13 18  1  0  0  0  0
 13 26  2  0  0  0  0
 14 23  1  0  0  0  0
 14 28  2  0  0  0  0
 15 25  2  0  0  0  0
 15 26  1  0  0  0  0
 16 30  2  0  0  0  0
 16 31  1  0  0  0  0
 17 32  1  0  0  0  0
 18 24  2  0  0  0  0
 18 37  1  0  0  0  0
 19 32  1  0  0  0  0
 19 33  2  0  0  0  0
 19 38  1  0  0  0  0
 20 22  2  0  0  0  0
 20 43  1  0  0  0  0
 21 23  2  0  0  0  0
 21 44  1  0  0  0  0
 22 54  1  0  0  0  0
 23 45  1  0  0  0  0
 24 25  1  0  0  0  0
 24 58  1  0  0  0  0
 25 70  1  0  0  0  0
 26 75  1  0  0  0  0
 27 86  1  0  0  0  0
 28 87  1  0  0  0  0
 29 31  2  0  0  0  0
 29 86  1  0  0  0  0
 30 88  1  0  0  0  0
 31 89  1  0  0  0  0
 32 68  2  0  0  0  0
 33 69  1  0  0  0  0
 33 73  1  0  0  0  0
 34 55  1  0  0  0  0
 34 70  1  0  0  0  0
 34 79  2  0  0  0  0
 35 36  2  0  0  0  0
 36 37  1  0  0  0  0
 37 80  2  0  0  0  0
 38 74  1  0  0  0  0
 38 81  2  0  0  0  0
 39 56  1  0  0  0  0
 39 76  1  0  0  0  0
 39 82  2  0  0  0  0
 40 65  1  0  0  0  0
 40 71  1  0  0  0  0
 40 83  2  0  0  0  0
 41 66  1  0  0  0  0
 41 77  1  0  0  0  0
 41 84  2  0  0  0  0
 42 72  1  0  0  0  0
 42 75  1  0  0  0  0
 42 85  2  0  0  0  0
 43 46  1  0  0  0  0
 44 56  1  0  0  0  0
 45 71  1  0  0  0  0
 46 48  1  0  0  0  0
 47 49  1  0  0  0  0
 47 51  1  0  0  0  0
 48 54  1  0  0  0  0
 49 57  1  0  0  0  0
 50 52  1  0  0  0  0
 50 55  1  0  0  0  0
 51 72  1  0  0  0  0
 52 70  1  0  0  0  0
 53 57  1  0  0  0  0
 53 72  1  0  0  0  0
 54 76  1  0  0  0  0
 55 64  1  0  0  0  0
 56 71  1  0  0  0  0
 57 69  1  0  0  0  0
 59 66  1  0  0  0  0
 60 67  1  0  0  0  0
 61 67  1  0  0  0  0
 62 67  1  0  0  0  0
 63 78  1  0  0  0  0
 64 87  1  0  0  0  0
 65 67  1  0  0  0  0
 65 77  1  0  0  0  0
 66 78  1  0  0  0  0
 68 69  1  0  0  0  0
M  CHG  1  78   1
M  ISO  4  42 100  64 101  75 100  87 101
M  END
> <Batch ID>
0072

> <Smiles>
C=CC(=O)c1cc([100NH:0][100C:0](=O)N2CCCC(n3nc(-c4ccc(Oc5ccc(F)cc5F)cc4)c(C(N)=O)c3N)C2)cc(N2CCC([101CH2:1][101O:1]c3ccc4c(c3)CN(C(=O)C(NC(=O)C(C)NC)C(C)(C)C)C(C(=O)NC3CCCc5ccccc53)C4)C2=O)c1C

> <Shape>
0.331

> <Color>
0.083

> <Negative vol penalty>
0.000

$$$$

  -OEChem-04042323383D

 87 96  0     1  0  0  0  0  0999 V2000
  -26.6116  -32.7653   27.5538 C   0  0  0  0  0  0  0  0  0  0  0  0
  -26.9917  -31.5386   27.0189 C   0  0  0  0  0  0  0  0  0  0  0  0
  -22.5923  -10.2014   20.6069 C   0  0  0  0  0  0  0  0  0  0  0  0
  -24.5109   -9.0257   21.4865 C   0  0  0  0  0  0  0  0  0  0  0  0
  -25.3625  -33.3021   27.2450 C   0  0  0  0  0  0  0  0  0  0  0  0
  -26.1224  -30.8474   26.1758 C   0  0  0  0  0  0  0  0  0  0  0  0
  -28.4540  -28.9887   22.0826 C   0  0  0  0  0  0  0  0  0  0  0  0
  -25.2970  -19.6905   20.4217 C   0  0  0  0  0  0  0  0  0  0  0  0
  -25.6401  -18.3386   20.4029 C   0  0  0  0  0  0  0  0  0  0  0  0
  -21.7641   -9.5138   21.4941 C   0  0  0  0  0  0  0  0  0  0  0  0
  -23.6827   -8.3381   22.3737 C   0  0  0  0  0  0  0  0  0  0  0  0
  -29.2043  -27.8257   22.2504 C   0  0  0  0  0  0  0  0  0  0  0  0
  -21.5571   -5.7110   22.2704 C   0  0  0  0  0  0  0  0  0  0  0  0
  -21.7512   -4.3363   22.4051 C   0  0  0  0  0  0  0  0  0  0  0  0
  -27.3831  -26.5275   21.3466 C   0  0  0  0  0  0  0  0  0  0  0  0
  -27.9770  -18.9294   20.5677 C   0  0  0  0  0  0  0  0  0  0  0  0
  -22.2218   -4.6330   24.7562 C   0  0  0  0  0  0  0  0  0  0  0  0
  -23.9656   -9.9573   20.6031 C   0  0  0  0  0  0  0  0  0  0  0  0
  -24.7546  -10.6574   18.2804 C   0  0  0  0  0  0  0  0  0  0  0  0
  -24.4812  -32.6217   26.3899 C   0  0  0  0  0  0  0  0  0  0  0  0
  -27.1562  -28.9285   21.5548 C   0  0  0  0  0  0  0  0  0  0  0  0
  -24.8597  -31.3750   25.8563 C   0  0  0  0  0  0  0  0  0  0  0  0
  -26.6193  -27.6914   21.1708 C   0  0  0  0  0  0  0  0  0  0  0  0
  -26.2939  -20.6618   20.5134 C   0  0  0  0  0  0  0  0  0  0  0  0
  -27.6338  -20.2813   20.5865 C   0  0  0  0  0  0  0  0  0  0  0  0
  -26.9800  -17.9581   20.4759 C   0  0  0  0  0  0  0  0  0  0  0  0
  -22.3094   -8.5822   22.3775 C   0  0  0  0  0  0  0  0  0  0  0  0
  -28.6679  -26.5945   21.8851 C   0  0  0  0  0  0  0  0  0  0  0  0
  -21.6954   -6.5467   23.3786 C   0  0  0  0  0  0  0  0  0  0  0  0
  -22.0835   -3.7973   23.6480 C   0  0  0  0  0  0  0  0  0  0  0  0
  -22.0277   -6.0078   24.6215 C   0  0  0  0  0  0  0  0  0  0  0  0
  -24.8215  -10.6668   19.6865 C   0  0  0  0  0  0  0  0  0  0  0  0
  -25.7771  -11.4836   17.8824 C   0  0  0  0  0  0  0  0  0  0  0  0
  -30.6229  -22.3838   19.6783 C   0  0  0  0  0  0  0  0  0  0  0  0
  -23.8490   -9.9639   17.4116 C   0  0  0  0  0  0  0  0  0  0  0  0
  -24.2598  -29.6726   22.6321 C   0  0  0  0  0  0  0  0  0  0  0  0
  -23.3725  -28.9579   19.5950 C   0  0  0  0  0  0  0  0  0  0  0  0
  -24.0432  -27.2808   16.6994 C   0  0  0  0  0  0  0  0  0  0  0  0
  -28.6085  -16.0365   20.5205 C   0  0  0  0  0  0  0  0  0  0  0  0
  -23.1225  -33.2194   26.1228 C   0  0  0  0  0  0  0  0  0  0  0  0
  -26.3699  -30.1951   21.3553 C   0  0  0  0  0  0  0  0  0  0  0  0
  -25.2385  -27.5751   20.5806 C   0  0  0  0  0  0  0  0  0  0  0  0
  -29.2510  -21.7794   19.4613 C   0  0  0  0  0  0  0  0  0  0  0  0
  -22.4104  -32.6011   24.9225 C   0  0  0  0  0  0  0  0  0  0  0  0
  -30.0852  -13.0467   19.2723 C   0  0  0  0  0  0  0  0  0  0  0  0
  -22.4967  -31.0791   24.9764 C   0  0  0  0  0  0  0  0  0  0  0  0
  -28.8960  -12.0983   19.1032 C   0  0  0  0  0  0  0  0  0  0  0  0
  -29.9322  -13.9335   20.5068 C   0  0  0  0  0  0  0  0  0  0  0  0
  -27.4789  -13.7281   20.4155 C   0  0  0  0  0  0  0  0  0  0  0  0
  -29.0739  -21.7235   21.9893 C   0  0  0  0  0  0  0  0  0  0  0  0
  -23.9544  -30.6068   24.9180 C   0  0  1  0  0  0  0  0  0  0  0  0
  -24.8642  -29.9591   21.2867 C   0  0  1  0  0  0  0  0  0  0  0  0
  -27.5568  -12.8598   19.1492 C   0  0  2  0  0  0  0  0  0  0  0  0
  -29.7669  -23.0827   21.9001 C   0  0  2  0  0  0  0  0  0  0  0  0
  -25.8980  -22.1024   20.5319 C   0  0  0  0  0  0  0  0  0  0  0  0
  -23.1151  -26.8607   14.4061 C   0  0  0  0  0  0  0  0  0  0  0  0
  -21.3221  -27.0339   20.7799 C   0  0  0  0  0  0  0  0  0  0  0  0
  -21.1103  -25.9778   18.5198 C   0  0  0  0  0  0  0  0  0  0  0  0
  -20.4944  -28.3742   18.8375 C   0  0  0  0  0  0  0  0  0  0  0  0
  -32.0624  -23.7341   21.1743 C   0  0  0  0  0  0  0  0  0  0  0  0
  -26.4107  -28.4850   15.3942 C   0  0  0  0  0  0  0  0  0  0  0  0
  -28.7862  -24.2306   21.6529 C   0  0  0  0  0  0  0  0  0  1  0  0
  -22.9323  -27.7053   18.8766 C   0  0  1  0  0  0  0  0  0  0  0  0
  -24.0340  -27.7306   15.2496 C   0  0  2  0  0  0  0  0  0  0  0  0
  -21.4901  -27.2744   19.2663 C   0  0  0  0  0  0  0  0  0  0  0  0
  -25.8086  -11.4377   20.1506 N   0  0  0  0  0  0  0  0  0  0  0  0
  -26.3714  -11.9203   19.0297 N   0  0  0  0  0  0  0  0  0  0  0  0
  -28.6461  -21.2423   20.6779 N   0  0  3  0  0  0  0  0  0  0  0  0
  -30.8154  -23.0398   20.8857 N   0  0  0  0  0  0  0  0  0  0  0  0
  -24.5066  -28.8412   20.4112 N   0  0  0  0  0  0  0  0  0  0  0  0
  -28.6423  -14.6265   20.4799 N   0  0  0  0  0  0  0  0  0  0  0  0
  -26.2169  -11.8717   16.6665 N   0  0  0  0  0  0  0  0  0  0  0  0
  -24.1940   -8.6769   16.9767 N   0  0  0  0  0  0  0  0  0  0  0  0
  -27.3279  -16.5846   20.4562 N   0  0  0  0  0  0  0  0  0  0  0  0
  -24.4543  -30.6765   23.5616 N   0  0  0  0  0  0  0  0  0  0  0  0
  -23.1137  -27.9662   17.4527 N   0  0  0  0  0  0  0  0  0  0  0  0
  -25.4075  -27.6576   14.6759 N   0  3  0  0  0  0  0  0  0  0  0  0
  -31.4651  -22.3220   18.7798 O   0  0  0  0  0  0  0  0  0  0  0  0
  -22.7738  -10.4770   17.0190 O   0  0  0  0  0  0  0  0  0  0  0  0
  -23.6600  -28.6195   22.8132 O   0  0  0  0  0  0  0  0  0  0  0  0
  -22.7380  -30.0031   19.4323 O   0  0  0  0  0  0  0  0  0  0  0  0
  -24.7968  -26.4061   17.1207 O   0  0  0  0  0  0  0  0  0  0  0  0
  -29.6412  -16.7090   20.5784 O   0  0  0  0  0  0  0  0  0  0  0  0
  -21.5016   -7.9112   23.2435 O   0  0  0  0  0  0  0  0  0  0  0  0
  -29.3979  -25.4577   22.0484 O   0  0  0  0  0  0  0  0  0  1  0  0
  -22.2683   -2.4770   23.7775 F   0  0  0  0  0  0  0  0  0  0  0  0
  -22.1608   -6.8055   25.6900 F   0  0  0  0  0  0  0  0  0  0  0  0
  1  2  1  0  0  0  0
  1  5  2  0  0  0  0
  2  6  2  0  0  0  0
  3 10  2  0  0  0  0
  3 18  1  0  0  0  0
  4 11  1  0  0  0  0
  4 18  2  0  0  0  0
  5 20  1  0  0  0  0
  6 22  1  0  0  0  0
  7 12  2  0  0  0  0
  7 21  1  0  0  0  0
  8  9  2  0  0  0  0
  8 24  1  0  0  0  0
  9 26  1  0  0  0  0
 10 27  1  0  0  0  0
 11 27  2  0  0  0  0
 12 28  1  0  0  0  0
 13 14  2  0  0  0  0
 13 29  1  0  0  0  0
 14 30  1  0  0  0  0
 15 23  1  0  0  0  0
 15 28  2  0  0  0  0
 16 25  1  0  0  0  0
 16 26  2  0  0  0  0
 17 30  2  0  0  0  0
 17 31  1  0  0  0  0
 18 32  1  0  0  0  0
 19 32  1  0  0  0  0
 19 33  2  0  0  0  0
 19 35  1  0  0  0  0
 20 22  2  0  0  0  0
 20 40  1  0  0  0  0
 21 23  2  0  0  0  0
 21 41  1  0  0  0  0
 22 51  1  0  0  0  0
 23 42  1  0  0  0  0
 24 25  2  0  0  0  0
 24 55  1  0  0  0  0
 25 68  1  0  0  0  0
 26 74  1  0  0  0  0
 27 84  1  0  0  0  0
 28 85  1  0  0  0  0
 29 31  2  0  0  0  0
 29 84  1  0  0  0  0
 30 86  1  0  0  0  0
 31 87  1  0  0  0  0
 32 66  2  0  0  0  0
 33 67  1  0  0  0  0
 33 72  1  0  0  0  0
 34 43  1  0  0  0  0
 34 69  1  0  0  0  0
 34 78  2  0  0  0  0
 35 73  1  0  0  0  0
 35 79  2  0  0  0  0
 36 52  1  0  0  0  0
 36 75  1  0  0  0  0
 36 80  2  0  0  0  0
 37 63  1  0  0  0  0
 37 70  1  0  0  0  0
 37 81  2  0  0  0  0
 38 64  1  0  0  0  0
 38 76  1  0  0  0  0
 38 82  2  0  0  0  0
 39 71  1  0  0  0  0
 39 74  1  0  0  0  0
 39 83  2  0  0  0  0
 40 44  1  0  0  0  0
 41 52  1  0  0  0  0
 42 70  1  0  0  0  0
 43 68  1  0  0  0  0
 44 46  1  0  0  0  0
 45 47  1  0  0  0  0
 45 48  1  0  0  0  0
 46 51  1  0  0  0  0
 47 53  1  0  0  0  0
 48 71  1  0  0  0  0
 49 53  1  0  0  0  0
 49 71  1  0  0  0  0
 50 54  1  0  0  0  0
 50 68  1  0  0  0  0
 51 75  1  0  0  0  0
 52 70  1  0  0  0  0
 53 67  1  0  0  0  0
 54 62  1  0  0  0  0
 54 69  1  0  0  0  0
 56 64  1  0  0  0  0
 57 65  1  0  0  0  0
 58 65  1  0  0  0  0
 59 65  1  0  0  0  0
 60 69  1  0  0  0  0
 61 77  1  0  0  0  0
 62 85  1  0  0  0  0
 63 65  1  0  0  0  0
 63 76  1  0  0  0  0
 64 77  1  0  0  0  0
 66 67  1  0  0  0  0
M  CHG  1  77   1
M  ISO  4  39 100  62 101  74 100  85 101
M  END
> <Batch ID>
0072

> <Smiles>
CNC(C)C(=O)NC(C(=O)N1Cc2cc([101O:1][101CH2:1]C3CN(c4cc([100NH:0][100C:0](=O)N5CCCC(n6nc(-c7ccc(Oc8ccc(F)cc8F)cc7)c(C(N)=O)c6N)C5)ccc4C)CC(=O)N3C)ccc2CC1C(=O)NC1CCCc2ccccc21)C(C)(C)C

> <Shape>
0.288

> <Color>
0.086

> <Negative vol penalty>
0.000

$$$$

  -OEChem-04042323383D

 78 85  0     1  0  0  0  0  0999 V2000
  -21.7635  -12.2128   19.6123 C   0  0  0  0  0  0  0  0  0  0  0  0
  -21.6448  -13.4985   20.1301 C   0  0  0  0  0  0  0  0  0  0  0  0
  -24.5945  -29.7497   19.7956 C   0  0  0  0  0  0  0  0  0  0  0  0
  -25.2672  -29.3191   22.0758 C   0  0  0  0  0  0  0  0  0  0  0  0
  -22.9979  -11.5649   19.6343 C   0  0  0  0  0  0  0  0  0  0  0  0
  -22.7602  -14.1368   20.6712 C   0  0  0  0  0  0  0  0  0  0  0  0
  -23.1701  -18.9509   19.1541 C   0  0  0  0  0  0  0  0  0  0  0  0
  -25.5305  -30.7806   19.7142 C   0  0  0  0  0  0  0  0  0  0  0  0
  -26.2032  -30.3500   21.9944 C   0  0  0  0  0  0  0  0  0  0  0  0
  -22.3430  -19.8865   19.7740 C   0  0  0  0  0  0  0  0  0  0  0  0
  -28.5198  -33.1034   22.5067 C   0  0  0  0  0  0  0  0  0  0  0  0
  -28.5993  -33.9930   23.5780 C   0  0  0  0  0  0  0  0  0  0  0  0
  -24.1775  -20.5631   21.1869 C   0  0  0  0  0  0  0  0  0  0  0  0
  -26.2913  -34.6175   23.2307 C   0  0  0  0  0  0  0  0  0  0  0  0
  -24.4628  -29.0189   20.9765 C   0  0  0  0  0  0  0  0  0  0  0  0
  -23.6958  -26.5969   20.7463 C   0  0  0  0  0  0  0  0  0  0  0  0
  -24.1312  -12.1993   20.1671 C   0  0  0  0  0  0  0  0  0  0  0  0
  -24.5064  -18.8066   19.5540 C   0  0  0  0  0  0  0  0  0  0  0  0
  -24.0106  -13.4963   20.7015 C   0  0  0  0  0  0  0  0  0  0  0  0
  -25.0202  -19.6267   20.5686 C   0  0  0  0  0  0  0  0  0  0  0  0
  -26.3349  -31.0808   20.8135 C   0  0  0  0  0  0  0  0  0  0  0  0
  -22.8458  -20.6907   20.7926 C   0  0  0  0  0  0  0  0  0  0  0  0
  -27.3261  -32.9708   21.7972 C   0  0  0  0  0  0  0  0  0  0  0  0
  -27.4850  -34.7500   23.9400 C   0  0  0  0  0  0  0  0  0  0  0  0
  -26.2118  -33.7278   22.1593 C   0  0  0  0  0  0  0  0  0  0  0  0
  -23.4957  -27.9542   21.0614 C   0  0  0  0  0  0  0  0  0  0  0  0
  -22.4816  -26.0044   20.9934 C   0  0  0  0  0  0  0  0  0  0  0  0
  -24.8739  -25.9311   20.2725 C   0  0  0  0  0  0  0  0  0  0  0  0
  -26.2313  -16.4478   20.8048 C   0  0  0  0  0  0  0  0  0  0  0  0
  -28.6794  -18.5313   20.3715 C   0  0  0  0  0  0  0  0  0  0  0  0
  -20.0681  -21.9479   22.7071 C   0  0  0  0  0  0  0  0  0  0  0  0
  -29.7011  -21.7689   20.0231 C   0  0  0  0  0  0  0  0  0  0  0  0
  -17.7870  -22.0879   23.8040 C   0  0  0  0  0  0  0  0  0  0  0  0
  -17.9755  -25.2986   24.2095 C   0  0  0  0  0  0  0  0  0  0  0  0
  -25.4339  -11.4407   20.2119 C   0  0  0  0  0  0  0  0  0  0  0  0
  -25.3929  -17.8112   18.8570 C   0  0  0  0  0  0  0  0  0  0  0  0
  -26.4532  -19.5252   21.0210 C   0  0  0  0  0  0  0  0  0  0  0  0
  -26.6486  -12.3307   20.4626 C   0  0  0  0  0  0  0  0  0  0  0  0
  -17.9543  -28.0485   21.9481 C   0  0  0  0  0  0  0  0  0  0  0  0
  -26.3736  -13.2989   21.6088 C   0  0  0  0  0  0  0  0  0  0  0  0
  -19.4110  -28.1608   21.4950 C   0  0  0  0  0  0  0  0  0  0  0  0
  -17.8496  -27.6420   23.4163 C   0  0  0  0  0  0  0  0  0  0  0  0
  -20.0470  -26.5301   23.3212 C   0  0  0  0  0  0  0  0  0  0  0  0
  -25.2030  -14.2313   21.2745 C   0  0  1  0  0  0  0  0  0  0  0  0
  -26.5968  -17.3932   19.6956 C   0  0  1  0  0  0  0  0  0  0  0  0
  -20.2032  -26.8833   21.8322 C   0  0  2  0  0  0  0  0  0  0  0  0
  -31.7674  -23.1610   19.7230 C   0  0  0  0  0  0  0  0  0  0  0  0
  -29.3654  -18.1442   23.3193 C   0  0  0  0  0  0  0  0  0  0  0  0
  -30.7729  -20.2108   23.1913 C   0  0  0  0  0  0  0  0  0  0  0  0
  -31.3427  -18.2272   21.7902 C   0  0  0  0  0  0  0  0  0  0  0  0
  -28.7546  -22.8219   17.4243 C   0  0  0  0  0  0  0  0  0  0  0  0
  -20.6489  -21.2968   21.4724 C   0  0  0  0  0  0  0  0  0  1  0  0
  -18.2576  -22.9483   24.9550 C   0  0  0  0  0  0  0  0  0  0  0  0
  -29.3164  -19.6198   21.2012 C   0  0  1  0  0  0  0  0  0  0  0  0
  -30.6330  -22.4289   19.0229 C   0  0  2  0  0  0  0  0  0  0  0  0
  -30.1718  -19.0513   22.3685 C   0  0  0  0  0  0  0  0  0  0  0  0
  -22.2522  -28.2092   21.4769 N   0  0  0  0  0  0  0  0  0  0  0  0
  -21.6599  -27.0040   21.4245 N   0  0  0  0  0  0  0  0  0  0  0  0
  -27.2785  -18.5326   20.3131 N   0  0  0  0  0  0  0  0  0  0  0  0
  -18.6214  -26.4228   23.6692 N   0  0  0  0  0  0  0  0  0  0  0  0
  -22.0473  -24.7311   20.8818 N   0  0  0  0  0  0  0  0  0  0  0  0
  -26.0353  -26.6898   20.0724 N   0  0  0  0  0  0  0  0  0  0  0  0
  -25.6328  -15.2792   20.3737 N   0  0  0  0  0  0  0  0  0  0  0  0
  -18.6938  -21.6872   22.8334 N   0  0  0  0  0  0  0  0  0  0  0  0
  -30.0604  -20.4606   20.2697 N   0  0  0  0  0  0  0  0  0  0  0  0
  -18.7787  -24.1829   24.4119 N   0  0  0  0  0  0  0  0  0  0  0  0
  -29.8850  -23.4106   18.1876 N   0  3  0  0  0  0  0  0  0  0  0  0
  -24.8915  -24.7029   20.0181 O   0  0  0  0  0  0  0  0  0  0  0  0
  -26.4755  -16.7550   21.9657 O   0  0  0  0  0  0  0  0  0  0  0  0
  -29.3984  -17.7146   19.7907 O   0  0  0  0  0  0  0  0  0  0  0  0
  -20.7676  -22.6119   23.4656 O   0  0  0  0  0  0  0  0  0  0  0  0
  -28.7518  -22.3562   20.5373 O   0  0  0  0  0  0  0  0  0  0  0  0
  -16.7711  -25.2880   24.4856 O   0  0  0  0  0  0  0  0  0  0  0  0
  -27.2485  -32.0865   20.7344 O   0  0  0  0  0  0  0  0  0  0  0  0
  -22.0405  -21.6043   21.3998 O   0  0  0  0  0  0  0  0  0  1  0  0
  -27.5611  -35.6032   24.9698 F   0  0  0  0  0  0  0  0  0  0  0  0
  -25.0620  -33.6039   21.4823 F   0  0  0  0  0  0  0  0  0  0  0  0
  -16.1807  -21.6049   23.6994 S   0  0  0  0  0  0  0  0  0  0  0  0
  1  2  1  0  0  0  0
  1  5  2  0  0  0  0
  2  6  2  0  0  0  0
  3  8  2  0  0  0  0
  3 15  1  0  0  0  0
  4  9  1  0  0  0  0
  4 15  2  0  0  0  0
  5 17  1  0  0  0  0
  6 19  1  0  0  0  0
  7 10  2  0  0  0  0
  7 18  1  0  0  0  0
  8 21  1  0  0  0  0
  9 21  2  0  0  0  0
 10 22  1  0  0  0  0
 11 12  2  0  0  0  0
 11 23  1  0  0  0  0
 12 24  1  0  0  0  0
 13 20  1  0  0  0  0
 13 22  2  0  0  0  0
 14 24  2  0  0  0  0
 14 25  1  0  0  0  0
 15 26  1  0  0  0  0
 16 26  1  0  0  0  0
 16 27  2  0  0  0  0
 16 28  1  0  0  0  0
 17 19  2  0  0  0  0
 17 35  1  0  0  0  0
 18 20  2  0  0  0  0
 18 36  1  0  0  0  0
 19 44  1  0  0  0  0
 20 37  1  0  0  0  0
 21 74  1  0  0  0  0
 22 75  1  0  0  0  0
 23 25  2  0  0  0  0
 23 74  1  0  0  0  0
 24 76  1  0  0  0  0
 25 77  1  0  0  0  0
 26 57  2  0  0  0  0
 27 58  1  0  0  0  0
 27 61  1  0  0  0  0
 28 62  1  0  0  0  0
 28 68  2  0  0  0  0
 29 45  1  0  0  0  0
 29 63  1  0  0  0  0
 29 69  2  0  0  0  0
 30 54  1  0  0  0  0
 30 59  1  0  0  0  0
 30 70  2  0  0  0  0
 31 52  1  0  0  0  0
 31 64  1  0  0  0  0
 31 71  2  0  0  0  0
 32 55  1  0  0  0  0
 32 65  1  0  0  0  0
 32 72  2  0  0  0  0
 33 53  1  0  0  0  0
 33 64  1  0  0  0  0
 33 78  2  0  0  0  0
 34 60  1  0  0  0  0
 34 66  1  0  0  0  0
 34 73  2  0  0  0  0
 35 38  1  0  0  0  0
 36 45  1  0  0  0  0
 37 59  1  0  0  0  0
 38 40  1  0  0  0  0
 39 41  1  0  0  0  0
 39 42  1  0  0  0  0
 40 44  1  0  0  0  0
 41 46  1  0  0  0  0
 42 60  1  0  0  0  0
 43 46  1  0  0  0  0
 43 60  1  0  0  0  0
 44 63  1  0  0  0  0
 45 59  1  0  0  0  0
 46 58  1  0  0  0  0
 47 55  1  0  0  0  0
 48 56  1  0  0  0  0
 49 56  1  0  0  0  0
 50 56  1  0  0  0  0
 51 67  1  0  0  0  0
 52 75  1  0  0  0  0
 53 66  1  0  0  0  0
 54 56  1  0  0  0  0
 54 65  1  0  0  0  0
 55 67  1  0  0  0  0
 57 58  1  0  0  0  0
M  CHG  1  67   1
M  ISO  4  34 100  52 101  66 100  75 101
M  END
> <Batch ID>
0072

> <Smiles>
CNC(C)C(=O)NC(C(=O)N1Cc2cc([101O:1][101CH2:1]C(=O)NC(=S)C[100NH:0][100C:0](=O)N3CCCC(n4nc(-c5ccc(Oc6ccc(F)cc6F)cc5)c(C(N)=O)c4N)C3)ccc2CC1C(=O)NC1CCCc2ccccc21)C(C)(C)C

> <Shape>
0.223

> <Color>
0.072

> <Negative vol penalty>
0.000

$$$$

  -OEChem-04042323383D

 87 96  0     1  0  0  0  0  0999 V2000
  -27.0273  -37.7552   20.5280 C   0  0  0  0  0  0  0  0  0  0  0  0
  -27.6240  -36.5229   20.2809 C   0  0  0  0  0  0  0  0  0  0  0  0
  -23.0993  -12.1752   23.4089 C   0  0  0  0  0  0  0  0  0  0  0  0
  -22.0418  -13.4975   21.6853 C   0  0  0  0  0  0  0  0  0  0  0  0
  -25.8168  -20.3575   16.9418 C   0  0  0  0  0  0  0  0  0  0  0  0
  -26.0376  -37.8660   21.5037 C   0  0  0  0  0  0  0  0  0  0  0  0
  -27.2319  -35.4010   21.0103 C   0  0  0  0  0  0  0  0  0  0  0  0
  -26.9069  -29.6277   18.9930 C   0  0  0  0  0  0  0  0  0  0  0  0
  -26.1605  -19.1266   17.5007 C   0  0  0  0  0  0  0  0  0  0  0  0
  -21.9277  -12.2229   24.1643 C   0  0  0  0  0  0  0  0  0  0  0  0
  -20.8702  -13.5451   22.4407 C   0  0  0  0  0  0  0  0  0  0  0  0
  -27.7766  -28.5439   19.1069 C   0  0  0  0  0  0  0  0  0  0  0  0
  -18.2554  -11.5114   23.1096 C   0  0  0  0  0  0  0  0  0  0  0  0
  -17.0496  -11.2800   22.4478 C   0  0  0  0  0  0  0  0  0  0  0  0
  -26.5329  -27.7544   21.0172 C   0  0  0  0  0  0  0  0  0  0  0  0
  -28.0422  -20.1566   18.6121 C   0  0  0  0  0  0  0  0  0  0  0  0
  -16.2762  -13.4773   23.0886 C   0  0  0  0  0  0  0  0  0  0  0  0
  -23.1564  -12.8126   22.1694 C   0  0  0  0  0  0  0  0  0  0  0  0
  -26.5859  -21.4879   17.2180 C   0  0  0  0  0  0  0  0  0  0  0  0
  -24.7211  -11.7972   20.4292 C   0  0  0  0  0  0  0  0  0  0  0  0
  -25.6264  -36.7429   22.2386 C   0  0  0  0  0  0  0  0  0  0  0  0
  -25.8484  -29.7891   19.8986 C   0  0  0  0  0  0  0  0  0  0  0  0
  -26.2366  -35.4972   21.9976 C   0  0  0  0  0  0  0  0  0  0  0  0
  -25.6497  -28.8396   20.9111 C   0  0  0  0  0  0  0  0  0  0  0  0
  -27.6986  -21.3875   18.0531 C   0  0  0  0  0  0  0  0  0  0  0  0
  -27.2732  -19.0261   18.3358 C   0  0  0  0  0  0  0  0  0  0  0  0
  -20.8131  -12.9077   23.6802 C   0  0  0  0  0  0  0  0  0  0  0  0
  -27.5914  -27.6087   20.1208 C   0  0  0  0  0  0  0  0  0  0  0  0
  -18.4716  -12.7257   23.7610 C   0  0  0  0  0  0  0  0  0  0  0  0
  -16.0600  -12.2629   22.4373 C   0  0  0  0  0  0  0  0  0  0  0  0
  -17.4821  -13.7087   23.7505 C   0  0  0  0  0  0  0  0  0  0  0  0
  -24.3666  -12.7643   21.3888 C   0  0  0  0  0  0  0  0  0  0  0  0
  -25.9551  -12.1975   19.9780 C   0  0  0  0  0  0  0  0  0  0  0  0
  -28.0718  -23.7206   18.9729 C   0  0  0  0  0  0  0  0  0  0  0  0
  -26.2085  -22.7546   16.6252 C   0  0  0  0  0  0  0  0  0  0  0  0
  -23.9995  -10.6406   19.9852 C   0  0  0  0  0  0  0  0  0  0  0  0
  -25.0398  -32.0016   22.0327 C   0  0  0  0  0  0  0  0  0  0  0  0
  -22.3587  -30.1967   22.3097 C   0  0  0  0  0  0  0  0  0  0  0  0
  -20.8689  -27.1476   21.9497 C   0  0  0  0  0  0  0  0  0  0  0  0
  -28.6950  -17.5029   19.7517 C   0  0  0  0  0  0  0  0  0  0  0  0
  -24.5860  -36.9215   23.3159 C   0  0  0  0  0  0  0  0  0  0  0  0
  -24.9031  -30.9491   19.7459 C   0  0  0  0  0  0  0  0  0  0  0  0
  -24.5165  -28.9563   21.8963 C   0  0  0  0  0  0  0  0  0  0  0  0
  -23.9631  -35.6090   23.7846 C   0  0  0  0  0  0  0  0  0  0  0  0
  -29.8702  -14.5675   21.3885 C   0  0  0  0  0  0  0  0  0  0  0  0
  -25.0456  -34.5642   24.0364 C   0  0  0  0  0  0  0  0  0  0  0  0
  -28.6258  -13.6814   21.4816 C   0  0  0  0  0  0  0  0  0  0  0  0
  -30.2789  -24.0406   18.1418 C   0  0  0  0  0  0  0  0  0  0  0  0
  -29.5306  -16.0443   21.5818 C   0  0  0  0  0  0  0  0  0  0  0  0
  -29.9224  -22.5696   18.0651 C   0  0  0  0  0  0  0  0  0  0  0  0
  -27.2246  -15.6709   20.7993 C   0  0  0  0  0  0  0  0  0  0  0  0
  -25.8209  -34.2522   22.7508 C   0  0  1  0  0  0  0  0  0  0  0  0
  -29.3089  -24.5786   19.1837 C   0  0  1  0  0  0  0  0  0  0  0  0
  -24.1661  -31.2931   21.0365 C   0  0  1  0  0  0  0  0  0  0  0  0
  -27.5071  -14.1810   20.5464 C   0  0  2  0  0  0  0  0  0  0  0  0
  -18.6783  -25.9726   22.2933 C   0  0  0  0  0  0  0  0  0  0  0  0
  -22.8824  -30.1041   25.3143 C   0  0  0  0  0  0  0  0  0  0  0  0
  -21.2733  -28.1920   25.4653 C   0  0  0  0  0  0  0  0  0  0  0  0
  -20.4839  -30.4252   24.6827 C   0  0  0  0  0  0  0  0  0  0  0  0
  -20.6284  -26.5072   19.0703 C   0  0  0  0  0  0  0  0  0  0  0  0
  -29.0349  -26.0631   19.0329 C   0  0  0  0  0  0  0  0  0  1  0  0
  -21.9427  -29.0247   23.1654 C   0  0  1  0  0  0  0  0  0  0  0  0
  -19.5531  -26.7383   21.3129 C   0  0  2  0  0  0  0  0  0  0  0  0
  -21.6682  -29.4351   24.6397 C   0  0  0  0  0  0  0  0  0  0  0  0
  -25.2999  -13.7078   21.5393 N   0  0  0  0  0  0  0  0  0  0  0  0
  -26.2532  -13.3355   20.6682 N   0  0  0  0  0  0  0  0  0  0  0  0
  -28.4995  -22.5316   18.3470 N   0  0  0  0  0  0  0  0  0  0  0  0
  -23.6229  -30.1114   21.7094 N   0  0  0  0  0  0  0  0  0  0  0  0
  -28.4665  -16.4475   20.6598 N   0  0  0  0  0  0  0  0  0  0  0  0
  -26.8034  -11.6836   19.0622 N   0  0  0  0  0  0  0  0  0  0  0  0
  -26.6997  -23.1176   15.4298 N   0  0  0  0  0  0  0  0  0  0  0  0
  -22.7456  -10.3766   20.5531 N   0  0  0  0  0  0  0  0  0  0  0  0
  -27.6227  -17.7755   18.9029 N   0  0  0  0  0  0  0  0  0  0  0  0
  -25.0492  -33.3765   21.8951 N   0  0  0  0  0  0  0  0  0  0  0  0
  -20.8015  -28.4131   22.4930 N   0  0  0  0  0  0  0  0  0  0  0  0
  -25.3622  -23.5776   17.2644 N   0  3  0  0  0  0  0  0  0  0  0  0
  -19.7996  -25.8709   20.1263 N   0  3  0  0  0  0  0  0  0  0  0  0
  -26.9586  -24.0444   19.3606 O   0  0  0  0  0  0  0  0  0  0  0  0
  -24.4604   -9.8550   19.1226 O   0  0  0  0  0  0  0  0  0  0  0  0
  -25.6584  -31.3493   22.8655 O   0  0  0  0  0  0  0  0  0  0  0  0
  -21.5874  -31.1497   22.1731 O   0  0  0  0  0  0  0  0  0  0  0  0
  -21.8565  -26.4162   21.9671 O   0  0  0  0  0  0  0  0  0  0  0  0
  -29.7729  -18.1015   19.7103 O   0  0  0  0  0  0  0  0  0  0  0  0
  -19.6696  -12.9542   24.4170 O   0  0  0  0  0  0  0  0  0  0  0  0
  -28.4392  -26.5503   20.2346 O   0  0  0  0  0  0  0  0  0  1  0  0
  -14.9027  -12.0412   21.8004 F   0  0  0  0  0  0  0  0  0  0  0  0
  -17.6845  -14.8777   24.3735 F   0  0  0  0  0  0  0  0  0  0  0  0
  1  2  1  0  0  0  0
  1  6  2  0  0  0  0
  2  7  2  0  0  0  0
  3 10  2  0  0  0  0
  3 18  1  0  0  0  0
  4 11  1  0  0  0  0
  4 18  2  0  0  0  0
  5  9  2  0  0  0  0
  5 19  1  0  0  0  0
  6 21  1  0  0  0  0
  7 23  1  0  0  0  0
  8 12  2  0  0  0  0
  8 22  1  0  0  0  0
  9 26  1  0  0  0  0
 10 27  1  0  0  0  0
 11 27  2  0  0  0  0
 12 28  1  0  0  0  0
 13 14  2  0  0  0  0
 13 29  1  0  0  0  0
 14 30  1  0  0  0  0
 15 24  1  0  0  0  0
 15 28  2  0  0  0  0
 16 25  1  0  0  0  0
 16 26  2  0  0  0  0
 17 30  2  0  0  0  0
 17 31  1  0  0  0  0
 18 32  1  0  0  0  0
 19 25  2  0  0  0  0
 19 35  1  0  0  0  0
 20 32  1  0  0  0  0
 20 33  2  0  0  0  0
 20 36  1  0  0  0  0
 21 23  2  0  0  0  0
 21 41  1  0  0  0  0
 22 24  2  0  0  0  0
 22 42  1  0  0  0  0
 23 52  1  0  0  0  0
 24 43  1  0  0  0  0
 25 67  1  0  0  0  0
 26 73  1  0  0  0  0
 27 84  1  0  0  0  0
 28 85  1  0  0  0  0
 29 31  2  0  0  0  0
 29 84  1  0  0  0  0
 30 86  1  0  0  0  0
 31 87  1  0  0  0  0
 32 65  2  0  0  0  0
 33 66  1  0  0  0  0
 33 70  1  0  0  0  0
 34 53  1  0  0  0  0
 34 67  1  0  0  0  0
 34 78  2  0  0  0  0
 35 71  1  0  0  0  0
 35 76  2  0  0  0  0
 36 72  1  0  0  0  0
 36 79  2  0  0  0  0
 37 54  1  0  0  0  0
 37 74  1  0  0  0  0
 37 80  2  0  0  0  0
 38 62  1  0  0  0  0
 38 68  1  0  0  0  0
 38 81  2  0  0  0  0
 39 63  1  0  0  0  0
 39 75  1  0  0  0  0
 39 82  2  0  0  0  0
 40 69  1  0  0  0  0
 40 73  1  0  0  0  0
 40 83  2  0  0  0  0
 41 44  1  0  0  0  0
 42 54  1  0  0  0  0
 43 68  1  0  0  0  0
 44 46  1  0  0  0  0
 45 47  1  0  0  0  0
 45 49  1  0  0  0  0
 46 52  1  0  0  0  0
 47 55  1  0  0  0  0
 48 50  1  0  0  0  0
 48 53  1  0  0  0  0
 49 69  1  0  0  0  0
 50 67  1  0  0  0  0
 51 55  1  0  0  0  0
 51 69  1  0  0  0  0
 52 74  1  0  0  0  0
 53 61  1  0  0  0  0
 54 68  1  0  0  0  0
 55 66  1  0  0  0  0
 56 63  1  0  0  0  0
 57 64  1  0  0  0  0
 58 64  1  0  0  0  0
 59 64  1  0  0  0  0
 60 77  1  0  0  0  0
 61 85  1  0  0  0  0
 62 64  1  0  0  0  0
 62 75  1  0  0  0  0
 63 77  1  0  0  0  0
 65 66  1  0  0  0  0
M  CHG  2  76   1  77   1
M  ISO  4  40 100  61 101  73 100  85 101
M  END
> <Batch ID>
0072

> <Smiles>
CNC(C)C(=O)NC(C(=O)N1Cc2cc([101O:1][101CH2:1]C3CCN(c4cc([100NH:0][100C:0](=O)N5CCCC(n6nc(-c7ccc(Oc8ccc(F)cc8F)cc7)c(C(N)=O)c6N)C5)ccc4C(=N)N)C3=O)ccc2CC1C(=O)NC1CCCc2ccccc21)C(C)(C)C

> <Shape>
0.297

> <Color>
0.079

> <Negative vol penalty>
0.000

$$$$

  -OEChem-04042323383D

 91100  0     1  0  0  0  0  0999 V2000
  -26.7328  -36.9023   24.3807 C   0  0  0  0  0  0  0  0  0  0  0  0
  -27.3801  -35.9051   23.6582 C   0  0  0  0  0  0  0  0  0  0  0  0
  -23.9530  -11.9649   24.0906 C   0  0  0  0  0  0  0  0  0  0  0  0
  -24.0746  -14.3053   23.5031 C   0  0  0  0  0  0  0  0  0  0  0  0
  -25.6886  -36.5706   25.2430 C   0  0  0  0  0  0  0  0  0  0  0  0
  -26.9843  -34.5754   23.7984 C   0  0  0  0  0  0  0  0  0  0  0  0
  -26.9494  -30.2662   19.4469 C   0  0  0  0  0  0  0  0  0  0  0  0
  -30.7267  -20.0836   18.9480 C   0  0  0  0  0  0  0  0  0  0  0  0
  -30.4537  -18.7158   18.9445 C   0  0  0  0  0  0  0  0  0  0  0  0
  -23.4160  -12.3045   25.3323 C   0  0  0  0  0  0  0  0  0  0  0  0
  -23.5375  -14.6448   24.7449 C   0  0  0  0  0  0  0  0  0  0  0  0
  -27.8450  -29.2458   19.1302 C   0  0  0  0  0  0  0  0  0  0  0  0
  -20.4133  -13.2355   26.5773 C   0  0  0  0  0  0  0  0  0  0  0  0
  -19.3137  -12.5061   27.0294 C   0  0  0  0  0  0  0  0  0  0  0  0
  -26.5248  -27.6943   20.4222 C   0  0  0  0  0  0  0  0  0  0  0  0
  -28.7746  -20.4698   20.3181 C   0  0  0  0  0  0  0  0  0  0  0  0
  -20.5743  -11.8075   28.9685 C   0  0  0  0  0  0  0  0  0  0  0  0
  -24.2823  -12.9653   23.1760 C   0  0  0  0  0  0  0  0  0  0  0  0
  -24.2417  -11.8174   20.8982 C   0  0  0  0  0  0  0  0  0  0  0  0
  -25.2734  -35.2373   25.3866 C   0  0  0  0  0  0  0  0  0  0  0  0
  -25.8388  -30.0104   20.2640 C   0  0  0  0  0  0  0  0  0  0  0  0
  -25.9344  -34.2254   24.6644 C   0  0  0  0  0  0  0  0  0  0  0  0
  -25.6152  -28.7127   20.7457 C   0  0  0  0  0  0  0  0  0  0  0  0
  -29.8872  -20.9606   19.6349 C   0  0  0  0  0  0  0  0  0  0  0  0
  -29.3410  -18.2249   19.6277 C   0  0  0  0  0  0  0  0  0  0  0  0
  -28.5015  -19.1019   20.3145 C   0  0  0  0  0  0  0  0  0  0  0  0
  -23.2083  -13.6444   25.6595 C   0  0  0  0  0  0  0  0  0  0  0  0
  -27.6344  -27.9602   19.6202 C   0  0  0  0  0  0  0  0  0  0  0  0
  -21.5935  -13.2508   27.3208 C   0  0  0  0  0  0  0  0  0  0  0  0
  -19.3941  -11.7921   28.2250 C   0  0  0  0  0  0  0  0  0  0  0  0
  -21.6739  -12.5369   28.5164 C   0  0  0  0  0  0  0  0  0  0  0  0
  -24.8376  -12.6152   21.8933 C   0  0  0  0  0  0  0  0  0  0  0  0
  -25.1657  -11.7885   19.8824 C   0  0  0  0  0  0  0  0  0  0  0  0
  -31.4836  -22.8666   19.5447 C   0  0  0  0  0  0  0  0  0  0  0  0
  -22.9669  -11.1612   20.8925 C   0  0  0  0  0  0  0  0  0  0  0  0
  -25.3727  -18.5409   22.3350 C   0  0  0  0  0  0  0  0  0  0  0  0
  -26.4540  -19.3828   21.7194 C   0  0  0  0  0  0  0  0  0  0  0  0
  -24.8470  -31.0620   23.0949 C   0  0  0  0  0  0  0  0  0  0  0  0
  -22.2125  -29.3064   22.3881 C   0  0  0  0  0  0  0  0  0  0  0  0
  -20.8402  -26.7161   20.6407 C   0  0  0  0  0  0  0  0  0  0  0  0
  -29.8260  -15.8350   18.9695 C   0  0  0  0  0  0  0  0  0  0  0  0
  -24.1711  -34.9218   26.3664 C   0  0  0  0  0  0  0  0  0  0  0  0
  -24.8675  -31.1161   20.5745 C   0  0  0  0  0  0  0  0  0  0  0  0
  -24.4271  -28.3815   21.6101 C   0  0  0  0  0  0  0  0  0  0  0  0
  -31.6059  -24.3724   19.3541 C   0  0  0  0  0  0  0  0  0  0  0  0
  -23.5649  -33.5339   26.1751 C   0  0  0  0  0  0  0  0  0  0  0  0
  -29.9764  -12.1719   19.4357 C   0  0  0  0  0  0  0  0  0  0  0  0
  -24.6642  -32.4890   26.0125 C   0  0  0  0  0  0  0  0  0  0  0  0
  -28.5568  -11.7319   19.7968 C   0  0  0  0  0  0  0  0  0  0  0  0
  -30.0050  -13.3972   18.5326 C   0  0  0  0  0  0  0  0  0  0  0  0
  -28.0677  -14.2270   19.8851 C   0  0  0  0  0  0  0  0  0  0  0  0
  -29.0653  -23.3003   19.9345 C   0  0  0  0  0  0  0  0  0  0  0  0
  -25.5175  -32.7746   24.7708 C   0  0  1  0  0  0  0  0  0  0  0  0
  -24.0512  -30.8573   21.8370 C   0  0  1  0  0  0  0  0  0  0  0  0
  -27.5071  -12.8320   19.5667 C   0  0  2  0  0  0  0  0  0  0  0  0
  -29.3052  -24.6982   19.3816 C   0  0  1  0  0  0  0  0  0  0  0  0
  -24.5365  -17.7142   21.4051 C   0  0  0  0  0  0  0  0  0  0  0  0
  -18.6719  -25.4998   20.2992 C   0  0  0  0  0  0  0  0  0  0  0  0
  -22.5750  -27.9103   25.0769 C   0  0  0  0  0  0  0  0  0  0  0  0
  -21.0206  -26.1180   24.2771 C   0  0  0  0  0  0  0  0  0  0  0  0
  -20.2055  -28.4650   24.5006 C   0  0  0  0  0  0  0  0  0  0  0  0
  -20.7763  -27.3997   17.7618 C   0  0  0  0  0  0  0  0  0  0  0  0
  -28.2304  -25.6693   19.8492 C   0  0  0  0  0  0  0  0  0  1  0  0
  -21.7875  -27.8763   22.6183 C   0  0  1  0  0  0  0  0  0  0  0  0
  -19.5743  -26.6212   19.8083 C   0  0  2  0  0  0  0  0  0  0  0  0
  -21.4207  -27.5988   24.1035 C   0  0  0  0  0  0  0  0  0  0  0  0
  -26.0466  -13.0608   21.5416 N   0  0  0  0  0  0  0  0  0  0  0  0
  -26.2180  -12.5412   20.3141 N   0  0  0  0  0  0  0  0  0  0  0  0
  -30.1702  -22.3770   19.6380 N   0  0  0  0  0  0  0  0  0  0  0  0
  -23.5094  -29.4979   21.8910 N   0  0  0  0  0  0  0  0  0  0  0  0
  -29.3028  -14.5303   19.1421 N   0  0  0  0  0  0  0  0  0  0  0  0
  -25.1726  -11.1929   18.6709 N   0  0  0  0  0  0  0  0  0  0  0  0
  -21.8586  -11.8589   20.3933 N   0  0  0  0  0  0  0  0  0  0  0  0
  -27.3795  -18.6339   21.0050 N   0  0  0  0  0  0  0  0  0  0  0  0
  -29.0838  -16.8315   19.6085 N   0  0  0  0  0  0  0  0  0  0  0  0
  -24.8210  -32.3585   23.5724 N   0  0  0  0  0  0  0  0  0  0  0  0
  -20.7041  -27.6158   21.6766 N   0  0  0  0  0  0  0  0  0  0  0  0
  -19.9117  -26.3618   18.3801 N   0  3  0  0  0  0  0  0  0  0  0  0
  -32.5153  -22.1928   19.5688 O   0  0  0  0  0  0  0  0  0  0  0  0
  -22.8121   -9.9968   21.3326 O   0  0  0  0  0  0  0  0  0  0  0  0
  -25.2343  -18.5862   23.5481 O   0  0  0  0  0  0  0  0  0  0  0  0
  -26.3731  -20.5876   21.8942 O   0  0  0  0  0  0  0  0  0  0  0  0
  -25.4396  -30.1137   23.5961 O   0  0  0  0  0  0  0  0  0  0  0  0
  -21.4204  -30.2197   22.6334 O   0  0  0  0  0  0  0  0  0  0  0  0
  -21.8478  -26.0552   20.3985 O   0  0  0  0  0  0  0  0  0  0  0  0
  -30.8544  -16.0397   18.3210 O   0  0  0  0  0  0  0  0  0  0  0  0
  -30.5577  -25.1516   19.8787 O   0  0  0  0  0  0  0  0  0  0  0  0
  -22.6841  -13.9761   26.8710 O   0  0  0  0  0  0  0  0  0  0  0  0
  -28.5073  -26.9625   19.3131 O   0  0  0  0  0  0  0  0  0  1  0  0
  -18.3376  -11.0930   28.6598 F   0  0  0  0  0  0  0  0  0  0  0  0
  -22.8046  -12.5489   29.2355 F   0  0  0  0  0  0  0  0  0  0  0  0
  1  2  1  0  0  0  0
  1  5  2  0  0  0  0
  2  6  2  0  0  0  0
  3 10  2  0  0  0  0
  3 18  1  0  0  0  0
  4 11  1  0  0  0  0
  4 18  2  0  0  0  0
  5 20  1  0  0  0  0
  6 22  1  0  0  0  0
  7 12  2  0  0  0  0
  7 21  1  0  0  0  0
  8  9  2  0  0  0  0
  8 24  1  0  0  0  0
  9 25  1  0  0  0  0
 10 27  1  0  0  0  0
 11 27  2  0  0  0  0
 12 28  1  0  0  0  0
 13 14  2  0  0  0  0
 13 29  1  0  0  0  0
 14 30  1  0  0  0  0
 15 23  1  0  0  0  0
 15 28  2  0  0  0  0
 16 24  2  0  0  0  0
 16 26  1  0  0  0  0
 17 30  2  0  0  0  0
 17 31  1  0  0  0  0
 18 32  1  0  0  0  0
 19 32  1  0  0  0  0
 19 33  2  0  0  0  0
 19 35  1  0  0  0  0
 20 22  2  0  0  0  0
 20 42  1  0  0  0  0
 21 23  2  0  0  0  0
 21 43  1  0  0  0  0
 22 53  1  0  0  0  0
 23 44  1  0  0  0  0
 24 69  1  0  0  0  0
 25 26  2  0  0  0  0
 25 75  1  0  0  0  0
 26 74  1  0  0  0  0
 27 88  1  0  0  0  0
 28 89  1  0  0  0  0
 29 31  2  0  0  0  0
 29 88  1  0  0  0  0
 30 90  1  0  0  0  0
 31 91  1  0  0  0  0
 32 67  2  0  0  0  0
 33 68  1  0  0  0  0
 33 72  1  0  0  0  0
 34 45  1  0  0  0  0
 34 69  1  0  0  0  0
 34 79  2  0  0  0  0
 35 73  1  0  0  0  0
 35 80  2  0  0  0  0
 36 37  1  0  0  0  0
 36 57  1  0  0  0  0
 36 81  2  0  0  0  0
 37 74  1  0  0  0  0
 37 82  2  0  0  0  0
 38 54  1  0  0  0  0
 38 76  1  0  0  0  0
 38 83  2  0  0  0  0
 39 64  1  0  0  0  0
 39 70  1  0  0  0  0
 39 84  2  0  0  0  0
 40 65  1  0  0  0  0
 40 77  1  0  0  0  0
 40 85  2  0  0  0  0
 41 71  1  0  0  0  0
 41 75  1  0  0  0  0
 41 86  2  0  0  0  0
 42 46  1  0  0  0  0
 43 54  1  0  0  0  0
 44 70  1  0  0  0  0
 45 87  1  0  0  0  0
 46 48  1  0  0  0  0
 47 49  1  0  0  0  0
 47 50  1  0  0  0  0
 48 53  1  0  0  0  0
 49 55  1  0  0  0  0
 50 71  1  0  0  0  0
 51 55  1  0  0  0  0
 51 71  1  0  0  0  0
 52 56  1  0  0  0  0
 52 69  1  0  0  0  0
 53 76  1  0  0  0  0
 54 70  1  0  0  0  0
 55 68  1  0  0  0  0
 56 63  1  0  0  0  0
 56 87  1  0  0  0  0
 58 65  1  0  0  0  0
 59 66  1  0  0  0  0
 60 66  1  0  0  0  0
 61 66  1  0  0  0  0
 62 78  1  0  0  0  0
 63 89  1  0  0  0  0
 64 66  1  0  0  0  0
 64 77  1  0  0  0  0
 65 78  1  0  0  0  0
 67 68  1  0  0  0  0
M  CHG  1  78   1
M  ISO  4  41 100  63 101  75 100  89 101
M  END
> <Batch ID>
0072

> <Smiles>
CNC(C)C(=O)NC(C(=O)N1Cc2cc([101O:1][101CH2:1]C3CN(c4ccc([100NH:0][100C:0](=O)N5CCCC(n6nc(-c7ccc(Oc8ccc(F)cc8F)cc7)c(C(N)=O)c6N)C5)c(NC(=O)C(C)=O)c4)C(=O)CO3)ccc2CC1C(=O)NC1CCCc2ccccc21)C(C)(C)C

> <Shape>
0.307

> <Color>
0.079

> <Negative vol penalty>
0.000

$$$$

  -OEChem-04042323383D

 87 96  0     1  0  0  0  0  0999 V2000
  -27.7296  -37.9077   22.5767 C   0  0  0  0  0  0  0  0  0  0  0  0
  -28.1983  -36.8972   21.7431 C   0  0  0  0  0  0  0  0  0  0  0  0
  -24.7785   -8.8263   21.6511 C   0  0  0  0  0  0  0  0  0  0  0  0
  -23.1877  -10.6204   21.9475 C   0  0  0  0  0  0  0  0  0  0  0  0
  -26.1941  -19.3879   16.2030 C   0  0  0  0  0  0  0  0  0  0  0  0
  -27.0206  -37.5834   23.7326 C   0  0  0  0  0  0  0  0  0  0  0  0
  -27.9591  -35.5619   22.0656 C   0  0  0  0  0  0  0  0  0  0  0  0
  -26.7463  -29.2067   18.9903 C   0  0  0  0  0  0  0  0  0  0  0  0
  -26.5457  -18.1887   16.8227 C   0  0  0  0  0  0  0  0  0  0  0  0
  -24.0219   -8.0156   22.4972 C   0  0  0  0  0  0  0  0  0  0  0  0
  -22.4310   -9.8096   22.7935 C   0  0  0  0  0  0  0  0  0  0  0  0
  -27.2181  -27.8949   19.0062 C   0  0  0  0  0  0  0  0  0  0  0  0
  -21.2059   -6.1542   22.3018 C   0  0  0  0  0  0  0  0  0  0  0  0
  -20.9719   -4.8389   21.9008 C   0  0  0  0  0  0  0  0  0  0  0  0
  -25.9134  -27.4561   20.9872 C   0  0  0  0  0  0  0  0  0  0  0  0
  -27.9949  -19.3945   18.3338 C   0  0  0  0  0  0  0  0  0  0  0  0
  -22.0831   -4.0349   23.8898 C   0  0  0  0  0  0  0  0  0  0  0  0
  -24.3614  -10.1287   21.3763 C   0  0  0  0  0  0  0  0  0  0  0  0
  -26.7429  -20.5904   16.6487 C   0  0  0  0  0  0  0  0  0  0  0  0
  -25.0190  -11.0880   19.1058 C   0  0  0  0  0  0  0  0  0  0  0  0
  -26.7643  -36.2437   24.0644 C   0  0  0  0  0  0  0  0  0  0  0  0
  -25.8615  -29.6569   19.9807 C   0  0  0  0  0  0  0  0  0  0  0  0
  -27.2472  -35.2194   23.2278 C   0  0  0  0  0  0  0  0  0  0  0  0
  -25.4298  -28.7733   20.9802 C   0  0  0  0  0  0  0  0  0  0  0  0
  -27.6432  -20.5937   17.7140 C   0  0  0  0  0  0  0  0  0  0  0  0
  -27.4461  -18.1920   17.8881 C   0  0  0  0  0  0  0  0  0  0  0  0
  -22.8481   -8.5072   23.0684 C   0  0  0  0  0  0  0  0  0  0  0  0
  -26.8040  -27.0202   20.0064 C   0  0  0  0  0  0  0  0  0  0  0  0
  -21.8785   -6.4099   23.4967 C   0  0  0  0  0  0  0  0  0  0  0  0
  -21.4104   -3.7792   22.6948 C   0  0  0  0  0  0  0  0  0  0  0  0
  -22.3171   -5.3502   24.2907 C   0  0  0  0  0  0  0  0  0  0  0  0
  -25.1429  -10.9669   20.5029 C   0  0  0  0  0  0  0  0  0  0  0  0
  -25.9823  -12.0015   18.7536 C   0  0  0  0  0  0  0  0  0  0  0  0
  -27.5238  -22.9255   18.7027 C   0  0  0  0  0  0  0  0  0  0  0  0
  -26.3547  -21.8254   15.9789 C   0  0  0  0  0  0  0  0  0  0  0  0
  -24.1139  -10.4334   18.2069 C   0  0  0  0  0  0  0  0  0  0  0  0
  -25.9657  -31.9004   22.2300 C   0  0  0  0  0  0  0  0  0  0  0  0
  -22.8657  -31.0530   22.6702 C   0  0  0  0  0  0  0  0  0  0  0  0
  -20.4382  -28.6759   22.3484 C   0  0  0  0  0  0  0  0  0  0  0  0
  -28.6813  -16.8000   19.5860 C   0  0  0  0  0  0  0  0  0  0  0  0
  -26.0344  -35.9408   25.3490 C   0  0  0  0  0  0  0  0  0  0  0  0
  -25.3408  -31.0673   19.9341 C   0  0  0  0  0  0  0  0  0  0  0  0
  -24.4652  -29.2015   22.0547 C   0  0  0  0  0  0  0  0  0  0  0  0
  -25.4994  -34.5131   25.4235 C   0  0  0  0  0  0  0  0  0  0  0  0
  -29.7935  -13.9711   21.4400 C   0  0  0  0  0  0  0  0  0  0  0  0
  -26.5702  -33.5183   24.9867 C   0  0  0  0  0  0  0  0  0  0  0  0
  -28.6726  -12.9473   21.2466 C   0  0  0  0  0  0  0  0  0  0  0  0
  -29.8086  -23.5177   18.3969 C   0  0  0  0  0  0  0  0  0  0  0  0
  -29.2487  -15.3937   21.5546 C   0  0  0  0  0  0  0  0  0  0  0  0
  -29.6531  -22.0188   18.2360 C   0  0  0  0  0  0  0  0  0  0  0  0
  -27.2377  -14.7837   20.2689 C   0  0  0  0  0  0  0  0  0  0  0  0
  -26.9865  -33.7598   23.5307 C   0  0  1  0  0  0  0  0  0  0  0  0
  -28.5724  -23.9111   19.1925 C   0  0  1  0  0  0  0  0  0  0  0  0
  -24.8443  -31.5659   21.2876 C   0  0  1  0  0  0  0  0  0  0  0  0
  -27.7422  -13.3433   20.0833 C   0  0  2  0  0  0  0  0  0  0  0  0
  -24.9001  -22.1899   15.9921 C   0  0  0  0  0  0  0  0  0  0  0  0
  -18.0112  -28.2606   22.8328 C   0  0  0  0  0  0  0  0  0  0  0  0
  -23.5273  -30.6424   25.6204 C   0  0  0  0  0  0  0  0  0  0  0  0
  -21.3940  -29.3518   25.8475 C   0  0  0  0  0  0  0  0  0  0  0  0
  -21.3305  -31.7571   25.1893 C   0  0  0  0  0  0  0  0  0  0  0  0
  -19.8114  -28.2959   19.4811 C   0  0  0  0  0  0  0  0  0  0  0  0
  -28.1678  -25.3590   18.9884 C   0  0  0  0  0  0  0  0  0  1  0  0
  -22.1459  -30.0377   23.5247 C   0  0  1  0  0  0  0  0  0  0  0  0
  -19.0219  -28.7494   21.8070 C   0  0  2  0  0  0  0  0  0  0  0  0
  -22.1191  -30.4394   25.0265 C   0  0  0  0  0  0  0  0  0  0  0  0
  -26.1089  -11.7414   21.0039 N   0  0  0  0  0  0  0  0  0  0  0  0
  -26.6008  -12.3579   19.9157 N   0  0  0  0  0  0  0  0  0  0  0  0
  -28.2178  -21.8117   18.1865 N   0  0  0  0  0  0  0  0  0  0  0  0
  -23.9894  -30.5922   21.9698 N   0  0  0  0  0  0  0  0  0  0  0  0
  -28.3795  -15.6999   20.4163 N   0  0  0  0  0  0  0  0  0  0  0  0
  -26.3521  -12.5266   17.5662 N   0  0  0  0  0  0  0  0  0  0  0  0
  -23.1880   -9.5239   18.7358 N   0  0  0  0  0  0  0  0  0  0  0  0
  -27.8030  -16.9734   18.5168 N   0  0  0  0  0  0  0  0  0  0  0  0
  -25.9925  -33.2242   22.6254 N   0  0  0  0  0  0  0  0  0  0  0  0
  -20.8255  -29.8652   22.9287 N   0  0  0  0  0  0  0  0  0  0  0  0
  -18.8915  -27.9106   20.5821 N   0  3  0  0  0  0  0  0  0  0  0  0
  -26.3218  -23.1095   18.8280 O   0  0  0  0  0  0  0  0  0  0  0  0
  -27.1311  -22.5860   15.4011 O   0  0  0  0  0  0  0  0  0  0  0  0
  -24.1369  -10.6363   16.9693 O   0  0  0  0  0  0  0  0  0  0  0  0
  -26.7480  -31.0222   22.5742 O   0  0  0  0  0  0  0  0  0  0  0  0
  -22.4421  -32.2105   22.6204 O   0  0  0  0  0  0  0  0  0  0  0  0
  -21.1303  -27.6634   22.2682 O   0  0  0  0  0  0  0  0  0  0  0  0
  -29.6633  -17.5180   19.7914 O   0  0  0  0  0  0  0  0  0  0  0  0
  -22.1094   -7.7163   23.8938 O   0  0  0  0  0  0  0  0  0  0  0  0
  -27.2635  -25.7394   20.0247 O   0  0  0  0  0  0  0  0  0  1  0  0
  -21.1843   -2.5162   22.3104 F   0  0  0  0  0  0  0  0  0  0  0  0
  -22.9628   -5.5896   25.4403 F   0  0  0  0  0  0  0  0  0  0  0  0
  1  2  1  0  0  0  0
  1  6  2  0  0  0  0
  2  7  2  0  0  0  0
  3 10  2  0  0  0  0
  3 18  1  0  0  0  0
  4 11  1  0  0  0  0
  4 18  2  0  0  0  0
  5  9  2  0  0  0  0
  5 19  1  0  0  0  0
  6 21  1  0  0  0  0
  7 23  1  0  0  0  0
  8 12  2  0  0  0  0
  8 22  1  0  0  0  0
  9 26  1  0  0  0  0
 10 27  1  0  0  0  0
 11 27  2  0  0  0  0
 12 28  1  0  0  0  0
 13 14  2  0  0  0  0
 13 29  1  0  0  0  0
 14 30  1  0  0  0  0
 15 24  1  0  0  0  0
 15 28  2  0  0  0  0
 16 25  1  0  0  0  0
 16 26  2  0  0  0  0
 17 30  2  0  0  0  0
 17 31  1  0  0  0  0
 18 32  1  0  0  0  0
 19 25  2  0  0  0  0
 19 35  1  0  0  0  0
 20 32  1  0  0  0  0
 20 33  2  0  0  0  0
 20 36  1  0  0  0  0
 21 23  2  0  0  0  0
 21 41  1  0  0  0  0
 22 24  2  0  0  0  0
 22 42  1  0  0  0  0
 23 52  1  0  0  0  0
 24 43  1  0  0  0  0
 25 68  1  0  0  0  0
 26 73  1  0  0  0  0
 27 84  1  0  0  0  0
 28 85  1  0  0  0  0
 29 31  2  0  0  0  0
 29 84  1  0  0  0  0
 30 86  1  0  0  0  0
 31 87  1  0  0  0  0
 32 66  2  0  0  0  0
 33 67  1  0  0  0  0
 33 71  1  0  0  0  0
 34 53  1  0  0  0  0
 34 68  1  0  0  0  0
 34 77  2  0  0  0  0
 35 56  1  0  0  0  0
 35 78  2  0  0  0  0
 36 72  1  0  0  0  0
 36 79  2  0  0  0  0
 37 54  1  0  0  0  0
 37 74  1  0  0  0  0
 37 80  2  0  0  0  0
 38 63  1  0  0  0  0
 38 69  1  0  0  0  0
 38 81  2  0  0  0  0
 39 64  1  0  0  0  0
 39 75  1  0  0  0  0
 39 82  2  0  0  0  0
 40 70  1  0  0  0  0
 40 73  1  0  0  0  0
 40 83  2  0  0  0  0
 41 44  1  0  0  0  0
 42 54  1  0  0  0  0
 43 69  1  0  0  0  0
 44 46  1  0  0  0  0
 45 47  1  0  0  0  0
 45 49  1  0  0  0  0
 46 52  1  0  0  0  0
 47 55  1  0  0  0  0
 48 50  1  0  0  0  0
 48 53  1  0  0  0  0
 49 70  1  0  0  0  0
 50 68  1  0  0  0  0
 51 55  1  0  0  0  0
 51 70  1  0  0  0  0
 52 74  1  0  0  0  0
 53 62  1  0  0  0  0
 54 69  1  0  0  0  0
 55 67  1  0  0  0  0
 57 64  1  0  0  0  0
 58 65  1  0  0  0  0
 59 65  1  0  0  0  0
 60 65  1  0  0  0  0
 61 76  1  0  0  0  0
 62 85  1  0  0  0  0
 63 65  1  0  0  0  0
 63 75  1  0  0  0  0
 64 76  1  0  0  0  0
 66 67  1  0  0  0  0
M  CHG  1  76   1
M  ISO  4  40 100  62 101  73 100  85 101
M  END
> <Batch ID>
0072

> <Smiles>
CNC(C)C(=O)NC(C(=O)N1Cc2cc([101O:1][101CH2:1]C3CCN(c4cc([100NH:0][100C:0](=O)N5CCCC(n6nc(-c7ccc(Oc8ccc(F)cc8F)cc7)c(C(N)=O)c6N)C5)ccc4C(C)=O)C3=O)ccc2CC1C(=O)NC1CCCc2ccccc21)C(C)(C)C

> <Shape>
0.318

> <Color>
0.097

> <Negative vol penalty>
0.000

$$$$

  -OEChem-04042323383D

 87 96  0     1  0  0  0  0  0999 V2000
  -16.5812  -28.1693   23.4258 C   0  0  0  0  0  0  0  0  0  0  0  0
  -17.2098  -28.2554   22.1877 C   0  0  0  0  0  0  0  0  0  0  0  0
  -23.4813  -18.2229   21.2250 C   0  0  0  0  0  0  0  0  0  0  0  0
  -25.2831  -16.6320   21.4688 C   0  0  0  0  0  0  0  0  0  0  0  0
  -17.1053  -28.8538   24.5215 C   0  0  0  0  0  0  0  0  0  0  0  0
  -18.3624  -29.0270   22.0444 C   0  0  0  0  0  0  0  0  0  0  0  0
  -25.4400  -27.0071   19.4264 C   0  0  0  0  0  0  0  0  0  0  0  0
  -34.5130  -22.6943   19.9671 C   0  0  0  0  0  0  0  0  0  0  0  0
  -33.5090  -23.3188   19.2271 C   0  0  0  0  0  0  0  0  0  0  0  0
  -22.5983  -17.1800   20.9453 C   0  0  0  0  0  0  0  0  0  0  0  0
  -24.4001  -15.5891   21.1891 C   0  0  0  0  0  0  0  0  0  0  0  0
  -26.7754  -26.7323   19.1310 C   0  0  0  0  0  0  0  0  0  0  0  0
  -22.9545  -14.2127   18.4602 C   0  0  0  0  0  0  0  0  0  0  0  0
  -23.3761  -13.2288   17.5660 C   0  0  0  0  0  0  0  0  0  0  0  0
  -32.1074  -23.3952   21.1935 C   0  0  0  0  0  0  0  0  0  0  0  0
  -27.4764  -28.5652   20.5442 C   0  0  0  0  0  0  0  0  0  0  0  0
  -23.1194  -11.5538   19.2881 C   0  0  0  0  0  0  0  0  0  0  0  0
  -24.8238  -17.9489   21.4867 C   0  0  0  0  0  0  0  0  0  0  0  0
  -33.1114  -22.7706   21.9335 C   0  0  0  0  0  0  0  0  0  0  0  0
  -26.0583  -20.1137   20.9415 C   0  0  0  0  0  0  0  0  0  0  0  0
  -18.2704  -29.6264   24.3938 C   0  0  0  0  0  0  0  0  0  0  0  0
  -25.1180  -28.0536   20.2950 C   0  0  0  0  0  0  0  0  0  0  0  0
  -18.9019  -29.7236   23.1391 C   0  0  0  0  0  0  0  0  0  0  0  0
  -26.1411  -28.8373   20.8536 C   0  0  0  0  0  0  0  0  0  0  0  0
  -34.3142  -22.4201   21.3202 C   0  0  0  0  0  0  0  0  0  0  0  0
  -32.3062  -23.6693   19.8404 C   0  0  0  0  0  0  0  0  0  0  0  0
  -23.0576  -15.8631   20.9274 C   0  0  0  0  0  0  0  0  0  0  0  0
  -27.7910  -27.5096   19.6883 C   0  0  0  0  0  0  0  0  0  0  0  0
  -22.6154  -13.8673   19.7684 C   0  0  0  0  0  0  0  0  0  0  0  0
  -23.4585  -11.8993   17.9799 C   0  0  0  0  0  0  0  0  0  0  0  0
  -22.6978  -12.5378   20.1823 C   0  0  0  0  0  0  0  0  0  0  0  0
  -25.7365  -19.0258   21.7751 C   0  0  0  0  0  0  0  0  0  0  0  0
  -26.9633  -20.8476   21.6687 C   0  0  0  0  0  0  0  0  0  0  0  0
  -29.2514  -25.6042   17.6404 C   0  0  0  0  0  0  0  0  0  0  0  0
  -32.8738  -22.4898   23.3727 C   0  0  0  0  0  0  0  0  0  0  0  0
  -25.5818  -20.4324   19.6273 C   0  0  0  0  0  0  0  0  0  0  0  0
  -22.4228  -29.9857   22.0497 C   0  0  0  0  0  0  0  0  0  0  0  0
  -24.7177  -29.6355   24.0550 C   0  0  0  0  0  0  0  0  0  0  0  0
  -27.2829  -28.6707   26.0864 C   0  0  0  0  0  0  0  0  0  0  0  0
  -31.4217  -21.2353   24.9352 C   0  0  0  0  0  0  0  0  0  0  0  0
  -18.7728  -30.3865   25.5957 C   0  0  0  0  0  0  0  0  0  0  0  0
  -23.6906  -28.4244   20.5931 C   0  0  0  0  0  0  0  0  0  0  0  0
  -25.7461  -29.9746   21.7555 C   0  0  0  0  0  0  0  0  0  0  0  0
  -29.7517  -24.2576   17.1776 C   0  0  0  0  0  0  0  0  0  0  0  0
  -20.2094  -30.8808   25.4469 C   0  0  0  0  0  0  0  0  0  0  0  0
  -28.3540  -20.4900   26.5259 C   0  0  0  0  0  0  0  0  0  0  0  0
  -20.4106  -31.5341   24.0833 C   0  0  0  0  0  0  0  0  0  0  0  0
  -27.4207  -20.1391   25.3640 C   0  0  0  0  0  0  0  0  0  0  0  0
  -31.1766  -24.0135   17.6617 C   0  0  0  0  0  0  0  0  0  0  0  0
  -29.7727  -19.9738   26.2899 C   0  0  0  0  0  0  0  0  0  0  0  0
  -30.8596  -25.6250   19.5402 C   0  0  0  0  0  0  0  0  0  0  0  0
  -29.4405  -20.0115   23.8514 C   0  0  0  0  0  0  0  0  0  0  0  0
  -20.1680  -30.5305   22.9495 C   0  0  1  0  0  0  0  0  0  0  0  0
  -29.4172  -25.8841   19.1213 C   0  0  1  0  0  0  0  0  0  1  0  0
  -23.4858  -28.9267   22.0335 C   0  0  1  0  0  0  0  0  0  0  0  0
  -28.0172  -20.5704   24.0092 C   0  0  1  0  0  0  0  0  0  0  0  0
  -35.4067  -21.7506   22.0884 C   0  0  0  0  0  0  0  0  0  0  0  0
  -28.1134  -28.8804   28.4451 C   0  0  0  0  0  0  0  0  0  0  0  0
  -25.6302  -32.4879   23.4762 C   0  0  0  0  0  0  0  0  0  0  0  0
  -27.2166  -32.2960   25.4036 C   0  0  0  0  0  0  0  0  0  0  0  0
  -24.7586  -32.1206   25.7914 C   0  0  0  0  0  0  0  0  0  0  0  0
  -27.1475  -25.7458   26.5171 C   0  0  0  0  0  0  0  0  0  0  0  0
  -25.9731  -30.2165   24.6548 C   0  0  1  0  0  0  0  0  0  0  0  0
  -27.2923  -28.0494   27.4714 C   0  0  2  0  0  0  0  0  0  0  0  0
  -25.8957  -31.7616   24.8100 C   0  0  0  0  0  0  0  0  0  0  0  0
  -26.3845  -19.0614   22.9425 N   0  0  0  0  0  0  0  0  0  0  0  0
  -27.1227  -20.1805   22.8476 N   0  0  0  0  0  0  0  0  0  0  0  0
  -31.2993  -24.2954   19.0969 N   0  0  2  0  0  0  0  0  0  0  0  0
  -24.6659  -29.5478   22.6586 N   0  0  0  0  0  0  0  0  0  0  0  0
  -30.2682  -20.4337   24.9914 N   0  0  0  0  0  0  0  0  0  0  0  0
  -27.6305  -21.9919   21.4084 N   0  0  0  0  0  0  0  0  0  0  0  0
  -26.2828  -19.9304   18.5224 N   0  0  0  0  0  0  0  0  0  0  0  0
  -31.7892  -21.6582   23.6530 N   0  0  0  0  0  0  0  0  0  0  0  0
  -21.3094  -29.6538   22.7978 N   0  0  0  0  0  0  0  0  0  0  0  0
  -26.1967  -29.5008   25.9063 N   0  0  0  0  0  0  0  0  0  0  0  0
  -27.8715  -26.6773   27.4198 N   0  3  0  0  0  0  0  0  0  0  0  0
  -28.6801  -26.3791   16.8763 O   0  0  0  0  0  0  0  0  0  0  0  0
  -33.6432  -22.9567   24.2081 O   0  0  0  0  0  0  0  0  0  0  0  0
  -24.5739  -21.1549   19.4384 O   0  0  0  0  0  0  0  0  0  0  0  0
  -22.5993  -31.0284   21.4307 O   0  0  0  0  0  0  0  0  0  0  0  0
  -23.8040  -29.2737   24.8017 O   0  0  0  0  0  0  0  0  0  0  0  0
  -28.1541  -28.4452   25.2493 O   0  0  0  0  0  0  0  0  0  0  0  0
  -32.0487  -21.5769   25.9430 O   0  0  0  0  0  0  0  0  0  0  0  0
  -22.1962  -14.8452   20.6548 O   0  0  0  0  0  0  0  0  0  0  0  0
  -29.0928  -27.2330   19.3992 O   0  0  0  0  0  0  0  0  0  1  0  0
  -23.8620  -10.9542   17.1207 F   0  0  0  0  0  0  0  0  0  0  0  0
  -22.3721  -12.1996   21.4375 F   0  0  0  0  0  0  0  0  0  0  0  0
  1  2  1  0  0  0  0
  1  5  2  0  0  0  0
  2  6  2  0  0  0  0
  3 10  2  0  0  0  0
  3 18  1  0  0  0  0
  4 11  1  0  0  0  0
  4 18  2  0  0  0  0
  5 21  1  0  0  0  0
  6 23  1  0  0  0  0
  7 12  2  0  0  0  0
  7 22  1  0  0  0  0
  8  9  2  0  0  0  0
  8 25  1  0  0  0  0
  9 26  1  0  0  0  0
 10 27  1  0  0  0  0
 11 27  2  0  0  0  0
 12 28  1  0  0  0  0
 13 14  2  0  0  0  0
 13 29  1  0  0  0  0
 14 30  1  0  0  0  0
 15 19  1  0  0  0  0
 15 26  2  0  0  0  0
 16 24  1  0  0  0  0
 16 28  2  0  0  0  0
 17 30  2  0  0  0  0
 17 31  1  0  0  0  0
 18 32  1  0  0  0  0
 19 25  2  0  0  0  0
 19 35  1  0  0  0  0
 20 32  1  0  0  0  0
 20 33  2  0  0  0  0
 20 36  1  0  0  0  0
 21 23  2  0  0  0  0
 21 41  1  0  0  0  0
 22 24  2  0  0  0  0
 22 42  1  0  0  0  0
 23 53  1  0  0  0  0
 24 43  1  0  0  0  0
 25 57  1  0  0  0  0
 26 68  1  0  0  0  0
 27 84  1  0  0  0  0
 28 85  1  0  0  0  0
 29 31  2  0  0  0  0
 29 84  1  0  0  0  0
 30 86  1  0  0  0  0
 31 87  1  0  0  0  0
 32 66  2  0  0  0  0
 33 67  1  0  0  0  0
 33 71  1  0  0  0  0
 34 44  1  0  0  0  0
 34 54  1  0  0  0  0
 34 77  2  0  0  0  0
 35 73  1  0  0  0  0
 35 78  2  0  0  0  0
 36 72  1  0  0  0  0
 36 79  2  0  0  0  0
 37 55  1  0  0  0  0
 37 74  1  0  0  0  0
 37 80  2  0  0  0  0
 38 63  1  0  0  0  0
 38 69  1  0  0  0  0
 38 81  2  0  0  0  0
 39 64  1  0  0  0  0
 39 75  1  0  0  0  0
 39 82  2  0  0  0  0
 40 70  1  0  0  0  0
 40 73  1  0  0  0  0
 40 83  2  0  0  0  0
 41 45  1  0  0  0  0
 42 55  1  0  0  0  0
 43 69  1  0  0  0  0
 44 49  1  0  0  0  0
 45 47  1  0  0  0  0
 46 48  1  0  0  0  0
 46 50  1  0  0  0  0
 47 53  1  0  0  0  0
 48 56  1  0  0  0  0
 49 68  1  0  0  0  0
 50 70  1  0  0  0  0
 51 54  1  0  0  0  0
 51 68  1  0  0  0  0
 52 56  1  0  0  0  0
 52 70  1  0  0  0  0
 53 74  1  0  0  0  0
 54 85  1  0  0  0  0
 55 69  1  0  0  0  0
 56 67  1  0  0  0  0
 58 64  1  0  0  0  0
 59 65  1  0  0  0  0
 60 65  1  0  0  0  0
 61 65  1  0  0  0  0
 62 76  1  0  0  0  0
 63 65  1  0  0  0  0
 63 75  1  0  0  0  0
 64 76  1  0  0  0  0
 66 67  1  0  0  0  0
M  CHG  1  76   1
M  ISO  4  40 100  54 101  73 100  85 101
M  END
> <Batch ID>
0072

> <Smiles>
CNC(C)C(=O)NC(C(=O)N1Cc2cc([101O:1][101CH:1]3CN(c4ccc(C)c(C(=O)[100NH:0][100C:0](=O)N5CCCC(n6nc(-c7ccc(Oc8ccc(F)cc8F)cc7)c(C(N)=O)c6N)C5)c4)CCC3=O)ccc2CC1C(=O)NC1CCCc2ccccc21)C(C)(C)C

> <Shape>
0.213

> <Color>
0.076

> <Negative vol penalty>
0.000

$$$$

  -OEChem-04042323383D

 89 98  0     1  0  0  0  0  0999 V2000
  -25.9672  -36.2069   18.1343 C   0  0  0  0  0  0  0  0  0  0  0  0
  -26.4057  -35.0538   17.4912 C   0  0  0  0  0  0  0  0  0  0  0  0
  -23.0430   -9.8773   20.0151 C   0  0  0  0  0  0  0  0  0  0  0  0
  -23.7832   -9.9653   22.3132 C   0  0  0  0  0  0  0  0  0  0  0  0
  -25.9185  -36.2513   19.5270 C   0  0  0  0  0  0  0  0  0  0  0  0
  -26.7968  -33.9448   18.2404 C   0  0  0  0  0  0  0  0  0  0  0  0
  -26.8317  -26.7849   18.0142 C   0  0  0  0  0  0  0  0  0  0  0  0
  -22.2741   -8.7505   20.3058 C   0  0  0  0  0  0  0  0  0  0  0  0
  -23.0142   -8.8384   22.6040 C   0  0  0  0  0  0  0  0  0  0  0  0
  -27.7043  -25.7070   18.1574 C   0  0  0  0  0  0  0  0  0  0  0  0
  -19.7657   -8.1301   23.2088 C   0  0  0  0  0  0  0  0  0  0  0  0
  -18.9981   -8.1541   24.3732 C   0  0  0  0  0  0  0  0  0  0  0  0
  -27.5031  -25.8706   20.5557 C   0  0  0  0  0  0  0  0  0  0  0  0
  -30.3741  -19.1886   22.3935 C   0  0  0  0  0  0  0  0  0  0  0  0
  -30.9227  -18.9977   20.0483 C   0  0  0  0  0  0  0  0  0  0  0  0
  -20.1941   -6.2251   25.2013 C   0  0  0  0  0  0  0  0  0  0  0  0
  -23.7976  -10.4847   21.0187 C   0  0  0  0  0  0  0  0  0  0  0  0
  -24.1910  -12.9954   20.7969 C   0  0  0  0  0  0  0  0  0  0  0  0
  -26.3001  -35.1388   20.2935 C   0  0  0  0  0  0  0  0  0  0  0  0
  -26.2959  -27.4218   19.1428 C   0  0  0  0  0  0  0  0  0  0  0  0
  -26.7545  -33.9748   19.6447 C   0  0  0  0  0  0  0  0  0  0  0  0
  -26.6219  -26.9547   20.4241 C   0  0  0  0  0  0  0  0  0  0  0  0
  -30.1740  -17.8097   22.4589 C   0  0  0  0  0  0  0  0  0  0  0  0
  -30.7484  -19.7826   21.1882 C   0  0  0  0  0  0  0  0  0  0  0  0
  -30.3483  -17.0248   21.3191 C   0  0  0  0  0  0  0  0  0  0  0  0
  -22.2596   -8.2310   21.6003 C   0  0  0  0  0  0  0  0  0  0  0  0
  -28.0424  -25.2515   19.4284 C   0  0  0  0  0  0  0  0  0  0  0  0
  -20.7474   -7.1536   23.0406 C   0  0  0  0  0  0  0  0  0  0  0  0
  -19.2123   -7.2016   25.3695 C   0  0  0  0  0  0  0  0  0  0  0  0
  -30.7227  -17.6188   20.1138 C   0  0  0  0  0  0  0  0  0  0  0  0
  -20.9616   -6.2011   24.0369 C   0  0  0  0  0  0  0  0  0  0  0  0
  -24.5926  -11.6484   20.7189 C   0  0  0  0  0  0  0  0  0  0  0  0
  -25.3010  -13.7074   20.4130 C   0  0  0  0  0  0  0  0  0  0  0  0
  -30.7493  -22.0192   19.9977 C   0  0  0  0  0  0  0  0  0  0  0  0
  -22.9276  -13.5532   21.1820 C   0  0  0  0  0  0  0  0  0  0  0  0
  -31.7507  -24.2447   19.3738 C   0  0  0  0  0  0  0  0  0  0  0  0
  -26.4520  -30.3596   20.3462 C   0  0  0  0  0  0  0  0  0  0  0  0
  -24.2733  -29.1944   22.4480 C   0  0  0  0  0  0  0  0  0  0  0  0
  -22.9180  -26.4791   24.0092 C   0  0  0  0  0  0  0  0  0  0  0  0
  -30.7854  -14.6517   20.5954 C   0  0  0  0  0  0  0  0  0  0  0  0
  -26.2752  -35.2505   21.7974 C   0  0  0  0  0  0  0  0  0  0  0  0
  -25.3351  -28.5662   18.9708 C   0  0  0  0  0  0  0  0  0  0  0  0
  -26.0579  -27.5909   21.6673 C   0  0  0  0  0  0  0  0  0  0  0  0
  -26.3517  -33.9024   22.5096 C   0  0  0  0  0  0  0  0  0  0  0  0
  -29.6432  -12.1634   18.3193 C   0  0  0  0  0  0  0  0  0  0  0  0
  -27.4503  -33.0379   21.8995 C   0  0  0  0  0  0  0  0  0  0  0  0
  -28.1943  -11.9184   18.7471 C   0  0  0  0  0  0  0  0  0  0  0  0
  -31.8094  -23.2962   21.7190 C   0  0  0  0  0  0  0  0  0  0  0  0
  -30.5523  -12.4242   19.5189 C   0  0  0  0  0  0  0  0  0  0  0  0
  -31.3388  -21.9691   22.2843 C   0  0  0  0  0  0  0  0  0  0  0  0
  -28.6485  -13.2431   20.8509 C   0  0  0  0  0  0  0  0  0  0  0  0
  -27.1636  -32.7426   20.4222 C   0  0  1  0  0  0  0  0  0  0  0  0
  -25.2525  -29.4668   20.1993 C   0  0  1  0  0  0  0  0  0  0  0  0
  -27.6826  -13.0399   19.6722 C   0  0  2  0  0  0  0  0  0  0  0  0
  -30.9917  -23.4587   20.4386 C   0  0  2  0  0  0  0  0  0  0  0  0
  -29.7722  -17.2007   23.7632 C   0  0  0  0  0  0  0  0  0  0  0  0
  -32.0580  -25.6843   19.6858 C   0  0  0  0  0  0  0  0  0  0  0  0
  -21.1781  -25.8454   25.7028 C   0  0  0  0  0  0  0  0  0  0  0  0
  -26.1114  -30.1473   24.6893 C   0  0  0  0  0  0  0  0  0  0  0  0
  -24.8331  -28.6818   26.2662 C   0  0  0  0  0  0  0  0  0  0  0  0
  -23.6770  -30.5548   25.0923 C   0  0  0  0  0  0  0  0  0  0  0  0
  -21.4208  -24.8591   22.0361 C   0  0  0  0  0  0  0  0  0  0  0  0
  -29.7040  -24.1749   20.7459 C   0  0  0  0  0  0  0  0  0  1  0  0
  -24.3444  -28.4964   23.7847 C   0  0  1  0  0  0  0  0  0  0  0  0
  -21.4759  -26.0579   24.2267 C   0  0  2  0  0  0  0  0  0  0  0  0
  -24.7538  -29.4591   24.9349 C   0  0  0  0  0  0  0  0  0  0  0  0
  -25.8588  -11.5103   20.3169 N   0  0  0  0  0  0  0  0  0  0  0  0
  -26.2625  -12.7797   20.1387 N   0  0  0  0  0  0  0  0  0  0  0  0
  -30.9518  -21.1941   21.1218 N   0  0  0  0  0  0  0  0  0  0  0  0
  -25.1277  -28.7106   21.4471 N   0  0  0  0  0  0  0  0  0  0  0  0
  -30.0066  -13.5016   20.3473 N   0  0  0  0  0  0  0  0  0  0  0  0
  -25.5387  -15.0303   20.2866 N   0  0  0  0  0  0  0  0  0  0  0  0
  -21.8948  -12.6790   21.5473 N   0  0  0  0  0  0  0  0  0  0  0  0
  -30.1497  -15.6227   21.3685 N   0  0  0  0  0  0  0  0  0  0  0  0
  -26.1581  -31.7090   20.2993 N   0  0  0  0  0  0  0  0  0  0  0  0
  -23.0502  -27.8512   23.9776 N   0  0  0  0  0  0  0  0  0  0  0  0
  -21.1926  -24.7867   23.5023 N   0  3  0  0  0  0  0  0  0  0  0  0
  -30.3804  -21.7215   18.8699 O   0  0  0  0  0  0  0  0  0  0  0  0
  -22.7155  -14.7895   21.1858 O   0  0  0  0  0  0  0  0  0  0  0  0
  -32.0963  -23.7265   18.3131 O   0  0  0  0  0  0  0  0  0  0  0  0
  -27.5619  -29.8612   20.4928 O   0  0  0  0  0  0  0  0  0  0  0  0
  -23.4835  -30.1296   22.2954 O   0  0  0  0  0  0  0  0  0  0  0  0
  -23.8361  -25.6716   23.8838 O   0  0  0  0  0  0  0  0  0  0  0  0
  -31.9216  -14.7785   20.1318 O   0  0  0  0  0  0  0  0  0  0  0  0
  -21.5092   -7.1316   21.8844 O   0  0  0  0  0  0  0  0  0  0  0  0
  -28.8944  -24.2001   19.5710 O   0  0  0  0  0  0  0  0  0  1  0  0
  -18.4761   -7.2257   26.4882 F   0  0  0  0  0  0  0  0  0  0  0  0
  -30.8931  -16.8749   19.0115 F   0  0  0  0  0  0  0  0  0  0  0  0
  -21.9042   -5.2613   23.8815 F   0  0  0  0  0  0  0  0  0  0  0  0
  1  2  1  0  0  0  0
  1  5  2  0  0  0  0
  2  6  2  0  0  0  0
  3  8  2  0  0  0  0
  3 17  1  0  0  0  0
  4  9  1  0  0  0  0
  4 17  2  0  0  0  0
  5 19  1  0  0  0  0
  6 21  1  0  0  0  0
  7 10  2  0  0  0  0
  7 20  1  0  0  0  0
  8 26  1  0  0  0  0
  9 26  2  0  0  0  0
 10 27  1  0  0  0  0
 11 12  2  0  0  0  0
 11 28  1  0  0  0  0
 12 29  1  0  0  0  0
 13 22  1  0  0  0  0
 13 27  2  0  0  0  0
 14 23  2  0  0  0  0
 14 24  1  0  0  0  0
 15 24  2  0  0  0  0
 15 30  1  0  0  0  0
 16 29  2  0  0  0  0
 16 31  1  0  0  0  0
 17 32  1  0  0  0  0
 18 32  1  0  0  0  0
 18 33  2  0  0  0  0
 18 35  1  0  0  0  0
 19 21  2  0  0  0  0
 19 41  1  0  0  0  0
 20 22  2  0  0  0  0
 20 42  1  0  0  0  0
 21 52  1  0  0  0  0
 22 43  1  0  0  0  0
 23 25  1  0  0  0  0
 23 56  1  0  0  0  0
 24 69  1  0  0  0  0
 25 30  2  0  0  0  0
 25 74  1  0  0  0  0
 26 85  1  0  0  0  0
 27 86  1  0  0  0  0
 28 31  2  0  0  0  0
 28 85  1  0  0  0  0
 29 87  1  0  0  0  0
 30 88  1  0  0  0  0
 31 89  1  0  0  0  0
 32 67  2  0  0  0  0
 33 68  1  0  0  0  0
 33 72  1  0  0  0  0
 34 55  1  0  0  0  0
 34 69  1  0  0  0  0
 34 78  2  0  0  0  0
 35 73  1  0  0  0  0
 35 79  2  0  0  0  0
 36 55  1  0  0  0  0
 36 57  1  0  0  0  0
 36 80  2  0  0  0  0
 37 53  1  0  0  0  0
 37 75  1  0  0  0  0
 37 81  2  0  0  0  0
 38 64  1  0  0  0  0
 38 70  1  0  0  0  0
 38 82  2  0  0  0  0
 39 65  1  0  0  0  0
 39 76  1  0  0  0  0
 39 83  2  0  0  0  0
 40 71  1  0  0  0  0
 40 74  1  0  0  0  0
 40 84  2  0  0  0  0
 41 44  1  0  0  0  0
 42 53  1  0  0  0  0
 43 70  1  0  0  0  0
 44 46  1  0  0  0  0
 45 47  1  0  0  0  0
 45 49  1  0  0  0  0
 46 52  1  0  0  0  0
 47 54  1  0  0  0  0
 48 50  1  0  0  0  0
 48 55  1  0  0  0  0
 49 71  1  0  0  0  0
 50 69  1  0  0  0  0
 51 54  1  0  0  0  0
 51 71  1  0  0  0  0
 52 75  1  0  0  0  0
 53 70  1  0  0  0  0
 54 68  1  0  0  0  0
 55 63  1  0  0  0  0
 58 65  1  0  0  0  0
 59 66  1  0  0  0  0
 60 66  1  0  0  0  0
 61 66  1  0  0  0  0
 62 77  1  0  0  0  0
 63 86  1  0  0  0  0
 64 66  1  0  0  0  0
 64 76  1  0  0  0  0
 65 77  1  0  0  0  0
 67 68  1  0  0  0  0
M  CHG  1  77   1
M  ISO  4  40 100  63 101  74 100  86 101
M  END
> <Batch ID>
0072

> <Smiles>
CNC(C)C(=O)NC(C(=O)N1Cc2cc([101O:1][101CH2:1]C3(C(C)=O)CCN(c4cc(C)c([100NH:0][100C:0](=O)N5CCCC(n6nc(-c7ccc(Oc8ccc(F)cc8F)cc7)c(C(N)=O)c6N)C5)c(F)c4)C3=O)ccc2CC1C(=O)NC1CCCc2ccccc21)C(C)(C)C

> <Shape>
0.316

> <Color>
0.213

> <Negative vol penalty>
0.000

$$$$

  -OEChem-04042323383D

 88 97  0     1  0  0  0  0  0999 V2000
  -28.4939  -33.6295   24.0756 C   0  0  0  0  0  0  0  0  0  0  0  0
  -28.4015  -32.2516   23.9076 C   0  0  0  0  0  0  0  0  0  0  0  0
  -24.7195   -8.6467   21.4787 C   0  0  0  0  0  0  0  0  0  0  0  0
  -23.1726  -10.2238   20.5006 C   0  0  0  0  0  0  0  0  0  0  0  0
  -27.3398  -34.3846   24.2801 C   0  0  0  0  0  0  0  0  0  0  0  0
  -27.1550  -31.6278   23.9452 C   0  0  0  0  0  0  0  0  0  0  0  0
  -26.5687  -28.2328   20.2337 C   0  0  0  0  0  0  0  0  0  0  0  0
  -23.7419   -8.2548   22.3931 C   0  0  0  0  0  0  0  0  0  0  0  0
  -22.1949   -9.8319   21.4150 C   0  0  0  0  0  0  0  0  0  0  0  0
  -27.1858  -26.9938   20.4008 C   0  0  0  0  0  0  0  0  0  0  0  0
  -21.0045   -6.2700   22.4154 C   0  0  0  0  0  0  0  0  0  0  0  0
  -20.8335   -4.9033   22.6357 C   0  0  0  0  0  0  0  0  0  0  0  0
  -25.0799  -26.0459   21.0978 C   0  0  0  0  0  0  0  0  0  0  0  0
  -25.7193  -19.8647   18.2571 C   0  0  0  0  0  0  0  0  0  0  0  0
  -25.6309  -17.4934   17.8035 C   0  0  0  0  0  0  0  0  0  0  0  0
  -27.5823  -18.4493   18.8596 C   0  0  0  0  0  0  0  0  0  0  0  0
  -21.3664   -5.2131   24.9718 C   0  0  0  0  0  0  0  0  0  0  0  0
  -24.4349   -9.6313   20.5325 C   0  0  0  0  0  0  0  0  0  0  0  0
  -25.6882   -9.4868   18.3152 C   0  0  0  0  0  0  0  0  0  0  0  0
  -26.0776  -33.7710   24.3106 C   0  0  0  0  0  0  0  0  0  0  0  0
  -25.2027  -28.3905   20.5083 C   0  0  0  0  0  0  0  0  0  0  0  0
  -25.9831  -32.3752   24.1517 C   0  0  0  0  0  0  0  0  0  0  0  0
  -24.4474  -27.2873   20.9309 C   0  0  0  0  0  0  0  0  0  0  0  0
  -25.0394  -18.7556   17.7538 C   0  0  0  0  0  0  0  0  0  0  0  0
  -26.9908  -19.7116   18.8099 C   0  0  0  0  0  0  0  0  0  0  0  0
  -26.9024  -17.3402   18.3564 C   0  0  0  0  0  0  0  0  0  0  0  0
  -22.4795   -8.8474   22.3613 C   0  0  0  0  0  0  0  0  0  0  0  0
  -26.4420  -25.9008   20.8357 C   0  0  0  0  0  0  0  0  0  0  0  0
  -21.3565   -7.1083   23.4733 C   0  0  0  0  0  0  0  0  0  0  0  0
  -21.0144   -4.3749   23.9138 C   0  0  0  0  0  0  0  0  0  0  0  0
  -21.5374   -6.5798   24.7515 C   0  0  0  0  0  0  0  0  0  0  0  0
  -25.4446  -10.0369   19.5880 C   0  0  0  0  0  0  0  0  0  0  0  0
  -26.7424  -10.2162   17.8220 C   0  0  0  0  0  0  0  0  0  0  0  0
  -29.2889  -22.1518   20.2822 C   0  0  0  0  0  0  0  0  0  0  0  0
  -28.2571  -22.9297   19.9470 C   0  0  0  0  0  0  0  0  0  0  0  0
  -28.9442  -20.7721   19.8850 C   0  0  0  0  0  0  0  0  0  0  0  0
  -25.0212   -8.4126   17.6393 C   0  0  0  0  0  0  0  0  0  0  0  0
  -23.5139  -30.1331   22.5613 C   0  0  0  0  0  0  0  0  0  0  0  0
  -20.9950  -28.9332   20.9067 C   0  0  0  0  0  0  0  0  0  0  0  0
  -19.7530  -26.4575   18.9130 C   0  0  0  0  0  0  0  0  0  0  0  0
  -28.7583  -15.7329   18.9206 C   0  0  0  0  0  0  0  0  0  0  0  0
  -24.8628  -34.6226   24.5819 C   0  0  0  0  0  0  0  0  0  0  0  0
  -24.5463  -29.7273   20.2974 C   0  0  0  0  0  0  0  0  0  0  0  0
  -22.9734  -27.3992   21.2198 C   0  0  0  0  0  0  0  0  0  0  0  0
  -27.1468  -22.1683   19.3089 C   0  0  0  0  0  0  0  0  0  0  0  0
  -23.5458  -33.9333   24.2344 C   0  0  0  0  0  0  0  0  0  0  0  0
  -30.5807  -12.6929   19.2597 C   0  0  0  0  0  0  0  0  0  0  0  0
  -23.5275  -32.5099   24.7823 C   0  0  0  0  0  0  0  0  0  0  0  0
  -29.4930  -11.6163   19.2604 C   0  0  0  0  0  0  0  0  0  0  0  0
  -30.1284  -13.9565   19.9895 C   0  0  0  0  0  0  0  0  0  0  0  0
  -27.7641  -13.4400   19.5288 C   0  0  0  0  0  0  0  0  0  0  0  0
  -24.6466  -31.6653   24.1614 C   0  0  1  0  0  0  0  0  0  0  0  0
  -23.2596  -29.8944   21.0998 C   0  0  1  0  0  0  0  0  0  0  0  0
  -28.1495  -12.1723   18.7491 C   0  0  2  0  0  0  0  0  0  0  0  0
  -17.6496  -25.7319   17.7525 C   0  0  0  0  0  0  0  0  0  0  0  0
  -22.6699  -19.4914   18.1738 C   0  0  0  0  0  0  0  0  0  0  0  0
  -23.6990  -19.8020   15.8988 C   0  0  0  0  0  0  0  0  0  0  0  0
  -19.8485  -27.9975   23.5751 C   0  0  0  0  0  0  0  0  0  0  0  0
  -18.2988  -26.4973   22.3038 C   0  0  0  0  0  0  0  0  0  0  0  0
  -18.1664  -28.9698   22.0004 C   0  0  0  0  0  0  0  0  0  0  0  0
  -21.0328  -26.6089   16.2487 C   0  0  0  0  0  0  0  0  0  0  0  0
  -28.1539  -24.3966   20.1556 C   0  0  0  0  0  0  0  0  0  1  0  0
  -20.1259  -27.7045   21.0249 C   0  0  1  0  0  0  0  0  0  0  0  0
  -18.9509  -26.5085   17.6251 C   0  0  2  0  0  0  0  0  0  0  0  0
  -23.6803  -18.9201   17.1615 C   0  0  0  0  0  0  0  0  0  0  0  0
  -19.1381  -27.7903   22.2225 C   0  0  0  0  0  0  0  0  0  0  0  0
  -26.2771  -11.0383   19.8848 N   0  0  0  0  0  0  0  0  0  0  0  0
  -27.0542  -11.1232   18.7916 N   0  0  0  0  0  0  0  0  0  0  0  0
  -27.6677  -20.8168   19.3109 N   0  0  0  0  0  0  0  0  0  0  0  0
  -22.3786  -28.7286   21.0046 N   0  0  0  0  0  0  0  0  0  0  0  0
  -28.8515  -14.4279   19.4489 N   0  0  0  0  0  0  0  0  0  0  0  0
  -27.4238  -10.1636   16.6578 N   0  0  0  0  0  0  0  0  0  0  0  0
  -23.9578   -7.7719   18.2897 N   0  0  0  0  0  0  0  0  0  0  0  0
  -27.5039  -16.0582   18.4056 N   0  0  0  0  0  0  0  0  0  0  0  0
  -24.2837  -31.2504   22.8233 N   0  0  0  0  0  0  0  0  0  0  0  0
  -19.4794  -27.5356   19.7280 N   0  0  0  0  0  0  0  0  0  0  0  0
  -19.7378  -25.9262   16.5014 N   0  3  0  0  0  0  0  0  0  0  0  0
  -29.6791  -19.8124   20.0529 O   0  0  0  0  0  0  0  0  0  0  0  0
  -25.3687   -8.0215   16.4992 O   0  0  0  0  0  0  0  0  0  0  0  0
  -23.0452  -29.3616   23.3901 O   0  0  0  0  0  0  0  0  0  0  0  0
  -20.4661  -30.0330   20.7269 O   0  0  0  0  0  0  0  0  0  0  0  0
  -20.5404  -25.5501   19.1718 O   0  0  0  0  0  0  0  0  0  0  0  0
  -29.7279  -16.4954   18.8999 O   0  0  0  0  0  0  0  0  0  0  0  0
  -21.5252   -8.4650   23.2532 O   0  0  0  0  0  0  0  0  0  0  0  0
  -27.0419  -24.6905   21.0002 O   0  0  0  0  0  0  0  0  0  1  0  0
  -20.8486   -3.0627   24.1255 F   0  0  0  0  0  0  0  0  0  0  0  0
  -21.8745   -7.3803   25.7720 F   0  0  0  0  0  0  0  0  0  0  0  0
  -23.1263  -17.7214   16.7472 F   0  0  0  0  0  0  0  0  0  0  0  0
  1  2  1  0  0  0  0
  1  5  2  0  0  0  0
  2  6  2  0  0  0  0
  3  8  2  0  0  0  0
  3 18  1  0  0  0  0
  4  9  1  0  0  0  0
  4 18  2  0  0  0  0
  5 20  1  0  0  0  0
  6 22  1  0  0  0  0
  7 10  2  0  0  0  0
  7 21  1  0  0  0  0
  8 27  1  0  0  0  0
  9 27  2  0  0  0  0
 10 28  1  0  0  0  0
 11 12  2  0  0  0  0
 11 29  1  0  0  0  0
 12 30  1  0  0  0  0
 13 23  1  0  0  0  0
 13 28  2  0  0  0  0
 14 24  1  0  0  0  0
 14 25  2  0  0  0  0
 15 24  2  0  0  0  0
 15 26  1  0  0  0  0
 16 25  1  0  0  0  0
 16 26  2  0  0  0  0
 17 30  2  0  0  0  0
 17 31  1  0  0  0  0
 18 32  1  0  0  0  0
 19 32  1  0  0  0  0
 19 33  2  0  0  0  0
 19 37  1  0  0  0  0
 20 22  2  0  0  0  0
 20 42  1  0  0  0  0
 21 23  2  0  0  0  0
 21 43  1  0  0  0  0
 22 52  1  0  0  0  0
 23 44  1  0  0  0  0
 24 65  1  0  0  0  0
 25 69  1  0  0  0  0
 26 74  1  0  0  0  0
 27 84  1  0  0  0  0
 28 85  1  0  0  0  0
 29 31  2  0  0  0  0
 29 84  1  0  0  0  0
 30 86  1  0  0  0  0
 31 87  1  0  0  0  0
 32 67  2  0  0  0  0
 33 68  1  0  0  0  0
 33 72  1  0  0  0  0
 34 35  2  0  0  0  0
 34 36  1  0  0  0  0
 35 45  1  0  0  0  0
 35 62  1  0  0  0  0
 36 69  1  0  0  0  0
 36 78  2  0  0  0  0
 37 73  1  0  0  0  0
 37 79  2  0  0  0  0
 38 53  1  0  0  0  0
 38 75  1  0  0  0  0
 38 80  2  0  0  0  0
 39 63  1  0  0  0  0
 39 70  1  0  0  0  0
 39 81  2  0  0  0  0
 40 64  1  0  0  0  0
 40 76  1  0  0  0  0
 40 82  2  0  0  0  0
 41 71  1  0  0  0  0
 41 74  1  0  0  0  0
 41 83  2  0  0  0  0
 42 46  1  0  0  0  0
 43 53  1  0  0  0  0
 44 70  1  0  0  0  0
 45 69  1  0  0  0  0
 46 48  1  0  0  0  0
 47 49  1  0  0  0  0
 47 50  1  0  0  0  0
 48 52  1  0  0  0  0
 49 54  1  0  0  0  0
 50 71  1  0  0  0  0
 51 54  1  0  0  0  0
 51 71  1  0  0  0  0
 52 75  1  0  0  0  0
 53 70  1  0  0  0  0
 54 68  1  0  0  0  0
 55 64  1  0  0  0  0
 56 65  1  0  0  0  0
 57 65  1  0  0  0  0
 58 66  1  0  0  0  0
 59 66  1  0  0  0  0
 60 66  1  0  0  0  0
 61 77  1  0  0  0  0
 62 85  1  0  0  0  0
 63 66  1  0  0  0  0
 63 76  1  0  0  0  0
 64 77  1  0  0  0  0
 65 88  1  0  0  0  0
 67 68  1  0  0  0  0
M  CHG  1  77   1
M  ISO  4  41 100  62 101  74 100  85 101
M  END
> <Batch ID>
0072

> <Smiles>
CNC(C)C(=O)NC(C(=O)N1Cc2cc([101O:1][101CH2:1]C3=CC(=O)N(c4cc([100NH:0][100C:0](=O)N5CCCC(n6nc(-c7ccc(Oc8ccc(F)cc8F)cc7)c(C(N)=O)c6N)C5)cc(C(C)(C)F)c4)C3)ccc2CC1C(=O)NC1CCCc2ccccc21)C(C)(C)C

> <Shape>
0.301

> <Color>
0.081

> <Negative vol penalty>
0.000

$$$$

  -OEChem-04042323383D

 85 94  0     1  0  0  0  0  0999 V2000
  -24.6310  -35.4277   22.3207 C   0  0  0  0  0  0  0  0  0  0  0  0
  -25.4120  -34.2826   22.2023 C   0  0  0  0  0  0  0  0  0  0  0  0
  -32.3462  -20.6898   17.5211 C   0  0  0  0  0  0  0  0  0  0  0  0
  -24.7933  -12.8561   21.9530 C   0  0  0  0  0  0  0  0  0  0  0  0
  -25.4460  -12.3106   19.6917 C   0  0  0  0  0  0  0  0  0  0  0  0
  -23.3566  -35.3462   22.8803 C   0  0  0  0  0  0  0  0  0  0  0  0
  -24.9195  -33.0553   22.6445 C   0  0  0  0  0  0  0  0  0  0  0  0
  -25.7873  -29.3114   19.3468 C   0  0  0  0  0  0  0  0  0  0  0  0
  -32.3195  -22.0614   17.7729 C   0  0  0  0  0  0  0  0  0  0  0  0
  -31.1521  -19.9763   17.4172 C   0  0  0  0  0  0  0  0  0  0  0  0
  -24.0518  -11.6768   22.0235 C   0  0  0  0  0  0  0  0  0  0  0  0
  -24.7046  -11.1312   19.7622 C   0  0  0  0  0  0  0  0  0  0  0  0
  -27.0741  -28.7757   19.3159 C   0  0  0  0  0  0  0  0  0  0  0  0
  -22.2799   -8.6336   22.9259 C   0  0  0  0  0  0  0  0  0  0  0  0
  -22.3991   -7.8607   24.0809 C   0  0  0  0  0  0  0  0  0  0  0  0
  -26.3267  -26.9185   20.6618 C   0  0  0  0  0  0  0  0  0  0  0  0
  -29.9045  -22.0062   17.8171 C   0  0  0  0  0  0  0  0  0  0  0  0
  -24.7667   -7.6110   23.6695 C   0  0  0  0  0  0  0  0  0  0  0  0
  -25.4904  -13.1731   20.7871 C   0  0  0  0  0  0  0  0  0  0  0  0
  -27.6087  -14.5678   21.0612 C   0  0  0  0  0  0  0  0  0  0  0  0
  -22.8444  -34.1156   23.3208 C   0  0  0  0  0  0  0  0  0  0  0  0
  -24.7614  -28.6592   20.0457 C   0  0  0  0  0  0  0  0  0  0  0  0
  -23.6376  -32.9574   23.2118 C   0  0  0  0  0  0  0  0  0  0  0  0
  -25.0271  -27.4467   20.6979 C   0  0  0  0  0  0  0  0  0  0  0  0
  -31.0986  -22.7197   17.9209 C   0  0  0  0  0  0  0  0  0  0  0  0
  -29.9312  -20.6346   17.5653 C   0  0  0  0  0  0  0  0  0  0  0  0
  -24.0075  -10.8143   20.9281 C   0  0  0  0  0  0  0  0  0  0  0  0
  -27.3446  -27.5806   19.9758 C   0  0  0  0  0  0  0  0  0  0  0  0
  -23.4041   -8.8951   22.1426 C   0  0  0  0  0  0  0  0  0  0  0  0
  -23.6425   -7.3494   24.4527 C   0  0  0  0  0  0  0  0  0  0  0  0
  -24.6475   -8.3839   22.5144 C   0  0  0  0  0  0  0  0  0  0  0  0
  -26.2560  -14.3915   20.7134 C   0  0  0  0  0  0  0  0  0  0  0  0
  -27.8571  -15.8954   20.8117 C   0  0  0  0  0  0  0  0  0  0  0  0
  -31.6992  -26.2885   18.5564 C   0  0  0  0  0  0  0  0  0  0  0  0
  -30.3622  -26.2247   18.5731 C   0  0  0  0  0  0  0  0  0  0  0  0
  -32.1955  -24.9124   18.2968 C   0  0  0  0  0  0  0  0  0  0  0  0
  -28.5560  -13.6165   21.5646 C   0  0  0  0  0  0  0  0  0  0  0  0
  -22.9088  -29.4018   22.5197 C   0  0  0  0  0  0  0  0  0  0  0  0
  -21.4565  -26.5986   21.7746 C   0  0  0  0  0  0  0  0  0  0  0  0
  -21.6708  -23.5250   20.3070 C   0  0  0  0  0  0  0  0  0  0  0  0
  -27.4222  -20.4088   17.5802 C   0  0  0  0  0  0  0  0  0  0  0  0
  -21.4798  -34.0852   23.9623 C   0  0  0  0  0  0  0  0  0  0  0  0
  -23.3724  -29.2364   20.0471 C   0  0  0  0  0  0  0  0  0  0  0  0
  -23.9559  -26.6970   21.4454 C   0  0  0  0  0  0  0  0  0  0  0  0
  -29.8516  -24.8431   18.3336 C   0  0  0  0  0  0  0  0  0  0  0  0
  -20.8854  -32.6827   24.0632 C   0  0  0  0  0  0  0  0  0  0  0  0
  -24.6881  -19.6960   19.7467 C   0  0  0  0  0  0  0  0  0  0  0  0
  -21.9223  -31.7007   24.5991 C   0  0  0  0  0  0  0  0  0  0  0  0
  -24.9636  -18.2670   20.2200 C   0  0  0  0  0  0  0  0  0  0  0  0
  -25.0955  -19.8990   18.2884 C   0  0  0  0  0  0  0  0  0  0  0  0
  -26.7504  -18.0806   18.4425 C   0  0  0  0  0  0  0  0  0  0  0  0
  -23.1286  -31.6037   23.6573 C   0  0  1  0  0  0  0  0  0  0  0  0
  -22.5254  -28.7525   21.2201 C   0  0  1  0  0  0  0  0  0  0  0  0
  -26.4165  -17.8457   19.9247 C   0  0  2  0  0  0  0  0  0  0  0  0
  -32.6327  -27.4250   18.7425 C   0  0  0  0  0  0  0  0  0  0  0  0
  -20.3333  -21.4426   19.8920 C   0  0  0  0  0  0  0  0  0  0  0  0
  -21.8729  -25.7555   24.6773 C   0  0  0  0  0  0  0  0  0  0  0  0
  -21.4096  -23.3945   23.9851 C   0  0  0  0  0  0  0  0  0  0  0  0
  -19.6459  -25.1387   23.7211 C   0  0  0  0  0  0  0  0  0  0  0  0
  -21.8579  -23.8506   17.3714 C   0  0  0  0  0  0  0  0  0  0  0  0
  -29.3918  -27.3275   18.7922 C   0  0  0  0  0  0  0  0  0  1  0  0
  -21.6471  -25.1559   22.1762 C   0  0  1  0  0  0  0  0  0  0  0  0
  -20.7453  -22.8009   19.3460 C   0  0  2  0  0  0  0  0  0  0  0  0
  -21.1647  -24.8760   23.6276 C   0  0  0  0  0  0  0  0  0  0  0  0
  -25.6850  -15.5171   20.2766 N   0  0  0  0  0  0  0  0  0  0  0  0
  -26.6837  -16.4135   20.3482 N   0  0  0  0  0  0  0  0  0  0  0  0
  -31.0727  -24.0862   18.1713 N   0  0  0  0  0  0  0  0  0  0  0  0
  -22.6153  -27.3051   21.4230 N   0  0  0  0  0  0  0  0  0  0  0  0
  -26.4848  -19.4828   18.0847 N   0  0  0  0  0  0  0  0  0  0  0  0
  -28.9626  -16.6585   20.9460 N   0  0  0  0  0  0  0  0  0  0  0  0
  -28.1345  -12.2946   21.7626 N   0  0  0  0  0  0  0  0  0  0  0  0
  -28.7186  -19.9093   17.4595 N   0  0  0  0  0  0  0  0  0  0  0  0
  -22.8098  -30.7800   22.5108 N   0  0  0  0  0  0  0  0  0  0  0  0
  -20.9741  -24.3564   21.1582 N   0  0  0  0  0  0  0  0  0  0  0  0
  -21.4200  -22.5947   18.0333 N   0  3  0  0  0  0  0  0  0  0  0  0
  -33.3757  -24.6100   18.2172 O   0  0  0  0  0  0  0  0  0  0  0  0
  -29.7366  -13.9332   21.8464 O   0  0  0  0  0  0  0  0  0  0  0  0
  -23.2666  -28.7039   23.4613 O   0  0  0  0  0  0  0  0  0  0  0  0
  -20.3203  -27.0789   21.7661 O   0  0  0  0  0  0  0  0  0  0  0  0
  -22.8895  -23.3659   20.3054 O   0  0  0  0  0  0  0  0  0  0  0  0
  -27.1045  -21.5682   17.3031 O   0  0  0  0  0  0  0  0  0  0  0  0
  -23.2843   -9.6633   20.9966 O   0  0  0  0  0  0  0  0  0  0  0  0
  -28.5999  -27.0558   19.9478 O   0  0  0  0  0  0  0  0  0  1  0  0
  -23.7570   -6.6085   25.5627 F   0  0  0  0  0  0  0  0  0  0  0  0
  -25.7313   -8.6328   21.7666 F   0  0  0  0  0  0  0  0  0  0  0  0
  1  2  1  0  0  0  0
  1  6  2  0  0  0  0
  2  7  2  0  0  0  0
  3  9  2  0  0  0  0
  3 10  1  0  0  0  0
  4 11  2  0  0  0  0
  4 19  1  0  0  0  0
  5 12  1  0  0  0  0
  5 19  2  0  0  0  0
  6 21  1  0  0  0  0
  7 23  1  0  0  0  0
  8 13  2  0  0  0  0
  8 22  1  0  0  0  0
  9 25  1  0  0  0  0
 10 26  2  0  0  0  0
 11 27  1  0  0  0  0
 12 27  2  0  0  0  0
 13 28  1  0  0  0  0
 14 15  2  0  0  0  0
 14 29  1  0  0  0  0
 15 30  1  0  0  0  0
 16 24  1  0  0  0  0
 16 28  2  0  0  0  0
 17 25  2  0  0  0  0
 17 26  1  0  0  0  0
 18 30  2  0  0  0  0
 18 31  1  0  0  0  0
 19 32  1  0  0  0  0
 20 32  1  0  0  0  0
 20 33  2  0  0  0  0
 20 37  1  0  0  0  0
 21 23  2  0  0  0  0
 21 42  1  0  0  0  0
 22 24  2  0  0  0  0
 22 43  1  0  0  0  0
 23 52  1  0  0  0  0
 24 44  1  0  0  0  0
 25 67  1  0  0  0  0
 26 72  1  0  0  0  0
 27 82  1  0  0  0  0
 28 83  1  0  0  0  0
 29 31  2  0  0  0  0
 29 82  1  0  0  0  0
 30 84  1  0  0  0  0
 31 85  1  0  0  0  0
 32 65  2  0  0  0  0
 33 66  1  0  0  0  0
 33 70  1  0  0  0  0
 34 35  2  0  0  0  0
 34 36  1  0  0  0  0
 34 55  1  0  0  0  0
 35 45  1  0  0  0  0
 35 61  1  0  0  0  0
 36 67  1  0  0  0  0
 36 76  2  0  0  0  0
 37 71  1  0  0  0  0
 37 77  2  0  0  0  0
 38 53  1  0  0  0  0
 38 73  1  0  0  0  0
 38 78  2  0  0  0  0
 39 62  1  0  0  0  0
 39 68  1  0  0  0  0
 39 79  2  0  0  0  0
 40 63  1  0  0  0  0
 40 74  1  0  0  0  0
 40 80  2  0  0  0  0
 41 69  1  0  0  0  0
 41 72  1  0  0  0  0
 41 81  2  0  0  0  0
 42 46  1  0  0  0  0
 43 53  1  0  0  0  0
 44 68  1  0  0  0  0
 45 67  1  0  0  0  0
 46 48  1  0  0  0  0
 47 49  1  0  0  0  0
 47 50  1  0  0  0  0
 48 52  1  0  0  0  0
 49 54  1  0  0  0  0
 50 69  1  0  0  0  0
 51 54  1  0  0  0  0
 51 69  1  0  0  0  0
 52 73  1  0  0  0  0
 53 68  1  0  0  0  0
 54 66  1  0  0  0  0
 56 63  1  0  0  0  0
 57 64  1  0  0  0  0
 58 64  1  0  0  0  0
 59 64  1  0  0  0  0
 60 75  1  0  0  0  0
 61 83  1  0  0  0  0
 62 64  1  0  0  0  0
 62 74  1  0  0  0  0
 63 75  1  0  0  0  0
 65 66  1  0  0  0  0
M  CHG  1  75   1
M  ISO  4  41 100  61 101  72 100  83 101
M  END
> <Batch ID>
0072

> <Smiles>
CNC(C)C(=O)NC(C(=O)N1Cc2cc([101O:1][101CH2:1]C3=C(C)C(=O)N(c4cccc([100NH:0][100C:0](=O)N5CCCC(n6nc(-c7ccc(Oc8ccc(F)cc8F)cc7)c(C(N)=O)c6N)C5)c4)C3)ccc2CC1C(=O)NC1CCCc2ccccc21)C(C)(C)C

> <Shape>
0.236

> <Color>
0.080

> <Negative vol penalty>
0.000

$$$$

  -OEChem-04042323383D

 88 97  0     1  0  0  0  0  0999 V2000
  -16.7117  -28.0546   23.3317 C   0  0  0  0  0  0  0  0  0  0  0  0
  -17.7087  -27.2328   22.8160 C   0  0  0  0  0  0  0  0  0  0  0  0
  -25.1579  -14.6737   20.4860 C   0  0  0  0  0  0  0  0  0  0  0  0
  -26.4066  -13.0396   21.7538 C   0  0  0  0  0  0  0  0  0  0  0  0
  -17.0322  -29.3289   23.7980 C   0  0  0  0  0  0  0  0  0  0  0  0
  -19.0267  -27.6852   22.7653 C   0  0  0  0  0  0  0  0  0  0  0  0
  -24.0995  -24.3383   23.5208 C   0  0  0  0  0  0  0  0  0  0  0  0
  -29.4458  -20.3613   17.0483 C   0  0  0  0  0  0  0  0  0  0  0  0
  -29.7514  -19.4858   16.0063 C   0  0  0  0  0  0  0  0  0  0  0  0
  -24.0030  -13.9054   20.6332 C   0  0  0  0  0  0  0  0  0  0  0  0
  -25.2518  -12.2713   21.9011 C   0  0  0  0  0  0  0  0  0  0  0  0
  -24.9884  -23.7643   22.6130 C   0  0  0  0  0  0  0  0  0  0  0  0
  -23.4458  -10.1054   20.0361 C   0  0  0  0  0  0  0  0  0  0  0  0
  -23.5504   -8.7308   19.8234 C   0  0  0  0  0  0  0  0  0  0  0  0
  -29.4135  -18.5072   18.5969 C   0  0  0  0  0  0  0  0  0  0  0  0
  -26.4384  -25.6798   22.8309 C   0  0  0  0  0  0  0  0  0  0  0  0
  -22.8177   -8.3245   22.0895 C   0  0  0  0  0  0  0  0  0  0  0  0
  -26.3597  -14.2408   21.0462 C   0  0  0  0  0  0  0  0  0  0  0  0
  -29.7191  -17.6316   17.5549 C   0  0  0  0  0  0  0  0  0  0  0  0
  -28.0133  -16.0506   21.7519 C   0  0  0  0  0  0  0  0  0  0  0  0
  -18.3564  -29.7935   23.7619 C   0  0  0  0  0  0  0  0  0  0  0  0
  -24.3686  -25.5944   24.0832 C   0  0  0  0  0  0  0  0  0  0  0  0
  -19.3650  -28.9674   23.2303 C   0  0  0  0  0  0  0  0  0  0  0  0
  -25.5526  -26.2664   23.7476 C   0  0  0  0  0  0  0  0  0  0  0  0
  -29.2769  -19.8720   18.3436 C   0  0  0  0  0  0  0  0  0  0  0  0
  -29.8880  -18.1210   16.2596 C   0  0  0  0  0  0  0  0  0  0  0  0
  -24.0500  -12.7043   21.3408 C   0  0  0  0  0  0  0  0  0  0  0  0
  -26.1567  -24.4364   22.2657 C   0  0  0  0  0  0  0  0  0  0  0  0
  -23.0273  -10.5895   21.2755 C   0  0  0  0  0  0  0  0  0  0  0  0
  -23.2363   -7.8404   20.8501 C   0  0  0  0  0  0  0  0  0  0  0  0
  -22.7132   -9.6991   22.3022 C   0  0  0  0  0  0  0  0  0  0  0  0
  -27.5531  -15.0337   20.8940 C   0  0  0  0  0  0  0  0  0  0  0  0
  -29.1782  -16.4888   21.1710 C   0  0  0  0  0  0  0  0  0  0  0  0
  -28.7859  -22.0918   19.4086 C   0  0  0  0  0  0  0  0  0  0  0  0
  -28.7113  -20.5320   20.6989 C   0  0  0  0  0  0  0  0  0  0  0  0
  -29.8524  -16.2109   17.8524 C   0  0  0  0  0  0  0  0  0  0  0  0
  -27.4391  -16.5540   22.9654 C   0  0  0  0  0  0  0  0  0  0  0  0
  -22.9316  -28.4292   24.0321 C   0  0  0  0  0  0  0  0  0  0  0  0
  -25.2365  -29.2010   26.1801 C   0  0  0  0  0  0  0  0  0  0  0  0
  -28.3410  -28.5716   27.4502 C   0  0  0  0  0  0  0  0  0  0  0  0
  -30.9367  -16.0433   15.3243 C   0  0  0  0  0  0  0  0  0  0  0  0
  -18.6467  -31.1962   24.2339 C   0  0  0  0  0  0  0  0  0  0  0  0
  -23.4125  -26.1878   25.0813 C   0  0  0  0  0  0  0  0  0  0  0  0
  -25.8977  -27.6080   24.3387 C   0  0  0  0  0  0  0  0  0  0  0  0
  -20.1285  -31.4581   24.4904 C   0  0  0  0  0  0  0  0  0  0  0  0
  -32.7732  -15.0370   18.3752 C   0  0  0  0  0  0  0  0  0  0  0  0
  -20.9719  -30.9302   23.3343 C   0  0  0  0  0  0  0  0  0  0  0  0
  -31.6631  -14.9278   19.4189 C   0  0  0  0  0  0  0  0  0  0  0  0
  -32.2579  -14.7500   16.9682 C   0  0  0  0  0  0  0  0  0  0  0  0
  -29.9860  -15.4971   17.6176 C   0  0  0  0  0  0  0  0  0  0  0  0
  -20.8104  -29.4130   23.1814 C   0  0  1  0  0  0  0  0  0  0  0  0
  -28.4828  -22.0394   20.9177 C   0  0  0  0  0  0  0  0  0  0  0  0
  -23.5374  -27.7037   25.2001 C   0  0  1  0  0  0  0  0  0  0  0  0
  -30.4711  -15.8214   19.0385 C   0  0  1  0  0  0  0  0  0  0  0  0
  -28.6167  -15.3668   17.7564 C   0  0  0  0  0  0  0  0  0  0  0  0
  -29.9672  -29.3934   29.1757 C   0  0  0  0  0  0  0  0  0  0  0  0
  -25.9413  -31.5661   24.3859 C   0  0  0  0  0  0  0  0  0  0  0  0
  -28.1096  -31.7677   25.6213 C   0  0  0  0  0  0  0  0  0  0  0  0
  -25.9516  -32.0748   26.8344 C   0  0  0  0  0  0  0  0  0  0  0  0
  -29.9775  -17.7184   13.8059 C   0  0  0  0  0  0  0  0  0  0  0  0
  -28.3083  -25.9819   28.8825 C   0  0  0  0  0  0  0  0  0  0  0  0
  -27.0858  -22.4536   21.3377 C   0  0  0  0  0  0  0  0  0  1  0  0
  -26.6371  -29.7573   26.0918 C   0  0  1  0  0  0  0  0  0  0  0  0
  -28.8341  -28.4237   28.8783 C   0  0  2  0  0  0  0  0  0  0  0  0
  -26.6528  -31.2671   25.7206 C   0  0  0  0  0  0  0  0  0  0  0  0
  -28.3598  -14.8375   19.8477 N   0  0  0  0  0  0  0  0  0  0  0  0
  -29.3385  -15.7373   20.0442 N   0  0  0  0  0  0  0  0  0  0  0  0
  -28.9751  -20.7355   19.3701 N   0  0  0  0  0  0  0  0  0  0  0  0
  -24.9282  -28.1497   25.3051 N   0  0  0  0  0  0  0  0  0  0  0  0
  -31.0865  -15.5650   16.6423 N   0  0  0  0  0  0  0  0  0  0  0  0
  -30.0707  -17.4400   21.5192 N   0  0  0  0  0  0  0  0  0  0  0  0
  -26.2390  -15.9911   23.4205 N   0  0  0  0  0  0  0  0  0  0  0  0
  -21.5889  -28.7182   24.1842 N   0  0  0  0  0  0  0  0  0  0  0  0
  -27.2801  -29.4482   27.3643 N   0  0  0  0  0  0  0  0  0  0  0  0
  -30.2030  -17.2345   15.1661 N   0  0  0  0  0  0  0  0  0  0  0  0
  -29.3275  -27.0375   29.1150 N   0  3  0  0  0  0  0  0  0  0  0  0
  -28.8327  -22.9520   18.5582 O   0  0  0  0  0  0  0  0  0  0  0  0
  -28.6701  -19.5362   21.3856 O   0  0  0  0  0  0  0  0  0  0  0  0
  -30.9014  -15.6565   18.1802 O   0  0  0  0  0  0  0  0  0  0  0  0
  -27.9659  -17.4869   23.6178 O   0  0  0  0  0  0  0  0  0  0  0  0
  -23.6309  -28.7077   23.0651 O   0  0  0  0  0  0  0  0  0  0  0  0
  -24.4475  -29.6767   27.0003 O   0  0  0  0  0  0  0  0  0  0  0  0
  -28.8487  -27.9724   26.5048 O   0  0  0  0  0  0  0  0  0  0  0  0
  -31.3780  -15.4230   14.3490 O   0  0  0  0  0  0  0  0  0  0  0  0
  -22.9232  -11.9545   21.4848 O   0  0  0  0  0  0  0  0  0  0  0  0
  -27.0257  -23.8787   21.3793 O   0  0  0  0  0  0  0  0  0  1  0  0
  -23.3353   -6.5204   20.6452 F   0  0  0  0  0  0  0  0  0  0  0  0
  -22.3093  -10.1582   23.4946 F   0  0  0  0  0  0  0  0  0  0  0  0
  1  2  1  0  0  0  0
  1  5  2  0  0  0  0
  2  6  2  0  0  0  0
  3 10  2  0  0  0  0
  3 18  1  0  0  0  0
  4 11  1  0  0  0  0
  4 18  2  0  0  0  0
  5 21  1  0  0  0  0
  6 23  1  0  0  0  0
  7 12  2  0  0  0  0
  7 22  1  0  0  0  0
  8  9  2  0  0  0  0
  8 25  1  0  0  0  0
  9 26  1  0  0  0  0
 10 27  1  0  0  0  0
 11 27  2  0  0  0  0
 12 28  1  0  0  0  0
 13 14  2  0  0  0  0
 13 29  1  0  0  0  0
 14 30  1  0  0  0  0
 15 19  1  0  0  0  0
 15 25  2  0  0  0  0
 16 24  1  0  0  0  0
 16 28  2  0  0  0  0
 17 30  2  0  0  0  0
 17 31  1  0  0  0  0
 18 32  1  0  0  0  0
 19 26  2  0  0  0  0
 19 36  1  0  0  0  0
 20 32  1  0  0  0  0
 20 33  2  0  0  0  0
 20 37  1  0  0  0  0
 21 23  2  0  0  0  0
 21 42  1  0  0  0  0
 22 24  2  0  0  0  0
 22 43  1  0  0  0  0
 23 51  1  0  0  0  0
 24 44  1  0  0  0  0
 25 68  1  0  0  0  0
 26 75  1  0  0  0  0
 27 85  1  0  0  0  0
 28 86  1  0  0  0  0
 29 31  2  0  0  0  0
 29 85  1  0  0  0  0
 30 87  1  0  0  0  0
 31 88  1  0  0  0  0
 32 66  2  0  0  0  0
 33 67  1  0  0  0  0
 33 71  1  0  0  0  0
 34 52  1  0  0  0  0
 34 68  1  0  0  0  0
 34 77  2  0  0  0  0
 35 52  1  0  0  0  0
 35 68  1  0  0  0  0
 35 78  2  0  0  0  0
 36 55  1  0  0  0  0
 36 79  2  0  0  0  0
 37 72  1  0  0  0  0
 37 80  2  0  0  0  0
 38 53  1  0  0  0  0
 38 73  1  0  0  0  0
 38 81  2  0  0  0  0
 39 63  1  0  0  0  0
 39 69  1  0  0  0  0
 39 82  2  0  0  0  0
 40 64  1  0  0  0  0
 40 74  1  0  0  0  0
 40 83  2  0  0  0  0
 41 70  1  0  0  0  0
 41 75  1  0  0  0  0
 41 84  2  0  0  0  0
 42 45  1  0  0  0  0
 43 53  1  0  0  0  0
 44 69  1  0  0  0  0
 45 47  1  0  0  0  0
 46 48  1  0  0  0  0
 46 49  1  0  0  0  0
 47 51  1  0  0  0  0
 48 54  1  0  0  0  0
 49 70  1  0  0  0  0
 50 54  1  0  0  0  0
 50 70  1  0  0  0  0
 51 73  1  0  0  0  0
 52 62  1  0  0  0  0
 53 69  1  0  0  0  0
 54 67  1  0  0  0  0
 56 64  1  0  0  0  0
 57 65  1  0  0  0  0
 58 65  1  0  0  0  0
 59 65  1  0  0  0  0
 60 75  1  0  0  0  0
 61 76  1  0  0  0  0
 62 86  1  0  0  0  0
 63 65  1  0  0  0  0
 63 74  1  0  0  0  0
 64 76  1  0  0  0  0
 66 67  1  0  0  0  0
M  CHG  1  76   1
M  ISO  4  41 100  62 101  75 100  86 101
M  END
> <Batch ID>
0072

> <Smiles>
CNC(C)C(=O)NC(C(=O)N1Cc2cc([101O:1][101CH2:1]C3C(=O)N(c4ccc([100N:0](C)[100C:0](=O)N5CCCC(n6nc(-c7ccc(Oc8ccc(F)cc8F)cc7)c(C(N)=O)c6N)C5)c(C(C)=O)c4)C3=O)ccc2CC1C(=O)NC1CCCc2ccccc21)C(C)(C)C

> <Shape>
0.230

> <Color>
0.087

> <Negative vol penalty>
0.000

$$$$

  -OEChem-04042323383D

 87 96  0     1  0  0  0  0  0999 V2000
  -25.5512  -36.1101   26.2653 C   0  0  0  0  0  0  0  0  0  0  0  0
  -26.3509  -35.1910   25.5937 C   0  0  0  0  0  0  0  0  0  0  0  0
  -26.6409  -11.0874   21.1736 C   0  0  0  0  0  0  0  0  0  0  0  0
  -25.6673  -12.8414   19.8272 C   0  0  0  0  0  0  0  0  0  0  0  0
  -24.2366  -35.7806   26.5925 C   0  0  0  0  0  0  0  0  0  0  0  0
  -25.8368  -33.9413   25.2499 C   0  0  0  0  0  0  0  0  0  0  0  0
  -27.1488  -30.6722   20.2402 C   0  0  0  0  0  0  0  0  0  0  0  0
  -30.8847  -21.7973   19.7694 C   0  0  0  0  0  0  0  0  0  0  0  0
  -31.2827  -20.4726   19.9491 C   0  0  0  0  0  0  0  0  0  0  0  0
  -25.3889  -10.8160   21.7254 C   0  0  0  0  0  0  0  0  0  0  0  0
  -24.4153  -12.5700   20.3790 C   0  0  0  0  0  0  0  0  0  0  0  0
  -28.0215  -29.6082   20.0164 C   0  0  0  0  0  0  0  0  0  0  0  0
  -22.5716   -9.1777   20.8243 C   0  0  0  0  0  0  0  0  0  0  0  0
  -22.1847   -7.8417   20.9280 C   0  0  0  0  0  0  0  0  0  0  0  0
  -29.6614  -19.7623   18.3047 C   0  0  0  0  0  0  0  0  0  0  0  0
  -26.2011  -28.0569   20.3305 C   0  0  0  0  0  0  0  0  0  0  0  0
  -21.9957   -8.0823   23.3246 C   0  0  0  0  0  0  0  0  0  0  0  0
  -26.7801  -12.1001   20.2245 C   0  0  0  0  0  0  0  0  0  0  0  0
  -29.2633  -21.0871   18.1250 C   0  0  0  0  0  0  0  0  0  0  0  0
  -28.6361  -11.8069   18.4991 C   0  0  0  0  0  0  0  0  0  0  0  0
  -23.7030  -34.5298   26.2440 C   0  0  0  0  0  0  0  0  0  0  0  0
  -25.7957  -30.4357   20.5220 C   0  0  0  0  0  0  0  0  0  0  0  0
  -24.5142  -33.5942   25.5739 C   0  0  0  0  0  0  0  0  0  0  0  0
  -25.3128  -29.1197   20.5550 C   0  0  0  0  0  0  0  0  0  0  0  0
  -29.8749  -22.1045   18.8574 C   0  0  0  0  0  0  0  0  0  0  0  0
  -30.6711  -19.4551   19.2167 C   0  0  0  0  0  0  0  0  0  0  0  0
  -24.2761  -11.5573   21.3281 C   0  0  0  0  0  0  0  0  0  0  0  0
  -27.5483  -28.3002   20.0644 C   0  0  0  0  0  0  0  0  0  0  0  0
  -22.6707   -9.9661   21.9708 C   0  0  0  0  0  0  0  0  0  0  0  0
  -21.8967   -7.2940   22.1781 C   0  0  0  0  0  0  0  0  0  0  0  0
  -22.3827   -9.4184   23.2209 C   0  0  0  0  0  0  0  0  0  0  0  0
  -28.0733  -12.3812   19.6546 C   0  0  0  0  0  0  0  0  0  0  0  0
  -29.8678  -12.4035   18.3841 C   0  0  0  0  0  0  0  0  0  0  0  0
  -29.9288  -24.5682   19.2762 C   0  0  0  0  0  0  0  0  0  0  0  0
  -28.2053  -21.3747   17.1643 C   0  0  0  0  0  0  0  0  0  0  0  0
  -28.0938  -10.8222   17.6091 C   0  0  0  0  0  0  0  0  0  0  0  0
  -23.8804  -31.0323   22.9877 C   0  0  0  0  0  0  0  0  0  0  0  0
  -21.5935  -29.9012   20.9845 C   0  0  0  0  0  0  0  0  0  0  0  0
  -20.8060  -27.9747   18.2799 C   0  0  0  0  0  0  0  0  0  0  0  0
  -32.0615  -17.6341   20.2641 C   0  0  0  0  0  0  0  0  0  0  0  0
  -22.2913  -34.2011   26.6608 C   0  0  0  0  0  0  0  0  0  0  0  0
  -24.8617  -31.5953   20.7347 C   0  0  0  0  0  0  0  0  0  0  0  0
  -23.8647  -28.8131   20.8335 C   0  0  0  0  0  0  0  0  0  0  0  0
  -21.7051  -32.9963   25.9292 C   0  0  0  0  0  0  0  0  0  0  0  0
  -33.3257  -14.3953   21.0319 C   0  0  0  0  0  0  0  0  0  0  0  0
  -22.7053  -31.8448   25.9102 C   0  0  0  0  0  0  0  0  0  0  0  0
  -32.1757  -13.4585   20.6549 C   0  0  0  0  0  0  0  0  0  0  0  0
  -32.8171  -15.7037   21.6345 C   0  0  0  0  0  0  0  0  0  0  0  0
  -30.6707  -15.4781   20.4464 C   0  0  0  0  0  0  0  0  0  0  0  0
  -28.4938  -24.0262   17.8319 C   0  0  0  0  0  0  0  0  0  0  0  0
  -23.9848  -32.2376   25.1619 C   0  0  1  0  0  0  0  0  0  0  0  0
  -23.6102  -31.2181   21.5214 C   0  0  1  0  0  0  0  0  0  0  0  0
  -31.1314  -14.1738   19.7755 C   0  0  2  0  0  0  0  0  0  0  0  0
  -28.9156  -25.3988   18.4369 C   0  0  2  0  0  0  0  0  0  0  0  0
  -28.6155  -21.6543   15.7493 C   0  0  0  0  0  0  0  0  0  0  0  0
  -29.5721  -26.3550   17.4472 C   0  0  0  0  0  0  0  0  0  0  0  0
  -18.8489  -27.2156   16.9048 C   0  0  0  0  0  0  0  0  0  0  0  0
  -20.8047  -27.9465   23.1906 C   0  0  0  0  0  0  0  0  0  0  0  0
  -19.5464  -26.6266   21.4752 C   0  0  0  0  0  0  0  0  0  0  0  0
  -18.8790  -28.9780   21.9733 C   0  0  0  0  0  0  0  0  0  0  0  0
  -21.8910  -29.2323   15.8304 C   0  0  0  0  0  0  0  0  0  0  0  0
  -27.8446  -26.0792   19.2672 C   0  0  0  0  0  0  0  0  0  1  0  0
  -21.0110  -28.5408   20.6866 C   0  0  1  0  0  0  0  0  0  0  0  0
  -19.9484  -28.2548   17.0590 C   0  0  2  0  0  0  0  0  0  0  0  0
  -20.0880  -28.0283   21.8281 C   0  0  0  0  0  0  0  0  0  0  0  0
  -28.8813  -13.2741   20.2325 N   0  0  0  0  0  0  0  0  0  0  0  0
  -29.9644  -13.2652   19.4370 N   0  0  0  0  0  0  0  0  0  0  0  0
  -29.4987  -23.4176   18.6964 N   0  0  0  0  0  0  0  0  0  0  0  0
  -22.9922  -29.9806   21.0410 N   0  0  0  0  0  0  0  0  0  0  0  0
  -31.8350  -16.3269   20.7445 N   0  0  0  0  0  0  0  0  0  0  0  0
  -30.8670  -12.2699   17.4863 N   0  0  0  0  0  0  0  0  0  0  0  0
  -26.8146  -10.3144   17.8739 N   0  0  0  0  0  0  0  0  0  0  0  0
  -31.0759  -18.1096   19.3998 N   0  0  0  0  0  0  0  0  0  0  0  0
  -23.7683  -32.1914   23.7318 N   0  0  0  0  0  0  0  0  0  0  0  0
  -20.3514  -28.6542   19.3902 N   0  0  0  0  0  0  0  0  0  0  0  0
  -20.7839  -28.2417   15.8251 N   0  3  0  0  0  0  0  0  0  0  0  0
  -30.7716  -24.8041   20.1118 O   0  0  0  0  0  0  0  0  0  0  0  0
  -27.0041  -21.4092   17.4306 O   0  0  0  0  0  0  0  0  0  0  0  0
  -28.7317  -10.3929   16.6180 O   0  0  0  0  0  0  0  0  0  0  0  0
  -24.1679  -29.9195   23.4129 O   0  0  0  0  0  0  0  0  0  0  0  0
  -20.8356  -30.8597   21.1537 O   0  0  0  0  0  0  0  0  0  0  0  0
  -21.7794  -27.2249   18.2523 O   0  0  0  0  0  0  0  0  0  0  0  0
  -33.0702  -18.2734   20.5734 O   0  0  0  0  0  0  0  0  0  0  0  0
  -23.0542  -11.2926   21.8662 O   0  0  0  0  0  0  0  0  0  0  0  0
  -28.3982  -27.2598   19.8470 O   0  0  0  0  0  0  0  0  0  1  0  0
  -21.5236   -6.0113   22.2773 F   0  0  0  0  0  0  0  0  0  0  0  0
  -22.4749  -10.1712   24.3257 F   0  0  0  0  0  0  0  0  0  0  0  0
  1  2  1  0  0  0  0
  1  5  2  0  0  0  0
  2  6  2  0  0  0  0
  3 10  2  0  0  0  0
  3 18  1  0  0  0  0
  4 11  1  0  0  0  0
  4 18  2  0  0  0  0
  5 21  1  0  0  0  0
  6 23  1  0  0  0  0
  7 12  2  0  0  0  0
  7 22  1  0  0  0  0
  8  9  2  0  0  0  0
  8 25  1  0  0  0  0
  9 26  1  0  0  0  0
 10 27  1  0  0  0  0
 11 27  2  0  0  0  0
 12 28  1  0  0  0  0
 13 14  2  0  0  0  0
 13 29  1  0  0  0  0
 14 30  1  0  0  0  0
 15 19  1  0  0  0  0
 15 26  2  0  0  0  0
 16 24  1  0  0  0  0
 16 28  2  0  0  0  0
 17 30  2  0  0  0  0
 17 31  1  0  0  0  0
 18 32  1  0  0  0  0
 19 25  2  0  0  0  0
 19 35  1  0  0  0  0
 20 32  1  0  0  0  0
 20 33  2  0  0  0  0
 20 36  1  0  0  0  0
 21 23  2  0  0  0  0
 21 41  1  0  0  0  0
 22 24  2  0  0  0  0
 22 42  1  0  0  0  0
 23 51  1  0  0  0  0
 24 43  1  0  0  0  0
 25 68  1  0  0  0  0
 26 73  1  0  0  0  0
 27 84  1  0  0  0  0
 28 85  1  0  0  0  0
 29 31  2  0  0  0  0
 29 84  1  0  0  0  0
 30 86  1  0  0  0  0
 31 87  1  0  0  0  0
 32 66  2  0  0  0  0
 33 67  1  0  0  0  0
 33 71  1  0  0  0  0
 34 54  1  0  0  0  0
 34 68  1  0  0  0  0
 34 77  2  0  0  0  0
 35 55  1  0  0  0  0
 35 78  2  0  0  0  0
 36 72  1  0  0  0  0
 36 79  2  0  0  0  0
 37 52  1  0  0  0  0
 37 74  1  0  0  0  0
 37 80  2  0  0  0  0
 38 63  1  0  0  0  0
 38 69  1  0  0  0  0
 38 81  2  0  0  0  0
 39 64  1  0  0  0  0
 39 75  1  0  0  0  0
 39 82  2  0  0  0  0
 40 70  1  0  0  0  0
 40 73  1  0  0  0  0
 40 83  2  0  0  0  0
 41 44  1  0  0  0  0
 42 52  1  0  0  0  0
 43 69  1  0  0  0  0
 44 46  1  0  0  0  0
 45 47  1  0  0  0  0
 45 48  1  0  0  0  0
 46 51  1  0  0  0  0
 47 53  1  0  0  0  0
 48 70  1  0  0  0  0
 49 53  1  0  0  0  0
 49 70  1  0  0  0  0
 50 54  1  0  0  0  0
 50 68  1  0  0  0  0
 51 74  1  0  0  0  0
 52 69  1  0  0  0  0
 53 67  1  0  0  0  0
 54 56  1  0  0  0  0
 54 62  1  0  0  0  0
 57 64  1  0  0  0  0
 58 65  1  0  0  0  0
 59 65  1  0  0  0  0
 60 65  1  0  0  0  0
 61 76  1  0  0  0  0
 62 85  1  0  0  0  0
 63 65  1  0  0  0  0
 63 75  1  0  0  0  0
 64 76  1  0  0  0  0
 66 67  1  0  0  0  0
M  CHG  1  76   1
M  ISO  4  40 100  62 101  73 100  85 101
M  END
> <Batch ID>
0072

> <Smiles>
CNC(C)C(=O)NC(C(=O)N1Cc2cc([101O:1][101CH2:1]C3(C)CN(c4ccc([100NH:0][100C:0](=O)N5CCCC(n6nc(-c7ccc(Oc8ccc(F)cc8F)cc7)c(C(N)=O)c6N)C5)cc4C(C)=O)C3=O)ccc2CC1C(=O)NC1CCCc2ccccc21)C(C)(C)C

> <Shape>
0.315

> <Color>
0.075

> <Negative vol penalty>
0.000

$$$$

  -OEChem-04042323383D

 88 97  0     1  0  0  0  0  0999 V2000
  -18.5243  -29.2180   18.2035 C   0  0  0  0  0  0  0  0  0  0  0  0
  -19.7158  -28.5311   18.4126 C   0  0  0  0  0  0  0  0  0  0  0  0
  -22.5936  -10.3011   20.2722 C   0  0  0  0  0  0  0  0  0  0  0  0
  -24.2413   -9.4979   21.8461 C   0  0  0  0  0  0  0  0  0  0  0  0
  -29.5177  -16.7617   19.8097 C   0  0  0  0  0  0  0  0  0  0  0  0
  -18.1694  -30.2691   19.0480 C   0  0  0  0  0  0  0  0  0  0  0  0
  -20.5538  -28.8957   19.4659 C   0  0  0  0  0  0  0  0  0  0  0  0
  -22.2906  -24.8957   22.0406 C   0  0  0  0  0  0  0  0  0  0  0  0
  -28.8472  -17.9110   19.3914 C   0  0  0  0  0  0  0  0  0  0  0  0
  -21.8092   -9.1743   20.5183 C   0  0  0  0  0  0  0  0  0  0  0  0
  -23.4568   -8.3711   22.0923 C   0  0  0  0  0  0  0  0  0  0  0  0
  -23.3370  -24.1748   21.4671 C   0  0  0  0  0  0  0  0  0  0  0  0
  -20.7048   -7.5998   23.8955 C   0  0  0  0  0  0  0  0  0  0  0  0
  -20.5278   -7.2129   25.2239 C   0  0  0  0  0  0  0  0  0  0  0  0
  -24.9026  -25.3142   22.9058 C   0  0  0  0  0  0  0  0  0  0  0  0
  -28.5081  -18.5521   21.6960 C   0  0  0  0  0  0  0  0  0  0  0  0
  -21.5408   -5.0744   24.7360 C   0  0  0  0  0  0  0  0  0  0  0  0
  -23.8098  -10.4629   20.9360 C   0  0  0  0  0  0  0  0  0  0  0  0
  -29.6834  -16.5075   21.1712 C   0  0  0  0  0  0  0  0  0  0  0  0
  -24.2626  -12.9728   20.8829 C   0  0  0  0  0  0  0  0  0  0  0  0
  -18.9989  -30.6405   20.1179 C   0  0  0  0  0  0  0  0  0  0  0  0
  -22.5439  -25.8408   23.0452 C   0  0  0  0  0  0  0  0  0  0  0  0
  -20.2104  -29.9536   20.3247 C   0  0  0  0  0  0  0  0  0  0  0  0
  -23.8573  -26.0440   23.4923 C   0  0  0  0  0  0  0  0  0  0  0  0
  -29.1787  -17.4027   22.1143 C   0  0  0  0  0  0  0  0  0  0  0  0
  -28.3424  -18.8062   20.3345 C   0  0  0  0  0  0  0  0  0  0  0  0
  -22.2407   -8.2094   21.4284 C   0  0  0  0  0  0  0  0  0  0  0  0
  -24.6436  -24.3860   21.8976 C   0  0  0  0  0  0  0  0  0  0  0  0
  -21.2997   -6.7240   22.9873 C   0  0  0  0  0  0  0  0  0  0  0  0
  -20.9458   -5.9502   25.6441 C   0  0  0  0  0  0  0  0  0  0  0  0
  -21.7177   -5.4613   23.4076 C   0  0  0  0  0  0  0  0  0  0  0  0
  -24.6208  -11.6263   20.6817 C   0  0  0  0  0  0  0  0  0  0  0  0
  -25.3708  -13.6847   20.4937 C   0  0  0  0  0  0  0  0  0  0  0  0
  -27.0940  -20.9770   20.7322 C   0  0  0  0  0  0  0  0  0  0  0  0
  -28.2410  -17.0593   24.1708 C   0  0  0  0  0  0  0  0  0  0  0  0
  -30.3878  -15.2991   21.5794 C   0  0  0  0  0  0  0  0  0  0  0  0
  -23.0377  -13.5301   21.3775 C   0  0  0  0  0  0  0  0  0  0  0  0
  -30.9246  -14.3471   20.5800 C   0  0  0  0  0  0  0  0  0  0  0  0
  -22.1302  -28.9797   23.3278 C   0  0  0  0  0  0  0  0  0  0  0  0
  -23.1001  -28.4399   26.3758 C   0  0  0  0  0  0  0  0  0  0  0  0
  -24.8142  -26.4586   28.5628 C   0  0  0  0  0  0  0  0  0  0  0  0
  -18.5959  -31.8140   20.9754 C   0  0  0  0  0  0  0  0  0  0  0  0
  -21.4011  -26.5910   23.6724 C   0  0  0  0  0  0  0  0  0  0  0  0
  -24.1801  -27.0325   24.5819 C   0  0  0  0  0  0  0  0  0  0  0  0
  -19.3587  -31.8943   22.2953 C   0  0  0  0  0  0  0  0  0  0  0  0
  -29.5379  -12.2305   18.0397 C   0  0  0  0  0  0  0  0  0  0  0  0
  -20.8523  -31.6902   22.0619 C   0  0  0  0  0  0  0  0  0  0  0  0
  -28.1179  -11.9642   18.5383 C   0  0  0  0  0  0  0  0  0  0  0  0
  -26.4161  -21.3701   18.4849 C   0  0  0  0  0  0  0  0  0  0  0  0
  -30.5235  -12.3479   19.1977 C   0  0  0  0  0  0  0  0  0  0  0  0
  -27.5095  -20.3207   18.5027 C   0  0  0  0  0  0  0  0  0  0  0  0
  -28.7189  -13.1152   20.7154 C   0  0  0  0  0  0  0  0  0  0  0  0
  -21.1340  -30.3033   21.4714 C   0  0  1  0  0  0  0  0  0  0  0  0
  -26.5995  -22.0846   19.8159 C   0  0  1  0  0  0  0  0  0  0  0  0
  -21.8332  -27.8988   24.3284 C   0  0  1  0  0  0  0  0  0  0  0  0
  -27.6902  -13.0180   19.5753 C   0  0  2  0  0  0  0  0  0  0  0  0
  -28.2810  -16.8052   25.6448 C   0  0  0  0  0  0  0  0  0  0  0  0
  -25.4616  -26.2958   30.9818 C   0  0  0  0  0  0  0  0  0  0  0  0
  -25.2139  -30.5992   25.9529 C   0  0  0  0  0  0  0  0  0  0  0  0
  -26.3967  -29.7414   27.9860 C   0  0  0  0  0  0  0  0  0  0  0  0
  -24.0879  -30.6646   28.1850 C   0  0  0  0  0  0  0  0  0  0  0  0
  -23.3779  -23.8923   28.8944 C   0  0  0  0  0  0  0  0  0  0  0  0
  -25.3300  -22.7473   20.3167 C   0  0  0  0  0  0  0  0  0  1  0  0
  -24.4324  -28.4144   27.0851 C   0  0  1  0  0  0  0  0  0  0  0  0
  -24.4401  -25.9041   29.9255 C   0  0  2  0  0  0  0  0  0  0  0  0
  -25.0272  -29.8376   27.2803 C   0  0  0  0  0  0  0  0  0  0  0  0
  -25.8596  -11.4885   20.2017 N   0  0  0  0  0  0  0  0  0  0  0  0
  -30.5924  -14.9790   22.8271 N   0  0  0  0  0  0  0  0  0  0  0  0
  -29.3346  -17.1658   23.4861 N   0  0  0  0  0  0  0  0  0  0  0  0
  -26.2895  -12.7576   20.0980 N   0  0  0  0  0  0  0  0  0  0  0  0
  -27.6575  -19.9827   19.9061 N   0  0  0  0  0  0  0  0  0  0  0  0
  -30.0695  -13.3295   20.1808 N   0  0  0  0  0  0  0  0  0  0  0  0
  -23.0291  -27.7461   25.1595 N   0  0  0  0  0  0  0  0  0  0  0  0
  -25.6392  -15.0072   20.4545 N   0  0  0  0  0  0  0  0  0  0  0  0
  -22.0010  -12.6561   21.7318 N   0  0  0  0  0  0  0  0  0  0  0  0
  -21.0658  -29.2911   22.5035 N   0  0  0  0  0  0  0  0  0  0  0  0
  -24.2194  -27.6802   28.3276 N   0  0  0  0  0  0  0  0  0  0  0  0
  -24.3622  -24.4167   29.8759 N   0  3  0  0  0  0  0  0  0  0  0  0
  -27.0355  -21.0409   21.9516 O   0  0  0  0  0  0  0  0  0  0  0  0
  -22.8617  -14.7674   21.4862 O   0  0  0  0  0  0  0  0  0  0  0  0
  -32.0721  -14.5608   20.2114 O   0  0  0  0  0  0  0  0  0  0  0  0
  -23.2422  -29.4941   23.3063 O   0  0  0  0  0  0  0  0  0  0  0  0
  -22.1550  -29.0469   26.8858 O   0  0  0  0  0  0  0  0  0  0  0  0
  -25.5625  -25.8690   27.7863 O   0  0  0  0  0  0  0  0  0  0  0  0
  -21.4754   -7.1098   21.6691 O   0  0  0  0  0  0  0  0  0  0  0  0
  -25.6669  -23.6842   21.3390 O   0  0  0  0  0  0  0  0  0  1  0  0
  -20.7772   -5.5794   26.9202 F   0  0  0  0  0  0  0  0  0  0  0  0
  -22.2910   -4.6161   22.5400 F   0  0  0  0  0  0  0  0  0  0  0  0
  1  2  1  0  0  0  0
  1  6  2  0  0  0  0
  2  7  2  0  0  0  0
  3 10  2  0  0  0  0
  3 18  1  0  0  0  0
  4 11  1  0  0  0  0
  4 18  2  0  0  0  0
  5  9  2  0  0  0  0
  5 19  1  0  0  0  0
  6 21  1  0  0  0  0
  7 23  1  0  0  0  0
  8 12  2  0  0  0  0
  8 22  1  0  0  0  0
  9 26  1  0  0  0  0
 10 27  1  0  0  0  0
 11 27  2  0  0  0  0
 12 28  1  0  0  0  0
 13 14  2  0  0  0  0
 13 29  1  0  0  0  0
 14 30  1  0  0  0  0
 15 24  1  0  0  0  0
 15 28  2  0  0  0  0
 16 25  1  0  0  0  0
 16 26  2  0  0  0  0
 17 30  2  0  0  0  0
 17 31  1  0  0  0  0
 18 32  1  0  0  0  0
 19 25  2  0  0  0  0
 19 36  1  0  0  0  0
 20 32  1  0  0  0  0
 20 33  2  0  0  0  0
 20 37  1  0  0  0  0
 21 23  2  0  0  0  0
 21 42  1  0  0  0  0
 22 24  2  0  0  0  0
 22 43  1  0  0  0  0
 23 53  1  0  0  0  0
 24 44  1  0  0  0  0
 25 69  1  0  0  0  0
 26 71  1  0  0  0  0
 27 85  1  0  0  0  0
 28 86  1  0  0  0  0
 29 31  2  0  0  0  0
 29 85  1  0  0  0  0
 30 87  1  0  0  0  0
 31 88  1  0  0  0  0
 32 67  2  0  0  0  0
 33 70  1  0  0  0  0
 33 74  1  0  0  0  0
 34 54  1  0  0  0  0
 34 71  1  0  0  0  0
 34 79  2  0  0  0  0
 35 57  1  0  0  0  0
 35 69  2  0  0  0  0
 36 38  1  0  0  0  0
 36 68  2  0  0  0  0
 37 75  1  0  0  0  0
 37 80  2  0  0  0  0
 38 72  1  0  0  0  0
 38 81  2  0  0  0  0
 39 55  1  0  0  0  0
 39 76  1  0  0  0  0
 39 82  2  0  0  0  0
 40 64  1  0  0  0  0
 40 73  1  0  0  0  0
 40 83  2  0  0  0  0
 41 65  1  0  0  0  0
 41 77  1  0  0  0  0
 41 84  2  0  0  0  0
 42 45  1  0  0  0  0
 43 55  1  0  0  0  0
 44 73  1  0  0  0  0
 45 47  1  0  0  0  0
 46 48  1  0  0  0  0
 46 50  1  0  0  0  0
 47 53  1  0  0  0  0
 48 56  1  0  0  0  0
 49 51  1  0  0  0  0
 49 54  1  0  0  0  0
 50 72  1  0  0  0  0
 51 71  1  0  0  0  0
 52 56  1  0  0  0  0
 52 72  1  0  0  0  0
 53 76  1  0  0  0  0
 54 63  1  0  0  0  0
 55 73  1  0  0  0  0
 56 70  1  0  0  0  0
 58 65  1  0  0  0  0
 59 66  1  0  0  0  0
 60 66  1  0  0  0  0
 61 66  1  0  0  0  0
 62 78  1  0  0  0  0
 63 86  1  0  0  0  0
 64 66  1  0  0  0  0
 64 77  1  0  0  0  0
 65 78  1  0  0  0  0
 67 70  1  0  0  0  0
M  CHG  1  78   1
M  ISO  4  36 100  38 100  63 101  86 101
M  END
> <Batch ID>
0072

> <Smiles>
CC=Nc1cc(N2CCC([101CH2:1][101O:1]c3ccc4c(c3)CN(C(=O)C(NC(=O)C(C)NC)C(C)(C)C)C(C(=O)NC3CCCc5ccccc53)C4)C2=O)ccc1[100C:0](=N)[100C:0](=O)N1CCCC(n2nc(-c3ccc(Oc4ccc(F)cc4F)cc3)c(C(N)=O)c2N)C1

> <Shape>
0.276

> <Color>
0.213

> <Negative vol penalty>
0.000

$$$$

  -OEChem-04042323383D

 85 93  0     1  0  0  0  0  0999 V2000
  -25.8758  -37.9602   23.4267 C   0  0  0  0  0  0  0  0  0  0  0  0
  -26.5643  -37.1498   22.5297 C   0  0  0  0  0  0  0  0  0  0  0  0
  -24.0249   -9.4855   22.0899 C   0  0  0  0  0  0  0  0  0  0  0  0
  -22.9418  -11.6448   22.1278 C   0  0  0  0  0  0  0  0  0  0  0  0
  -29.3021  -19.8010   21.4416 C   0  0  0  0  0  0  0  0  0  0  0  0
  -25.2173  -37.3903   24.5155 C   0  0  0  0  0  0  0  0  0  0  0  0
  -26.5956  -35.7690   22.7216 C   0  0  0  0  0  0  0  0  0  0  0  0
  -26.7967  -29.6246   19.0443 C   0  0  0  0  0  0  0  0  0  0  0  0
  -29.3927  -18.4885   20.9784 C   0  0  0  0  0  0  0  0  0  0  0  0
  -23.2503   -9.0779   23.1760 C   0  0  0  0  0  0  0  0  0  0  0  0
  -22.1672  -11.2372   23.2139 C   0  0  0  0  0  0  0  0  0  0  0  0
  -27.5271  -28.4397   18.9661 C   0  0  0  0  0  0  0  0  0  0  0  0
  -20.0956   -7.9874   23.7159 C   0  0  0  0  0  0  0  0  0  0  0  0
  -19.5136   -6.7210   23.6581 C   0  0  0  0  0  0  0  0  0  0  0  0
  -26.9335  -19.8056   20.9653 C   0  0  0  0  0  0  0  0  0  0  0  0
  -26.2869  -27.5587   20.8382 C   0  0  0  0  0  0  0  0  0  0  0  0
  -20.7182   -6.0766   25.6509 C   0  0  0  0  0  0  0  0  0  0  0  0
  -23.8707  -10.7690   21.5659 C   0  0  0  0  0  0  0  0  0  0  0  0
  -28.0724  -20.4596   21.4351 C   0  0  0  0  0  0  0  0  0  0  0  0
  -24.3574  -11.0577   19.0785 C   0  0  0  0  0  0  0  0  0  0  0  0
  -25.2324  -36.0009   24.7155 C   0  0  0  0  0  0  0  0  0  0  0  0
  -25.8118  -29.7900   20.0287 C   0  0  0  0  0  0  0  0  0  0  0  0
  -25.9378  -35.1801   23.8148 C   0  0  0  0  0  0  0  0  0  0  0  0
  -25.5437  -28.7458   20.9252 C   0  0  0  0  0  0  0  0  0  0  0  0
  -28.2537  -17.8345   20.5086 C   0  0  0  0  0  0  0  0  0  0  0  0
  -22.3214   -9.9537   23.7379 C   0  0  0  0  0  0  0  0  0  0  0  0
  -27.2743  -27.4076   19.8649 C   0  0  0  0  0  0  0  0  0  0  0  0
  -20.9889   -8.2983   24.7411 C   0  0  0  0  0  0  0  0  0  0  0  0
  -19.8249   -5.7657   24.6256 C   0  0  0  0  0  0  0  0  0  0  0  0
  -27.0241  -18.4931   20.5020 C   0  0  0  0  0  0  0  0  0  0  0  0
  -21.3002   -7.3429   25.7086 C   0  0  0  0  0  0  0  0  0  0  0  0
  -24.6709  -11.1908   20.4444 C   0  0  0  0  0  0  0  0  0  0  0  0
  -25.4319  -11.6091   18.4243 C   0  0  0  0  0  0  0  0  0  0  0  0
  -27.9755  -21.8498   21.9258 C   0  0  0  0  0  0  0  0  0  0  0  0
  -23.1985  -10.4869   18.4566 C   0  0  0  0  0  0  0  0  0  0  0  0
  -25.3923  -31.7821   22.4698 C   0  0  0  0  0  0  0  0  0  0  0  0
  -22.5213  -30.2884   22.6899 C   0  0  0  0  0  0  0  0  0  0  0  0
  -28.7446  -24.1967   21.6386 C   0  0  0  0  0  0  0  0  0  0  0  0
  -20.6430  -27.5123   22.0477 C   0  0  0  0  0  0  0  0  0  0  0  0
  -29.4938  -15.7066   19.9786 C   0  0  0  0  0  0  0  0  0  0  0  0
  -24.5456  -35.4352   25.9332 C   0  0  0  0  0  0  0  0  0  0  0  0
  -25.0143  -31.0641   20.0828 C   0  0  0  0  0  0  0  0  0  0  0  0
  -24.4829  -28.8655   21.9877 C   0  0  0  0  0  0  0  0  0  0  0  0
  -24.3132  -33.9285   25.8566 C   0  0  0  0  0  0  0  0  0  0  0  0
  -30.1341  -12.3668   18.9239 C   0  0  0  0  0  0  0  0  0  0  0  0
  -25.5767  -33.2168   25.3835 C   0  0  0  0  0  0  0  0  0  0  0  0
  -28.7759  -11.6757   19.0640 C   0  0  0  0  0  0  0  0  0  0  0  0
  -30.3714  -13.3826   20.0399 C   0  0  0  0  0  0  0  0  0  0  0  0
  -27.9465  -13.6861   20.3513 C   0  0  0  0  0  0  0  0  0  0  0  0
  -25.9740  -33.6758   23.9753 C   0  0  1  0  0  0  0  0  0  0  0  0
  -24.3893  -31.3202   21.4508 C   0  0  1  0  0  0  0  0  0  0  0  0
  -27.6346  -12.7008   19.2131 C   0  0  2  0  0  0  0  0  0  0  0  0
  -18.3407  -26.5713   22.3810 C   0  0  0  0  0  0  0  0  0  0  0  0
  -23.1727  -29.7388   25.6197 C   0  0  0  0  0  0  0  0  0  0  0  0
  -21.3443  -28.0285   25.6331 C   0  0  0  0  0  0  0  0  0  0  0  0
  -20.8064  -30.4233   25.1877 C   0  0  0  0  0  0  0  0  0  0  0  0
  -20.1856  -27.2904   19.1321 C   0  0  0  0  0  0  0  0  0  0  0  0
  -29.6710  -24.9750   20.7408 C   0  0  0  0  0  0  0  0  0  0  0  0
  -22.0023  -29.0716   23.4172 C   0  0  1  0  0  0  0  0  0  0  0  0
  -19.2570  -27.3501   21.4500 C   0  0  2  0  0  0  0  0  0  0  0  0
  -21.8528  -29.3137   24.9457 C   0  0  0  0  0  0  0  0  0  0  0  0
  -25.8522  -11.7803   20.6473 N   0  0  0  0  0  0  0  0  0  0  0  0
  -26.2904  -12.0225   19.4001 N   0  0  0  0  0  0  0  0  0  0  0  0
  -23.7343  -30.1331   22.0041 N   0  0  0  0  0  0  0  0  0  0  0  0
  -29.2520  -14.3237   20.1190 N   0  0  0  0  0  0  0  0  0  0  0  0
  -25.7167  -11.7757   17.1152 N   0  0  0  0  0  0  0  0  0  0  0  0
  -22.1888   -9.9652   19.2767 N   0  0  0  0  0  0  0  0  0  0  0  0
  -28.3493  -16.5011   20.0389 N   0  0  0  0  0  0  0  0  0  0  0  0
  -28.7041  -22.7899   21.3079 N   0  0  0  0  0  0  0  0  0  0  0  0
  -25.1360  -33.0400   22.9813 N   0  0  0  0  0  0  0  0  0  0  0  0
  -20.7621  -28.6941   22.7479 N   0  0  0  0  0  0  0  0  0  0  0  0
  -29.1847  -26.3423   20.6244 N   0  0  0  0  0  0  0  0  0  1  0  0
  -27.1682  -22.0878   22.9590 N   0  3  0  0  0  0  0  0  0  0  0  0
  -19.3348  -26.6236   20.1511 N   0  3  0  0  0  0  0  0  0  0  0  0
  -23.0698  -10.4259   17.2103 O   0  0  0  0  0  0  0  0  0  0  0  0
  -26.3285  -31.0509   22.7707 O   0  0  0  0  0  0  0  0  0  0  0  0
  -21.8708  -31.3359   22.7229 O   0  0  0  0  0  0  0  0  0  0  0  0
  -28.0800  -24.6548   22.5567 O   0  0  0  0  0  0  0  0  0  0  0  0
  -21.5301  -26.6728   21.9103 O   0  0  0  0  0  0  0  0  0  0  0  0
  -30.6290  -16.1511   19.7897 O   0  0  0  0  0  0  0  0  0  0  0  0
  -21.5652   -9.5562   24.7975 O   0  0  0  0  0  0  0  0  0  0  0  0
  -27.9862  -26.2502   19.7912 O   0  0  0  0  0  0  0  0  0  1  0  0
  -19.2648   -4.5502   24.5709 F   0  0  0  0  0  0  0  0  0  0  0  0
  -25.9232  -17.8747   20.0515 F   0  0  0  0  0  0  0  0  0  0  0  0
  -22.1567   -7.6362   26.6965 F   0  0  0  0  0  0  0  0  0  0  0  0
  1  2  1  0  0  0  0
  1  6  2  0  0  0  0
  2  7  2  0  0  0  0
  3 10  2  0  0  0  0
  3 18  1  0  0  0  0
  4 11  1  0  0  0  0
  4 18  2  0  0  0  0
  5  9  2  0  0  0  0
  5 19  1  0  0  0  0
  6 21  1  0  0  0  0
  7 23  1  0  0  0  0
  8 12  2  0  0  0  0
  8 22  1  0  0  0  0
  9 25  1  0  0  0  0
 10 26  1  0  0  0  0
 11 26  2  0  0  0  0
 12 27  1  0  0  0  0
 13 14  2  0  0  0  0
 13 28  1  0  0  0  0
 14 29  1  0  0  0  0
 15 19  2  0  0  0  0
 15 30  1  0  0  0  0
 16 24  1  0  0  0  0
 16 27  2  0  0  0  0
 17 29  2  0  0  0  0
 17 31  1  0  0  0  0
 18 32  1  0  0  0  0
 19 34  1  0  0  0  0
 20 32  1  0  0  0  0
 20 33  2  0  0  0  0
 20 35  1  0  0  0  0
 21 23  2  0  0  0  0
 21 41  1  0  0  0  0
 22 24  2  0  0  0  0
 22 42  1  0  0  0  0
 23 50  1  0  0  0  0
 24 43  1  0  0  0  0
 25 30  2  0  0  0  0
 25 68  1  0  0  0  0
 26 81  1  0  0  0  0
 27 82  1  0  0  0  0
 28 31  2  0  0  0  0
 28 81  1  0  0  0  0
 29 83  1  0  0  0  0
 30 84  1  0  0  0  0
 31 85  1  0  0  0  0
 32 62  2  0  0  0  0
 33 63  1  0  0  0  0
 33 66  1  0  0  0  0
 34 69  1  0  0  0  0
 34 73  2  0  0  0  0
 35 67  1  0  0  0  0
 35 75  2  0  0  0  0
 36 51  1  0  0  0  0
 36 70  1  0  0  0  0
 36 76  2  0  0  0  0
 37 59  1  0  0  0  0
 37 64  1  0  0  0  0
 37 77  2  0  0  0  0
 38 58  1  0  0  0  0
 38 69  1  0  0  0  0
 38 78  2  0  0  0  0
 39 60  1  0  0  0  0
 39 71  1  0  0  0  0
 39 79  2  0  0  0  0
 40 65  1  0  0  0  0
 40 68  1  0  0  0  0
 40 80  2  0  0  0  0
 41 44  1  0  0  0  0
 42 51  1  0  0  0  0
 43 64  1  0  0  0  0
 44 46  1  0  0  0  0
 45 47  1  0  0  0  0
 45 48  1  0  0  0  0
 46 50  1  0  0  0  0
 47 52  1  0  0  0  0
 48 65  1  0  0  0  0
 49 52  1  0  0  0  0
 49 65  1  0  0  0  0
 50 70  1  0  0  0  0
 51 64  1  0  0  0  0
 52 63  1  0  0  0  0
 53 60  1  0  0  0  0
 54 61  1  0  0  0  0
 55 61  1  0  0  0  0
 56 61  1  0  0  0  0
 57 74  1  0  0  0  0
 58 72  1  0  0  0  0
 59 61  1  0  0  0  0
 59 71  1  0  0  0  0
 60 74  1  0  0  0  0
 62 63  1  0  0  0  0
 72 82  1  0  0  0  0
M  CHG  2  73   1  74   1
M  ISO  4  40 100  68 100  72 101  82 101
M  END
> <Batch ID>
0072

> <Smiles>
CNC(C)C(=O)NC(C(=O)N1Cc2cc([101O:1][101NH:1]CC(=O)NC(=N)c3ccc([100NH:0][100C:0](=O)N4CCCC(n5nc(-c6ccc(Oc7ccc(F)cc7F)cc6)c(C(N)=O)c5N)C4)c(F)c3)ccc2CC1C(=O)NC1CCCc2ccccc21)C(C)(C)C

> <Shape>
0.339

> <Color>
0.083

> <Negative vol penalty>
0.000

$$$$

  -OEChem-04042323383D

 86 94  0     1  0  0  0  0  0999 V2000
  -17.2310  -26.5009   21.8890 C   0  0  0  0  0  0  0  0  0  0  0  0
  -18.5030  -26.0703   21.5256 C   0  0  0  0  0  0  0  0  0  0  0  0
  -25.9180   -8.4584   21.1053 C   0  0  0  0  0  0  0  0  0  0  0  0
  -26.4824   -9.1634   18.8644 C   0  0  0  0  0  0  0  0  0  0  0  0
  -28.0966  -20.7645   18.6602 C   0  0  0  0  0  0  0  0  0  0  0  0
  -30.1103  -19.4490   18.8874 C   0  0  0  0  0  0  0  0  0  0  0  0
  -16.9481  -27.8649   21.9468 C   0  0  0  0  0  0  0  0  0  0  0  0
  -19.4926  -27.0035   21.2187 C   0  0  0  0  0  0  0  0  0  0  0  0
  -25.4894  -26.5224   22.3646 C   0  0  0  0  0  0  0  0  0  0  0  0
  -27.3662  -19.7546   19.2863 C   0  0  0  0  0  0  0  0  0  0  0  0
  -29.3798  -18.4391   19.5136 C   0  0  0  0  0  0  0  0  0  0  0  0
  -25.5476   -7.2051   20.6177 C   0  0  0  0  0  0  0  0  0  0  0  0
  -26.1121   -7.9101   18.3768 C   0  0  0  0  0  0  0  0  0  0  0  0
  -26.5689  -26.1423   21.5685 C   0  0  0  0  0  0  0  0  0  0  0  0
  -24.1136   -3.9384   19.9135 C   0  0  0  0  0  0  0  0  0  0  0  0
  -22.9214   -3.3855   20.3810 C   0  0  0  0  0  0  0  0  0  0  0  0
  -27.0302  -28.4627   21.0969 C   0  0  0  0  0  0  0  0  0  0  0  0
  -21.7004   -5.2770   19.5044 C   0  0  0  0  0  0  0  0  0  0  0  0
  -26.3854   -9.4376   20.2286 C   0  0  0  0  0  0  0  0  0  0  0  0
  -29.4687  -20.6117   18.4606 C   0  0  0  0  0  0  0  0  0  0  0  0
  -28.0428  -11.1289   21.1773 C   0  0  0  0  0  0  0  0  0  0  0  0
  -17.9375  -28.8155   21.6498 C   0  0  0  0  0  0  0  0  0  0  0  0
  -25.1649  -27.8772   22.5244 C   0  0  0  0  0  0  0  0  0  0  0  0
  -19.2223  -28.3815   21.2713 C   0  0  0  0  0  0  0  0  0  0  0  0
  -25.9476  -28.8574   21.8976 C   0  0  0  0  0  0  0  0  0  0  0  0
  -28.0078  -18.5919   19.7131 C   0  0  0  0  0  0  0  0  0  0  0  0
  -25.6446   -6.9310   19.2535 C   0  0  0  0  0  0  0  0  0  0  0  0
  -27.3378  -27.1124   20.9321 C   0  0  0  0  0  0  0  0  0  0  0  0
  -24.0992   -5.1608   19.2416 C   0  0  0  0  0  0  0  0  0  0  0  0
  -21.7148   -4.0547   20.1764 C   0  0  0  0  0  0  0  0  0  0  0  0
  -22.8926   -5.8300   19.0370 C   0  0  0  0  0  0  0  0  0  0  0  0
  -26.7676  -10.7326   20.7316 C   0  0  0  0  0  0  0  0  0  0  0  0
  -27.8838  -12.4415   21.5493 C   0  0  0  0  0  0  0  0  0  0  0  0
  -30.2473  -21.6880   17.7931 C   0  0  0  0  0  0  0  0  0  0  0  0
  -29.2620  -10.3778   21.2485 C   0  0  0  0  0  0  0  0  0  0  0  0
  -30.2697  -23.6994   18.9263 C   0  0  0  0  0  0  0  0  0  0  0  0
  -29.8570  -25.1293   19.1564 C   0  0  0  0  0  0  0  0  0  0  0  0
  -22.6380  -29.6757   21.8291 C   0  0  0  0  0  0  0  0  0  0  0  0
  -24.3035  -31.9501   23.4340 C   0  0  0  0  0  0  0  0  0  0  0  0
  -27.3280  -33.1075   24.5110 C   0  0  0  0  0  0  0  0  0  0  0  0
  -25.8976  -17.5602   20.6238 C   0  0  0  0  0  0  0  0  0  0  0  0
  -17.5712  -30.2782   21.6802 C   0  0  0  0  0  0  0  0  0  0  0  0
  -24.0136  -28.2720   23.4081 C   0  0  0  0  0  0  0  0  0  0  0  0
  -25.6534  -30.3263   22.0533 C   0  0  0  0  0  0  0  0  0  0  0  0
  -18.7810  -31.2088   21.7034 C   0  0  0  0  0  0  0  0  0  0  0  0
  -23.6896  -15.2134   22.1385 C   0  0  0  0  0  0  0  0  0  0  0  0
  -19.8078  -30.7756   20.6618 C   0  0  0  0  0  0  0  0  0  0  0  0
  -24.3985  -13.8711   21.9442 C   0  0  0  0  0  0  0  0  0  0  0  0
  -23.8849  -16.1370   20.9374 C   0  0  0  0  0  0  0  0  0  0  0  0
  -25.9908  -15.0053   20.3425 C   0  0  0  0  0  0  0  0  0  0  0  0
  -20.3293  -29.3637   20.9552 C   0  0  1  0  0  0  0  0  0  0  0  0
  -23.4608  -29.6570   23.0862 C   0  0  1  0  0  0  0  0  0  0  0  0
  -25.8768  -14.0657   21.5541 C   0  0  2  0  0  0  0  0  0  0  0  0
  -32.6813  -23.3594   19.4513 C   0  0  0  0  0  0  0  0  0  0  0  0
  -28.3752  -35.0112   25.7665 C   0  0  0  0  0  0  0  0  0  0  0  0
  -23.9646  -33.7451   20.9900 C   0  0  0  0  0  0  0  0  0  0  0  0
  -25.7859  -35.2046   21.8961 C   0  0  0  0  0  0  0  0  0  0  0  0
  -23.6715  -34.9060   23.1856 C   0  0  0  0  0  0  0  0  0  0  0  0
  -28.3810  -31.2999   26.6045 C   0  0  0  0  0  0  0  0  0  0  0  0
  -31.2543  -23.1133   19.9061 C   0  0  0  0  0  0  0  0  0  0  0  0
  -28.6529  -25.3464   20.0334 C   0  0  0  0  0  0  0  0  0  1  0  0
  -25.3232  -32.9964   23.0539 C   0  0  1  0  0  0  0  0  0  0  0  0
  -27.7889  -33.6116   25.8666 C   0  0  2  0  0  0  0  0  0  0  0  0
  -24.6910  -34.1853   22.2767 C   0  0  0  0  0  0  0  0  0  0  0  0
  -25.8651  -11.7139   20.8125 N   0  0  0  0  0  0  0  0  0  0  0  0
  -29.8247  -22.9862   17.9376 N   0  0  0  0  0  0  0  0  0  0  0  0
  -26.5740  -12.7398   21.3133 N   0  0  0  0  0  0  0  0  0  0  0  0
  -24.5135  -30.6616   22.9225 N   0  0  0  0  0  0  0  0  0  0  0  0
  -25.3097  -16.2777   20.6289 N   0  0  0  0  0  0  0  0  0  0  0  0
  -28.7380  -13.3580   22.0520 N   0  0  0  0  0  0  0  0  0  0  0  0
  -29.2492   -9.0417   20.8258 N   0  0  0  0  0  0  0  0  0  0  0  0
  -27.2648  -17.5667   20.3492 N   0  0  0  0  0  0  0  0  0  0  0  0
  -21.2995  -29.3962   22.0286 N   0  0  0  0  0  0  0  0  0  0  0  0
  -25.9945  -33.3805   24.2909 N   0  0  0  0  0  0  0  0  0  0  0  0
  -31.2635  -21.4366   17.0460 N   0  3  0  0  0  0  0  0  0  0  0  0
  -28.8294  -32.7054   26.4298 N   0  3  0  0  0  0  0  0  0  0  0  0
  -30.3271  -10.8720   21.6899 O   0  0  0  0  0  0  0  0  0  0  0  0
  -30.5102  -26.0073   18.6135 O   0  0  0  0  0  0  0  0  0  0  0  0
  -23.1772  -29.9268   20.7577 O   0  0  0  0  0  0  0  0  0  0  0  0
  -23.3595  -32.2628   24.1639 O   0  0  0  0  0  0  0  0  0  0  0  0
  -28.0770  -32.5325   23.7242 O   0  0  0  0  0  0  0  0  0  0  0  0
  -25.2426  -18.5754   20.8734 O   0  0  0  0  0  0  0  0  0  0  0  0
  -25.2835   -5.7081   18.7774 O   0  0  0  0  0  0  0  0  0  0  0  0
  -28.3917  -26.7441   20.1539 O   0  0  0  0  0  0  0  0  0  1  0  0
  -20.5698   -3.5228   20.6240 F   0  0  0  0  0  0  0  0  0  0  0  0
  -22.8723   -7.0040   18.3911 F   0  0  0  0  0  0  0  0  0  0  0  0
  1  2  1  0  0  0  0
  1  7  2  0  0  0  0
  2  8  2  0  0  0  0
  3 12  2  0  0  0  0
  3 19  1  0  0  0  0
  4 13  1  0  0  0  0
  4 19  2  0  0  0  0
  5 10  2  0  0  0  0
  5 20  1  0  0  0  0
  6 11  1  0  0  0  0
  6 20  2  0  0  0  0
  7 22  1  0  0  0  0
  8 24  1  0  0  0  0
  9 14  2  0  0  0  0
  9 23  1  0  0  0  0
 10 26  1  0  0  0  0
 11 26  2  0  0  0  0
 12 27  1  0  0  0  0
 13 27  2  0  0  0  0
 14 28  1  0  0  0  0
 15 16  2  0  0  0  0
 15 29  1  0  0  0  0
 16 30  1  0  0  0  0
 17 25  1  0  0  0  0
 17 28  2  0  0  0  0
 18 30  2  0  0  0  0
 18 31  1  0  0  0  0
 19 32  1  0  0  0  0
 20 34  1  0  0  0  0
 21 32  1  0  0  0  0
 21 33  2  0  0  0  0
 21 35  1  0  0  0  0
 22 24  2  0  0  0  0
 22 42  1  0  0  0  0
 23 25  2  0  0  0  0
 23 43  1  0  0  0  0
 24 51  1  0  0  0  0
 25 44  1  0  0  0  0
 26 72  1  0  0  0  0
 27 83  1  0  0  0  0
 28 84  1  0  0  0  0
 29 31  2  0  0  0  0
 29 83  1  0  0  0  0
 30 85  1  0  0  0  0
 31 86  1  0  0  0  0
 32 65  2  0  0  0  0
 33 67  1  0  0  0  0
 33 70  1  0  0  0  0
 34 66  1  0  0  0  0
 34 75  2  0  0  0  0
 35 71  1  0  0  0  0
 35 77  2  0  0  0  0
 36 37  1  0  0  0  0
 36 60  1  0  0  0  0
 36 66  2  0  0  0  0
 37 61  1  0  0  0  0
 37 78  2  0  0  0  0
 38 52  1  0  0  0  0
 38 73  1  0  0  0  0
 38 79  2  0  0  0  0
 39 62  1  0  0  0  0
 39 68  1  0  0  0  0
 39 80  2  0  0  0  0
 40 63  1  0  0  0  0
 40 74  1  0  0  0  0
 40 81  2  0  0  0  0
 41 69  1  0  0  0  0
 41 72  1  0  0  0  0
 41 82  2  0  0  0  0
 42 45  1  0  0  0  0
 43 52  1  0  0  0  0
 44 68  1  0  0  0  0
 45 47  1  0  0  0  0
 46 48  1  0  0  0  0
 46 49  1  0  0  0  0
 47 51  1  0  0  0  0
 48 53  1  0  0  0  0
 49 69  1  0  0  0  0
 50 53  1  0  0  0  0
 50 69  1  0  0  0  0
 51 73  1  0  0  0  0
 52 68  1  0  0  0  0
 53 67  1  0  0  0  0
 54 60  1  0  0  0  0
 55 63  1  0  0  0  0
 56 64  1  0  0  0  0
 57 64  1  0  0  0  0
 58 64  1  0  0  0  0
 59 76  1  0  0  0  0
 61 84  1  0  0  0  0
 62 64  1  0  0  0  0
 62 74  1  0  0  0  0
 63 76  1  0  0  0  0
 65 67  1  0  0  0  0
M  CHG  2  75   1  76   1
M  ISO  4  41 100  61 101  72 100  84 101
M  END
> <Batch ID>
0072

> <Smiles>
C=CC(NC(=N)c1ccc([100NH:0][100C:0](=O)N2CCCC(n3nc(-c4ccc(Oc5ccc(F)cc5F)cc4)c(C(N)=O)c3N)C2)cc1)C(=O)[101CH2:1][101O:1]c1ccc2c(c1)CN(C(=O)C(NC(=O)C(C)NC)C(C)(C)C)C(C(=O)NC1CCCc3ccccc31)C2

> <Shape>
0.264

> <Color>
0.092

> <Negative vol penalty>
0.000

$$$$

  -OEChem-04042323383D

 87 96  0     1  0  0  0  0  0999 V2000
  -22.1761  -11.0542   20.5057 C   0  0  0  0  0  0  0  0  0  0  0  0
  -21.9658  -12.1769   21.2998 C   0  0  0  0  0  0  0  0  0  0  0  0
  -27.8661  -27.1118   20.0894 C   0  0  0  0  0  0  0  0  0  0  0  0
  -28.0020  -29.4693   19.5788 C   0  0  0  0  0  0  0  0  0  0  0  0
  -23.4352  -10.8162   19.9563 C   0  0  0  0  0  0  0  0  0  0  0  0
  -23.0150  -13.0618   21.5460 C   0  0  0  0  0  0  0  0  0  0  0  0
  -22.6300  -19.1396   22.1930 C   0  0  0  0  0  0  0  0  0  0  0  0
  -19.9991  -25.5862   27.0981 C   0  0  0  0  0  0  0  0  0  0  0  0
  -29.1170  -26.9131   19.5050 C   0  0  0  0  0  0  0  0  0  0  0  0
  -29.2528  -29.2707   18.9944 C   0  0  0  0  0  0  0  0  0  0  0  0
  -22.5854  -19.9621   23.3178 C   0  0  0  0  0  0  0  0  0  0  0  0
  -32.3601  -27.3677   20.3466 C   0  0  0  0  0  0  0  0  0  0  0  0
  -18.7886  -26.2646   26.9565 C   0  0  0  0  0  0  0  0  0  0  0  0
  -33.2764  -26.5699   21.0318 C   0  0  0  0  0  0  0  0  0  0  0  0
  -20.2755  -25.5785   24.6979 C   0  0  0  0  0  0  0  0  0  0  0  0
  -24.9659  -20.3136   23.1477 C   0  0  0  0  0  0  0  0  0  0  0  0
  -33.3530  -25.0478   19.1571 C   0  0  0  0  0  0  0  0  0  0  0  0
  -27.3086  -28.3899   20.1262 C   0  0  0  0  0  0  0  0  0  0  0  0
  -19.0649  -26.2568   24.5563 C   0  0  0  0  0  0  0  0  0  0  0  0
  -25.7459  -28.9030   22.0762 C   0  0  0  0  0  0  0  0  0  0  0  0
  -24.4979  -11.7037   20.1879 C   0  0  0  0  0  0  0  0  0  0  0  0
  -23.8467  -18.8886   21.5425 C   0  0  0  0  0  0  0  0  0  0  0  0
  -24.2899  -12.8348   21.0003 C   0  0  0  0  0  0  0  0  0  0  0  0
  -25.0229  -19.4895   22.0134 C   0  0  0  0  0  0  0  0  0  0  0  0
  -20.7426  -25.2432   25.9688 C   0  0  0  0  0  0  0  0  0  0  0  0
  -29.8104  -27.9926   18.9575 C   0  0  0  0  0  0  0  0  0  0  0  0
  -23.7539  -20.5470   23.7970 C   0  0  0  0  0  0  0  0  0  0  0  0
  -31.9402  -27.0056   19.0667 C   0  0  0  0  0  0  0  0  0  0  0  0
  -33.7729  -25.4100   20.4370 C   0  0  0  0  0  0  0  0  0  0  0  0
  -18.3215  -26.5999   25.6857 C   0  0  0  0  0  0  0  0  0  0  0  0
  -32.4367  -25.8457   18.4719 C   0  0  0  0  0  0  0  0  0  0  0  0
  -26.0163  -28.5956   20.7293 C   0  0  0  0  0  0  0  0  0  0  0  0
  -24.3770  -28.9964   22.1390 C   0  0  0  0  0  0  0  0  0  0  0  0
  -22.8419  -24.1362   25.0764 C   0  0  0  0  0  0  0  0  0  0  0  0
  -18.5700  -26.6124   23.2015 C   0  0  0  0  0  0  0  0  0  0  0  0
  -26.6512  -29.0879   23.1725 C   0  0  0  0  0  0  0  0  0  0  0  0
  -25.5899  -16.2934   20.9686 C   0  0  0  0  0  0  0  0  0  0  0  0
  -27.3821  -18.3585   19.2235 C   0  0  0  0  0  0  0  0  0  0  0  0
  -28.3675  -21.5767   18.6585 C   0  0  0  0  0  0  0  0  0  0  0  0
  -19.3033  -27.1475   20.8995 C   0  0  0  0  0  0  0  0  0  0  0  0
  -25.8533  -11.3794   19.6115 C   0  0  0  0  0  0  0  0  0  0  0  0
  -23.8737  -18.0204   20.3146 C   0  0  0  0  0  0  0  0  0  0  0  0
  -26.3513  -19.2682   21.3390 C   0  0  0  0  0  0  0  0  0  0  0  0
  -26.8153  -12.5647   19.6132 C   0  0  0  0  0  0  0  0  0  0  0  0
  -20.9085  -29.1278   18.4503 C   0  0  0  0  0  0  0  0  0  0  0  0
  -26.7909  -13.2701   20.9655 C   0  0  0  0  0  0  0  0  0  0  0  0
  -22.3583  -29.1998   18.9375 C   0  0  0  0  0  0  0  0  0  0  0  0
  -23.5916  -23.1801   27.1229 C   0  0  0  0  0  0  0  0  0  0  0  0
  -20.2909  -27.7541   18.7080 C   0  0  0  0  0  0  0  0  0  0  0  0
  -22.5369  -24.2285   27.4156 C   0  0  0  0  0  0  0  0  0  0  0  0
  -21.8434  -27.3443   20.5734 C   0  0  0  0  0  0  0  0  0  0  0  0
  -25.3966  -13.8311   21.2699 C   0  0  1  0  0  0  0  0  0  0  0  0
  -24.0863  -23.5639   25.7359 C   0  0  1  0  0  0  0  0  0  0  0  0
  -25.2489  -17.4214   20.0365 C   0  0  1  0  0  0  0  0  0  0  0  0
  -22.4875  -28.7293   20.4002 C   0  0  1  0  0  0  0  0  0  0  0  0
  -29.8699  -22.9476   17.1886 C   0  0  0  0  0  0  0  0  0  0  0  0
  -29.8046  -17.4053   20.8149 C   0  0  0  0  0  0  0  0  0  0  0  0
  -31.0448  -19.4227   20.0022 C   0  0  0  0  0  0  0  0  0  0  0  0
  -30.2225  -17.7250   18.3700 C   0  0  0  0  0  0  0  0  0  0  0  0
  -26.0891  -23.1245   17.5758 C   0  0  0  0  0  0  0  0  0  0  0  0
  -24.6804  -22.3963   24.9706 C   0  0  0  0  0  0  0  0  0  1  0  0
  -28.5629  -19.2546   19.5093 C   0  0  1  0  0  0  0  0  0  0  0  0
  -28.4683  -22.3897   17.3805 C   0  0  2  0  0  0  0  0  0  0  0  0
  -29.8842  -18.4547   19.6882 C   0  0  0  0  0  0  0  0  0  0  0  0
  -24.9081  -28.4998   19.9898 N   0  0  0  0  0  0  0  0  0  0  0  0
  -23.9281  -28.7484   20.8752 N   0  0  0  0  0  0  0  0  0  0  0  0
  -21.9813  -24.5495   26.1142 N   0  0  0  0  0  0  0  0  0  0  0  0
  -26.3270  -18.4063   20.1457 N   0  0  0  0  0  0  0  0  0  0  0  0
  -20.4462  -27.3865   20.1166 N   0  0  0  0  0  0  0  0  0  0  0  0
  -23.5256  -29.2654   23.1514 N   0  0  0  0  0  0  0  0  0  0  0  0
  -28.0259  -28.9561   22.9334 N   0  0  0  0  0  0  0  0  0  0  0  0
  -19.5558  -26.8450   22.2421 N   0  0  0  0  0  0  0  0  0  0  0  0
  -25.1702  -15.0528   20.5279 N   0  0  0  0  0  0  0  0  0  0  0  0
  -28.6004  -20.2368   18.4312 N   0  0  0  0  0  0  0  0  0  0  0  0
  -27.5092  -23.5298   17.4148 N   0  3  0  0  0  0  0  0  0  0  0  0
  -22.7149  -24.2426   23.8652 O   0  0  0  0  0  0  0  0  0  0  0  0
  -17.3598  -26.6423   22.9957 O   0  0  0  0  0  0  0  0  0  0  0  0
  -26.2519  -29.3455   24.3334 O   0  0  0  0  0  0  0  0  0  0  0  0
  -26.1908  -16.5307   22.0100 O   0  0  0  0  0  0  0  0  0  0  0  0
  -27.3922  -17.6479   18.2152 O   0  0  0  0  0  0  0  0  0  0  0  0
  -28.1116  -22.0805   19.7500 O   0  0  0  0  0  0  0  0  0  0  0  0
  -18.1556  -27.2334   20.4515 O   0  0  0  0  0  0  0  0  0  0  0  0
  -31.0311  -27.7991   18.3874 O   0  0  0  0  0  0  0  0  0  0  0  0
  -23.7133  -21.3498   24.8951 O   0  0  0  0  0  0  0  0  0  1  0  0
  -34.6539  -24.6447   21.0945 F   0  0  0  0  0  0  0  0  0  0  0  0
  -17.1569  -27.2518   25.5612 F   0  0  0  0  0  0  0  0  0  0  0  0
  -32.0379  -25.4933   17.2420 F   0  0  0  0  0  0  0  0  0  0  0  0
  1  2  1  0  0  0  0
  1  5  2  0  0  0  0
  2  6  2  0  0  0  0
  3  9  2  0  0  0  0
  3 18  1  0  0  0  0
  4 10  1  0  0  0  0
  4 18  2  0  0  0  0
  5 21  1  0  0  0  0
  6 23  1  0  0  0  0
  7 11  2  0  0  0  0
  7 22  1  0  0  0  0
  8 13  2  0  0  0  0
  8 25  1  0  0  0  0
  9 26  1  0  0  0  0
 10 26  2  0  0  0  0
 11 27  1  0  0  0  0
 12 14  2  0  0  0  0
 12 28  1  0  0  0  0
 13 30  1  0  0  0  0
 14 29  1  0  0  0  0
 15 19  1  0  0  0  0
 15 25  2  0  0  0  0
 16 24  1  0  0  0  0
 16 27  2  0  0  0  0
 17 29  2  0  0  0  0
 17 31  1  0  0  0  0
 18 32  1  0  0  0  0
 19 30  2  0  0  0  0
 19 35  1  0  0  0  0
 20 32  1  0  0  0  0
 20 33  2  0  0  0  0
 20 36  1  0  0  0  0
 21 23  2  0  0  0  0
 21 41  1  0  0  0  0
 22 24  2  0  0  0  0
 22 42  1  0  0  0  0
 23 52  1  0  0  0  0
 24 43  1  0  0  0  0
 25 67  1  0  0  0  0
 26 83  1  0  0  0  0
 27 84  1  0  0  0  0
 28 31  2  0  0  0  0
 28 83  1  0  0  0  0
 29 85  1  0  0  0  0
 30 86  1  0  0  0  0
 31 87  1  0  0  0  0
 32 65  2  0  0  0  0
 33 66  1  0  0  0  0
 33 70  1  0  0  0  0
 34 53  1  0  0  0  0
 34 67  1  0  0  0  0
 34 76  2  0  0  0  0
 35 72  1  0  0  0  0
 35 77  2  0  0  0  0
 36 71  1  0  0  0  0
 36 78  2  0  0  0  0
 37 54  1  0  0  0  0
 37 73  1  0  0  0  0
 37 79  2  0  0  0  0
 38 62  1  0  0  0  0
 38 68  1  0  0  0  0
 38 80  2  0  0  0  0
 39 63  1  0  0  0  0
 39 74  1  0  0  0  0
 39 81  2  0  0  0  0
 40 69  1  0  0  0  0
 40 72  1  0  0  0  0
 40 82  2  0  0  0  0
 41 44  1  0  0  0  0
 42 54  1  0  0  0  0
 43 68  1  0  0  0  0
 44 46  1  0  0  0  0
 45 47  1  0  0  0  0
 45 49  1  0  0  0  0
 46 52  1  0  0  0  0
 47 55  1  0  0  0  0
 48 50  1  0  0  0  0
 48 53  1  0  0  0  0
 49 69  1  0  0  0  0
 50 67  1  0  0  0  0
 51 55  1  0  0  0  0
 51 69  1  0  0  0  0
 52 73  1  0  0  0  0
 53 61  1  0  0  0  0
 54 68  1  0  0  0  0
 55 66  1  0  0  0  0
 56 63  1  0  0  0  0
 57 64  1  0  0  0  0
 58 64  1  0  0  0  0
 59 64  1  0  0  0  0
 60 75  1  0  0  0  0
 61 84  1  0  0  0  0
 62 64  1  0  0  0  0
 62 74  1  0  0  0  0
 63 75  1  0  0  0  0
 65 66  1  0  0  0  0
M  CHG  1  75   1
M  ISO  4  40 100  61 101  72 100  84 101
M  END
> <Batch ID>
0072

> <Smiles>
CNC(C)C(=O)NC(C(=O)N1Cc2cc([101O:1][101CH2:1]C3CCN(c4ccc(F)c(C(=O)[100NH:0][100C:0](=O)N5CCCC(n6nc(-c7ccc(Oc8ccc(F)cc8F)cc7)c(C(N)=O)c6N)C5)c4)C3=O)ccc2CC1C(=O)NC1CCCc2ccccc21)C(C)(C)C

> <Shape>
0.221

> <Color>
0.054

> <Negative vol penalty>
0.000

$$$$

  -OEChem-04042323383D

 87 96  0     1  0  0  0  0  0999 V2000
  -27.4050  -33.8620   28.1870 C   0  0  0  0  0  0  0  0  0  0  0  0
  -27.3870  -32.4909   28.4221 C   0  0  0  0  0  0  0  0  0  0  0  0
  -23.0689   -9.8874   19.9778 C   0  0  0  0  0  0  0  0  0  0  0  0
  -23.8198   -9.9332   22.2736 C   0  0  0  0  0  0  0  0  0  0  0  0
  -27.0886  -34.3554   26.9220 C   0  0  0  0  0  0  0  0  0  0  0  0
  -27.0514  -31.6125   27.3924 C   0  0  0  0  0  0  0  0  0  0  0  0
  -29.3333  -26.0091   26.4436 C   0  0  0  0  0  0  0  0  0  0  0  0
  -22.3120   -8.7474   20.2481 C   0  0  0  0  0  0  0  0  0  0  0  0
  -23.0629   -8.7932   22.5440 C   0  0  0  0  0  0  0  0  0  0  0  0
  -28.8556  -24.7367   26.7544 C   0  0  0  0  0  0  0  0  0  0  0  0
  -19.8242   -8.0415   23.1493 C   0  0  0  0  0  0  0  0  0  0  0  0
  -19.0623   -8.0334   24.3177 C   0  0  0  0  0  0  0  0  0  0  0  0
  -32.1192  -16.5801   22.4799 C   0  0  0  0  0  0  0  0  0  0  0  0
  -27.9417  -24.5432   24.5303 C   0  0  0  0  0  0  0  0  0  0  0  0
  -29.9232  -17.4719   23.0494 C   0  0  0  0  0  0  0  0  0  0  0  0
  -20.2804   -6.0985   25.0985 C   0  0  0  0  0  0  0  0  0  0  0  0
  -23.8229  -10.4803   20.9905 C   0  0  0  0  0  0  0  0  0  0  0  0
  -32.6696  -17.4828   23.3707 C   0  0  0  0  0  0  0  0  0  0  0  0
  -24.1917  -12.9987   20.8205 C   0  0  0  0  0  0  0  0  0  0  0  0
  -26.7584  -33.4820   25.8737 C   0  0  0  0  0  0  0  0  0  0  0  0
  -29.1090  -26.5634   25.1752 C   0  0  0  0  0  0  0  0  0  0  0  0
  -26.7290  -32.0948   26.1125 C   0  0  0  0  0  0  0  0  0  0  0  0
  -28.4198  -25.8217   24.2051 C   0  0  0  0  0  0  0  0  0  0  0  0
  -31.8640  -18.3714   24.0947 C   0  0  0  0  0  0  0  0  0  0  0  0
  -30.7308  -16.5800   22.3223 C   0  0  0  0  0  0  0  0  0  0  0  0
  -30.4899  -18.3798   23.9468 C   0  0  0  0  0  0  0  0  0  0  0  0
  -22.3089   -8.2003   21.5312 C   0  0  0  0  0  0  0  0  0  0  0  0
  -28.1571  -24.0047   25.7987 C   0  0  0  0  0  0  0  0  0  0  0  0
  -20.8142   -7.0781   22.9555 C   0  0  0  0  0  0  0  0  0  0  0  0
  -19.2904   -7.0619   25.2923 C   0  0  0  0  0  0  0  0  0  0  0  0
  -21.0423   -6.1067   23.9301 C   0  0  0  0  0  0  0  0  0  0  0  0
  -24.6054  -11.6576   20.7118 C   0  0  0  0  0  0  0  0  0  0  0  0
  -25.2930  -13.7292   20.4466 C   0  0  0  0  0  0  0  0  0  0  0  0
  -34.0494  -17.7239   23.7485 C   0  0  0  0  0  0  0  0  0  0  0  0
  -28.1345  -21.7088   25.3523 C   0  0  0  0  0  0  0  0  0  1  0  0
  -22.9250  -13.5362   21.2236 C   0  0  0  0  0  0  0  0  0  0  0  0
  -27.7509  -20.4398   25.5473 C   0  0  0  0  0  0  0  0  0  0  0  0
  -28.2895  -19.3756   24.6402 C   0  0  0  0  0  0  0  0  0  0  0  0
  -27.5691  -29.1217   24.0856 C   0  0  0  0  0  0  0  0  0  0  0  0
  -28.8653  -28.2137   21.2541 C   0  0  0  0  0  0  0  0  0  0  0  0
  -30.1634  -25.7101   19.3321 C   0  0  0  0  0  0  0  0  0  0  0  0
  -30.7692  -14.7212   20.6225 C   0  0  0  0  0  0  0  0  0  0  0  0
  -26.3775  -34.0649   24.5359 C   0  0  0  0  0  0  0  0  0  0  0  0
  -29.6541  -27.9263   24.8469 C   0  0  0  0  0  0  0  0  0  0  0  0
  -28.1702  -26.3634   22.8221 C   0  0  0  0  0  0  0  0  0  0  0  0
  -32.7267  -19.2238   24.9748 C   0  0  0  0  0  0  0  0  0  0  0  0
  -26.3975  -33.0458   23.3995 C   0  0  0  0  0  0  0  0  0  0  0  0
  -29.6387  -12.2713   18.2992 C   0  0  0  0  0  0  0  0  0  0  0  0
  -25.6883  -31.7627   23.8207 C   0  0  0  0  0  0  0  0  0  0  0  0
  -28.1944  -12.0036   18.7287 C   0  0  0  0  0  0  0  0  0  0  0  0
  -30.5515  -12.5150   19.4997 C   0  0  0  0  0  0  0  0  0  0  0  0
  -28.6469  -13.2873   20.8581 C   0  0  0  0  0  0  0  0  0  0  0  0
  -26.3942  -31.1086   25.0146 C   0  0  1  0  0  0  0  0  0  0  0  0
  -28.9217  -28.6001   23.6907 C   0  0  1  0  0  0  0  0  0  0  0  0
  -27.6769  -13.1002   19.6801 C   0  0  2  0  0  0  0  0  0  0  0  0
  -26.7621  -19.9931   26.5788 C   0  0  0  0  0  0  0  0  0  0  0  0
  -31.1023  -25.2653   17.0479 C   0  0  0  0  0  0  0  0  0  0  0  0
  -26.0475  -28.2807   20.0855 C   0  0  0  0  0  0  0  0  0  0  0  0
  -26.8958  -26.9457   18.1448 C   0  0  0  0  0  0  0  0  0  0  0  0
  -27.8193  -29.2196   18.5910 C   0  0  0  0  0  0  0  0  0  0  0  0
  -32.7772  -24.8764   20.4419 C   0  0  0  0  0  0  0  0  0  0  0  0
  -28.4386  -27.3075   20.1246 C   0  0  1  0  0  0  0  0  0  0  0  0
  -31.4223  -25.6387   18.4869 C   0  0  2  0  0  0  0  0  0  0  0  0
  -27.3031  -27.9287   19.2631 C   0  0  0  0  0  0  0  0  0  0  0  0
  -25.8708  -11.5400   20.3007 N   0  0  0  0  0  0  0  0  0  0  0  0
  -26.2617  -12.8167   20.1479 N   0  0  0  0  0  0  0  0  0  0  0  0
  -28.7175  -27.7031   22.5515 N   0  0  0  0  0  0  0  0  0  0  0  0
  -30.0000  -13.5693   20.3536 N   0  0  0  0  0  0  0  0  0  0  0  0
  -34.0852  -18.7095   24.6569 N   0  3  0  0  0  0  0  0  0  0  0  0
  -25.5177  -15.0567   20.3473 N   0  0  0  0  0  0  0  0  0  0  0  0
  -35.0806  -17.0601   23.2562 N   0  0  0  0  0  0  0  0  0  0  0  0
  -21.9023  -12.6447   21.5752 N   0  0  0  0  0  0  0  0  0  0  0  0
  -29.6730  -19.2765   24.6778 N   0  0  0  0  0  0  0  0  0  0  0  0
  -30.1284  -15.6694   21.4192 N   0  0  0  0  0  0  0  0  0  0  0  0
  -27.5857  -30.4127   24.5780 N   0  0  0  0  0  0  0  0  0  0  0  0
  -29.6501  -26.9891   19.3768 N   0  0  0  0  0  0  0  0  0  0  0  0
  -32.3599  -24.6205   19.0393 N   0  3  0  0  0  0  0  0  0  0  0  0
  -22.7015  -14.7701   21.2549 O   0  0  0  0  0  0  0  0  0  0  0  0
  -27.5029  -18.6757   24.0099 O   0  0  0  0  0  0  0  0  0  0  0  0
  -26.5831  -28.4064   23.9521 O   0  0  0  0  0  0  0  0  0  0  0  0
  -29.3198  -29.3307   20.9945 O   0  0  0  0  0  0  0  0  0  0  0  0
  -29.6813  -24.7288   19.8934 O   0  0  0  0  0  0  0  0  0  0  0  0
  -31.9018  -14.8686   20.1561 O   0  0  0  0  0  0  0  0  0  0  0  0
  -21.5703   -7.0880   21.7954 O   0  0  0  0  0  0  0  0  0  0  0  0
  -27.6891  -22.7628   26.0996 O   0  0  0  0  0  0  0  0  0  1  0  0
  -18.5598   -7.0552   26.4149 F   0  0  0  0  0  0  0  0  0  0  0  0
  -21.9928   -5.1793   23.7501 F   0  0  0  0  0  0  0  0  0  0  0  0
  1  2  1  0  0  0  0
  1  5  2  0  0  0  0
  2  6  2  0  0  0  0
  3  8  2  0  0  0  0
  3 17  1  0  0  0  0
  4  9  1  0  0  0  0
  4 17  2  0  0  0  0
  5 20  1  0  0  0  0
  6 22  1  0  0  0  0
  7 10  2  0  0  0  0
  7 21  1  0  0  0  0
  8 27  1  0  0  0  0
  9 27  2  0  0  0  0
 10 28  1  0  0  0  0
 11 12  2  0  0  0  0
 11 29  1  0  0  0  0
 12 30  1  0  0  0  0
 13 18  2  0  0  0  0
 13 25  1  0  0  0  0
 14 23  1  0  0  0  0
 14 28  2  0  0  0  0
 15 25  2  0  0  0  0
 15 26  1  0  0  0  0
 16 30  2  0  0  0  0
 16 31  1  0  0  0  0
 17 32  1  0  0  0  0
 18 24  1  0  0  0  0
 18 34  1  0  0  0  0
 19 32  1  0  0  0  0
 19 33  2  0  0  0  0
 19 36  1  0  0  0  0
 20 22  2  0  0  0  0
 20 43  1  0  0  0  0
 21 23  2  0  0  0  0
 21 44  1  0  0  0  0
 22 53  1  0  0  0  0
 23 45  1  0  0  0  0
 24 26  2  0  0  0  0
 24 46  1  0  0  0  0
 25 74  1  0  0  0  0
 26 73  1  0  0  0  0
 27 84  1  0  0  0  0
 28 85  1  0  0  0  0
 29 31  2  0  0  0  0
 29 84  1  0  0  0  0
 30 86  1  0  0  0  0
 31 87  1  0  0  0  0
 32 65  2  0  0  0  0
 33 66  1  0  0  0  0
 33 70  1  0  0  0  0
 34 69  2  0  0  0  0
 34 71  1  0  0  0  0
 35 37  2  0  0  0  0
 35 85  1  0  0  0  0
 36 72  1  0  0  0  0
 36 78  2  0  0  0  0
 37 38  1  0  0  0  0
 37 56  1  0  0  0  0
 38 73  1  0  0  0  0
 38 79  2  0  0  0  0
 39 54  1  0  0  0  0
 39 75  1  0  0  0  0
 39 80  2  0  0  0  0
 40 62  1  0  0  0  0
 40 67  1  0  0  0  0
 40 81  2  0  0  0  0
 41 63  1  0  0  0  0
 41 76  1  0  0  0  0
 41 82  2  0  0  0  0
 42 68  1  0  0  0  0
 42 74  1  0  0  0  0
 42 83  2  0  0  0  0
 43 47  1  0  0  0  0
 44 54  1  0  0  0  0
 45 67  1  0  0  0  0
 46 69  1  0  0  0  0
 47 49  1  0  0  0  0
 48 50  1  0  0  0  0
 48 51  1  0  0  0  0
 49 53  1  0  0  0  0
 50 55  1  0  0  0  0
 51 68  1  0  0  0  0
 52 55  1  0  0  0  0
 52 68  1  0  0  0  0
 53 75  1  0  0  0  0
 54 67  1  0  0  0  0
 55 66  1  0  0  0  0
 57 63  1  0  0  0  0
 58 64  1  0  0  0  0
 59 64  1  0  0  0  0
 60 64  1  0  0  0  0
 61 77  1  0  0  0  0
 62 64  1  0  0  0  0
 62 76  1  0  0  0  0
 63 77  1  0  0  0  0
 65 66  1  0  0  0  0
M  CHG  2  69   1  77   1
M  ISO  4  35 101  42 100  74 100  85 101
M  END
> <Batch ID>
0072

> <Smiles>
CNC(C)C(=O)NC(C(=O)N1Cc2cc([101O:1][101CH:1]=C(C)C(=O)Nc3cc([100NH:0][100C:0](=O)N4CCCC(n5nc(-c6ccc(Oc7ccc(F)cc7F)cc6)c(C(N)=O)c5N)C4)cc4c3CNC4=N)ccc2CC1C(=O)NC1CCCc2ccccc21)C(C)(C)C

> <Shape>
0.297

> <Color>
0.176

> <Negative vol penalty>
0.000

$$$$

  -OEChem-04042323383D

 85 94  0     1  0  0  0  0  0999 V2000
  -28.9072  -24.3839   17.8423 C   0  0  0  0  0  0  0  0  0  0  0  0
  -27.6629  -24.5937   18.4279 C   0  0  0  0  0  0  0  0  0  0  0  0
  -28.0746  -19.0158   22.8990 C   0  0  0  0  0  0  0  0  0  0  0  0
  -26.9686  -21.0595   22.2378 C   0  0  0  0  0  0  0  0  0  0  0  0
  -30.0413  -24.9895   18.3818 C   0  0  0  0  0  0  0  0  0  0  0  0
  -27.5520  -25.4083   19.5542 C   0  0  0  0  0  0  0  0  0  0  0  0
  -23.6475  -28.6190   19.2527 C   0  0  0  0  0  0  0  0  0  0  0  0
  -28.8186  -19.0367   21.7194 C   0  0  0  0  0  0  0  0  0  0  0  0
  -27.7127  -21.0805   21.0582 C   0  0  0  0  0  0  0  0  0  0  0  0
  -22.3778  -28.1034   19.5096 C   0  0  0  0  0  0  0  0  0  0  0  0
  -30.7510  -18.3594   18.7143 C   0  0  0  0  0  0  0  0  0  0  0  0
  -30.8774  -17.1655   18.0042 C   0  0  0  0  0  0  0  0  0  0  0  0
  -22.4700  -29.0064   21.7446 C   0  0  0  0  0  0  0  0  0  0  0  0
  -16.8607  -22.4011   22.9376 C   0  0  0  0  0  0  0  0  0  0  0  0
  -17.6869  -20.4110   24.0302 C   0  0  0  0  0  0  0  0  0  0  0  0
  -19.1006  -22.3612   23.8422 C   0  0  0  0  0  0  0  0  0  0  0  0
  -28.4768  -17.0613   17.7521 C   0  0  0  0  0  0  0  0  0  0  0  0
  -27.1495  -20.0272   23.1583 C   0  0  0  0  0  0  0  0  0  0  0  0
  -26.7244  -20.5912   25.6095 C   0  0  0  0  0  0  0  0  0  0  0  0
  -29.9429  -25.8198   19.5095 C   0  0  0  0  0  0  0  0  0  0  0  0
  -24.3436  -29.3240   20.2451 C   0  0  0  0  0  0  0  0  0  0  0  0
  -28.6860  -26.0245   20.1101 C   0  0  0  0  0  0  0  0  0  0  0  0
  -23.7472  -29.5321   21.4970 C   0  0  0  0  0  0  0  0  0  0  0  0
  -16.6649  -21.0877   23.3644 C   0  0  0  0  0  0  0  0  0  0  0  0
  -18.0786  -23.0378   23.1764 C   0  0  0  0  0  0  0  0  0  0  0  0
  -18.9048  -21.0477   24.2691 C   0  0  0  0  0  0  0  0  0  0  0  0
  -28.6377  -20.0691   20.7990 C   0  0  0  0  0  0  0  0  0  0  0  0
  -21.7901  -28.2946   20.7566 C   0  0  0  0  0  0  0  0  0  0  0  0
  -29.4875  -18.9042   18.9434 C   0  0  0  0  0  0  0  0  0  0  0  0
  -29.7403  -16.5165   17.5231 C   0  0  0  0  0  0  0  0  0  0  0  0
  -28.3504  -18.2552   18.4623 C   0  0  0  0  0  0  0  0  0  0  0  0
  -26.3802  -20.0058   24.3764 C   0  0  0  0  0  0  0  0  0  0  0  0
  -25.6712  -20.2904   26.4382 C   0  0  0  0  0  0  0  0  0  0  0  0
  -19.3991  -25.1071   22.9055 C   0  0  0  0  0  0  0  0  0  0  0  0
  -19.2554  -26.3308   22.3788 C   0  0  0  0  0  0  0  0  0  0  0  0
  -17.9191  -26.4285   21.8115 C   0  0  0  0  0  0  0  0  0  0  0  0
  -17.3710  -27.4781   21.1911 C   0  0  0  0  0  0  0  0  0  0  0  0
  -27.8917  -21.3401   25.9734 C   0  0  0  0  0  0  0  0  0  0  0  0
  -27.0835  -28.8942   21.7982 C   0  0  0  0  0  0  0  0  0  0  0  0
  -26.4079  -31.8275   23.0072 C   0  0  0  0  0  0  0  0  0  0  0  0
  -24.0523  -34.1821   23.7515 C   0  0  0  0  0  0  0  0  0  0  0  0
  -19.9116  -19.0548   25.4356 C   0  0  0  0  0  0  0  0  0  0  0  0
  -31.2035  -26.4147   20.0851 C   0  0  0  0  0  0  0  0  0  0  0  0
  -25.7012  -29.8969   19.9434 C   0  0  0  0  0  0  0  0  0  0  0  0
  -24.4442  -30.2993   22.5897 C   0  0  0  0  0  0  0  0  0  0  0  0
  -17.2280  -25.0958   22.0494 C   0  0  0  0  0  0  0  0  0  0  0  0
  -30.9464  -27.5641   21.0562 C   0  0  0  0  0  0  0  0  0  0  0  0
  -22.2699  -16.9895   27.1238 C   0  0  0  0  0  0  0  0  0  0  0  0
  -29.8448  -27.1923   22.0438 C   0  0  0  0  0  0  0  0  0  0  0  0
  -23.6227  -17.5857   26.7280 C   0  0  0  0  0  0  0  0  0  0  0  0
  -21.2678  -17.0428   25.9720 C   0  0  0  0  0  0  0  0  0  0  0  0
  -22.4398  -18.9648   24.9713 C   0  0  0  0  0  0  0  0  0  0  0  0
  -28.5215  -26.9214   21.3179 C   0  0  1  0  0  0  0  0  0  0  0  0
  -26.5323  -30.1558   21.1963 C   0  0  1  0  0  0  0  0  0  0  0  0
  -23.4621  -18.9925   26.1193 C   0  0  2  0  0  0  0  0  0  0  0  0
  -15.3627  -20.4071   23.1089 C   0  0  0  0  0  0  0  0  0  0  0  0
  -23.7988  -36.4622   24.7684 C   0  0  0  0  0  0  0  0  0  0  0  0
  -26.7529  -30.6225   25.7891 C   0  0  0  0  0  0  0  0  0  0  0  0
  -25.5845  -32.6284   26.7268 C   0  0  0  0  0  0  0  0  0  0  0  0
  -27.7444  -32.9013   25.5090 C   0  0  0  0  0  0  0  0  0  0  0  0
  -22.9633  -35.3081   21.2405 C   0  0  0  0  0  0  0  0  0  0  0  0
  -20.2643  -27.4207   22.3579 C   0  0  0  0  0  0  0  0  0  1  0  0
  -25.6503  -32.3403   24.2081 C   0  0  1  0  0  0  0  0  0  0  0  0
  -24.0006  -35.6752   23.4828 C   0  0  2  0  0  0  0  0  0  0  0  0
  -26.4204  -32.1069   25.5385 C   0  0  0  0  0  0  0  0  0  0  0  0
  -25.2007  -19.3802   24.4139 N   0  0  0  0  0  0  0  0  0  0  0  0
  -24.7945  -19.5708   25.6807 N   0  0  0  0  0  0  0  0  0  0  0  0
  -18.2709  -24.3297   22.7564 N   0  0  0  0  0  0  0  0  0  0  0  0
  -25.7726  -30.8343   22.2483 N   0  0  0  0  0  0  0  0  0  0  0  0
  -21.1648  -18.4068   25.4487 N   0  0  0  0  0  0  0  0  0  0  0  0
  -25.4187  -20.5738   27.7338 N   0  0  0  0  0  0  0  0  0  0  0  0
  -28.8764  -21.5572   25.0000 N   0  0  0  0  0  0  0  0  0  0  0  0
  -19.9425  -20.3601   24.9458 N   0  0  0  0  0  0  0  0  0  0  0  0
  -27.8874  -28.1666   20.9415 N   0  0  0  0  0  0  0  0  0  0  0  0
  -25.3459  -33.7400   23.9315 N   0  0  0  0  0  0  0  0  0  0  0  0
  -22.8797  -35.9960   22.5546 N   0  3  0  0  0  0  0  0  0  0  0  0
  -28.0641  -21.7889   27.1319 O   0  0  0  0  0  0  0  0  0  0  0  0
  -26.8015  -28.6032   22.9547 O   0  0  0  0  0  0  0  0  0  0  0  0
  -27.5191  -32.2961   22.7479 O   0  0  0  0  0  0  0  0  0  0  0  0
  -23.0455  -33.4789   23.8008 O   0  0  0  0  0  0  0  0  0  0  0  0
  -18.8912  -18.5027   25.8551 O   0  0  0  0  0  0  0  0  0  0  0  0
  -29.3637  -20.0900   19.6479 O   0  0  0  0  0  0  0  0  0  0  0  0
  -20.5512  -27.7918   21.0102 O   0  0  0  0  0  0  0  0  0  1  0  0
  -29.8619  -15.3708   16.8398 F   0  0  0  0  0  0  0  0  0  0  0  0
  -27.1340  -18.7744   18.6782 F   0  0  0  0  0  0  0  0  0  0  0  0
  1  2  1  0  0  0  0
  1  5  2  0  0  0  0
  2  6  2  0  0  0  0
  3  8  2  0  0  0  0
  3 18  1  0  0  0  0
  4  9  1  0  0  0  0
  4 18  2  0  0  0  0
  5 20  1  0  0  0  0
  6 22  1  0  0  0  0
  7 10  2  0  0  0  0
  7 21  1  0  0  0  0
  8 27  1  0  0  0  0
  9 27  2  0  0  0  0
 10 28  1  0  0  0  0
 11 12  2  0  0  0  0
 11 29  1  0  0  0  0
 12 30  1  0  0  0  0
 13 23  1  0  0  0  0
 13 28  2  0  0  0  0
 14 24  2  0  0  0  0
 14 25  1  0  0  0  0
 15 24  1  0  0  0  0
 15 26  2  0  0  0  0
 16 25  2  0  0  0  0
 16 26  1  0  0  0  0
 17 30  2  0  0  0  0
 17 31  1  0  0  0  0
 18 32  1  0  0  0  0
 19 32  1  0  0  0  0
 19 33  2  0  0  0  0
 19 38  1  0  0  0  0
 20 22  2  0  0  0  0
 20 43  1  0  0  0  0
 21 23  2  0  0  0  0
 21 44  1  0  0  0  0
 22 53  1  0  0  0  0
 23 45  1  0  0  0  0
 24 56  1  0  0  0  0
 25 68  1  0  0  0  0
 26 73  1  0  0  0  0
 27 82  1  0  0  0  0
 28 83  1  0  0  0  0
 29 31  2  0  0  0  0
 29 82  1  0  0  0  0
 30 84  1  0  0  0  0
 31 85  1  0  0  0  0
 32 66  2  0  0  0  0
 33 67  1  0  0  0  0
 33 71  1  0  0  0  0
 34 35  2  0  0  0  0
 34 68  1  0  0  0  0
 35 36  1  0  0  0  0
 35 62  1  0  0  0  0
 36 37  2  0  0  0  0
 36 46  1  0  0  0  0
 38 72  1  0  0  0  0
 38 77  2  0  0  0  0
 39 54  1  0  0  0  0
 39 74  1  0  0  0  0
 39 78  2  0  0  0  0
 40 63  1  0  0  0  0
 40 69  1  0  0  0  0
 40 79  2  0  0  0  0
 41 64  1  0  0  0  0
 41 75  1  0  0  0  0
 41 80  2  0  0  0  0
 42 70  1  0  0  0  0
 42 73  1  0  0  0  0
 42 81  2  0  0  0  0
 43 47  1  0  0  0  0
 44 54  1  0  0  0  0
 45 69  1  0  0  0  0
 46 68  1  0  0  0  0
 47 49  1  0  0  0  0
 48 50  1  0  0  0  0
 48 51  1  0  0  0  0
 49 53  1  0  0  0  0
 50 55  1  0  0  0  0
 51 70  1  0  0  0  0
 52 55  1  0  0  0  0
 52 70  1  0  0  0  0
 53 74  1  0  0  0  0
 54 69  1  0  0  0  0
 55 67  1  0  0  0  0
 57 64  1  0  0  0  0
 58 65  1  0  0  0  0
 59 65  1  0  0  0  0
 60 65  1  0  0  0  0
 61 76  1  0  0  0  0
 62 83  1  0  0  0  0
 63 65  1  0  0  0  0
 63 75  1  0  0  0  0
 64 76  1  0  0  0  0
 66 67  1  0  0  0  0
M  CHG  1  76   1
M  ISO  4  42 100  62 101  73 100  83 101
M  END
> <Batch ID>
0072

> <Smiles>
C=C1CN(c2cc(C)cc([100NH:0][100C:0](=O)N3CCCC(n4nc(-c5ccc(Oc6ccc(F)cc6F)cc5)c(C(N)=O)c4N)C3)c2)C=C1[101CH2:1][101O:1]c1ccc2c(c1)CN(C(=O)C(NC(=O)C(C)NC)C(C)(C)C)C(C(=O)NC1CCCc3ccccc31)C2

> <Shape>
0.247

> <Color>
0.060

> <Negative vol penalty>
0.000

$$$$

  -OEChem-04042323383D

 85 94  0     1  0  0  0  0  0999 V2000
  -29.3264  -12.3137   19.2095 C   0  0  0  0  0  0  0  0  0  0  0  0
  -29.2536  -13.6893   19.0149 C   0  0  0  0  0  0  0  0  0  0  0  0
  -29.6640  -25.1196   20.0868 C   0  0  0  0  0  0  0  0  0  0  0  0
  -27.9533  -23.7769   21.1393 C   0  0  0  0  0  0  0  0  0  0  0  0
  -28.2068  -11.6140   19.6574 C   0  0  0  0  0  0  0  0  0  0  0  0
  -28.0607  -14.3658   19.2671 C   0  0  0  0  0  0  0  0  0  0  0  0
  -25.6087  -20.6831   21.5900 C   0  0  0  0  0  0  0  0  0  0  0  0
  -18.4605  -26.7964   22.3606 C   0  0  0  0  0  0  0  0  0  0  0  0
  -30.6467  -24.2858   20.6202 C   0  0  0  0  0  0  0  0  0  0  0  0
  -28.9361  -22.9430   21.6727 C   0  0  0  0  0  0  0  0  0  0  0  0
  -24.7283  -21.6988   21.2199 C   0  0  0  0  0  0  0  0  0  0  0  0
  -30.9767  -20.2500   23.0150 C   0  0  0  0  0  0  0  0  0  0  0  0
  -17.8802  -27.6294   23.3171 C   0  0  0  0  0  0  0  0  0  0  0  0
  -30.7737  -18.8724   22.9333 C   0  0  0  0  0  0  0  0  0  0  0  0
  -22.8814  -20.3982   22.0664 C   0  0  0  0  0  0  0  0  0  0  0  0
  -19.7590  -29.1383   23.1430 C   0  0  0  0  0  0  0  0  0  0  0  0
  -30.6955  -19.0268   20.5235 C   0  0  0  0  0  0  0  0  0  0  0  0
  -28.3173  -24.8652   20.3464 C   0  0  0  0  0  0  0  0  0  0  0  0
  -26.6485  -25.5868   18.5569 C   0  0  0  0  0  0  0  0  0  0  0  0
  -27.0023  -12.2837   19.9244 C   0  0  0  0  0  0  0  0  0  0  0  0
  -25.1299  -19.5107   22.1922 C   0  0  0  0  0  0  0  0  0  0  0  0
  -26.9235  -13.6742   19.7177 C   0  0  0  0  0  0  0  0  0  0  0  0
  -23.7580  -19.3702   22.4456 C   0  0  0  0  0  0  0  0  0  0  0  0
  -19.6902  -27.1343   21.7953 C   0  0  0  0  0  0  0  0  0  0  0  0
  -20.3394  -28.3053   22.1865 C   0  0  0  0  0  0  0  0  0  0  0  0
  -30.2828  -23.1974   21.4131 C   0  0  0  0  0  0  0  0  0  0  0  0
  -23.3641  -21.5553   21.4554 C   0  0  0  0  0  0  0  0  0  0  0  0
  -31.0391  -21.0160   21.8509 C   0  0  0  0  0  0  0  0  0  0  0  0
  -18.5294  -28.8004   23.7083 C   0  0  0  0  0  0  0  0  0  0  0  0
  -30.6331  -18.2608   21.6876 C   0  0  0  0  0  0  0  0  0  0  0  0
  -30.8985  -20.4044   20.6052 C   0  0  0  0  0  0  0  0  0  0  0  0
  -27.3017  -25.7265   19.7961 C   0  0  0  0  0  0  0  0  0  0  0  0
  -25.7806  -26.6500   18.5044 C   0  0  0  0  0  0  0  0  0  0  0  0
  -21.7620  -25.0404   18.8391 C   0  0  0  0  0  0  0  0  0  0  0  0
  -21.9747  -24.6673   20.1120 C   0  0  0  0  0  0  0  0  0  0  0  0
  -26.8118  -24.5855   17.5438 C   0  0  0  0  0  0  0  0  0  0  0  0
  -25.1424  -16.4269   21.4217 C   0  0  0  0  0  0  0  0  0  0  0  0
  -23.8844  -16.0799   24.3914 C   0  0  0  0  0  0  0  0  0  0  0  0
  -22.1613  -17.4702   26.9885 C   0  0  0  0  0  0  0  0  0  0  0  0
  -22.3501  -29.7996   21.9208 C   0  0  0  0  0  0  0  0  0  0  0  0
  -25.8050  -11.4776   20.3618 C   0  0  0  0  0  0  0  0  0  0  0  0
  -26.0956  -18.4357   22.6099 C   0  0  0  0  0  0  0  0  0  0  0  0
  -23.1957  -18.1398   23.1077 C   0  0  0  0  0  0  0  0  0  0  0  0
  -20.6635  -25.9767   18.4440 C   0  0  0  0  0  0  0  0  0  0  0  0
  -21.1494  -25.1989   21.2616 C   0  0  0  0  0  0  0  0  0  0  0  0
  -24.6873  -12.3250   20.9643 C   0  0  0  0  0  0  0  0  0  0  0  0
  -25.4933  -31.0301   20.7881 C   0  0  0  0  0  0  0  0  0  0  0  0
  -24.4158  -13.5476   20.0935 C   0  0  0  0  0  0  0  0  0  0  0  0
  -26.2176  -29.7753   20.2952 C   0  0  0  0  0  0  0  0  0  0  0  0
  -19.6050  -26.1335   19.5345 C   0  0  0  0  0  0  0  0  0  0  0  0
  -24.6454  -30.7459   22.0267 C   0  0  0  0  0  0  0  0  0  0  0  0
  -24.4260  -28.3742   21.3971 C   0  0  0  0  0  0  0  0  0  0  0  0
  -25.6544  -14.4472   20.0040 C   0  0  1  0  0  0  0  0  0  0  0  0
  -25.4404  -17.0650   22.7489 C   0  0  1  0  0  0  0  0  0  0  0  0
  -25.2417  -28.5963   20.1130 C   0  0  2  0  0  0  0  0  0  0  0  0
  -21.2529  -16.9287   29.2642 C   0  0  0  0  0  0  0  0  0  0  0  0
  -21.6014  -14.5165   23.1055 C   0  0  0  0  0  0  0  0  0  0  0  0
  -20.2912  -14.8293   25.2159 C   0  0  0  0  0  0  0  0  0  0  0  0
  -22.4379  -13.5594   25.2592 C   0  0  0  0  0  0  0  0  0  0  0  0
  -23.8339  -19.5440   28.2771 C   0  0  0  0  0  0  0  0  0  0  0  0
  -23.0648  -23.7031   20.4790 C   0  0  0  0  0  0  0  0  0  1  0  0
  -22.4887  -16.0702   24.9668 C   0  0  1  0  0  0  0  0  0  0  0  0
  -22.4315  -17.4874   28.4822 C   0  0  2  0  0  0  0  0  0  0  0  0
  -21.7148  -14.7663   24.6226 C   0  0  0  0  0  0  0  0  0  0  0  0
  -26.8844  -26.7944   20.4814 N   0  0  0  0  0  0  0  0  0  0  0  0
  -25.9598  -27.3354   19.6699 N   0  0  0  0  0  0  0  0  0  0  0  0
  -20.2534  -26.2850   20.8401 N   0  0  1  0  0  0  0  0  0  0  0  0
  -24.1795  -17.1141   23.4918 N   0  0  0  0  0  0  0  0  0  0  0  0
  -23.7423  -29.6199   21.7786 N   0  0  0  0  0  0  0  0  0  0  0  0
  -24.8892  -27.0561   17.5755 N   0  0  0  0  0  0  0  0  0  0  0  0
  -27.7469  -23.5639   17.7587 N   0  0  0  0  0  0  0  0  0  0  0  0
  -21.5897  -28.6681   21.6272 N   0  0  0  0  0  0  0  0  0  0  0  0
  -25.7994  -15.2293   21.2131 N   0  0  0  0  0  0  0  0  0  0  0  0
  -22.6351  -16.3183   26.3970 N   0  0  0  0  0  0  0  0  0  0  0  0
  -22.6857  -18.8804   28.9466 N   0  3  0  0  0  0  0  0  0  0  0  0
  -26.1598  -24.6056   16.4723 O   0  0  0  0  0  0  0  0  0  0  0  0
  -24.3721  -16.9793   20.6450 O   0  0  0  0  0  0  0  0  0  0  0  0
  -24.6855  -15.2064   24.7331 O   0  0  0  0  0  0  0  0  0  0  0  0
  -21.5841  -18.3853   26.4054 O   0  0  0  0  0  0  0  0  0  0  0  0
  -21.8662  -30.8855   22.2505 O   0  0  0  0  0  0  0  0  0  0  0  0
  -31.2415  -22.3834   21.9336 O   0  0  0  0  0  0  0  0  0  0  0  0
  -22.5025  -22.5449   21.0946 O   0  0  0  0  0  0  0  0  0  1  0  0
  -17.9717  -29.6002   24.6267 F   0  0  0  0  0  0  0  0  0  0  0  0
  -30.4397  -16.9377   21.6092 F   0  0  0  0  0  0  0  0  0  0  0  0
  -30.9586  -21.1349   19.4833 F   0  0  0  0  0  0  0  0  0  0  0  0
  1  2  1  0  0  0  0
  1  5  2  0  0  0  0
  2  6  2  0  0  0  0
  3  9  2  0  0  0  0
  3 18  1  0  0  0  0
  4 10  1  0  0  0  0
  4 18  2  0  0  0  0
  5 20  1  0  0  0  0
  6 22  1  0  0  0  0
  7 11  2  0  0  0  0
  7 21  1  0  0  0  0
  8 13  2  0  0  0  0
  8 24  1  0  0  0  0
  9 26  1  0  0  0  0
 10 26  2  0  0  0  0
 11 27  1  0  0  0  0
 12 14  2  0  0  0  0
 12 28  1  0  0  0  0
 13 29  1  0  0  0  0
 14 30  1  0  0  0  0
 15 23  1  0  0  0  0
 15 27  2  0  0  0  0
 16 25  1  0  0  0  0
 16 29  2  0  0  0  0
 17 30  2  0  0  0  0
 17 31  1  0  0  0  0
 18 32  1  0  0  0  0
 19 32  1  0  0  0  0
 19 33  2  0  0  0  0
 19 36  1  0  0  0  0
 20 22  2  0  0  0  0
 20 41  1  0  0  0  0
 21 23  2  0  0  0  0
 21 42  1  0  0  0  0
 22 53  1  0  0  0  0
 23 43  1  0  0  0  0
 24 25  2  0  0  0  0
 24 67  1  0  0  0  0
 25 72  1  0  0  0  0
 26 81  1  0  0  0  0
 27 82  1  0  0  0  0
 28 31  2  0  0  0  0
 28 81  1  0  0  0  0
 29 83  1  0  0  0  0
 30 84  1  0  0  0  0
 31 85  1  0  0  0  0
 32 65  2  0  0  0  0
 33 66  1  0  0  0  0
 33 70  1  0  0  0  0
 34 35  2  0  0  0  0
 34 44  1  0  0  0  0
 35 45  1  0  0  0  0
 35 61  1  0  0  0  0
 36 71  1  0  0  0  0
 36 76  2  0  0  0  0
 37 54  1  0  0  0  0
 37 73  1  0  0  0  0
 37 77  2  0  0  0  0
 38 62  1  0  0  0  0
 38 68  1  0  0  0  0
 38 78  2  0  0  0  0
 39 63  1  0  0  0  0
 39 74  1  0  0  0  0
 39 79  2  0  0  0  0
 40 69  1  0  0  0  0
 40 72  1  0  0  0  0
 40 80  2  0  0  0  0
 41 46  1  0  0  0  0
 42 54  1  0  0  0  0
 43 68  1  0  0  0  0
 44 50  1  0  0  0  0
 45 67  1  0  0  0  0
 46 48  1  0  0  0  0
 47 49  1  0  0  0  0
 47 51  1  0  0  0  0
 48 53  1  0  0  0  0
 49 55  1  0  0  0  0
 50 67  1  0  0  0  0
 51 69  1  0  0  0  0
 52 55  1  0  0  0  0
 52 69  1  0  0  0  0
 53 73  1  0  0  0  0
 54 68  1  0  0  0  0
 55 66  1  0  0  0  0
 56 63  1  0  0  0  0
 57 64  1  0  0  0  0
 58 64  1  0  0  0  0
 59 64  1  0  0  0  0
 60 75  1  0  0  0  0
 61 82  1  0  0  0  0
 62 64  1  0  0  0  0
 62 74  1  0  0  0  0
 63 75  1  0  0  0  0
 65 66  1  0  0  0  0
M  CHG  1  75   1
M  ISO  4  40 100  61 101  72 100  82 101
M  END
> <Batch ID>
0072

> <Smiles>
CNC(C)C(=O)NC(C(=O)N1Cc2cc([101O:1][101CH2:1]C3=CCCN(c4ccc(F)cc4[100NH:0][100C:0](=O)N4CCCC(n5nc(-c6ccc(Oc7ccc(F)cc7F)cc6)c(C(N)=O)c5N)C4)C3)ccc2CC1C(=O)NC1CCCc2ccccc21)C(C)(C)C

> <Shape>
0.224

> <Color>
0.068

> <Negative vol penalty>
0.000

$$$$

  -OEChem-04042323383D

 87 96  0     1  0  0  0  0  0999 V2000
  -21.4867  -33.0969   26.4939 C   0  0  0  0  0  0  0  0  0  0  0  0
  -22.2497  -31.9374   26.4006 C   0  0  0  0  0  0  0  0  0  0  0  0
  -23.1280   -9.7261   20.1020 C   0  0  0  0  0  0  0  0  0  0  0  0
  -23.7650  -10.0127   22.4148 C   0  0  0  0  0  0  0  0  0  0  0  0
  -31.2777  -19.0470   20.0966 C   0  0  0  0  0  0  0  0  0  0  0  0
  -20.3140  -33.2201   25.7500 C   0  0  0  0  0  0  0  0  0  0  0  0
  -21.8397  -30.8998   25.5641 C   0  0  0  0  0  0  0  0  0  0  0  0
  -25.4332  -27.1253   22.3476 C   0  0  0  0  0  0  0  0  0  0  0  0
  -31.1166  -17.6695   20.2451 C   0  0  0  0  0  0  0  0  0  0  0  0
  -22.3778   -8.6022   20.4479 C   0  0  0  0  0  0  0  0  0  0  0  0
  -23.0148   -8.8888   22.7607 C   0  0  0  0  0  0  0  0  0  0  0  0
  -25.8858  -25.8289   22.5887 C   0  0  0  0  0  0  0  0  0  0  0  0
  -19.7633   -8.1311   23.2845 C   0  0  0  0  0  0  0  0  0  0  0  0
  -18.9455   -8.2212   24.4109 C   0  0  0  0  0  0  0  0  0  0  0  0
  -24.0790  -24.9557   21.2499 C   0  0  0  0  0  0  0  0  0  0  0  0
  -29.3932  -18.0488   21.8952 C   0  0  0  0  0  0  0  0  0  0  0  0
  -20.1559   -6.3986   25.4356 C   0  0  0  0  0  0  0  0  0  0  0  0
  -23.8216  -10.4314   21.0855 C   0  0  0  0  0  0  0  0  0  0  0  0
  -30.4965  -19.9255   20.8475 C   0  0  0  0  0  0  0  0  0  0  0  0
  -24.1564  -12.9284   20.6848 C   0  0  0  0  0  0  0  0  0  0  0  0
  -19.8945  -32.1875   24.8966 C   0  0  0  0  0  0  0  0  0  0  0  0
  -24.2918  -27.3465   21.5635 C   0  0  0  0  0  0  0  0  0  0  0  0
  -20.6595  -31.0087   24.8091 C   0  0  0  0  0  0  0  0  0  0  0  0
  -23.6155  -26.2560   20.9983 C   0  0  0  0  0  0  0  0  0  0  0  0
  -29.5542  -19.4264   21.7468 C   0  0  0  0  0  0  0  0  0  0  0  0
  -30.1744  -17.1704   21.1443 C   0  0  0  0  0  0  0  0  0  0  0  0
  -22.3211   -8.1836   21.7772 C   0  0  0  0  0  0  0  0  0  0  0  0
  -25.2070  -24.7436   22.0422 C   0  0  0  0  0  0  0  0  0  0  0  0
  -20.7774   -7.1747   23.2337 C   0  0  0  0  0  0  0  0  0  0  0  0
  -19.1418   -7.3550   25.4864 C   0  0  0  0  0  0  0  0  0  0  0  0
  -20.9737   -6.3085   24.3092 C   0  0  0  0  0  0  0  0  0  0  0  0
  -24.5972  -11.5921   20.7288 C   0  0  0  0  0  0  0  0  0  0  0  0
  -25.2625  -13.6420   20.2926 C   0  0  0  0  0  0  0  0  0  0  0  0
  -27.8419  -21.2735   22.0380 C   0  0  0  0  0  0  0  0  0  0  0  0
  -30.6902  -21.3591   20.6686 C   0  0  0  0  0  0  0  0  0  0  0  0
  -22.8629  -13.4756   20.9728 C   0  0  0  0  0  0  0  0  0  0  0  0
  -21.4378  -28.6496   22.0739 C   0  0  0  0  0  0  0  0  0  0  0  0
  -21.0943  -28.2011   18.8796 C   0  0  0  0  0  0  0  0  0  0  0  0
  -22.0213  -26.4860   16.0786 C   0  0  0  0  0  0  0  0  0  0  0  0
  -30.7063  -14.7630   20.6267 C   0  0  0  0  0  0  0  0  0  0  0  0
  -18.5948  -32.3471   24.1483 C   0  0  0  0  0  0  0  0  0  0  0  0
  -23.8321  -28.7525   21.2909 C   0  0  0  0  0  0  0  0  0  0  0  0
  -22.3968  -26.4408   20.1327 C   0  0  0  0  0  0  0  0  0  0  0  0
  -18.4270  -31.3547   23.0005 C   0  0  0  0  0  0  0  0  0  0  0  0
  -29.7315  -12.0737   18.5066 C   0  0  0  0  0  0  0  0  0  0  0  0
  -18.7932  -29.9456   23.4554 C   0  0  0  0  0  0  0  0  0  0  0  0
  -28.2726  -11.8186   18.8921 C   0  0  0  0  0  0  0  0  0  0  0  0
  -28.0882  -21.5678   24.3869 C   0  0  0  0  0  0  0  0  0  0  0  0
  -30.5804  -12.4533   19.7186 C   0  0  0  0  0  0  0  0  0  0  0  0
  -28.7267  -20.2561   23.9760 C   0  0  0  0  0  0  0  0  0  0  0  0
  -28.5991  -13.3142   20.9030 C   0  0  0  0  0  0  0  0  0  0  0  0
  -20.2608  -29.8714   23.8939 C   0  0  1  0  0  0  0  0  0  0  0  0
  -27.1250  -21.8574   23.2448 C   0  0  1  0  0  0  0  0  0  0  0  0
  -22.3593  -28.8346   20.9015 C   0  0  1  0  0  0  0  0  0  0  0  0
  -27.6911  -12.9919   19.7049 C   0  0  2  0  0  0  0  0  0  0  0  0
  -21.5385  -26.3178   13.6217 C   0  0  0  0  0  0  0  0  0  0  0  0
  -18.4999  -26.7171   19.4936 C   0  0  0  0  0  0  0  0  0  0  0  0
  -18.5698  -25.7779   17.1738 C   0  0  0  0  0  0  0  0  0  0  0  0
  -18.3862  -28.2422   17.5148 C   0  0  0  0  0  0  0  0  0  0  0  0
  -24.8025  -27.2031   15.3648 C   0  0  0  0  0  0  0  0  0  0  0  0
  -26.8089  -23.3332   23.0911 C   0  0  0  0  0  0  0  0  0  1  0  0
  -20.5785  -27.0829   18.0064 C   0  0  1  0  0  0  0  0  0  0  0  0
  -22.4100  -26.9600   14.6898 C   0  0  2  0  0  0  0  0  0  0  0  0
  -19.0304  -26.9511   18.0650 C   0  0  0  0  0  0  0  0  0  0  0  0
  -25.8830  -11.4619   20.3913 N   0  0  0  0  0  0  0  0  0  0  0  0
  -26.2596  -12.7255   20.1314 N   0  0  0  0  0  0  0  0  0  0  0  0
  -28.7444  -20.3061   22.5259 N   0  0  0  0  0  0  0  0  0  0  0  0
  -21.9827  -27.8344   19.9005 N   0  0  0  0  0  0  0  0  0  0  0  0
  -29.9703  -13.5742   20.4372 N   0  0  0  0  0  0  0  0  0  0  0  0
  -25.4697  -14.9579   20.0733 N   0  0  0  0  0  0  0  0  0  0  0  0
  -31.6273  -21.9888   21.4799 N   0  0  0  0  0  0  0  0  0  0  0  0
  -21.8391  -12.6012   21.3623 N   0  0  0  0  0  0  0  0  0  0  0  0
  -30.0117  -15.7709   21.2947 N   0  0  0  0  0  0  0  0  0  0  0  0
  -21.1315  -29.8214   22.7390 N   0  0  0  0  0  0  0  0  0  0  0  0
  -21.1068  -27.3321   16.6696 N   0  0  0  0  0  0  0  0  0  0  0  0
  -23.8321  -26.6171   14.4047 N   0  3  0  0  0  0  0  0  0  0  0  0
  -27.5812  -21.5905   20.8865 O   0  0  0  0  0  0  0  0  0  0  0  0
  -30.0308  -21.9998   19.8338 O   0  0  0  0  0  0  0  0  0  0  0  0
  -22.6176  -14.7016   20.8714 O   0  0  0  0  0  0  0  0  0  0  0  0
  -21.0335  -27.5271   22.3533 O   0  0  0  0  0  0  0  0  0  0  0  0
  -20.7282  -29.3583   18.6594 O   0  0  0  0  0  0  0  0  0  0  0  0
  -22.4799  -25.4653   16.5867 O   0  0  0  0  0  0  0  0  0  0  0  0
  -31.8577  -14.8881   20.2018 O   0  0  0  0  0  0  0  0  0  0  0  0
  -21.5890   -7.0870   22.1151 O   0  0  0  0  0  0  0  0  0  0  0  0
  -25.6462  -23.4771   22.2765 O   0  0  0  0  0  0  0  0  0  1  0  0
  -18.3573   -7.4427   26.5686 F   0  0  0  0  0  0  0  0  0  0  0  0
  -21.9471   -5.3884   24.2666 F   0  0  0  0  0  0  0  0  0  0  0  0
  1  2  1  0  0  0  0
  1  6  2  0  0  0  0
  2  7  2  0  0  0  0
  3 10  2  0  0  0  0
  3 18  1  0  0  0  0
  4 11  1  0  0  0  0
  4 18  2  0  0  0  0
  5  9  2  0  0  0  0
  5 19  1  0  0  0  0
  6 21  1  0  0  0  0
  7 23  1  0  0  0  0
  8 12  2  0  0  0  0
  8 22  1  0  0  0  0
  9 26  1  0  0  0  0
 10 27  1  0  0  0  0
 11 27  2  0  0  0  0
 12 28  1  0  0  0  0
 13 14  2  0  0  0  0
 13 29  1  0  0  0  0
 14 30  1  0  0  0  0
 15 24  1  0  0  0  0
 15 28  2  0  0  0  0
 16 25  1  0  0  0  0
 16 26  2  0  0  0  0
 17 30  2  0  0  0  0
 17 31  1  0  0  0  0
 18 32  1  0  0  0  0
 19 25  2  0  0  0  0
 19 35  1  0  0  0  0
 20 32  1  0  0  0  0
 20 33  2  0  0  0  0
 20 36  1  0  0  0  0
 21 23  2  0  0  0  0
 21 41  1  0  0  0  0
 22 24  2  0  0  0  0
 22 42  1  0  0  0  0
 23 52  1  0  0  0  0
 24 43  1  0  0  0  0
 25 67  1  0  0  0  0
 26 73  1  0  0  0  0
 27 84  1  0  0  0  0
 28 85  1  0  0  0  0
 29 31  2  0  0  0  0
 29 84  1  0  0  0  0
 30 86  1  0  0  0  0
 31 87  1  0  0  0  0
 32 65  2  0  0  0  0
 33 66  1  0  0  0  0
 33 70  1  0  0  0  0
 34 53  1  0  0  0  0
 34 67  1  0  0  0  0
 34 77  2  0  0  0  0
 35 71  1  0  0  0  0
 35 78  2  0  0  0  0
 36 72  1  0  0  0  0
 36 79  2  0  0  0  0
 37 54  1  0  0  0  0
 37 74  1  0  0  0  0
 37 80  2  0  0  0  0
 38 62  1  0  0  0  0
 38 68  1  0  0  0  0
 38 81  2  0  0  0  0
 39 63  1  0  0  0  0
 39 75  1  0  0  0  0
 39 82  2  0  0  0  0
 40 69  1  0  0  0  0
 40 73  1  0  0  0  0
 40 83  2  0  0  0  0
 41 44  1  0  0  0  0
 42 54  1  0  0  0  0
 43 68  1  0  0  0  0
 44 46  1  0  0  0  0
 45 47  1  0  0  0  0
 45 49  1  0  0  0  0
 46 52  1  0  0  0  0
 47 55  1  0  0  0  0
 48 50  1  0  0  0  0
 48 53  1  0  0  0  0
 49 69  1  0  0  0  0
 50 67  1  0  0  0  0
 51 55  1  0  0  0  0
 51 69  1  0  0  0  0
 52 74  1  0  0  0  0
 53 61  1  0  0  0  0
 54 68  1  0  0  0  0
 55 66  1  0  0  0  0
 56 63  1  0  0  0  0
 57 64  1  0  0  0  0
 58 64  1  0  0  0  0
 59 64  1  0  0  0  0
 60 76  1  0  0  0  0
 61 85  1  0  0  0  0
 62 64  1  0  0  0  0
 62 75  1  0  0  0  0
 63 76  1  0  0  0  0
 65 66  1  0  0  0  0
M  CHG  1  76   1
M  ISO  4  40 100  61 101  73 100  85 101
M  END
> <Batch ID>
0072

> <Smiles>
CNC(C)C(=O)NC(C(=O)N1Cc2cc([101O:1][101CH2:1]C3CCN(c4cc([100NH:0][100C:0](=O)N5CCCC(n6nc(-c7ccc(Oc8ccc(F)cc8F)cc7)c(C(N)=O)c6N)C5)ccc4C(N)=O)C3=O)ccc2CC1C(=O)NC1CCCc2ccccc21)C(C)(C)C

> <Shape>
0.251

> <Color>
0.189

> <Negative vol penalty>
0.000

$$$$

  -OEChem-04042323383D

 87 95  0     1  0  0  0  0  0999 V2000
  -29.8121  -24.6982   17.8350 C   0  0  0  0  0  0  0  0  0  0  0  0
  -28.4291  -24.8389   17.8880 C   0  0  0  0  0  0  0  0  0  0  0  0
  -26.8247  -13.8984   21.0946 C   0  0  0  0  0  0  0  0  0  0  0  0
  -25.7082  -15.2030   19.3951 C   0  0  0  0  0  0  0  0  0  0  0  0
  -22.3860  -23.6848   20.2902 C   0  0  0  0  0  0  0  0  0  0  0  0
  -21.9083  -24.3060   22.5755 C   0  0  0  0  0  0  0  0  0  0  0  0
  -30.5984  -25.1464   18.8955 C   0  0  0  0  0  0  0  0  0  0  0  0
  -27.8314  -25.4270   19.0022 C   0  0  0  0  0  0  0  0  0  0  0  0
  -22.8291  -28.9597   19.0617 C   0  0  0  0  0  0  0  0  0  0  0  0
  -23.4565  -22.9040   20.7262 C   0  0  0  0  0  0  0  0  0  0  0  0
  -22.9787  -23.5252   23.0116 C   0  0  0  0  0  0  0  0  0  0  0  0
  -26.1268  -12.7634   20.6819 C   0  0  0  0  0  0  0  0  0  0  0  0
  -25.0103  -14.0680   18.9824 C   0  0  0  0  0  0  0  0  0  0  0  0
  -21.4920  -28.6876   19.3479 C   0  0  0  0  0  0  0  0  0  0  0  0
  -23.0334  -11.4606   21.0793 C   0  0  0  0  0  0  0  0  0  0  0  0
  -22.4728  -10.6507   22.0669 C   0  0  0  0  0  0  0  0  0  0  0  0
  -21.8299  -29.4418   21.6142 C   0  0  0  0  0  0  0  0  0  0  0  0
  -23.8100   -8.7902   21.3003 C   0  0  0  0  0  0  0  0  0  0  0  0
  -26.6154  -15.1182   20.4512 C   0  0  0  0  0  0  0  0  0  0  0  0
  -21.6119  -24.3858   21.2149 C   0  0  0  0  0  0  0  0  0  0  0  0
  -28.5824  -16.7419   20.4040 C   0  0  0  0  0  0  0  0  0  0  0  0
  -30.0108  -25.7491   20.0190 C   0  0  0  0  0  0  0  0  0  0  0  0
  -23.6808  -29.4655   20.0543 C   0  0  0  0  0  0  0  0  0  0  0  0
  -28.6105  -25.8825   20.0793 C   0  0  0  0  0  0  0  0  0  0  0  0
  -23.1767  -29.7218   21.3374 C   0  0  0  0  0  0  0  0  0  0  0  0
  -23.7528  -22.8242   22.0869 C   0  0  0  0  0  0  0  0  0  0  0  0
  -25.2196  -12.8482   19.6258 C   0  0  0  0  0  0  0  0  0  0  0  0
  -20.9929  -28.9259   20.6250 C   0  0  0  0  0  0  0  0  0  0  0  0
  -23.9823  -10.9353   20.2022 C   0  0  0  0  0  0  0  0  0  0  0  0
  -22.8611   -9.3156   22.1775 C   0  0  0  0  0  0  0  0  0  0  0  0
  -24.3706   -9.6001   20.3127 C   0  0  0  0  0  0  0  0  0  0  0  0
  -27.3356  -16.2911   20.8774 C   0  0  0  0  0  0  0  0  0  0  0  0
  -28.8281  -17.8875   21.1208 C   0  0  0  0  0  0  0  0  0  0  0  0
  -20.4719  -25.2176   20.7505 C   0  0  0  0  0  0  0  0  0  0  0  0
  -29.4416  -16.1757   19.4056 C   0  0  0  0  0  0  0  0  0  0  0  0
  -26.3317  -28.4351   21.4737 C   0  0  0  0  0  0  0  0  0  0  0  0
  -26.2814  -31.3790   22.8351 C   0  0  0  0  0  0  0  0  0  0  0  0
  -24.4565  -34.1049   23.7765 C   0  0  0  0  0  0  0  0  0  0  0  0
  -16.9994  -25.2597   21.2786 C   0  0  0  0  0  0  0  0  0  0  0  0
  -25.2700  -21.8423   23.8419 C   0  0  0  0  0  0  0  0  0  0  0  0
  -30.8982  -26.1752   21.1616 C   0  0  0  0  0  0  0  0  0  0  0  0
  -25.1140  -29.7788   19.7223 C   0  0  0  0  0  0  0  0  0  0  0  0
  -24.0446  -30.2833   22.4328 C   0  0  0  0  0  0  0  0  0  0  0  0
  -30.2157  -27.1268   22.1408 C   0  0  0  0  0  0  0  0  0  0  0  0
  -27.8787  -19.9395   25.3424 C   0  0  0  0  0  0  0  0  0  0  0  0
  -28.8245  -26.6149   22.5008 C   0  0  0  0  0  0  0  0  0  0  0  0
  -28.1531  -18.8325   24.3218 C   0  0  0  0  0  0  0  0  0  0  0  0
  -26.3924  -20.2843   25.4192 C   0  0  0  0  0  0  0  0  0  0  0  0
  -26.0366  -19.4982   23.1117 C   0  0  0  0  0  0  0  0  0  0  0  0
  -27.9270  -26.5377   21.2599 C   0  0  1  0  0  0  0  0  0  0  0  0
  -26.0190  -29.8083   20.9500 C   0  0  1  0  0  0  0  0  0  0  0  0
  -27.5282  -19.1616   22.9519 C   0  0  2  0  0  0  0  0  0  0  0  0
  -24.6861  -36.3367   24.9006 C   0  0  0  0  0  0  0  0  0  0  0  0
  -17.7899  -27.0173   23.7178 C   0  0  0  0  0  0  0  0  0  0  0  0
  -26.4724  -29.9913   25.5458 C   0  0  0  0  0  0  0  0  0  0  0  0
  -25.7491  -32.1358   26.6165 C   0  0  0  0  0  0  0  0  0  0  0  0
  -27.8809  -32.0460   25.3241 C   0  0  0  0  0  0  0  0  0  0  0  0
  -23.5294  -35.5457   21.3633 C   0  0  0  0  0  0  0  0  0  0  0  0
  -19.3774  -28.2847   22.2482 C   0  0  0  0  0  0  0  0  0  1  0  0
  -25.6773  -31.9677   24.0871 C   0  0  1  0  0  0  0  0  0  0  0  0
  -24.6892  -35.5914   23.5750 C   0  0  2  0  0  0  0  0  0  0  0  0
  -18.2556  -26.1579   21.3503 C   0  0  1  0  0  0  0  0  0  0  0  0
  -18.1218  -27.3972   22.2699 C   0  0  1  0  0  0  0  0  0  0  0  0
  -26.4288  -31.5228   25.3735 C   0  0  0  0  0  0  0  0  0  0  0  0
  -26.8249  -17.0855   21.8220 N   0  0  0  0  0  0  0  0  0  0  0  0
  -27.7555  -18.0469   21.9480 N   0  0  0  0  0  0  0  0  0  0  0  0
  -25.4405  -30.5673   22.0606 N   0  0  0  0  0  0  0  0  0  0  0  0
  -25.8702  -20.5887   24.0853 N   0  0  0  0  0  0  0  0  0  0  0  0
  -29.8549  -18.7639   21.1179 N   0  0  0  0  0  0  0  0  0  0  0  0
  -29.0367  -14.9957   18.7668 N   0  0  0  0  0  0  0  0  0  0  0  0
  -24.8403  -22.0306   22.5287 N   0  0  0  0  0  0  0  0  0  0  0  0
  -19.4456  -25.3941   21.6625 N   0  0  0  0  0  0  0  0  0  0  0  0
  -27.4471  -27.8549   20.9004 N   0  0  0  0  0  0  0  0  0  0  0  0
  -25.6437  -33.4120   23.8840 N   0  0  0  0  0  0  0  0  0  0  0  0
  -23.6237  -36.1697   22.7082 N   0  3  0  0  0  0  0  0  0  0  0  0
  -15.8906  -25.8451   21.4320 O   0  5  0  0  0  0  0  0  0  0  0  0
  -20.4877  -25.6746   19.6106 O   0  0  0  0  0  0  0  0  0  0  0  0
  -30.5436  -16.6917   19.1008 O   0  0  0  0  0  0  0  0  0  0  0  0
  -25.6150  -27.9394   22.3353 O   0  0  0  0  0  0  0  0  0  0  0  0
  -27.4540  -31.6358   22.5510 O   0  0  0  0  0  0  0  0  0  0  0  0
  -23.3337  -33.6085   23.8365 O   0  0  0  0  0  0  0  0  0  0  0  0
  -17.2234  -24.0374   21.0415 O   0  0  0  0  0  0  0  0  0  0  0  0
  -25.1709  -22.6969   24.7261 O   0  0  0  0  0  0  0  0  0  0  0  0
  -24.5386  -11.7408   19.2227 O   0  0  0  0  0  0  0  0  0  0  0  0
  -19.6884  -28.6606   20.9072 O   0  0  0  0  0  0  0  0  0  1  0  0
  -22.3237   -8.5384   23.1269 F   0  0  0  0  0  0  0  0  0  0  0  0
  -25.2826   -9.0902   19.4737 F   0  0  0  0  0  0  0  0  0  0  0  0
  1  2  1  0  0  0  0
  1  7  2  0  0  0  0
  2  8  2  0  0  0  0
  3 12  2  0  0  0  0
  3 19  1  0  0  0  0
  4 13  1  0  0  0  0
  4 19  2  0  0  0  0
  5 10  2  0  0  0  0
  5 20  1  0  0  0  0
  6 11  1  0  0  0  0
  6 20  2  0  0  0  0
  7 22  1  0  0  0  0
  8 24  1  0  0  0  0
  9 14  2  0  0  0  0
  9 23  1  0  0  0  0
 10 26  1  0  0  0  0
 11 26  2  0  0  0  0
 12 27  1  0  0  0  0
 13 27  2  0  0  0  0
 14 28  1  0  0  0  0
 15 16  2  0  0  0  0
 15 29  1  0  0  0  0
 16 30  1  0  0  0  0
 17 25  1  0  0  0  0
 17 28  2  0  0  0  0
 18 30  2  0  0  0  0
 18 31  1  0  0  0  0
 19 32  1  0  0  0  0
 20 34  1  0  0  0  0
 21 32  1  0  0  0  0
 21 33  2  0  0  0  0
 21 35  1  0  0  0  0
 22 24  2  0  0  0  0
 22 41  1  0  0  0  0
 23 25  2  0  0  0  0
 23 42  1  0  0  0  0
 24 50  1  0  0  0  0
 25 43  1  0  0  0  0
 26 71  1  0  0  0  0
 27 84  1  0  0  0  0
 28 85  1  0  0  0  0
 29 31  2  0  0  0  0
 29 84  1  0  0  0  0
 30 86  1  0  0  0  0
 31 87  1  0  0  0  0
 32 65  2  0  0  0  0
 33 66  1  0  0  0  0
 33 69  1  0  0  0  0
 34 72  1  0  0  0  0
 34 77  2  0  0  0  0
 35 70  1  0  0  0  0
 35 78  2  0  0  0  0
 36 51  1  0  0  0  0
 36 73  1  0  0  0  0
 36 79  2  0  0  0  0
 37 60  1  0  0  0  0
 37 67  1  0  0  0  0
 37 80  2  0  0  0  0
 38 61  1  0  0  0  0
 38 74  1  0  0  0  0
 38 81  2  0  0  0  0
 39 62  1  0  0  0  0
 39 76  1  0  0  0  0
 39 82  2  0  0  0  0
 40 68  1  0  0  0  0
 40 71  1  0  0  0  0
 40 83  2  0  0  0  0
 41 44  1  0  0  0  0
 42 51  1  0  0  0  0
 43 67  1  0  0  0  0
 44 46  1  0  0  0  0
 45 47  1  0  0  0  0
 45 48  1  0  0  0  0
 46 50  1  0  0  0  0
 47 52  1  0  0  0  0
 48 68  1  0  0  0  0
 49 52  1  0  0  0  0
 49 68  1  0  0  0  0
 50 73  1  0  0  0  0
 51 67  1  0  0  0  0
 52 66  1  0  0  0  0
 53 61  1  0  0  0  0
 54 63  1  0  0  0  0
 55 64  1  0  0  0  0
 56 64  1  0  0  0  0
 57 64  1  0  0  0  0
 58 75  1  0  0  0  0
 59 63  1  0  0  0  0
 59 85  1  0  0  0  0
 60 64  1  0  0  0  0
 60 74  1  0  0  0  0
 61 75  1  0  0  0  0
 62 63  1  0  0  0  0
 62 72  1  0  0  0  0
 65 66  1  0  0  0  0
M  CHG  2  75   1  76  -1
M  ISO  4  40 100  59 101  71 100  85 101
M  END
> <Batch ID>
0072

> <Smiles>
CNC(C)C(=O)NC(C(=O)N1Cc2cc([101O:1][101CH2:1]C(C)C(NC(=O)c3ccc([100NH:0][100C:0](=O)N4CCCC(n5nc(-c6ccc(Oc7ccc(F)cc7F)cc6)c(C(N)=O)c5N)C4)cc3)C(=O)O)ccc2CC1C(=O)NC1CCCc2ccccc21)C(C)(C)C

> <Shape>
0.305

> <Color>
0.060

> <Negative vol penalty>
0.000

$$$$

  -OEChem-04042323383D

 87 95  0     1  0  0  0  0  0999 V2000
  -32.8978  -27.8024   15.7650 C   0  0  0  0  0  0  0  0  0  0  0  0
  -32.0854  -26.9465   16.5018 C   0  0  0  0  0  0  0  0  0  0  0  0
  -22.9652  -10.1441   19.9563 C   0  0  0  0  0  0  0  0  0  0  0  0
  -24.0784   -9.6236   22.0365 C   0  0  0  0  0  0  0  0  0  0  0  0
  -33.1679  -29.0854   16.2392 C   0  0  0  0  0  0  0  0  0  0  0  0
  -31.5436  -27.3727   17.7139 C   0  0  0  0  0  0  0  0  0  0  0  0
  -26.6476  -26.1672   18.1842 C   0  0  0  0  0  0  0  0  0  0  0  0
  -25.0566  -14.9390   16.5771 C   0  0  0  0  0  0  0  0  0  0  0  0
  -25.4066  -16.0835   17.2934 C   0  0  0  0  0  0  0  0  0  0  0  0
  -22.2236   -8.9672   20.0587 C   0  0  0  0  0  0  0  0  0  0  0  0
  -23.3368   -8.4467   22.1388 C   0  0  0  0  0  0  0  0  0  0  0  0
  -26.3462  -24.8485   18.5215 C   0  0  0  0  0  0  0  0  0  0  0  0
  -20.2148   -7.5445   23.0662 C   0  0  0  0  0  0  0  0  0  0  0  0
  -19.6519   -7.2407   24.3057 C   0  0  0  0  0  0  0  0  0  0  0  0
  -26.0211  -25.5162   20.8167 C   0  0  0  0  0  0  0  0  0  0  0  0
  -20.9137   -5.1815   24.3741 C   0  0  0  0  0  0  0  0  0  0  0  0
  -23.8927  -10.4723   20.9452 C   0  0  0  0  0  0  0  0  0  0  0  0
  -24.3145  -12.9567   21.3421 C   0  0  0  0  0  0  0  0  0  0  0  0
  -32.6213  -29.5310   17.4530 C   0  0  0  0  0  0  0  0  0  0  0  0
  -26.6488  -27.1701   19.1643 C   0  0  0  0  0  0  0  0  0  0  0  0
  -31.8078  -28.6624   18.2054 C   0  0  0  0  0  0  0  0  0  0  0  0
  -26.3205  -26.8473   20.4887 C   0  0  0  0  0  0  0  0  0  0  0  0
  -26.0507  -14.1213   16.0396 C   0  0  0  0  0  0  0  0  0  0  0  0
  -26.7508  -16.4104   17.4722 C   0  0  0  0  0  0  0  0  0  0  0  0
  -27.3949  -14.4482   16.2184 C   0  0  0  0  0  0  0  0  0  0  0  0
  -22.4094   -8.1185   21.1499 C   0  0  0  0  0  0  0  0  0  0  0  0
  -26.0357  -24.5222   19.8384 C   0  0  0  0  0  0  0  0  0  0  0  0
  -21.1272   -6.6667   22.4805 C   0  0  0  0  0  0  0  0  0  0  0  0
  -20.0013   -6.0593   24.9597 C   0  0  0  0  0  0  0  0  0  0  0  0
  -21.4766   -5.4853   23.1345 C   0  0  0  0  0  0  0  0  0  0  0  0
  -27.7450  -15.5928   16.9347 C   0  0  0  0  0  0  0  0  0  0  0  0
  -24.6594  -11.6876   20.8397 C   0  0  0  0  0  0  0  0  0  0  0  0
  -25.3652  -13.7652   20.9831 C   0  0  0  0  0  0  0  0  0  0  0  0
  -23.1487  -13.3678   22.0684 C   0  0  0  0  0  0  0  0  0  0  0  0
  -28.8404  -29.1408   20.3546 C   0  0  0  0  0  0  0  0  0  0  0  0
  -26.5830  -20.9680   20.2420 C   0  0  0  0  0  0  0  0  0  0  0  0
  -26.2974  -30.3875   21.9361 C   0  0  0  0  0  0  0  0  0  0  0  0
  -23.1521  -29.9324   23.1796 C   0  0  0  0  0  0  0  0  0  0  0  0
  -29.4173  -12.9848   16.4615 C   0  0  0  0  0  0  0  0  0  0  0  0
  -32.9800  -30.9097   17.9479 C   0  0  0  0  0  0  0  0  0  0  0  0
  -26.9500  -28.5926   18.7792 C   0  0  0  0  0  0  0  0  0  0  0  0
  -26.2879  -27.8906   21.5745 C   0  0  0  0  0  0  0  0  0  0  0  0
  -32.0629  -31.4160   19.0583 C   0  0  0  0  0  0  0  0  0  0  0  0
  -30.0508  -13.6607   20.0441 C   0  0  0  0  0  0  0  0  0  0  0  0
  -31.8567  -30.3352   20.1147 C   0  0  0  0  0  0  0  0  0  0  0  0
  -28.7334  -13.2570   20.7036 C   0  0  0  0  0  0  0  0  0  0  0  0
  -30.3101  -12.8692   18.7658 C   0  0  0  0  0  0  0  0  0  0  0  0
  -27.8747  -12.5521   18.4349 C   0  0  0  0  0  0  0  0  0  0  0  0
  -31.1814  -29.0970   19.5127 C   0  0  1  0  0  0  0  0  0  0  0  0
  -27.4239  -29.4422   19.9544 C   0  0  1  0  0  0  0  0  0  0  0  0
  -27.5708  -13.3638   19.7030 C   0  0  1  0  0  0  0  0  0  0  0  0
  -25.6461  -12.9010   15.2782 C   0  0  0  0  0  0  0  0  0  0  0  0
  -21.3472  -31.1207   24.4555 C   0  0  0  0  0  0  0  0  0  0  0  0
  -27.8760  -30.0065   24.5192 C   0  0  0  0  0  0  0  0  0  0  0  0
  -25.7368  -30.2966   25.7873 C   0  0  0  0  0  0  0  0  0  0  0  0
  -26.6113  -32.1594   24.3774 C   0  0  0  0  0  0  0  0  0  0  0  0
  -28.6342  -13.6258   14.2238 C   0  0  0  0  0  0  0  0  0  0  0  0
  -21.2379  -29.6773   20.9369 C   0  0  0  0  0  0  0  0  0  0  0  0
  -26.3620  -22.2078   19.3991 C   0  0  0  0  0  0  0  0  0  1  0  0
  -27.2532  -19.7987   19.5671 C   0  0  0  0  0  0  0  0  0  0  0  0
  -25.6247  -30.1173   23.2602 C   0  0  1  0  0  0  0  0  0  0  0  0
  -21.8967  -30.7800   23.0790 C   0  0  2  0  0  0  0  0  0  0  0  0
  -26.4646  -30.6247   24.4662 C   0  0  0  0  0  0  0  0  0  0  0  0
  -25.8371  -11.6852   20.2095 N   0  0  0  0  0  0  0  0  0  0  0  0
  -26.2412  -12.9627   20.3134 N   0  0  0  0  0  0  0  0  0  0  0  0
  -26.5959  -29.2660   21.1493 N   0  0  0  0  0  0  0  0  0  0  0  0
  -29.1709  -12.9307   17.8488 N   0  0  0  0  0  0  0  0  0  0  0  0
  -25.6158  -15.0773   21.1781 N   0  0  0  0  0  0  0  0  0  0  0  0
  -22.1665  -12.4095   22.3533 N   0  0  0  0  0  0  0  0  0  0  0  0
  -27.1014  -17.5667   18.1973 N   0  0  0  0  0  0  0  0  0  0  0  0
  -29.7628  -29.3275   19.3427 N   0  0  0  0  0  0  0  0  0  0  0  0
  -24.2931  -30.7065   23.1693 N   0  0  0  0  0  0  0  0  0  0  0  0
  -28.4354  -13.6122   15.6714 N   0  0  0  0  0  0  0  0  0  0  0  0
  -20.8410  -30.0538   22.3181 N   0  3  0  0  0  0  0  0  0  0  0  0
  -22.9752  -14.5536   22.4389 O   0  0  0  0  0  0  0  0  0  0  0  0
  -29.0791  -28.7680   21.4973 O   0  0  0  0  0  0  0  0  0  0  0  0
  -26.2104  -20.8974   21.4131 O   0  0  0  0  0  0  0  0  0  0  0  0
  -26.5423  -31.5513   21.6086 O   0  0  0  0  0  0  0  0  0  0  0  0
  -23.1232  -28.7066   23.2631 O   0  0  0  0  0  0  0  0  0  0  0  0
  -30.4165  -12.4612   15.9535 O   0  0  0  0  0  0  0  0  0  0  0  0
  -25.1678  -18.1310   19.9191 O   0  0  0  0  0  0  0  0  0  0  0  0
  -21.6858   -6.9701   21.2502 O   0  0  0  0  0  0  0  0  0  0  0  0
  -25.7417  -23.2357   20.1705 O   0  0  0  0  0  0  0  0  0  1  0  0
  -19.4619   -5.7685   26.1507 F   0  0  0  0  0  0  0  0  0  0  0  0
  -22.3534   -4.6387   22.5775 F   0  0  0  0  0  0  0  0  0  0  0  0
  -29.0378  -15.9082   17.1082 F   0  0  0  0  0  0  0  0  0  0  0  0
  -26.0197  -18.7012   18.8275 S   0  0  1  0  0  0  0  0  0  0  0  0
  1  2  1  0  0  0  0
  1  5  2  0  0  0  0
  2  6  2  0  0  0  0
  3 10  2  0  0  0  0
  3 17  1  0  0  0  0
  4 11  1  0  0  0  0
  4 17  2  0  0  0  0
  5 19  1  0  0  0  0
  6 21  1  0  0  0  0
  7 12  2  0  0  0  0
  7 20  1  0  0  0  0
  8  9  2  0  0  0  0
  8 23  1  0  0  0  0
  9 24  1  0  0  0  0
 10 26  1  0  0  0  0
 11 26  2  0  0  0  0
 12 27  1  0  0  0  0
 13 14  2  0  0  0  0
 13 28  1  0  0  0  0
 14 29  1  0  0  0  0
 15 22  1  0  0  0  0
 15 27  2  0  0  0  0
 16 29  2  0  0  0  0
 16 30  1  0  0  0  0
 17 32  1  0  0  0  0
 18 32  1  0  0  0  0
 18 33  2  0  0  0  0
 18 34  1  0  0  0  0
 19 21  2  0  0  0  0
 19 40  1  0  0  0  0
 20 22  2  0  0  0  0
 20 41  1  0  0  0  0
 21 49  1  0  0  0  0
 22 42  1  0  0  0  0
 23 25  2  0  0  0  0
 23 52  1  0  0  0  0
 24 31  2  0  0  0  0
 24 70  1  0  0  0  0
 25 31  1  0  0  0  0
 25 73  1  0  0  0  0
 26 82  1  0  0  0  0
 27 83  1  0  0  0  0
 28 30  2  0  0  0  0
 28 82  1  0  0  0  0
 29 84  1  0  0  0  0
 30 85  1  0  0  0  0
 31 86  1  0  0  0  0
 32 64  2  0  0  0  0
 33 65  1  0  0  0  0
 33 68  1  0  0  0  0
 34 69  1  0  0  0  0
 34 75  2  0  0  0  0
 35 50  1  0  0  0  0
 35 71  1  0  0  0  0
 35 76  2  0  0  0  0
 36 59  1  0  0  0  0
 36 60  1  0  0  0  0
 36 77  2  0  0  0  0
 37 61  1  0  0  0  0
 37 66  1  0  0  0  0
 37 78  2  0  0  0  0
 38 62  1  0  0  0  0
 38 72  1  0  0  0  0
 38 79  2  0  0  0  0
 39 67  1  0  0  0  0
 39 73  1  0  0  0  0
 39 80  2  0  0  0  0
 40 43  1  0  0  0  0
 41 50  1  0  0  0  0
 42 66  1  0  0  0  0
 43 45  1  0  0  0  0
 44 46  1  0  0  0  0
 44 47  1  0  0  0  0
 45 49  1  0  0  0  0
 46 51  1  0  0  0  0
 47 67  1  0  0  0  0
 48 51  1  0  0  0  0
 48 67  1  0  0  0  0
 49 71  1  0  0  0  0
 50 66  1  0  0  0  0
 51 65  1  0  0  0  0
 53 62  1  0  0  0  0
 54 63  1  0  0  0  0
 55 63  1  0  0  0  0
 56 63  1  0  0  0  0
 57 73  1  0  0  0  0
 58 74  1  0  0  0  0
 59 83  1  0  0  0  0
 60 87  1  0  0  0  0
 61 63  1  0  0  0  0
 61 72  1  0  0  0  0
 62 74  1  0  0  0  0
 64 65  1  0  0  0  0
 70 87  1  0  0  0  0
 81 87  2  0  0  0  0
M  CHG  1  74   1
M  ISO  4  39 100  59 101  73 100  83 101
M  END
> <Batch ID>
0072

> <Smiles>
CNC(C)C(=O)NC(C(=O)N1Cc2cc([101O:1][101CH2:1]C(=O)CS(=O)Nc3ccc(C)c([100N:0](C)[100C:0](=O)N4CCCC(n5nc(-c6ccc(Oc7ccc(F)cc7F)cc6)c(C(N)=O)c5N)C4)c3F)ccc2CC1C(=O)NC1CCCc2ccccc21)C(C)(C)C

> <Shape>
0.281

> <Color>
0.194

> <Negative vol penalty>
0.000

$$$$

  -OEChem-04042323383D

 76 83  0     1  0  0  0  0  0999 V2000
  -22.3393  -11.1171   20.2775 C   0  0  0  0  0  0  0  0  0  0  0  0
  -21.8939  -12.3580   20.7216 C   0  0  0  0  0  0  0  0  0  0  0  0
  -26.5087  -29.7665   20.4463 C   0  0  0  0  0  0  0  0  0  0  0  0
  -25.2060  -28.1439   19.2185 C   0  0  0  0  0  0  0  0  0  0  0  0
  -23.7063  -10.8707   20.1570 C   0  0  0  0  0  0  0  0  0  0  0  0
  -22.8153  -13.3529   21.0465 C   0  0  0  0  0  0  0  0  0  0  0  0
  -22.1584  -19.3870   20.2318 C   0  0  0  0  0  0  0  0  0  0  0  0
  -27.5333  -28.8318   20.5944 C   0  0  0  0  0  0  0  0  0  0  0  0
  -26.2307  -27.2092   19.3666 C   0  0  0  0  0  0  0  0  0  0  0  0
  -21.7835  -20.4149   21.0960 C   0  0  0  0  0  0  0  0  0  0  0  0
  -30.0451  -27.5702   18.7148 C   0  0  0  0  0  0  0  0  0  0  0  0
  -31.3516  -27.9978   18.4790 C   0  0  0  0  0  0  0  0  0  0  0  0
  -24.1086  -20.9076   21.5088 C   0  0  0  0  0  0  0  0  0  0  0  0
  -31.9512  -27.4162   20.7460 C   0  0  0  0  0  0  0  0  0  0  0  0
  -25.3449  -29.4225   19.7584 C   0  0  0  0  0  0  0  0  0  0  0  0
  -24.1229  -31.3118   18.5564 C   0  0  0  0  0  0  0  0  0  0  0  0
  -24.6447  -11.8663   20.4714 C   0  0  0  0  0  0  0  0  0  0  0  0
  -23.5134  -19.1042   20.0077 C   0  0  0  0  0  0  0  0  0  0  0  0
  -24.1961  -13.1192   20.9313 C   0  0  0  0  0  0  0  0  0  0  0  0
  -24.4980  -19.8773   20.6394 C   0  0  0  0  0  0  0  0  0  0  0  0
  -27.3944  -27.5531   20.0545 C   0  0  0  0  0  0  0  0  0  0  0  0
  -22.7586  -21.1735   21.7369 C   0  0  0  0  0  0  0  0  0  0  0  0
  -29.6915  -27.0657   19.9663 C   0  0  0  0  0  0  0  0  0  0  0  0
  -32.3047  -27.9208   19.4945 C   0  0  0  0  0  0  0  0  0  0  0  0
  -30.6446  -26.9887   20.9818 C   0  0  0  0  0  0  0  0  0  0  0  0
  -24.2858  -30.3874   19.6056 C   0  0  0  0  0  0  0  0  0  0  0  0
  -22.9733  -31.9929   18.8743 C   0  0  0  0  0  0  0  0  0  0  0  0
  -21.8729  -24.4910   22.7750 C   0  0  0  0  0  0  0  0  0  0  0  0
  -22.2274  -23.4302   22.0464 C   0  0  0  0  0  0  0  0  0  1  0  0
  -24.9378  -31.5348   17.3979 C   0  0  0  0  0  0  0  0  0  0  0  0
  -21.7103  -25.8171   22.1236 C   0  0  0  0  0  0  0  0  0  0  0  0
  -25.3923  -16.5893   20.5067 C   0  0  0  0  0  0  0  0  0  0  0  0
  -27.5687  -18.3895   18.9114 C   0  0  0  0  0  0  0  0  0  0  0  0
  -28.6179  -21.4923   17.9532 C   0  0  0  0  0  0  0  0  0  0  0  0
  -21.4064  -29.1276   23.4512 C   0  0  0  0  0  0  0  0  0  0  0  0
  -26.1132  -11.5376   20.3704 C   0  0  0  0  0  0  0  0  0  0  0  0
  -23.9014  -18.0095   19.0519 C   0  0  0  0  0  0  0  0  0  0  0  0
  -25.9665  -19.6272   20.4169 C   0  0  0  0  0  0  0  0  0  0  0  0
  -27.0149  -12.7693   20.3773 C   0  0  0  0  0  0  0  0  0  0  0  0
  -22.2504  -32.6543   23.0537 C   0  0  0  0  0  0  0  0  0  0  0  0
  -26.5971  -13.7306   21.4856 C   0  0  0  0  0  0  0  0  0  0  0  0
  -21.5697  -33.0595   21.7517 C   0  0  0  0  0  0  0  0  0  0  0  0
  -21.4526  -31.5765   23.7733 C   0  0  0  0  0  0  0  0  0  0  0  0
  -20.5992  -30.7075   21.6034 C   0  0  0  0  0  0  0  0  0  0  0  0
  -25.1641  -14.2321   21.2698 C   0  0  1  0  0  0  0  0  0  0  0  0
  -25.3092  -17.4747   19.2956 C   0  0  1  0  0  0  0  0  0  0  0  0
  -21.2934  -31.8548   20.8382 C   0  0  2  0  0  0  0  0  0  0  0  0
  -30.4507  -22.6483   16.6875 C   0  0  0  0  0  0  0  0  0  0  0  0
  -29.4588  -17.9696   21.2696 C   0  0  0  0  0  0  0  0  0  0  0  0
  -30.8431  -19.8698   20.4087 C   0  0  0  0  0  0  0  0  0  0  0  0
  -30.5451  -17.8176   19.0222 C   0  0  0  0  0  0  0  0  0  0  0  0
  -26.7121  -22.6070   15.9823 C   0  0  0  0  0  0  0  0  0  0  0  0
  -28.6050  -19.4135   19.3069 C   0  0  1  0  0  0  0  0  0  0  0  0
  -29.0618  -22.0342   16.6064 C   0  0  2  0  0  0  0  0  0  0  0  0
  -29.8354  -18.7713   20.0078 C   0  0  0  0  0  0  0  0  0  0  0  0
  -23.3174  -30.4711   20.5216 N   0  0  0  0  0  0  0  0  0  0  0  0
  -22.5349  -31.4563   20.0490 N   0  0  0  0  0  0  0  0  0  0  0  0
  -26.2954  -18.5417   19.4783 N   0  0  0  0  0  0  0  0  0  0  0  0
  -21.1973  -30.4155   22.9179 N   0  0  0  0  0  0  0  0  0  0  0  0
  -22.3050  -32.9926   18.2609 N   0  0  0  0  0  0  0  0  0  0  0  0
  -26.0837  -30.7465   17.2253 N   0  0  0  0  0  0  0  0  0  0  0  0
  -21.3423  -26.7882   23.0330 N   0  0  0  0  0  0  0  0  0  0  0  0
  -25.1357  -15.2564   20.2478 N   0  0  0  0  0  0  0  0  0  0  0  0
  -28.9287  -20.1563   18.0937 N   0  0  0  0  0  0  0  0  0  0  0  0
  -21.1530  -28.0751   22.5845 N   0  0  0  0  0  0  0  0  0  0  0  0
  -28.1127  -23.0799   16.1304 N   0  3  0  0  0  0  0  0  0  0  0  0
  -24.6669  -32.4184   16.5497 O   0  0  0  0  0  0  0  0  0  0  0  0
  -21.8906  -25.9907   20.9224 O   0  0  0  0  0  0  0  0  0  0  0  0
  -25.6701  -17.0789   21.5951 O   0  0  0  0  0  0  0  0  0  0  0  0
  -27.8756  -17.4920   18.1228 O   0  0  0  0  0  0  0  0  0  0  0  0
  -28.0554  -22.1859   18.7976 O   0  0  0  0  0  0  0  0  0  0  0  0
  -21.7955  -28.9380   24.6089 O   0  0  0  0  0  0  0  0  0  0  0  0
  -28.3941  -26.6409   20.1987 O   0  0  0  0  0  0  0  0  0  0  0  0
  -22.3929  -22.1841   22.5875 O   0  0  0  0  0  0  0  0  0  1  0  0
  -33.5597  -28.3300   19.2674 F   0  0  0  0  0  0  0  0  0  0  0  0
  -30.3112  -26.5038   22.1858 F   0  0  0  0  0  0  0  0  0  0  0  0
  1  2  1  0  0  0  0
  1  5  2  0  0  0  0
  2  6  2  0  0  0  0
  3  8  2  0  0  0  0
  3 15  1  0  0  0  0
  4  9  1  0  0  0  0
  4 15  2  0  0  0  0
  5 17  1  0  0  0  0
  6 19  1  0  0  0  0
  7 10  2  0  0  0  0
  7 18  1  0  0  0  0
  8 21  1  0  0  0  0
  9 21  2  0  0  0  0
 10 22  1  0  0  0  0
 11 12  2  0  0  0  0
 11 23  1  0  0  0  0
 12 24  1  0  0  0  0
 13 20  1  0  0  0  0
 13 22  2  0  0  0  0
 14 24  2  0  0  0  0
 14 25  1  0  0  0  0
 15 26  1  0  0  0  0
 16 26  1  0  0  0  0
 16 27  2  0  0  0  0
 16 30  1  0  0  0  0
 17 19  2  0  0  0  0
 17 36  1  0  0  0  0
 18 20  2  0  0  0  0
 18 37  1  0  0  0  0
 19 45  1  0  0  0  0
 20 38  1  0  0  0  0
 21 73  1  0  0  0  0
 22 74  1  0  0  0  0
 23 25  2  0  0  0  0
 23 73  1  0  0  0  0
 24 75  1  0  0  0  0
 25 76  1  0  0  0  0
 26 56  2  0  0  0  0
 27 57  1  0  0  0  0
 27 60  1  0  0  0  0
 28 29  2  0  0  0  0
 28 31  1  0  0  0  0
 29 74  1  0  0  0  0
 30 61  1  0  0  0  0
 30 67  2  0  0  0  0
 31 62  1  0  0  0  0
 31 68  2  0  0  0  0
 32 46  1  0  0  0  0
 32 63  1  0  0  0  0
 32 69  2  0  0  0  0
 33 53  1  0  0  0  0
 33 58  1  0  0  0  0
 33 70  2  0  0  0  0
 34 54  1  0  0  0  0
 34 64  1  0  0  0  0
 34 71  2  0  0  0  0
 35 59  1  0  0  0  0
 35 65  1  0  0  0  0
 35 72  2  0  0  0  0
 36 39  1  0  0  0  0
 37 46  1  0  0  0  0
 38 58  1  0  0  0  0
 39 41  1  0  0  0  0
 40 42  1  0  0  0  0
 40 43  1  0  0  0  0
 41 45  1  0  0  0  0
 42 47  1  0  0  0  0
 43 59  1  0  0  0  0
 44 47  1  0  0  0  0
 44 59  1  0  0  0  0
 45 63  1  0  0  0  0
 46 58  1  0  0  0  0
 47 57  1  0  0  0  0
 48 54  1  0  0  0  0
 49 55  1  0  0  0  0
 50 55  1  0  0  0  0
 51 55  1  0  0  0  0
 52 66  1  0  0  0  0
 53 55  1  0  0  0  0
 53 64  1  0  0  0  0
 54 66  1  0  0  0  0
 56 57  1  0  0  0  0
 62 65  1  0  0  0  0
M  CHG  1  66   1
M  ISO  4  29 101  35 100  65 100  74 101
M  END
> <Batch ID>
0072

> <Smiles>
CNC(C)C(=O)NC(C(=O)N1Cc2cc([101O:1][101CH:1]=CC(=O)N[100NH:0][100C:0](=O)N3CCCC(n4nc(-c5ccc(Oc6ccc(F)cc6F)cc5)c(C(N)=O)c4N)C3)ccc2CC1C(=O)NC1CCCc2ccccc21)C(C)(C)C

> <Shape>
0.227

> <Color>
0.076

> <Negative vol penalty>
0.000

$$$$

  -OEChem-04042323383D

 88 97  0     1  0  0  0  0  0999 V2000
  -35.4001  -24.1581    9.2095 C   0  0  0  0  0  0  0  0  0  0  0  0
  -35.7613  -23.8054   10.5059 C   0  0  0  0  0  0  0  0  0  0  0  0
  -23.0010   -9.8829   19.9904 C   0  0  0  0  0  0  0  0  0  0  0  0
  -23.7191   -9.9557   22.2960 C   0  0  0  0  0  0  0  0  0  0  0  0
  -34.4617  -25.1675    8.9987 C   0  0  0  0  0  0  0  0  0  0  0  0
  -35.1850  -24.4628   11.5922 C   0  0  0  0  0  0  0  0  0  0  0  0
  -33.7514  -21.2734   15.2552 C   0  0  0  0  0  0  0  0  0  0  0  0
  -22.2350   -8.7499   20.2647 C   0  0  0  0  0  0  0  0  0  0  0  0
  -22.9530   -8.8227   22.5704 C   0  0  0  0  0  0  0  0  0  0  0  0
  -34.7487  -20.7771   16.0937 C   0  0  0  0  0  0  0  0  0  0  0  0
  -21.4716   -5.7389   23.7973 C   0  0  0  0  0  0  0  0  0  0  0  0
  -22.0566   -4.7308   24.5635 C   0  0  0  0  0  0  0  0  0  0  0  0
  -34.1344  -22.3966   17.7727 C   0  0  0  0  0  0  0  0  0  0  0  0
  -31.6259  -19.3547   22.7034 C   0  0  0  0  0  0  0  0  0  0  0  0
  -31.8763  -17.2662   21.5149 C   0  0  0  0  0  0  0  0  0  0  0  0
  -23.7883   -4.4705   22.8990 C   0  0  0  0  0  0  0  0  0  0  0  0
  -23.7431  -10.4858   21.0060 C   0  0  0  0  0  0  0  0  0  0  0  0
  -24.1259  -13.0001   20.8083 C   0  0  0  0  0  0  0  0  0  0  0  0
  -33.8665  -25.8309   10.0832 C   0  0  0  0  0  0  0  0  0  0  0  0
  -32.9440  -22.3439   15.6656 C   0  0  0  0  0  0  0  0  0  0  0  0
  -34.2388  -25.4829   11.3957 C   0  0  0  0  0  0  0  0  0  0  0  0
  -33.1259  -22.9029   16.9386 C   0  0  0  0  0  0  0  0  0  0  0  0
  -30.3305  -18.9904   23.0708 C   0  0  0  0  0  0  0  0  0  0  0  0
  -32.3987  -18.4927   21.9254 C   0  0  0  0  0  0  0  0  0  0  0  0
  -30.5809  -16.9018   21.8823 C   0  0  0  0  0  0  0  0  0  0  0  0
  -22.2110   -8.2198   21.5547 C   0  0  0  0  0  0  0  0  0  0  0  0
  -34.9422  -21.3406   17.3515 C   0  0  0  0  0  0  0  0  0  0  0  0
  -22.0450   -6.1128   22.5819 C   0  0  0  0  0  0  0  0  0  0  0  0
  -29.8081  -17.7639   22.6603 C   0  0  0  0  0  0  0  0  0  0  0  0
  -23.2149   -4.0966   24.1144 C   0  0  0  0  0  0  0  0  0  0  0  0
  -23.2033   -5.4787   22.1328 C   0  0  0  0  0  0  0  0  0  0  0  0
  -24.5350  -11.6558   20.7232 C   0  0  0  0  0  0  0  0  0  0  0  0
  -25.2359  -13.7207   20.4407 C   0  0  0  0  0  0  0  0  0  0  0  0
  -35.7964  -19.8115   21.5783 C   0  0  0  0  0  0  0  0  0  0  0  0
  -35.6746  -19.0975   20.4571 C   0  0  0  0  0  0  0  0  0  0  0  0
  -34.5273  -19.6796   22.3215 C   0  0  0  0  0  0  0  0  0  0  0  0
  -22.8561  -13.5485   21.1860 C   0  0  0  0  0  0  0  0  0  0  0  0
  -32.4329  -25.2998   14.6141 C   0  0  0  0  0  0  0  0  0  0  0  0
  -30.1526  -25.3086   16.9211 C   0  0  0  0  0  0  0  0  0  0  0  0
  -29.0084  -24.0246   19.8689 C   0  0  0  0  0  0  0  0  0  0  0  0
  -30.7135  -14.6906   20.6826 C   0  0  0  0  0  0  0  0  0  0  0  0
  -32.8921  -26.9479    9.8047 C   0  0  0  0  0  0  0  0  0  0  0  0
  -31.8550  -22.8501   14.7599 C   0  0  0  0  0  0  0  0  0  0  0  0
  -32.2724  -24.0404   17.4346 C   0  0  0  0  0  0  0  0  0  0  0  0
  -34.3459  -18.4337   20.3399 C   0  0  0  0  0  0  0  0  0  0  0  0
  -32.0504  -27.3383   11.0170 C   0  0  0  0  0  0  0  0  0  0  0  0
  -29.6053  -12.2153   18.3757 C   0  0  0  0  0  0  0  0  0  0  0  0
  -32.9309  -27.4825   12.2542 C   0  0  0  0  0  0  0  0  0  0  0  0
  -28.1537  -11.9597   18.7878 C   0  0  0  0  0  0  0  0  0  0  0  0
  -30.5018  -12.4708   19.5860 C   0  0  0  0  0  0  0  0  0  0  0  0
  -28.5814  -13.2694   20.9064 C   0  0  0  0  0  0  0  0  0  0  0  0
  -33.6174  -26.1558   12.6004 C   0  0  1  0  0  0  0  0  0  0  0  0
  -31.4306  -24.2807   15.0774 C   0  0  1  0  0  0  0  0  0  0  0  0
  -27.6276  -13.0711   19.7171 C   0  0  2  0  0  0  0  0  0  0  0  0
  -29.5189  -19.9268   23.9040 C   0  0  0  0  0  0  0  0  0  0  0  0
  -27.1377  -24.2581   21.5252 C   0  0  0  0  0  0  0  0  0  0  0  0
  -31.4243  -27.8666   17.9932 C   0  0  0  0  0  0  0  0  0  0  0  0
  -30.1543  -27.5226   20.1232 C   0  0  0  0  0  0  0  0  0  0  0  0
  -28.9235  -27.8705   17.9815 C   0  0  0  0  0  0  0  0  0  0  0  0
  -28.1305  -21.2300   19.4464 C   0  0  0  0  0  0  0  0  0  0  0  0
  -27.4876  -17.7882   22.1400 C   0  0  0  0  0  0  0  0  0  0  0  0
  -36.7086  -18.9352   19.3921 C   0  0  0  0  0  0  0  0  0  0  0  0
  -36.2440  -19.4757   18.0465 C   0  0  0  0  0  0  0  0  0  1  0  0
  -30.1138  -25.6767   18.3847 C   0  0  1  0  0  0  0  0  0  0  0  0
  -27.6355  -23.5295   20.2865 C   0  0  2  0  0  0  0  0  0  0  0  0
  -30.1715  -27.2139   18.6108 C   0  0  0  0  0  0  0  0  0  0  0  0
  -25.8056  -11.5272   20.3320 N   0  0  0  0  0  0  0  0  0  0  0  0
  -26.2045  -12.8001   20.1680 N   0  0  0  0  0  0  0  0  0  0  0  0
  -33.6890  -18.8561   21.5597 N   0  0  0  0  0  0  0  0  0  0  0  0
  -31.2250  -24.5045   16.5098 N   0  0  0  0  0  0  0  0  0  0  0  0
  -29.9429  -13.5387   20.4179 N   0  0  0  0  0  0  0  0  0  0  0  0
  -25.4681  -15.0457   20.3273 N   0  0  0  0  0  0  0  0  0  0  0  0
  -21.8243  -12.6662   21.5344 N   0  0  0  0  0  0  0  0  0  0  0  0
  -30.0657  -15.6521   21.4575 N   0  0  0  0  0  0  0  0  0  0  0  0
  -32.6875  -25.2617   13.2565 N   0  0  0  0  0  0  0  0  0  0  0  0
  -28.9245  -25.0360   18.9354 N   0  0  0  0  0  0  0  0  0  0  0  0
  -27.6799  -22.0703   20.5857 N   0  3  0  0  0  0  0  0  0  0  0  0
  -34.3101  -20.2143   23.3967 O   0  0  0  0  0  0  0  0  0  0  0  0
  -22.6379  -14.7837   21.1978 O   0  0  0  0  0  0  0  0  0  0  0  0
  -32.9368  -26.0650   15.4280 O   0  0  0  0  0  0  0  0  0  0  0  0
  -29.2601  -25.7134   16.1719 O   0  0  0  0  0  0  0  0  0  0  0  0
  -30.0510  -23.5629   20.3277 O   0  0  0  0  0  0  0  0  0  0  0  0
  -31.8534  -14.8268   20.2308 O   0  0  0  0  0  0  0  0  0  0  0  0
  -21.4635   -7.1145   21.8227 O   0  0  0  0  0  0  0  0  0  0  0  0
  -28.5410  -17.4098   23.0223 O   0  0  0  0  0  0  0  0  0  0  0  0
  -35.9153  -20.8586   18.1717 O   0  0  0  0  0  0  0  0  0  1  0  0
  -23.7774   -3.1295   24.8510 F   0  0  0  0  0  0  0  0  0  0  0  0
  -23.7594   -5.8344   20.9666 F   0  0  0  0  0  0  0  0  0  0  0  0
  1  2  1  0  0  0  0
  1  5  2  0  0  0  0
  2  6  2  0  0  0  0
  3  8  2  0  0  0  0
  3 17  1  0  0  0  0
  4  9  1  0  0  0  0
  4 17  2  0  0  0  0
  5 19  1  0  0  0  0
  6 21  1  0  0  0  0
  7 10  2  0  0  0  0
  7 20  1  0  0  0  0
  8 26  1  0  0  0  0
  9 26  2  0  0  0  0
 10 27  1  0  0  0  0
 11 12  2  0  0  0  0
 11 28  1  0  0  0  0
 12 30  1  0  0  0  0
 13 22  1  0  0  0  0
 13 27  2  0  0  0  0
 14 23  2  0  0  0  0
 14 24  1  0  0  0  0
 15 24  2  0  0  0  0
 15 25  1  0  0  0  0
 16 30  2  0  0  0  0
 16 31  1  0  0  0  0
 17 32  1  0  0  0  0
 18 32  1  0  0  0  0
 18 33  2  0  0  0  0
 18 37  1  0  0  0  0
 19 21  2  0  0  0  0
 19 42  1  0  0  0  0
 20 22  2  0  0  0  0
 20 43  1  0  0  0  0
 21 52  1  0  0  0  0
 22 44  1  0  0  0  0
 23 29  1  0  0  0  0
 23 55  1  0  0  0  0
 24 69  1  0  0  0  0
 25 29  2  0  0  0  0
 25 74  1  0  0  0  0
 26 84  1  0  0  0  0
 27 86  1  0  0  0  0
 28 31  2  0  0  0  0
 28 84  1  0  0  0  0
 29 85  1  0  0  0  0
 30 87  1  0  0  0  0
 31 88  1  0  0  0  0
 32 67  2  0  0  0  0
 33 68  1  0  0  0  0
 33 72  1  0  0  0  0
 34 35  2  0  0  0  0
 34 36  1  0  0  0  0
 35 45  1  0  0  0  0
 35 62  1  0  0  0  0
 36 69  1  0  0  0  0
 36 78  2  0  0  0  0
 37 73  1  0  0  0  0
 37 79  2  0  0  0  0
 38 53  1  0  0  0  0
 38 75  1  0  0  0  0
 38 80  2  0  0  0  0
 39 64  1  0  0  0  0
 39 70  1  0  0  0  0
 39 81  2  0  0  0  0
 40 65  1  0  0  0  0
 40 76  1  0  0  0  0
 40 82  2  0  0  0  0
 41 71  1  0  0  0  0
 41 74  1  0  0  0  0
 41 83  2  0  0  0  0
 42 46  1  0  0  0  0
 43 53  1  0  0  0  0
 44 70  1  0  0  0  0
 45 69  1  0  0  0  0
 46 48  1  0  0  0  0
 47 49  1  0  0  0  0
 47 50  1  0  0  0  0
 48 52  1  0  0  0  0
 49 54  1  0  0  0  0
 50 71  1  0  0  0  0
 51 54  1  0  0  0  0
 51 71  1  0  0  0  0
 52 75  1  0  0  0  0
 53 70  1  0  0  0  0
 54 68  1  0  0  0  0
 56 65  1  0  0  0  0
 57 66  1  0  0  0  0
 58 66  1  0  0  0  0
 59 66  1  0  0  0  0
 60 77  1  0  0  0  0
 61 85  1  0  0  0  0
 62 63  1  0  0  0  0
 63 86  1  0  0  0  0
 64 66  1  0  0  0  0
 64 76  1  0  0  0  0
 65 77  1  0  0  0  0
 67 68  1  0  0  0  0
M  CHG  1  77   1
M  ISO  4  41 100  63 101  74 100  86 101
M  END
> <Batch ID>
0072

> <Smiles>
CNC(C)C(=O)NC(C(=O)N1Cc2cc([101O:1][101CH2:1]C=C3CC(=O)N(c4cc(C)c(OC)c([100NH:0][100C:0](=O)N5CCCC(n6nc(-c7ccc(Oc8ccc(F)cc8F)cc7)c(C(N)=O)c6N)C5)c4)C3)ccc2CC1C(=O)NC1CCCc2ccccc21)C(C)(C)C

> <Shape>
0.236

> <Color>
0.194

> <Negative vol penalty>
0.000

$$$$

  -OEChem-04042323383D

 86 94  0     1  0  0  0  0  0999 V2000
  -17.5613  -25.9220   20.9444 C   0  0  0  0  0  0  0  0  0  0  0  0
  -18.8091  -26.0601   20.3448 C   0  0  0  0  0  0  0  0  0  0  0  0
  -23.9238  -13.2015   24.7441 C   0  0  0  0  0  0  0  0  0  0  0  0
  -23.1193  -15.2826   23.8174 C   0  0  0  0  0  0  0  0  0  0  0  0
  -30.3732  -21.3147   19.5228 C   0  0  0  0  0  0  0  0  0  0  0  0
  -17.2632  -26.6370   22.1036 C   0  0  0  0  0  0  0  0  0  0  0  0
  -19.7591  -26.9143   20.9036 C   0  0  0  0  0  0  0  0  0  0  0  0
  -24.3718  -24.8330   21.0910 C   0  0  0  0  0  0  0  0  0  0  0  0
  -30.2706  -19.9344   19.6953 C   0  0  0  0  0  0  0  0  0  0  0  0
  -23.1796  -13.4292   25.9016 C   0  0  0  0  0  0  0  0  0  0  0  0
  -22.3750  -15.5103   24.9749 C   0  0  0  0  0  0  0  0  0  0  0  0
  -25.1058  -24.8036   19.9060 C   0  0  0  0  0  0  0  0  0  0  0  0
  -19.4523  -14.4544   26.3029 C   0  0  0  0  0  0  0  0  0  0  0  0
  -18.1366  -14.8915   26.1500 C   0  0  0  0  0  0  0  0  0  0  0  0
  -27.9966  -21.4394   19.1067 C   0  0  0  0  0  0  0  0  0  0  0  0
  -26.3521  -26.7352   20.6372 C   0  0  0  0  0  0  0  0  0  0  0  0
  -18.6611  -16.9018   27.3833 C   0  0  0  0  0  0  0  0  0  0  0  0
  -23.8937  -14.1283   23.7020 C   0  0  0  0  0  0  0  0  0  0  0  0
  -29.2362  -22.0672   19.2286 C   0  0  0  0  0  0  0  0  0  0  0  0
  -24.2444  -13.2156   21.3458 C   0  0  0  0  0  0  0  0  0  0  0  0
  -18.2134  -27.4930   22.6823 C   0  0  0  0  0  0  0  0  0  0  0  0
  -24.6155  -25.8219   22.0549 C   0  0  0  0  0  0  0  0  0  0  0  0
  -19.4729  -27.6425   22.0709 C   0  0  0  0  0  0  0  0  0  0  0  0
  -25.6217  -26.7734   21.8348 C   0  0  0  0  0  0  0  0  0  0  0  0
  -29.0310  -19.3065   19.5734 C   0  0  0  0  0  0  0  0  0  0  0  0
  -22.4051  -14.5836   26.0170 C   0  0  0  0  0  0  0  0  0  0  0  0
  -26.0941  -25.7566   19.6777 C   0  0  0  0  0  0  0  0  0  0  0  0
  -20.3725  -15.2409   26.9960 C   0  0  0  0  0  0  0  0  0  0  0  0
  -17.7410  -16.1152   26.6902 C   0  0  0  0  0  0  0  0  0  0  0  0
  -27.8940  -20.0590   19.2791 C   0  0  0  0  0  0  0  0  0  0  0  0
  -19.9769  -16.4646   27.5362 C   0  0  0  0  0  0  0  0  0  0  0  0
  -24.6628  -13.8939   22.5063 C   0  0  0  0  0  0  0  0  0  0  0  0
  -25.3322  -13.2644   20.5087 C   0  0  0  0  0  0  0  0  0  0  0  0
  -29.3439  -23.5286   19.0460 C   0  0  0  0  0  0  0  0  0  0  0  0
  -22.9851  -12.5969   21.0509 C   0  0  0  0  0  0  0  0  0  0  0  0
  -22.9009  -28.1660   23.3468 C   0  0  0  0  0  0  0  0  0  0  0  0
  -25.5099  -28.5020   25.2447 C   0  0  0  0  0  0  0  0  0  0  0  0
  -28.8623  -28.0267   25.6721 C   0  0  0  0  0  0  0  0  0  0  0  0
  -29.9619  -17.0136   20.0452 C   0  0  0  0  0  0  0  0  0  0  0  0
  -17.8286  -28.2812   23.9092 C   0  0  0  0  0  0  0  0  0  0  0  0
  -23.8334  -25.8237   23.3397 C   0  0  0  0  0  0  0  0  0  0  0  0
  -25.9361  -27.8437   22.8467 C   0  0  0  0  0  0  0  0  0  0  0  0
  -19.0228  -28.8796   24.6481 C   0  0  0  0  0  0  0  0  0  0  0  0
  -30.1147  -13.4988   20.5929 C   0  0  0  0  0  0  0  0  0  0  0  0
  -19.9757  -29.5530   23.6656 C   0  0  0  0  0  0  0  0  0  0  0  0
  -28.6943  -13.1386   21.0342 C   0  0  0  0  0  0  0  0  0  0  0  0
  -30.5493  -14.8592   21.1354 C   0  0  0  0  0  0  0  0  0  0  0  0
  -28.2065  -15.6050   21.2902 C   0  0  0  0  0  0  0  0  0  0  0  0
  -20.5386  -28.5404   22.6609 C   0  0  1  0  0  0  0  0  0  0  0  0
  -23.8150  -27.1860   24.0261 C   0  0  1  0  0  0  0  0  0  0  0  0
  -27.7003  -14.2723   20.7147 C   0  0  2  0  0  0  0  0  0  0  0  0
  -31.4727  -25.1381   16.7635 C   0  0  0  0  0  0  0  0  0  0  0  0
  -30.7173  -28.4399   27.3109 C   0  0  0  0  0  0  0  0  0  0  0  0
  -25.5582  -31.4459   24.4441 C   0  0  0  0  0  0  0  0  0  0  0  0
  -27.9035  -31.5713   25.3113 C   0  0  0  0  0  0  0  0  0  0  0  0
  -26.0305  -31.0144   26.8618 C   0  0  0  0  0  0  0  0  0  0  0  0
  -28.5342  -25.6524   16.1313 C   0  0  0  0  0  0  0  0  0  0  0  0
  -29.4147  -25.1328   25.9534 C   0  0  0  0  0  0  0  0  0  0  0  0
  -30.5169  -25.9218   17.6557 C   0  0  0  0  0  0  0  0  0  0  0  0
  -28.1503  -26.2215   18.5768 C   0  0  0  0  0  0  0  0  0  1  0  0
  -26.7912  -29.2967   25.1698 C   0  0  1  0  0  0  0  0  0  0  0  0
  -29.6592  -27.4580   26.8323 C   0  0  2  0  0  0  0  0  0  0  0  0
  -26.5639  -30.8132   25.4266 C   0  0  0  0  0  0  0  0  0  0  0  0
  -29.0410  -25.4833   17.5681 C   0  0  1  0  0  0  0  0  0  0  0  0
  -25.9184  -14.3406   22.4181 N   0  0  0  0  0  0  0  0  0  0  0  0
  -26.2985  -13.9422   21.1922 N   0  0  0  0  0  0  0  0  0  0  0  0
  -25.1397  -27.8074   24.0844 N   0  0  0  0  0  0  0  0  0  0  0  0
  -29.5619  -15.8844   20.7907 N   0  0  0  0  0  0  0  0  0  0  0  0
  -25.5470  -12.7931   19.2620 N   0  0  0  0  0  0  0  0  0  0  0  0
  -29.8009  -24.2569   20.0646 N   0  0  0  0  0  0  0  0  0  0  0  0
  -21.9762  -12.6389   22.0228 N   0  0  0  0  0  0  0  0  0  0  0  0
  -28.9303  -17.9042   19.7494 N   0  0  0  0  0  0  0  0  0  0  0  0
  -21.5852  -27.7500   23.2727 N   0  0  0  0  0  0  0  0  0  0  0  0
  -27.7184  -28.6652   26.1025 N   0  0  0  0  0  0  0  0  0  0  0  0
  -28.9758  -24.0420   17.8719 N   0  3  0  0  0  0  0  0  0  0  0  0
  -30.3391  -26.1961   26.4245 N   0  3  0  0  0  0  0  0  0  0  0  0
  -22.7667  -12.0097   19.9642 O   0  0  0  0  0  0  0  0  0  0  0  0
  -23.3552  -29.2221   22.9226 O   0  0  0  0  0  0  0  0  0  0  0  0
  -24.8651  -28.4919   26.2963 O   0  0  0  0  0  0  0  0  0  0  0  0
  -29.2207  -27.9188   24.5015 O   0  0  0  0  0  0  0  0  0  0  0  0
  -31.1279  -17.1649   19.6717 O   0  0  0  0  0  0  0  0  0  0  0  0
  -21.6786  -14.8060   27.1463 O   0  0  0  0  0  0  0  0  0  0  0  0
  -26.8115  -25.7307   18.5216 O   0  0  0  0  0  0  0  0  0  1  0  0
  -16.4778  -16.5355   26.5419 F   0  0  0  0  0  0  0  0  0  0  0  0
  -26.6977  -19.4659   19.1583 F   0  0  0  0  0  0  0  0  0  0  0  0
  -20.8566  -17.2252   28.2020 F   0  0  0  0  0  0  0  0  0  0  0  0
  1  2  1  0  0  0  0
  1  6  2  0  0  0  0
  2  7  2  0  0  0  0
  3 10  2  0  0  0  0
  3 18  1  0  0  0  0
  4 11  1  0  0  0  0
  4 18  2  0  0  0  0
  5  9  2  0  0  0  0
  5 19  1  0  0  0  0
  6 21  1  0  0  0  0
  7 23  1  0  0  0  0
  8 12  2  0  0  0  0
  8 22  1  0  0  0  0
  9 25  1  0  0  0  0
 10 26  1  0  0  0  0
 11 26  2  0  0  0  0
 12 27  1  0  0  0  0
 13 14  2  0  0  0  0
 13 28  1  0  0  0  0
 14 29  1  0  0  0  0
 15 19  2  0  0  0  0
 15 30  1  0  0  0  0
 16 24  1  0  0  0  0
 16 27  2  0  0  0  0
 17 29  2  0  0  0  0
 17 31  1  0  0  0  0
 18 32  1  0  0  0  0
 19 34  1  0  0  0  0
 20 32  1  0  0  0  0
 20 33  2  0  0  0  0
 20 35  1  0  0  0  0
 21 23  2  0  0  0  0
 21 40  1  0  0  0  0
 22 24  2  0  0  0  0
 22 41  1  0  0  0  0
 23 49  1  0  0  0  0
 24 42  1  0  0  0  0
 25 30  2  0  0  0  0
 25 72  1  0  0  0  0
 26 82  1  0  0  0  0
 27 83  1  0  0  0  0
 28 31  2  0  0  0  0
 28 82  1  0  0  0  0
 29 84  1  0  0  0  0
 30 85  1  0  0  0  0
 31 86  1  0  0  0  0
 32 65  2  0  0  0  0
 33 66  1  0  0  0  0
 33 69  1  0  0  0  0
 34 70  1  0  0  0  0
 34 75  2  0  0  0  0
 35 71  1  0  0  0  0
 35 77  2  0  0  0  0
 36 50  1  0  0  0  0
 36 73  1  0  0  0  0
 36 78  2  0  0  0  0
 37 61  1  0  0  0  0
 37 67  1  0  0  0  0
 37 79  2  0  0  0  0
 38 62  1  0  0  0  0
 38 74  1  0  0  0  0
 38 80  2  0  0  0  0
 39 68  1  0  0  0  0
 39 72  1  0  0  0  0
 39 81  2  0  0  0  0
 40 43  1  0  0  0  0
 41 50  1  0  0  0  0
 42 67  1  0  0  0  0
 43 45  1  0  0  0  0
 44 46  1  0  0  0  0
 44 47  1  0  0  0  0
 45 49  1  0  0  0  0
 46 51  1  0  0  0  0
 47 68  1  0  0  0  0
 48 51  1  0  0  0  0
 48 68  1  0  0  0  0
 49 73  1  0  0  0  0
 50 67  1  0  0  0  0
 51 66  1  0  0  0  0
 52 59  1  0  0  0  0
 53 62  1  0  0  0  0
 54 63  1  0  0  0  0
 55 63  1  0  0  0  0
 56 63  1  0  0  0  0
 57 64  1  0  0  0  0
 58 76  1  0  0  0  0
 59 64  1  0  0  0  0
 60 64  1  0  0  0  0
 60 83  1  0  0  0  0
 61 63  1  0  0  0  0
 61 74  1  0  0  0  0
 62 76  1  0  0  0  0
 64 75  1  0  0  0  0
 65 66  1  0  0  0  0
M  CHG  2  75   1  76   1
M  ISO  4  39 100  60 101  72 100  83 101
M  END
> <Batch ID>
0072

> <Smiles>
CCC(C)(NC(=N)c1ccc([100NH:0][100C:0](=O)N2CCCC(n3nc(-c4ccc(Oc5ccc(F)cc5F)cc4)c(C(N)=O)c3N)C2)c(F)c1)[101CH2:1][101O:1]c1ccc2c(c1)CN(C(=O)C(NC(=O)C(C)NC)C(C)(C)C)C(C(=O)NC1CCCc3ccccc31)C2

> <Shape>
0.256

> <Color>
0.068

> <Negative vol penalty>
0.000

$$$$

  -OEChem-04042323383D

 89 98  0     1  0  0  0  0  0999 V2000
  -33.6303  -25.1003   10.2453 C   0  0  0  0  0  0  0  0  0  0  0  0
  -32.9488  -24.2478   11.1080 C   0  0  0  0  0  0  0  0  0  0  0  0
  -23.2901   -9.7936   19.9076 C   0  0  0  0  0  0  0  0  0  0  0  0
  -23.7222   -9.9360   22.2804 C   0  0  0  0  0  0  0  0  0  0  0  0
  -34.5804  -25.9872   10.7499 C   0  0  0  0  0  0  0  0  0  0  0  0
  -33.2178  -24.2810   12.4758 C   0  0  0  0  0  0  0  0  0  0  0  0
  -30.0109  -23.3915   18.8194 C   0  0  0  0  0  0  0  0  0  0  0  0
  -22.5601   -8.6226   20.1108 C   0  0  0  0  0  0  0  0  0  0  0  0
  -22.9922   -8.7649   22.4836 C   0  0  0  0  0  0  0  0  0  0  0  0
  -30.1570  -22.6807   20.0098 C   0  0  0  0  0  0  0  0  0  0  0  0
  -19.7420   -7.8596   22.6761 C   0  0  0  0  0  0  0  0  0  0  0  0
  -18.8312   -7.8406   23.7323 C   0  0  0  0  0  0  0  0  0  0  0  0
  -31.7619  -24.3095   20.7783 C   0  0  0  0  0  0  0  0  0  0  0  0
  -33.7376  -16.6901   24.0562 C   0  0  0  0  0  0  0  0  0  0  0  0
  -33.0675  -15.8532   21.4807 C   0  0  0  0  0  0  0  0  0  0  0  0
  -20.0259   -5.9923   24.7292 C   0  0  0  0  0  0  0  0  0  0  0  0
  -23.8712  -10.4503   20.9924 C   0  0  0  0  0  0  0  0  0  0  0  0
  -24.1365  -12.9797   20.7933 C   0  0  0  0  0  0  0  0  0  0  0  0
  -34.8543  -26.0380   12.1258 C   0  0  0  0  0  0  0  0  0  0  0  0
  -30.7486  -24.5627   18.5945 C   0  0  0  0  0  0  0  0  0  0  0  0
  -34.1734  -25.1685   12.9992 C   0  0  0  0  0  0  0  0  0  0  0  0
  -31.6214  -25.0347   19.5852 C   0  0  0  0  0  0  0  0  0  0  0  0
  -33.7027  -15.3293   23.7520 C   0  0  0  0  0  0  0  0  0  0  0  0
  -33.3677  -14.9108   22.4643 C   0  0  0  0  0  0  0  0  0  0  0  0
  -33.4374  -17.6325   23.0726 C   0  0  0  0  0  0  0  0  0  0  0  0
  -22.4111   -8.1082   21.3988 C   0  0  0  0  0  0  0  0  0  0  0  0
  -31.0347  -23.1381   20.9883 C   0  0  0  0  0  0  0  0  0  0  0  0
  -20.7947   -6.9449   22.6463 C   0  0  0  0  0  0  0  0  0  0  0  0
  -18.9731   -6.9070   24.7589 C   0  0  0  0  0  0  0  0  0  0  0  0
  -33.1024  -17.2141   21.7848 C   0  0  0  0  0  0  0  0  0  0  0  0
  -20.9367   -6.0114   23.6729 C   0  0  0  0  0  0  0  0  0  0  0  0
  -24.6259  -11.6598   20.7831 C   0  0  0  0  0  0  0  0  0  0  0  0
  -25.2413  -13.7574   20.5462 C   0  0  0  0  0  0  0  0  0  0  0  0
  -34.2989  -19.6498   24.3433 C   0  0  0  0  0  0  0  0  0  0  0  0
  -22.8025  -13.4598   21.0070 C   0  0  0  0  0  0  0  0  0  0  0  0
  -32.9292  -25.4662   16.4656 C   0  0  0  0  0  0  0  0  0  0  0  0
  -32.6045  -28.3410   17.9328 C   0  0  0  0  0  0  0  0  0  0  0  0
  -31.7235  -30.0814   20.7331 C   0  0  0  0  0  0  0  0  0  0  0  0
  -30.9913  -12.8478   21.5287 C   0  0  0  0  0  0  0  0  0  0  0  0
  -35.9237  -26.9803   12.6188 C   0  0  0  0  0  0  0  0  0  0  0  0
  -30.5596  -25.3324   17.3161 C   0  0  0  0  0  0  0  0  0  0  0  0
  -32.4214  -26.2975   19.4012 C   0  0  0  0  0  0  0  0  0  0  0  0
  -35.8808  -27.2151   14.1266 C   0  0  0  0  0  0  0  0  0  0  0  0
  -29.4846  -13.6408   18.3353 C   0  0  0  0  0  0  0  0  0  0  0  0
  -35.7314  -25.8910   14.8690 C   0  0  0  0  0  0  0  0  0  0  0  0
  -28.0098  -13.3435   18.6125 C   0  0  0  0  0  0  0  0  0  0  0  0
  -30.3928  -12.6380   19.0407 C   0  0  0  0  0  0  0  0  0  0  0  0
  -32.6664  -19.9969   22.6733 C   0  0  0  0  0  0  0  0  0  0  0  0
  -28.7038  -12.2428   20.7913 C   0  0  0  0  0  0  0  0  0  0  0  0
  -34.4195  -25.1921   14.4922 C   0  0  1  0  0  0  0  0  0  0  0  0
  -34.0691  -21.1489   24.2183 C   0  0  1  0  0  0  0  0  0  0  0  0
  -31.7442  -26.2333   16.9805 C   0  0  1  0  0  0  0  0  0  0  0  0
  -32.6871  -21.2286   23.5682 C   0  0  1  0  0  0  0  0  0  0  0  0
  -27.7346  -13.2355   20.1241 C   0  0  2  0  0  0  0  0  0  0  0  0
  -34.0275  -14.3386   24.8214 C   0  0  0  0  0  0  0  0  0  0  0  0
  -34.1509  -21.8634   25.5566 C   0  0  0  0  0  0  0  0  0  0  0  0
  -34.6736  -12.9268   21.6157 C   0  0  0  0  0  0  0  0  0  0  0  0
  -31.6020  -32.4164   21.6443 C   0  0  0  0  0  0  0  0  0  0  0  0
  -35.6313  -28.3455   18.3182 C   0  0  0  0  0  0  0  0  0  0  0  0
  -35.3422  -30.1613   20.0175 C   0  0  0  0  0  0  0  0  0  0  0  0
  -34.6615  -30.5516   17.6496 C   0  0  0  0  0  0  0  0  0  0  0  0
  -28.7945  -29.9031   21.1179 C   0  0  0  0  0  0  0  0  0  0  0  0
  -32.4513  -22.5165   22.7947 C   0  0  0  0  0  0  0  0  0  1  0  0
  -33.3235  -13.4595   22.1150 C   0  0  2  0  0  0  0  0  0  0  0  0
  -33.2675  -29.0243   19.1043 C   0  0  1  0  0  0  0  0  0  0  0  0
  -30.8502  -31.3084   20.9233 C   0  0  2  0  0  0  0  0  0  0  0  0
  -34.7121  -29.4958   18.7754 C   0  0  0  0  0  0  0  0  0  0  0  0
  -25.9393  -11.5986   20.5480 N   0  0  0  0  0  0  0  0  0  0  0  0
  -26.2846  -12.8898   20.4082 N   0  0  0  0  0  0  0  0  0  0  0  0
  -33.4741  -19.0246   23.3862 N   0  0  0  0  0  0  0  0  0  0  0  0
  -32.2066  -27.0113   18.1316 N   0  0  0  0  0  0  0  0  0  0  0  0
  -30.0923  -12.5973   20.4788 N   0  0  0  0  0  0  0  0  0  0  0  0
  -25.4124  -15.0919   20.4358 N   0  0  0  0  0  0  0  0  0  0  0  0
  -21.7864  -12.5249   21.2474 N   0  0  0  0  0  0  0  0  0  0  0  0
  -33.3040  -25.8063   15.1798 N   0  0  0  0  0  0  0  0  0  0  0  0
  -32.3676  -30.0970   19.5140 N   0  0  0  0  0  0  0  0  0  0  0  0
  -32.2882  -13.1699   21.1479 N   0  0  0  0  0  0  0  0  0  0  0  0
  -29.6403  -30.9643   21.7225 N   0  3  0  0  0  0  0  0  0  0  0  0
  -35.1133  -19.1598   25.1124 O   0  0  0  0  0  0  0  0  0  0  0  0
  -22.5170  -14.6807   20.9691 O   0  0  0  0  0  0  0  0  0  0  0  0
  -33.4647  -24.6289   17.1824 O   0  0  0  0  0  0  0  0  0  0  0  0
  -32.4391  -28.9663   16.8824 O   0  0  0  0  0  0  0  0  0  0  0  0
  -31.8271  -29.1994   21.5826 O   0  0  0  0  0  0  0  0  0  0  0  0
  -30.6613  -12.7937   22.7184 O   0  0  0  0  0  0  0  0  0  0  0  0
  -21.6986   -6.9656   21.5974 O   0  0  0  0  0  0  0  0  0  0  0  0
  -31.1797  -22.4459   22.1510 O   0  0  0  0  0  0  0  0  0  1  0  0
  -18.0993   -6.8898   25.7739 F   0  0  0  0  0  0  0  0  0  0  0  0
  -32.8123  -18.1110   20.8315 F   0  0  0  0  0  0  0  0  0  0  0  0
  -21.9467   -5.1309   23.6505 F   0  0  0  0  0  0  0  0  0  0  0  0
  1  2  1  0  0  0  0
  1  5  2  0  0  0  0
  2  6  2  0  0  0  0
  3  8  2  0  0  0  0
  3 17  1  0  0  0  0
  4  9  1  0  0  0  0
  4 17  2  0  0  0  0
  5 19  1  0  0  0  0
  6 21  1  0  0  0  0
  7 10  2  0  0  0  0
  7 20  1  0  0  0  0
  8 26  1  0  0  0  0
  9 26  2  0  0  0  0
 10 27  1  0  0  0  0
 11 12  2  0  0  0  0
 11 28  1  0  0  0  0
 12 29  1  0  0  0  0
 13 22  1  0  0  0  0
 13 27  2  0  0  0  0
 14 23  2  0  0  0  0
 14 25  1  0  0  0  0
 15 24  2  0  0  0  0
 15 30  1  0  0  0  0
 16 29  2  0  0  0  0
 16 31  1  0  0  0  0
 17 32  1  0  0  0  0
 18 32  1  0  0  0  0
 18 33  2  0  0  0  0
 18 35  1  0  0  0  0
 19 21  2  0  0  0  0
 19 40  1  0  0  0  0
 20 22  2  0  0  0  0
 20 41  1  0  0  0  0
 21 50  1  0  0  0  0
 22 42  1  0  0  0  0
 23 24  1  0  0  0  0
 23 55  1  0  0  0  0
 24 64  1  0  0  0  0
 25 30  2  0  0  0  0
 25 70  1  0  0  0  0
 26 85  1  0  0  0  0
 27 86  1  0  0  0  0
 28 31  2  0  0  0  0
 28 85  1  0  0  0  0
 29 87  1  0  0  0  0
 30 88  1  0  0  0  0
 31 89  1  0  0  0  0
 32 68  2  0  0  0  0
 33 69  1  0  0  0  0
 33 73  1  0  0  0  0
 34 51  1  0  0  0  0
 34 70  1  0  0  0  0
 34 79  2  0  0  0  0
 35 74  1  0  0  0  0
 35 80  2  0  0  0  0
 36 52  1  0  0  0  0
 36 75  1  0  0  0  0
 36 81  2  0  0  0  0
 37 65  1  0  0  0  0
 37 71  1  0  0  0  0
 37 82  2  0  0  0  0
 38 66  1  0  0  0  0
 38 76  1  0  0  0  0
 38 83  2  0  0  0  0
 39 72  1  0  0  0  0
 39 77  1  0  0  0  0
 39 84  2  0  0  0  0
 40 43  1  0  0  0  0
 41 52  1  0  0  0  0
 42 71  1  0  0  0  0
 43 45  1  0  0  0  0
 44 46  1  0  0  0  0
 44 47  1  0  0  0  0
 45 50  1  0  0  0  0
 46 54  1  0  0  0  0
 47 72  1  0  0  0  0
 48 53  1  0  0  0  0
 48 70  1  0  0  0  0
 49 54  1  0  0  0  0
 49 72  1  0  0  0  0
 50 75  1  0  0  0  0
 51 53  1  0  0  0  0
 51 56  1  0  0  0  0
 52 71  1  0  0  0  0
 53 63  1  0  0  0  0
 54 69  1  0  0  0  0
 57 64  1  0  0  0  0
 58 66  1  0  0  0  0
 59 67  1  0  0  0  0
 60 67  1  0  0  0  0
 61 67  1  0  0  0  0
 62 78  1  0  0  0  0
 63 86  1  0  0  0  0
 64 77  1  0  0  0  0
 65 67  1  0  0  0  0
 65 76  1  0  0  0  0
 66 78  1  0  0  0  0
 68 69  1  0  0  0  0
M  CHG  1  78   1
M  ISO  4  39 100  63 101  77 100  86 101
M  END
> <Batch ID>
0072

> <Smiles>
CNC(C)C(=O)NC(C(=O)N1Cc2cc([101O:1][101CH2:1]C3CN(c4cc(C)c(C(C)[100NH:0][100C:0](=O)N5CCCC(n6nc(-c7ccc(Oc8ccc(F)cc8F)cc7)c(C(N)=O)c6N)C5)cc4F)C(=O)C3C)ccc2CC1C(=O)NC1CCCc2ccccc21)C(C)(C)C

> <Shape>
0.178

> <Color>
0.173

> <Negative vol penalty>
0.000

$$$$

  -OEChem-04042323383D

 85 93  0     1  0  0  0  0  0999 V2000
  -31.3075  -20.0393   22.0358 C   0  0  0  0  0  0  0  0  0  0  0  0
  -31.0347  -18.9840   22.9003 C   0  0  0  0  0  0  0  0  0  0  0  0
  -23.2881   -9.8003   19.9142 C   0  0  0  0  0  0  0  0  0  0  0  0
  -23.7424   -9.9403   22.2829 C   0  0  0  0  0  0  0  0  0  0  0  0
  -31.4823  -21.3265   22.5423 C   0  0  0  0  0  0  0  0  0  0  0  0
  -30.9377  -19.2151   24.2721 C   0  0  0  0  0  0  0  0  0  0  0  0
  -26.9593  -16.8784   26.3594 C   0  0  0  0  0  0  0  0  0  0  0  0
  -32.8188  -12.2761   23.6749 C   0  0  0  0  0  0  0  0  0  0  0  0
  -22.5626   -8.6273   20.1227 C   0  0  0  0  0  0  0  0  0  0  0  0
  -23.0168   -8.7674   22.4915 C   0  0  0  0  0  0  0  0  0  0  0  0
  -27.0809  -15.5115   26.6056 C   0  0  0  0  0  0  0  0  0  0  0  0
  -19.7706   -7.8548   22.7135 C   0  0  0  0  0  0  0  0  0  0  0  0
  -33.5952  -11.9611   24.7900 C   0  0  0  0  0  0  0  0  0  0  0  0
  -18.8698   -7.8323   23.7782 C   0  0  0  0  0  0  0  0  0  0  0  0
  -27.5549  -15.9774   28.9245 C   0  0  0  0  0  0  0  0  0  0  0  0
  -20.0779   -5.9854   24.7613 C   0  0  0  0  0  0  0  0  0  0  0  0
  -23.8780  -10.4567   20.9943 C   0  0  0  0  0  0  0  0  0  0  0  0
  -31.6734  -12.2818   26.2187 C   0  0  0  0  0  0  0  0  0  0  0  0
  -24.1360  -12.9869   20.7962 C   0  0  0  0  0  0  0  0  0  0  0  0
  -31.3779  -21.5751   23.9200 C   0  0  0  0  0  0  0  0  0  0  0  0
  -27.1457  -17.8071   27.3933 C   0  0  0  0  0  0  0  0  0  0  0  0
  -31.1127  -20.5066   24.7976 C   0  0  0  0  0  0  0  0  0  0  0  0
  -27.4326  -17.3554   28.6894 C   0  0  0  0  0  0  0  0  0  0  0  0
  -31.4697  -12.5941   23.8317 C   0  0  0  0  0  0  0  0  0  0  0  0
  -22.4269   -8.1109   21.4113 C   0  0  0  0  0  0  0  0  0  0  0  0
  -27.3815  -15.0609   27.8876 C   0  0  0  0  0  0  0  0  0  0  0  0
  -20.8250   -6.9425   22.6725 C   0  0  0  0  0  0  0  0  0  0  0  0
  -19.0235   -6.8977   24.8022 C   0  0  0  0  0  0  0  0  0  0  0  0
  -33.0225  -11.9639   26.0619 C   0  0  0  0  0  0  0  0  0  0  0  0
  -20.9787   -6.0078   23.6964 C   0  0  0  0  0  0  0  0  0  0  0  0
  -30.8970  -12.5969   25.1035 C   0  0  0  0  0  0  0  0  0  0  0  0
  -24.6281  -11.6681   20.7795 C   0  0  0  0  0  0  0  0  0  0  0  0
  -25.2367  -13.7674   20.5397 C   0  0  0  0  0  0  0  0  0  0  0  0
  -31.0637  -12.2851   27.5734 C   0  0  0  0  0  0  0  0  0  0  0  0
  -22.8030  -13.4639   21.0232 C   0  0  0  0  0  0  0  0  0  0  0  0
  -29.1921  -20.1779   27.9370 C   0  0  0  0  0  0  0  0  0  0  0  0
  -27.2788  -20.7211   30.4996 C   0  0  0  0  0  0  0  0  0  0  0  0
  -25.0283  -19.4864   32.7484 C   0  0  0  0  0  0  0  0  0  0  0  0
  -31.0987  -12.9555   21.3663 C   0  0  0  0  0  0  0  0  0  0  0  0
  -31.6216  -22.9751   24.4255 C   0  0  0  0  0  0  0  0  0  0  0  0
  -26.9848  -19.2769   27.1171 C   0  0  0  0  0  0  0  0  0  0  0  0
  -27.6221  -18.3106   29.8383 C   0  0  0  0  0  0  0  0  0  0  0  0
  -31.1318  -23.2009   25.8535 C   0  0  0  0  0  0  0  0  0  0  0  0
  -29.4602  -13.6602   18.2847 C   0  0  0  0  0  0  0  0  0  0  0  0
  -31.5733  -22.0539   26.7570 C   0  0  0  0  0  0  0  0  0  0  0  0
  -27.9894  -13.3551   18.5781 C   0  0  0  0  0  0  0  0  0  0  0  0
  -30.3949  -12.6852   18.9984 C   0  0  0  0  0  0  0  0  0  0  0  0
  -28.7046  -12.2558   20.7384 C   0  0  0  0  0  0  0  0  0  0  0  0
  -30.9754  -20.7216   26.2892 C   0  0  1  0  0  0  0  0  0  0  0  0
  -27.7027  -20.1582   28.1347 C   0  0  1  0  0  0  0  0  0  0  0  0
  -27.7268  -13.2515   20.0933 C   0  0  2  0  0  0  0  0  0  0  0  0
  -23.6705  -20.1594   34.7486 C   0  0  0  0  0  0  0  0  0  0  0  0
  -27.8766  -10.8994   28.8065 C   0  0  0  0  0  0  0  0  0  0  0  0
  -29.7838  -20.6000   32.2377 C   0  0  0  0  0  0  0  0  0  0  0  0
  -28.2999  -20.3230   34.2351 C   0  0  0  0  0  0  0  0  0  0  0  0
  -28.1662  -22.4020   32.8630 C   0  0  0  0  0  0  0  0  0  0  0  0
  -22.4806  -18.8954   31.3630 C   0  0  0  0  0  0  0  0  0  0  0  0
  -28.3973  -13.3343   29.1694 C   0  0  0  0  0  0  0  0  0  1  0  0
  -27.2457  -20.2399   31.9301 C   0  0  1  0  0  0  0  0  0  0  0  0
  -23.6931  -20.0209   33.2344 C   0  0  2  0  0  0  0  0  0  0  0  0
  -28.9753  -11.9521   28.8711 C   0  0  2  0  0  0  0  0  0  0  0  0
  -28.3723  -20.8731   32.7946 C   0  0  0  0  0  0  0  0  0  0  0  0
  -25.9394  -11.6101   20.5320 N   0  0  0  0  0  0  0  0  0  0  0  0
  -26.2805  -12.9023   20.3906 N   0  0  0  0  0  0  0  0  0  0  0  0
  -27.4609  -19.7382   29.5165 N   0  0  0  0  0  0  0  0  0  0  0  0
  -30.0903  -12.6427   20.4303 N   0  0  0  0  0  0  0  0  0  0  0  0
  -25.4038  -15.1024   20.4295 N   0  0  0  0  0  0  0  0  0  0  0  0
  -21.7913  -12.5264   21.2719 N   0  0  0  0  0  0  0  0  0  0  0  0
  -30.6835  -12.9134   22.6969 N   0  0  0  0  0  0  0  0  0  0  0  0
  -29.7160  -11.9675   27.6301 N   0  0  0  0  0  0  0  0  0  0  0  0
  -29.5883  -20.6218   26.6898 N   0  0  0  0  0  0  0  0  0  0  0  0
  -25.8969  -20.5052   32.4189 N   0  0  0  0  0  0  0  0  0  0  0  0
  -22.5899  -19.1042   32.8298 N   0  3  0  0  0  0  0  0  0  0  0  0
  -31.7576  -12.5800   28.5430 O   0  0  0  0  0  0  0  0  0  0  0  0
  -22.5146  -14.6842   20.9897 O   0  0  0  0  0  0  0  0  0  0  0  0
  -29.9274  -19.8186   28.8491 O   0  0  0  0  0  0  0  0  0  0  0  0
  -27.1409  -21.9238   30.2628 O   0  0  0  0  0  0  0  0  0  0  0  0
  -25.2771  -18.2852   32.6726 O   0  0  0  0  0  0  0  0  0  0  0  0
  -32.2388  -13.2664   21.0122 O   0  0  0  0  0  0  0  0  0  0  0  0
  -21.7188   -6.9665   21.6151 O   0  0  0  0  0  0  0  0  0  0  0  0
  -27.5014  -13.7273   28.1305 O   0  0  0  0  0  0  0  0  0  1  0  0
  -18.1594   -6.8772   25.8254 F   0  0  0  0  0  0  0  0  0  0  0  0
  -33.7790  -11.6593   27.1258 F   0  0  0  0  0  0  0  0  0  0  0  0
  -21.9903   -5.1296   23.6632 F   0  0  0  0  0  0  0  0  0  0  0  0
  -29.5992  -12.9028   25.2544 F   0  0  0  0  0  0  0  0  0  0  0  0
  1  2  1  0  0  0  0
  1  5  2  0  0  0  0
  2  6  2  0  0  0  0
  3  9  2  0  0  0  0
  3 17  1  0  0  0  0
  4 10  1  0  0  0  0
  4 17  2  0  0  0  0
  5 20  1  0  0  0  0
  6 22  1  0  0  0  0
  7 11  2  0  0  0  0
  7 21  1  0  0  0  0
  8 13  1  0  0  0  0
  8 24  2  0  0  0  0
  9 25  1  0  0  0  0
 10 25  2  0  0  0  0
 11 26  1  0  0  0  0
 12 14  2  0  0  0  0
 12 27  1  0  0  0  0
 13 29  2  0  0  0  0
 14 28  1  0  0  0  0
 15 23  1  0  0  0  0
 15 26  2  0  0  0  0
 16 28  2  0  0  0  0
 16 30  1  0  0  0  0
 17 32  1  0  0  0  0
 18 29  1  0  0  0  0
 18 31  2  0  0  0  0
 18 34  1  0  0  0  0
 19 32  1  0  0  0  0
 19 33  2  0  0  0  0
 19 35  1  0  0  0  0
 20 22  2  0  0  0  0
 20 40  1  0  0  0  0
 21 23  2  0  0  0  0
 21 41  1  0  0  0  0
 22 49  1  0  0  0  0
 23 42  1  0  0  0  0
 24 31  1  0  0  0  0
 24 69  1  0  0  0  0
 25 80  1  0  0  0  0
 26 81  1  0  0  0  0
 27 30  2  0  0  0  0
 27 80  1  0  0  0  0
 28 82  1  0  0  0  0
 29 83  1  0  0  0  0
 30 84  1  0  0  0  0
 31 85  1  0  0  0  0
 32 63  2  0  0  0  0
 33 64  1  0  0  0  0
 33 67  1  0  0  0  0
 34 70  1  0  0  0  0
 34 74  2  0  0  0  0
 35 68  1  0  0  0  0
 35 75  2  0  0  0  0
 36 50  1  0  0  0  0
 36 71  1  0  0  0  0
 36 76  2  0  0  0  0
 37 59  1  0  0  0  0
 37 65  1  0  0  0  0
 37 77  2  0  0  0  0
 38 60  1  0  0  0  0
 38 72  1  0  0  0  0
 38 78  2  0  0  0  0
 39 66  1  0  0  0  0
 39 69  1  0  0  0  0
 39 79  2  0  0  0  0
 40 43  1  0  0  0  0
 41 50  1  0  0  0  0
 42 65  1  0  0  0  0
 43 45  1  0  0  0  0
 44 46  1  0  0  0  0
 44 47  1  0  0  0  0
 45 49  1  0  0  0  0
 46 51  1  0  0  0  0
 47 66  1  0  0  0  0
 48 51  1  0  0  0  0
 48 66  1  0  0  0  0
 49 71  1  0  0  0  0
 50 65  1  0  0  0  0
 51 64  1  0  0  0  0
 52 60  1  0  0  0  0
 53 61  1  0  0  0  0
 54 62  1  0  0  0  0
 55 62  1  0  0  0  0
 56 62  1  0  0  0  0
 57 73  1  0  0  0  0
 58 61  1  0  0  0  0
 58 81  1  0  0  0  0
 59 62  1  0  0  0  0
 59 72  1  0  0  0  0
 60 73  1  0  0  0  0
 61 70  1  0  0  0  0
 63 64  1  0  0  0  0
M  CHG  1  73   1
M  ISO  4  39 100  58 101  69 100  81 101
M  END
> <Batch ID>
0072

> <Smiles>
CNC(C)C(=O)NC(C(=O)N1Cc2cc([101O:1][101CH2:1]C(C)NC(=O)c3c(F)ccc([100NH:0][100C:0](=O)N4CCCC(n5nc(-c6ccc(Oc7ccc(F)cc7F)cc6)c(C(N)=O)c5N)C4)c3F)ccc2CC1C(=O)NC1CCCc2ccccc21)C(C)(C)C

> <Shape>
0.135

> <Color>
0.174

> <Negative vol penalty>
0.000

$$$$

  -OEChem-04042323383D

 85 93  0     1  0  0  0  0  0999 V2000
  -37.2247  -29.1507   16.3055 C   0  0  0  0  0  0  0  0  0  0  0  0
  -36.5973  -28.9707   17.5340 C   0  0  0  0  0  0  0  0  0  0  0  0
  -23.0732   -9.8697   19.9426 C   0  0  0  0  0  0  0  0  0  0  0  0
  -23.8311   -9.8785   22.2367 C   0  0  0  0  0  0  0  0  0  0  0  0
  -30.4659  -18.3416   24.0427 C   0  0  0  0  0  0  0  0  0  0  0  0
  -37.4488  -28.0562   15.4715 C   0  0  0  0  0  0  0  0  0  0  0  0
  -36.1924  -27.6961   17.9288 C   0  0  0  0  0  0  0  0  0  0  0  0
  -36.1643  -25.4408   23.6225 C   0  0  0  0  0  0  0  0  0  0  0  0
  -29.8793  -17.4568   23.1379 C   0  0  0  0  0  0  0  0  0  0  0  0
  -22.3281   -8.7175   20.1931 C   0  0  0  0  0  0  0  0  0  0  0  0
  -23.0859   -8.7263   22.4872 C   0  0  0  0  0  0  0  0  0  0  0  0
  -35.1529  -25.3046   24.5725 C   0  0  0  0  0  0  0  0  0  0  0  0
  -22.8973   -5.3989   20.4881 C   0  0  0  0  0  0  0  0  0  0  0  0
  -22.9641   -4.3682   19.5506 C   0  0  0  0  0  0  0  0  0  0  0  0
  -34.8017  -23.0259   23.8630 C   0  0  0  0  0  0  0  0  0  0  0  0
  -32.0638  -16.6067   22.5528 C   0  0  0  0  0  0  0  0  0  0  0  0
  -20.5800   -4.5357   19.1966 C   0  0  0  0  0  0  0  0  0  0  0  0
  -23.8247  -10.4502   20.9644 C   0  0  0  0  0  0  0  0  0  0  0  0
  -31.8515  -18.3590   24.2025 C   0  0  0  0  0  0  0  0  0  0  0  0
  -24.1689  -12.9750   20.8420 C   0  0  0  0  0  0  0  0  0  0  0  0
  -37.0552  -26.7660   15.8604 C   0  0  0  0  0  0  0  0  0  0  0  0
  -36.4951  -24.3722   22.7769 C   0  0  0  0  0  0  0  0  0  0  0  0
  -36.4103  -26.5834   17.0986 C   0  0  0  0  0  0  0  0  0  0  0  0
  -35.8193  -23.1503   22.9049 C   0  0  0  0  0  0  0  0  0  0  0  0
  -30.6782  -16.5894   22.3930 C   0  0  0  0  0  0  0  0  0  0  0  0
  -22.3344   -8.1458   21.4654 C   0  0  0  0  0  0  0  0  0  0  0  0
  -34.4695  -24.0980   24.6909 C   0  0  0  0  0  0  0  0  0  0  0  0
  -21.6718   -5.9979   20.7799 C   0  0  0  0  0  0  0  0  0  0  0  0
  -21.8055   -3.9367   18.9048 C   0  0  0  0  0  0  0  0  0  0  0  0
  -32.6504  -17.4916   23.4576 C   0  0  0  0  0  0  0  0  0  0  0  0
  -20.5132   -5.5664   20.1341 C   0  0  0  0  0  0  0  0  0  0  0  0
  -24.5951  -11.6402   20.7061 C   0  0  0  0  0  0  0  0  0  0  0  0
  -25.2620  -13.7231   20.4789 C   0  0  0  0  0  0  0  0  0  0  0  0
  -32.4698  -19.2977   25.1611 C   0  0  0  0  0  0  0  0  0  0  0  0
  -22.8985  -13.4923   21.2592 C   0  0  0  0  0  0  0  0  0  0  0  0
  -36.4337  -23.8963   19.6347 C   0  0  0  0  0  0  0  0  0  0  0  0
  -37.8889  -21.1061   20.4217 C   0  0  0  0  0  0  0  0  0  0  0  0
  -38.4814  -18.7123   22.7808 C   0  0  0  0  0  0  0  0  0  0  0  0
  -32.7946  -21.6777   25.7986 C   0  0  0  0  0  0  0  0  0  0  0  0
  -30.7289  -14.7641   20.6574 C   0  0  0  0  0  0  0  0  0  0  0  0
  -37.2762  -25.6206   14.9045 C   0  0  0  0  0  0  0  0  0  0  0  0
  -37.6067  -24.5267   21.7754 C   0  0  0  0  0  0  0  0  0  0  0  0
  -36.1502  -21.9662   22.0349 C   0  0  0  0  0  0  0  0  0  0  0  0
  -37.1537  -24.2476   15.5604 C   0  0  0  0  0  0  0  0  0  0  0  0
  -29.6146  -12.3488   18.2907 C   0  0  0  0  0  0  0  0  0  0  0  0
  -35.9073  -24.1843   16.4375 C   0  0  0  0  0  0  0  0  0  0  0  0
  -28.1743  -12.0589   18.7193 C   0  0  0  0  0  0  0  0  0  0  0  0
  -30.5288  -12.5781   19.4929 C   0  0  0  0  0  0  0  0  0  0  0  0
  -28.6212  -13.3056   20.8717 C   0  0  0  0  0  0  0  0  0  0  0  0
  -35.9788  -25.2126   17.5728 C   0  0  1  0  0  0  0  0  0  0  0  0
  -37.5107  -23.5366   20.6188 C   0  0  1  0  0  0  0  0  0  0  0  0
  -27.6493  -13.1320   19.6932 C   0  0  2  0  0  0  0  0  0  0  0  0
  -39.6776  -16.5322   23.1180 C   0  0  0  0  0  0  0  0  0  0  0  0
  -31.1582  -23.5518   25.9915 C   0  0  0  0  0  0  0  0  0  0  0  0
  -35.7101  -19.6690   18.8412 C   0  0  0  0  0  0  0  0  0  0  0  0
  -36.3835  -17.5433   19.9798 C   0  0  0  0  0  0  0  0  0  0  0  0
  -38.0121  -18.7452   18.5218 C   0  0  0  0  0  0  0  0  0  0  0  0
  -40.1838  -19.8443   24.9208 C   0  0  0  0  0  0  0  0  0  0  0  0
  -37.4164  -19.7174   20.7784 C   0  0  1  0  0  0  0  0  0  0  0  0
  -39.7660  -18.0456   23.2389 C   0  0  2  0  0  0  0  0  0  0  0  0
  -32.4210  -23.0591   25.3077 C   0  0  1  0  0  0  0  0  0  1  0  0
  -36.8727  -18.9414   19.5455 C   0  0  0  0  0  0  0  0  0  0  0  0
  -25.8602  -11.5428   20.2890 N   0  0  0  0  0  0  0  0  0  0  0  0
  -26.2384  -12.8259   20.1597 N   0  0  0  0  0  0  0  0  0  0  0  0
  -37.2405  -22.1689   21.0665 N   0  0  0  0  0  0  0  0  0  0  0  0
  -29.9699  -13.6103   20.3687 N   0  0  0  0  0  0  0  0  0  0  0  0
  -25.4736  -15.0543   20.4046 N   0  0  0  0  0  0  0  0  0  0  0  0
  -21.8855  -12.5844   21.5965 N   0  0  0  0  0  0  0  0  0  0  0  0
  -30.0816  -15.6906   21.4742 N   0  0  0  0  0  0  0  0  0  0  0  0
  -32.2755  -20.6104   24.9740 N   0  0  0  0  0  0  0  0  0  0  0  0
  -36.8531  -24.7426   18.6260 N   0  0  0  0  0  0  0  0  0  0  0  0
  -38.5358  -19.0650   21.4490 N   0  0  0  0  0  0  0  0  0  0  0  0
  -33.1880  -18.7824   26.1584 N   0  3  0  0  0  0  0  0  0  0  0  0
  -40.0484  -18.3878   24.6616 N   0  3  0  0  0  0  0  0  0  0  0  0
  -22.6632  -14.7232   21.3150 O   0  0  0  0  0  0  0  0  0  0  0  0
  -35.3061  -23.4387   19.7789 O   0  0  0  0  0  0  0  0  0  0  0  0
  -38.8045  -21.2425   19.6065 O   0  0  0  0  0  0  0  0  0  0  0  0
  -37.5240  -18.8981   23.5288 O   0  0  0  0  0  0  0  0  0  0  0  0
  -33.4868  -21.4486   26.7808 O   0  0  0  0  0  0  0  0  0  0  0  0
  -31.8586  -14.9314   20.1906 O   0  0  0  0  0  0  0  0  0  0  0  0
  -21.6073   -7.0216   21.7103 O   0  0  0  0  0  0  0  0  0  0  0  0
  -33.4815  -23.9626   25.6168 O   0  0  0  0  0  0  0  0  0  1  0  0
  -21.8700   -2.9480   18.0034 F   0  0  0  0  0  0  0  0  0  0  0  0
  -33.9829  -17.5023   23.6028 F   0  0  0  0  0  0  0  0  0  0  0  0
  -19.3333   -6.1388   20.4094 F   0  0  0  0  0  0  0  0  0  0  0  0
  1  2  1  0  0  0  0
  1  6  2  0  0  0  0
  2  7  2  0  0  0  0
  3 10  2  0  0  0  0
  3 18  1  0  0  0  0
  4 11  1  0  0  0  0
  4 18  2  0  0  0  0
  5  9  2  0  0  0  0
  5 19  1  0  0  0  0
  6 21  1  0  0  0  0
  7 23  1  0  0  0  0
  8 12  2  0  0  0  0
  8 22  1  0  0  0  0
  9 25  1  0  0  0  0
 10 26  1  0  0  0  0
 11 26  2  0  0  0  0
 12 27  1  0  0  0  0
 13 14  2  0  0  0  0
 13 28  1  0  0  0  0
 14 29  1  0  0  0  0
 15 24  1  0  0  0  0
 15 27  2  0  0  0  0
 16 25  2  0  0  0  0
 16 30  1  0  0  0  0
 17 29  2  0  0  0  0
 17 31  1  0  0  0  0
 18 32  1  0  0  0  0
 19 30  2  0  0  0  0
 19 34  1  0  0  0  0
 20 32  1  0  0  0  0
 20 33  2  0  0  0  0
 20 35  1  0  0  0  0
 21 23  2  0  0  0  0
 21 41  1  0  0  0  0
 22 24  2  0  0  0  0
 22 42  1  0  0  0  0
 23 50  1  0  0  0  0
 24 43  1  0  0  0  0
 25 69  1  0  0  0  0
 26 81  1  0  0  0  0
 27 82  1  0  0  0  0
 28 31  2  0  0  0  0
 28 81  1  0  0  0  0
 29 83  1  0  0  0  0
 30 84  1  0  0  0  0
 31 85  1  0  0  0  0
 32 63  2  0  0  0  0
 33 64  1  0  0  0  0
 33 67  1  0  0  0  0
 34 70  1  0  0  0  0
 34 73  2  0  0  0  0
 35 68  1  0  0  0  0
 35 75  2  0  0  0  0
 36 51  1  0  0  0  0
 36 71  1  0  0  0  0
 36 76  2  0  0  0  0
 37 59  1  0  0  0  0
 37 65  1  0  0  0  0
 37 77  2  0  0  0  0
 38 60  1  0  0  0  0
 38 72  1  0  0  0  0
 38 78  2  0  0  0  0
 39 61  1  0  0  0  0
 39 70  1  0  0  0  0
 39 79  2  0  0  0  0
 40 66  1  0  0  0  0
 40 69  1  0  0  0  0
 40 80  2  0  0  0  0
 41 44  1  0  0  0  0
 42 51  1  0  0  0  0
 43 65  1  0  0  0  0
 44 46  1  0  0  0  0
 45 47  1  0  0  0  0
 45 48  1  0  0  0  0
 46 50  1  0  0  0  0
 47 52  1  0  0  0  0
 48 66  1  0  0  0  0
 49 52  1  0  0  0  0
 49 66  1  0  0  0  0
 50 71  1  0  0  0  0
 51 65  1  0  0  0  0
 52 64  1  0  0  0  0
 53 60  1  0  0  0  0
 54 61  1  0  0  0  0
 55 62  1  0  0  0  0
 56 62  1  0  0  0  0
 57 62  1  0  0  0  0
 58 74  1  0  0  0  0
 59 62  1  0  0  0  0
 59 72  1  0  0  0  0
 60 74  1  0  0  0  0
 61 82  1  0  0  0  0
 63 64  1  0  0  0  0
M  CHG  2  73   1  74   1
M  ISO  4  40 100  61 101  69 100  82 101
M  END
> <Batch ID>
0072

> <Smiles>
CNC(C)C(=O)NC(C(=O)N1Cc2cc([101O:1][101CH:1](C)C(=O)NC(=N)c3ccc([100NH:0][100C:0](=O)N4CCCC(n5nc(-c6ccc(Oc7ccc(F)cc7F)cc6)c(C(N)=O)c5N)C4)cc3F)ccc2CC1C(=O)NC1CCCc2ccccc21)C(C)(C)C

> <Shape>
0.149

> <Color>
0.187

> <Negative vol penalty>
0.000

$$$$

  -OEChem-04042323383D

 86 95  0     1  0  0  0  0  0999 V2000
  -26.3461  -36.0766   16.1771 C   0  0  0  0  0  0  0  0  0  0  0  0
  -26.5162  -34.6974   16.1130 C   0  0  0  0  0  0  0  0  0  0  0  0
  -24.7859   -8.7039   21.6440 C   0  0  0  0  0  0  0  0  0  0  0  0
  -23.2363   -9.9014   20.2291 C   0  0  0  0  0  0  0  0  0  0  0  0
  -26.4551  -36.7352   17.4011 C   0  0  0  0  0  0  0  0  0  0  0  0
  -26.7966  -33.9759   17.2729 C   0  0  0  0  0  0  0  0  0  0  0  0
  -24.9240  -28.3036   18.6232 C   0  0  0  0  0  0  0  0  0  0  0  0
  -25.1967  -17.0285   16.8348 C   0  0  0  0  0  0  0  0  0  0  0  0
  -23.7290   -8.3002   22.4598 C   0  0  0  0  0  0  0  0  0  0  0  0
  -22.1794   -9.4977   21.0449 C   0  0  0  0  0  0  0  0  0  0  0  0
  -25.5491  -27.0612   18.5253 C   0  0  0  0  0  0  0  0  0  0  0  0
  -21.2843   -5.9652   22.3960 C   0  0  0  0  0  0  0  0  0  0  0  0
  -24.4715  -18.1754   16.5119 C   0  0  0  0  0  0  0  0  0  0  0  0
  -21.2469   -4.6291   22.7947 C   0  0  0  0  0  0  0  0  0  0  0  0
  -26.1890  -27.2070   20.8466 C   0  0  0  0  0  0  0  0  0  0  0  0
  -26.8223  -18.3842   17.9995 C   0  0  0  0  0  0  0  0  0  0  0  0
  -21.3569   -5.3164   25.1083 C   0  0  0  0  0  0  0  0  0  0  0  0
  -24.5396   -9.5046   20.5286 C   0  0  0  0  0  0  0  0  0  0  0  0
  -26.1403   -9.2501   18.5587 C   0  0  0  0  0  0  0  0  0  0  0  0
  -26.7274  -36.0202   18.5781 C   0  0  0  0  0  0  0  0  0  0  0  0
  -24.9362  -29.0131   19.8327 C   0  0  0  0  0  0  0  0  0  0  0  0
  -26.9107  -34.6257   18.5136 C   0  0  0  0  0  0  0  0  0  0  0  0
  -25.5612  -28.4570   20.9579 C   0  0  0  0  0  0  0  0  0  0  0  0
  -26.0971  -19.5311   17.6766 C   0  0  0  0  0  0  0  0  0  0  0  0
  -26.3721  -17.1329   17.5786 C   0  0  0  0  0  0  0  0  0  0  0  0
  -22.4258   -8.6970   22.1603 C   0  0  0  0  0  0  0  0  0  0  0  0
  -26.1843  -26.5140   19.6363 C   0  0  0  0  0  0  0  0  0  0  0  0
  -21.3580   -6.9770   23.3534 C   0  0  0  0  0  0  0  0  0  0  0  0
  -21.2832   -4.3047   24.1508 C   0  0  0  0  0  0  0  0  0  0  0  0
  -24.9217  -19.4267   16.9328 C   0  0  0  0  0  0  0  0  0  0  0  0
  -21.3943   -6.6526   24.7096 C   0  0  0  0  0  0  0  0  0  0  0  0
  -25.6310   -9.9224   19.6858 C   0  0  0  0  0  0  0  0  0  0  0  0
  -27.1637  -10.0512   18.1144 C   0  0  0  0  0  0  0  0  0  0  0  0
  -27.9043  -22.4991   18.8075 C   0  0  0  0  0  0  0  0  0  0  0  0
  -27.8830  -21.0946   18.2853 C   0  0  0  0  0  0  0  0  0  0  0  0
  -25.7253   -8.0122   17.9662 C   0  0  0  0  0  0  0  0  0  0  0  0
  -26.0913  -31.8206   20.7748 C   0  0  0  0  0  0  0  0  0  0  0  0
  -24.5350  -31.0975   23.5275 C   0  0  0  0  0  0  0  0  0  0  0  0
  -23.2343  -28.6977   25.5759 C   0  0  0  0  0  0  0  0  0  0  0  0
  -28.2944  -15.8954   18.6368 C   0  0  0  0  0  0  0  0  0  0  0  0
  -26.8828  -36.7818   19.8706 C   0  0  0  0  0  0  0  0  0  0  0  0
  -24.2343  -30.3399   19.9291 C   0  0  0  0  0  0  0  0  0  0  0  0
  -25.5850  -29.1692   22.2848 C   0  0  0  0  0  0  0  0  0  0  0  0
  -26.8111  -35.8961   21.1119 C   0  0  0  0  0  0  0  0  0  0  0  0
  -30.3933  -13.2181   19.6875 C   0  0  0  0  0  0  0  0  0  0  0  0
  -27.6797  -34.6550   20.9330 C   0  0  0  0  0  0  0  0  0  0  0  0
  -29.4580  -12.0068   19.6979 C   0  0  0  0  0  0  0  0  0  0  0  0
  -29.6803  -14.4891   20.1457 C   0  0  0  0  0  0  0  0  0  0  0  0
  -25.6705  -21.9032   18.3929 C   0  0  0  0  0  0  0  0  0  0  0  0
  -27.5005  -13.5842   19.4393 C   0  0  0  0  0  0  0  0  0  0  0  0
  -27.1913  -33.8051   19.7538 C   0  0  1  0  0  0  0  0  0  0  0  0
  -26.5119  -22.9643   19.1071 C   0  0  2  0  0  0  0  0  0  0  0  0
  -24.7518  -31.2080   21.0718 C   0  0  1  0  0  0  0  0  0  0  0  0
  -28.1566  -12.2930   18.9234 C   0  0  2  0  0  0  0  0  0  0  0  0
  -22.0585  -28.4099   27.7741 C   0  0  0  0  0  0  0  0  0  0  0  0
  -27.1656  -31.5828   24.9953 C   0  0  0  0  0  0  0  0  0  0  0  0
  -26.2024  -30.3868   26.9727 C   0  0  0  0  0  0  0  0  0  0  0  0
  -25.1427  -32.4907   26.1520 C   0  0  0  0  0  0  0  0  0  0  0  0
  -20.8664  -27.4819   24.2822 C   0  0  0  0  0  0  0  0  0  0  0  0
  -26.2519  -24.3700   18.6093 C   0  0  0  0  0  0  0  0  0  1  0  0
  -24.8953  -30.3689   24.7996 C   0  0  1  0  0  0  0  0  0  0  0  0
  -21.8903  -28.5890   26.2733 C   0  0  2  0  0  0  0  0  0  0  0  0
  -25.8529  -31.1945   25.7045 C   0  0  0  0  0  0  0  0  0  0  0  0
  -26.2777  -11.0627   19.9419 N   0  0  0  0  0  0  0  0  0  0  0  0
  -27.2038  -11.1131   18.9694 N   0  0  0  0  0  0  0  0  0  0  0  0
  -26.5476  -20.7771   18.0974 N   0  0  0  0  0  0  0  0  0  0  0  0
  -24.8903  -30.4665   22.3269 N   0  0  0  0  0  0  0  0  0  0  0  0
  -28.4590  -14.6980   19.3649 N   0  0  0  0  0  0  0  0  0  0  0  0
  -28.0242   -9.9438   17.0798 N   0  0  0  0  0  0  0  0  0  0  0  0
  -24.6569   -7.3174   18.5494 N   0  0  0  0  0  0  0  0  0  0  0  0
  -27.1087  -15.9676   17.9064 N   0  0  0  0  0  0  0  0  0  0  0  0
  -26.0214  -33.0415   20.1314 N   0  0  0  0  0  0  0  0  0  0  0  0
  -23.6326  -30.0104   25.4363 N   0  0  0  0  0  0  0  0  0  0  0  0
  -21.1248  -27.4251   25.7440 N   0  3  0  0  0  0  0  0  0  0  0  0
  -28.9489  -23.0975   18.9677 O   0  0  0  0  0  0  0  0  0  0  0  0
  -28.9002  -20.4600   18.0987 O   0  0  0  0  0  0  0  0  0  0  0  0
  -26.2959   -7.5282   16.9594 O   0  0  0  0  0  0  0  0  0  0  0  0
  -27.1126  -31.2300   21.1061 O   0  0  0  0  0  0  0  0  0  0  0  0
  -23.9532  -32.1831   23.5964 O   0  0  0  0  0  0  0  0  0  0  0  0
  -23.8692  -27.7162   25.1964 O   0  0  0  0  0  0  0  0  0  0  0  0
  -29.1552  -16.7791   18.6378 O   0  0  0  0  0  0  0  0  0  0  0  0
  -21.3942   -8.3030   22.9560 O   0  0  0  0  0  0  0  0  0  0  0  0
  -26.7957  -25.3019   19.5433 O   0  0  0  0  0  0  0  0  0  1  0  0
  -21.2458   -3.0216   24.5336 F   0  0  0  0  0  0  0  0  0  0  0  0
  -24.2166  -20.5220   16.6162 F   0  0  0  0  0  0  0  0  0  0  0  0
  -21.4639   -7.6202   25.6340 F   0  0  0  0  0  0  0  0  0  0  0  0
  1  2  1  0  0  0  0
  1  5  2  0  0  0  0
  2  6  2  0  0  0  0
  3  9  2  0  0  0  0
  3 18  1  0  0  0  0
  4 10  1  0  0  0  0
  4 18  2  0  0  0  0
  5 20  1  0  0  0  0
  6 22  1  0  0  0  0
  7 11  2  0  0  0  0
  7 21  1  0  0  0  0
  8 13  2  0  0  0  0
  8 25  1  0  0  0  0
  9 26  1  0  0  0  0
 10 26  2  0  0  0  0
 11 27  1  0  0  0  0
 12 14  2  0  0  0  0
 12 28  1  0  0  0  0
 13 30  1  0  0  0  0
 14 29  1  0  0  0  0
 15 23  1  0  0  0  0
 15 27  2  0  0  0  0
 16 24  1  0  0  0  0
 16 25  2  0  0  0  0
 17 29  2  0  0  0  0
 17 31  1  0  0  0  0
 18 32  1  0  0  0  0
 19 32  1  0  0  0  0
 19 33  2  0  0  0  0
 19 36  1  0  0  0  0
 20 22  2  0  0  0  0
 20 41  1  0  0  0  0
 21 23  2  0  0  0  0
 21 42  1  0  0  0  0
 22 51  1  0  0  0  0
 23 43  1  0  0  0  0
 24 30  2  0  0  0  0
 24 66  1  0  0  0  0
 25 71  1  0  0  0  0
 26 82  1  0  0  0  0
 27 83  1  0  0  0  0
 28 31  2  0  0  0  0
 28 82  1  0  0  0  0
 29 84  1  0  0  0  0
 30 85  1  0  0  0  0
 31 86  1  0  0  0  0
 32 64  2  0  0  0  0
 33 65  1  0  0  0  0
 33 69  1  0  0  0  0
 34 35  1  0  0  0  0
 34 52  1  0  0  0  0
 34 75  2  0  0  0  0
 35 66  1  0  0  0  0
 35 76  2  0  0  0  0
 36 70  1  0  0  0  0
 36 77  2  0  0  0  0
 37 53  1  0  0  0  0
 37 72  1  0  0  0  0
 37 78  2  0  0  0  0
 38 61  1  0  0  0  0
 38 67  1  0  0  0  0
 38 79  2  0  0  0  0
 39 62  1  0  0  0  0
 39 73  1  0  0  0  0
 39 80  2  0  0  0  0
 40 68  1  0  0  0  0
 40 71  1  0  0  0  0
 40 81  2  0  0  0  0
 41 44  1  0  0  0  0
 42 53  1  0  0  0  0
 43 67  1  0  0  0  0
 44 46  1  0  0  0  0
 45 47  1  0  0  0  0
 45 48  1  0  0  0  0
 46 51  1  0  0  0  0
 47 54  1  0  0  0  0
 48 68  1  0  0  0  0
 49 52  1  0  0  0  0
 49 66  1  0  0  0  0
 50 54  1  0  0  0  0
 50 68  1  0  0  0  0
 51 72  1  0  0  0  0
 52 60  1  0  0  0  0
 53 67  1  0  0  0  0
 54 65  1  0  0  0  0
 55 62  1  0  0  0  0
 56 63  1  0  0  0  0
 57 63  1  0  0  0  0
 58 63  1  0  0  0  0
 59 74  1  0  0  0  0
 60 83  1  0  0  0  0
 61 63  1  0  0  0  0
 61 73  1  0  0  0  0
 62 74  1  0  0  0  0
 64 65  1  0  0  0  0
M  CHG  1  74   1
M  ISO  4  40 100  60 101  71 100  83 101
M  END
> <Batch ID>
0072

> <Smiles>
CNC(C)C(=O)NC(C(=O)N1Cc2cc([101O:1][101CH2:1]C3CN(c4cc([100NH:0][100C:0](=O)N5CCCC(n6nc(-c7ccc(Oc8ccc(F)cc8F)cc7)c(C(N)=O)c6N)C5)ccc4F)C(=O)C3=O)ccc2CC1C(=O)NC1CCCc2ccccc21)C(C)(C)C

> <Shape>
0.239

> <Color>
0.128

> <Negative vol penalty>
0.000

$$$$

  -OEChem-04042323383D

 89 98  0     1  0  0  0  0  0999 V2000
  -23.7526  -31.1424   20.2164 C   0  0  0  0  0  0  0  0  0  0  0  0
  -24.1046  -29.8863   19.7328 C   0  0  0  0  0  0  0  0  0  0  0  0
  -26.7184  -12.5403   21.6414 C   0  0  0  0  0  0  0  0  0  0  0  0
  -26.2815  -13.7165   19.5767 C   0  0  0  0  0  0  0  0  0  0  0  0
  -24.1295  -31.5233   21.5036 C   0  0  0  0  0  0  0  0  0  0  0  0
  -24.8347  -29.0108   20.5358 C   0  0  0  0  0  0  0  0  0  0  0  0
  -23.0169  -24.2859   20.4104 C   0  0  0  0  0  0  0  0  0  0  0  0
  -25.4042  -12.0731   21.6534 C   0  0  0  0  0  0  0  0  0  0  0  0
  -24.9673  -13.2492   19.5887 C   0  0  0  0  0  0  0  0  0  0  0  0
  -23.3310  -23.5123   19.2939 C   0  0  0  0  0  0  0  0  0  0  0  0
  -23.6086   -9.6481   20.1276 C   0  0  0  0  0  0  0  0  0  0  0  0
  -23.4023   -8.3008   20.4239 C   0  0  0  0  0  0  0  0  0  0  0  0
  -25.0719  -22.4142   20.5518 C   0  0  0  0  0  0  0  0  0  0  0  0
  -29.1584  -23.3898   17.9594 C   0  0  0  0  0  0  0  0  0  0  0  0
  -29.5489  -21.0073   18.0499 C   0  0  0  0  0  0  0  0  0  0  0  0
  -30.0762  -22.3912   19.9588 C   0  0  0  0  0  0  0  0  0  0  0  0
  -22.0607   -8.9262   22.3334 C   0  0  0  0  0  0  0  0  0  0  0  0
  -27.1571  -13.3620   20.6031 C   0  0  0  0  0  0  0  0  0  0  0  0
  -29.6321  -13.2254   20.0005 C   0  0  0  0  0  0  0  0  0  0  0  0
  -24.8563  -30.6483   22.3263 C   0  0  0  0  0  0  0  0  0  0  0  0
  -23.7364  -24.1369   21.6048 C   0  0  0  0  0  0  0  0  0  0  0  0
  -25.2229  -29.3808   21.8347 C   0  0  0  0  0  0  0  0  0  0  0  0
  -24.7634  -23.1853   21.6829 C   0  0  0  0  0  0  0  0  0  0  0  0
  -29.1128  -22.1344   17.3532 C   0  0  0  0  0  0  0  0  0  0  0  0
  -29.6402  -23.5182   19.2621 C   0  0  0  0  0  0  0  0  0  0  0  0
  -30.0306  -21.1357   19.3527 C   0  0  0  0  0  0  0  0  0  0  0  0
  -24.5286  -12.4275   20.6270 C   0  0  0  0  0  0  0  0  0  0  0  0
  -24.3605  -22.5783   19.3636 C   0  0  0  0  0  0  0  0  0  0  0  0
  -23.0411  -10.6345   20.9342 C   0  0  0  0  0  0  0  0  0  0  0  0
  -22.6283   -7.9398   21.5268 C   0  0  0  0  0  0  0  0  0  0  0  0
  -22.2671  -10.2736   22.0371 C   0  0  0  0  0  0  0  0  0  0  0  0
  -28.5144  -13.8454   20.5905 C   0  0  0  0  0  0  0  0  0  0  0  0
  -30.6764  -14.0777   20.2641 C   0  0  0  0  0  0  0  0  0  0  0  0
  -30.1435  -25.0920   21.1819 C   0  0  0  0  0  0  0  0  0  0  0  0
  -29.7187  -11.9896   19.2788 C   0  0  0  0  0  0  0  0  0  0  0  0
  -25.5781  -26.0369   23.3660 C   0  0  0  0  0  0  0  0  0  0  0  0
  -25.5501  -23.5190   25.4109 C   0  0  0  0  0  0  0  0  0  0  0  0
  -26.3093  -21.0070   16.0076 C   0  0  0  0  0  0  0  0  0  0  0  0
  -25.1554  -20.1597   25.8649 C   0  0  0  0  0  0  0  0  0  0  0  0
  -30.9813  -19.9442   21.3583 C   0  0  0  0  0  0  0  0  0  0  0  0
  -25.2819  -31.1225   23.6933 C   0  0  0  0  0  0  0  0  0  0  0  0
  -23.3677  -24.9602   22.8083 C   0  0  0  0  0  0  0  0  0  0  0  0
  -25.5527  -22.9725   22.9478 C   0  0  0  0  0  0  0  0  0  0  0  0
  -29.9034  -26.5651   21.4233 C   0  0  0  0  0  0  0  0  0  0  0  0
  -25.7316  -29.9933   24.6170 C   0  0  0  0  0  0  0  0  0  0  0  0
  -29.7750  -27.1331   20.0240 C   0  0  0  0  0  0  0  0  0  0  0  0
  -32.1460  -17.3216   23.4660 C   0  0  0  0  0  0  0  0  0  0  0  0
  -26.6832  -29.0521   23.8854 C   0  0  0  0  0  0  0  0  0  0  0  0
  -31.4534  -16.0751   22.9103 C   0  0  0  0  0  0  0  0  0  0  0  0
  -29.1659  -25.9921   19.2363 C   0  0  0  0  0  0  0  0  0  0  0  0
  -31.2412  -18.5506   23.3992 C   0  0  0  0  0  0  0  0  0  0  0  0
  -29.9759  -17.5823   21.5202 C   0  0  0  0  0  0  0  0  0  0  0  0
  -25.9931  -28.3937   22.6846 C   0  0  1  0  0  0  0  0  0  0  0  0
  -24.5052  -25.0866   23.8171 C   0  0  1  0  0  0  0  0  0  0  0  0
  -30.8712  -16.3326   21.5066 C   0  0  2  0  0  0  0  0  0  0  0  0
  -25.2294  -18.3900   27.6427 C   0  0  0  0  0  0  0  0  0  0  0  0
  -28.5993  -23.6279   25.3890 C   0  0  0  0  0  0  0  0  0  0  0  0
  -28.6192  -21.3253   26.3718 C   0  0  0  0  0  0  0  0  0  0  0  0
  -27.5865  -23.2108   27.6372 C   0  0  0  0  0  0  0  0  0  0  0  0
  -22.3190  -19.4372   25.4271 C   0  0  0  0  0  0  0  0  0  0  0  0
  -28.5955  -21.9968   15.9505 C   0  0  0  0  0  0  0  0  0  0  0  0
  -24.8489  -21.4197   15.9094 C   0  0  0  0  0  0  0  0  0  0  0  0
  -24.4356  -22.4037   16.9930 C   0  0  0  0  0  0  0  0  0  1  0  0
  -26.4027  -22.2880   25.6027 C   0  0  1  0  0  0  0  0  0  0  0  0
  -24.3499  -19.3681   26.8794 C   0  0  2  0  0  0  0  0  0  0  0  0
  -27.7885  -22.6182   26.2256 C   0  0  0  0  0  0  0  0  0  0  0  0
  -28.8200  -15.0022   21.1842 N   0  0  0  0  0  0  0  0  0  0  0  0
  -30.1416  -15.1158   20.9688 N   0  0  0  0  0  0  0  0  0  0  0  0
  -29.6867  -24.8023   19.8814 N   0  0  0  0  0  0  0  0  0  0  0  0
  -25.1586  -23.8060   24.0956 N   0  0  0  0  0  0  0  0  0  0  0  0
  -30.7303  -18.7340   22.0390 N   0  0  0  0  0  0  0  0  0  0  0  0
  -31.9909  -14.0330   19.9596 N   0  0  0  0  0  0  0  0  0  0  0  0
  -28.5497  -11.2378   19.0987 N   0  0  0  0  0  0  0  0  0  0  0  0
  -30.4749  -19.9911   20.0599 N   0  0  0  0  0  0  0  0  0  0  0  0
  -25.1274  -27.3208   23.1250 N   0  0  0  0  0  0  0  0  0  0  0  0
  -27.1552  -22.1008   15.8927 N   0  0  0  0  0  0  0  0  0  0  0  0
  -25.6018  -21.3550   26.3877 N   0  0  0  0  0  0  0  0  0  0  0  0
  -23.2721  -18.5974   26.1973 N   0  3  0  0  0  0  0  0  0  0  0  0
  -30.6000  -24.3510   22.0402 O   0  0  0  0  0  0  0  0  0  0  0  0
  -30.8036  -11.5566   18.8216 O   0  0  0  0  0  0  0  0  0  0  0  0
  -26.7297  -25.6355   23.2470 O   0  0  0  0  0  0  0  0  0  0  0  0
  -25.2369  -24.1967   26.3928 O   0  0  0  0  0  0  0  0  0  0  0  0
  -26.6714  -19.8448   16.1687 O   0  0  0  0  0  0  0  0  0  0  0  0
  -25.3705  -19.7562   24.7241 O   0  0  0  0  0  0  0  0  0  0  0  0
  -31.6235  -20.8602   21.8784 O   0  0  0  0  0  0  0  0  0  0  0  0
  -23.2462  -11.9716   20.6382 O   0  0  0  0  0  0  0  0  0  0  0  0
  -24.6695  -21.8224   18.2750 O   0  0  0  0  0  0  0  0  0  1  0  0
  -22.4289   -6.6460   21.8103 F   0  0  0  0  0  0  0  0  0  0  0  0
  -21.7183  -11.2167   22.8150 F   0  0  0  0  0  0  0  0  0  0  0  0
  1  2  1  0  0  0  0
  1  5  2  0  0  0  0
  2  6  2  0  0  0  0
  3  8  2  0  0  0  0
  3 18  1  0  0  0  0
  4  9  1  0  0  0  0
  4 18  2  0  0  0  0
  5 20  1  0  0  0  0
  6 22  1  0  0  0  0
  7 10  2  0  0  0  0
  7 21  1  0  0  0  0
  8 27  1  0  0  0  0
  9 27  2  0  0  0  0
 10 28  1  0  0  0  0
 11 12  2  0  0  0  0
 11 29  1  0  0  0  0
 12 30  1  0  0  0  0
 13 23  1  0  0  0  0
 13 28  2  0  0  0  0
 14 24  2  0  0  0  0
 14 25  1  0  0  0  0
 15 24  1  0  0  0  0
 15 26  2  0  0  0  0
 16 25  2  0  0  0  0
 16 26  1  0  0  0  0
 17 30  2  0  0  0  0
 17 31  1  0  0  0  0
 18 32  1  0  0  0  0
 19 32  1  0  0  0  0
 19 33  2  0  0  0  0
 19 35  1  0  0  0  0
 20 22  2  0  0  0  0
 20 41  1  0  0  0  0
 21 23  2  0  0  0  0
 21 42  1  0  0  0  0
 22 53  1  0  0  0  0
 23 43  1  0  0  0  0
 24 61  1  0  0  0  0
 25 69  1  0  0  0  0
 26 74  1  0  0  0  0
 27 86  1  0  0  0  0
 28 87  1  0  0  0  0
 29 31  2  0  0  0  0
 29 86  1  0  0  0  0
 30 88  1  0  0  0  0
 31 89  1  0  0  0  0
 32 67  2  0  0  0  0
 33 68  1  0  0  0  0
 33 72  1  0  0  0  0
 34 44  1  0  0  0  0
 34 69  1  0  0  0  0
 34 79  2  0  0  0  0
 35 73  1  0  0  0  0
 35 80  2  0  0  0  0
 36 54  1  0  0  0  0
 36 75  1  0  0  0  0
 36 81  2  0  0  0  0
 37 64  1  0  0  0  0
 37 70  1  0  0  0  0
 37 82  2  0  0  0  0
 38 62  1  0  0  0  0
 38 76  1  0  0  0  0
 38 83  2  0  0  0  0
 39 65  1  0  0  0  0
 39 77  1  0  0  0  0
 39 84  2  0  0  0  0
 40 71  1  0  0  0  0
 40 74  1  0  0  0  0
 40 85  2  0  0  0  0
 41 45  1  0  0  0  0
 42 54  1  0  0  0  0
 43 70  1  0  0  0  0
 44 46  1  0  0  0  0
 45 48  1  0  0  0  0
 46 50  1  0  0  0  0
 47 49  1  0  0  0  0
 47 51  1  0  0  0  0
 48 53  1  0  0  0  0
 49 55  1  0  0  0  0
 50 69  1  0  0  0  0
 51 71  1  0  0  0  0
 52 55  1  0  0  0  0
 52 71  1  0  0  0  0
 53 75  1  0  0  0  0
 54 70  1  0  0  0  0
 55 68  1  0  0  0  0
 56 65  1  0  0  0  0
 57 66  1  0  0  0  0
 58 66  1  0  0  0  0
 59 66  1  0  0  0  0
 60 78  1  0  0  0  0
 61 76  1  0  0  0  0
 62 63  1  0  0  0  0
 63 87  1  0  0  0  0
 64 66  1  0  0  0  0
 64 77  1  0  0  0  0
 65 78  1  0  0  0  0
 67 68  1  0  0  0  0
M  CHG  1  78   1
M  ISO  4  40 100  63 101  74 100  87 101
M  END
> <Batch ID>
0072

> <Smiles>
CNC(C)C(=O)NC(C(=O)N1Cc2cc([101O:1][101CH2:1]CC(=O)NCc3cc([100NH:0][100C:0](=O)N4CCCC(n5nc(-c6ccc(Oc7ccc(F)cc7F)cc6)c(C(N)=O)c5N)C4)cc(N4CCCC4=O)c3)ccc2CC1C(=O)NC1CCCc2ccccc21)C(C)(C)C

> <Shape>
0.236

> <Color>
0.057

> <Negative vol penalty>
0.000

$$$$

  -OEChem-04042323383D

 85 93  0     1  0  0  0  0  0999 V2000
  -17.9574  -33.0168   23.5303 C   0  0  0  0  0  0  0  0  0  0  0  0
  -19.1761  -33.2051   22.8864 C   0  0  0  0  0  0  0  0  0  0  0  0
  -26.6120  -11.9833   20.4481 C   0  0  0  0  0  0  0  0  0  0  0  0
  -25.1840  -13.9274   20.3117 C   0  0  0  0  0  0  0  0  0  0  0  0
  -30.5773  -23.1770   19.6501 C   0  0  0  0  0  0  0  0  0  0  0  0
  -17.7516  -31.8811   24.3124 C   0  0  0  0  0  0  0  0  0  0  0  0
  -20.1903  -32.2582   23.0251 C   0  0  0  0  0  0  0  0  0  0  0  0
  -25.6317  -29.3335   19.3983 C   0  0  0  0  0  0  0  0  0  0  0  0
  -30.7868  -21.9034   20.1790 C   0  0  0  0  0  0  0  0  0  0  0  0
  -25.5976  -11.2841   21.1020 C   0  0  0  0  0  0  0  0  0  0  0  0
  -24.1696  -13.2282   20.9656 C   0  0  0  0  0  0  0  0  0  0  0  0
  -26.9963  -29.0774   19.5249 C   0  0  0  0  0  0  0  0  0  0  0  0
  -22.7388   -9.6826   20.2680 C   0  0  0  0  0  0  0  0  0  0  0  0
  -22.4773   -8.3778   19.8500 C   0  0  0  0  0  0  0  0  0  0  0  0
  -26.5000  -27.1150   20.8373 C   0  0  0  0  0  0  0  0  0  0  0  0
  -28.3997  -21.5355   20.2384 C   0  0  0  0  0  0  0  0  0  0  0  0
  -22.9936   -7.5645   22.0656 C   0  0  0  0  0  0  0  0  0  0  0  0
  -26.4052  -13.3050   20.0530 C   0  0  0  0  0  0  0  0  0  0  0  0
  -29.2791  -23.6299   19.4154 C   0  0  0  0  0  0  0  0  0  0  0  0
  -27.6800  -14.0977   17.9903 C   0  0  0  0  0  0  0  0  0  0  0  0
  -18.7604  -30.9150   24.4530 C   0  0  0  0  0  0  0  0  0  0  0  0
  -24.6898  -28.4871   20.0005 C   0  0  0  0  0  0  0  0  0  0  0  0
  -19.9983  -31.1091   23.8109 C   0  0  0  0  0  0  0  0  0  0  0  0
  -25.1240  -27.3613   20.7147 C   0  0  0  0  0  0  0  0  0  0  0  0
  -29.6980  -21.0827   20.4731 C   0  0  0  0  0  0  0  0  0  0  0  0
  -24.3764  -11.9065   21.3607 C   0  0  0  0  0  0  0  0  0  0  0  0
  -27.4308  -27.9696   20.2469 C   0  0  0  0  0  0  0  0  0  0  0  0
  -23.1277   -9.9284   21.5849 C   0  0  0  0  0  0  0  0  0  0  0  0
  -22.6047   -7.3188   20.7488 C   0  0  0  0  0  0  0  0  0  0  0  0
  -28.1902  -22.8091   19.7095 C   0  0  0  0  0  0  0  0  0  0  0  0
  -23.2551   -8.8693   22.4837 C   0  0  0  0  0  0  0  0  0  0  0  0
  -27.4529  -14.0280   19.3779 C   0  0  0  0  0  0  0  0  0  0  0  0
  -28.7860  -14.9021   17.8633 C   0  0  0  0  0  0  0  0  0  0  0  0
  -29.0600  -24.9932   18.8525 C   0  0  0  0  0  0  0  0  0  0  0  0
  -26.9558  -13.4896   16.9126 C   0  0  0  0  0  0  0  0  0  0  0  0
  -22.4555  -28.8453   22.2329 C   0  0  0  0  0  0  0  0  0  0  0  0
  -21.7063  -25.7958   21.4196 C   0  0  0  0  0  0  0  0  0  0  0  0
  -22.7147  -22.8237   20.0792 C   0  0  0  0  0  0  0  0  0  0  0  0
  -30.5604  -28.5855   19.0069 C   0  0  0  0  0  0  0  0  0  0  0  0
  -31.1341  -19.1867   21.3034 C   0  0  0  0  0  0  0  0  0  0  0  0
  -18.5082  -29.7270   25.3472 C   0  0  0  0  0  0  0  0  0  0  0  0
  -23.2206  -28.7623   19.8321 C   0  0  0  0  0  0  0  0  0  0  0  0
  -24.1526  -26.4102   21.3631 C   0  0  0  0  0  0  0  0  0  0  0  0
  -19.5018  -28.5868   25.1398 C   0  0  0  0  0  0  0  0  0  0  0  0
  -32.7528  -16.2118   20.2050 C   0  0  0  0  0  0  0  0  0  0  0  0
  -20.9286  -29.1242   25.0917 C   0  0  0  0  0  0  0  0  0  0  0  0
  -31.5986  -15.3228   19.7363 C   0  0  0  0  0  0  0  0  0  0  0  0
  -32.3714  -17.0356   21.4336 C   0  0  0  0  0  0  0  0  0  0  0  0
  -29.9861  -16.9351   20.8260 C   0  0  0  0  0  0  0  0  0  0  0  0
  -21.1141  -30.0923   23.9170 C   0  0  1  0  0  0  0  0  0  0  0  0
  -22.3641  -28.1211   20.9196 C   0  0  1  0  0  0  0  0  0  0  0  0
  -30.3012  -16.1344   19.5520 C   0  0  2  0  0  0  0  0  0  0  0  0
  -21.8911  -20.5055   19.5844 C   0  0  0  0  0  0  0  0  0  0  0  0
  -21.9555  -25.0790   24.3749 C   0  0  0  0  0  0  0  0  0  0  0  0
  -22.0704  -22.6683   23.7089 C   0  0  0  0  0  0  0  0  0  0  0  0
  -20.0266  -24.0050   23.2001 C   0  0  0  0  0  0  0  0  0  0  0  0
  -23.1624  -23.1599   17.1731 C   0  0  0  0  0  0  0  0  0  0  0  0
  -30.0763  -26.0858   19.1719 C   0  0  0  0  0  0  0  0  0  0  0  0
  -22.1434  -24.4274   21.8837 C   0  0  1  0  0  0  0  0  0  0  0  0
  -22.0735  -21.9158   19.0453 C   0  0  2  0  0  0  0  0  0  0  0  0
  -29.4993  -27.5049   19.1693 C   0  0  1  0  0  0  0  0  0  1  0  0
  -21.5676  -24.0638   23.2814 C   0  0  0  0  0  0  0  0  0  0  0  0
  -28.3433  -14.7320   20.0821 N   0  0  0  0  0  0  0  0  0  0  0  0
  -29.1405  -15.2515   19.1331 N   0  0  0  0  0  0  0  0  0  0  0  0
  -22.7269  -26.7256   21.1754 N   0  0  0  0  0  0  0  0  0  0  0  0
  -31.1356  -17.7808   21.1840 N   0  0  0  0  0  0  0  0  0  0  0  0
  -29.4801  -15.3376   16.7905 N   0  0  0  0  0  0  0  0  0  0  0  0
  -25.8440  -12.6936   17.2199 N   0  0  0  0  0  0  0  0  0  0  0  0
  -31.2470  -28.5035   17.8159 N   0  0  0  0  0  0  0  0  0  0  0  0
  -29.9109  -19.7889   21.0104 N   0  0  0  0  0  0  0  0  0  0  0  0
  -21.2524  -29.3607   22.6761 N   0  0  0  0  0  0  0  0  0  0  0  0
  -21.7696  -23.4980   20.8232 N   0  0  0  0  0  0  0  0  0  0  0  0
  -22.9207  -21.8452   17.8213 N   0  3  0  0  0  0  0  0  0  0  0  0
  -28.0800  -25.1907   18.1385 O   0  0  0  0  0  0  0  0  0  0  0  0
  -27.2948  -13.6342   15.7135 O   0  0  0  0  0  0  0  0  0  0  0  0
  -23.5372  -28.9291   22.8027 O   0  0  0  0  0  0  0  0  0  0  0  0
  -20.5040  -26.0288   21.2721 O   0  0  0  0  0  0  0  0  0  0  0  0
  -23.9321  -22.9220   20.2159 O   0  0  0  0  0  0  0  0  0  0  0  0
  -30.7609  -29.4589   19.8476 O   0  0  0  0  0  0  0  0  0  0  0  0
  -32.1507  -19.8127   21.6142 O   0  0  0  0  0  0  0  0  0  0  0  0
  -23.3862  -11.2244   21.9986 O   0  0  0  0  0  0  0  0  0  0  0  0
  -28.7621  -27.7176   20.3725 O   0  0  0  0  0  0  0  0  0  1  0  0
  -22.3521   -6.0660   20.3476 F   0  0  0  0  0  0  0  0  0  0  0  0
  -26.9380  -23.2341   19.4884 F   0  0  0  0  0  0  0  0  0  0  0  0
  -23.6273   -9.0993   23.7503 F   0  0  0  0  0  0  0  0  0  0  0  0
  1  2  1  0  0  0  0
  1  6  2  0  0  0  0
  2  7  2  0  0  0  0
  3 10  2  0  0  0  0
  3 18  1  0  0  0  0
  4 11  1  0  0  0  0
  4 18  2  0  0  0  0
  5  9  2  0  0  0  0
  5 19  1  0  0  0  0
  6 21  1  0  0  0  0
  7 23  1  0  0  0  0
  8 12  2  0  0  0  0
  8 22  1  0  0  0  0
  9 25  1  0  0  0  0
 10 26  1  0  0  0  0
 11 26  2  0  0  0  0
 12 27  1  0  0  0  0
 13 14  2  0  0  0  0
 13 28  1  0  0  0  0
 14 29  1  0  0  0  0
 15 24  1  0  0  0  0
 15 27  2  0  0  0  0
 16 25  2  0  0  0  0
 16 30  1  0  0  0  0
 17 29  2  0  0  0  0
 17 31  1  0  0  0  0
 18 32  1  0  0  0  0
 19 30  2  0  0  0  0
 19 34  1  0  0  0  0
 20 32  1  0  0  0  0
 20 33  2  0  0  0  0
 20 35  1  0  0  0  0
 21 23  2  0  0  0  0
 21 41  1  0  0  0  0
 22 24  2  0  0  0  0
 22 42  1  0  0  0  0
 23 50  1  0  0  0  0
 24 43  1  0  0  0  0
 25 70  1  0  0  0  0
 26 81  1  0  0  0  0
 27 82  1  0  0  0  0
 28 31  2  0  0  0  0
 28 81  1  0  0  0  0
 29 83  1  0  0  0  0
 30 84  1  0  0  0  0
 31 85  1  0  0  0  0
 32 63  2  0  0  0  0
 33 64  1  0  0  0  0
 33 67  1  0  0  0  0
 34 58  1  0  0  0  0
 34 74  2  0  0  0  0
 35 68  1  0  0  0  0
 35 75  2  0  0  0  0
 36 51  1  0  0  0  0
 36 71  1  0  0  0  0
 36 76  2  0  0  0  0
 37 59  1  0  0  0  0
 37 65  1  0  0  0  0
 37 77  2  0  0  0  0
 38 60  1  0  0  0  0
 38 72  1  0  0  0  0
 38 78  2  0  0  0  0
 39 61  1  0  0  0  0
 39 69  1  0  0  0  0
 39 79  2  0  0  0  0
 40 66  1  0  0  0  0
 40 70  1  0  0  0  0
 40 80  2  0  0  0  0
 41 44  1  0  0  0  0
 42 51  1  0  0  0  0
 43 65  1  0  0  0  0
 44 46  1  0  0  0  0
 45 47  1  0  0  0  0
 45 48  1  0  0  0  0
 46 50  1  0  0  0  0
 47 52  1  0  0  0  0
 48 66  1  0  0  0  0
 49 52  1  0  0  0  0
 49 66  1  0  0  0  0
 50 71  1  0  0  0  0
 51 65  1  0  0  0  0
 52 64  1  0  0  0  0
 53 60  1  0  0  0  0
 54 62  1  0  0  0  0
 55 62  1  0  0  0  0
 56 62  1  0  0  0  0
 57 73  1  0  0  0  0
 58 61  1  0  0  0  0
 59 62  1  0  0  0  0
 59 72  1  0  0  0  0
 60 73  1  0  0  0  0
 61 82  1  0  0  0  0
 63 64  1  0  0  0  0
M  CHG  1  73   1
M  ISO  4  40 100  61 101  70 100  82 101
M  END
> <Batch ID>
0072

> <Smiles>
CNC(C)C(=O)NC(C(=O)N1Cc2cc([101O:1][101CH:1](CC(=O)c3ccc([100NH:0][100C:0](=O)N4CCCC(n5nc(-c6ccc(Oc7ccc(F)cc7F)cc6)c(C(N)=O)c5N)C4)cc3F)C(N)=O)ccc2CC1C(=O)NC1CCCc2ccccc21)C(C)(C)C

> <Shape>
0.263

> <Color>
0.087

> <Negative vol penalty>
0.000

$$$$

  -OEChem-04042323383D

 88 97  0     1  0  0  0  0  0999 V2000
  -28.4537  -23.9584   17.5414 C   0  0  0  0  0  0  0  0  0  0  0  0
  -27.2629  -24.1753   18.2273 C   0  0  0  0  0  0  0  0  0  0  0  0
  -23.9778  -11.9962   22.8416 C   0  0  0  0  0  0  0  0  0  0  0  0
  -24.6365  -14.2119   22.1390 C   0  0  0  0  0  0  0  0  0  0  0  0
  -22.4984  -21.1268   24.2705 C   0  0  0  0  0  0  0  0  0  0  0  0
  -22.5874  -23.0774   25.6932 C   0  0  0  0  0  0  0  0  0  0  0  0
  -29.6274  -24.5751   17.9725 C   0  0  0  0  0  0  0  0  0  0  0  0
  -27.2455  -25.0082   19.3455 C   0  0  0  0  0  0  0  0  0  0  0  0
  -23.3185  -28.2056   19.3251 C   0  0  0  0  0  0  0  0  0  0  0  0
  -21.6278  -21.7945   23.4093 C   0  0  0  0  0  0  0  0  0  0  0  0
  -21.7168  -23.7453   24.8320 C   0  0  0  0  0  0  0  0  0  0  0  0
  -24.7772  -11.4416   21.8421 C   0  0  0  0  0  0  0  0  0  0  0  0
  -25.4359  -13.6573   21.1395 C   0  0  0  0  0  0  0  0  0  0  0  0
  -22.0771  -27.6917   19.6975 C   0  0  0  0  0  0  0  0  0  0  0  0
  -28.4735  -12.1946   20.9068 C   0  0  0  0  0  0  0  0  0  0  0  0
  -29.7580  -12.7133   20.7441 C   0  0  0  0  0  0  0  0  0  0  0  0
  -22.3559  -28.6317   21.9016 C   0  0  0  0  0  0  0  0  0  0  0  0
  -29.2191  -13.3351   18.4725 C   0  0  0  0  0  0  0  0  0  0  0  0
  -23.9074  -13.3814   22.9900 C   0  0  0  0  0  0  0  0  0  0  0  0
  -22.9782  -21.7682   25.4125 C   0  0  0  0  0  0  0  0  0  0  0  0
  -21.6901  -13.8067   24.1776 C   0  0  0  0  0  0  0  0  0  0  0  0
  -29.6225  -25.4237   19.0908 C   0  0  0  0  0  0  0  0  0  0  0  0
  -24.0941  -28.9283   20.2431 C   0  0  0  0  0  0  0  0  0  0  0  0
  -28.4206  -25.6358   19.7927 C   0  0  0  0  0  0  0  0  0  0  0  0
  -23.6057  -29.1559   21.5376 C   0  0  0  0  0  0  0  0  0  0  0  0
  -21.2370  -23.1038   23.6900 C   0  0  0  0  0  0  0  0  0  0  0  0
  -25.5063  -12.2721   20.9911 C   0  0  0  0  0  0  0  0  0  0  0  0
  -21.5969  -27.9023   20.9868 C   0  0  0  0  0  0  0  0  0  0  0  0
  -27.5618  -12.2460   19.8524 C   0  0  0  0  0  0  0  0  0  0  0  0
  -30.1308  -13.2836   19.5270 C   0  0  0  0  0  0  0  0  0  0  0  0
  -27.9346  -12.8163   18.6353 C   0  0  0  0  0  0  0  0  0  0  0  0
  -23.0814  -13.9549   24.0219 C   0  0  0  0  0  0  0  0  0  0  0  0
  -21.3900  -14.5406   25.2991 C   0  0  0  0  0  0  0  0  0  0  0  0
  -19.8624  -25.1042   22.9556 C   0  0  0  0  0  0  0  0  0  0  0  0
  -23.8993  -21.0617   26.3239 C   0  0  0  0  0  0  0  0  0  0  0  0
  -20.7529  -13.0714   23.3798 C   0  0  0  0  0  0  0  0  0  0  0  0
  -26.9576  -28.5298   21.5641 C   0  0  0  0  0  0  0  0  0  0  0  0
  -26.3773  -31.4813   22.7782 C   0  0  0  0  0  0  0  0  0  0  0  0
  -24.0855  -33.8431   23.6818 C   0  0  0  0  0  0  0  0  0  0  0  0
  -24.3813  -19.1667   27.8436 C   0  0  0  0  0  0  0  0  0  0  0  0
  -30.9255  -26.0306   19.5473 C   0  0  0  0  0  0  0  0  0  0  0  0
  -25.4192  -29.4988   19.8176 C   0  0  0  0  0  0  0  0  0  0  0  0
  -24.3905  -29.9425   22.5543 C   0  0  0  0  0  0  0  0  0  0  0  0
  -30.7479  -27.1954   20.5178 C   0  0  0  0  0  0  0  0  0  0  0  0
  -23.2930  -16.0588   29.4150 C   0  0  0  0  0  0  0  0  0  0  0  0
  -29.7357  -26.8378   21.6015 C   0  0  0  0  0  0  0  0  0  0  0  0
  -23.0424  -15.1394   28.2196 C   0  0  0  0  0  0  0  0  0  0  0  0
  -18.6933  -24.0503   21.1658 C   0  0  0  0  0  0  0  0  0  0  0  0
  -24.4060  -17.0639   29.1328 C   0  0  0  0  0  0  0  0  0  0  0  0
  -19.8632  -23.1798   21.5828 C   0  0  0  0  0  0  0  0  0  0  0  0
  -23.9453  -16.9496   26.7047 C   0  0  0  0  0  0  0  0  0  0  0  0
  -28.3564  -26.5522   20.9953 C   0  0  1  0  0  0  0  0  0  0  0  0
  -26.3530  -29.7801   20.9908 C   0  0  1  0  0  0  0  0  0  0  0  0
  -22.7979  -15.9550   26.9371 C   0  0  1  0  0  0  0  0  0  0  0  0
  -19.0563  -25.4376   21.7012 C   0  0  1  0  0  0  0  0  0  0  0  0
  -17.8117  -26.2563   22.0354 C   0  0  0  0  0  0  0  0  0  0  0  0
  -23.9117  -36.1392   24.6793 C   0  0  0  0  0  0  0  0  0  0  0  0
  -26.9618  -30.3232   25.5399 C   0  0  0  0  0  0  0  0  0  0  0  0
  -25.8705  -32.3420   26.5408 C   0  0  0  0  0  0  0  0  0  0  0  0
  -27.9181  -32.5991   25.1393 C   0  0  0  0  0  0  0  0  0  0  0  0
  -22.0950  -19.5007   26.8473 C   0  0  0  0  0  0  0  0  0  0  0  0
  -22.7830  -34.9252   21.2546 C   0  0  0  0  0  0  0  0  0  0  0  0
  -19.9532  -26.2041   20.7220 C   0  0  0  0  0  0  0  0  0  1  0  0
  -25.7229  -32.0124   24.0307 C   0  0  1  0  0  0  0  0  0  0  0  0
  -24.0060  -35.3315   23.3942 C   0  0  2  0  0  0  0  0  0  0  0  0
  -26.6042  -31.8026   25.2943 C   0  0  0  0  0  0  0  0  0  0  0  0
  -23.6273  -14.7227   24.9687 N   0  0  0  0  0  0  0  0  0  0  0  0
  -22.5736  -15.0636   25.7301 N   0  0  0  0  0  0  0  0  0  0  0  0
  -20.3458  -23.7875   22.8085 N   0  0  0  0  0  0  0  0  0  0  0  0
  -25.6832  -30.4745   22.0924 N   0  0  0  0  0  0  0  0  0  0  0  0
  -24.1593  -17.7899   27.8885 N   0  0  0  0  0  0  0  0  0  0  0  0
  -20.2318  -14.7831   25.9488 N   0  0  0  0  0  0  0  0  0  0  0  0
  -20.1316  -13.7247   22.3067 N   0  0  0  0  0  0  0  0  0  0  0  0
  -27.6882  -27.7898   20.6541 N   0  0  0  0  0  0  0  0  0  0  0  0
  -25.3912  -33.4067   23.7582 N   0  0  0  0  0  0  0  0  0  0  0  0
  -23.5187  -19.9125   26.9325 N   0  0  0  0  0  0  0  0  0  0  0  0
  -25.0770  -21.6584   26.5273 N   0  3  0  0  0  0  0  0  0  0  0  0
  -22.8091  -35.6346   22.5596 N   0  3  0  0  0  0  0  0  0  0  0  0
  -20.0605  -25.9105   23.8539 O   0  0  0  0  0  0  0  0  0  0  0  0
  -20.4623  -11.8753   23.6216 O   0  0  0  0  0  0  0  0  0  0  0  0
  -26.7760  -28.2574   22.7450 O   0  0  0  0  0  0  0  0  0  0  0  0
  -27.4608  -31.9478   22.4176 O   0  0  0  0  0  0  0  0  0  0  0  0
  -23.0890  -33.1388   23.8280 O   0  0  0  0  0  0  0  0  0  0  0  0
  -25.2099  -19.7824   28.5064 O   0  0  0  0  0  0  0  0  0  0  0  0
  -26.2866  -11.7313   20.0158 O   0  0  0  0  0  0  0  0  0  0  0  0
  -20.3746  -27.3966   21.3565 O   0  0  0  0  0  0  0  0  0  1  0  0
  -31.3639  -13.7831   19.3713 F   0  0  0  0  0  0  0  0  0  0  0  0
  -27.0626  -12.8696   17.6190 F   0  0  0  0  0  0  0  0  0  0  0  0
  1  2  1  0  0  0  0
  1  7  2  0  0  0  0
  2  8  2  0  0  0  0
  3 12  2  0  0  0  0
  3 19  1  0  0  0  0
  4 13  1  0  0  0  0
  4 19  2  0  0  0  0
  5 10  2  0  0  0  0
  5 20  1  0  0  0  0
  6 11  1  0  0  0  0
  6 20  2  0  0  0  0
  7 22  1  0  0  0  0
  8 24  1  0  0  0  0
  9 14  2  0  0  0  0
  9 23  1  0  0  0  0
 10 26  1  0  0  0  0
 11 26  2  0  0  0  0
 12 27  1  0  0  0  0
 13 27  2  0  0  0  0
 14 28  1  0  0  0  0
 15 16  2  0  0  0  0
 15 29  1  0  0  0  0
 16 30  1  0  0  0  0
 17 25  1  0  0  0  0
 17 28  2  0  0  0  0
 18 30  2  0  0  0  0
 18 31  1  0  0  0  0
 19 32  1  0  0  0  0
 20 35  1  0  0  0  0
 21 32  1  0  0  0  0
 21 33  2  0  0  0  0
 21 36  1  0  0  0  0
 22 24  2  0  0  0  0
 22 41  1  0  0  0  0
 23 25  2  0  0  0  0
 23 42  1  0  0  0  0
 24 52  1  0  0  0  0
 25 43  1  0  0  0  0
 26 69  1  0  0  0  0
 27 85  1  0  0  0  0
 28 86  1  0  0  0  0
 29 31  2  0  0  0  0
 29 85  1  0  0  0  0
 30 87  1  0  0  0  0
 31 88  1  0  0  0  0
 32 67  2  0  0  0  0
 33 68  1  0  0  0  0
 33 72  1  0  0  0  0
 34 55  1  0  0  0  0
 34 69  1  0  0  0  0
 34 79  2  0  0  0  0
 35 76  1  0  0  0  0
 35 77  2  0  0  0  0
 36 73  1  0  0  0  0
 36 80  2  0  0  0  0
 37 53  1  0  0  0  0
 37 74  1  0  0  0  0
 37 81  2  0  0  0  0
 38 64  1  0  0  0  0
 38 70  1  0  0  0  0
 38 82  2  0  0  0  0
 39 65  1  0  0  0  0
 39 75  1  0  0  0  0
 39 83  2  0  0  0  0
 40 71  1  0  0  0  0
 40 76  1  0  0  0  0
 40 84  2  0  0  0  0
 41 44  1  0  0  0  0
 42 53  1  0  0  0  0
 43 70  1  0  0  0  0
 44 46  1  0  0  0  0
 45 47  1  0  0  0  0
 45 49  1  0  0  0  0
 46 52  1  0  0  0  0
 47 54  1  0  0  0  0
 48 50  1  0  0  0  0
 48 55  1  0  0  0  0
 49 71  1  0  0  0  0
 50 69  1  0  0  0  0
 51 54  1  0  0  0  0
 51 71  1  0  0  0  0
 52 74  1  0  0  0  0
 53 70  1  0  0  0  0
 54 68  1  0  0  0  0
 55 56  1  0  0  0  0
 55 63  1  0  0  0  0
 57 65  1  0  0  0  0
 58 66  1  0  0  0  0
 59 66  1  0  0  0  0
 60 66  1  0  0  0  0
 61 76  1  0  0  0  0
 62 78  1  0  0  0  0
 63 86  1  0  0  0  0
 64 66  1  0  0  0  0
 64 75  1  0  0  0  0
 65 78  1  0  0  0  0
 67 68  1  0  0  0  0
M  CHG  2  77   1  78   1
M  ISO  4  40 100  63 101  76 100  86 101
M  END
> <Batch ID>
0072

> <Smiles>
CNC(C)C(=O)NC(C(=O)N1Cc2cc([101O:1][101CH2:1]C3(C)CCN(c4ccc(C(=N)[100N:0](C)[100C:0](=O)N5CCCC(n6nc(-c7ccc(Oc8ccc(F)cc8F)cc7)c(C(N)=O)c6N)C5)cc4)C3=O)ccc2CC1C(=O)NC1CCCc2ccccc21)C(C)(C)C

> <Shape>
0.273

> <Color>
0.081

> <Negative vol penalty>
0.000

$$$$

  -OEChem-04042323383D

 87 96  0     1  0  0  0  0  0999 V2000
  -20.9634  -32.1755   14.9781 C   0  0  0  0  0  0  0  0  0  0  0  0
  -22.1451  -31.5232   15.3149 C   0  0  0  0  0  0  0  0  0  0  0  0
  -26.5835  -11.1647   21.0700 C   0  0  0  0  0  0  0  0  0  0  0  0
  -26.0291  -12.7061   19.2941 C   0  0  0  0  0  0  0  0  0  0  0  0
  -20.5373  -33.2733   15.7247 C   0  0  0  0  0  0  0  0  0  0  0  0
  -22.9020  -31.9688   16.3978 C   0  0  0  0  0  0  0  0  0  0  0  0
  -24.4985  -28.1731   19.3454 C   0  0  0  0  0  0  0  0  0  0  0  0
  -30.5715  -22.0019   19.9147 C   0  0  0  0  0  0  0  0  0  0  0  0
  -30.9471  -20.7347   20.3604 C   0  0  0  0  0  0  0  0  0  0  0  0
  -25.2331  -10.8473   21.2161 C   0  0  0  0  0  0  0  0  0  0  0  0
  -24.6787  -12.3886   19.4401 C   0  0  0  0  0  0  0  0  0  0  0  0
  -25.5913  -27.4336   18.8952 C   0  0  0  0  0  0  0  0  0  0  0  0
  -22.9440   -8.9168   19.6458 C   0  0  0  0  0  0  0  0  0  0  0  0
  -22.6044   -7.5695   19.7685 C   0  0  0  0  0  0  0  0  0  0  0  0
  -29.9891  -19.7516   18.3722 C   0  0  0  0  0  0  0  0  0  0  0  0
  -27.0375  -28.6893   20.3619 C   0  0  0  0  0  0  0  0  0  0  0  0
  -21.6283   -8.0128   21.9337 C   0  0  0  0  0  0  0  0  0  0  0  0
  -26.9815  -12.0942   20.1090 C   0  0  0  0  0  0  0  0  0  0  0  0
  -29.6135  -21.0188   17.9266 C   0  0  0  0  0  0  0  0  0  0  0  0
  -29.3122  -11.7913   19.1174 C   0  0  0  0  0  0  0  0  0  0  0  0
  -21.2844  -33.7267   16.8233 C   0  0  0  0  0  0  0  0  0  0  0  0
  -24.6690  -29.1853   20.3009 C   0  0  0  0  0  0  0  0  0  0  0  0
  -22.4862  -33.0745   17.1590 C   0  0  0  0  0  0  0  0  0  0  0  0
  -25.9449  -29.4384   20.8245 C   0  0  0  0  0  0  0  0  0  0  0  0
  -29.9047  -22.1440   18.6978 C   0  0  0  0  0  0  0  0  0  0  0  0
  -30.6559  -19.6095   19.5892 C   0  0  0  0  0  0  0  0  0  0  0  0
  -24.2807  -11.4592   20.4012 C   0  0  0  0  0  0  0  0  0  0  0  0
  -26.8615  -27.6936   19.4013 C   0  0  0  0  0  0  0  0  0  0  0  0
  -22.6258   -9.8121   20.6670 C   0  0  0  0  0  0  0  0  0  0  0  0
  -21.9465   -7.1175   20.9124 C   0  0  0  0  0  0  0  0  0  0  0  0
  -21.9679   -9.3601   21.8109 C   0  0  0  0  0  0  0  0  0  0  0  0
  -28.3762  -12.4229   19.9580 C   0  0  0  0  0  0  0  0  0  0  0  0
  -30.4856  -12.4701   19.3390 C   0  0  0  0  0  0  0  0  0  0  0  0
  -29.7083  -24.6323   18.8325 C   0  0  0  0  0  0  0  0  0  0  0  0
  -28.9181  -21.1331   16.6505 C   0  0  0  0  0  0  0  0  0  0  0  0
  -29.1368  -10.6897   18.2166 C   0  0  0  0  0  0  0  0  0  0  0  0
  -24.1995  -32.3287   20.3467 C   0  0  0  0  0  0  0  0  0  0  0  0
  -24.9571  -32.0035   23.4840 C   0  0  0  0  0  0  0  0  0  0  0  0
  -26.5350  -30.1964   25.9112 C   0  0  0  0  0  0  0  0  0  0  0  0
  -31.7048  -18.0071   21.2257 C   0  0  0  0  0  0  0  0  0  0  0  0
  -20.8080  -34.9465   17.5714 C   0  0  0  0  0  0  0  0  0  0  0  0
  -23.4758  -29.9558   20.7959 C   0  0  0  0  0  0  0  0  0  0  0  0
  -26.1780  -30.5005   21.8666 C   0  0  0  0  0  0  0  0  0  0  0  0
  -21.4743  -35.1246   18.9332 C   0  0  0  0  0  0  0  0  0  0  0  0
  -32.7896  -14.9618   22.7179 C   0  0  0  0  0  0  0  0  0  0  0  0
  -22.9830  -34.9302   18.8189 C   0  0  0  0  0  0  0  0  0  0  0  0
  -31.8701  -13.9068   22.0984 C   0  0  0  0  0  0  0  0  0  0  0  0
  -32.0536  -16.2757   22.9738 C   0  0  0  0  0  0  0  0  0  0  0  0
  -30.4288  -15.7741   21.1912 C   0  0  0  0  0  0  0  0  0  0  0  0
  -28.8529  -23.8490   17.0736 C   0  0  0  0  0  0  0  0  0  0  0  0
  -23.3220  -33.5128   18.3420 C   0  0  1  0  0  0  0  0  0  0  0  0
  -23.8450  -31.3103   21.3930 C   0  0  1  0  0  0  0  0  0  0  0  0
  -31.1419  -14.4541   20.8551 C   0  0  2  0  0  0  0  0  0  0  0  0
  -28.9910  -25.3002   17.6241 C   0  0  2  0  0  0  0  0  0  0  0  0
  -29.7010  -21.3187   15.3531 C   0  0  0  0  0  0  0  0  0  0  0  0
  -29.8928  -26.2106   16.7978 C   0  0  0  0  0  0  0  0  0  0  0  0
  -27.0111  -30.2013   28.3751 C   0  0  0  0  0  0  0  0  0  0  0  0
  -27.0703  -34.1651   23.0689 C   0  0  0  0  0  0  0  0  0  0  0  0
  -28.1159  -33.4603   25.2318 C   0  0  0  0  0  0  0  0  0  0  0  0
  -25.7881  -34.3566   25.2075 C   0  0  0  0  0  0  0  0  0  0  0  0
  -25.1090  -27.6339   26.3096 C   0  0  0  0  0  0  0  0  0  0  0  0
  -27.6774  -25.9673   17.9835 C   0  0  0  0  0  0  0  0  0  1  0  0
  -26.2361  -32.0458   24.2849 C   0  0  1  0  0  0  0  0  0  0  0  0
  -26.0718  -29.7253   27.2779 C   0  0  2  0  0  0  0  0  0  0  0  0
  -26.7988  -33.4882   24.4272 C   0  0  0  0  0  0  0  0  0  0  0  0
  -28.9089  -13.4257   20.6613 N   0  0  0  0  0  0  0  0  0  0  0  0
  -27.6098  -21.0965   16.5733 N   0  0  0  0  0  0  0  0  0  0  0  0
  -30.1925  -13.4293   20.2631 N   0  0  0  0  0  0  0  0  0  0  0  0
  -29.5441  -23.4031   18.2781 N   0  0  0  0  0  0  0  0  0  0  0  0
  -24.9807  -31.2312   22.3140 N   0  0  0  0  0  0  0  0  0  0  0  0
  -31.3915  -16.7356   21.7511 N   0  0  0  0  0  0  0  0  0  0  0  0
  -31.7291  -12.3339   18.8316 N   0  0  0  0  0  0  0  0  0  0  0  0
  -27.8656  -10.1092   18.1107 N   0  0  0  0  0  0  0  0  0  0  0  0
  -31.0376  -18.3224   20.0426 N   0  0  0  0  0  0  0  0  0  0  0  0
  -23.1927  -32.5686   19.4312 N   0  0  0  0  0  0  0  0  0  0  0  0
  -25.9441  -31.3902   25.5551 N   0  0  0  0  0  0  0  0  0  0  0  0
  -26.0150  -28.2367   27.3209 N   0  3  0  0  0  0  0  0  0  0  0  0
  -30.2184  -25.0092   19.8629 O   0  0  0  0  0  0  0  0  0  0  0  0
  -30.0833  -10.2231   17.5384 O   0  0  0  0  0  0  0  0  0  0  0  0
  -25.3042  -32.8587   20.3692 O   0  0  0  0  0  0  0  0  0  0  0  0
  -23.9713  -32.6268   23.8855 O   0  0  0  0  0  0  0  0  0  0  0  0
  -27.3433  -29.5700   25.2294 O   0  0  0  0  0  0  0  0  0  0  0  0
  -32.5265  -18.7495   21.7696 O   0  0  0  0  0  0  0  0  0  0  0  0
  -22.9630  -11.1495   20.5433 O   0  0  0  0  0  0  0  0  0  0  0  0
  -27.9300  -26.9738   18.9631 O   0  0  0  0  0  0  0  0  0  1  0  0
  -21.6191   -5.8240   21.0295 F   0  0  0  0  0  0  0  0  0  0  0  0
  -21.6586  -10.2157   22.7948 F   0  0  0  0  0  0  0  0  0  0  0  0
  1  2  1  0  0  0  0
  1  5  2  0  0  0  0
  2  6  2  0  0  0  0
  3 10  2  0  0  0  0
  3 18  1  0  0  0  0
  4 11  1  0  0  0  0
  4 18  2  0  0  0  0
  5 21  1  0  0  0  0
  6 23  1  0  0  0  0
  7 12  2  0  0  0  0
  7 22  1  0  0  0  0
  8  9  2  0  0  0  0
  8 25  1  0  0  0  0
  9 26  1  0  0  0  0
 10 27  1  0  0  0  0
 11 27  2  0  0  0  0
 12 28  1  0  0  0  0
 13 14  2  0  0  0  0
 13 29  1  0  0  0  0
 14 30  1  0  0  0  0
 15 19  1  0  0  0  0
 15 26  2  0  0  0  0
 16 24  1  0  0  0  0
 16 28  2  0  0  0  0
 17 30  2  0  0  0  0
 17 31  1  0  0  0  0
 18 32  1  0  0  0  0
 19 25  2  0  0  0  0
 19 35  1  0  0  0  0
 20 32  1  0  0  0  0
 20 33  2  0  0  0  0
 20 36  1  0  0  0  0
 21 23  2  0  0  0  0
 21 41  1  0  0  0  0
 22 24  2  0  0  0  0
 22 42  1  0  0  0  0
 23 51  1  0  0  0  0
 24 43  1  0  0  0  0
 25 69  1  0  0  0  0
 26 74  1  0  0  0  0
 27 84  1  0  0  0  0
 28 85  1  0  0  0  0
 29 31  2  0  0  0  0
 29 84  1  0  0  0  0
 30 86  1  0  0  0  0
 31 87  1  0  0  0  0
 32 66  2  0  0  0  0
 33 68  1  0  0  0  0
 33 72  1  0  0  0  0
 34 54  1  0  0  0  0
 34 69  1  0  0  0  0
 34 78  2  0  0  0  0
 35 55  1  0  0  0  0
 35 67  2  0  0  0  0
 36 73  1  0  0  0  0
 36 79  2  0  0  0  0
 37 52  1  0  0  0  0
 37 75  1  0  0  0  0
 37 80  2  0  0  0  0
 38 63  1  0  0  0  0
 38 70  1  0  0  0  0
 38 81  2  0  0  0  0
 39 64  1  0  0  0  0
 39 76  1  0  0  0  0
 39 82  2  0  0  0  0
 40 71  1  0  0  0  0
 40 74  1  0  0  0  0
 40 83  2  0  0  0  0
 41 44  1  0  0  0  0
 42 52  1  0  0  0  0
 43 70  1  0  0  0  0
 44 46  1  0  0  0  0
 45 47  1  0  0  0  0
 45 48  1  0  0  0  0
 46 51  1  0  0  0  0
 47 53  1  0  0  0  0
 48 71  1  0  0  0  0
 49 53  1  0  0  0  0
 49 71  1  0  0  0  0
 50 54  1  0  0  0  0
 50 69  1  0  0  0  0
 51 75  1  0  0  0  0
 52 70  1  0  0  0  0
 53 68  1  0  0  0  0
 54 56  1  0  0  0  0
 54 62  1  0  0  0  0
 57 64  1  0  0  0  0
 58 65  1  0  0  0  0
 59 65  1  0  0  0  0
 60 65  1  0  0  0  0
 61 77  1  0  0  0  0
 62 85  1  0  0  0  0
 63 65  1  0  0  0  0
 63 76  1  0  0  0  0
 64 77  1  0  0  0  0
 66 68  1  0  0  0  0
M  CHG  1  77   1
M  ISO  4  40 100  62 101  74 100  85 101
M  END
> <Batch ID>
0072

> <Smiles>
CNC(C)C(=O)NC(C(=O)N1Cc2cc([101O:1][101CH2:1]C3(C)CN(c4ccc([100NH:0][100C:0](=O)N5CCCC(n6nc(-c7ccc(Oc8ccc(F)cc8F)cc7)c(C(N)=O)c6N)C5)cc4C(C)=N)C3=O)ccc2CC1C(=O)NC1CCCc2ccccc21)C(C)(C)C

> <Shape>
0.314

> <Color>
0.085

> <Negative vol penalty>
0.000

$$$$

  -OEChem-04042323383D

 86 95  0     1  0  0  0  0  0999 V2000
  -22.7907   -8.9625   20.6069 C   0  0  0  0  0  0  0  0  0  0  0  0
  -22.1992  -10.2200   20.6730 C   0  0  0  0  0  0  0  0  0  0  0  0
  -18.7777  -27.3012   22.4947 C   0  0  0  0  0  0  0  0  0  0  0  0
  -26.8510  -25.4389   15.8797 C   0  0  0  0  0  0  0  0  0  0  0  0
  -28.1664  -27.3940   15.3463 C   0  0  0  0  0  0  0  0  0  0  0  0
  -24.1077   -8.7897   21.0305 C   0  0  0  0  0  0  0  0  0  0  0  0
  -22.9242  -11.3053   21.1638 C   0  0  0  0  0  0  0  0  0  0  0  0
  -22.5510  -17.1272   19.3004 C   0  0  0  0  0  0  0  0  0  0  0  0
  -18.6535  -25.9165   22.3811 C   0  0  0  0  0  0  0  0  0  0  0  0
  -20.0271  -27.9038   22.3473 C   0  0  0  0  0  0  0  0  0  0  0  0
  -26.8076  -25.0992   14.5276 C   0  0  0  0  0  0  0  0  0  0  0  0
  -28.1231  -27.0542   13.9942 C   0  0  0  0  0  0  0  0  0  0  0  0
  -21.8719  -18.2333   19.8095 C   0  0  0  0  0  0  0  0  0  0  0  0
  -28.8535  -23.6562   12.2549 C   0  0  0  0  0  0  0  0  0  0  0  0
  -29.0920  -22.3252   11.9130 C   0  0  0  0  0  0  0  0  0  0  0  0
  -23.8736  -18.9223   20.9660 C   0  0  0  0  0  0  0  0  0  0  0  0
  -26.8969  -22.1888   10.9129 C   0  0  0  0  0  0  0  0  0  0  0  0
  -27.5303  -26.5863   16.2891 C   0  0  0  0  0  0  0  0  0  0  0  0
  -28.5418  -26.5457   18.6306 C   0  0  0  0  0  0  0  0  0  0  0  0
  -24.8524   -9.8754   21.5177 C   0  0  0  0  0  0  0  0  0  0  0  0
  -23.8957  -16.9041   19.6296 C   0  0  0  0  0  0  0  0  0  0  0  0
  -24.2521  -11.1466   21.5955 C   0  0  0  0  0  0  0  0  0  0  0  0
  -24.5682  -17.8140   20.4578 C   0  0  0  0  0  0  0  0  0  0  0  0
  -19.7786  -25.1344   22.1204 C   0  0  0  0  0  0  0  0  0  0  0  0
  -21.1522  -27.1216   22.0865 C   0  0  0  0  0  0  0  0  0  0  0  0
  -27.4436  -25.9068   13.5848 C   0  0  0  0  0  0  0  0  0  0  0  0
  -22.5324  -19.1295   20.6448 C   0  0  0  0  0  0  0  0  0  0  0  0
  -27.6367  -24.2536   11.9259 C   0  0  0  0  0  0  0  0  0  0  0  0
  -28.1137  -21.5914   11.2419 C   0  0  0  0  0  0  0  0  0  0  0  0
  -26.6584  -23.5199   11.2548 C   0  0  0  0  0  0  0  0  0  0  0  0
  -21.0280  -25.7369   21.9731 C   0  0  0  0  0  0  0  0  0  0  0  0
  -27.5750  -26.9381   17.6856 C   0  0  0  0  0  0  0  0  0  0  0  0
  -28.1375  -27.1383   19.8019 C   0  0  0  0  0  0  0  0  0  0  0  0
  -18.9012  -21.5836   22.2826 C   0  0  0  0  0  0  0  0  0  0  0  0
  -19.9296  -21.5629   21.4318 C   0  0  0  0  0  0  0  0  0  0  0  0
  -18.6895  -22.9901   22.6793 C   0  0  0  0  0  0  0  0  0  0  0  0
  -29.7017  -25.7194   18.4646 C   0  0  0  0  0  0  0  0  0  0  0  0
  -25.4832  -14.6004   21.1384 C   0  0  0  0  0  0  0  0  0  0  0  0
  -28.0761  -16.3111   20.2043 C   0  0  0  0  0  0  0  0  0  0  0  0
  -29.3723  -19.3224   19.2561 C   0  0  0  0  0  0  0  0  0  0  0  0
  -22.5668  -29.0606   21.4273 C   0  0  0  0  0  0  0  0  0  0  0  0
  -26.2574   -9.6303   22.0082 C   0  0  0  0  0  0  0  0  0  0  0  0
  -24.6216  -15.7207   19.0507 C   0  0  0  0  0  0  0  0  0  0  0  0
  -26.0173  -17.6307   20.8251 C   0  0  0  0  0  0  0  0  0  0  0  0
  -20.4951  -22.9182   21.1804 C   0  0  0  0  0  0  0  0  0  0  0  0
  -27.0793  -10.9071   22.1650 C   0  0  0  0  0  0  0  0  0  0  0  0
  -25.7483  -30.9279   21.4643 C   0  0  0  0  0  0  0  0  0  0  0  0
  -26.2707  -11.9764   22.8926 C   0  0  0  0  0  0  0  0  0  0  0  0
  -26.6339  -30.1102   20.5256 C   0  0  0  0  0  0  0  0  0  0  0  0
  -24.2737  -30.8233   21.0866 C   0  0  0  0  0  0  0  0  0  0  0  0
  -24.6597  -28.6026   20.0621 C   0  0  0  0  0  0  0  0  0  0  0  0
  -25.0141  -12.3534   22.0986 C   0  0  1  0  0  0  0  0  0  0  0  0
  -25.8449  -15.3128   19.8659 C   0  0  1  0  0  0  0  0  0  0  0  0
  -26.1471  -28.6531   20.4426 C   0  0  1  0  0  0  0  0  0  0  0  0
  -31.5309  -20.4170   18.5931 C   0  0  0  0  0  0  0  0  0  0  0  0
  -28.9635  -16.3239   23.1236 C   0  0  0  0  0  0  0  0  0  0  0  0
  -30.5477  -18.1792   22.5614 C   0  0  0  0  0  0  0  0  0  0  0  0
  -30.8061  -15.9487   21.4749 C   0  0  0  0  0  0  0  0  0  0  0  0
  -23.6118  -27.1017   22.5411 C   0  0  0  0  0  0  0  0  0  0  0  0
  -28.3195  -20.0466   16.5866 C   0  0  0  0  0  0  0  0  0  0  0  0
  -20.5031  -20.3632   20.7701 C   0  0  0  0  0  0  0  0  0  1  0  0
  -28.8814  -17.4417   20.7977 C   0  0  1  0  0  0  0  0  0  0  0  0
  -30.2773  -19.7106   18.1008 C   0  0  2  0  0  0  0  0  0  0  0  0
  -29.7718  -16.9761   21.9842 C   0  0  0  0  0  0  0  0  0  0  0  0
  -26.6277  -27.7195   18.2112 N   0  0  0  0  0  0  0  0  0  0  0  0
  -26.9973  -27.8227   19.4991 N   0  0  0  0  0  0  0  0  0  0  0  0
  -19.6511  -23.7553   22.0078 N   0  0  0  0  0  0  0  0  0  0  0  0
  -26.6819  -16.4549   20.2391 N   0  0  0  0  0  0  0  0  0  0  0  0
  -23.8482  -29.4279   20.9699 N   0  0  0  0  0  0  0  0  0  0  0  0
  -28.6496  -27.1354   21.0510 N   0  0  0  0  0  0  0  0  0  0  0  0
  -29.9697  -25.1916   17.1942 N   0  0  0  0  0  0  0  0  0  0  0  0
  -25.3550  -13.2315   20.9999 N   0  0  0  0  0  0  0  0  0  0  0  0
  -29.6232  -18.0386   19.6923 N   0  0  0  0  0  0  0  0  0  0  0  0
  -22.4438  -27.7490   21.9347 N   0  0  0  0  0  0  0  0  0  0  0  0
  -29.5606  -20.6227   17.1652 N   0  3  0  0  0  0  0  0  0  0  0  0
  -17.8196  -23.3547   23.4536 O   0  0  0  0  0  0  0  0  0  0  0  0
  -30.4685  -25.4435   19.4182 O   0  0  0  0  0  0  0  0  0  0  0  0
  -25.3332  -15.2447   22.1699 O   0  0  0  0  0  0  0  0  0  0  0  0
  -28.6627  -15.3395   19.7211 O   0  0  0  0  0  0  0  0  0  0  0  0
  -28.5297  -20.0832   19.7270 O   0  0  0  0  0  0  0  0  0  0  0  0
  -21.6165  -29.8520   21.4109 O   0  0  0  0  0  0  0  0  0  0  0  0
  -27.4017  -25.5755   12.2653 O   0  0  0  0  0  0  0  0  0  0  0  0
  -21.8717  -20.2096   21.1436 O   0  0  0  0  0  0  0  0  0  1  0  0
  -28.3434  -20.3137   10.9123 F   0  0  0  0  0  0  0  0  0  0  0  0
  -25.4879  -24.0887   10.9350 F   0  0  0  0  0  0  0  0  0  0  0  0
  -22.1105  -24.9842   21.7231 F   0  0  0  0  0  0  0  0  0  0  0  0
  1  2  1  0  0  0  0
  1  6  2  0  0  0  0
  2  7  2  0  0  0  0
  3  9  2  0  0  0  0
  3 10  1  0  0  0  0
  4 11  2  0  0  0  0
  4 18  1  0  0  0  0
  5 12  1  0  0  0  0
  5 18  2  0  0  0  0
  6 20  1  0  0  0  0
  7 22  1  0  0  0  0
  8 13  2  0  0  0  0
  8 21  1  0  0  0  0
  9 24  1  0  0  0  0
 10 25  2  0  0  0  0
 11 26  1  0  0  0  0
 12 26  2  0  0  0  0
 13 27  1  0  0  0  0
 14 15  2  0  0  0  0
 14 28  1  0  0  0  0
 15 29  1  0  0  0  0
 16 23  1  0  0  0  0
 16 27  2  0  0  0  0
 17 29  2  0  0  0  0
 17 30  1  0  0  0  0
 18 32  1  0  0  0  0
 19 32  1  0  0  0  0
 19 33  2  0  0  0  0
 19 37  1  0  0  0  0
 20 22  2  0  0  0  0
 20 42  1  0  0  0  0
 21 23  2  0  0  0  0
 21 43  1  0  0  0  0
 22 52  1  0  0  0  0
 23 44  1  0  0  0  0
 24 31  2  0  0  0  0
 24 67  1  0  0  0  0
 25 31  1  0  0  0  0
 25 74  1  0  0  0  0
 26 82  1  0  0  0  0
 27 83  1  0  0  0  0
 28 30  2  0  0  0  0
 28 82  1  0  0  0  0
 29 84  1  0  0  0  0
 30 85  1  0  0  0  0
 31 86  1  0  0  0  0
 32 65  2  0  0  0  0
 33 66  1  0  0  0  0
 33 70  1  0  0  0  0
 34 35  2  0  0  0  0
 34 36  1  0  0  0  0
 35 45  1  0  0  0  0
 35 61  1  0  0  0  0
 36 67  1  0  0  0  0
 36 76  2  0  0  0  0
 37 71  1  0  0  0  0
 37 77  2  0  0  0  0
 38 53  1  0  0  0  0
 38 72  1  0  0  0  0
 38 78  2  0  0  0  0
 39 62  1  0  0  0  0
 39 68  1  0  0  0  0
 39 79  2  0  0  0  0
 40 63  1  0  0  0  0
 40 73  1  0  0  0  0
 40 80  2  0  0  0  0
 41 69  1  0  0  0  0
 41 74  1  0  0  0  0
 41 81  2  0  0  0  0
 42 46  1  0  0  0  0
 43 53  1  0  0  0  0
 44 68  1  0  0  0  0
 45 67  1  0  0  0  0
 46 48  1  0  0  0  0
 47 49  1  0  0  0  0
 47 50  1  0  0  0  0
 48 52  1  0  0  0  0
 49 54  1  0  0  0  0
 50 69  1  0  0  0  0
 51 54  1  0  0  0  0
 51 69  1  0  0  0  0
 52 72  1  0  0  0  0
 53 68  1  0  0  0  0
 54 66  1  0  0  0  0
 55 63  1  0  0  0  0
 56 64  1  0  0  0  0
 57 64  1  0  0  0  0
 58 64  1  0  0  0  0
 59 74  1  0  0  0  0
 60 75  1  0  0  0  0
 61 83  1  0  0  0  0
 62 64  1  0  0  0  0
 62 73  1  0  0  0  0
 63 75  1  0  0  0  0
 65 66  1  0  0  0  0
M  CHG  1  75   1
M  ISO  4  41 100  61 101  74 100  83 101
M  END
> <Batch ID>
0072

> <Smiles>
CNC(C)C(=O)NC(C(=O)N1Cc2cc([101O:1][101CH2:1]C3=CC(=O)N(c4cccc([100N:0](C)[100C:0](=O)N5CCCC(n6nc(-c7ccc(Oc8ccc(F)cc8F)cc7)c(C(N)=O)c6N)C5)c4F)C3)ccc2CC1C(=O)NC1CCCc2ccccc21)C(C)(C)C

> <Shape>
0.235

> <Color>
0.058

> <Negative vol penalty>
0.000

$$$$

  -OEChem-04042323383D

 83 91  0     1  0  0  0  0  0999 V2000
  -21.3095   -7.6263   24.2995 C   0  0  0  0  0  0  0  0  0  0  0  0
  -22.3528   -8.4761   24.6527 C   0  0  0  0  0  0  0  0  0  0  0  0
  -26.8096  -29.8893   19.4912 C   0  0  0  0  0  0  0  0  0  0  0  0
  -26.8736  -29.2630   21.8238 C   0  0  0  0  0  0  0  0  0  0  0  0
  -27.8688  -19.1091   23.6560 C   0  0  0  0  0  0  0  0  0  0  0  0
  -21.1474   -7.2386   22.9701 C   0  0  0  0  0  0  0  0  0  0  0  0
  -23.2353   -8.9379   23.6768 C   0  0  0  0  0  0  0  0  0  0  0  0
  -24.1868  -13.8932   24.1062 C   0  0  0  0  0  0  0  0  0  0  0  0
  -28.2738  -19.9243   22.5992 C   0  0  0  0  0  0  0  0  0  0  0  0
  -25.7125  -30.7131   19.7425 C   0  0  0  0  0  0  0  0  0  0  0  0
  -25.7764  -30.0868   22.0751 C   0  0  0  0  0  0  0  0  0  0  0  0
  -25.0873  -14.2852   25.0957 C   0  0  0  0  0  0  0  0  0  0  0  0
  -22.4222  -29.9612   21.6702 C   0  0  0  0  0  0  0  0  0  0  0  0
  -21.3960  -29.4496   22.4643 C   0  0  0  0  0  0  0  0  0  0  0  0
  -28.3619  -20.8867   25.2162 C   0  0  0  0  0  0  0  0  0  0  0  0
  -26.8243  -14.4723   23.4323 C   0  0  0  0  0  0  0  0  0  0  0  0
  -21.7399  -31.2327   24.0578 C   0  0  0  0  0  0  0  0  0  0  0  0
  -27.3902  -29.1642   20.5319 C   0  0  0  0  0  0  0  0  0  0  0  0
  -27.9128  -19.5903   24.9646 C   0  0  0  0  0  0  0  0  0  0  0  0
  -29.8843  -28.6674   20.3310 C   0  0  0  0  0  0  0  0  0  0  0  0
  -22.0225   -7.7035   21.9758 C   0  0  0  0  0  0  0  0  0  0  0  0
  -24.6017  -13.7771   22.7717 C   0  0  0  0  0  0  0  0  0  0  0  0
  -23.0855   -8.5550   22.3330 C   0  0  0  0  0  0  0  0  0  0  0  0
  -25.9265  -14.0811   22.4273 C   0  0  0  0  0  0  0  0  0  0  0  0
  -28.7228  -21.2207   22.8508 C   0  0  0  0  0  0  0  0  0  0  0  0
  -25.1959  -30.8119   21.0344 C   0  0  0  0  0  0  0  0  0  0  0  0
  -26.4070  -14.5721   24.7593 C   0  0  0  0  0  0  0  0  0  0  0  0
  -23.1074  -31.1086   22.0699 C   0  0  0  0  0  0  0  0  0  0  0  0
  -21.0548  -30.0853   23.6581 C   0  0  0  0  0  0  0  0  0  0  0  0
  -28.7669  -21.7020   24.1593 C   0  0  0  0  0  0  0  0  0  0  0  0
  -22.7662  -31.7444   23.2637 C   0  0  0  0  0  0  0  0  0  0  0  0
  -28.5232  -28.3126   20.2728 C   0  0  0  0  0  0  0  0  0  0  0  0
  -30.5542  -27.5139   20.0037 C   0  0  0  0  0  0  0  0  0  0  0  0
  -27.4841  -18.7280   26.0840 C   0  0  0  0  0  0  0  0  0  0  0  0
  -30.4890  -29.9271   20.6522 C   0  0  0  0  0  0  0  0  0  0  0  0
  -24.7699  -11.3946   20.6742 C   0  0  0  0  0  0  0  0  0  0  0  0
  -25.6002  -13.7718   18.6291 C   0  0  0  0  0  0  0  0  0  0  0  0
  -26.9037  -16.8956   18.1939 C   0  0  0  0  0  0  0  0  0  0  0  0
  -29.1507  -21.7205   20.4190 C   0  0  0  0  0  0  0  0  0  0  0  0
  -21.8355   -7.2193   20.5598 C   0  0  0  0  0  0  0  0  0  0  0  0
  -23.6114  -13.3788   21.7120 C   0  0  0  0  0  0  0  0  0  0  0  0
  -26.4170  -13.9915   21.0061 C   0  0  0  0  0  0  0  0  0  0  0  0
  -22.5898   -8.0523   19.5266 C   0  0  0  0  0  0  0  0  0  0  0  0
  -30.0543  -23.4859   17.4620 C   0  0  0  0  0  0  0  0  0  0  0  0
  -24.0221   -8.3043   19.9866 C   0  0  0  0  0  0  0  0  0  0  0  0
  -29.8940  -24.9565   17.8544 C   0  0  0  0  0  0  0  0  0  0  0  0
  -28.9819  -22.6075   18.1039 C   0  0  0  0  0  0  0  0  0  0  0  0
  -28.7015  -24.2100   19.9539 C   0  0  0  0  0  0  0  0  0  0  0  0
  -24.0486   -9.0968   21.2991 C   0  0  1  0  0  0  0  0  0  0  0  0
  -24.2715  -12.7967   20.4658 C   0  0  1  0  0  0  0  0  0  0  0  0
  -29.7979  -25.1245   19.3835 C   0  0  2  0  0  0  0  0  0  0  0  0
  -27.4912  -18.5531   16.4037 C   0  0  0  0  0  0  0  0  0  0  0  0
  -28.0782  -12.1347   17.9299 C   0  0  0  0  0  0  0  0  0  0  0  0
  -29.0672  -14.1964   16.9104 C   0  0  0  0  0  0  0  0  0  0  0  0
  -26.9660  -13.2299   15.9760 C   0  0  0  0  0  0  0  0  0  0  0  0
  -25.0175  -18.9047   19.2731 C   0  0  0  0  0  0  0  0  0  0  0  0
  -27.7994  -16.6358   27.3567 C   0  0  0  0  0  0  0  0  0  0  0  0
  -26.7586  -15.6614   26.8439 C   0  0  0  0  0  0  0  0  0  1  0  0
  -26.8996  -14.4148   18.2084 C   0  0  1  0  0  0  0  0  0  0  0  0
  -26.4234  -18.0830   17.3792 C   0  0  2  0  0  0  0  0  0  0  0  0
  -27.7443  -13.4939   17.2833 C   0  0  0  0  0  0  0  0  0  0  0  0
  -28.3378  -27.0337   19.9350 N   0  0  0  0  0  0  0  0  0  0  0  0
  -29.5911  -26.5749   19.7779 N   0  0  0  0  0  0  0  0  0  0  0  0
  -25.4124  -13.5917   20.0069 N   0  0  0  0  0  0  0  0  0  0  0  0
  -28.9519  -22.8167   19.5531 N   0  0  0  0  0  0  0  0  0  0  0  0
  -31.8671  -27.2213   19.8899 N   0  0  0  0  0  0  0  0  0  0  0  0
  -26.4700  -19.1424   26.8434 N   0  0  0  0  0  0  0  0  0  0  0  0
  -29.6542  -31.0087   20.9647 N   0  0  0  0  0  0  0  0  0  0  0  0
  -29.1333  -22.0463   21.7748 N   0  0  0  0  0  0  0  0  0  0  0  0
  -23.7874  -10.4981   21.0488 N   0  0  0  0  0  0  0  0  0  0  0  0
  -26.5455  -15.6982   17.6116 N   0  0  0  0  0  0  0  0  0  0  0  0
  -28.1343  -17.5753   26.2837 N   0  3  0  0  0  0  0  0  0  0  0  0
  -26.0737  -19.2199   18.2771 N   0  3  0  0  0  0  0  0  0  0  0  0
  -31.7324  -30.0931   20.6457 O   0  0  0  0  0  0  0  0  0  0  0  0
  -25.9577  -11.1444   20.5060 O   0  0  0  0  0  0  0  0  0  0  0  0
  -24.7789  -13.4479   17.7676 O   0  0  0  0  0  0  0  0  0  0  0  0
  -27.5369  -17.0181   19.2402 O   0  0  0  0  0  0  0  0  0  0  0  0
  -29.3506  -20.5817   19.9889 O   0  0  0  0  0  0  0  0  0  0  0  0
  -24.1254  -31.6159   21.2800 O   0  0  0  0  0  0  0  0  0  0  0  0
  -27.2882  -14.9543   25.7233 O   0  0  0  0  0  0  0  0  0  1  0  0
  -20.0682  -29.5947   24.4198 F   0  0  0  0  0  0  0  0  0  0  0  0
  -29.1980  -22.9459   24.4129 F   0  0  0  0  0  0  0  0  0  0  0  0
  -23.4200  -32.8477   23.6523 F   0  0  0  0  0  0  0  0  0  0  0  0
  1  2  1  0  0  0  0
  1  6  2  0  0  0  0
  2  7  2  0  0  0  0
  3 10  2  0  0  0  0
  3 18  1  0  0  0  0
  4 11  1  0  0  0  0
  4 18  2  0  0  0  0
  5  9  2  0  0  0  0
  5 19  1  0  0  0  0
  6 21  1  0  0  0  0
  7 23  1  0  0  0  0
  8 12  2  0  0  0  0
  8 22  1  0  0  0  0
  9 25  1  0  0  0  0
 10 26  1  0  0  0  0
 11 26  2  0  0  0  0
 12 27  1  0  0  0  0
 13 14  2  0  0  0  0
 13 28  1  0  0  0  0
 14 29  1  0  0  0  0
 15 19  2  0  0  0  0
 15 30  1  0  0  0  0
 16 24  1  0  0  0  0
 16 27  2  0  0  0  0
 17 29  2  0  0  0  0
 17 31  1  0  0  0  0
 18 32  1  0  0  0  0
 19 34  1  0  0  0  0
 20 32  1  0  0  0  0
 20 33  2  0  0  0  0
 20 35  1  0  0  0  0
 21 23  2  0  0  0  0
 21 40  1  0  0  0  0
 22 24  2  0  0  0  0
 22 41  1  0  0  0  0
 23 49  1  0  0  0  0
 24 42  1  0  0  0  0
 25 30  2  0  0  0  0
 25 69  1  0  0  0  0
 26 79  1  0  0  0  0
 27 80  1  0  0  0  0
 28 31  2  0  0  0  0
 28 79  1  0  0  0  0
 29 81  1  0  0  0  0
 30 82  1  0  0  0  0
 31 83  1  0  0  0  0
 32 62  2  0  0  0  0
 33 63  1  0  0  0  0
 33 66  1  0  0  0  0
 34 67  1  0  0  0  0
 34 72  2  0  0  0  0
 35 68  1  0  0  0  0
 35 74  2  0  0  0  0
 36 50  1  0  0  0  0
 36 70  1  0  0  0  0
 36 75  2  0  0  0  0
 37 59  1  0  0  0  0
 37 64  1  0  0  0  0
 37 76  2  0  0  0  0
 38 60  1  0  0  0  0
 38 71  1  0  0  0  0
 38 77  2  0  0  0  0
 39 65  1  0  0  0  0
 39 69  1  0  0  0  0
 39 78  2  0  0  0  0
 40 43  1  0  0  0  0
 41 50  1  0  0  0  0
 42 64  1  0  0  0  0
 43 45  1  0  0  0  0
 44 46  1  0  0  0  0
 44 47  1  0  0  0  0
 45 49  1  0  0  0  0
 46 51  1  0  0  0  0
 47 65  1  0  0  0  0
 48 51  1  0  0  0  0
 48 65  1  0  0  0  0
 49 70  1  0  0  0  0
 50 64  1  0  0  0  0
 51 63  1  0  0  0  0
 52 60  1  0  0  0  0
 53 61  1  0  0  0  0
 54 61  1  0  0  0  0
 55 61  1  0  0  0  0
 56 73  1  0  0  0  0
 57 58  1  0  0  0  0
 57 72  1  0  0  0  0
 58 80  1  0  0  0  0
 59 61  1  0  0  0  0
 59 71  1  0  0  0  0
 60 73  1  0  0  0  0
 62 63  1  0  0  0  0
M  CHG  2  72   1  73   1
M  ISO  4  39 100  58 101  69 100  80 101
M  END
> <Batch ID>
0072

> <Smiles>
CNC(C)C(=O)NC(C(=O)N1Cc2cc([101O:1][101CH2:1]CNC(=N)c3ccc([100NH:0][100C:0](=O)N4CCCC(n5nc(-c6ccc(Oc7ccc(F)cc7F)cc6)c(C(N)=O)c5N)C4)c(F)c3)ccc2CC1C(=O)NC1CCCc2ccccc21)C(C)(C)C

> <Shape>
0.247

> <Color>
0.061

> <Negative vol penalty>
0.000

$$$$

  -OEChem-04042323383D

 86 95  0     1  0  0  0  0  0999 V2000
  -27.9921  -25.0834   16.5235 C   0  0  0  0  0  0  0  0  0  0  0  0
  -26.8056  -25.2873   17.2207 C   0  0  0  0  0  0  0  0  0  0  0  0
  -25.3885  -13.9377   18.9679 C   0  0  0  0  0  0  0  0  0  0  0  0
  -23.4037  -13.8728   20.3438 C   0  0  0  0  0  0  0  0  0  0  0  0
  -29.1988  -25.5349   17.0564 C   0  0  0  0  0  0  0  0  0  0  0  0
  -26.8253  -25.9419   18.4518 C   0  0  0  0  0  0  0  0  0  0  0  0
  -23.1523  -29.4029   18.8706 C   0  0  0  0  0  0  0  0  0  0  0  0
  -18.5649  -21.3994   23.2075 C   0  0  0  0  0  0  0  0  0  0  0  0
  -19.8145  -20.8532   22.9145 C   0  0  0  0  0  0  0  0  0  0  0  0
  -25.7983  -12.7158   19.5013 C   0  0  0  0  0  0  0  0  0  0  0  0
  -23.8134  -12.6508   20.8773 C   0  0  0  0  0  0  0  0  0  0  0  0
  -21.8674  -28.9376   19.1467 C   0  0  0  0  0  0  0  0  0  0  0  0
  -23.8154   -9.4028   19.9443 C   0  0  0  0  0  0  0  0  0  0  0  0
  -22.8605   -8.3918   20.0525 C   0  0  0  0  0  0  0  0  0  0  0  0
  -22.1655  -29.5117   21.4707 C   0  0  0  0  0  0  0  0  0  0  0  0
  -20.5927  -23.0226   22.1897 C   0  0  0  0  0  0  0  0  0  0  0  0
  -23.2008   -8.3265   22.4436 C   0  0  0  0  0  0  0  0  0  0  0  0
  -24.1912  -14.5163   19.3892 C   0  0  0  0  0  0  0  0  0  0  0  0
  -22.9695  -15.9837   17.6975 C   0  0  0  0  0  0  0  0  0  0  0  0
  -29.2321  -26.2039   18.2900 C   0  0  0  0  0  0  0  0  0  0  0  0
  -23.9589  -29.9170   19.8961 C   0  0  0  0  0  0  0  0  0  0  0  0
  -28.0337  -26.4016   19.0023 C   0  0  0  0  0  0  0  0  0  0  0  0
  -23.4593  -29.9853   21.2045 C   0  0  0  0  0  0  0  0  0  0  0  0
  -18.3292  -22.7572   22.9916 C   0  0  0  0  0  0  0  0  0  0  0  0
  -19.3431  -23.5688   22.4827 C   0  0  0  0  0  0  0  0  0  0  0  0
  -20.8284  -21.6648   22.4056 C   0  0  0  0  0  0  0  0  0  0  0  0
  -25.0108  -12.0723   20.4560 C   0  0  0  0  0  0  0  0  0  0  0  0
  -21.3749  -28.9892   20.4474 C   0  0  0  0  0  0  0  0  0  0  0  0
  -24.4630   -9.8756   21.0857 C   0  0  0  0  0  0  0  0  0  0  0  0
  -22.5532   -7.8536   21.3022 C   0  0  0  0  0  0  0  0  0  0  0  0
  -24.1557   -9.3374   22.3353 C   0  0  0  0  0  0  0  0  0  0  0  0
  -23.7677  -15.7787   18.8389 C   0  0  0  0  0  0  0  0  0  0  0  0
  -22.8555  -17.3489   17.5989 C   0  0  0  0  0  0  0  0  0  0  0  0
  -18.7787  -25.9355   23.1013 C   0  0  0  0  0  0  0  0  0  0  0  0
  -19.1943  -25.6791   21.1309 C   0  0  0  0  0  0  0  0  0  0  0  0
  -22.3835  -15.0257   16.8062 C   0  0  0  0  0  0  0  0  0  0  0  0
  -26.7529  -29.1024   21.1743 C   0  0  0  0  0  0  0  0  0  0  0  0
  -26.3691  -31.8746   22.8144 C   0  0  0  0  0  0  0  0  0  0  0  0
  -24.2419  -34.2459   24.0387 C   0  0  0  0  0  0  0  0  0  0  0  0
  -23.2120  -21.7745   21.5978 C   0  0  0  0  0  0  0  0  0  0  0  0
  -30.5663  -26.6319   18.8480 C   0  0  0  0  0  0  0  0  0  0  0  0
  -25.3327  -30.4396   19.5771 C   0  0  0  0  0  0  0  0  0  0  0  0
  -24.2775  -30.5467   22.3375 C   0  0  0  0  0  0  0  0  0  0  0  0
  -30.4548  -27.6482   19.9816 C   0  0  0  0  0  0  0  0  0  0  0  0
  -25.1951  -21.3889   18.6660 C   0  0  0  0  0  0  0  0  0  0  0  0
  -29.3937  -27.2122   20.9870 C   0  0  0  0  0  0  0  0  0  0  0  0
  -24.9767  -19.9268   18.2703 C   0  0  0  0  0  0  0  0  0  0  0  0
  -25.2439  -21.5647   20.1827 C   0  0  0  0  0  0  0  0  0  0  0  0
  -23.8807  -19.5397   20.5144 C   0  0  0  0  0  0  0  0  0  0  0  0
  -28.0111  -27.1294   20.3289 C   0  0  1  0  0  0  0  0  0  0  0  0
  -26.2577  -30.4680   20.7899 C   0  0  1  0  0  0  0  0  0  0  0  0
  -23.7596  -19.3220   18.9973 C   0  0  2  0  0  0  0  0  0  0  0  0
  -18.8048  -26.9469   21.9295 C   0  0  0  0  0  0  0  0  0  0  0  0
  -16.9810  -23.3149   23.3145 C   0  0  0  0  0  0  0  0  0  0  0  0
  -17.4488  -27.5373   21.5677 C   0  0  0  0  0  0  0  0  0  0  0  0
  -24.2189  -36.3729   25.3701 C   0  0  0  0  0  0  0  0  0  0  0  0
  -26.8007  -30.2733   25.3755 C   0  0  0  0  0  0  0  0  0  0  0  0
  -25.8420  -32.1981   26.6579 C   0  0  0  0  0  0  0  0  0  0  0  0
  -27.9350  -32.5018   25.3349 C   0  0  0  0  0  0  0  0  0  0  0  0
  -23.0812  -35.7782   21.7885 C   0  0  0  0  0  0  0  0  0  0  0  0
  -19.8938  -27.9981   22.0222 C   0  0  0  0  0  0  0  0  0  1  0  0
  -25.7279  -32.2613   24.1253 C   0  0  1  0  0  0  0  0  0  0  0  0
  -24.2817  -35.7622   23.9788 C   0  0  2  0  0  0  0  0  0  0  0  0
  -26.5615  -31.7962   25.3526 C   0  0  0  0  0  0  0  0  0  0  0  0
  -24.1349  -16.9222   19.4234 N   0  0  0  0  0  0  0  0  0  0  0  0
  -23.5649  -17.8588   18.6462 N   0  0  0  0  0  0  0  0  0  0  0  0
  -19.1294  -24.9091   22.2631 N   0  0  0  0  0  0  0  0  0  0  0  0
  -25.6170  -31.0394   21.9762 N   0  0  0  0  0  0  0  0  0  0  0  0
  -24.0572  -20.9716   20.8030 N   0  0  0  0  0  0  0  0  0  0  0  0
  -22.2187  -18.1509   16.7193 N   0  0  0  0  0  0  0  0  0  0  0  0
  -22.6003  -13.6632   17.0533 N   0  0  0  0  0  0  0  0  0  0  0  0
  -22.0976  -21.1095   22.1081 N   0  0  0  0  0  0  0  0  0  0  0  0
  -27.4464  -28.4525   20.1712 N   0  0  0  0  0  0  0  0  0  0  0  0
  -25.5089  -33.7023   24.0631 N   0  0  0  0  0  0  0  0  0  0  0  0
  -23.1306  -36.2796   23.1860 N   0  3  0  0  0  0  0  0  0  0  0  0
  -18.5490  -25.9818   24.2889 O   0  0  0  0  0  0  0  0  0  0  0  0
  -19.4581  -25.4207   19.9781 O   0  0  0  0  0  0  0  0  0  0  0  0
  -21.7019  -15.3681   15.8104 O   0  0  0  0  0  0  0  0  0  0  0  0
  -26.5240  -28.6710   22.2982 O   0  0  0  0  0  0  0  0  0  0  0  0
  -27.4928  -32.3038   22.5410 O   0  0  0  0  0  0  0  0  0  0  0  0
  -23.1919  -33.6076   24.0653 O   0  0  0  0  0  0  0  0  0  0  0  0
  -23.4442  -22.9712   21.7878 O   0  0  0  0  0  0  0  0  0  0  0  0
  -25.4102  -10.8799   20.9766 O   0  0  0  0  0  0  0  0  0  0  0  0
  -20.1213  -28.5351   20.7198 O   0  0  0  0  0  0  0  0  0  1  0  0
  -21.6351   -6.8839   21.4062 F   0  0  0  0  0  0  0  0  0  0  0  0
  -24.7737   -9.7884   23.4355 F   0  0  0  0  0  0  0  0  0  0  0  0
  1  2  1  0  0  0  0
  1  5  2  0  0  0  0
  2  6  2  0  0  0  0
  3 10  2  0  0  0  0
  3 18  1  0  0  0  0
  4 11  1  0  0  0  0
  4 18  2  0  0  0  0
  5 20  1  0  0  0  0
  6 22  1  0  0  0  0
  7 12  2  0  0  0  0
  7 21  1  0  0  0  0
  8  9  2  0  0  0  0
  8 24  1  0  0  0  0
  9 26  1  0  0  0  0
 10 27  1  0  0  0  0
 11 27  2  0  0  0  0
 12 28  1  0  0  0  0
 13 14  2  0  0  0  0
 13 29  1  0  0  0  0
 14 30  1  0  0  0  0
 15 23  1  0  0  0  0
 15 28  2  0  0  0  0
 16 25  1  0  0  0  0
 16 26  2  0  0  0  0
 17 30  2  0  0  0  0
 17 31  1  0  0  0  0
 18 32  1  0  0  0  0
 19 32  1  0  0  0  0
 19 33  2  0  0  0  0
 19 36  1  0  0  0  0
 20 22  2  0  0  0  0
 20 41  1  0  0  0  0
 21 23  2  0  0  0  0
 21 42  1  0  0  0  0
 22 50  1  0  0  0  0
 23 43  1  0  0  0  0
 24 25  2  0  0  0  0
 24 54  1  0  0  0  0
 25 67  1  0  0  0  0
 26 72  1  0  0  0  0
 27 83  1  0  0  0  0
 28 84  1  0  0  0  0
 29 31  2  0  0  0  0
 29 83  1  0  0  0  0
 30 85  1  0  0  0  0
 31 86  1  0  0  0  0
 32 65  2  0  0  0  0
 33 66  1  0  0  0  0
 33 70  1  0  0  0  0
 34 53  1  0  0  0  0
 34 67  1  0  0  0  0
 34 76  2  0  0  0  0
 35 53  1  0  0  0  0
 35 67  1  0  0  0  0
 35 77  2  0  0  0  0
 36 71  1  0  0  0  0
 36 78  2  0  0  0  0
 37 51  1  0  0  0  0
 37 73  1  0  0  0  0
 37 79  2  0  0  0  0
 38 62  1  0  0  0  0
 38 68  1  0  0  0  0
 38 80  2  0  0  0  0
 39 63  1  0  0  0  0
 39 74  1  0  0  0  0
 39 81  2  0  0  0  0
 40 69  1  0  0  0  0
 40 72  1  0  0  0  0
 40 82  2  0  0  0  0
 41 44  1  0  0  0  0
 42 51  1  0  0  0  0
 43 68  1  0  0  0  0
 44 46  1  0  0  0  0
 45 47  1  0  0  0  0
 45 48  1  0  0  0  0
 46 50  1  0  0  0  0
 47 52  1  0  0  0  0
 48 69  1  0  0  0  0
 49 52  1  0  0  0  0
 49 69  1  0  0  0  0
 50 73  1  0  0  0  0
 51 68  1  0  0  0  0
 52 66  1  0  0  0  0
 53 55  1  0  0  0  0
 53 61  1  0  0  0  0
 56 63  1  0  0  0  0
 57 64  1  0  0  0  0
 58 64  1  0  0  0  0
 59 64  1  0  0  0  0
 60 75  1  0  0  0  0
 61 84  1  0  0  0  0
 62 64  1  0  0  0  0
 62 74  1  0  0  0  0
 63 75  1  0  0  0  0
 65 66  1  0  0  0  0
M  CHG  1  75   1
M  ISO  4  40 100  61 101  72 100  84 101
M  END
> <Batch ID>
0072

> <Smiles>
CNC(C)C(=O)NC(C(=O)N1Cc2cc([101O:1][101CH2:1]C3(C)C(=O)N(c4cc([100NH:0][100C:0](=O)N5CCCC(n6nc(-c7ccc(Oc8ccc(F)cc8F)cc7)c(C(N)=O)c6N)C5)ccc4C)C3=O)ccc2CC1C(=O)NC1CCCc2ccccc21)C(C)(C)C

> <Shape>
0.282

> <Color>
0.080

> <Negative vol penalty>
0.000

$$$$

  -OEChem-04042323383D

 89 98  0     1  0  0  0  0  0999 V2000
  -20.3243  -29.4757   25.2216 C   0  0  0  0  0  0  0  0  0  0  0  0
  -21.5784  -29.0179   24.8303 C   0  0  0  0  0  0  0  0  0  0  0  0
  -25.3164  -11.5590   24.1906 C   0  0  0  0  0  0  0  0  0  0  0  0
  -24.7544  -13.5763   25.3954 C   0  0  0  0  0  0  0  0  0  0  0  0
  -19.1836  -29.0428   24.5467 C   0  0  0  0  0  0  0  0  0  0  0  0
  -21.6924  -28.1260   23.7646 C   0  0  0  0  0  0  0  0  0  0  0  0
  -25.4243  -29.3746   20.5773 C   0  0  0  0  0  0  0  0  0  0  0  0
  -29.1794  -22.3935   18.8661 C   0  0  0  0  0  0  0  0  0  0  0  0
  -29.7562  -23.5222   19.4482 C   0  0  0  0  0  0  0  0  0  0  0  0
  -25.0714  -10.8052   25.3384 C   0  0  0  0  0  0  0  0  0  0  0  0
  -24.5093  -12.8226   26.5432 C   0  0  0  0  0  0  0  0  0  0  0  0
  -26.7260  -29.0633   20.9677 C   0  0  0  0  0  0  0  0  0  0  0  0
  -26.3198  -11.3357   28.9809 C   0  0  0  0  0  0  0  0  0  0  0  0
  -26.8396  -11.8045   30.1873 C   0  0  0  0  0  0  0  0  0  0  0  0
  -26.6751  -27.1075   19.5565 C   0  0  0  0  0  0  0  0  0  0  0  0
  -28.2809  -23.2964   21.3481 C   0  0  0  0  0  0  0  0  0  0  0  0
  -24.6058  -11.9381   31.0980 C   0  0  0  0  0  0  0  0  0  0  0  0
  -25.1580  -12.9445   24.2191 C   0  0  0  0  0  0  0  0  0  0  0  0
  -24.4879  -14.0671   22.0286 C   0  0  0  0  0  0  0  0  0  0  0  0
  -19.2846  -28.1527   23.4660 C   0  0  0  0  0  0  0  0  0  0  0  0
  -24.7332  -28.5474   19.6804 C   0  0  0  0  0  0  0  0  0  0  0  0
  -20.5520  -27.6797   23.0754 C   0  0  0  0  0  0  0  0  0  0  0  0
  -25.3657  -27.4119   19.1543 C   0  0  0  0  0  0  0  0  0  0  0  0
  -28.1532  -21.7163   19.5249 C   0  0  0  0  0  0  0  0  0  0  0  0
  -29.3070  -23.9737   20.6892 C   0  0  0  0  0  0  0  0  0  0  0  0
  -24.6678  -11.4370   26.5147 C   0  0  0  0  0  0  0  0  0  0  0  0
  -27.3505  -27.9280   20.4596 C   0  0  0  0  0  0  0  0  0  0  0  0
  -24.9429  -11.1681   28.8329 C   0  0  0  0  0  0  0  0  0  0  0  0
  -25.9827  -12.1057   31.2459 C   0  0  0  0  0  0  0  0  0  0  0  0
  -27.7040  -22.1677   20.7659 C   0  0  0  0  0  0  0  0  0  0  0  0
  -24.0859  -11.4693   29.8915 C   0  0  0  0  0  0  0  0  0  0  0  0
  -25.4116  -13.7238   23.0340 C   0  0  0  0  0  0  0  0  0  0  0  0
  -25.2172  -14.8075   21.1306 C   0  0  0  0  0  0  0  0  0  0  0  0
  -30.9308  -25.9136   20.7432 C   0  0  0  0  0  0  0  0  0  0  0  0
  -23.0952  -13.7455   21.9165 C   0  0  0  0  0  0  0  0  0  0  0  0
  -22.0776  -26.8065   19.8254 C   0  0  0  0  0  0  0  0  0  0  0  0
  -22.6569  -26.3685   16.6639 C   0  0  0  0  0  0  0  0  0  0  0  0
  -24.9232  -26.3236   14.1127 C   0  0  0  0  0  0  0  0  0  0  0  0
  -28.9539  -18.7992   20.0129 C   0  0  0  0  0  0  0  0  0  0  0  0
  -18.0195  -27.6761   22.7974 C   0  0  0  0  0  0  0  0  0  0  0  0
  -23.3392  -28.9117   19.2485 C   0  0  0  0  0  0  0  0  0  0  0  0
  -24.6744  -26.5023   18.1729 C   0  0  0  0  0  0  0  0  0  0  0  0
  -31.2830  -26.9692   21.7682 C   0  0  0  0  0  0  0  0  0  0  0  0
  -18.2577  -27.0218   21.4390 C   0  0  0  0  0  0  0  0  0  0  0  0
  -30.2068  -15.5515   20.7609 C   0  0  0  0  0  0  0  0  0  0  0  0
  -19.4122  -26.0282   21.5201 C   0  0  0  0  0  0  0  0  0  0  0  0
  -28.9969  -14.8174   21.3414 C   0  0  0  0  0  0  0  0  0  0  0  0
  -30.2277  -17.0211   21.1757 C   0  0  0  0  0  0  0  0  0  0  0  0
  -27.7797  -17.0318   21.4600 C   0  0  0  0  0  0  0  0  0  0  0  0
  -29.5212  -25.5929   22.6083 C   0  0  0  0  0  0  0  0  0  0  0  0
  -20.7187  -26.7310   21.9083 C   0  0  1  0  0  0  0  0  0  0  0  0
  -22.5445  -27.7187   18.7264 C   0  0  1  0  0  0  0  0  0  0  0  0
  -27.6850  -15.5598   21.0234 C   0  0  2  0  0  0  0  0  0  0  0  0
  -30.0583  -27.0242   22.6861 C   0  0  1  0  0  0  0  0  0  0  0  0
  -30.4417  -27.4052   24.1169 C   0  0  0  0  0  0  0  0  0  0  0  0
  -25.1052  -25.8952   11.6468 C   0  0  0  0  0  0  0  0  0  0  0  0
  -28.1223  -20.0952   17.5149 C   0  0  0  0  0  0  0  0  0  0  0  0
  -26.0143  -20.7197   18.6868 C   0  0  0  0  0  0  0  0  0  0  0  0
  -22.4752  -23.3658   17.1745 C   0  0  0  0  0  0  0  0  0  0  0  0
  -23.5806  -22.9928   14.9593 C   0  0  0  0  0  0  0  0  0  0  0  0
  -21.3657  -24.1350   15.0694 C   0  0  0  0  0  0  0  0  0  0  0  0
  -25.8614  -29.0805   13.5854 C   0  0  0  0  0  0  0  0  0  0  0  0
  -29.0232  -28.0266   22.1474 C   0  0  0  0  0  0  0  0  0  1  0  0
  -23.4337  -25.3631   15.8486 C   0  0  1  0  0  0  0  0  0  0  0  0
  -24.8930  -26.9439   12.7275 C   0  0  2  0  0  0  0  0  0  0  0  0
  -27.5403  -20.5086   18.8998 C   0  0  0  0  0  0  0  0  0  0  0  0
  -22.7264  -23.9801   15.7829 C   0  0  0  0  0  0  0  0  0  0  0  0
  -26.6343  -14.2063   22.7973 N   0  0  0  0  0  0  0  0  0  0  0  0
  -26.4841  -14.8603   21.6330 N   0  0  0  0  0  0  0  0  0  0  0  0
  -29.8959  -25.1297   21.2839 N   0  0  0  0  0  0  0  0  0  0  0  0
  -23.3099  -26.8975   17.7862 N   0  0  0  0  0  0  0  0  0  0  0  0
  -28.9555  -17.6675   20.8450 N   0  0  0  0  0  0  0  0  0  0  0  0
  -24.8920  -15.4120   19.9682 N   0  0  0  0  0  0  0  0  0  0  0  0
  -22.5036  -12.9760   22.9275 N   0  0  0  0  0  0  0  0  0  0  0  0
  -21.2778  -27.4245   20.7677 N   0  0  0  0  0  0  0  0  0  0  0  0
  -23.6600  -25.9810   14.5465 N   0  0  0  0  0  0  0  0  0  0  0  0
  -27.7053  -19.3466   19.7443 N   0  0  0  0  0  0  0  0  0  0  0  0
  -25.9614  -27.9748   12.5983 N   0  3  0  0  0  0  0  0  0  0  0  0
  -31.5332  -25.8012   19.6853 O   0  0  0  0  0  0  0  0  0  0  0  0
  -22.3998  -14.1153   20.9401 O   0  0  0  0  0  0  0  0  0  0  0  0
  -22.4166  -25.6290   19.8181 O   0  0  0  0  0  0  0  0  0  0  0  0
  -21.5154  -26.6786   16.3137 O   0  0  0  0  0  0  0  0  0  0  0  0
  -25.9637  -26.1560   14.7450 O   0  0  0  0  0  0  0  0  0  0  0  0
  -29.9880  -19.2826   19.5399 O   0  0  0  0  0  0  0  0  0  0  0  0
  -24.4284  -10.7018   27.6348 O   0  0  0  0  0  0  0  0  0  0  0  0
  -28.6208  -27.6214   20.8396 O   0  0  0  0  0  0  0  0  0  1  0  0
  -26.4822  -12.5544   32.4049 F   0  0  0  0  0  0  0  0  0  0  0  0
  -26.7186  -21.5236   21.4066 F   0  0  0  0  0  0  0  0  0  0  0  0
  -22.7624  -11.3092   29.7557 F   0  0  0  0  0  0  0  0  0  0  0  0
  1  2  1  0  0  0  0
  1  5  2  0  0  0  0
  2  6  2  0  0  0  0
  3 10  2  0  0  0  0
  3 18  1  0  0  0  0
  4 11  1  0  0  0  0
  4 18  2  0  0  0  0
  5 20  1  0  0  0  0
  6 22  1  0  0  0  0
  7 12  2  0  0  0  0
  7 21  1  0  0  0  0
  8  9  2  0  0  0  0
  8 24  1  0  0  0  0
  9 25  1  0  0  0  0
 10 26  1  0  0  0  0
 11 26  2  0  0  0  0
 12 27  1  0  0  0  0
 13 14  2  0  0  0  0
 13 28  1  0  0  0  0
 14 29  1  0  0  0  0
 15 23  1  0  0  0  0
 15 27  2  0  0  0  0
 16 25  2  0  0  0  0
 16 30  1  0  0  0  0
 17 29  2  0  0  0  0
 17 31  1  0  0  0  0
 18 32  1  0  0  0  0
 19 32  1  0  0  0  0
 19 33  2  0  0  0  0
 19 35  1  0  0  0  0
 20 22  2  0  0  0  0
 20 40  1  0  0  0  0
 21 23  2  0  0  0  0
 21 41  1  0  0  0  0
 22 51  1  0  0  0  0
 23 42  1  0  0  0  0
 24 30  2  0  0  0  0
 24 66  1  0  0  0  0
 25 70  1  0  0  0  0
 26 85  1  0  0  0  0
 27 86  1  0  0  0  0
 28 31  2  0  0  0  0
 28 85  1  0  0  0  0
 29 87  1  0  0  0  0
 30 88  1  0  0  0  0
 31 89  1  0  0  0  0
 32 68  2  0  0  0  0
 33 69  1  0  0  0  0
 33 73  1  0  0  0  0
 34 43  1  0  0  0  0
 34 70  1  0  0  0  0
 34 79  2  0  0  0  0
 35 74  1  0  0  0  0
 35 80  2  0  0  0  0
 36 52  1  0  0  0  0
 36 75  1  0  0  0  0
 36 81  2  0  0  0  0
 37 64  1  0  0  0  0
 37 71  1  0  0  0  0
 37 82  2  0  0  0  0
 38 65  1  0  0  0  0
 38 76  1  0  0  0  0
 38 83  2  0  0  0  0
 39 72  1  0  0  0  0
 39 77  1  0  0  0  0
 39 84  2  0  0  0  0
 40 44  1  0  0  0  0
 41 52  1  0  0  0  0
 42 71  1  0  0  0  0
 43 54  1  0  0  0  0
 44 46  1  0  0  0  0
 45 47  1  0  0  0  0
 45 48  1  0  0  0  0
 46 51  1  0  0  0  0
 47 53  1  0  0  0  0
 48 72  1  0  0  0  0
 49 53  1  0  0  0  0
 49 72  1  0  0  0  0
 50 54  1  0  0  0  0
 50 70  1  0  0  0  0
 51 75  1  0  0  0  0
 52 71  1  0  0  0  0
 53 69  1  0  0  0  0
 54 55  1  0  0  0  0
 54 63  1  0  0  0  0
 56 65  1  0  0  0  0
 57 66  1  0  0  0  0
 58 66  1  0  0  0  0
 59 67  1  0  0  0  0
 60 67  1  0  0  0  0
 61 67  1  0  0  0  0
 62 78  1  0  0  0  0
 63 86  1  0  0  0  0
 64 67  1  0  0  0  0
 64 76  1  0  0  0  0
 65 78  1  0  0  0  0
 66 77  1  0  0  0  0
 68 69  1  0  0  0  0
M  CHG  1  78   1
M  ISO  4  39 100  63 101  77 100  86 101
M  END
> <Batch ID>
0072

> <Smiles>
CNC(C)C(=O)NC(C(=O)N1Cc2cc([101O:1][101CH2:1]C3(C)CC(=O)N(c4ccc(C(C)(C)[100NH:0][100C:0](=O)N5CCCC(n6nc(-c7ccc(Oc8ccc(F)cc8F)cc7)c(C(N)=O)c6N)C5)c(F)c4)C3)ccc2CC1C(=O)NC1CCCc2ccccc21)C(C)(C)C

> <Shape>
0.226

> <Color>
0.095

> <Negative vol penalty>
0.000

$$$$

  -OEChem-04042323383D

 84 92  0     1  0  0  0  0  0999 V2000
  -19.0375  -24.3640   23.2752 C   0  0  0  0  0  0  0  0  0  0  0  0
  -20.3531  -24.4757   22.8370 C   0  0  0  0  0  0  0  0  0  0  0  0
  -23.9396   -9.3300   21.7467 C   0  0  0  0  0  0  0  0  0  0  0  0
  -24.1256  -11.0322   23.4511 C   0  0  0  0  0  0  0  0  0  0  0  0
  -30.5716  -19.9528   19.4388 C   0  0  0  0  0  0  0  0  0  0  0  0
  -18.2159  -25.4901   23.3048 C   0  0  0  0  0  0  0  0  0  0  0  0
  -20.8476  -25.7133   22.4270 C   0  0  0  0  0  0  0  0  0  0  0  0
  -25.4570  -26.6775   24.2895 C   0  0  0  0  0  0  0  0  0  0  0  0
  -30.4114  -18.5698   19.3541 C   0  0  0  0  0  0  0  0  0  0  0  0
  -23.4235   -8.4417   22.6901 C   0  0  0  0  0  0  0  0  0  0  0  0
  -23.6094  -10.1439   24.3945 C   0  0  0  0  0  0  0  0  0  0  0  0
  -26.5375  -26.0493   23.6719 C   0  0  0  0  0  0  0  0  0  0  0  0
  -20.4604   -7.8730   24.2165 C   0  0  0  0  0  0  0  0  0  0  0  0
  -19.3435   -7.1199   23.8548 C   0  0  0  0  0  0  0  0  0  0  0  0
  -28.1813  -20.2420   19.2395 C   0  0  0  0  0  0  0  0  0  0  0  0
  -27.0111  -28.0761   22.4524 C   0  0  0  0  0  0  0  0  0  0  0  0
  -20.5993   -5.0867   24.2107 C   0  0  0  0  0  0  0  0  0  0  0  0
  -24.2907  -10.6253   22.1271 C   0  0  0  0  0  0  0  0  0  0  0  0
  -29.4566  -20.7889   19.3816 C   0  0  0  0  0  0  0  0  0  0  0  0
  -24.1005  -12.4363   20.3405 C   0  0  0  0  0  0  0  0  0  0  0  0
  -18.7034  -26.7440   22.9041 C   0  0  0  0  0  0  0  0  0  0  0  0
  -25.1382  -28.0086   23.9846 C   0  0  0  0  0  0  0  0  0  0  0  0
  -20.0314  -26.8570   22.4499 C   0  0  0  0  0  0  0  0  0  0  0  0
  -25.9275  -28.7197   23.0695 C   0  0  0  0  0  0  0  0  0  0  0  0
  -29.1361  -18.0229   19.2121 C   0  0  0  0  0  0  0  0  0  0  0  0
  -23.2584   -8.8487   24.0140 C   0  0  0  0  0  0  0  0  0  0  0  0
  -27.3130  -26.7476   22.7510 C   0  0  0  0  0  0  0  0  0  0  0  0
  -21.6468   -7.2330   24.5753 C   0  0  0  0  0  0  0  0  0  0  0  0
  -19.4129   -5.7267   23.8519 C   0  0  0  0  0  0  0  0  0  0  0  0
  -28.0210  -18.8590   19.1548 C   0  0  0  0  0  0  0  0  0  0  0  0
  -21.7162   -5.8399   24.5724 C   0  0  0  0  0  0  0  0  0  0  0  0
  -24.8244  -11.5432   21.1531 C   0  0  0  0  0  0  0  0  0  0  0  0
  -25.0600  -13.0779   19.5962 C   0  0  0  0  0  0  0  0  0  0  0  0
  -29.6254  -22.2539   19.4713 C   0  0  0  0  0  0  0  0  0  0  0  0
  -22.6871  -12.6653   20.2653 C   0  0  0  0  0  0  0  0  0  0  0  0
  -22.6219  -29.4783   22.7150 C   0  0  0  0  0  0  0  0  0  0  0  0
  -24.2924  -32.1536   23.4733 C   0  0  0  0  0  0  0  0  0  0  0  0
  -29.0588  -24.3208   20.7272 C   0  0  0  0  0  0  0  0  0  0  0  0
  -27.3184  -33.5952   24.1147 C   0  0  0  0  0  0  0  0  0  0  0  0
  -29.9799  -15.6496   19.1673 C   0  0  0  0  0  0  0  0  0  0  0  0
  -17.7636  -27.9236   22.9088 C   0  0  0  0  0  0  0  0  0  0  0  0
  -23.9856  -28.6802   24.6795 C   0  0  0  0  0  0  0  0  0  0  0  0
  -25.6395  -30.1568   22.7227 C   0  0  0  0  0  0  0  0  0  0  0  0
  -18.4760  -29.2703   22.8122 C   0  0  0  0  0  0  0  0  0  0  0  0
  -29.9920  -12.0920   19.0256 C   0  0  0  0  0  0  0  0  0  0  0  0
  -19.5357  -29.2362   21.7156 C   0  0  0  0  0  0  0  0  0  0  0  0
  -28.5891  -11.7055   19.4997 C   0  0  0  0  0  0  0  0  0  0  0  0
  -30.5314  -13.3056   19.7806 C   0  0  0  0  0  0  0  0  0  0  0  0
  -28.2457  -14.0926   20.2553 C   0  0  0  0  0  0  0  0  0  0  0  0
  -20.6117  -28.1870   22.0206 C   0  0  1  0  0  0  0  0  0  0  0  0
  -23.4403  -29.8791   23.9097 C   0  0  1  0  0  0  0  0  0  0  0  0
  -27.6340  -12.9151   19.4788 C   0  0  2  0  0  0  0  0  0  0  0  0
  -28.3700  -35.8063   24.6650 C   0  0  0  0  0  0  0  0  0  0  0  0
  -23.9702  -33.0272   20.5676 C   0  0  0  0  0  0  0  0  0  0  0  0
  -25.7950  -34.7001   20.9411 C   0  0  0  0  0  0  0  0  0  0  0  0
  -23.6749  -34.8575   22.2460 C   0  0  0  0  0  0  0  0  0  0  0  0
  -28.3559  -32.5902   26.6978 C   0  0  0  0  0  0  0  0  0  0  0  0
  -28.2746  -24.7267   21.9466 C   0  0  0  0  0  0  0  0  0  1  0  0
  -25.3182  -33.0088   22.7695 C   0  0  1  0  0  0  0  0  0  0  0  0
  -27.7770  -34.5229   25.2254 C   0  0  2  0  0  0  0  0  0  0  0  0
  -24.6941  -33.8707   21.6359 C   0  0  0  0  0  0  0  0  0  0  0  0
  -26.1420  -11.6087   20.9446 N   0  0  0  0  0  0  0  0  0  0  0  0
  -26.2537  -12.5505   19.9925 N   0  0  0  0  0  0  0  0  0  0  0  0
  -24.4982  -30.7676   23.4239 N   0  0  0  0  0  0  0  0  0  0  0  0
  -29.5758  -14.4133   19.7141 N   0  0  0  0  0  0  0  0  0  0  0  0
  -24.9906  -14.0361   18.6478 N   0  0  0  0  0  0  0  0  0  0  0  0
  -21.8441  -11.9199   21.1008 N   0  0  0  0  0  0  0  0  0  0  0  0
  -28.9768  -16.6175   19.1265 N   0  0  0  0  0  0  0  0  0  0  0  0
  -29.0217  -22.8989   20.4791 N   0  0  0  0  0  0  0  0  0  0  0  0
  -21.5332  -28.6838   23.0198 N   0  0  0  0  0  0  0  0  0  0  0  0
  -25.9869  -33.7831   23.8096 N   0  0  0  0  0  0  0  0  0  0  0  0
  -30.3729  -22.8500   18.5429 N   0  3  0  0  0  0  0  0  0  0  0  0
  -28.8114  -33.8545   26.0646 N   0  3  0  0  0  0  0  0  0  0  0  0
  -22.1854  -13.4945   19.4689 O   0  0  0  0  0  0  0  0  0  0  0  0
  -22.9528  -29.8627   21.5995 O   0  0  0  0  0  0  0  0  0  0  0  0
  -23.3473  -32.6957   24.0517 O   0  0  0  0  0  0  0  0  0  0  0  0
  -29.6752  -25.0865   20.0002 O   0  0  0  0  0  0  0  0  0  0  0  0
  -28.0674  -32.7875   23.5697 O   0  0  0  0  0  0  0  0  0  0  0  0
  -31.1234  -15.8274   18.7398 O   0  0  0  0  0  0  0  0  0  0  0  0
  -22.7546   -7.9822   24.9349 O   0  0  0  0  0  0  0  0  0  0  0  0
  -28.3678  -26.1366   22.1462 O   0  0  0  0  0  0  0  0  0  1  0  0
  -18.3398   -5.0036   23.5060 F   0  0  0  0  0  0  0  0  0  0  0  0
  -26.7907  -18.3443   19.0171 F   0  0  0  0  0  0  0  0  0  0  0  0
  -22.8528   -5.2194   24.9172 F   0  0  0  0  0  0  0  0  0  0  0  0
  1  2  1  0  0  0  0
  1  6  2  0  0  0  0
  2  7  2  0  0  0  0
  3 10  2  0  0  0  0
  3 18  1  0  0  0  0
  4 11  1  0  0  0  0
  4 18  2  0  0  0  0
  5  9  2  0  0  0  0
  5 19  1  0  0  0  0
  6 21  1  0  0  0  0
  7 23  1  0  0  0  0
  8 12  2  0  0  0  0
  8 22  1  0  0  0  0
  9 25  1  0  0  0  0
 10 26  1  0  0  0  0
 11 26  2  0  0  0  0
 12 27  1  0  0  0  0
 13 14  2  0  0  0  0
 13 28  1  0  0  0  0
 14 29  1  0  0  0  0
 15 19  2  0  0  0  0
 15 30  1  0  0  0  0
 16 24  1  0  0  0  0
 16 27  2  0  0  0  0
 17 29  2  0  0  0  0
 17 31  1  0  0  0  0
 18 32  1  0  0  0  0
 19 34  1  0  0  0  0
 20 32  1  0  0  0  0
 20 33  2  0  0  0  0
 20 35  1  0  0  0  0
 21 23  2  0  0  0  0
 21 41  1  0  0  0  0
 22 24  2  0  0  0  0
 22 42  1  0  0  0  0
 23 50  1  0  0  0  0
 24 43  1  0  0  0  0
 25 30  2  0  0  0  0
 25 68  1  0  0  0  0
 26 80  1  0  0  0  0
 27 81  1  0  0  0  0
 28 31  2  0  0  0  0
 28 80  1  0  0  0  0
 29 82  1  0  0  0  0
 30 83  1  0  0  0  0
 31 84  1  0  0  0  0
 32 62  2  0  0  0  0
 33 63  1  0  0  0  0
 33 66  1  0  0  0  0
 34 69  1  0  0  0  0
 34 72  2  0  0  0  0
 35 67  1  0  0  0  0
 35 74  2  0  0  0  0
 36 51  1  0  0  0  0
 36 70  1  0  0  0  0
 36 75  2  0  0  0  0
 37 59  1  0  0  0  0
 37 64  1  0  0  0  0
 37 76  2  0  0  0  0
 38 58  1  0  0  0  0
 38 69  1  0  0  0  0
 38 77  2  0  0  0  0
 39 60  1  0  0  0  0
 39 71  1  0  0  0  0
 39 78  2  0  0  0  0
 40 65  1  0  0  0  0
 40 68  1  0  0  0  0
 40 79  2  0  0  0  0
 41 44  1  0  0  0  0
 42 51  1  0  0  0  0
 43 64  1  0  0  0  0
 44 46  1  0  0  0  0
 45 47  1  0  0  0  0
 45 48  1  0  0  0  0
 46 50  1  0  0  0  0
 47 52  1  0  0  0  0
 48 65  1  0  0  0  0
 49 52  1  0  0  0  0
 49 65  1  0  0  0  0
 50 70  1  0  0  0  0
 51 64  1  0  0  0  0
 52 63  1  0  0  0  0
 53 60  1  0  0  0  0
 54 61  1  0  0  0  0
 55 61  1  0  0  0  0
 56 61  1  0  0  0  0
 57 73  1  0  0  0  0
 58 81  1  0  0  0  0
 59 61  1  0  0  0  0
 59 71  1  0  0  0  0
 60 73  1  0  0  0  0
 62 63  1  0  0  0  0
M  CHG  2  72   1  73   1
M  ISO  4  40 100  58 101  68 100  81 101
M  END
> <Batch ID>
0072

> <Smiles>
CNC(C)C(=O)NC(C(=O)N1Cc2cc([101O:1][101CH2:1]C(=O)NC(=N)c3ccc([100NH:0][100C:0](=O)N4CCCC(n5nc(-c6ccc(Oc7ccc(F)cc7F)cc6)c(C(N)=O)c5N)C4)c(F)c3)ccc2CC1C(=O)NC1CCCc2ccccc21)C(C)(C)C

> <Shape>
0.322

> <Color>
0.113

> <Negative vol penalty>
0.000

$$$$

  -OEChem-04042323383D

 86 95  0     1  0  0  0  0  0999 V2000
  -29.5825  -37.2000   20.0499 C   0  0  0  0  0  0  0  0  0  0  0  0
  -29.7269  -35.8584   19.7114 C   0  0  0  0  0  0  0  0  0  0  0  0
  -24.0136   -9.7064   21.9695 C   0  0  0  0  0  0  0  0  0  0  0  0
  -24.6590  -11.1479   23.7978 C   0  0  0  0  0  0  0  0  0  0  0  0
  -28.9967  -37.5519   21.2652 C   0  0  0  0  0  0  0  0  0  0  0  0
  -29.2865  -34.8678   20.5885 C   0  0  0  0  0  0  0  0  0  0  0  0
  -26.8468  -29.4515   19.0995 C   0  0  0  0  0  0  0  0  0  0  0  0
  -23.6136   -8.7293   22.8810 C   0  0  0  0  0  0  0  0  0  0  0  0
  -24.2590  -10.1708   24.7093 C   0  0  0  0  0  0  0  0  0  0  0  0
  -27.3888  -28.1697   19.0162 C   0  0  0  0  0  0  0  0  0  0  0  0
  -20.9562   -8.1297   24.8838 C   0  0  0  0  0  0  0  0  0  0  0  0
  -19.7326   -7.4980   24.6617 C   0  0  0  0  0  0  0  0  0  0  0  0
  -26.6096  -27.7016   21.2507 C   0  0  0  0  0  0  0  0  0  0  0  0
  -28.5931  -20.5951   20.0262 C   0  0  0  0  0  0  0  0  0  0  0  0
  -30.6581  -18.7986   19.4863 C   0  0  0  0  0  0  0  0  0  0  0  0
  -20.8602   -5.3667   24.5106 C   0  0  0  0  0  0  0  0  0  0  0  0
  -24.5364  -10.9157   22.4279 C   0  0  0  0  0  0  0  0  0  0  0  0
  -24.1622  -12.9604   20.9491 C   0  0  0  0  0  0  0  0  0  0  0  0
  -28.5401  -36.5654   22.1534 C   0  0  0  0  0  0  0  0  0  0  0  0
  -26.1905  -29.8724   20.2650 C   0  0  0  0  0  0  0  0  0  0  0  0
  -28.6952  -35.2069   21.8174 C   0  0  0  0  0  0  0  0  0  0  0  0
  -26.0579  -28.9883   21.3453 C   0  0  0  0  0  0  0  0  0  0  0  0
  -29.9130  -21.0437   19.9781 C   0  0  0  0  0  0  0  0  0  0  0  0
  -29.3382  -18.3501   19.5344 C   0  0  0  0  0  0  0  0  0  0  0  0
  -23.7363   -8.9615   24.2509 C   0  0  0  0  0  0  0  0  0  0  0  0
  -27.2728  -27.2955   20.0930 C   0  0  0  0  0  0  0  0  0  0  0  0
  -22.1319   -7.3799   24.9193 C   0  0  0  0  0  0  0  0  0  0  0  0
  -19.6846   -6.1165   24.4751 C   0  0  0  0  0  0  0  0  0  0  0  0
  -28.3057  -19.2483   19.8044 C   0  0  0  0  0  0  0  0  0  0  0  0
  -30.9455  -20.1455   19.7081 C   0  0  0  0  0  0  0  0  0  0  0  0
  -22.0839   -5.9984   24.7327 C   0  0  0  0  0  0  0  0  0  0  0  0
  -24.9503  -11.9252   21.4868 C   0  0  0  0  0  0  0  0  0  0  0  0
  -25.0133  -13.6411   20.1132 C   0  0  0  0  0  0  0  0  0  0  0  0
  -31.0945  -25.0427   20.1439 C   0  0  0  0  0  0  0  0  0  0  0  0
  -29.8324  -24.7964   19.7551 C   0  0  0  0  0  0  0  0  0  0  0  0
  -22.7840  -13.2784   21.1843 C   0  0  0  0  0  0  0  0  0  0  0  0
  -26.6772  -32.1687   22.4085 C   0  0  0  0  0  0  0  0  0  0  0  0
  -23.8221  -31.1546   23.5672 C   0  0  0  0  0  0  0  0  0  0  0  0
  -21.5365  -28.6351   23.8413 C   0  0  0  0  0  0  0  0  0  0  0  0
  -29.9589  -15.9604   19.0339 C   0  0  0  0  0  0  0  0  0  0  0  0
  -27.9564  -36.9937   23.4764 C   0  0  0  0  0  0  0  0  0  0  0  0
  -25.5880  -31.2491   20.3290 C   0  0  0  0  0  0  0  0  0  0  0  0
  -25.3451  -29.3847   22.6114 C   0  0  0  0  0  0  0  0  0  0  0  0
  -31.9783  -23.9898   20.7352 C   0  0  0  0  0  0  0  0  0  0  0  0
  -29.2119  -23.4205   19.8396 C   0  0  0  0  0  0  0  0  0  0  0  0
  -27.1758  -35.8890   24.1840 C   0  0  0  0  0  0  0  0  0  0  0  0
  -29.6493  -12.4602   18.4596 C   0  0  0  0  0  0  0  0  0  0  0  0
  -27.9644  -34.5834   24.1675 C   0  0  0  0  0  0  0  0  0  0  0  0
  -28.3344  -12.0941   19.1518 C   0  0  0  0  0  0  0  0  0  0  0  0
  -31.1972  -22.7645   21.2069 C   0  0  0  0  0  0  0  0  0  0  0  0
  -30.4205  -13.5270   19.2349 C   0  0  0  0  0  0  0  0  0  0  0  0
  -28.3390  -14.3722   20.2460 C   0  0  0  0  0  0  0  0  0  0  0  0
  -28.2075  -34.1038   22.7313 C   0  0  1  0  0  0  0  0  0  0  0  0
  -25.3900  -31.7489   21.7567 C   0  0  1  0  0  0  0  0  0  0  0  0
  -27.4961  -13.3481   19.4685 C   0  0  2  0  0  0  0  0  0  0  0  0
  -19.3187  -28.0920   24.8822 C   0  0  0  0  0  0  0  0  0  0  0  0
  -25.1751  -30.8497   26.2850 C   0  0  0  0  0  0  0  0  0  0  0  0
  -23.2361  -29.4440   27.0147 C   0  0  0  0  0  0  0  0  0  0  0  0
  -22.8743  -31.8261   26.3688 C   0  0  0  0  0  0  0  0  0  0  0  0
  -20.2850  -28.1548   21.2028 C   0  0  0  0  0  0  0  0  0  0  0  0
  -28.9559  -25.8769   19.1924 C   0  0  0  0  0  0  0  0  0  1  0  0
  -23.3842  -30.1192   24.5748 C   0  0  1  0  0  0  0  0  0  0  0  0
  -20.0314  -28.6147   23.6447 C   0  0  2  0  0  0  0  0  0  0  0  0
  -23.6826  -30.5527   26.0379 C   0  0  0  0  0  0  0  0  0  0  0  0
  -26.2055  -11.9427   21.0306 N   0  0  0  0  0  0  0  0  0  0  0  0
  -26.2126  -12.9971   20.1974 N   0  0  0  0  0  0  0  0  0  0  0  0
  -30.1984  -22.3928   20.2008 N   0  0  1  0  0  0  0  0  0  0  0  0
  -24.7784  -30.7434   22.6279 N   0  0  0  0  0  0  0  0  0  0  0  0
  -29.5646  -14.6865   19.4950 N   0  0  0  0  0  0  0  0  0  0  0  0
  -24.8453  -14.7216   19.3215 N   0  0  0  0  0  0  0  0  0  0  0  0
  -22.0555  -12.4760   22.0730 N   0  0  0  0  0  0  0  0  0  0  0  0
  -29.0498  -16.9808   19.3113 N   0  0  0  0  0  0  0  0  0  0  0  0
  -27.0112  -33.4922   22.1935 N   0  0  0  0  0  0  0  0  0  0  0  0
  -21.9745  -29.8576   24.3048 N   0  0  0  0  0  0  0  0  0  0  0  0
  -19.6715  -27.7422   22.4913 N   0  3  0  0  0  0  0  0  0  0  0  0
  -22.2111  -14.2354   20.6105 O   0  0  0  0  0  0  0  0  0  0  0  0
  -27.3189  -31.3526   23.0595 O   0  0  0  0  0  0  0  0  0  0  0  0
  -23.3286  -32.2843   23.6076 O   0  0  0  0  0  0  0  0  0  0  0  0
  -22.2517  -27.6625   23.6105 O   0  0  0  0  0  0  0  0  0  0  0  0
  -31.0116  -16.1286   18.4130 O   0  0  0  0  0  0  0  0  0  0  0  0
  -23.3458   -8.0083   25.1406 O   0  0  0  0  0  0  0  0  0  0  0  0
  -27.8015  -26.0440   20.0146 O   0  0  0  0  0  0  0  0  0  1  0  0
  -18.5093   -5.5099   24.2634 F   0  0  0  0  0  0  0  0  0  0  0  0
  -27.0338  -18.8272   19.8542 F   0  0  0  0  0  0  0  0  0  0  0  0
  -32.2180  -20.5648   19.6608 F   0  0  0  0  0  0  0  0  0  0  0  0
  -23.2099   -5.2726   24.7668 F   0  0  0  0  0  0  0  0  0  0  0  0
  1  2  1  0  0  0  0
  1  5  2  0  0  0  0
  2  6  2  0  0  0  0
  3  8  2  0  0  0  0
  3 17  1  0  0  0  0
  4  9  1  0  0  0  0
  4 17  2  0  0  0  0
  5 19  1  0  0  0  0
  6 21  1  0  0  0  0
  7 10  2  0  0  0  0
  7 20  1  0  0  0  0
  8 25  1  0  0  0  0
  9 25  2  0  0  0  0
 10 26  1  0  0  0  0
 11 12  2  0  0  0  0
 11 27  1  0  0  0  0
 12 28  1  0  0  0  0
 13 22  1  0  0  0  0
 13 26  2  0  0  0  0
 14 23  1  0  0  0  0
 14 29  2  0  0  0  0
 15 24  2  0  0  0  0
 15 30  1  0  0  0  0
 16 28  2  0  0  0  0
 16 31  1  0  0  0  0
 17 32  1  0  0  0  0
 18 32  1  0  0  0  0
 18 33  2  0  0  0  0
 18 36  1  0  0  0  0
 19 21  2  0  0  0  0
 19 41  1  0  0  0  0
 20 22  2  0  0  0  0
 20 42  1  0  0  0  0
 21 53  1  0  0  0  0
 22 43  1  0  0  0  0
 23 30  2  0  0  0  0
 23 67  1  0  0  0  0
 24 29  1  0  0  0  0
 24 72  1  0  0  0  0
 25 81  1  0  0  0  0
 26 82  1  0  0  0  0
 27 31  2  0  0  0  0
 27 81  1  0  0  0  0
 28 83  1  0  0  0  0
 29 84  1  0  0  0  0
 30 85  1  0  0  0  0
 31 86  1  0  0  0  0
 32 65  2  0  0  0  0
 33 66  1  0  0  0  0
 33 70  1  0  0  0  0
 34 35  2  0  0  0  0
 34 44  1  0  0  0  0
 35 45  1  0  0  0  0
 35 61  1  0  0  0  0
 36 71  1  0  0  0  0
 36 76  2  0  0  0  0
 37 54  1  0  0  0  0
 37 73  1  0  0  0  0
 37 77  2  0  0  0  0
 38 62  1  0  0  0  0
 38 68  1  0  0  0  0
 38 78  2  0  0  0  0
 39 63  1  0  0  0  0
 39 74  1  0  0  0  0
 39 79  2  0  0  0  0
 40 69  1  0  0  0  0
 40 72  1  0  0  0  0
 40 80  2  0  0  0  0
 41 46  1  0  0  0  0
 42 54  1  0  0  0  0
 43 68  1  0  0  0  0
 44 50  1  0  0  0  0
 45 67  1  0  0  0  0
 46 48  1  0  0  0  0
 47 49  1  0  0  0  0
 47 51  1  0  0  0  0
 48 53  1  0  0  0  0
 49 55  1  0  0  0  0
 50 67  1  0  0  0  0
 51 69  1  0  0  0  0
 52 55  1  0  0  0  0
 52 69  1  0  0  0  0
 53 73  1  0  0  0  0
 54 68  1  0  0  0  0
 55 66  1  0  0  0  0
 56 63  1  0  0  0  0
 57 64  1  0  0  0  0
 58 64  1  0  0  0  0
 59 64  1  0  0  0  0
 60 75  1  0  0  0  0
 61 82  1  0  0  0  0
 62 64  1  0  0  0  0
 62 74  1  0  0  0  0
 63 75  1  0  0  0  0
 65 66  1  0  0  0  0
M  CHG  1  75   1
M  ISO  4  40 100  61 101  72 100  82 101
M  END
> <Batch ID>
0072

> <Smiles>
CNC(C)C(=O)NC(C(=O)N1Cc2cc([101O:1][101CH2:1]C3=CCCN(c4cc(F)c([100NH:0][100C:0](=O)N5CCCC(n6nc(-c7ccc(Oc8ccc(F)cc8F)cc7)c(C(N)=O)c6N)C5)cc4F)C3)ccc2CC1C(=O)NC1CCCc2ccccc21)C(C)(C)C

> <Shape>
0.325

> <Color>
0.141

> <Negative vol penalty>
0.000

$$$$

  -OEChem-04042323383D

 87 96  0     1  0  0  0  0  0999 V2000
  -28.2156  -37.0370   18.7485 C   0  0  0  0  0  0  0  0  0  0  0  0
  -28.3143  -35.6992   18.3801 C   0  0  0  0  0  0  0  0  0  0  0  0
  -24.2228   -8.8427   20.5153 C   0  0  0  0  0  0  0  0  0  0  0  0
  -22.9072  -10.7383   21.2314 C   0  0  0  0  0  0  0  0  0  0  0  0
  -27.9734  -37.3765   20.0789 C   0  0  0  0  0  0  0  0  0  0  0  0
  -28.1720  -34.6999   19.3422 C   0  0  0  0  0  0  0  0  0  0  0  0
  -25.6337  -29.1803   18.5698 C   0  0  0  0  0  0  0  0  0  0  0  0
  -29.5522  -20.3848   21.1893 C   0  0  0  0  0  0  0  0  0  0  0  0
  -29.5856  -19.0032   21.3777 C   0  0  0  0  0  0  0  0  0  0  0  0
  -23.2155   -7.9802   20.9476 C   0  0  0  0  0  0  0  0  0  0  0  0
  -21.8998   -9.8758   21.6637 C   0  0  0  0  0  0  0  0  0  0  0  0
  -26.1823  -27.9198   18.3375 C   0  0  0  0  0  0  0  0  0  0  0  0
  -22.1294   -6.6892   23.8765 C   0  0  0  0  0  0  0  0  0  0  0  0
  -22.5101   -5.5644   24.6082 C   0  0  0  0  0  0  0  0  0  0  0  0
  -28.2094  -20.0815   19.2038 C   0  0  0  0  0  0  0  0  0  0  0  0
  -26.0674  -27.4412   20.6990 C   0  0  0  0  0  0  0  0  0  0  0  0
  -21.5266   -4.1368   22.9255 C   0  0  0  0  0  0  0  0  0  0  0  0
  -24.0688  -10.2218   20.6573 C   0  0  0  0  0  0  0  0  0  0  0  0
  -28.2429  -18.6998   19.3922 C   0  0  0  0  0  0  0  0  0  0  0  0
  -25.2451  -11.6901   18.9345 C   0  0  0  0  0  0  0  0  0  0  0  0
  -27.8184  -36.3807   21.0561 C   0  0  0  0  0  0  0  0  0  0  0  0
  -25.3074  -29.5855   19.8720 C   0  0  0  0  0  0  0  0  0  0  0  0
  -27.9288  -35.0264   20.6872 C   0  0  0  0  0  0  0  0  0  0  0  0
  -25.5124  -28.7063   20.9449 C   0  0  0  0  0  0  0  0  0  0  0  0
  -28.8640  -20.9240   20.1023 C   0  0  0  0  0  0  0  0  0  0  0  0
  -28.9310  -18.1607   20.4792 C   0  0  0  0  0  0  0  0  0  0  0  0
  -22.0539   -8.4968   21.5218 C   0  0  0  0  0  0  0  0  0  0  0  0
  -26.4019  -27.0511   19.4025 C   0  0  0  0  0  0  0  0  0  0  0  0
  -21.4472   -6.5378   22.6692 C   0  0  0  0  0  0  0  0  0  0  0  0
  -22.2088   -4.2882   24.1327 C   0  0  0  0  0  0  0  0  0  0  0  0
  -21.1458   -5.2616   22.1937 C   0  0  0  0  0  0  0  0  0  0  0  0
  -25.1093  -11.1132   20.2114 C   0  0  0  0  0  0  0  0  0  0  0  0
  -26.3858  -12.4503   19.0207 C   0  0  0  0  0  0  0  0  0  0  0  0
  -29.3700  -23.3165   20.6200 C   0  0  0  0  0  0  0  0  0  0  0  0
  -27.5509  -17.8469   18.4338 C   0  0  0  0  0  0  0  0  0  0  0  0
  -24.4143  -11.5513   17.7742 C   0  0  0  0  0  0  0  0  0  0  0  0
  -26.2736  -31.9174   21.8040 C   0  0  0  0  0  0  0  0  0  0  0  0
  -23.8904  -30.8034   23.7017 C   0  0  0  0  0  0  0  0  0  0  0  0
  -21.8703  -28.1996   24.5885 C   0  0  0  0  0  0  0  0  0  0  0  0
  -29.6251  -16.0835   21.7242 C   0  0  0  0  0  0  0  0  0  0  0  0
  -27.6049  -36.7975   22.4898 C   0  0  0  0  0  0  0  0  0  0  0  0
  -24.6916  -30.9383   20.1026 C   0  0  0  0  0  0  0  0  0  0  0  0
  -25.1604  -29.0857   22.3593 C   0  0  0  0  0  0  0  0  0  0  0  0
  -27.0936  -35.6695   23.3823 C   0  0  0  0  0  0  0  0  0  0  0  0
  -29.9470  -12.6506   22.6123 C   0  0  0  0  0  0  0  0  0  0  0  0
  -27.8984  -34.3954   23.1462 C   0  0  0  0  0  0  0  0  0  0  0  0
  -28.7283  -11.9921   21.9618 C   0  0  0  0  0  0  0  0  0  0  0  0
  -29.6214  -14.0448   23.1450 C   0  0  0  0  0  0  0  0  0  0  0  0
  -27.7875  -14.2956   21.5193 C   0  0  0  0  0  0  0  0  0  0  0  0
  -28.1989  -23.0968   18.8824 C   0  0  0  0  0  0  0  0  0  0  0  0
  -27.7556  -33.9132   21.6975 C   0  0  1  0  0  0  0  0  0  0  0  0
  -24.8745  -31.4424   21.5308 C   0  0  1  0  0  0  0  0  0  0  0  0
  -28.0831  -12.9154   20.9097 C   0  0  2  0  0  0  0  0  0  0  0  0
  -28.7727  -24.3454   19.6172 C   0  0  2  0  0  0  0  0  0  0  0  0
  -26.3389  -18.4126   17.7559 C   0  0  0  0  0  0  0  0  0  0  0  0
  -29.8232  -25.1199   18.8290 C   0  0  0  0  0  0  0  0  0  0  0  0
  -20.0480  -27.5799   26.1987 C   0  0  0  0  0  0  0  0  0  0  0  0
  -25.9501  -30.5748   25.9412 C   0  0  0  0  0  0  0  0  0  0  0  0
  -24.3442  -29.1013   27.1732 C   0  0  0  0  0  0  0  0  0  0  0  0
  -23.7243  -31.4619   26.6575 C   0  0  0  0  0  0  0  0  0  0  0  0
  -19.9610  -27.6482   22.3955 C   0  0  0  0  0  0  0  0  0  0  0  0
  -27.7268  -25.2555   20.2249 C   0  0  0  0  0  0  0  0  0  1  0  0
  -23.7881  -29.7606   24.7885 C   0  0  1  0  0  0  0  0  0  0  0  0
  -20.3713  -28.1191   24.8139 C   0  0  2  0  0  0  0  0  0  0  0  0
  -24.4602  -30.2179   26.1138 C   0  0  0  0  0  0  0  0  0  0  0  0
  -26.0858  -11.4757   21.0475 N   0  0  0  0  0  0  0  0  0  0  0  0
  -26.8461  -12.2885   20.2943 N   0  0  0  0  0  0  0  0  0  0  0  0
  -28.8320  -22.2864   19.9167 N   0  0  0  0  0  0  0  0  0  0  0  0
  -24.5667  -30.4215   22.5344 N   0  0  0  0  0  0  0  0  0  0  0  0
  -29.0174  -14.8645   22.0923 N   0  0  0  0  0  0  0  0  0  0  0  0
  -27.0299  -13.2345   18.1305 N   0  0  0  0  0  0  0  0  0  0  0  0
  -23.2805  -10.7317   17.8584 N   0  0  0  0  0  0  0  0  0  0  0  0
  -28.9796  -16.7603   20.6898 N   0  0  0  0  0  0  0  0  0  0  0  0
  -26.4828  -33.2509   21.5084 N   0  0  0  0  0  0  0  0  0  0  0  0
  -22.3701  -29.4421   24.9165 N   0  0  0  0  0  0  0  0  0  0  0  0
  -19.7427  -27.2234   23.8022 N   0  3  0  0  0  0  0  0  0  0  0  0
  -30.0422  -23.3651   21.6249 O   0  0  0  0  0  0  0  0  0  0  0  0
  -27.8856  -16.6980   18.1453 O   0  0  0  0  0  0  0  0  0  0  0  0
  -24.6789  -12.1238   16.6898 O   0  0  0  0  0  0  0  0  0  0  0  0
  -27.1016  -31.1325   22.2512 O   0  0  0  0  0  0  0  0  0  0  0  0
  -23.3825  -31.9134   23.8790 O   0  0  0  0  0  0  0  0  0  0  0  0
  -22.5323  -27.2535   24.1675 O   0  0  0  0  0  0  0  0  0  0  0  0
  -30.6585  -16.4833   22.2666 O   0  0  0  0  0  0  0  0  0  0  0  0
  -21.0706   -7.6555   21.9435 O   0  0  0  0  0  0  0  0  0  0  0  0
  -26.9378  -25.8205   19.1786 O   0  0  0  0  0  0  0  0  0  1  0  0
  -22.5758   -3.2081   24.8348 F   0  0  0  0  0  0  0  0  0  0  0  0
  -20.4917   -5.1098   21.0340 F   0  0  0  0  0  0  0  0  0  0  0  0
  1  2  1  0  0  0  0
  1  5  2  0  0  0  0
  2  6  2  0  0  0  0
  3 10  2  0  0  0  0
  3 18  1  0  0  0  0
  4 11  1  0  0  0  0
  4 18  2  0  0  0  0
  5 21  1  0  0  0  0
  6 23  1  0  0  0  0
  7 12  2  0  0  0  0
  7 22  1  0  0  0  0
  8  9  2  0  0  0  0
  8 25  1  0  0  0  0
  9 26  1  0  0  0  0
 10 27  1  0  0  0  0
 11 27  2  0  0  0  0
 12 28  1  0  0  0  0
 13 14  2  0  0  0  0
 13 29  1  0  0  0  0
 14 30  1  0  0  0  0
 15 19  1  0  0  0  0
 15 25  2  0  0  0  0
 16 24  1  0  0  0  0
 16 28  2  0  0  0  0
 17 30  2  0  0  0  0
 17 31  1  0  0  0  0
 18 32  1  0  0  0  0
 19 26  2  0  0  0  0
 19 35  1  0  0  0  0
 20 32  1  0  0  0  0
 20 33  2  0  0  0  0
 20 36  1  0  0  0  0
 21 23  2  0  0  0  0
 21 41  1  0  0  0  0
 22 24  2  0  0  0  0
 22 42  1  0  0  0  0
 23 51  1  0  0  0  0
 24 43  1  0  0  0  0
 25 68  1  0  0  0  0
 26 73  1  0  0  0  0
 27 84  1  0  0  0  0
 28 85  1  0  0  0  0
 29 31  2  0  0  0  0
 29 84  1  0  0  0  0
 30 86  1  0  0  0  0
 31 87  1  0  0  0  0
 32 66  2  0  0  0  0
 33 67  1  0  0  0  0
 33 71  1  0  0  0  0
 34 54  1  0  0  0  0
 34 68  1  0  0  0  0
 34 77  2  0  0  0  0
 35 55  1  0  0  0  0
 35 78  2  0  0  0  0
 36 72  1  0  0  0  0
 36 79  2  0  0  0  0
 37 52  1  0  0  0  0
 37 74  1  0  0  0  0
 37 80  2  0  0  0  0
 38 63  1  0  0  0  0
 38 69  1  0  0  0  0
 38 81  2  0  0  0  0
 39 64  1  0  0  0  0
 39 75  1  0  0  0  0
 39 82  2  0  0  0  0
 40 70  1  0  0  0  0
 40 73  1  0  0  0  0
 40 83  2  0  0  0  0
 41 44  1  0  0  0  0
 42 52  1  0  0  0  0
 43 69  1  0  0  0  0
 44 46  1  0  0  0  0
 45 47  1  0  0  0  0
 45 48  1  0  0  0  0
 46 51  1  0  0  0  0
 47 53  1  0  0  0  0
 48 70  1  0  0  0  0
 49 53  1  0  0  0  0
 49 70  1  0  0  0  0
 50 54  1  0  0  0  0
 50 68  1  0  0  0  0
 51 74  1  0  0  0  0
 52 69  1  0  0  0  0
 53 67  1  0  0  0  0
 54 56  1  0  0  0  0
 54 62  1  0  0  0  0
 57 64  1  0  0  0  0
 58 65  1  0  0  0  0
 59 65  1  0  0  0  0
 60 65  1  0  0  0  0
 61 76  1  0  0  0  0
 62 85  1  0  0  0  0
 63 65  1  0  0  0  0
 63 75  1  0  0  0  0
 64 76  1  0  0  0  0
 66 67  1  0  0  0  0
M  CHG  1  76   1
M  ISO  4  40 100  62 101  73 100  85 101
M  END
> <Batch ID>
0072

> <Smiles>
CNC(C)C(=O)NC(C(=O)N1Cc2cc([101O:1][101CH2:1]C3(C)CN(c4ccc([100NH:0][100C:0](=O)N5CCCC(n6nc(-c7ccc(Oc8ccc(F)cc8F)cc7)c(C(N)=O)c6N)C5)c(C(C)=O)c4)C3=O)ccc2CC1C(=O)NC1CCCc2ccccc21)C(C)(C)C

> <Shape>
0.325

> <Color>
0.111

> <Negative vol penalty>
0.000

$$$$

  -OEChem-04042323383D

 88 96  0     1  0  0  0  0  0999 V2000
  -29.8646  -34.0036   26.5917 C   0  0  0  0  0  0  0  0  0  0  0  0
  -29.4512  -32.8666   25.9048 C   0  0  0  0  0  0  0  0  0  0  0  0
  -24.0684   -9.8446   22.1391 C   0  0  0  0  0  0  0  0  0  0  0  0
  -24.5232  -11.3682   23.9581 C   0  0  0  0  0  0  0  0  0  0  0  0
  -30.7857  -20.4549   20.0288 C   0  0  0  0  0  0  0  0  0  0  0  0
  -28.9299  -34.9664   26.9702 C   0  0  0  0  0  0  0  0  0  0  0  0
  -28.1025  -32.6913   25.5971 C   0  0  0  0  0  0  0  0  0  0  0  0
  -27.3845  -31.1171   20.8377 C   0  0  0  0  0  0  0  0  0  0  0  0
  -30.5627  -19.0915   19.8367 C   0  0  0  0  0  0  0  0  0  0  0  0
  -23.6347   -8.8837   23.0524 C   0  0  0  0  0  0  0  0  0  0  0  0
  -24.0895  -10.4072   24.8714 C   0  0  0  0  0  0  0  0  0  0  0  0
  -27.6132  -29.7677   20.5721 C   0  0  0  0  0  0  0  0  0  0  0  0
  -20.8557   -8.2514   24.8718 C   0  0  0  0  0  0  0  0  0  0  0  0
  -19.6750   -7.5677   24.5817 C   0  0  0  0  0  0  0  0  0  0  0  0
  -28.4018  -20.8275   20.1524 C   0  0  0  0  0  0  0  0  0  0  0  0
  -25.2393  -29.3512   20.6759 C   0  0  0  0  0  0  0  0  0  0  0  0
  -20.8841   -5.4760   24.5907 C   0  0  0  0  0  0  0  0  0  0  0  0
  -24.5128  -11.0869   22.5920 C   0  0  0  0  0  0  0  0  0  0  0  0
  -29.7053  -21.3229   20.1868 C   0  0  0  0  0  0  0  0  0  0  0  0
  -24.1809  -13.0667   21.0179 C   0  0  0  0  0  0  0  0  0  0  0  0
  -27.5704  -34.8074   26.6585 C   0  0  0  0  0  0  0  0  0  0  0  0
  -26.0802  -31.5925   21.0356 C   0  0  0  0  0  0  0  0  0  0  0  0
  -27.1485  -33.6522   25.9730 C   0  0  0  0  0  0  0  0  0  0  0  0
  -24.9966  -30.7076   20.9413 C   0  0  0  0  0  0  0  0  0  0  0  0
  -29.2593  -18.5960   19.8023 C   0  0  0  0  0  0  0  0  0  0  0  0
  -23.6452   -9.1650   24.4185 C   0  0  0  0  0  0  0  0  0  0  0  0
  -26.5407  -28.8840   20.4940 C   0  0  0  0  0  0  0  0  0  0  0  0
  -22.0506   -7.5475   25.0212 C   0  0  0  0  0  0  0  0  0  0  0  0
  -19.6892   -6.1800   24.4412 C   0  0  0  0  0  0  0  0  0  0  0  0
  -28.1788  -19.4640   19.9601 C   0  0  0  0  0  0  0  0  0  0  0  0
  -22.0648   -6.1598   24.8807 C   0  0  0  0  0  0  0  0  0  0  0  0
  -24.9615  -12.0797   21.6491 C   0  0  0  0  0  0  0  0  0  0  0  0
  -25.0688  -13.7508   20.2240 C   0  0  0  0  0  0  0  0  0  0  0  0
  -29.9405  -22.7665   20.3904 C   0  0  0  0  0  0  0  0  0  0  0  0
  -22.7788  -13.3406   21.1384 C   0  0  0  0  0  0  0  0  0  0  0  0
  -24.5381  -32.9745   23.4472 C   0  0  0  0  0  0  0  0  0  0  0  0
  -28.1933  -25.6630   19.8056 C   0  0  0  0  0  0  0  0  0  0  0  0
  -22.1645  -33.2589   21.2547 C   0  0  0  0  0  0  0  0  0  0  0  0
  -20.7322  -32.1254   18.3718 C   0  0  0  0  0  0  0  0  0  0  0  0
  -29.9985  -16.2160   19.4344 C   0  0  0  0  0  0  0  0  0  0  0  0
  -26.5905  -35.8524   27.1300 C   0  0  0  0  0  0  0  0  0  0  0  0
  -25.8483  -33.0559   21.2948 C   0  0  0  0  0  0  0  0  0  0  0  0
  -23.5756  -31.1714   21.1258 C   0  0  0  0  0  0  0  0  0  0  0  0
  -25.2329  -35.7712   26.4368 C   0  0  0  0  0  0  0  0  0  0  0  0
  -29.8548  -12.6898   18.9632 C   0  0  0  0  0  0  0  0  0  0  0  0
  -24.7386  -34.3286   26.3982 C   0  0  0  0  0  0  0  0  0  0  0  0
  -28.5047  -12.2979   19.5680 C   0  0  0  0  0  0  0  0  0  0  0  0
  -30.5276  -13.8094   19.7554 C   0  0  0  0  0  0  0  0  0  0  0  0
  -28.3476  -14.6092   20.5781 C   0  0  0  0  0  0  0  0  0  0  0  0
  -25.6978  -33.4380   25.5992 C   0  0  1  0  0  0  0  0  0  0  0  0
  -24.5191  -33.3364   21.9890 C   0  0  1  0  0  0  0  0  0  0  0  0
  -27.6020  -13.5295   19.7768 C   0  0  2  0  0  0  0  0  0  0  0  0
  -18.7792  -32.5333   16.8498 C   0  0  0  0  0  0  0  0  0  0  0  0
  -29.5302  -25.3763   17.0609 C   0  0  0  0  0  0  0  0  0  0  0  0
  -31.7142  -25.0564   18.2499 C   0  0  0  0  0  0  0  0  0  0  0  0
  -20.3187  -31.8862   23.2593 C   0  0  0  0  0  0  0  0  0  0  0  0
  -18.7092  -31.4706   21.3872 C   0  0  0  0  0  0  0  0  0  0  0  0
  -19.2864  -33.8087   22.0375 C   0  0  0  0  0  0  0  0  0  0  0  0
  -22.4991  -32.7589   16.0837 C   0  0  0  0  0  0  0  0  0  0  0  0
  -28.1164  -27.1576   20.0548 C   0  0  0  0  0  0  0  0  0  1  0  0
  -29.5816  -25.0792   19.6034 C   0  0  2  0  0  0  0  0  0  0  0  0
  -20.9997  -32.4012   20.8227 C   0  0  1  0  0  0  0  0  0  0  0  0
  -20.2368  -32.8575   17.1377 C   0  0  2  0  0  0  0  0  0  0  0  0
  -30.2987  -25.6304   18.3613 C   0  0  0  0  0  0  0  0  0  0  0  0
  -19.8553  -32.3822   21.8751 C   0  0  0  0  0  0  0  0  0  0  0  0
  -26.2463  -12.1289   21.2873 N   0  0  0  0  0  0  0  0  0  0  0  0
  -26.2799  -13.1550   20.4201 N   0  0  0  0  0  0  0  0  0  0  0  0
  -23.4009  -32.6104   21.3834 N   0  0  0  0  0  0  0  0  0  0  0  0
  -29.6148  -14.9442   19.9097 N   0  0  0  0  0  0  0  0  0  0  0  0
  -24.9238  -14.7978   19.3843 N   0  0  0  0  0  0  0  0  0  0  0  0
  -22.0133  -12.5413   21.9983 N   0  0  0  0  0  0  0  0  0  0  0  0
  -29.0363  -17.2104   19.6070 N   0  0  0  0  0  0  0  0  0  0  0  0
  -29.4318  -23.6285   19.4996 N   0  0  0  0  0  0  0  0  0  0  0  0
  -25.5062  -33.6360   24.1785 N   0  0  0  0  0  0  0  0  0  0  0  0
  -20.5959  -32.8923   19.5096 N   0  0  0  0  0  0  0  0  0  0  0  0
  -30.6520  -23.1433   21.4529 N   0  3  0  0  0  0  0  0  0  0  0  0
  -21.0475  -32.4738   15.9475 N   0  3  0  0  0  0  0  0  0  0  0  0
  -22.2180  -14.2564   20.4899 O   0  0  0  0  0  0  0  0  0  0  0  0
  -23.7331  -32.1568   23.8773 O   0  0  0  0  0  0  0  0  0  0  0  0
  -27.1797  -24.9644   19.7759 O   0  0  0  0  0  0  0  0  0  0  0  0
  -21.9854  -34.4614   21.4630 O   0  0  0  0  0  0  0  0  0  0  0  0
  -21.1905  -30.9858   18.3312 O   0  0  0  0  0  0  0  0  0  0  0  0
  -31.0887  -16.4029   18.8881 O   0  0  0  0  0  0  0  0  0  0  0  0
  -23.2218   -8.2276   25.3099 O   0  0  0  0  0  0  0  0  0  0  0  0
  -26.7612  -27.5662   20.2355 O   0  0  0  0  0  0  0  0  0  1  0  0
  -18.5550   -5.5234   24.1642 F   0  0  0  0  0  0  0  0  0  0  0  0
  -26.9218  -18.9991   19.9274 F   0  0  0  0  0  0  0  0  0  0  0  0
  -23.2094   -5.4779   25.0243 F   0  0  0  0  0  0  0  0  0  0  0  0
  1  2  1  0  0  0  0
  1  6  2  0  0  0  0
  2  7  2  0  0  0  0
  3 10  2  0  0  0  0
  3 18  1  0  0  0  0
  4 11  1  0  0  0  0
  4 18  2  0  0  0  0
  5  9  2  0  0  0  0
  5 19  1  0  0  0  0
  6 21  1  0  0  0  0
  7 23  1  0  0  0  0
  8 12  2  0  0  0  0
  8 22  1  0  0  0  0
  9 25  1  0  0  0  0
 10 26  1  0  0  0  0
 11 26  2  0  0  0  0
 12 27  1  0  0  0  0
 13 14  2  0  0  0  0
 13 28  1  0  0  0  0
 14 29  1  0  0  0  0
 15 19  2  0  0  0  0
 15 30  1  0  0  0  0
 16 24  1  0  0  0  0
 16 27  2  0  0  0  0
 17 29  2  0  0  0  0
 17 31  1  0  0  0  0
 18 32  1  0  0  0  0
 19 34  1  0  0  0  0
 20 32  1  0  0  0  0
 20 33  2  0  0  0  0
 20 35  1  0  0  0  0
 21 23  2  0  0  0  0
 21 41  1  0  0  0  0
 22 24  2  0  0  0  0
 22 42  1  0  0  0  0
 23 50  1  0  0  0  0
 24 43  1  0  0  0  0
 25 30  2  0  0  0  0
 25 72  1  0  0  0  0
 26 84  1  0  0  0  0
 27 85  1  0  0  0  0
 28 31  2  0  0  0  0
 28 84  1  0  0  0  0
 29 86  1  0  0  0  0
 30 87  1  0  0  0  0
 31 88  1  0  0  0  0
 32 66  2  0  0  0  0
 33 67  1  0  0  0  0
 33 70  1  0  0  0  0
 34 73  1  0  0  0  0
 34 76  2  0  0  0  0
 35 71  1  0  0  0  0
 35 78  2  0  0  0  0
 36 51  1  0  0  0  0
 36 74  1  0  0  0  0
 36 79  2  0  0  0  0
 37 60  1  0  0  0  0
 37 61  1  0  0  0  0
 37 80  2  0  0  0  0
 38 62  1  0  0  0  0
 38 68  1  0  0  0  0
 38 81  2  0  0  0  0
 39 63  1  0  0  0  0
 39 75  1  0  0  0  0
 39 82  2  0  0  0  0
 40 69  1  0  0  0  0
 40 72  1  0  0  0  0
 40 83  2  0  0  0  0
 41 44  1  0  0  0  0
 42 51  1  0  0  0  0
 43 68  1  0  0  0  0
 44 46  1  0  0  0  0
 45 47  1  0  0  0  0
 45 48  1  0  0  0  0
 46 50  1  0  0  0  0
 47 52  1  0  0  0  0
 48 69  1  0  0  0  0
 49 52  1  0  0  0  0
 49 69  1  0  0  0  0
 50 74  1  0  0  0  0
 51 68  1  0  0  0  0
 52 67  1  0  0  0  0
 53 63  1  0  0  0  0
 54 64  1  0  0  0  0
 55 64  1  0  0  0  0
 56 65  1  0  0  0  0
 57 65  1  0  0  0  0
 58 65  1  0  0  0  0
 59 77  1  0  0  0  0
 60 85  1  0  0  0  0
 61 64  1  0  0  0  0
 61 73  1  0  0  0  0
 62 65  1  0  0  0  0
 62 75  1  0  0  0  0
 63 77  1  0  0  0  0
 66 67  1  0  0  0  0
M  CHG  2  76   1  77   1
M  ISO  4  40 100  60 101  72 100  85 101
M  END
> <Batch ID>
0072

> <Smiles>
CNC(C)C(=O)NC(C(=O)N1Cc2cc([101O:1][101CH2:1]C(=O)C(NC(=N)c3ccc([100NH:0][100C:0](=O)N4CCCC(n5nc(-c6ccc(Oc7ccc(F)cc7F)cc6)c(C(N)=O)c5N)C4)c(F)c3)C(C)C)ccc2CC1C(=O)NC1CCCc2ccccc21)C(C)(C)C

> <Shape>
0.299

> <Color>
0.116

> <Negative vol penalty>
0.000

$$$$

  -OEChem-04042323383D

 89 98  0     1  0  0  0  0  0999 V2000
  -26.1793  -35.0957   22.3298 C   0  0  0  0  0  0  0  0  0  0  0  0
  -26.5553  -33.9003   21.7257 C   0  0  0  0  0  0  0  0  0  0  0  0
  -23.3535   -9.7273   19.9758 C   0  0  0  0  0  0  0  0  0  0  0  0
  -23.9032   -9.9766   22.3152 C   0  0  0  0  0  0  0  0  0  0  0  0
  -25.2804  -35.0843   23.3956 C   0  0  0  0  0  0  0  0  0  0  0  0
  -26.0335  -32.6926   22.1877 C   0  0  0  0  0  0  0  0  0  0  0  0
  -24.6692  -27.7502   18.8385 C   0  0  0  0  0  0  0  0  0  0  0  0
  -29.6548  -20.2284   20.2904 C   0  0  0  0  0  0  0  0  0  0  0  0
  -22.7054   -8.5245   20.2563 C   0  0  0  0  0  0  0  0  0  0  0  0
  -23.2550   -8.7738   22.5957 C   0  0  0  0  0  0  0  0  0  0  0  0
  -25.3598  -26.5644   18.5920 C   0  0  0  0  0  0  0  0  0  0  0  0
  -20.0784   -7.6926   22.9970 C   0  0  0  0  0  0  0  0  0  0  0  0
  -19.2282   -7.6587   24.1022 C   0  0  0  0  0  0  0  0  0  0  0  0
  -30.5503  -19.3351   20.8784 C   0  0  0  0  0  0  0  0  0  0  0  0
  -24.1229  -25.4839   20.3589 C   0  0  0  0  0  0  0  0  0  0  0  0
  -30.1452  -19.2904   18.1186 C   0  0  0  0  0  0  0  0  0  0  0  0
  -27.0650  -21.9773   16.9255 C   0  0  0  0  0  0  0  0  0  0  0  0
  -20.5810   -5.9172   25.0894 C   0  0  0  0  0  0  0  0  0  0  0  0
  -23.9525  -10.4534   21.0053 C   0  0  0  0  0  0  0  0  0  0  0  0
  -24.0580  -12.9853   20.7116 C   0  0  0  0  0  0  0  0  0  0  0  0
  -24.7398  -33.8767   23.8646 C   0  0  0  0  0  0  0  0  0  0  0  0
  -23.7065  -27.8149   19.8560 C   0  0  0  0  0  0  0  0  0  0  0  0
  -25.1276  -32.6649   23.2616 C   0  0  0  0  0  0  0  0  0  0  0  0
  -23.4198  -26.6711   20.6146 C   0  0  0  0  0  0  0  0  0  0  0  0
  -31.0407  -18.3971   18.7066 C   0  0  0  0  0  0  0  0  0  0  0  0
  -27.3391  -22.9226   17.9446 C   0  0  0  0  0  0  0  0  0  0  0  0
  -29.4522  -20.2060   18.9105 C   0  0  0  0  0  0  0  0  0  0  0  0
  -22.6561   -8.0477   21.5662 C   0  0  0  0  0  0  0  0  0  0  0  0
  -25.0887  -25.4318   19.3541 C   0  0  0  0  0  0  0  0  0  0  0  0
  -21.1799   -6.8387   22.9379 C   0  0  0  0  0  0  0  0  0  0  0  0
  -19.4795   -6.7710   25.1484 C   0  0  0  0  0  0  0  0  0  0  0  0
  -21.4312   -5.9511   23.9841 C   0  0  0  0  0  0  0  0  0  0  0  0
  -31.2432  -18.4195   20.0865 C   0  0  0  0  0  0  0  0  0  0  0  0
  -24.6227  -11.6957   20.7162 C   0  0  0  0  0  0  0  0  0  0  0  0
  -25.1004  -13.8154   20.3791 C   0  0  0  0  0  0  0  0  0  0  0  0
  -27.8300  -20.8612   17.1832 C   0  0  0  0  0  0  0  0  0  0  0  0
  -28.2633  -22.3553   18.7939 C   0  0  0  0  0  0  0  0  0  0  0  0
  -22.7115  -13.3960   20.9838 C   0  0  0  0  0  0  0  0  0  0  0  0
  -23.3916  -29.4831   22.5433 C   0  0  0  0  0  0  0  0  0  0  0  0
  -20.4781  -28.0594   22.6265 C   0  0  0  0  0  0  0  0  0  0  0  0
  -18.5011  -25.4481   21.6678 C   0  0  0  0  0  0  0  0  0  0  0  0
  -30.2798  -15.4434   21.0036 C   0  0  0  0  0  0  0  0  0  0  0  0
  -23.8081  -33.9103   25.0501 C   0  0  0  0  0  0  0  0  0  0  0  0
  -22.9514  -29.0942   20.0916 C   0  0  0  0  0  0  0  0  0  0  0  0
  -22.3810  -26.6826   21.7052 C   0  0  0  0  0  0  0  0  0  0  0  0
  -23.0126  -32.6208   25.2365 C   0  0  0  0  0  0  0  0  0  0  0  0
  -29.7349  -12.7603   18.6548 C   0  0  0  0  0  0  0  0  0  0  0  0
  -23.9274  -31.4065   25.1115 C   0  0  0  0  0  0  0  0  0  0  0  0
  -28.3007  -12.3473   18.9893 C   0  0  0  0  0  0  0  0  0  0  0  0
  -30.5131  -13.1404   19.9119 C   0  0  0  0  0  0  0  0  0  0  0  0
  -28.4352  -13.7845   21.0722 C   0  0  0  0  0  0  0  0  0  0  0  0
  -24.5642  -31.3366   23.7183 C   0  0  1  0  0  0  0  0  0  0  0  0
  -22.3577  -29.1881   21.4938 C   0  0  1  0  0  0  0  0  0  0  0  0
  -27.5937  -13.4216   19.8359 C   0  0  2  0  0  0  0  0  0  0  0  0
  -31.7668  -17.4292   17.8307 C   0  0  0  0  0  0  0  0  0  0  0  0
  -16.1755  -24.5405   21.9233 C   0  0  0  0  0  0  0  0  0  0  0  0
  -21.1598  -27.1131   25.4460 C   0  0  0  0  0  0  0  0  0  0  0  0
  -19.2778  -25.4709   25.2747 C   0  0  0  0  0  0  0  0  0  0  0  0
  -18.8099  -27.9183   25.1554 C   0  0  0  0  0  0  0  0  0  0  0  0
  -17.9888  -25.6222   18.7581 C   0  0  0  0  0  0  0  0  0  0  0  0
  -26.7322  -24.2891   18.0700 C   0  0  0  0  0  0  0  0  0  1  0  0
  -19.9323  -26.7741   23.2001 C   0  0  1  0  0  0  0  0  0  0  0  0
  -17.1010  -25.4065   21.0828 C   0  0  2  0  0  0  0  0  0  0  0  0
  -19.8159  -26.8191   24.7499 C   0  0  0  0  0  0  0  0  0  0  0  0
  -25.9229  -11.7011   20.4106 N   0  0  0  0  0  0  0  0  0  0  0  0
  -28.5546  -21.1024   18.3211 N   0  0  0  0  0  0  0  0  0  0  0  0
  -26.1839  -13.0042   20.2109 N   0  0  0  0  0  0  0  0  0  0  0  0
  -21.6740  -27.9590   21.9015 N   0  0  0  0  0  0  0  0  0  0  0  0
  -29.7926  -14.1690   20.6711 N   0  0  0  0  0  0  0  0  0  0  0  0
  -25.1868  -15.1528   20.2170 N   0  0  0  0  0  0  0  0  0  0  0  0
  -21.7663  -12.4138   21.3097 N   0  0  0  0  0  0  0  0  0  0  0  0
  -23.6124  -30.8311   22.7523 N   0  0  0  0  0  0  0  0  0  0  0  0
  -18.6697  -26.5243   22.5131 N   0  0  0  0  0  0  0  0  0  0  0  0
  -31.6009  -15.7963   20.5596 N   0  0  0  0  0  0  0  0  0  0  0  0
  -17.1339  -24.8537   19.6992 N   0  3  0  0  0  0  0  0  0  0  0  0
  -22.3533  -14.5966   20.9231 O   0  0  0  0  0  0  0  0  0  0  0  0
  -23.9469  -28.5564   23.1218 O   0  0  0  0  0  0  0  0  0  0  0  0
  -19.8622  -29.1126   22.8087 O   0  0  0  0  0  0  0  0  0  0  0  0
  -19.3583  -24.6076   21.4044 O   0  0  0  0  0  0  0  0  0  0  0  0
  -29.6107  -16.2535   21.6463 O   0  0  0  0  0  0  0  0  0  0  0  0
  -33.6072  -17.3653   20.1150 O   0  0  0  0  0  0  0  0  0  0  0  0
  -32.3555  -17.5641   22.2915 O   0  0  0  0  0  0  0  0  0  0  0  0
  -27.9275  -19.7134   16.5231 O   0  0  0  0  0  0  0  0  0  0  0  0
  -28.8379  -22.8346   19.8914 O   0  0  0  0  0  0  0  0  0  0  0  0
  -22.0235   -6.8742   21.8403 O   0  0  0  0  0  0  0  0  0  0  0  0
  -25.7617  -24.2732   19.1161 O   0  0  0  0  0  0  0  0  0  1  0  0
  -18.6639   -6.7396   26.2105 F   0  0  0  0  0  0  0  0  0  0  0  0
  -22.4884   -5.1292   23.9335 F   0  0  0  0  0  0  0  0  0  0  0  0
  -32.3680  -17.3007   20.8654 S   0  0  0  0  0  0  0  0  0  0  0  0
  1  2  1  0  0  0  0
  1  5  2  0  0  0  0
  2  6  2  0  0  0  0
  3  9  2  0  0  0  0
  3 19  1  0  0  0  0
  4 10  1  0  0  0  0
  4 19  2  0  0  0  0
  5 21  1  0  0  0  0
  6 23  1  0  0  0  0
  7 11  2  0  0  0  0
  7 22  1  0  0  0  0
  8 14  2  0  0  0  0
  8 27  1  0  0  0  0
  9 28  1  0  0  0  0
 10 28  2  0  0  0  0
 11 29  1  0  0  0  0
 12 13  2  0  0  0  0
 12 30  1  0  0  0  0
 13 31  1  0  0  0  0
 14 33  1  0  0  0  0
 15 24  1  0  0  0  0
 15 29  2  0  0  0  0
 16 25  1  0  0  0  0
 16 27  2  0  0  0  0
 17 26  1  0  0  0  0
 17 36  2  0  0  0  0
 18 31  2  0  0  0  0
 18 32  1  0  0  0  0
 19 34  1  0  0  0  0
 20 34  1  0  0  0  0
 20 35  2  0  0  0  0
 20 38  1  0  0  0  0
 21 23  2  0  0  0  0
 21 43  1  0  0  0  0
 22 24  2  0  0  0  0
 22 44  1  0  0  0  0
 23 52  1  0  0  0  0
 24 45  1  0  0  0  0
 25 33  2  0  0  0  0
 25 55  1  0  0  0  0
 26 37  2  0  0  0  0
 26 61  1  0  0  0  0
 27 66  1  0  0  0  0
 28 85  1  0  0  0  0
 29 86  1  0  0  0  0
 30 32  2  0  0  0  0
 30 85  1  0  0  0  0
 31 87  1  0  0  0  0
 32 88  1  0  0  0  0
 33 89  1  0  0  0  0
 34 65  2  0  0  0  0
 35 67  1  0  0  0  0
 35 70  1  0  0  0  0
 36 66  1  0  0  0  0
 36 83  1  0  0  0  0
 37 66  1  0  0  0  0
 37 84  1  0  0  0  0
 38 71  1  0  0  0  0
 38 76  2  0  0  0  0
 39 53  1  0  0  0  0
 39 72  1  0  0  0  0
 39 77  2  0  0  0  0
 40 62  1  0  0  0  0
 40 68  1  0  0  0  0
 40 78  2  0  0  0  0
 41 63  1  0  0  0  0
 41 73  1  0  0  0  0
 41 79  2  0  0  0  0
 42 69  1  0  0  0  0
 42 74  1  0  0  0  0
 42 80  2  0  0  0  0
 43 46  1  0  0  0  0
 44 53  1  0  0  0  0
 45 68  1  0  0  0  0
 46 48  1  0  0  0  0
 47 49  1  0  0  0  0
 47 50  1  0  0  0  0
 48 52  1  0  0  0  0
 49 54  1  0  0  0  0
 50 69  1  0  0  0  0
 51 54  1  0  0  0  0
 51 69  1  0  0  0  0
 52 72  1  0  0  0  0
 53 68  1  0  0  0  0
 54 67  1  0  0  0  0
 56 63  1  0  0  0  0
 57 64  1  0  0  0  0
 58 64  1  0  0  0  0
 59 64  1  0  0  0  0
 60 75  1  0  0  0  0
 61 86  1  0  0  0  0
 62 64  1  0  0  0  0
 62 73  1  0  0  0  0
 63 75  1  0  0  0  0
 65 67  1  0  0  0  0
 74 89  1  0  0  0  0
 81 89  2  0  0  0  0
 82 89  2  0  0  0  0
M  CHG  1  75   1
M  ISO  4  42 100  61 101  74 100  86 101
M  END
> <Batch ID>
0072

> <Smiles>
CNC(C)C(=O)NC(C(=O)N1Cc2cc([101O:1][101CH2:1]C3CC(=O)N(c4ccc(S(=O)(=O)[100NH:0][100C:0](=O)N5CCCC(n6nc(-c7ccc(Oc8ccc(F)cc8F)cc7)c(C(N)=O)c6N)C5)c(C)c4)C3=O)ccc2CC1C(=O)NC1CCCc2ccccc21)C(C)(C)C

> <Shape>
0.349

> <Color>
0.166

> <Negative vol penalty>
0.000

$$$$

  -OEChem-04042323383D

 85 94  0     1  0  0  0  0  0999 V2000
  -31.6476  -34.8580   15.6330 C   0  0  0  0  0  0  0  0  0  0  0  0
  -31.4080  -33.4896   15.7057 C   0  0  0  0  0  0  0  0  0  0  0  0
  -24.9625   -8.3417   21.5842 C   0  0  0  0  0  0  0  0  0  0  0  0
  -23.6067   -9.5295   19.9755 C   0  0  0  0  0  0  0  0  0  0  0  0
  -31.5089  -35.6504   16.7718 C   0  0  0  0  0  0  0  0  0  0  0  0
  -31.0304  -32.9124   16.9177 C   0  0  0  0  0  0  0  0  0  0  0  0
  -27.1947  -28.2056   17.7172 C   0  0  0  0  0  0  0  0  0  0  0  0
  -23.8084   -7.9035   22.2334 C   0  0  0  0  0  0  0  0  0  0  0  0
  -22.4525   -9.0912   20.6247 C   0  0  0  0  0  0  0  0  0  0  0  0
  -27.4112  -26.8444   17.9269 C   0  0  0  0  0  0  0  0  0  0  0  0
  -21.2122   -6.1760   24.1017 C   0  0  0  0  0  0  0  0  0  0  0  0
  -21.1491   -4.8342   24.4771 C   0  0  0  0  0  0  0  0  0  0  0  0
  -27.2017  -27.1836   20.3060 C   0  0  0  0  0  0  0  0  0  0  0  0
  -25.5361  -19.1392   17.0777 C   0  0  0  0  0  0  0  0  0  0  0  0
  -25.8746  -16.7486   16.9914 C   0  0  0  0  0  0  0  0  0  0  0  0
  -27.2851  -18.1184   18.3954 C   0  0  0  0  0  0  0  0  0  0  0  0
  -21.3895   -4.1759   22.1650 C   0  0  0  0  0  0  0  0  0  0  0  0
  -24.8617   -9.1548   20.4552 C   0  0  0  0  0  0  0  0  0  0  0  0
  -26.7352   -8.9646   18.7344 C   0  0  0  0  0  0  0  0  0  0  0  0
  -31.1201  -35.0842   17.9961 C   0  0  0  0  0  0  0  0  0  0  0  0
  -26.9906  -29.0694   18.8029 C   0  0  0  0  0  0  0  0  0  0  0  0
  -30.8877  -33.6977   18.0742 C   0  0  0  0  0  0  0  0  0  0  0  0
  -26.9803  -28.5550   20.1073 C   0  0  0  0  0  0  0  0  0  0  0  0
  -25.1788  -17.8857   16.5809 C   0  0  0  0  0  0  0  0  0  0  0  0
  -26.5893  -19.2555   17.9849 C   0  0  0  0  0  0  0  0  0  0  0  0
  -26.9278  -16.8650   17.8986 C   0  0  0  0  0  0  0  0  0  0  0  0
  -22.5534   -8.2782   21.7537 C   0  0  0  0  0  0  0  0  0  0  0  0
  -27.4176  -26.3337   19.2216 C   0  0  0  0  0  0  0  0  0  0  0  0
  -21.3638   -6.5179   22.7578 C   0  0  0  0  0  0  0  0  0  0  0  0
  -21.2378   -3.8341   23.5088 C   0  0  0  0  0  0  0  0  0  0  0  0
  -21.4524   -5.5178   21.7895 C   0  0  0  0  0  0  0  0  0  0  0  0
  -26.0536   -9.6083   19.7845 C   0  0  0  0  0  0  0  0  0  0  0  0
  -27.7936   -9.7935   18.4530 C   0  0  0  0  0  0  0  0  0  0  0  0
  -27.9704  -20.8311   19.3959 C   0  0  0  0  0  0  0  0  0  0  0  0
  -26.4382   -7.7280   18.0724 C   0  0  0  0  0  0  0  0  0  0  0  0
  -28.5222  -31.5938   19.9798 C   0  0  0  0  0  0  0  0  0  0  0  0
  -25.9537  -31.7424   21.9553 C   0  0  0  0  0  0  0  0  0  0  0  0
  -23.3583  -30.1158   23.4604 C   0  0  0  0  0  0  0  0  0  0  0  0
  -28.7047  -15.6505   19.2078 C   0  0  0  0  0  0  0  0  0  0  0  0
  -31.0292  -35.9735   19.2108 C   0  0  0  0  0  0  0  0  0  0  0  0
  -26.7319  -30.5308   18.5583 C   0  0  0  0  0  0  0  0  0  0  0  0
  -26.7458  -29.4368   21.3056 C   0  0  0  0  0  0  0  0  0  0  0  0
  -30.2617  -35.3439   20.3705 C   0  0  0  0  0  0  0  0  0  0  0  0
  -30.6901  -13.0006   20.5168 C   0  0  0  0  0  0  0  0  0  0  0  0
  -30.7230  -33.9080   20.5990 C   0  0  0  0  0  0  0  0  0  0  0  0
  -29.7907  -11.7703   20.3764 C   0  0  0  0  0  0  0  0  0  0  0  0
  -29.8898  -14.2493   20.8832 C   0  0  0  0  0  0  0  0  0  0  0  0
  -27.8558  -13.3111   19.8576 C   0  0  0  0  0  0  0  0  0  0  0  0
  -26.3475  -21.7554   18.0302 C   0  0  0  0  0  0  0  0  0  0  0  0
  -30.4523  -33.0387   19.3651 C   0  0  1  0  0  0  0  0  0  0  0  0
  -27.0467  -31.4041   19.7689 C   0  0  1  0  0  0  0  0  0  0  0  0
  -28.6085  -12.0421   19.4256 C   0  0  2  0  0  0  0  0  0  0  0  0
  -26.8309  -22.7801   19.0319 C   0  0  2  0  0  0  0  0  0  0  0  0
  -24.0534  -17.7619   15.6098 C   0  0  0  0  0  0  0  0  0  0  0  0
  -21.4533  -30.4930   25.0497 C   0  0  0  0  0  0  0  0  0  0  0  0
  -27.9116  -31.7546   24.2955 C   0  0  0  0  0  0  0  0  0  0  0  0
  -26.0010  -31.1765   25.8066 C   0  0  0  0  0  0  0  0  0  0  0  0
  -25.9820  -33.3264   24.5415 C   0  0  0  0  0  0  0  0  0  0  0  0
  -21.3528  -29.3668   21.4168 C   0  0  0  0  0  0  0  0  0  0  0  0
  -27.1982  -24.1112   18.4040 C   0  0  0  0  0  0  0  0  0  1  0  0
  -25.6052  -31.1554   23.3018 C   0  0  1  0  0  0  0  0  0  0  0  0
  -21.8882  -30.4705   23.5926 C   0  0  2  0  0  0  0  0  0  0  0  0
  -26.3813  -31.8367   24.4641 C   0  0  0  0  0  0  0  0  0  0  0  0
  -26.6306  -10.7574   20.1459 N   0  0  0  0  0  0  0  0  0  0  0  0
  -27.6860  -10.8422   19.3183 N   0  0  0  0  0  0  0  0  0  0  0  0
  -26.9539  -20.5360   18.4918 N   0  0  0  0  0  0  0  0  0  0  0  0
  -26.5038  -30.8596   21.0151 N   0  0  0  0  0  0  0  0  0  0  0  0
  -28.7896  -14.4455   19.9367 N   0  0  0  0  0  0  0  0  0  0  0  0
  -28.7966   -9.7202   17.5525 N   0  0  0  0  0  0  0  0  0  0  0  0
  -25.3128   -7.0022   18.4861 N   0  0  0  0  0  0  0  0  0  0  0  0
  -27.6355  -15.7100   18.3146 N   0  0  0  0  0  0  0  0  0  0  0  0
  -29.0533  -32.6738   19.3009 N   0  0  0  0  0  0  0  0  0  0  0  0
  -24.1537  -31.2414   23.4213 N   0  0  0  0  0  0  0  0  0  0  0  0
  -21.0482  -29.4763   22.8667 N   0  3  0  0  0  0  0  0  0  0  0  0
  -28.7754  -20.0820   19.9311 O   0  0  0  0  0  0  0  0  0  0  0  0
  -27.1589   -7.2718   17.1526 O   0  0  0  0  0  0  0  0  0  0  0  0
  -29.1334  -30.8186   20.7060 O   0  0  0  0  0  0  0  0  0  0  0  0
  -25.7389  -32.9384   21.7431 O   0  0  0  0  0  0  0  0  0  0  0  0
  -23.7611  -28.9561   23.4016 O   0  0  0  0  0  0  0  0  0  0  0  0
  -29.5362  -16.5516   19.3446 O   0  0  0  0  0  0  0  0  0  0  0  0
  -27.9957  -22.1880   19.6231 O   0  0  0  0  0  0  0  0  0  0  0  0
  -21.4270   -7.8506   22.3868 O   0  0  0  0  0  0  0  0  0  0  0  0
  -27.6293  -25.0055   19.4291 O   0  0  0  0  0  0  0  0  0  1  0  0
  -21.1788   -2.5455   23.8697 F   0  0  0  0  0  0  0  0  0  0  0  0
  -21.5994   -5.8401   20.4971 F   0  0  0  0  0  0  0  0  0  0  0  0
  1  2  1  0  0  0  0
  1  5  2  0  0  0  0
  2  6  2  0  0  0  0
  3  8  2  0  0  0  0
  3 18  1  0  0  0  0
  4  9  1  0  0  0  0
  4 18  2  0  0  0  0
  5 20  1  0  0  0  0
  6 22  1  0  0  0  0
  7 10  2  0  0  0  0
  7 21  1  0  0  0  0
  8 27  1  0  0  0  0
  9 27  2  0  0  0  0
 10 28  1  0  0  0  0
 11 12  2  0  0  0  0
 11 29  1  0  0  0  0
 12 30  1  0  0  0  0
 13 23  1  0  0  0  0
 13 28  2  0  0  0  0
 14 24  2  0  0  0  0
 14 25  1  0  0  0  0
 15 24  1  0  0  0  0
 15 26  2  0  0  0  0
 16 25  2  0  0  0  0
 16 26  1  0  0  0  0
 17 30  2  0  0  0  0
 17 31  1  0  0  0  0
 18 32  1  0  0  0  0
 19 32  1  0  0  0  0
 19 33  2  0  0  0  0
 19 35  1  0  0  0  0
 20 22  2  0  0  0  0
 20 40  1  0  0  0  0
 21 23  2  0  0  0  0
 21 41  1  0  0  0  0
 22 50  1  0  0  0  0
 23 42  1  0  0  0  0
 24 54  1  0  0  0  0
 25 66  1  0  0  0  0
 26 71  1  0  0  0  0
 27 82  1  0  0  0  0
 28 83  1  0  0  0  0
 29 31  2  0  0  0  0
 29 82  1  0  0  0  0
 30 84  1  0  0  0  0
 31 85  1  0  0  0  0
 32 64  2  0  0  0  0
 33 65  1  0  0  0  0
 33 69  1  0  0  0  0
 34 66  1  0  0  0  0
 34 75  2  0  0  0  0
 34 81  1  0  0  0  0
 35 70  1  0  0  0  0
 35 76  2  0  0  0  0
 36 51  1  0  0  0  0
 36 72  1  0  0  0  0
 36 77  2  0  0  0  0
 37 61  1  0  0  0  0
 37 67  1  0  0  0  0
 37 78  2  0  0  0  0
 38 62  1  0  0  0  0
 38 73  1  0  0  0  0
 38 79  2  0  0  0  0
 39 68  1  0  0  0  0
 39 71  1  0  0  0  0
 39 80  2  0  0  0  0
 40 43  1  0  0  0  0
 41 51  1  0  0  0  0
 42 67  1  0  0  0  0
 43 45  1  0  0  0  0
 44 46  1  0  0  0  0
 44 47  1  0  0  0  0
 45 50  1  0  0  0  0
 46 52  1  0  0  0  0
 47 68  1  0  0  0  0
 48 52  1  0  0  0  0
 48 68  1  0  0  0  0
 49 53  1  0  0  0  0
 49 66  1  0  0  0  0
 50 72  1  0  0  0  0
 51 67  1  0  0  0  0
 52 65  1  0  0  0  0
 53 60  1  0  0  0  0
 53 81  1  0  0  0  0
 55 62  1  0  0  0  0
 56 63  1  0  0  0  0
 57 63  1  0  0  0  0
 58 63  1  0  0  0  0
 59 74  1  0  0  0  0
 60 83  1  0  0  0  0
 61 63  1  0  0  0  0
 61 73  1  0  0  0  0
 62 74  1  0  0  0  0
 64 65  1  0  0  0  0
M  CHG  1  74   1
M  ISO  4  39 100  60 101  71 100  83 101
M  END
> <Batch ID>
0072

> <Smiles>
CNC(C)C(=O)NC(C(=O)N1Cc2cc([101O:1][101CH2:1]C3CN(c4cc(C)cc([100NH:0][100C:0](=O)N5CCCC(n6nc(-c7ccc(Oc8ccc(F)cc8F)cc7)c(C(N)=O)c6N)C5)c4)C(=O)O3)ccc2CC1C(=O)NC1CCCc2ccccc21)C(C)(C)C

> <Shape>
0.242

> <Color>
0.101

> <Negative vol penalty>
0.000

$$$$

  -OEChem-04042323383D

 88 97  0     1  0  0  0  0  0999 V2000
  -24.1958  -36.3392   16.1455 C   0  0  0  0  0  0  0  0  0  0  0  0
  -24.7834  -35.0788   16.1043 C   0  0  0  0  0  0  0  0  0  0  0  0
  -24.5047   -8.6992   20.1569 C   0  0  0  0  0  0  0  0  0  0  0  0
  -22.9511  -10.3810   20.9281 C   0  0  0  0  0  0  0  0  0  0  0  0
  -24.1547  -37.0490   17.3448 C   0  0  0  0  0  0  0  0  0  0  0  0
  -25.3311  -34.5280   17.2623 C   0  0  0  0  0  0  0  0  0  0  0  0
  -25.3857  -28.6153   18.8570 C   0  0  0  0  0  0  0  0  0  0  0  0
  -23.7405   -7.7097   20.7752 C   0  0  0  0  0  0  0  0  0  0  0  0
  -22.1868   -9.3915   21.5464 C   0  0  0  0  0  0  0  0  0  0  0  0
  -26.3608  -27.6244   18.7517 C   0  0  0  0  0  0  0  0  0  0  0  0
  -20.8879   -6.0074   20.1444 C   0  0  0  0  0  0  0  0  0  0  0  0
  -20.6252   -4.8443   19.4207 C   0  0  0  0  0  0  0  0  0  0  0  0
  -27.0372  -28.0566   21.0265 C   0  0  0  0  0  0  0  0  0  0  0  0
  -26.6522  -21.3255   18.3397 C   0  0  0  0  0  0  0  0  0  0  0  0
  -27.8931  -19.7102   19.6387 C   0  0  0  0  0  0  0  0  0  0  0  0
  -21.7389   -3.5360   21.1193 C   0  0  0  0  0  0  0  0  0  0  0  0
  -24.1100  -10.0349   20.2334 C   0  0  0  0  0  0  0  0  0  0  0  0
  -24.7651  -11.5375   18.2787 C   0  0  0  0  0  0  0  0  0  0  0  0
  -24.6936  -36.5025   18.5202 C   0  0  0  0  0  0  0  0  0  0  0  0
  -25.2361  -29.3431   20.0463 C   0  0  0  0  0  0  0  0  0  0  0  0
  -25.2984  -35.2317   18.4782 C   0  0  0  0  0  0  0  0  0  0  0  0
  -26.0578  -29.0545   21.1453 C   0  0  0  0  0  0  0  0  0  0  0  0
  -27.5612  -21.0353   19.3570 C   0  0  0  0  0  0  0  0  0  0  0  0
  -26.0749  -20.2904   17.6040 C   0  0  0  0  0  0  0  0  0  0  0  0
  -27.3159  -18.6751   18.9031 C   0  0  0  0  0  0  0  0  0  0  0  0
  -22.5815   -8.0558   21.4700 C   0  0  0  0  0  0  0  0  0  0  0  0
  -27.1886  -27.3469   19.8356 C   0  0  0  0  0  0  0  0  0  0  0  0
  -21.5761   -5.9349   21.3556 C   0  0  0  0  0  0  0  0  0  0  0  0
  -21.0507   -3.6086   19.9082 C   0  0  0  0  0  0  0  0  0  0  0  0
  -22.0016   -4.6991   21.8430 C   0  0  0  0  0  0  0  0  0  0  0  0
  -26.4068  -18.9652   17.8857 C   0  0  0  0  0  0  0  0  0  0  0  0
  -24.8994  -11.0576   19.5953 C   0  0  0  0  0  0  0  0  0  0  0  0
  -25.7424  -12.4954   18.1611 C   0  0  0  0  0  0  0  0  0  0  0  0
  -29.0811  -21.9619   21.1636 C   0  0  0  0  0  0  0  0  0  0  0  0
  -23.8397  -11.1520   17.2537 C   0  0  0  0  0  0  0  0  0  0  0  0
  -25.5051  -32.4065   20.8505 C   0  0  0  0  0  0  0  0  0  0  0  0
  -24.3889  -31.3516   23.7077 C   0  0  0  0  0  0  0  0  0  0  0  0
  -24.0022  -28.7537   25.8868 C   0  0  0  0  0  0  0  0  0  0  0  0
  -28.5397  -16.8720   20.1671 C   0  0  0  0  0  0  0  0  0  0  0  0
  -24.6679  -37.3275   19.7826 C   0  0  0  0  0  0  0  0  0  0  0  0
  -24.1618  -30.3904   20.1527 C   0  0  0  0  0  0  0  0  0  0  0  0
  -25.9242  -29.7932   22.4510 C   0  0  0  0  0  0  0  0  0  0  0  0
  -24.9366  -36.5150   21.0467 C   0  0  0  0  0  0  0  0  0  0  0  0
  -29.6146  -13.6426   21.2126 C   0  0  0  0  0  0  0  0  0  0  0  0
  -26.1384  -35.5973   20.8460 C   0  0  0  0  0  0  0  0  0  0  0  0
  -28.4727  -12.7217   20.7767 C   0  0  0  0  0  0  0  0  0  0  0  0
  -29.0981  -14.9959   21.6979 C   0  0  0  0  0  0  0  0  0  0  0  0
  -27.7981  -23.4844   19.8888 C   0  0  0  0  0  0  0  0  0  0  0  0
  -27.0643  -14.7712   20.3260 C   0  0  0  0  0  0  0  0  0  0  0  0
  -25.8812  -34.5901   19.7186 C   0  0  1  0  0  0  0  0  0  0  0  0
  -24.4392  -31.4224   21.2416 C   0  0  1  0  0  0  0  0  0  0  0  0
  -28.9108  -24.2664   20.5760 C   0  0  2  0  0  0  0  0  0  0  0  0
  -27.5395  -13.4197   19.7679 C   0  0  2  0  0  0  0  0  0  0  0  0
  -29.3078  -23.3559   21.7553 C   0  0  0  0  0  0  0  0  0  0  0  0
  -28.4087  -23.4993   22.9913 C   0  0  0  0  0  0  0  0  0  0  0  0
  -30.7725  -23.5506   22.1508 C   0  0  0  0  0  0  0  0  0  0  0  0
  -23.0843  -28.2072   28.1575 C   0  0  0  0  0  0  0  0  0  0  0  0
  -26.8068  -32.6870   25.0039 C   0  0  0  0  0  0  0  0  0  0  0  0
  -26.3623  -31.3343   27.0633 C   0  0  0  0  0  0  0  0  0  0  0  0
  -24.6615  -32.9714   26.2573 C   0  0  0  0  0  0  0  0  0  0  0  0
  -22.0695  -26.8127   24.7661 C   0  0  0  0  0  0  0  0  0  0  0  0
  -28.4901  -25.6854   20.9317 C   0  0  0  0  0  0  0  0  0  1  0  0
  -25.0203  -30.8233   24.9731 C   0  0  1  0  0  0  0  0  0  0  0  0
  -22.7949  -28.2634   26.6656 C   0  0  2  0  0  0  0  0  0  0  0  0
  -25.7168  -31.9412   25.7993 C   0  0  0  0  0  0  0  0  0  0  0  0
  -25.8845  -11.6607   20.2660 N   0  0  0  0  0  0  0  0  0  0  0  0
  -26.3781  -12.5295   19.3673 N   0  0  0  0  0  0  0  0  0  0  0  0
  -28.1515  -22.0946   20.1110 N   0  0  0  0  0  0  0  0  0  0  0  0
  -24.8632  -30.8125   22.5035 N   0  0  0  0  0  0  0  0  0  0  0  0
  -28.2246  -15.5997   20.6893 N   0  0  0  0  0  0  0  0  0  0  0  0
  -25.1571  -20.5869   16.5746 N   0  0  0  0  0  0  0  0  0  0  0  0
  -26.1114  -13.3035   17.1446 N   0  0  0  0  0  0  0  0  0  0  0  0
  -22.9014  -10.1517   17.5425 N   0  0  0  0  0  0  0  0  0  0  0  0
  -27.6552  -17.3298   19.1910 N   0  0  0  0  0  0  0  0  0  0  0  0
  -25.0271  -33.5183   20.1835 N   0  0  0  0  0  0  0  0  0  0  0  0
  -23.9648  -30.1183   25.6924 N   0  0  0  0  0  0  0  0  0  0  0  0
  -22.4045  -26.8990   26.2108 N   0  3  0  0  0  0  0  0  0  0  0  0
  -29.6004  -20.9520   21.6189 O   0  0  0  0  0  0  0  0  0  0  0  0
  -23.8553  -11.6673   16.1102 O   0  0  0  0  0  0  0  0  0  0  0  0
  -26.6746  -32.1750   21.1344 O   0  0  0  0  0  0  0  0  0  0  0  0
  -23.5023  -32.2058   23.7852 O   0  0  0  0  0  0  0  0  0  0  0  0
  -24.8915  -28.0020   25.4937 O   0  0  0  0  0  0  0  0  0  0  0  0
  -29.5370  -17.4966   20.5374 O   0  0  0  0  0  0  0  0  0  0  0  0
  -21.8354   -7.0904   22.0732 O   0  0  0  0  0  0  0  0  0  0  0  0
  -28.1416  -26.3806   19.7352 O   0  0  0  0  0  0  0  0  0  1  0  0
  -20.7971   -2.4915   19.2139 F   0  0  0  0  0  0  0  0  0  0  0  0
  -22.6621   -4.6230   23.0065 F   0  0  0  0  0  0  0  0  0  0  0  0
  -25.8517  -17.9699   17.1774 F   0  0  0  0  0  0  0  0  0  0  0  0
  1  2  1  0  0  0  0
  1  5  2  0  0  0  0
  2  6  2  0  0  0  0
  3  8  2  0  0  0  0
  3 17  1  0  0  0  0
  4  9  1  0  0  0  0
  4 17  2  0  0  0  0
  5 19  1  0  0  0  0
  6 21  1  0  0  0  0
  7 10  2  0  0  0  0
  7 20  1  0  0  0  0
  8 26  1  0  0  0  0
  9 26  2  0  0  0  0
 10 27  1  0  0  0  0
 11 12  2  0  0  0  0
 11 28  1  0  0  0  0
 12 29  1  0  0  0  0
 13 22  1  0  0  0  0
 13 27  2  0  0  0  0
 14 23  1  0  0  0  0
 14 24  2  0  0  0  0
 15 23  2  0  0  0  0
 15 25  1  0  0  0  0
 16 29  2  0  0  0  0
 16 30  1  0  0  0  0
 17 32  1  0  0  0  0
 18 32  1  0  0  0  0
 18 33  2  0  0  0  0
 18 35  1  0  0  0  0
 19 21  2  0  0  0  0
 19 40  1  0  0  0  0
 20 22  2  0  0  0  0
 20 41  1  0  0  0  0
 21 50  1  0  0  0  0
 22 42  1  0  0  0  0
 23 68  1  0  0  0  0
 24 31  1  0  0  0  0
 24 71  1  0  0  0  0
 25 31  2  0  0  0  0
 25 74  1  0  0  0  0
 26 84  1  0  0  0  0
 27 85  1  0  0  0  0
 28 30  2  0  0  0  0
 28 84  1  0  0  0  0
 29 86  1  0  0  0  0
 30 87  1  0  0  0  0
 31 88  1  0  0  0  0
 32 66  2  0  0  0  0
 33 67  1  0  0  0  0
 33 72  1  0  0  0  0
 34 54  1  0  0  0  0
 34 68  1  0  0  0  0
 34 78  2  0  0  0  0
 35 73  1  0  0  0  0
 35 79  2  0  0  0  0
 36 51  1  0  0  0  0
 36 75  1  0  0  0  0
 36 80  2  0  0  0  0
 37 63  1  0  0  0  0
 37 69  1  0  0  0  0
 37 81  2  0  0  0  0
 38 64  1  0  0  0  0
 38 76  1  0  0  0  0
 38 82  2  0  0  0  0
 39 70  1  0  0  0  0
 39 74  1  0  0  0  0
 39 83  2  0  0  0  0
 40 43  1  0  0  0  0
 41 51  1  0  0  0  0
 42 69  1  0  0  0  0
 43 45  1  0  0  0  0
 44 46  1  0  0  0  0
 44 47  1  0  0  0  0
 45 50  1  0  0  0  0
 46 53  1  0  0  0  0
 47 70  1  0  0  0  0
 48 52  1  0  0  0  0
 48 68  1  0  0  0  0
 49 53  1  0  0  0  0
 49 70  1  0  0  0  0
 50 75  1  0  0  0  0
 51 69  1  0  0  0  0
 52 54  1  0  0  0  0
 52 62  1  0  0  0  0
 53 67  1  0  0  0  0
 54 55  1  0  0  0  0
 54 56  1  0  0  0  0
 57 64  1  0  0  0  0
 58 65  1  0  0  0  0
 59 65  1  0  0  0  0
 60 65  1  0  0  0  0
 61 77  1  0  0  0  0
 62 85  1  0  0  0  0
 63 65  1  0  0  0  0
 63 76  1  0  0  0  0
 64 77  1  0  0  0  0
 66 67  1  0  0  0  0
M  CHG  1  77   1
M  ISO  4  39 100  62 101  74 100  85 101
M  END
> <Batch ID>
0072

> <Smiles>
CNC(C)C(=O)NC(C(=O)N1Cc2cc([101O:1][101CH2:1]C3CN(c4cc(N)c(F)c([100NH:0][100C:0](=O)N5CCCC(n6nc(-c7ccc(Oc8ccc(F)cc8F)cc7)c(C(N)=O)c6N)C5)c4)C(=O)C3(C)C)ccc2CC1C(=O)NC1CCCc2ccccc21)C(C)(C)C

> <Shape>
0.259

> <Color>
0.125

> <Negative vol penalty>
0.000

$$$$

  -OEChem-04042323383D

 86 95  0     1  0  0  0  0  0999 V2000
  -41.4574  -28.9444   16.6453 C   0  0  0  0  0  0  0  0  0  0  0  0
  -41.4306  -27.6786   17.2217 C   0  0  0  0  0  0  0  0  0  0  0  0
  -23.0771   -9.8647   19.9441 C   0  0  0  0  0  0  0  0  0  0  0  0
  -23.8347   -9.8778   22.2382 C   0  0  0  0  0  0  0  0  0  0  0  0
  -40.6755  -29.9685   17.1781 C   0  0  0  0  0  0  0  0  0  0  0  0
  -40.6226  -27.4363   18.3320 C   0  0  0  0  0  0  0  0  0  0  0  0
  -36.7209  -22.2552   21.3734 C   0  0  0  0  0  0  0  0  0  0  0  0
  -32.6658  -17.4791   23.4298 C   0  0  0  0  0  0  0  0  0  0  0  0
  -32.0610  -16.6009   22.5306 C   0  0  0  0  0  0  0  0  0  0  0  0
  -22.3334   -8.7120   20.1962 C   0  0  0  0  0  0  0  0  0  0  0  0
  -23.0910   -8.7250   22.4903 C   0  0  0  0  0  0  0  0  0  0  0  0
  -36.5611  -21.6039   22.5957 C   0  0  0  0  0  0  0  0  0  0  0  0
  -19.8625   -7.9276   23.0916 C   0  0  0  0  0  0  0  0  0  0  0  0
  -19.1044   -7.8904   24.2619 C   0  0  0  0  0  0  0  0  0  0  0  0
  -35.1927  -23.4282   23.3821 C   0  0  0  0  0  0  0  0  0  0  0  0
  -30.4959  -18.3497   24.0389 C   0  0  0  0  0  0  0  0  0  0  0  0
  -20.3457   -5.9552   25.0044 C   0  0  0  0  0  0  0  0  0  0  0  0
  -23.8279  -10.4476   20.9651 C   0  0  0  0  0  0  0  0  0  0  0  0
  -24.1690  -12.9726   20.8390 C   0  0  0  0  0  0  0  0  0  0  0  0
  -39.8502  -29.7361   18.2896 C   0  0  0  0  0  0  0  0  0  0  0  0
  -36.1258  -23.5051   21.1498 C   0  0  0  0  0  0  0  0  0  0  0  0
  -39.8299  -28.4585   18.8810 C   0  0  0  0  0  0  0  0  0  0  0  0
  -35.3443  -24.0921   22.1552 C   0  0  0  0  0  0  0  0  0  0  0  0
  -29.8912  -17.4715   23.1396 C   0  0  0  0  0  0  0  0  0  0  0  0
  -31.8832  -18.3535   24.1840 C   0  0  0  0  0  0  0  0  0  0  0  0
  -30.6738  -16.5971   22.3855 C   0  0  0  0  0  0  0  0  0  0  0  0
  -22.3403   -8.1421   21.4693 C   0  0  0  0  0  0  0  0  0  0  0  0
  -35.7993  -22.1917   23.6013 C   0  0  0  0  0  0  0  0  0  0  0  0
  -20.8622   -6.9786   22.8777 C   0  0  0  0  0  0  0  0  0  0  0  0
  -19.3460   -6.9042   25.2183 C   0  0  0  0  0  0  0  0  0  0  0  0
  -21.1038   -5.9924   23.8341 C   0  0  0  0  0  0  0  0  0  0  0  0
  -24.5968  -11.6381   20.7051 C   0  0  0  0  0  0  0  0  0  0  0  0
  -25.2612  -13.7215   20.4750 C   0  0  0  0  0  0  0  0  0  0  0  0
  -33.8834  -19.3701   25.3655 C   0  0  0  0  0  0  0  0  0  0  0  0
  -22.8979  -13.4890   21.2554 C   0  0  0  0  0  0  0  0  0  0  0  0
  -37.2102  -26.4234   20.5084 C   0  0  0  0  0  0  0  0  0  0  0  0
  -34.0553  -27.0995   20.1747 C   0  0  0  0  0  0  0  0  0  0  0  0
  -30.8255  -26.3056   20.9393 C   0  0  0  0  0  0  0  0  0  0  0  0
  -30.7269  -14.7694   20.6525 C   0  0  0  0  0  0  0  0  0  0  0  0
  -39.0588  -30.8867   18.8593 C   0  0  0  0  0  0  0  0  0  0  0  0
  -36.2857  -24.1823   19.8163 C   0  0  0  0  0  0  0  0  0  0  0  0
  -34.6677  -25.4232   21.9580 C   0  0  0  0  0  0  0  0  0  0  0  0
  -37.9452  -30.4496   19.8076 C   0  0  0  0  0  0  0  0  0  0  0  0
  -29.6157  -12.3493   18.2892 C   0  0  0  0  0  0  0  0  0  0  0  0
  -38.4639  -29.4112   20.7973 C   0  0  0  0  0  0  0  0  0  0  0  0
  -28.1757  -12.0583   18.7181 C   0  0  0  0  0  0  0  0  0  0  0  0
  -32.6851  -20.6734   26.9612 C   0  0  0  0  0  0  0  0  0  0  0  0
  -30.5295  -12.5814   19.4912 C   0  0  0  0  0  0  0  0  0  0  0  0
  -31.7342  -20.2132   25.8730 C   0  0  0  0  0  0  0  0  0  0  0  0
  -28.6209  -13.3087   20.8687 C   0  0  0  0  0  0  0  0  0  0  0  0
  -38.9475  -28.1501   20.0711 C   0  0  1  0  0  0  0  0  0  0  0  0
  -36.0591  -25.6896   19.8806 C   0  0  1  0  0  0  0  0  0  0  0  0
  -27.6493  -13.1321   19.6904 C   0  0  2  0  0  0  0  0  0  0  0  0
  -34.0689  -20.5499   26.3185 C   0  0  1  0  0  0  0  0  0  0  0  0
  -28.4030  -17.4874   23.0059 C   0  0  0  0  0  0  0  0  0  0  0  0
  -35.1502  -20.2664   27.3585 C   0  0  0  0  0  0  0  0  0  0  0  0
  -28.4654  -27.0645   20.5504 C   0  0  0  0  0  0  0  0  0  0  0  0
  -34.4589  -29.3705   22.1722 C   0  0  0  0  0  0  0  0  0  0  0  0
  -31.9739  -29.4642   22.4618 C   0  0  0  0  0  0  0  0  0  0  0  0
  -32.9866  -29.9373   20.2317 C   0  0  0  0  0  0  0  0  0  0  0  0
  -30.1017  -23.7591   19.6162 C   0  0  0  0  0  0  0  0  0  0  0  0
  -34.4262  -21.7978   25.5027 C   0  0  0  0  0  0  0  0  0  1  0  0
  -32.9575  -27.5635   21.1014 C   0  0  1  0  0  0  0  0  0  0  0  0
  -29.5903  -26.1617   20.0685 C   0  0  2  0  0  0  0  0  0  0  0  0
  -33.1084  -29.0597   21.4965 C   0  0  0  0  0  0  0  0  0  0  0  0
  -25.8621  -11.5417   20.2883 N   0  0  0  0  0  0  0  0  0  0  0  0
  -26.2387  -12.8250   20.1572 N   0  0  0  0  0  0  0  0  0  0  0  0
  -32.5023  -19.2504   25.1065 N   0  0  0  0  0  0  0  0  0  0  0  0
  -34.8591  -26.0489   20.6392 N   0  0  0  0  0  0  0  0  0  0  0  0
  -29.9693  -13.6142   20.3654 N   0  0  0  0  0  0  0  0  0  0  0  0
  -25.4712  -15.0529   20.3988 N   0  0  0  0  0  0  0  0  0  0  0  0
  -21.8859  -12.5803   21.5939 N   0  0  0  0  0  0  0  0  0  0  0  0
  -30.0784  -15.6963   21.4679 N   0  0  0  0  0  0  0  0  0  0  0  0
  -37.8211  -27.3352   19.6689 N   0  0  0  0  0  0  0  0  0  0  0  0
  -31.6993  -27.2454   20.4350 N   0  0  0  0  0  0  0  0  0  0  0  0
  -29.1038  -24.7532   20.0883 N   0  3  0  0  0  0  0  0  0  0  0  0
  -34.8202  -18.7330   24.9041 O   0  0  0  0  0  0  0  0  0  0  0  0
  -22.6611  -14.7197   21.3094 O   0  0  0  0  0  0  0  0  0  0  0  0
  -37.5203  -26.1812   21.6689 O   0  0  0  0  0  0  0  0  0  0  0  0
  -34.1899  -27.6443   19.0762 O   0  0  0  0  0  0  0  0  0  0  0  0
  -30.9962  -25.6524   21.9663 O   0  0  0  0  0  0  0  0  0  0  0  0
  -31.8564  -14.9373   20.1856 O   0  0  0  0  0  0  0  0  0  0  0  0
  -21.6145   -7.0174   21.7157 O   0  0  0  0  0  0  0  0  0  0  0  0
  -35.6423  -21.5584   24.7955 O   0  0  0  0  0  0  0  0  0  1  0  0
  -18.6189   -6.8695   26.3427 F   0  0  0  0  0  0  0  0  0  0  0  0
  -22.0636   -5.0787   23.6348 F   0  0  0  0  0  0  0  0  0  0  0  0
  1  2  1  0  0  0  0
  1  5  2  0  0  0  0
  2  6  2  0  0  0  0
  3 10  2  0  0  0  0
  3 18  1  0  0  0  0
  4 11  1  0  0  0  0
  4 18  2  0  0  0  0
  5 20  1  0  0  0  0
  6 22  1  0  0  0  0
  7 12  2  0  0  0  0
  7 21  1  0  0  0  0
  8  9  2  0  0  0  0
  8 25  1  0  0  0  0
  9 26  1  0  0  0  0
 10 27  1  0  0  0  0
 11 27  2  0  0  0  0
 12 28  1  0  0  0  0
 13 14  2  0  0  0  0
 13 29  1  0  0  0  0
 14 30  1  0  0  0  0
 15 23  1  0  0  0  0
 15 28  2  0  0  0  0
 16 24  1  0  0  0  0
 16 25  2  0  0  0  0
 17 30  2  0  0  0  0
 17 31  1  0  0  0  0
 18 32  1  0  0  0  0
 19 32  1  0  0  0  0
 19 33  2  0  0  0  0
 19 35  1  0  0  0  0
 20 22  2  0  0  0  0
 20 40  1  0  0  0  0
 21 23  2  0  0  0  0
 21 41  1  0  0  0  0
 22 51  1  0  0  0  0
 23 42  1  0  0  0  0
 24 26  2  0  0  0  0
 24 55  1  0  0  0  0
 25 68  1  0  0  0  0
 26 73  1  0  0  0  0
 27 83  1  0  0  0  0
 28 84  1  0  0  0  0
 29 31  2  0  0  0  0
 29 83  1  0  0  0  0
 30 85  1  0  0  0  0
 31 86  1  0  0  0  0
 32 66  2  0  0  0  0
 33 67  1  0  0  0  0
 33 71  1  0  0  0  0
 34 54  1  0  0  0  0
 34 68  1  0  0  0  0
 34 77  2  0  0  0  0
 35 72  1  0  0  0  0
 35 78  2  0  0  0  0
 36 52  1  0  0  0  0
 36 74  1  0  0  0  0
 36 79  2  0  0  0  0
 37 63  1  0  0  0  0
 37 69  1  0  0  0  0
 37 80  2  0  0  0  0
 38 64  1  0  0  0  0
 38 75  1  0  0  0  0
 38 81  2  0  0  0  0
 39 70  1  0  0  0  0
 39 73  1  0  0  0  0
 39 82  2  0  0  0  0
 40 43  1  0  0  0  0
 41 52  1  0  0  0  0
 42 69  1  0  0  0  0
 43 45  1  0  0  0  0
 44 46  1  0  0  0  0
 44 48  1  0  0  0  0
 45 51  1  0  0  0  0
 46 53  1  0  0  0  0
 47 49  1  0  0  0  0
 47 54  1  0  0  0  0
 48 70  1  0  0  0  0
 49 68  1  0  0  0  0
 50 53  1  0  0  0  0
 50 70  1  0  0  0  0
 51 74  1  0  0  0  0
 52 69  1  0  0  0  0
 53 67  1  0  0  0  0
 54 56  1  0  0  0  0
 54 62  1  0  0  0  0
 57 64  1  0  0  0  0
 58 65  1  0  0  0  0
 59 65  1  0  0  0  0
 60 65  1  0  0  0  0
 61 76  1  0  0  0  0
 62 84  1  0  0  0  0
 63 65  1  0  0  0  0
 63 75  1  0  0  0  0
 64 76  1  0  0  0  0
 66 67  1  0  0  0  0
M  CHG  1  76   1
M  ISO  4  39 100  62 101  73 100  84 101
M  END
> <Batch ID>
0072

> <Smiles>
CNC(C)C(=O)NC(C(=O)N1Cc2cc([101O:1][101CH2:1]C3(C)CCN(c4ccc([100NH:0][100C:0](=O)N5CCCC(n6nc(-c7ccc(Oc8ccc(F)cc8F)cc7)c(C(N)=O)c6N)C5)c(C)c4)C3=O)ccc2CC1C(=O)NC1CCCc2ccccc21)C(C)(C)C

> <Shape>
0.202

> <Color>
0.192

> <Negative vol penalty>
0.000

$$$$

  -OEChem-04042323383D

 85 94  0     1  0  0  0  0  0999 V2000
  -28.5097  -37.4606   23.6808 C   0  0  0  0  0  0  0  0  0  0  0  0
  -28.9462  -36.2835   23.0814 C   0  0  0  0  0  0  0  0  0  0  0  0
  -30.8436  -20.7375   15.2371 C   0  0  0  0  0  0  0  0  0  0  0  0
  -26.1761  -15.0014   21.6605 C   0  0  0  0  0  0  0  0  0  0  0  0
  -26.9066  -14.8491   19.3626 C   0  0  0  0  0  0  0  0  0  0  0  0
  -29.5293  -20.3745   14.9436 C   0  0  0  0  0  0  0  0  0  0  0  0
  -27.4680  -37.4252   24.6069 C   0  0  0  0  0  0  0  0  0  0  0  0
  -28.3420  -35.0701   23.4086 C   0  0  0  0  0  0  0  0  0  0  0  0
  -27.3792  -30.3120   19.6750 C   0  0  0  0  0  0  0  0  0  0  0  0
  -31.0968  -21.8286   16.0684 C   0  0  0  0  0  0  0  0  0  0  0  0
  -25.9151  -13.6312   21.6683 C   0  0  0  0  0  0  0  0  0  0  0  0
  -26.6456  -13.4789   19.3704 C   0  0  0  0  0  0  0  0  0  0  0  0
  -28.0762  -29.1213   19.4742 C   0  0  0  0  0  0  0  0  0  0  0  0
  -23.4893  -11.5519   20.5655 C   0  0  0  0  0  0  0  0  0  0  0  0
  -22.2870  -11.1252   21.1294 C   0  0  0  0  0  0  0  0  0  0  0  0
  -28.7210  -22.1937   16.3126 C   0  0  0  0  0  0  0  0  0  0  0  0
  -26.5808  -27.9963   20.9964 C   0  0  0  0  0  0  0  0  0  0  0  0
  -23.5113   -9.8103   22.7447 C   0  0  0  0  0  0  0  0  0  0  0  0
  -26.6718  -15.6104   20.5076 C   0  0  0  0  0  0  0  0  0  0  0  0
  -28.4680  -21.1026   15.4813 C   0  0  0  0  0  0  0  0  0  0  0  0
  -27.8387  -17.7256   21.3274 C   0  0  0  0  0  0  0  0  0  0  0  0
  -26.8443  -36.2121   24.9384 C   0  0  0  0  0  0  0  0  0  0  0  0
  -26.2827  -30.3563   20.5480 C   0  0  0  0  0  0  0  0  0  0  0  0
  -27.2919  -35.0183   24.3410 C   0  0  0  0  0  0  0  0  0  0  0  0
  -25.8700  -29.1882   21.2047 C   0  0  0  0  0  0  0  0  0  0  0  0
  -30.0355  -22.5567   16.6062 C   0  0  0  0  0  0  0  0  0  0  0  0
  -26.1498  -12.8700   20.5233 C   0  0  0  0  0  0  0  0  0  0  0  0
  -27.6788  -27.9639   20.1371 C   0  0  0  0  0  0  0  0  0  0  0  0
  -24.7026  -11.1077   21.0911 C   0  0  0  0  0  0  0  0  0  0  0  0
  -22.2980  -10.2544   22.2190 C   0  0  0  0  0  0  0  0  0  0  0  0
  -24.7136  -10.2369   22.1807 C   0  0  0  0  0  0  0  0  0  0  0  0
  -26.9412  -17.0258   20.4988 C   0  0  0  0  0  0  0  0  0  0  0  0
  -27.7272  -19.0344   20.9261 C   0  0  0  0  0  0  0  0  0  0  0  0
  -29.3354  -24.5026   18.0733 C   0  0  0  0  0  0  0  0  0  0  0  0
  -27.0982  -20.7229   15.1745 C   0  0  0  0  0  0  0  0  0  0  0  0
  -28.6965  -17.2363   22.3668 C   0  0  0  0  0  0  0  0  0  0  0  0
  -25.9476  -21.4733   15.7279 C   0  0  0  0  0  0  0  0  0  0  0  0
  -25.6185  -31.9141   23.2379 C   0  0  0  0  0  0  0  0  0  0  0  0
  -22.6975  -30.5602   22.8420 C   0  0  0  0  0  0  0  0  0  0  0  0
  -20.8301  -28.0420   21.4935 C   0  0  0  0  0  0  0  0  0  0  0  0
  -25.7539  -36.2174   25.9804 C   0  0  0  0  0  0  0  0  0  0  0  0
  -25.5251  -31.6424   20.7332 C   0  0  0  0  0  0  0  0  0  0  0  0
  -24.6869  -29.1781   22.1366 C   0  0  0  0  0  0  0  0  0  0  0  0
  -24.9168  -34.9410   25.9925 C   0  0  0  0  0  0  0  0  0  0  0  0
  -24.6338  -22.1217   19.0005 C   0  0  0  0  0  0  0  0  0  0  0  0
  -25.8178  -33.7111   25.9422 C   0  0  0  0  0  0  0  0  0  0  0  0
  -25.1270  -20.9306   19.8214 C   0  0  0  0  0  0  0  0  0  0  0  0
  -31.4912  -25.4647   18.3752 C   0  0  0  0  0  0  0  0  0  0  0  0
  -24.3224  -21.7184   17.5629 C   0  0  0  0  0  0  0  0  0  0  0  0
  -31.6416  -24.0557   17.8376 C   0  0  0  0  0  0  0  0  0  0  0  0
  -25.9639  -19.8635   17.6798 C   0  0  0  0  0  0  0  0  0  0  0  0
  -26.6452  -33.6858   24.6514 C   0  0  1  0  0  0  0  0  0  0  0  0
  -30.0947  -25.4579   18.9798 C   0  0  1  0  0  0  0  0  0  0  0  0
  -24.7394  -31.6902   22.0401 C   0  0  1  0  0  0  0  0  0  0  0  0
  -26.3150  -20.2378   19.1303 C   0  0  2  0  0  0  0  0  0  0  0  0
  -18.4757  -27.1816   21.3751 C   0  0  0  0  0  0  0  0  0  0  0  0
  -22.9531  -29.4765   25.6828 C   0  0  0  0  0  0  0  0  0  0  0  0
  -21.0852  -27.8900   25.1712 C   0  0  0  0  0  0  0  0  0  0  0  0
  -20.6837  -30.3509   25.1002 C   0  0  0  0  0  0  0  0  0  0  0  0
  -20.7408  -28.3541   18.5518 C   0  0  0  0  0  0  0  0  0  0  0  0
  -29.4674  -26.8377   19.0471 C   0  0  0  0  0  0  0  0  0  1  0  0
  -22.0522  -29.2651   23.2725 C   0  0  1  0  0  0  0  0  0  0  0  0
  -19.5271  -28.0601   20.7149 C   0  0  2  0  0  0  0  0  0  0  0  0
  -21.7171  -29.2459   24.7907 C   0  0  0  0  0  0  0  0  0  0  0  0
  -26.3062  -17.8240   19.6364 N   0  0  0  0  0  0  0  0  0  0  0  0
  -26.7892  -19.7154   14.4034 N   0  0  0  0  0  0  0  0  0  0  0  0
  -26.8054  -19.0389   19.9209 N   0  0  0  0  0  0  0  0  0  0  0  0
  -30.2947  -23.6728   17.4570 N   0  0  0  0  0  0  0  0  0  0  0  0
  -25.4572  -21.0319   16.9489 N   0  0  0  0  0  0  0  0  0  0  0  0
  -23.9825  -30.4618   22.2897 N   0  0  0  0  0  0  0  0  0  0  0  0
  -28.3288  -20.1704   21.3386 N   0  0  0  0  0  0  0  0  0  0  0  0
  -29.9947  -16.8321   22.0267 N   0  0  0  0  0  0  0  0  0  0  0  0
  -25.8317  -33.2460   23.5382 N   0  0  0  0  0  0  0  0  0  0  0  0
  -20.8961  -29.0763   22.4030 N   0  0  0  0  0  0  0  0  0  0  0  0
  -19.7467  -27.5669   19.3259 N   0  3  0  0  0  0  0  0  0  0  0  0
  -28.1155  -24.4788   17.9975 O   0  0  0  0  0  0  0  0  0  0  0  0
  -28.3174  -17.1443   23.5590 O   0  0  0  0  0  0  0  0  0  0  0  0
  -25.5496  -22.4078   15.0447 O   0  0  0  0  0  0  0  0  0  0  0  0
  -26.0688  -30.9500   23.8457 O   0  0  0  0  0  0  0  0  0  0  0  0
  -22.0812  -31.6193   22.9837 O   0  0  0  0  0  0  0  0  0  0  0  0
  -21.7007  -27.1929   21.3155 O   0  0  0  0  0  0  0  0  0  0  0  0
  -25.8954  -11.5329   20.5307 O   0  0  0  0  0  0  0  0  0  0  0  0
  -28.3577  -26.8005   19.9434 O   0  0  0  0  0  0  0  0  0  1  0  0
  -21.1433   -9.8459   22.7614 F   0  0  0  0  0  0  0  0  0  0  0  0
  -25.8761   -9.8078   22.6908 F   0  0  0  0  0  0  0  0  0  0  0  0
  1  2  1  0  0  0  0
  1  7  2  0  0  0  0
  2  8  2  0  0  0  0
  3  6  1  0  0  0  0
  3 10  2  0  0  0  0
  4 11  2  0  0  0  0
  4 19  1  0  0  0  0
  5 12  1  0  0  0  0
  5 19  2  0  0  0  0
  6 20  2  0  0  0  0
  7 22  1  0  0  0  0
  8 24  1  0  0  0  0
  9 13  2  0  0  0  0
  9 23  1  0  0  0  0
 10 26  1  0  0  0  0
 11 27  1  0  0  0  0
 12 27  2  0  0  0  0
 13 28  1  0  0  0  0
 14 15  2  0  0  0  0
 14 29  1  0  0  0  0
 15 30  1  0  0  0  0
 16 20  1  0  0  0  0
 16 26  2  0  0  0  0
 17 25  1  0  0  0  0
 17 28  2  0  0  0  0
 18 30  2  0  0  0  0
 18 31  1  0  0  0  0
 19 32  1  0  0  0  0
 20 35  1  0  0  0  0
 21 32  1  0  0  0  0
 21 33  2  0  0  0  0
 21 36  1  0  0  0  0
 22 24  2  0  0  0  0
 22 41  1  0  0  0  0
 23 25  2  0  0  0  0
 23 42  1  0  0  0  0
 24 52  1  0  0  0  0
 25 43  1  0  0  0  0
 26 68  1  0  0  0  0
 27 82  1  0  0  0  0
 28 83  1  0  0  0  0
 29 31  2  0  0  0  0
 29 82  1  0  0  0  0
 30 84  1  0  0  0  0
 31 85  1  0  0  0  0
 32 65  2  0  0  0  0
 33 67  1  0  0  0  0
 33 71  1  0  0  0  0
 34 53  1  0  0  0  0
 34 68  1  0  0  0  0
 34 76  2  0  0  0  0
 35 37  1  0  0  0  0
 35 66  2  0  0  0  0
 36 72  1  0  0  0  0
 36 77  2  0  0  0  0
 37 69  1  0  0  0  0
 37 78  2  0  0  0  0
 38 54  1  0  0  0  0
 38 73  1  0  0  0  0
 38 79  2  0  0  0  0
 39 62  1  0  0  0  0
 39 70  1  0  0  0  0
 39 80  2  0  0  0  0
 40 63  1  0  0  0  0
 40 74  1  0  0  0  0
 40 81  2  0  0  0  0
 41 44  1  0  0  0  0
 42 54  1  0  0  0  0
 43 70  1  0  0  0  0
 44 46  1  0  0  0  0
 45 47  1  0  0  0  0
 45 49  1  0  0  0  0
 46 52  1  0  0  0  0
 47 55  1  0  0  0  0
 48 50  1  0  0  0  0
 48 53  1  0  0  0  0
 49 69  1  0  0  0  0
 50 68  1  0  0  0  0
 51 55  1  0  0  0  0
 51 69  1  0  0  0  0
 52 73  1  0  0  0  0
 53 61  1  0  0  0  0
 54 70  1  0  0  0  0
 55 67  1  0  0  0  0
 56 63  1  0  0  0  0
 57 64  1  0  0  0  0
 58 64  1  0  0  0  0
 59 64  1  0  0  0  0
 60 75  1  0  0  0  0
 61 83  1  0  0  0  0
 62 64  1  0  0  0  0
 62 74  1  0  0  0  0
 63 75  1  0  0  0  0
 65 67  1  0  0  0  0
M  CHG  1  75   1
M  ISO  4  35 100  37 100  61 101  83 101
M  END
> <Batch ID>
0072

> <Smiles>
CNC(C)C(=O)NC(C(=O)N1Cc2cc([101O:1][101CH2:1]C3CCN(c4cccc([100C:0](=N)[100C:0](=O)N5CCCC(n6nc(-c7ccc(Oc8ccc(F)cc8F)cc7)c(C(N)=O)c6N)C5)c4)C3=O)ccc2CC1C(=O)NC1CCCc2ccccc21)C(C)(C)C

> <Shape>
0.284

> <Color>
0.077

> <Negative vol penalty>
0.000

$$$$

  -OEChem-04042323383D

 86 95  0     1  0  0  0  0  0999 V2000
  -24.1024  -36.7998   23.3105 C   0  0  0  0  0  0  0  0  0  0  0  0
  -25.0004  -35.7779   23.0193 C   0  0  0  0  0  0  0  0  0  0  0  0
  -32.2446  -18.6712   19.1772 C   0  0  0  0  0  0  0  0  0  0  0  0
  -23.1219   -9.8871   21.5982 C   0  0  0  0  0  0  0  0  0  0  0  0
  -23.8361  -11.0455   23.5945 C   0  0  0  0  0  0  0  0  0  0  0  0
  -22.8360  -36.4931   23.8067 C   0  0  0  0  0  0  0  0  0  0  0  0
  -24.6328  -34.4487   23.2252 C   0  0  0  0  0  0  0  0  0  0  0  0
  -26.2941  -29.6068   19.8633 C   0  0  0  0  0  0  0  0  0  0  0  0
  -31.4358  -19.7672   19.4774 C   0  0  0  0  0  0  0  0  0  0  0  0
  -31.7710  -17.3762   19.3886 C   0  0  0  0  0  0  0  0  0  0  0  0
  -22.3898   -8.9928   22.3791 C   0  0  0  0  0  0  0  0  0  0  0  0
  -23.1039  -10.1512   24.3754 C   0  0  0  0  0  0  0  0  0  0  0  0
  -27.2831  -28.6395   20.0364 C   0  0  0  0  0  0  0  0  0  0  0  0
  -23.0036   -6.2673   24.2815 C   0  0  0  0  0  0  0  0  0  0  0  0
  -23.1037   -4.9098   23.9769 C   0  0  0  0  0  0  0  0  0  0  0  0
  -25.6556  -27.1620   21.0302 C   0  0  0  0  0  0  0  0  0  0  0  0
  -20.7245   -4.8267   23.5652 C   0  0  0  0  0  0  0  0  0  0  0  0
  -23.8451  -10.9135   22.2060 C   0  0  0  0  0  0  0  0  0  0  0  0
  -24.1532  -13.0549   20.8542 C   0  0  0  0  0  0  0  0  0  0  0  0
  -22.4494  -35.1589   24.0096 C   0  0  0  0  0  0  0  0  0  0  0  0
  -24.9785  -29.3627   20.2829 C   0  0  0  0  0  0  0  0  0  0  0  0
  -23.3606  -34.1238   23.7258 C   0  0  0  0  0  0  0  0  0  0  0  0
  -24.6512  -28.1269   20.8589 C   0  0  0  0  0  0  0  0  0  0  0  0
  -30.1535  -19.5684   19.9890 C   0  0  0  0  0  0  0  0  0  0  0  0
  -30.4887  -17.1774   19.9002 C   0  0  0  0  0  0  0  0  0  0  0  0
  -22.3808   -9.1248   23.7676 C   0  0  0  0  0  0  0  0  0  0  0  0
  -26.9646  -27.4180   20.6225 C   0  0  0  0  0  0  0  0  0  0  0  0
  -21.7639   -6.9045   24.2280 C   0  0  0  0  0  0  0  0  0  0  0  0
  -21.9642   -4.1895   23.6187 C   0  0  0  0  0  0  0  0  0  0  0  0
  -20.6244   -6.1842   23.8698 C   0  0  0  0  0  0  0  0  0  0  0  0
  -29.6799  -18.2735   20.2004 C   0  0  0  0  0  0  0  0  0  0  0  0
  -24.6021  -11.8373   21.3999 C   0  0  0  0  0  0  0  0  0  0  0  0
  -25.2415  -13.5502   20.1784 C   0  0  0  0  0  0  0  0  0  0  0  0
  -29.4069  -21.9167   19.6098 C   0  0  0  0  0  0  0  0  0  0  0  0
  -22.8674  -13.6821   20.9497 C   0  0  0  0  0  0  0  0  0  0  0  0
  -23.0170  -30.6912   22.4022 C   0  0  0  0  0  0  0  0  0  0  0  0
  -20.8682  -28.6218   21.1284 C   0  0  0  0  0  0  0  0  0  0  0  0
  -20.2980  -25.7044   19.4521 C   0  0  0  0  0  0  0  0  0  0  0  0
  -30.6876  -14.6663   19.8675 C   0  0  0  0  0  0  0  0  0  0  0  0
  -21.0868  -34.8787   24.5924 C   0  0  0  0  0  0  0  0  0  0  0  0
  -23.9175  -30.4062   20.0647 C   0  0  0  0  0  0  0  0  0  0  0  0
  -23.2495  -27.8076   21.3080 C   0  0  0  0  0  0  0  0  0  0  0  0
  -20.6410  -33.4279   24.4286 C   0  0  0  0  0  0  0  0  0  0  0  0
  -29.6549  -11.3725   18.9949 C   0  0  0  0  0  0  0  0  0  0  0  0
  -21.7676  -32.4760   24.8179 C   0  0  0  0  0  0  0  0  0  0  0  0
  -28.2114  -11.3000   19.4979 C   0  0  0  0  0  0  0  0  0  0  0  0
  -28.0199  -22.1658   21.5258 C   0  0  0  0  0  0  0  0  0  0  0  0
  -30.5427  -12.1865   19.9346 C   0  0  0  0  0  0  0  0  0  0  0  0
  -28.2677  -20.6942   21.2733 C   0  0  0  0  0  0  0  0  0  0  0  0
  -28.5986  -13.4572   20.7562 C   0  0  0  0  0  0  0  0  0  0  0  0
  -22.9900  -32.6685   23.9123 C   0  0  1  0  0  0  0  0  0  0  0  0
  -28.2885  -22.7885   20.1648 C   0  0  1  0  0  0  0  0  0  0  0  0
  -22.7212  -30.2463   20.9979 C   0  0  1  0  0  0  0  0  0  0  0  0
  -27.6519  -12.7020   19.8091 C   0  0  2  0  0  0  0  0  0  0  0  0
  -18.4363  -24.2592   18.5901 C   0  0  0  0  0  0  0  0  0  0  0  0
  -20.3198  -27.6406   23.9650 C   0  0  0  0  0  0  0  0  0  0  0  0
  -19.2157  -25.6217   22.9785 C   0  0  0  0  0  0  0  0  0  0  0  0
  -18.2828  -27.8925   22.5361 C   0  0  0  0  0  0  0  0  0  0  0  0
  -21.2204  -25.9844   16.6539 C   0  0  0  0  0  0  0  0  0  0  0  0
  -28.6640  -24.2563   20.2450 C   0  0  0  0  0  0  0  0  0  0  0  0
  -27.5125  -25.1077   20.7575 C   0  0  0  0  0  0  0  0  0  1  0  0
  -20.4458  -27.2029   21.4236 C   0  0  1  0  0  0  0  0  0  0  0  0
  -19.4089  -25.3822   18.2646 C   0  0  2  0  0  0  0  0  0  0  0  0
  -19.5929  -27.0959   22.7192 C   0  0  0  0  0  0  0  0  0  0  0  0
  -25.8762  -11.5751   21.0969 N   0  0  0  0  0  0  0  0  0  0  0  0
  -26.2372  -12.6348   20.3533 N   0  0  0  0  0  0  0  0  0  0  0  0
  -29.3386  -20.6789   20.2913 N   0  0  0  0  0  0  0  0  0  0  0  0
  -22.2486  -28.8627   21.0789 N   0  0  0  0  0  0  0  0  0  0  0  0
  -29.9518  -13.5038   20.1804 N   0  0  0  0  0  0  0  0  0  0  0  0
  -25.4342  -14.6752   19.4576 N   0  0  0  0  0  0  0  0  0  0  0  0
  -21.8621  -13.0369   21.6828 N   0  0  0  0  0  0  0  0  0  0  0  0
  -30.0111  -15.8606   20.1136 N   0  0  0  0  0  0  0  0  0  0  0  0
  -22.7746  -32.0323   22.6304 N   0  0  0  0  0  0  0  0  0  0  0  0
  -19.7723  -26.7194   20.2232 N   0  0  0  0  0  0  0  0  0  0  0  0
  -20.2353  -24.9644   17.0969 N   0  3  0  0  0  0  0  0  0  0  0  0
  -30.1375  -22.2784   18.6987 O   0  0  0  0  0  0  0  0  0  0  0  0
  -22.6125  -14.7741   20.3875 O   0  0  0  0  0  0  0  0  0  0  0  0
  -23.4330  -29.8776   23.2188 O   0  0  0  0  0  0  0  0  0  0  0  0
  -20.0053  -29.4832   20.9413 O   0  0  0  0  0  0  0  0  0  0  0  0
  -21.3515  -25.1122   19.6755 O   0  0  0  0  0  0  0  0  0  0  0  0
  -31.8232  -14.6064   19.3892 O   0  0  0  0  0  0  0  0  0  0  0  0
  -21.6663   -8.2525   24.5299 O   0  0  0  0  0  0  0  0  0  0  0  0
  -27.9282  -26.4724   20.7933 O   0  0  0  0  0  0  0  0  0  1  0  0
  -22.0607   -2.8863   23.3248 F   0  0  0  0  0  0  0  0  0  0  0  0
  -19.4309   -6.7912   23.8155 F   0  0  0  0  0  0  0  0  0  0  0  0
  -28.4465  -18.0825   20.6935 F   0  0  0  0  0  0  0  0  0  0  0  0
  1  2  1  0  0  0  0
  1  6  2  0  0  0  0
  2  7  2  0  0  0  0
  3  9  2  0  0  0  0
  3 10  1  0  0  0  0
  4 11  2  0  0  0  0
  4 18  1  0  0  0  0
  5 12  1  0  0  0  0
  5 18  2  0  0  0  0
  6 20  1  0  0  0  0
  7 22  1  0  0  0  0
  8 13  2  0  0  0  0
  8 21  1  0  0  0  0
  9 24  1  0  0  0  0
 10 25  2  0  0  0  0
 11 26  1  0  0  0  0
 12 26  2  0  0  0  0
 13 27  1  0  0  0  0
 14 15  2  0  0  0  0
 14 28  1  0  0  0  0
 15 29  1  0  0  0  0
 16 23  1  0  0  0  0
 16 27  2  0  0  0  0
 17 29  2  0  0  0  0
 17 30  1  0  0  0  0
 18 32  1  0  0  0  0
 19 32  1  0  0  0  0
 19 33  2  0  0  0  0
 19 35  1  0  0  0  0
 20 22  2  0  0  0  0
 20 40  1  0  0  0  0
 21 23  2  0  0  0  0
 21 41  1  0  0  0  0
 22 51  1  0  0  0  0
 23 42  1  0  0  0  0
 24 31  2  0  0  0  0
 24 67  1  0  0  0  0
 25 31  1  0  0  0  0
 25 72  1  0  0  0  0
 26 82  1  0  0  0  0
 27 83  1  0  0  0  0
 28 30  2  0  0  0  0
 28 82  1  0  0  0  0
 29 84  1  0  0  0  0
 30 85  1  0  0  0  0
 31 86  1  0  0  0  0
 32 65  2  0  0  0  0
 33 66  1  0  0  0  0
 33 70  1  0  0  0  0
 34 52  1  0  0  0  0
 34 67  1  0  0  0  0
 34 76  2  0  0  0  0
 35 71  1  0  0  0  0
 35 77  2  0  0  0  0
 36 53  1  0  0  0  0
 36 73  1  0  0  0  0
 36 78  2  0  0  0  0
 37 62  1  0  0  0  0
 37 68  1  0  0  0  0
 37 79  2  0  0  0  0
 38 63  1  0  0  0  0
 38 74  1  0  0  0  0
 38 80  2  0  0  0  0
 39 69  1  0  0  0  0
 39 72  1  0  0  0  0
 39 81  2  0  0  0  0
 40 43  1  0  0  0  0
 41 53  1  0  0  0  0
 42 68  1  0  0  0  0
 43 45  1  0  0  0  0
 44 46  1  0  0  0  0
 44 48  1  0  0  0  0
 45 51  1  0  0  0  0
 46 54  1  0  0  0  0
 47 49  1  0  0  0  0
 47 52  1  0  0  0  0
 48 69  1  0  0  0  0
 49 67  1  0  0  0  0
 50 54  1  0  0  0  0
 50 69  1  0  0  0  0
 51 73  1  0  0  0  0
 52 60  1  0  0  0  0
 53 68  1  0  0  0  0
 54 66  1  0  0  0  0
 55 63  1  0  0  0  0
 56 64  1  0  0  0  0
 57 64  1  0  0  0  0
 58 64  1  0  0  0  0
 59 75  1  0  0  0  0
 60 61  1  0  0  0  0
 61 83  1  0  0  0  0
 62 64  1  0  0  0  0
 62 74  1  0  0  0  0
 63 75  1  0  0  0  0
 65 66  1  0  0  0  0
M  CHG  1  75   1
M  ISO  4  39 100  61 101  72 100  83 101
M  END
> <Batch ID>
0072

> <Smiles>
CNC(C)C(=O)NC(C(=O)N1Cc2cc([101O:1][101CH2:1]CC3CCN(c4cccc([100NH:0][100C:0](=O)N5CCCC(n6nc(-c7ccc(Oc8ccc(F)cc8F)cc7)c(C(N)=O)c6N)C5)c4F)C3=O)ccc2CC1C(=O)NC1CCCc2ccccc21)C(C)(C)C

> <Shape>
0.354

> <Color>
0.170

> <Negative vol penalty>
0.000

$$$$

  -OEChem-04042323383D

 89 98  0     1  0  0  0  0  0999 V2000
  -20.8753  -28.9316   16.0148 C   0  0  0  0  0  0  0  0  0  0  0  0
  -22.1352  -28.4503   16.3557 C   0  0  0  0  0  0  0  0  0  0  0  0
  -23.0902   -9.8204   19.9737 C   0  0  0  0  0  0  0  0  0  0  0  0
  -23.8150   -9.9064   22.2768 C   0  0  0  0  0  0  0  0  0  0  0  0
  -20.3085  -29.9760   16.7441 C   0  0  0  0  0  0  0  0  0  0  0  0
  -22.8297  -29.0139   17.4255 C   0  0  0  0  0  0  0  0  0  0  0  0
  -24.9335  -25.5233   20.4312 C   0  0  0  0  0  0  0  0  0  0  0  0
  -31.3017  -19.0739   20.4504 C   0  0  0  0  0  0  0  0  0  0  0  0
  -31.1352  -17.6896   20.4892 C   0  0  0  0  0  0  0  0  0  0  0  0
  -22.3456   -8.6740   20.2508 C   0  0  0  0  0  0  0  0  0  0  0  0
  -23.0702   -8.7600   22.5540 C   0  0  0  0  0  0  0  0  0  0  0  0
  -26.1140  -24.9290   19.9874 C   0  0  0  0  0  0  0  0  0  0  0  0
  -19.8353   -7.9730   23.1338 C   0  0  0  0  0  0  0  0  0  0  0  0
  -19.0606   -7.9700   24.2937 C   0  0  0  0  0  0  0  0  0  0  0  0
  -27.3841  -26.3949   21.4217 C   0  0  0  0  0  0  0  0  0  0  0  0
  -20.2955   -6.0620   25.1134 C   0  0  0  0  0  0  0  0  0  0  0  0
  -23.8250  -10.4366   20.9867 C   0  0  0  0  0  0  0  0  0  0  0  0
  -24.1623  -12.9573   20.7874 C   0  0  0  0  0  0  0  0  0  0  0  0
  -20.9922  -30.5463   17.8294 C   0  0  0  0  0  0  0  0  0  0  0  0
  -24.9702  -26.5670   21.3670 C   0  0  0  0  0  0  0  0  0  0  0  0
  -22.2721  -30.0679   18.1692 C   0  0  0  0  0  0  0  0  0  0  0  0
  -26.2025  -26.9991   21.8776 C   0  0  0  0  0  0  0  0  0  0  0  0
  -30.5561  -19.8901   21.3010 C   0  0  0  0  0  0  0  0  0  0  0  0
  -30.2230  -17.1215   21.3785 C   0  0  0  0  0  0  0  0  0  0  0  0
  -29.6439  -19.3221   22.1903 C   0  0  0  0  0  0  0  0  0  0  0  0
  -22.3355   -8.1438   21.5409 C   0  0  0  0  0  0  0  0  0  0  0  0
  -27.3397  -25.3667   20.4805 C   0  0  0  0  0  0  0  0  0  0  0  0
  -20.8400   -7.0205   22.9636 C   0  0  0  0  0  0  0  0  0  0  0  0
  -19.2907   -7.0145   25.2836 C   0  0  0  0  0  0  0  0  0  0  0  0
  -21.0701   -6.0651   23.9534 C   0  0  0  0  0  0  0  0  0  0  0  0
  -29.4773  -17.9377   22.2291 C   0  0  0  0  0  0  0  0  0  0  0  0
  -24.5949  -11.6205   20.7009 C   0  0  0  0  0  0  0  0  0  0  0  0
  -25.2580  -13.6975   20.4158 C   0  0  0  0  0  0  0  0  0  0  0  0
  -22.8843  -13.4830   21.1694 C   0  0  0  0  0  0  0  0  0  0  0  0
  -24.0827  -29.6193   21.3587 C   0  0  0  0  0  0  0  0  0  0  0  0
  -24.8895  -29.4580   24.4965 C   0  0  0  0  0  0  0  0  0  0  0  0
  -27.6043  -19.8748   23.5601 C   0  0  0  0  0  0  0  0  0  0  0  0
  -26.7056  -27.9253   26.9459 C   0  0  0  0  0  0  0  0  0  0  0  0
  -30.7182  -14.7649   20.6384 C   0  0  0  0  0  0  0  0  0  0  0  0
  -20.3591  -31.7050   18.5583 C   0  0  0  0  0  0  0  0  0  0  0  0
  -23.6862  -27.1796   21.8556 C   0  0  0  0  0  0  0  0  0  0  0  0
  -26.2949  -28.1024   22.8987 C   0  0  0  0  0  0  0  0  0  0  0  0
  -21.0008  -31.9967   19.9124 C   0  0  0  0  0  0  0  0  0  0  0  0
  -29.6462  -12.2699   18.3357 C   0  0  0  0  0  0  0  0  0  0  0  0
  -22.5214  -32.0045   19.7918 C   0  0  0  0  0  0  0  0  0  0  0  0
  -28.2009  -11.9885   18.7528 C   0  0  0  0  0  0  0  0  0  0  0  0
  -31.6370  -23.4007   21.6123 C   0  0  0  0  0  0  0  0  0  0  0  0
  -30.5423  -12.5415   19.5427 C   0  0  0  0  0  0  0  0  0  0  0  0
  -32.0098  -21.9237   21.5040 C   0  0  0  0  0  0  0  0  0  0  0  0
  -29.6762  -22.2106   20.9301 C   0  0  0  0  0  0  0  0  0  0  0  0
  -28.6126  -13.3060   20.8698 C   0  0  0  0  0  0  0  0  0  0  0  0
  -23.0460  -30.6367   19.3386 C   0  0  1  0  0  0  0  0  0  0  0  0
  -23.8724  -28.5823   22.4257 C   0  0  1  0  0  0  0  0  0  0  0  0
  -30.4288  -23.5240   20.6886 C   0  0  1  0  0  0  0  0  0  0  0  0
  -27.6583  -13.0905   19.6838 C   0  0  2  0  0  0  0  0  0  0  0  0
  -25.7454  -20.7943   25.0109 C   0  0  0  0  0  0  0  0  0  0  0  0
  -27.1865  -28.0406   29.4061 C   0  0  0  0  0  0  0  0  0  0  0  0
  -26.6913  -31.8756   24.0285 C   0  0  0  0  0  0  0  0  0  0  0  0
  -27.8307  -31.3585   26.1971 C   0  0  0  0  0  0  0  0  0  0  0  0
  -25.4035  -31.9335   26.1716 C   0  0  0  0  0  0  0  0  0  0  0  0
  -25.6385  -25.2024   27.4000 C   0  0  0  0  0  0  0  0  0  0  0  0
  -27.1460  -21.0083   24.4657 C   0  0  0  0  0  0  0  0  0  0  0  0
  -29.5870  -24.7574   20.9649 C   0  0  0  0  0  0  0  0  0  1  0  0
  -26.1544  -29.6867   25.2882 C   0  0  1  0  0  0  0  0  0  0  0  0
  -26.3153  -27.4221   28.3239 C   0  0  2  0  0  0  0  0  0  0  0  0
  -26.5187  -31.1941   25.4007 C   0  0  0  0  0  0  0  0  0  0  0  0
  -25.8663  -11.5145   20.3053 N   0  0  0  0  0  0  0  0  0  0  0  0
  -26.2419  -12.7942   20.1398 N   0  0  0  0  0  0  0  0  0  0  0  0
  -30.7366  -21.2559   21.2458 N   0  0  3  0  0  0  0  0  0  0  0  0
  -25.0121  -28.6740   23.3406 N   0  0  0  0  0  0  0  0  0  0  0  0
  -29.9674  -13.5994   20.3765 N   0  0  0  0  0  0  0  0  0  0  0  0
  -25.4661  -15.0264   20.3015 N   0  0  0  0  0  0  0  0  0  0  0  0
  -21.8696  -12.5826   21.5215 N   0  0  0  0  0  0  0  0  0  0  0  0
  -28.8874  -20.1228   23.0512 N   0  0  0  0  0  0  0  0  0  0  0  0
  -30.0561  -15.7149   21.4154 N   0  0  0  0  0  0  0  0  0  0  0  0
  -23.0491  -29.7045   20.4456 N   0  0  0  0  0  0  0  0  0  0  0  0
  -25.9582  -29.0220   26.5720 N   0  0  0  0  0  0  0  0  0  0  0  0
  -26.4592  -25.9405   28.3943 N   0  3  0  0  0  0  0  0  0  0  0  0
  -22.6441  -14.7141   21.1819 O   0  0  0  0  0  0  0  0  0  0  0  0
  -25.1061  -30.2932   21.3645 O   0  0  0  0  0  0  0  0  0  0  0  0
  -23.8305  -29.9507   24.8930 O   0  0  0  0  0  0  0  0  0  0  0  0
  -26.9014  -18.8942   23.3390 O   0  0  0  0  0  0  0  0  0  0  0  0
  -27.5880  -27.4004   26.2704 O   0  0  0  0  0  0  0  0  0  0  0  0
  -31.8539  -14.9213   20.1826 O   0  0  0  0  0  0  0  0  0  0  0  0
  -21.6087   -7.0253   21.8118 O   0  0  0  0  0  0  0  0  0  0  0  0
  -28.4935  -24.7888   20.0485 O   0  0  0  0  0  0  0  0  0  1  0  0
  -18.5478   -7.0127   26.3981 F   0  0  0  0  0  0  0  0  0  0  0  0
  -22.0347   -5.1482   23.7961 F   0  0  0  0  0  0  0  0  0  0  0  0
  -28.6004  -17.3900   23.0843 F   0  0  0  0  0  0  0  0  0  0  0  0
  1  2  1  0  0  0  0
  1  5  2  0  0  0  0
  2  6  2  0  0  0  0
  3 10  2  0  0  0  0
  3 17  1  0  0  0  0
  4 11  1  0  0  0  0
  4 17  2  0  0  0  0
  5 19  1  0  0  0  0
  6 21  1  0  0  0  0
  7 12  2  0  0  0  0
  7 20  1  0  0  0  0
  8  9  1  0  0  0  0
  8 23  2  0  0  0  0
  9 24  2  0  0  0  0
 10 26  1  0  0  0  0
 11 26  2  0  0  0  0
 12 27  1  0  0  0  0
 13 14  2  0  0  0  0
 13 28  1  0  0  0  0
 14 29  1  0  0  0  0
 15 22  1  0  0  0  0
 15 27  2  0  0  0  0
 16 29  2  0  0  0  0
 16 30  1  0  0  0  0
 17 32  1  0  0  0  0
 18 32  1  0  0  0  0
 18 33  2  0  0  0  0
 18 34  1  0  0  0  0
 19 21  2  0  0  0  0
 19 40  1  0  0  0  0
 20 22  2  0  0  0  0
 20 41  1  0  0  0  0
 21 52  1  0  0  0  0
 22 42  1  0  0  0  0
 23 25  1  0  0  0  0
 23 69  1  0  0  0  0
 24 31  1  0  0  0  0
 24 75  1  0  0  0  0
 25 31  2  0  0  0  0
 25 74  1  0  0  0  0
 26 85  1  0  0  0  0
 27 86  1  0  0  0  0
 28 30  2  0  0  0  0
 28 85  1  0  0  0  0
 29 87  1  0  0  0  0
 30 88  1  0  0  0  0
 31 89  1  0  0  0  0
 32 67  2  0  0  0  0
 33 68  1  0  0  0  0
 33 72  1  0  0  0  0
 34 73  1  0  0  0  0
 34 79  2  0  0  0  0
 35 53  1  0  0  0  0
 35 76  1  0  0  0  0
 35 80  2  0  0  0  0
 36 64  1  0  0  0  0
 36 70  1  0  0  0  0
 36 81  2  0  0  0  0
 37 62  1  0  0  0  0
 37 74  1  0  0  0  0
 37 82  2  0  0  0  0
 38 65  1  0  0  0  0
 38 77  1  0  0  0  0
 38 83  2  0  0  0  0
 39 71  1  0  0  0  0
 39 75  1  0  0  0  0
 39 84  2  0  0  0  0
 40 43  1  0  0  0  0
 41 53  1  0  0  0  0
 42 70  1  0  0  0  0
 43 45  1  0  0  0  0
 44 46  1  0  0  0  0
 44 48  1  0  0  0  0
 45 52  1  0  0  0  0
 46 55  1  0  0  0  0
 47 49  1  0  0  0  0
 47 54  1  0  0  0  0
 48 71  1  0  0  0  0
 49 69  1  0  0  0  0
 50 54  1  0  0  0  0
 50 69  1  0  0  0  0
 51 55  1  0  0  0  0
 51 71  1  0  0  0  0
 52 76  1  0  0  0  0
 53 70  1  0  0  0  0
 54 63  1  0  0  0  0
 55 68  1  0  0  0  0
 56 62  1  0  0  0  0
 57 65  1  0  0  0  0
 58 66  1  0  0  0  0
 59 66  1  0  0  0  0
 60 66  1  0  0  0  0
 61 78  1  0  0  0  0
 63 86  1  0  0  0  0
 64 66  1  0  0  0  0
 64 77  1  0  0  0  0
 65 78  1  0  0  0  0
 67 68  1  0  0  0  0
M  CHG  1  78   1
M  ISO  4  39 100  63 101  75 100  86 101
M  END
> <Batch ID>
0072

> <Smiles>
CCC(=O)Nc1c(N2CCC([101CH2:1][101O:1]c3ccc4c(c3)CN(C(=O)C(NC(=O)C(C)NC)C(C)(C)C)C(C(=O)NC3CCCc5ccccc53)C4)C2)ccc([100NH:0][100C:0](=O)N2CCCC(n3nc(-c4ccc(Oc5ccc(F)cc5F)cc4)c(C(N)=O)c3N)C2)c1F

> <Shape>
0.291

> <Color>
0.208

> <Negative vol penalty>
0.000

$$$$

  -OEChem-04042323383D

 85 94  0     1  0  0  0  0  0999 V2000
  -31.2670  -32.3268   11.4045 C   0  0  0  0  0  0  0  0  0  0  0  0
  -31.5731  -31.2429   12.2212 C   0  0  0  0  0  0  0  0  0  0  0  0
  -31.7219  -18.5518   23.6753 C   0  0  0  0  0  0  0  0  0  0  0  0
  -23.1118   -9.8840   19.8641 C   0  0  0  0  0  0  0  0  0  0  0  0
  -23.8134   -9.7887   22.1741 C   0  0  0  0  0  0  0  0  0  0  0  0
  -30.0080  -32.9211   11.4797 C   0  0  0  0  0  0  0  0  0  0  0  0
  -30.6206  -30.7534   13.1143 C   0  0  0  0  0  0  0  0  0  0  0  0
  -29.7800  -24.9165   14.7666 C   0  0  0  0  0  0  0  0  0  0  0  0
  -31.3336  -19.4605   22.6909 C   0  0  0  0  0  0  0  0  0  0  0  0
  -31.4708  -17.1902   23.5057 C   0  0  0  0  0  0  0  0  0  0  0  0
  -22.3600   -8.7230   20.0446 C   0  0  0  0  0  0  0  0  0  0  0  0
  -23.0616   -8.6278   22.3545 C   0  0  0  0  0  0  0  0  0  0  0  0
  -30.1936  -24.1883   15.8812 C   0  0  0  0  0  0  0  0  0  0  0  0
  -19.8180   -7.8130   22.8400 C   0  0  0  0  0  0  0  0  0  0  0  0
  -19.0316   -7.7239   23.9886 C   0  0  0  0  0  0  0  0  0  0  0  0
  -28.0638  -24.6033   16.9352 C   0  0  0  0  0  0  0  0  0  0  0  0
  -30.4429  -17.6461   21.3674 C   0  0  0  0  0  0  0  0  0  0  0  0
  -20.2510   -5.7529   24.6707 C   0  0  0  0  0  0  0  0  0  0  0  0
  -23.8385  -10.4169   20.9289 C   0  0  0  0  0  0  0  0  0  0  0  0
  -24.1872  -12.9439   20.9281 C   0  0  0  0  0  0  0  0  0  0  0  0
  -29.0363  -32.4325   12.3672 C   0  0  0  0  0  0  0  0  0  0  0  0
  -28.5071  -25.5038   14.7324 C   0  0  0  0  0  0  0  0  0  0  0  0
  -29.3479  -31.3426   13.2023 C   0  0  0  0  0  0  0  0  0  0  0  0
  -27.6355  -25.3363   15.8179 C   0  0  0  0  0  0  0  0  0  0  0  0
  -30.6940  -19.0077   21.5370 C   0  0  0  0  0  0  0  0  0  0  0  0
  -30.8313  -16.7374   22.3518 C   0  0  0  0  0  0  0  0  0  0  0  0
  -22.3349   -8.0949   21.2898 C   0  0  0  0  0  0  0  0  0  0  0  0
  -29.3366  -24.0341   16.9670 C   0  0  0  0  0  0  0  0  0  0  0  0
  -20.8209   -6.8719   22.6067 C   0  0  0  0  0  0  0  0  0  0  0  0
  -19.2481   -6.6939   24.9039 C   0  0  0  0  0  0  0  0  0  0  0  0
  -21.0374   -5.8419   23.5220 C   0  0  0  0  0  0  0  0  0  0  0  0
  -24.6157  -11.6158   20.7429 C   0  0  0  0  0  0  0  0  0  0  0  0
  -25.2893  -13.7056   20.6256 C   0  0  0  0  0  0  0  0  0  0  0  0
  -29.8358  -21.1820   19.1022 C   0  0  0  0  0  0  0  0  0  0  0  0
  -29.6882  -19.7513   19.3720 C   0  0  0  0  0  0  0  0  0  0  0  0
  -29.7959  -14.8862   24.3949 C   0  0  0  0  0  0  0  0  0  0  0  0
  -29.4848  -21.9815   18.0787 C   0  0  0  0  0  0  0  0  0  1  0  0
  -30.3510  -14.4780   23.2516 C   0  0  0  0  0  0  0  0  0  0  0  0
  -22.9073  -13.4443   21.3370 C   0  0  0  0  0  0  0  0  0  0  0  0
  -27.4155  -28.4814   14.5187 C   0  0  0  0  0  0  0  0  0  0  0  0
  -24.5388  -26.9973   14.3079 C   0  0  0  0  0  0  0  0  0  0  0  0
  -22.6496  -24.2330   14.9685 C   0  0  0  0  0  0  0  0  0  0  0  0
  -30.7002  -14.7601   20.8801 C   0  0  0  0  0  0  0  0  0  0  0  0
  -27.7055  -33.1376   12.4465 C   0  0  0  0  0  0  0  0  0  0  0  0
  -28.0660  -26.2637   13.5115 C   0  0  0  0  0  0  0  0  0  0  0  0
  -26.2512  -25.9297   15.8223 C   0  0  0  0  0  0  0  0  0  0  0  0
  -30.5311  -21.3340   20.4357 C   0  0  0  0  0  0  0  0  0  0  0  0
  -26.6253  -32.3222   13.1526 C   0  0  0  0  0  0  0  0  0  0  0  0
  -29.6797  -12.4508   18.4689 C   0  0  0  0  0  0  0  0  0  0  0  0
  -27.1681  -31.7242   14.4467 C   0  0  0  0  0  0  0  0  0  0  0  0
  -28.2375  -12.1256   18.8565 C   0  0  0  0  0  0  0  0  0  0  0  0
  -30.5627  -12.5786   19.7049 C   0  0  0  0  0  0  0  0  0  0  0  0
  -28.6340  -13.2786   21.0883 C   0  0  0  0  0  0  0  0  0  0  0  0
  -28.3330  -30.7672   14.1662 C   0  0  1  0  0  0  0  0  0  0  0  0
  -26.9397  -27.2521   13.7975 C   0  0  1  0  0  0  0  0  0  0  0  0
  -27.6951  -13.1462   19.8725 C   0  0  2  0  0  0  0  0  0  0  0  0
  -20.3227  -23.3296   14.7101 C   0  0  0  0  0  0  0  0  0  0  0  0
  -23.6004  -28.7612   16.6140 C   0  0  0  0  0  0  0  0  0  0  0  0
  -21.6687  -27.2002   16.9301 C   0  0  0  0  0  0  0  0  0  0  0  0
  -21.9209  -28.4517   14.7870 C   0  0  0  0  0  0  0  0  0  0  0  0
  -23.5855  -21.9815   13.2911 C   0  0  0  0  0  0  0  0  0  0  0  0
  -23.4958  -26.5415   15.2995 C   0  0  1  0  0  0  0  0  0  0  0  0
  -21.7100  -23.4226   14.0940 C   0  0  2  0  0  0  0  0  0  0  0  0
  -22.6982  -27.7289   15.9087 C   0  0  0  0  0  0  0  0  0  0  0  0
  -25.8906  -11.5350   20.3529 N   0  0  0  0  0  0  0  0  0  0  0  0
  -26.2726  -12.8219   20.2904 N   0  0  0  0  0  0  0  0  0  0  0  0
  -30.3117  -19.9044   20.5664 N   0  0  0  0  0  0  0  0  0  0  0  0
  -25.8685  -26.6693   14.6082 N   0  0  0  0  0  0  0  0  0  0  0  0
  -30.0114  -13.5532   20.6470 N   0  0  0  0  0  0  0  0  0  0  0  0
  -25.5036  -15.0385   20.6162 N   0  0  0  0  0  0  0  0  0  0  0  0
  -21.8858  -12.5240   21.6085 N   0  0  0  0  0  0  0  0  0  0  0  0
  -27.8378  -29.4966   13.6817 N   0  0  0  0  0  0  0  0  0  0  0  0
  -22.6697  -25.5621   14.6018 N   0  0  0  0  0  0  0  0  0  0  0  0
  -30.5709  -15.3234   22.1763 N   0  0  0  0  0  0  0  0  0  0  0  0
  -22.2363  -22.0405   13.9102 N   0  3  0  0  0  0  0  0  0  0  0  0
  -29.2163  -18.8075   18.7729 O   0  0  0  0  0  0  0  0  0  0  0  0
  -22.6716  -14.6719   21.4421 O   0  0  0  0  0  0  0  0  0  0  0  0
  -27.3993  -28.5076   15.7437 O   0  0  0  0  0  0  0  0  0  0  0  0
  -24.1860  -27.6152   13.3003 O   0  0  0  0  0  0  0  0  0  0  0  0
  -23.2978  -23.7374   15.8876 O   0  0  0  0  0  0  0  0  0  0  0  0
  -31.3987  -15.2904   20.0065 O   0  0  0  0  0  0  0  0  0  0  0  0
  -21.6013   -6.9621   21.4663 O   0  0  0  0  0  0  0  0  0  0  0  0
  -29.7381  -23.3243   18.0564 O   0  0  0  0  0  0  0  0  0  1  0  0
  -18.4939   -6.6095   26.0076 F   0  0  0  0  0  0  0  0  0  0  0  0
  -22.0001   -4.9356   23.3039 F   0  0  0  0  0  0  0  0  0  0  0  0
  1  2  1  0  0  0  0
  1  6  2  0  0  0  0
  2  7  2  0  0  0  0
  3  9  1  0  0  0  0
  3 10  2  0  0  0  0
  4 11  2  0  0  0  0
  4 19  1  0  0  0  0
  5 12  1  0  0  0  0
  5 19  2  0  0  0  0
  6 21  1  0  0  0  0
  7 23  1  0  0  0  0
  8 13  2  0  0  0  0
  8 22  1  0  0  0  0
  9 25  2  0  0  0  0
 10 26  1  0  0  0  0
 11 27  1  0  0  0  0
 12 27  2  0  0  0  0
 13 28  1  0  0  0  0
 14 15  2  0  0  0  0
 14 29  1  0  0  0  0
 15 30  1  0  0  0  0
 16 24  1  0  0  0  0
 16 28  2  0  0  0  0
 17 25  1  0  0  0  0
 17 26  2  0  0  0  0
 18 30  2  0  0  0  0
 18 31  1  0  0  0  0
 19 32  1  0  0  0  0
 20 32  1  0  0  0  0
 20 33  2  0  0  0  0
 20 39  1  0  0  0  0
 21 23  2  0  0  0  0
 21 44  1  0  0  0  0
 22 24  2  0  0  0  0
 22 45  1  0  0  0  0
 23 54  1  0  0  0  0
 24 46  1  0  0  0  0
 25 67  1  0  0  0  0
 26 74  1  0  0  0  0
 27 82  1  0  0  0  0
 28 83  1  0  0  0  0
 29 31  2  0  0  0  0
 29 82  1  0  0  0  0
 30 84  1  0  0  0  0
 31 85  1  0  0  0  0
 32 65  2  0  0  0  0
 33 66  1  0  0  0  0
 33 70  1  0  0  0  0
 34 35  1  0  0  0  0
 34 37  2  0  0  0  0
 34 47  1  0  0  0  0
 35 67  1  0  0  0  0
 35 76  2  0  0  0  0
 36 38  2  0  0  0  0
 37 83  1  0  0  0  0
 38 74  1  0  0  0  0
 39 71  1  0  0  0  0
 39 77  2  0  0  0  0
 40 55  1  0  0  0  0
 40 72  1  0  0  0  0
 40 78  2  0  0  0  0
 41 62  1  0  0  0  0
 41 68  1  0  0  0  0
 41 79  2  0  0  0  0
 42 63  1  0  0  0  0
 42 73  1  0  0  0  0
 42 80  2  0  0  0  0
 43 69  1  0  0  0  0
 43 74  1  0  0  0  0
 43 81  2  0  0  0  0
 44 48  1  0  0  0  0
 45 55  1  0  0  0  0
 46 68  1  0  0  0  0
 47 67  1  0  0  0  0
 48 50  1  0  0  0  0
 49 51  1  0  0  0  0
 49 52  1  0  0  0  0
 50 54  1  0  0  0  0
 51 56  1  0  0  0  0
 52 69  1  0  0  0  0
 53 56  1  0  0  0  0
 53 69  1  0  0  0  0
 54 72  1  0  0  0  0
 55 68  1  0  0  0  0
 56 66  1  0  0  0  0
 57 63  1  0  0  0  0
 58 64  1  0  0  0  0
 59 64  1  0  0  0  0
 60 64  1  0  0  0  0
 61 75  1  0  0  0  0
 62 64  1  0  0  0  0
 62 73  1  0  0  0  0
 63 75  1  0  0  0  0
 65 66  1  0  0  0  0
M  CHG  1  75   1
M  ISO  4  37 101  43 100  74 100  83 101
M  END
> <Batch ID>
0072

> <Smiles>
C=C[100N:0](c1cccc(N2CC(=[101CH:1][101O:1]c3ccc4c(c3)CN(C(=O)C(NC(=O)C(C)NC)C(C)(C)C)C(C(=O)NC3CCCc5ccccc53)C4)C2=O)c1)[100C:0](=O)N1CCCC(n2nc(-c3ccc(Oc4ccc(F)cc4F)cc3)c(C(N)=O)c2N)C1

> <Shape>
0.214

> <Color>
0.192

> <Negative vol penalty>
0.000

$$$$

  -OEChem-04042323383D

 91100  0     1  0  0  0  0  0999 V2000
  -28.2453  -38.0553   23.1771 C   0  0  0  0  0  0  0  0  0  0  0  0
  -28.6042  -37.1226   22.2092 C   0  0  0  0  0  0  0  0  0  0  0  0
  -24.0502   -9.8294   22.2516 C   0  0  0  0  0  0  0  0  0  0  0  0
  -24.6294  -11.4513   23.9460 C   0  0  0  0  0  0  0  0  0  0  0  0
  -27.7447  -37.6261   24.4055 C   0  0  0  0  0  0  0  0  0  0  0  0
  -28.4636  -35.7600   22.4697 C   0  0  0  0  0  0  0  0  0  0  0  0
  -26.9704  -29.5726   19.1827 C   0  0  0  0  0  0  0  0  0  0  0  0
  -30.8086  -20.1529   19.1181 C   0  0  0  0  0  0  0  0  0  0  0  0
  -30.5350  -18.7883   19.0257 C   0  0  0  0  0  0  0  0  0  0  0  0
  -23.6564   -8.9325   23.2447 C   0  0  0  0  0  0  0  0  0  0  0  0
  -24.2356  -10.5545   24.9391 C   0  0  0  0  0  0  0  0  0  0  0  0
  -27.4803  -28.2842   19.0292 C   0  0  0  0  0  0  0  0  0  0  0  0
  -20.9779   -8.4583   25.2530 C   0  0  0  0  0  0  0  0  0  0  0  0
  -19.7733   -7.7788   25.0722 C   0  0  0  0  0  0  0  0  0  0  0  0
  -26.5302  -27.6611   21.1572 C   0  0  0  0  0  0  0  0  0  0  0  0
  -28.4480  -20.6102   19.3542 C   0  0  0  0  0  0  0  0  0  0  0  0
  -20.9521   -5.6710   25.1403 C   0  0  0  0  0  0  0  0  0  0  0  0
  -24.5368  -11.0888   22.6023 C   0  0  0  0  0  0  0  0  0  0  0  0
  -24.1424  -12.9760   20.9318 C   0  0  0  0  0  0  0  0  0  0  0  0
  -27.5889  -36.2577   24.6776 C   0  0  0  0  0  0  0  0  0  0  0  0
  -26.2447  -29.9187   20.3316 C   0  0  0  0  0  0  0  0  0  0  0  0
  -27.9617  -35.3120   23.7035 C   0  0  0  0  0  0  0  0  0  0  0  0
  -26.0100  -28.9539   21.3217 C   0  0  0  0  0  0  0  0  0  0  0  0
  -29.7651  -21.0639   19.2824 C   0  0  0  0  0  0  0  0  0  0  0  0
  -29.2180  -18.3346   19.0974 C   0  0  0  0  0  0  0  0  0  0  0  0
  -28.1744  -19.2455   19.2617 C   0  0  0  0  0  0  0  0  0  0  0  0
  -23.7491   -9.2951   24.5884 C   0  0  0  0  0  0  0  0  0  0  0  0
  -27.2628  -27.3290   20.0178 C   0  0  0  0  0  0  0  0  0  0  0  0
  -22.1697   -7.7442   25.3774 C   0  0  0  0  0  0  0  0  0  0  0  0
  -19.7604   -6.3851   25.0158 C   0  0  0  0  0  0  0  0  0  0  0  0
  -22.1567   -6.3506   25.3211 C   0  0  0  0  0  0  0  0  0  0  0  0
  -24.9442  -12.0154   21.5769 C   0  0  0  0  0  0  0  0  0  0  0  0
  -24.9925  -13.5959   20.0490 C   0  0  0  0  0  0  0  0  0  0  0  0
  -31.1143  -24.4576   19.4558 C   0  0  0  0  0  0  0  0  0  0  0  0
  -29.7080  -24.7406   19.5968 C   0  0  0  0  0  0  0  0  0  0  0  0
  -31.3238  -22.9896   19.3143 C   0  0  0  0  0  0  0  0  0  0  0  0
  -29.1129  -25.9241   19.7457 C   0  0  0  0  0  0  0  0  0  1  0  0
  -22.7533  -13.2807   21.1143 C   0  0  0  0  0  0  0  0  0  0  0  0
  -32.1499  -25.3027   19.4406 C   0  0  0  0  0  0  0  0  0  0  0  0
  -26.6418  -32.0130   22.6896 C   0  0  0  0  0  0  0  0  0  0  0  0
  -23.6835  -31.0058   23.5591 C   0  0  0  0  0  0  0  0  0  0  0  0
  -25.6948  -19.5941   19.4947 C   0  0  0  0  0  0  0  0  0  0  0  0
  -21.3134  -28.5522   23.4614 C   0  0  0  0  0  0  0  0  0  0  0  0
  -29.9022  -15.9244   18.8340 C   0  0  0  0  0  0  0  0  0  0  0  0
  -27.0879  -35.8405   26.0376 C   0  0  0  0  0  0  0  0  0  0  0  0
  -25.6785  -31.3053   20.4698 C   0  0  0  0  0  0  0  0  0  0  0  0
  -25.2199  -29.2691   22.5647 C   0  0  0  0  0  0  0  0  0  0  0  0
  -28.9883  -23.4269   19.5463 C   0  0  0  0  0  0  0  0  0  0  0  0
  -26.6182  -34.3891   26.0947 C   0  0  0  0  0  0  0  0  0  0  0  0
  -29.6834  -12.3793   18.5871 C   0  0  0  0  0  0  0  0  0  0  0  0
  -27.6348  -33.4721   25.4222 C   0  0  0  0  0  0  0  0  0  0  0  0
  -28.3650  -12.0476   19.2899 C   0  0  0  0  0  0  0  0  0  0  0  0
  -30.4158  -13.5327   19.2705 C   0  0  0  0  0  0  0  0  0  0  0  0
  -28.2977  -14.4176   20.1647 C   0  0  0  0  0  0  0  0  0  0  0  0
  -27.8006  -33.8258   23.9393 C   0  0  1  0  0  0  0  0  0  0  0  0
  -25.3932  -31.6927   21.9176 C   0  0  1  0  0  0  0  0  0  0  0  0
  -27.4927  -13.3048   19.4739 C   0  0  2  0  0  0  0  0  0  0  0  0
  -33.5659  -24.8262   19.2825 C   0  0  0  0  0  0  0  0  0  0  0  0
  -31.9696  -26.7875   19.5812 C   0  0  0  0  0  0  0  0  0  0  0  0
  -24.4483  -18.7458   19.5257 C   0  0  0  0  0  0  0  0  0  0  0  0
  -19.0122  -28.0019   24.2975 C   0  0  0  0  0  0  0  0  0  0  0  0
  -24.8293  -30.4324   26.3283 C   0  0  0  0  0  0  0  0  0  0  0  0
  -22.8039  -29.0389   26.8014 C   0  0  0  0  0  0  0  0  0  0  0  0
  -22.5571  -31.4771   26.3353 C   0  0  0  0  0  0  0  0  0  0  0  0
  -20.2407  -28.3335   20.7118 C   0  0  0  0  0  0  0  0  0  0  0  0
  -23.1453  -29.9068   24.4431 C   0  0  1  0  0  0  0  0  0  0  0  0
  -19.8262  -28.5997   23.1605 C   0  0  2  0  0  0  0  0  0  0  0  0
  -23.3505  -30.2081   25.9546 C   0  0  0  0  0  0  0  0  0  0  0  0
  -26.2067  -12.0208   21.1409 N   0  0  0  0  0  0  0  0  0  0  0  0
  -26.2046  -12.9923   20.2123 N   0  0  0  0  0  0  0  0  0  0  0  0
  -30.0383  -22.4249   19.3744 N   0  0  0  0  0  0  0  0  0  0  0  0
  -24.6924  -30.6405   22.6566 N   0  0  0  0  0  0  0  0  0  0  0  0
  -29.5290  -14.6902   19.4067 N   0  0  0  0  0  0  0  0  0  0  0  0
  -24.8140  -14.5930   19.1565 N   0  0  0  0  0  0  0  0  0  0  0  0
  -22.0275  -12.5476   22.0631 N   0  0  0  0  0  0  0  0  0  0  0  0
  -26.8463  -18.8150   19.3345 N   0  0  0  0  0  0  0  0  0  0  0  0
  -28.9652  -16.9438   18.9997 N   0  0  0  0  0  0  0  0  0  0  0  0
  -26.6901  -33.3081   23.1690 N   0  0  0  0  0  0  0  0  0  0  0  0
  -21.7517  -29.7168   24.0555 N   0  0  0  0  0  0  0  0  0  0  0  0
  -19.5251  -27.8378   21.9156 N   0  3  0  0  0  0  0  0  0  0  0  0
  -32.3982  -22.4291   19.1769 O   0  0  0  0  0  0  0  0  0  0  0  0
  -22.1689  -14.1653   20.4439 O   0  0  0  0  0  0  0  0  0  0  0  0
  -27.4974  -31.1487   22.8404 O   0  0  0  0  0  0  0  0  0  0  0  0
  -23.2207  -32.1447   23.6604 O   0  0  0  0  0  0  0  0  0  0  0  0
  -25.6269  -20.8145   19.5999 O   0  0  0  0  0  0  0  0  0  0  0  0
  -22.0153  -27.5779   23.1993 O   0  0  0  0  0  0  0  0  0  0  0  0
  -30.9618  -16.0595   18.2167 O   0  0  0  0  0  0  0  0  0  0  0  0
  -23.3647   -8.4203   25.5577 O   0  0  0  0  0  0  0  0  0  0  0  0
  -27.7599  -26.0708   19.8708 O   0  0  0  0  0  0  0  0  0  1  0  0
  -18.6033   -5.7327   24.8437 F   0  0  0  0  0  0  0  0  0  0  0  0
  -23.2983   -5.6590   25.4412 F   0  0  0  0  0  0  0  0  0  0  0  0
  1  2  1  0  0  0  0
  1  5  2  0  0  0  0
  2  6  2  0  0  0  0
  3 10  2  0  0  0  0
  3 18  1  0  0  0  0
  4 11  1  0  0  0  0
  4 18  2  0  0  0  0
  5 20  1  0  0  0  0
  6 22  1  0  0  0  0
  7 12  2  0  0  0  0
  7 21  1  0  0  0  0
  8  9  2  0  0  0  0
  8 24  1  0  0  0  0
  9 25  1  0  0  0  0
 10 27  1  0  0  0  0
 11 27  2  0  0  0  0
 12 28  1  0  0  0  0
 13 14  2  0  0  0  0
 13 29  1  0  0  0  0
 14 30  1  0  0  0  0
 15 23  1  0  0  0  0
 15 28  2  0  0  0  0
 16 24  2  0  0  0  0
 16 26  1  0  0  0  0
 17 30  2  0  0  0  0
 17 31  1  0  0  0  0
 18 32  1  0  0  0  0
 19 32  1  0  0  0  0
 19 33  2  0  0  0  0
 19 38  1  0  0  0  0
 20 22  2  0  0  0  0
 20 45  1  0  0  0  0
 21 23  2  0  0  0  0
 21 46  1  0  0  0  0
 22 55  1  0  0  0  0
 23 47  1  0  0  0  0
 24 71  1  0  0  0  0
 25 26  2  0  0  0  0
 25 77  1  0  0  0  0
 26 76  1  0  0  0  0
 27 88  1  0  0  0  0
 28 89  1  0  0  0  0
 29 31  2  0  0  0  0
 29 88  1  0  0  0  0
 30 90  1  0  0  0  0
 31 91  1  0  0  0  0
 32 69  2  0  0  0  0
 33 70  1  0  0  0  0
 33 74  1  0  0  0  0
 34 35  1  0  0  0  0
 34 36  1  0  0  0  0
 34 39  2  0  0  0  0
 35 37  2  0  0  0  0
 35 48  1  0  0  0  0
 36 71  1  0  0  0  0
 36 81  2  0  0  0  0
 37 89  1  0  0  0  0
 38 75  1  0  0  0  0
 38 82  2  0  0  0  0
 39 58  1  0  0  0  0
 39 59  1  0  0  0  0
 40 56  1  0  0  0  0
 40 78  1  0  0  0  0
 40 83  2  0  0  0  0
 41 66  1  0  0  0  0
 41 72  1  0  0  0  0
 41 84  2  0  0  0  0
 42 60  1  0  0  0  0
 42 76  1  0  0  0  0
 42 85  2  0  0  0  0
 43 67  1  0  0  0  0
 43 79  1  0  0  0  0
 43 86  2  0  0  0  0
 44 73  1  0  0  0  0
 44 77  1  0  0  0  0
 44 87  2  0  0  0  0
 45 49  1  0  0  0  0
 46 56  1  0  0  0  0
 47 72  1  0  0  0  0
 48 71  1  0  0  0  0
 49 51  1  0  0  0  0
 50 52  1  0  0  0  0
 50 53  1  0  0  0  0
 51 55  1  0  0  0  0
 52 57  1  0  0  0  0
 53 73  1  0  0  0  0
 54 57  1  0  0  0  0
 54 73  1  0  0  0  0
 55 78  1  0  0  0  0
 56 72  1  0  0  0  0
 57 70  1  0  0  0  0
 61 67  1  0  0  0  0
 62 68  1  0  0  0  0
 63 68  1  0  0  0  0
 64 68  1  0  0  0  0
 65 80  1  0  0  0  0
 66 68  1  0  0  0  0
 66 79  1  0  0  0  0
 67 80  1  0  0  0  0
 69 70  1  0  0  0  0
M  CHG  1  80   1
M  ISO  4  37 101  44 100  77 100  89 101
M  END
> <Batch ID>
0072

> <Smiles>
CNC(C)C(=O)NC(C(=O)N1Cc2cc([101O:1][101CH:1]=C3CN(c4ccc([100NH:0][100C:0](=O)N5CCCC(n6nc(-c7ccc(Oc8ccc(F)cc8F)cc7)c(C(N)=O)c6N)C5)c(NC(C)=O)c4)C(=O)C3=C(C)C)ccc2CC1C(=O)NC1CCCc2ccccc21)C(C)(C)C

> <Shape>
0.340

> <Color>
0.124

> <Negative vol penalty>
0.000

$$$$

  -OEChem-04042323383D

 83 91  0     1  0  0  0  0  0999 V2000
  -19.0425  -24.3629   23.2836 C   0  0  0  0  0  0  0  0  0  0  0  0
  -20.3576  -24.4747   22.8438 C   0  0  0  0  0  0  0  0  0  0  0  0
  -23.9367   -9.3372   21.7556 C   0  0  0  0  0  0  0  0  0  0  0  0
  -24.1270  -11.0395   23.4594 C   0  0  0  0  0  0  0  0  0  0  0  0
  -28.1838  -20.2410   19.2401 C   0  0  0  0  0  0  0  0  0  0  0  0
  -30.5747  -19.9547   19.4370 C   0  0  0  0  0  0  0  0  0  0  0  0
  -18.2205  -25.4886   23.3134 C   0  0  0  0  0  0  0  0  0  0  0  0
  -20.8511  -25.7123   22.4324 C   0  0  0  0  0  0  0  0  0  0  0  0
  -25.4622  -26.6796   24.2891 C   0  0  0  0  0  0  0  0  0  0  0  0
  -28.0250  -18.8578   19.1563 C   0  0  0  0  0  0  0  0  0  0  0  0
  -30.4159  -18.5715   19.3532 C   0  0  0  0  0  0  0  0  0  0  0  0
  -23.4207   -8.4497   22.6998 C   0  0  0  0  0  0  0  0  0  0  0  0
  -23.6110  -10.1520   24.4037 C   0  0  0  0  0  0  0  0  0  0  0  0
  -26.5423  -26.0514   23.6706 C   0  0  0  0  0  0  0  0  0  0  0  0
  -20.4589   -7.8851   24.2301 C   0  0  0  0  0  0  0  0  0  0  0  0
  -19.3406   -7.1333   23.8699 C   0  0  0  0  0  0  0  0  0  0  0  0
  -27.0136  -28.0776   22.4494 C   0  0  0  0  0  0  0  0  0  0  0  0
  -20.5942   -5.0986   24.2246 C   0  0  0  0  0  0  0  0  0  0  0  0
  -24.2900  -10.6321   22.1354 C   0  0  0  0  0  0  0  0  0  0  0  0
  -29.4586  -20.7895   19.3804 C   0  0  0  0  0  0  0  0  0  0  0  0
  -24.0999  -12.4430   20.3487 C   0  0  0  0  0  0  0  0  0  0  0  0
  -18.7071  -26.7425   22.9113 C   0  0  0  0  0  0  0  0  0  0  0  0
  -25.1425  -28.0104   23.9837 C   0  0  0  0  0  0  0  0  0  0  0  0
  -20.0344  -26.8557   22.4556 C   0  0  0  0  0  0  0  0  0  0  0  0
  -25.9305  -28.7212   23.0673 C   0  0  0  0  0  0  0  0  0  0  0  0
  -29.1411  -18.0230   19.2129 C   0  0  0  0  0  0  0  0  0  0  0  0
  -23.2578   -8.8571   24.0239 C   0  0  0  0  0  0  0  0  0  0  0  0
  -27.3164  -26.7495   22.7484 C   0  0  0  0  0  0  0  0  0  0  0  0
  -21.6449   -7.2436   24.5874 C   0  0  0  0  0  0  0  0  0  0  0  0
  -19.4082   -5.7400   23.8671 C   0  0  0  0  0  0  0  0  0  0  0  0
  -21.7125   -5.8504   24.5847 C   0  0  0  0  0  0  0  0  0  0  0  0
  -24.8236  -11.5492   21.1605 C   0  0  0  0  0  0  0  0  0  0  0  0
  -25.0592  -13.0833   19.6030 C   0  0  0  0  0  0  0  0  0  0  0  0
  -29.6269  -22.2546   19.4690 C   0  0  0  0  0  0  0  0  0  0  0  0
  -22.6867  -12.6738   20.2752 C   0  0  0  0  0  0  0  0  0  0  0  0
  -22.6242  -29.4782   22.7160 C   0  0  0  0  0  0  0  0  0  0  0  0
  -24.2944  -32.1547   23.4707 C   0  0  0  0  0  0  0  0  0  0  0  0
  -29.0609  -24.3221   20.7242 C   0  0  0  0  0  0  0  0  0  0  0  0
  -27.3206  -33.5980   24.1078 C   0  0  0  0  0  0  0  0  0  0  0  0
  -29.9819  -15.6487   19.1675 C   0  0  0  0  0  0  0  0  0  0  0  0
  -17.7668  -27.9217   22.9163 C   0  0  0  0  0  0  0  0  0  0  0  0
  -23.9905  -28.6820   24.6795 C   0  0  0  0  0  0  0  0  0  0  0  0
  -25.6416  -30.1580   22.7199 C   0  0  0  0  0  0  0  0  0  0  0  0
  -18.4784  -29.2686   22.8181 C   0  0  0  0  0  0  0  0  0  0  0  0
  -29.9892  -12.0910   19.0265 C   0  0  0  0  0  0  0  0  0  0  0  0
  -19.5370  -29.2342   21.7203 C   0  0  0  0  0  0  0  0  0  0  0  0
  -28.5864  -11.7064   19.5023 C   0  0  0  0  0  0  0  0  0  0  0  0
  -30.5312  -13.3040   19.7805 C   0  0  0  0  0  0  0  0  0  0  0  0
  -28.2471  -14.0940   20.2580 C   0  0  0  0  0  0  0  0  0  0  0  0
  -20.6137  -28.1857   22.0247 C   0  0  1  0  0  0  0  0  0  0  0  0
  -23.4438  -29.8802   23.9095 C   0  0  1  0  0  0  0  0  0  0  0  0
  -27.6329  -12.9172   19.4824 C   0  0  2  0  0  0  0  0  0  0  0  0
  -28.3719  -35.8098   24.6554 C   0  0  0  0  0  0  0  0  0  0  0  0
  -23.9686  -33.0263   20.5648 C   0  0  0  0  0  0  0  0  0  0  0  0
  -25.7931  -34.7002   20.9352 C   0  0  0  0  0  0  0  0  0  0  0  0
  -23.6744  -34.8575   22.2424 C   0  0  0  0  0  0  0  0  0  0  0  0
  -28.3615  -32.5950   26.6903 C   0  0  0  0  0  0  0  0  0  0  0  0
  -28.2780  -24.7284   21.9443 C   0  0  0  0  0  0  0  0  0  1  0  0
  -25.3191  -33.0099   22.7652 C   0  0  1  0  0  0  0  0  0  0  0  0
  -27.7801  -34.5266   25.2173 C   0  0  2  0  0  0  0  0  0  0  0  0
  -24.6933  -33.8708   21.6318 C   0  0  0  0  0  0  0  0  0  0  0  0
  -26.1411  -11.6130   20.9504 N   0  0  0  0  0  0  0  0  0  0  0  0
  -26.2528  -12.5545   19.9979 N   0  0  0  0  0  0  0  0  0  0  0  0
  -24.5007  -30.7687   23.4220 N   0  0  0  0  0  0  0  0  0  0  0  0
  -29.5768  -14.4130   19.7150 N   0  0  0  0  0  0  0  0  0  0  0  0
  -24.9899  -14.0414   18.6545 N   0  0  0  0  0  0  0  0  0  0  0  0
  -21.8438  -11.9296   21.1118 N   0  0  0  0  0  0  0  0  0  0  0  0
  -28.9800  -16.6178   19.1278 N   0  0  0  0  0  0  0  0  0  0  0  0
  -29.0241  -22.9000   20.4771 N   0  0  0  0  0  0  0  0  0  0  0  0
  -21.5361  -28.6835   23.0226 N   0  0  0  0  0  0  0  0  0  0  0  0
  -25.9887  -33.7851   23.8040 N   0  0  0  0  0  0  0  0  0  0  0  0
  -30.3732  -22.8505   18.5394 N   0  3  0  0  0  0  0  0  0  0  0  0
  -28.8157  -33.8591   26.0558 N   0  3  0  0  0  0  0  0  0  0  0  0
  -22.1850  -13.5034   19.4792 O   0  0  0  0  0  0  0  0  0  0  0  0
  -22.9537  -29.8620   21.5999 O   0  0  0  0  0  0  0  0  0  0  0  0
  -23.3498  -32.6968   24.0498 O   0  0  0  0  0  0  0  0  0  0  0  0
  -29.6762  -25.0875   19.9960 O   0  0  0  0  0  0  0  0  0  0  0  0
  -28.0693  -32.7902   23.5624 O   0  0  0  0  0  0  0  0  0  0  0  0
  -31.1251  -15.8249   18.7386 O   0  0  0  0  0  0  0  0  0  0  0  0
  -22.7541   -7.9914   24.9455 O   0  0  0  0  0  0  0  0  0  0  0  0
  -28.3708  -26.1385   22.1428 O   0  0  0  0  0  0  0  0  0  1  0  0
  -18.3337   -5.0182   23.5227 F   0  0  0  0  0  0  0  0  0  0  0  0
  -22.8488   -5.2286   24.9282 F   0  0  0  0  0  0  0  0  0  0  0  0
  1  2  1  0  0  0  0
  1  7  2  0  0  0  0
  2  8  2  0  0  0  0
  3 12  2  0  0  0  0
  3 19  1  0  0  0  0
  4 13  1  0  0  0  0
  4 19  2  0  0  0  0
  5 10  2  0  0  0  0
  5 20  1  0  0  0  0
  6 11  1  0  0  0  0
  6 20  2  0  0  0  0
  7 22  1  0  0  0  0
  8 24  1  0  0  0  0
  9 14  2  0  0  0  0
  9 23  1  0  0  0  0
 10 26  1  0  0  0  0
 11 26  2  0  0  0  0
 12 27  1  0  0  0  0
 13 27  2  0  0  0  0
 14 28  1  0  0  0  0
 15 16  2  0  0  0  0
 15 29  1  0  0  0  0
 16 30  1  0  0  0  0
 17 25  1  0  0  0  0
 17 28  2  0  0  0  0
 18 30  2  0  0  0  0
 18 31  1  0  0  0  0
 19 32  1  0  0  0  0
 20 34  1  0  0  0  0
 21 32  1  0  0  0  0
 21 33  2  0  0  0  0
 21 35  1  0  0  0  0
 22 24  2  0  0  0  0
 22 41  1  0  0  0  0
 23 25  2  0  0  0  0
 23 42  1  0  0  0  0
 24 50  1  0  0  0  0
 25 43  1  0  0  0  0
 26 68  1  0  0  0  0
 27 80  1  0  0  0  0
 28 81  1  0  0  0  0
 29 31  2  0  0  0  0
 29 80  1  0  0  0  0
 30 82  1  0  0  0  0
 31 83  1  0  0  0  0
 32 62  2  0  0  0  0
 33 63  1  0  0  0  0
 33 66  1  0  0  0  0
 34 69  1  0  0  0  0
 34 72  2  0  0  0  0
 35 67  1  0  0  0  0
 35 74  2  0  0  0  0
 36 51  1  0  0  0  0
 36 70  1  0  0  0  0
 36 75  2  0  0  0  0
 37 59  1  0  0  0  0
 37 64  1  0  0  0  0
 37 76  2  0  0  0  0
 38 58  1  0  0  0  0
 38 69  1  0  0  0  0
 38 77  2  0  0  0  0
 39 60  1  0  0  0  0
 39 71  1  0  0  0  0
 39 78  2  0  0  0  0
 40 65  1  0  0  0  0
 40 68  1  0  0  0  0
 40 79  2  0  0  0  0
 41 44  1  0  0  0  0
 42 51  1  0  0  0  0
 43 64  1  0  0  0  0
 44 46  1  0  0  0  0
 45 47  1  0  0  0  0
 45 48  1  0  0  0  0
 46 50  1  0  0  0  0
 47 52  1  0  0  0  0
 48 65  1  0  0  0  0
 49 52  1  0  0  0  0
 49 65  1  0  0  0  0
 50 70  1  0  0  0  0
 51 64  1  0  0  0  0
 52 63  1  0  0  0  0
 53 60  1  0  0  0  0
 54 61  1  0  0  0  0
 55 61  1  0  0  0  0
 56 61  1  0  0  0  0
 57 73  1  0  0  0  0
 58 81  1  0  0  0  0
 59 61  1  0  0  0  0
 59 71  1  0  0  0  0
 60 73  1  0  0  0  0
 62 63  1  0  0  0  0
M  CHG  2  72   1  73   1
M  ISO  4  40 100  58 101  68 100  81 101
M  END
> <Batch ID>
0072

> <Smiles>
CNC(C)C(=O)NC(C(=O)N1Cc2cc([101O:1][101CH2:1]C(=O)NC(=N)c3ccc([100NH:0][100C:0](=O)N4CCCC(n5nc(-c6ccc(Oc7ccc(F)cc7F)cc6)c(C(N)=O)c5N)C4)cc3)ccc2CC1C(=O)NC1CCCc2ccccc21)C(C)(C)C

> <Shape>
0.321

> <Color>
0.113

> <Negative vol penalty>
0.000

$$$$

  -OEChem-04042323383D

 90 99  0     1  0  0  0  0  0999 V2000
  -18.8393  -16.9918   29.7727 C   0  0  0  0  0  0  0  0  0  0  0  0
  -20.1451  -16.5376   29.6181 C   0  0  0  0  0  0  0  0  0  0  0  0
  -23.0006   -9.8938   19.9815 C   0  0  0  0  0  0  0  0  0  0  0  0
  -23.7309   -9.9435   22.2839 C   0  0  0  0  0  0  0  0  0  0  0  0
  -18.5994  -18.2357   30.3549 C   0  0  0  0  0  0  0  0  0  0  0  0
  -21.2120  -17.3277   30.0447 C   0  0  0  0  0  0  0  0  0  0  0  0
  -26.5019  -15.3867   32.4437 C   0  0  0  0  0  0  0  0  0  0  0  0
  -30.0972  -16.4298   24.2291 C   0  0  0  0  0  0  0  0  0  0  0  0
  -30.3128  -16.4801   25.6063 C   0  0  0  0  0  0  0  0  0  0  0  0
  -22.2360   -8.7582   20.2485 C   0  0  0  0  0  0  0  0  0  0  0  0
  -22.9662   -8.8079   22.5509 C   0  0  0  0  0  0  0  0  0  0  0  0
  -27.7666  -15.1902   31.8907 C   0  0  0  0  0  0  0  0  0  0  0  0
  -23.2133   -5.4696   22.0754 C   0  0  0  0  0  0  0  0  0  0  0  0
  -23.8036   -4.4524   22.8252 C   0  0  0  0  0  0  0  0  0  0  0  0
  -28.4336  -17.3794   32.6533 C   0  0  0  0  0  0  0  0  0  0  0  0
  -32.4743  -17.4921   25.2310 C   0  0  0  0  0  0  0  0  0  0  0  0
  -22.0833   -4.6919   24.5046 C   0  0  0  0  0  0  0  0  0  0  0  0
  -23.7482  -10.4864   20.9992 C   0  0  0  0  0  0  0  0  0  0  0  0
  -24.1302  -13.0026   20.8246 C   0  0  0  0  0  0  0  0  0  0  0  0
  -19.6634  -19.0372   30.7977 C   0  0  0  0  0  0  0  0  0  0  0  0
  -26.1897  -16.5875   33.0974 C   0  0  0  0  0  0  0  0  0  0  0  0
  -20.9862  -18.5841   30.6322 C   0  0  0  0  0  0  0  0  0  0  0  0
  -27.1652  -17.5877   33.2161 C   0  0  0  0  0  0  0  0  0  0  0  0
  -31.0702  -16.9105   23.3528 C   0  0  0  0  0  0  0  0  0  0  0  0
  -32.2587  -17.4417   23.8538 C   0  0  0  0  0  0  0  0  0  0  0  0
  -31.5013  -17.0113   26.1072 C   0  0  0  0  0  0  0  0  0  0  0  0
  -22.2188   -8.2153   21.5332 C   0  0  0  0  0  0  0  0  0  0  0  0
  -28.7317  -16.1878   31.9929 C   0  0  0  0  0  0  0  0  0  0  0  0
  -22.0579   -6.0981   22.5402 C   0  0  0  0  0  0  0  0  0  0  0  0
  -23.2386   -4.0635   24.0398 C   0  0  0  0  0  0  0  0  0  0  0  0
  -21.4929   -5.7091   23.7547 C   0  0  0  0  0  0  0  0  0  0  0  0
  -24.5387  -11.6592   20.7238 C   0  0  0  0  0  0  0  0  0  0  0  0
  -25.2384  -13.7268   20.4584 C   0  0  0  0  0  0  0  0  0  0  0  0
  -30.8391  -16.6235   28.5238 C   0  0  0  0  0  0  0  0  0  0  0  0
  -22.8625  -13.5472   21.2145 C   0  0  0  0  0  0  0  0  0  0  0  0
  -24.0831  -18.9194   32.6196 C   0  0  0  0  0  0  0  0  0  0  0  0
  -25.2206  -19.9994   35.4589 C   0  0  0  0  0  0  0  0  0  0  0  0
  -27.7758  -20.0650   37.7202 C   0  0  0  0  0  0  0  0  0  0  0  0
  -30.7342  -14.6673   20.6954 C   0  0  0  0  0  0  0  0  0  0  0  0
  -19.3568  -20.3952   31.3779 C   0  0  0  0  0  0  0  0  0  0  0  0
  -24.8294  -16.7733   33.7119 C   0  0  0  0  0  0  0  0  0  0  0  0
  -26.8867  -18.8868   33.9255 C   0  0  0  0  0  0  0  0  0  0  0  0
  -20.5259  -21.0080   32.1447 C   0  0  0  0  0  0  0  0  0  0  0  0
  -29.5910  -12.2446   18.3502 C   0  0  0  0  0  0  0  0  0  0  0  0
  -21.8176  -20.8748   31.3444 C   0  0  0  0  0  0  0  0  0  0  0  0
  -28.1437  -11.9828   18.7709 C   0  0  0  0  0  0  0  0  0  0  0  0
  -32.6299  -17.8175   29.5396 C   0  0  0  0  0  0  0  0  0  0  0  0
  -30.4958  -12.4798   19.5577 C   0  0  0  0  0  0  0  0  0  0  0  0
  -32.9631  -17.5559   28.0845 C   0  0  0  0  0  0  0  0  0  0  0  0
  -28.5879  -13.2720   20.9015 C   0  0  0  0  0  0  0  0  0  0  0  0
  -22.1688  -19.4014   31.1050 C   0  0  1  0  0  0  0  0  0  0  0  0
  -31.5727  -16.7670   29.8475 C   0  0  1  0  0  0  0  0  0  0  0  0
  -24.4570  -18.2398   33.9065 C   0  0  1  0  0  0  0  0  0  0  0  0
  -27.6264  -13.0843   19.7155 C   0  0  2  0  0  0  0  0  0  0  0  0
  -33.3137  -17.9641   22.9347 C   0  0  0  0  0  0  0  0  0  0  0  0
  -28.4279  -21.0655   39.9273 C   0  0  0  0  0  0  0  0  0  0  0  0
  -30.5795  -18.2528   19.7542 C   0  0  0  0  0  0  0  0  0  0  0  0
  -30.4491  -19.4154   21.9658 C   0  0  0  0  0  0  0  0  0  0  0  0
  -28.5890  -17.9294   21.2144 C   0  0  0  0  0  0  0  0  0  0  0  0
  -25.7468  -22.6742   34.0883 C   0  0  0  0  0  0  0  0  0  0  0  0
  -27.2286  -23.2886   36.0105 C   0  0  0  0  0  0  0  0  0  0  0  0
  -24.8030  -22.8531   36.3973 C   0  0  0  0  0  0  0  0  0  0  0  0
  -28.0377  -17.4008   38.9820 C   0  0  0  0  0  0  0  0  0  0  0  0
  -30.6590  -17.1588   30.9935 C   0  0  0  0  0  0  0  0  0  1  0  0
  -30.8172  -16.8453   21.8824 C   0  0  2  0  0  0  0  0  0  0  0  0
  -26.3434  -20.9156   35.8820 C   0  0  1  0  0  0  0  0  0  0  0  0
  -27.7933  -19.8745   39.2262 C   0  0  2  0  0  0  0  0  0  0  0  0
  -30.1258  -18.1057   21.2221 C   0  0  0  0  0  0  0  0  0  0  0  0
  -26.0354  -22.4093   35.5794 C   0  0  0  0  0  0  0  0  0  0  0  0
  -25.8072  -11.5345   20.3247 N   0  0  0  0  0  0  0  0  0  0  0  0
  -26.2054  -12.8088   20.1714 N   0  0  0  0  0  0  0  0  0  0  0  0
  -31.7214  -17.0649   27.5163 N   0  0  0  0  0  0  0  0  0  0  0  0
  -25.5399  -19.0235   34.5042 N   0  0  0  0  0  0  0  0  0  0  0  0
  -29.9498  -13.5371   20.4120 N   0  0  0  0  0  0  0  0  0  0  0  0
  -25.4701  -15.0528   20.3570 N   0  0  0  0  0  0  0  0  0  0  0  0
  -21.8325  -12.6616   21.5596 N   0  0  0  0  0  0  0  0  0  0  0  0
  -22.7429  -18.8183   32.2987 N   0  0  0  0  0  0  0  0  0  0  0  0
  -26.5939  -20.6307   37.2907 N   0  0  0  0  0  0  0  0  0  0  0  0
  -30.1386  -15.6247   21.5075 N   0  0  0  0  0  0  0  0  0  0  0  0
  -28.5660  -18.6517   39.5846 N   0  3  0  0  0  0  0  0  0  0  0  0
  -29.7181  -16.1453   28.4281 O   0  0  0  0  0  0  0  0  0  0  0  0
  -22.6445  -14.7823   21.2399 O   0  0  0  0  0  0  0  0  0  0  0  0
  -24.9464  -19.4942   31.9669 O   0  0  0  0  0  0  0  0  0  0  0  0
  -24.1033  -20.1398   35.9624 O   0  0  0  0  0  0  0  0  0  0  0  0
  -28.7179  -19.7476   36.9977 O   0  0  0  0  0  0  0  0  0  0  0  0
  -31.8785  -14.8149   20.2529 O   0  0  0  0  0  0  0  0  0  0  0  0
  -21.4725   -7.1073   21.7942 O   0  0  0  0  0  0  0  0  0  0  0  0
  -29.9667  -15.9988   31.4534 O   0  0  0  0  0  0  0  0  0  1  0  0
  -23.8048   -3.0856   24.7590 F   0  0  0  0  0  0  0  0  0  0  0  0
  -20.3824   -6.3083   24.2058 F   0  0  0  0  0  0  0  0  0  0  0  0
  1  2  1  0  0  0  0
  1  5  2  0  0  0  0
  2  6  2  0  0  0  0
  3 10  2  0  0  0  0
  3 18  1  0  0  0  0
  4 11  1  0  0  0  0
  4 18  2  0  0  0  0
  5 20  1  0  0  0  0
  6 22  1  0  0  0  0
  7 12  2  0  0  0  0
  7 21  1  0  0  0  0
  8  9  2  0  0  0  0
  8 24  1  0  0  0  0
  9 26  1  0  0  0  0
 10 27  1  0  0  0  0
 11 27  2  0  0  0  0
 12 28  1  0  0  0  0
 13 14  2  0  0  0  0
 13 29  1  0  0  0  0
 14 30  1  0  0  0  0
 15 23  1  0  0  0  0
 15 28  2  0  0  0  0
 16 25  1  0  0  0  0
 16 26  2  0  0  0  0
 17 30  2  0  0  0  0
 17 31  1  0  0  0  0
 18 32  1  0  0  0  0
 19 32  1  0  0  0  0
 19 33  2  0  0  0  0
 19 35  1  0  0  0  0
 20 22  2  0  0  0  0
 20 40  1  0  0  0  0
 21 23  2  0  0  0  0
 21 41  1  0  0  0  0
 22 51  1  0  0  0  0
 23 42  1  0  0  0  0
 24 25  2  0  0  0  0
 24 65  1  0  0  0  0
 25 55  1  0  0  0  0
 26 72  1  0  0  0  0
 27 87  1  0  0  0  0
 28 88  1  0  0  0  0
 29 31  2  0  0  0  0
 29 87  1  0  0  0  0
 30 89  1  0  0  0  0
 31 90  1  0  0  0  0
 32 70  2  0  0  0  0
 33 71  1  0  0  0  0
 33 75  1  0  0  0  0
 34 52  1  0  0  0  0
 34 72  1  0  0  0  0
 34 81  2  0  0  0  0
 35 76  1  0  0  0  0
 35 82  2  0  0  0  0
 36 53  1  0  0  0  0
 36 77  1  0  0  0  0
 36 83  2  0  0  0  0
 37 66  1  0  0  0  0
 37 73  1  0  0  0  0
 37 84  2  0  0  0  0
 38 67  1  0  0  0  0
 38 78  1  0  0  0  0
 38 85  2  0  0  0  0
 39 74  1  0  0  0  0
 39 79  1  0  0  0  0
 39 86  2  0  0  0  0
 40 43  1  0  0  0  0
 41 53  1  0  0  0  0
 42 73  1  0  0  0  0
 43 45  1  0  0  0  0
 44 46  1  0  0  0  0
 44 48  1  0  0  0  0
 45 51  1  0  0  0  0
 46 54  1  0  0  0  0
 47 49  1  0  0  0  0
 47 52  1  0  0  0  0
 48 74  1  0  0  0  0
 49 72  1  0  0  0  0
 50 54  1  0  0  0  0
 50 74  1  0  0  0  0
 51 77  1  0  0  0  0
 52 64  1  0  0  0  0
 53 73  1  0  0  0  0
 54 71  1  0  0  0  0
 56 67  1  0  0  0  0
 57 68  1  0  0  0  0
 58 68  1  0  0  0  0
 59 68  1  0  0  0  0
 60 69  1  0  0  0  0
 61 69  1  0  0  0  0
 62 69  1  0  0  0  0
 63 80  1  0  0  0  0
 64 88  1  0  0  0  0
 65 68  1  0  0  0  0
 65 79  1  0  0  0  0
 66 69  1  0  0  0  0
 66 78  1  0  0  0  0
 67 80  1  0  0  0  0
 70 71  1  0  0  0  0
M  CHG  1  80   1
M  ISO  4  39 100  64 101  79 100  88 101
M  END
> <Batch ID>
0072

> <Smiles>
CNC(C)C(=O)NC(C(=O)N1Cc2cc([101O:1][101CH2:1]C3CCN(c4ccc(C([100NH:0][100C:0](=O)N5CCCC(n6nc(-c7ccc(Oc8ccc(F)cc8F)cc7)c(C(N)=O)c6N)C5)C(C)(C)C)c(C)c4)C3=O)ccc2CC1C(=O)NC1CCCc2ccccc21)C(C)(C)C

> <Shape>
0.184

> <Color>
0.193

> <Negative vol penalty>
0.000

$$$$

  -OEChem-04042323383D

 86 95  0     1  0  0  0  0  0999 V2000
  -24.9069  -35.1533   23.8710 C   0  0  0  0  0  0  0  0  0  0  0  0
  -25.6419  -34.0110   23.5704 C   0  0  0  0  0  0  0  0  0  0  0  0
  -24.1385  -14.0803   20.2478 C   0  0  0  0  0  0  0  0  0  0  0  0
  -25.9944  -14.2804   21.7816 C   0  0  0  0  0  0  0  0  0  0  0  0
  -23.5810  -35.0384   24.2868 C   0  0  0  0  0  0  0  0  0  0  0  0
  -25.0518  -32.7530   23.6865 C   0  0  0  0  0  0  0  0  0  0  0  0
  -26.0667  -29.7585   19.7308 C   0  0  0  0  0  0  0  0  0  0  0  0
  -24.3274  -12.6992   20.1993 C   0  0  0  0  0  0  0  0  0  0  0  0
  -26.1834  -12.8993   21.7331 C   0  0  0  0  0  0  0  0  0  0  0  0
  -27.3241  -29.1572   19.6935 C   0  0  0  0  0  0  0  0  0  0  0  0
  -24.0930   -9.0799   19.9531 C   0  0  0  0  0  0  0  0  0  0  0  0
  -22.9635   -8.2670   20.0487 C   0  0  0  0  0  0  0  0  0  0  0  0
  -26.3622  -27.1078   20.5264 C   0  0  0  0  0  0  0  0  0  0  0  0
  -30.0228  -23.0867   20.6640 C   0  0  0  0  0  0  0  0  0  0  0  0
  -30.5785  -21.1482   21.9946 C   0  0  0  0  0  0  0  0  0  0  0  0
  -22.4740   -9.2027   22.2217 C   0  0  0  0  0  0  0  0  0  0  0  0
  -24.9720  -14.8710   21.0389 C   0  0  0  0  0  0  0  0  0  0  0  0
  -23.9607  -17.0136   21.9844 C   0  0  0  0  0  0  0  0  0  0  0  0
  -22.9714  -33.7788   24.3988 C   0  0  0  0  0  0  0  0  0  0  0  0
  -24.9477  -29.0410   20.1774 C   0  0  0  0  0  0  0  0  0  0  0  0
  -23.7169  -32.6210   24.1055 C   0  0  0  0  0  0  0  0  0  0  0  0
  -25.0913  -27.7014   20.5661 C   0  0  0  0  0  0  0  0  0  0  0  0
  -31.3834  -23.3312   22.6453 C   0  0  0  0  0  0  0  0  0  0  0  0
  -30.7446  -23.8959   21.5414 C   0  0  0  0  0  0  0  0  0  0  0  0
  -29.9396  -21.7129   20.8906 C   0  0  0  0  0  0  0  0  0  0  0  0
  -25.3498  -12.1086   20.9420 C   0  0  0  0  0  0  0  0  0  0  0  0
  -27.4725  -27.8326   20.0940 C   0  0  0  0  0  0  0  0  0  0  0  0
  -24.4131   -9.9541   20.9919 C   0  0  0  0  0  0  0  0  0  0  0  0
  -22.1540   -8.3285   21.1829 C   0  0  0  0  0  0  0  0  0  0  0  0
  -31.3004  -21.9573   22.8719 C   0  0  0  0  0  0  0  0  0  0  0  0
  -23.6036  -10.0155   22.1261 C   0  0  0  0  0  0  0  0  0  0  0  0
  -24.7777  -16.2978   21.0889 C   0  0  0  0  0  0  0  0  0  0  0  0
  -24.1213  -18.3281   21.6199 C   0  0  0  0  0  0  0  0  0  0  0  0
  -30.4279  -26.3264   22.0315 C   0  0  0  0  0  0  0  0  0  0  0  0
  -23.1309  -16.5333   23.0504 C   0  0  0  0  0  0  0  0  0  0  0  0
  -22.8963  -29.3549   22.5850 C   0  0  0  0  0  0  0  0  0  0  0  0
  -21.3963  -26.8816   21.1169 C   0  0  0  0  0  0  0  0  0  0  0  0
  -21.6120  -24.1893   19.0309 C   0  0  0  0  0  0  0  0  0  0  0  0
  -28.5137  -21.2910   18.8571 C   0  0  0  0  0  0  0  0  0  0  0  0
  -21.5501  -33.7020   24.8976 C   0  0  0  0  0  0  0  0  0  0  0  0
  -23.5936  -29.6958   20.1864 C   0  0  0  0  0  0  0  0  0  0  0  0
  -23.9180  -26.8814   21.0344 C   0  0  0  0  0  0  0  0  0  0  0  0
  -20.8844  -32.3537   24.6346 C   0  0  0  0  0  0  0  0  0  0  0  0
  -25.1156  -21.0654   17.8183 C   0  0  0  0  0  0  0  0  0  0  0  0
  -21.8167  -31.2123   25.0277 C   0  0  0  0  0  0  0  0  0  0  0  0
  -24.5674  -19.8862   18.6251 C   0  0  0  0  0  0  0  0  0  0  0  0
  -26.5628  -20.8338   17.3874 C   0  0  0  0  0  0  0  0  0  0  0  0
  -26.9373  -19.3033   19.2812 C   0  0  0  0  0  0  0  0  0  0  0  0
  -31.3410  -25.9921   20.1624 C   0  0  0  0  0  0  0  0  0  0  0  0
  -23.1044  -31.2401   24.1954 C   0  0  1  0  0  0  0  0  0  0  0  0
  -22.6134  -29.0281   21.1460 C   0  0  1  0  0  0  0  0  0  0  0  0
  -25.5036  -19.5186   19.7929 C   0  0  2  0  0  0  0  0  0  0  0  0
  -30.9328  -27.2912   20.9201 C   0  0  2  0  0  0  0  0  0  0  0  0
  -32.1642  -24.1765   23.5989 C   0  0  0  0  0  0  0  0  0  0  0  0
  -32.1021  -28.1700   21.3507 C   0  0  0  0  0  0  0  0  0  0  0  0
  -20.2270  -22.3394   18.0525 C   0  0  0  0  0  0  0  0  0  0  0  0
  -21.4846  -25.4068   23.7866 C   0  0  0  0  0  0  0  0  0  0  0  0
  -20.9830  -23.2869   22.5527 C   0  0  0  0  0  0  0  0  0  0  0  0
  -19.3367  -25.1608   22.5294 C   0  0  0  0  0  0  0  0  0  0  0  0
  -22.1030  -25.1267   16.2670 C   0  0  0  0  0  0  0  0  0  0  0  0
  -29.8313  -28.0891   20.2559 C   0  0  0  0  0  0  0  0  0  1  0  0
  -21.4794  -25.3768   21.2049 C   0  0  1  0  0  0  0  0  0  0  0  0
  -20.7534  -23.7528   17.8575 C   0  0  2  0  0  0  0  0  0  0  0  0
  -20.8436  -24.8236   22.5115 C   0  0  0  0  0  0  0  0  0  0  0  0
  -25.4102  -17.0917   20.2207 N   0  0  0  0  0  0  0  0  0  0  0  0
  -24.9905  -18.3200   20.5690 N   0  0  0  0  0  0  0  0  0  0  0  0
  -30.8152  -25.2483   21.3016 N   0  0  0  0  0  0  0  0  0  0  0  0
  -22.6157  -27.5683   21.0312 N   0  0  0  0  0  0  0  0  0  0  0  0
  -27.3915  -20.4942   18.5462 N   0  0  0  0  0  0  0  0  0  0  0  0
  -23.6022  -19.4785   22.0990 N   0  0  0  0  0  0  0  0  0  0  0  0
  -23.0818  -15.1530   23.2888 N   0  0  0  0  0  0  0  0  0  0  0  0
  -29.2062  -20.8909   19.9995 N   0  0  0  0  0  0  0  0  0  0  0  0
  -22.8625  -30.7061   22.8722 N   0  0  0  0  0  0  0  0  0  0  0  0
  -20.8739  -24.8623   19.9814 N   0  0  0  0  0  0  0  0  0  0  0  0
  -21.5442  -23.7898   16.5949 N   0  3  0  0  0  0  0  0  0  0  0  0
  -29.9014  -26.4411   23.1149 O   0  0  0  0  0  0  0  0  0  0  0  0
  -22.4405  -17.3038   23.7597 O   0  0  0  0  0  0  0  0  0  0  0  0
  -23.1266  -28.4481   23.3765 O   0  0  0  0  0  0  0  0  0  0  0  0
  -20.2900  -27.4272   21.1168 O   0  0  0  0  0  0  0  0  0  0  0  0
  -22.8162  -23.9532   19.0993 O   0  0  0  0  0  0  0  0  0  0  0  0
  -28.8207  -22.2733   18.1768 O   0  0  0  0  0  0  0  0  0  0  0  0
  -25.5343  -10.7609   20.8952 O   0  0  0  0  0  0  0  0  0  0  0  0
  -28.6987  -27.2436   20.0592 O   0  0  0  0  0  0  0  0  0  1  0  0
  -21.0685   -7.5490   21.2739 F   0  0  0  0  0  0  0  0  0  0  0  0
  -31.9120  -21.4045   23.9289 F   0  0  0  0  0  0  0  0  0  0  0  0
  -23.9053  -10.8542   23.1268 F   0  0  0  0  0  0  0  0  0  0  0  0
  1  2  1  0  0  0  0
  1  5  2  0  0  0  0
  2  6  2  0  0  0  0
  3  8  2  0  0  0  0
  3 17  1  0  0  0  0
  4  9  1  0  0  0  0
  4 17  2  0  0  0  0
  5 19  1  0  0  0  0
  6 21  1  0  0  0  0
  7 10  2  0  0  0  0
  7 20  1  0  0  0  0
  8 26  1  0  0  0  0
  9 26  2  0  0  0  0
 10 27  1  0  0  0  0
 11 12  2  0  0  0  0
 11 28  1  0  0  0  0
 12 29  1  0  0  0  0
 13 22  1  0  0  0  0
 13 27  2  0  0  0  0
 14 24  1  0  0  0  0
 14 25  2  0  0  0  0
 15 25  1  0  0  0  0
 15 30  2  0  0  0  0
 16 29  2  0  0  0  0
 16 31  1  0  0  0  0
 17 32  1  0  0  0  0
 18 32  1  0  0  0  0
 18 33  2  0  0  0  0
 18 35  1  0  0  0  0
 19 21  2  0  0  0  0
 19 40  1  0  0  0  0
 20 22  2  0  0  0  0
 20 41  1  0  0  0  0
 21 50  1  0  0  0  0
 22 42  1  0  0  0  0
 23 24  2  0  0  0  0
 23 30  1  0  0  0  0
 23 54  1  0  0  0  0
 24 67  1  0  0  0  0
 25 72  1  0  0  0  0
 26 82  1  0  0  0  0
 27 83  1  0  0  0  0
 28 31  2  0  0  0  0
 28 82  1  0  0  0  0
 29 84  1  0  0  0  0
 30 85  1  0  0  0  0
 31 86  1  0  0  0  0
 32 65  2  0  0  0  0
 33 66  1  0  0  0  0
 33 70  1  0  0  0  0
 34 53  1  0  0  0  0
 34 67  1  0  0  0  0
 34 76  2  0  0  0  0
 35 71  1  0  0  0  0
 35 77  2  0  0  0  0
 36 51  1  0  0  0  0
 36 73  1  0  0  0  0
 36 78  2  0  0  0  0
 37 62  1  0  0  0  0
 37 68  1  0  0  0  0
 37 79  2  0  0  0  0
 38 63  1  0  0  0  0
 38 74  1  0  0  0  0
 38 80  2  0  0  0  0
 39 69  1  0  0  0  0
 39 72  1  0  0  0  0
 39 81  2  0  0  0  0
 40 43  1  0  0  0  0
 41 51  1  0  0  0  0
 42 68  1  0  0  0  0
 43 45  1  0  0  0  0
 44 46  1  0  0  0  0
 44 47  1  0  0  0  0
 45 50  1  0  0  0  0
 46 52  1  0  0  0  0
 47 69  1  0  0  0  0
 48 52  1  0  0  0  0
 48 69  1  0  0  0  0
 49 53  1  0  0  0  0
 49 67  1  0  0  0  0
 50 73  1  0  0  0  0
 51 68  1  0  0  0  0
 52 66  1  0  0  0  0
 53 55  1  0  0  0  0
 53 61  1  0  0  0  0
 56 63  1  0  0  0  0
 57 64  1  0  0  0  0
 58 64  1  0  0  0  0
 59 64  1  0  0  0  0
 60 75  1  0  0  0  0
 61 83  1  0  0  0  0
 62 64  1  0  0  0  0
 62 74  1  0  0  0  0
 63 75  1  0  0  0  0
 65 66  1  0  0  0  0
M  CHG  1  75   1
M  ISO  4  39 100  61 101  72 100  83 101
M  END
> <Batch ID>
0072

> <Smiles>
CNC(C)C(=O)NC(C(=O)N1Cc2cc([101O:1][101CH2:1]C3(C)CN(c4cc([100NH:0][100C:0](=O)N5CCCC(n6nc(-c7ccc(Oc8ccc(F)cc8F)cc7)c(C(N)=O)c6N)C5)cc(F)c4C)C3=O)ccc2CC1C(=O)NC1CCCc2ccccc21)C(C)(C)C

> <Shape>
0.231

> <Color>
0.090

> <Negative vol penalty>
0.000

$$$$

  -OEChem-04042323383D

 86 95  0     1  0  0  0  0  0999 V2000
  -26.9896  -36.8350   17.8025 C   0  0  0  0  0  0  0  0  0  0  0  0
  -27.6521  -35.7267   18.3206 C   0  0  0  0  0  0  0  0  0  0  0  0
  -24.3504   -9.7928   21.3982 C   0  0  0  0  0  0  0  0  0  0  0  0
  -24.8144  -10.8259   23.5323 C   0  0  0  0  0  0  0  0  0  0  0  0
  -25.7425  -37.1995   18.3082 C   0  0  0  0  0  0  0  0  0  0  0  0
  -27.0682  -34.9830   19.3455 C   0  0  0  0  0  0  0  0  0  0  0  0
  -27.4782  -28.9322   20.1972 C   0  0  0  0  0  0  0  0  0  0  0  0
  -28.1651  -21.1113   22.1565 C   0  0  0  0  0  0  0  0  0  0  0  0
  -27.9926  -19.8315   21.6293 C   0  0  0  0  0  0  0  0  0  0  0  0
  -23.9898   -8.6124   22.0480 C   0  0  0  0  0  0  0  0  0  0  0  0
  -24.4538   -9.6455   24.1821 C   0  0  0  0  0  0  0  0  0  0  0  0
  -28.2846  -28.1543   21.0268 C   0  0  0  0  0  0  0  0  0  0  0  0
  -21.3091   -7.4087   23.7208 C   0  0  0  0  0  0  0  0  0  0  0  0
  -20.1459   -6.7654   23.2981 C   0  0  0  0  0  0  0  0  0  0  0  0
  -30.3837  -19.6228   21.3535 C   0  0  0  0  0  0  0  0  0  0  0  0
  -26.5173  -28.0821   22.6670 C   0  0  0  0  0  0  0  0  0  0  0  0
  -21.4353   -4.7995   22.7415 C   0  0  0  0  0  0  0  0  0  0  0  0
  -24.7628  -10.8995   22.1403 C   0  0  0  0  0  0  0  0  0  0  0  0
  -30.5562  -20.9026   21.8807 C   0  0  0  0  0  0  0  0  0  0  0  0
  -24.2939  -13.1954   21.1319 C   0  0  0  0  0  0  0  0  0  0  0  0
  -25.1387  -36.4542   19.3332 C   0  0  0  0  0  0  0  0  0  0  0  0
  -26.1871  -29.3007   20.6016 C   0  0  0  0  0  0  0  0  0  0  0  0
  -25.8125  -35.3388   19.8663 C   0  0  0  0  0  0  0  0  0  0  0  0
  -25.6955  -28.8626   21.8396 C   0  0  0  0  0  0  0  0  0  0  0  0
  -29.4469  -21.6469   22.2822 C   0  0  0  0  0  0  0  0  0  0  0  0
  -29.1019  -19.0873   21.2278 C   0  0  0  0  0  0  0  0  0  0  0  0
  -24.0414   -8.5388   23.4399 C   0  0  0  0  0  0  0  0  0  0  0  0
  -27.8053  -27.7315   22.2631 C   0  0  0  0  0  0  0  0  0  0  0  0
  -22.5355   -6.7474   23.6537 C   0  0  0  0  0  0  0  0  0  0  0  0
  -20.2090   -5.4608   22.8085 C   0  0  0  0  0  0  0  0  0  0  0  0
  -22.5986   -5.4429   23.1641 C   0  0  0  0  0  0  0  0  0  0  0  0
  -25.1359  -12.1190   21.4696 C   0  0  0  0  0  0  0  0  0  0  0  0
  -25.1233  -14.0996   20.5147 C   0  0  0  0  0  0  0  0  0  0  0  0
  -28.6828  -23.8115   23.2571 C   0  0  0  0  0  0  0  0  0  0  0  0
  -31.9088  -21.4333   21.9988 C   0  0  0  0  0  0  0  0  0  0  0  0
  -22.8877  -13.3629   21.3560 C   0  0  0  0  0  0  0  0  0  0  0  0
  -24.7175  -32.0607   21.1732 C   0  0  0  0  0  0  0  0  0  0  0  0
  -22.1121  -30.1573   21.5063 C   0  0  0  0  0  0  0  0  0  0  0  0
  -20.8560  -27.0597   22.1946 C   0  0  0  0  0  0  0  0  0  0  0  0
  -29.9191  -16.9159   20.2461 C   0  0  0  0  0  0  0  0  0  0  0  0
  -23.8108  -36.9149   19.8801 C   0  0  0  0  0  0  0  0  0  0  0  0
  -25.3198  -30.1178   19.6837 C   0  0  0  0  0  0  0  0  0  0  0  0
  -24.3091  -29.2140   22.3117 C   0  0  0  0  0  0  0  0  0  0  0  0
  -23.0922  -35.8534   20.7090 C   0  0  0  0  0  0  0  0  0  0  0  0
  -29.8955  -13.6212   18.8965 C   0  0  0  0  0  0  0  0  0  0  0  0
  -24.0569  -35.2028   21.6953 C   0  0  0  0  0  0  0  0  0  0  0  0
  -28.5859  -13.0252   19.4178 C   0  0  0  0  0  0  0  0  0  0  0  0
  -30.5538  -14.5344   19.9292 C   0  0  0  0  0  0  0  0  0  0  0  0
  -30.7330  -23.8197   22.7941 C   0  0  0  0  0  0  0  0  0  0  0  0
  -28.3772  -14.9952   20.9871 C   0  0  0  0  0  0  0  0  0  0  0  0
  -25.2005  -34.4923   20.9613 C   0  0  1  0  0  0  0  0  0  0  0  0
  -29.7686  -24.9074   23.3322 C   0  0  1  0  0  0  0  0  0  0  0  0
  -24.2105  -30.8649   20.4177 C   0  0  1  0  0  0  0  0  0  0  0  0
  -27.6443  -14.1195   19.9577 C   0  0  2  0  0  0  0  0  0  0  0  0
  -18.6859  -25.8213   22.4285 C   0  0  0  0  0  0  0  0  0  0  0  0
  -21.6696  -31.4525   24.2333 C   0  0  0  0  0  0  0  0  0  0  0  0
  -20.1231  -29.5670   24.8003 C   0  0  0  0  0  0  0  0  0  0  0  0
  -19.5851  -31.0906   22.8998 C   0  0  0  0  0  0  0  0  0  0  0  0
  -21.5391  -25.2113   19.9865 C   0  0  0  0  0  0  0  0  0  0  0  0
  -29.5400  -26.1146   22.4435 C   0  0  0  0  0  0  0  0  0  1  0  0
  -21.4666  -29.4197   22.6545 C   0  0  1  0  0  0  0  0  0  0  0  0
  -19.8121  -26.2156   21.4857 C   0  0  2  0  0  0  0  0  0  0  0  0
  -20.7380  -30.3773   23.6392 C   0  0  0  0  0  0  0  0  0  0  0  0
  -26.4031  -12.3192   21.0977 N   0  0  0  0  0  0  0  0  0  0  0  0
  -26.3634  -13.5318   20.5198 N   0  0  0  0  0  0  0  0  0  0  0  0
  -29.5934  -22.9114   22.8052 N   0  0  0  0  0  0  0  0  0  0  0  0
  -23.5018  -30.0201   21.3811 N   0  0  0  0  0  0  0  0  0  0  0  0
  -29.6038  -15.5484   20.3921 N   0  0  0  0  0  0  0  0  0  0  0  0
  -24.9055  -15.3170   19.9735 N   0  0  0  0  0  0  0  0  0  0  0  0
  -32.5953  -21.1896   23.1829 N   0  0  0  0  0  0  0  0  0  0  0  0
  -22.1875  -12.3364   22.0043 N   0  0  0  0  0  0  0  0  0  0  0  0
  -28.9259  -17.7873   20.6922 N   0  0  0  0  0  0  0  0  0  0  0  0
  -24.7489  -33.2245   20.4290 N   0  0  0  0  0  0  0  0  0  0  0  0
  -20.6028  -28.4079   22.0558 N   0  0  0  0  0  0  0  0  0  0  0  0
  -20.4308  -24.9717   20.9464 N   0  3  0  0  0  0  0  0  0  0  0  0
  -27.4924  -23.7485   23.4649 O   0  0  0  0  0  0  0  0  0  0  0  0
  -32.4245  -22.0940   21.0826 O   0  0  0  0  0  0  0  0  0  0  0  0
  -22.2672  -14.3853   20.9775 O   0  0  0  0  0  0  0  0  0  0  0  0
  -25.0539  -31.9368   22.3450 O   0  0  0  0  0  0  0  0  0  0  0  0
  -21.4081  -30.8245   20.7441 O   0  0  0  0  0  0  0  0  0  0  0  0
  -21.7993  -26.5716   22.8130 O   0  0  0  0  0  0  0  0  0  0  0  0
  -30.9795  -17.2866   19.7362 O   0  0  0  0  0  0  0  0  0  0  0  0
  -23.6894   -7.3872   24.0744 O   0  0  0  0  0  0  0  0  0  0  0  0
  -28.5906  -26.9726   23.0751 O   0  0  0  0  0  0  0  0  0  1  0  0
  -19.0916   -4.8426   22.4042 F   0  0  0  0  0  0  0  0  0  0  0  0
  -23.7737   -4.8021   23.0984 F   0  0  0  0  0  0  0  0  0  0  0  0
  1  2  1  0  0  0  0
  1  5  2  0  0  0  0
  2  6  2  0  0  0  0
  3 10  2  0  0  0  0
  3 18  1  0  0  0  0
  4 11  1  0  0  0  0
  4 18  2  0  0  0  0
  5 21  1  0  0  0  0
  6 23  1  0  0  0  0
  7 12  2  0  0  0  0
  7 22  1  0  0  0  0
  8  9  2  0  0  0  0
  8 25  1  0  0  0  0
  9 26  1  0  0  0  0
 10 27  1  0  0  0  0
 11 27  2  0  0  0  0
 12 28  1  0  0  0  0
 13 14  2  0  0  0  0
 13 29  1  0  0  0  0
 14 30  1  0  0  0  0
 15 19  1  0  0  0  0
 15 26  2  0  0  0  0
 16 24  1  0  0  0  0
 16 28  2  0  0  0  0
 17 30  2  0  0  0  0
 17 31  1  0  0  0  0
 18 32  1  0  0  0  0
 19 25  2  0  0  0  0
 19 35  1  0  0  0  0
 20 32  1  0  0  0  0
 20 33  2  0  0  0  0
 20 36  1  0  0  0  0
 21 23  2  0  0  0  0
 21 41  1  0  0  0  0
 22 24  2  0  0  0  0
 22 42  1  0  0  0  0
 23 51  1  0  0  0  0
 24 43  1  0  0  0  0
 25 66  1  0  0  0  0
 26 72  1  0  0  0  0
 27 83  1  0  0  0  0
 28 84  1  0  0  0  0
 29 31  2  0  0  0  0
 29 83  1  0  0  0  0
 30 85  1  0  0  0  0
 31 86  1  0  0  0  0
 32 64  2  0  0  0  0
 33 65  1  0  0  0  0
 33 69  1  0  0  0  0
 34 52  1  0  0  0  0
 34 66  1  0  0  0  0
 34 76  2  0  0  0  0
 35 70  1  0  0  0  0
 35 77  2  0  0  0  0
 36 71  1  0  0  0  0
 36 78  2  0  0  0  0
 37 53  1  0  0  0  0
 37 73  1  0  0  0  0
 37 79  2  0  0  0  0
 38 61  1  0  0  0  0
 38 67  1  0  0  0  0
 38 80  2  0  0  0  0
 39 62  1  0  0  0  0
 39 74  1  0  0  0  0
 39 81  2  0  0  0  0
 40 68  1  0  0  0  0
 40 72  1  0  0  0  0
 40 82  2  0  0  0  0
 41 44  1  0  0  0  0
 42 53  1  0  0  0  0
 43 67  1  0  0  0  0
 44 46  1  0  0  0  0
 45 47  1  0  0  0  0
 45 48  1  0  0  0  0
 46 51  1  0  0  0  0
 47 54  1  0  0  0  0
 48 68  1  0  0  0  0
 49 52  1  0  0  0  0
 49 66  1  0  0  0  0
 50 54  1  0  0  0  0
 50 68  1  0  0  0  0
 51 73  1  0  0  0  0
 52 60  1  0  0  0  0
 53 67  1  0  0  0  0
 54 65  1  0  0  0  0
 55 62  1  0  0  0  0
 56 63  1  0  0  0  0
 57 63  1  0  0  0  0
 58 63  1  0  0  0  0
 59 75  1  0  0  0  0
 60 84  1  0  0  0  0
 61 63  1  0  0  0  0
 61 74  1  0  0  0  0
 62 75  1  0  0  0  0
 64 65  1  0  0  0  0
M  CHG  1  75   1
M  ISO  4  40 100  60 101  72 100  84 101
M  END
> <Batch ID>
0072

> <Smiles>
CNC(C)C(=O)NC(C(=O)N1Cc2cc([101O:1][101CH2:1]C3CN(c4ccc([100NH:0][100C:0](=O)N5CCCC(n6nc(-c7ccc(Oc8ccc(F)cc8F)cc7)c(C(N)=O)c6N)C5)cc4C(N)=O)C3=O)ccc2CC1C(=O)NC1CCCc2ccccc21)C(C)(C)C

> <Shape>
0.282

> <Color>
0.119

> <Negative vol penalty>
0.000

$$$$

  -OEChem-04042323383D

 87 96  0     1  0  0  0  0  0999 V2000
  -27.4914  -11.0681   19.4945 C   0  0  0  0  0  0  0  0  0  0  0  0
  -28.0810  -12.2764   19.1371 C   0  0  0  0  0  0  0  0  0  0  0  0
  -20.5852  -27.0483   22.4039 C   0  0  0  0  0  0  0  0  0  0  0  0
  -19.0395  -28.8927   22.6183 C   0  0  0  0  0  0  0  0  0  0  0  0
  -30.2859  -28.1922   22.5338 C   0  0  0  0  0  0  0  0  0  0  0  0
  -26.1494  -11.0330   19.8710 C   0  0  0  0  0  0  0  0  0  0  0  0
  -27.3285  -13.4502   19.1548 C   0  0  0  0  0  0  0  0  0  0  0  0
  -29.2959  -19.0624   20.6171 C   0  0  0  0  0  0  0  0  0  0  0  0
  -30.5687  -27.2427   21.5519 C   0  0  0  0  0  0  0  0  0  0  0  0
  -19.5500  -26.1505   22.6646 C   0  0  0  0  0  0  0  0  0  0  0  0
  -18.0043  -27.9949   22.8789 C   0  0  0  0  0  0  0  0  0  0  0  0
  -29.6976  -20.1478   19.8396 C   0  0  0  0  0  0  0  0  0  0  0  0
  -17.3853  -23.3924   23.6293 C   0  0  0  0  0  0  0  0  0  0  0  0
  -17.6358  -22.3541   24.5263 C   0  0  0  0  0  0  0  0  0  0  0  0
  -27.4789  -21.0800   20.0055 C   0  0  0  0  0  0  0  0  0  0  0  0
  -29.1567  -28.4332   19.9942 C   0  0  0  0  0  0  0  0  0  0  0  0
  -18.1136  -23.9672   26.2603 C   0  0  0  0  0  0  0  0  0  0  0  0
  -20.3300  -28.4194   22.3808 C   0  0  0  0  0  0  0  0  0  0  0  0
  -29.4385  -29.2622   22.2459 C   0  0  0  0  0  0  0  0  0  0  0  0
  -21.8060  -29.8347   20.8557 C   0  0  0  0  0  0  0  0  0  0  0  0
  -25.3827  -12.2085   19.9027 C   0  0  0  0  0  0  0  0  0  0  0  0
  -27.9775  -18.9721   21.0863 C   0  0  0  0  0  0  0  0  0  0  0  0
  -25.9746  -13.4306   19.5308 C   0  0  0  0  0  0  0  0  0  0  0  0
  -27.0637  -19.9938   20.7909 C   0  0  0  0  0  0  0  0  0  0  0  0
  -28.8740  -29.3826   20.9761 C   0  0  0  0  0  0  0  0  0  0  0  0
  -30.0041  -27.3632   20.2821 C   0  0  0  0  0  0  0  0  0  0  0  0
  -18.2596  -26.6238   22.9020 C   0  0  0  0  0  0  0  0  0  0  0  0
  -28.7883  -21.1553   19.5312 C   0  0  0  0  0  0  0  0  0  0  0  0
  -17.4990  -24.7182   24.0477 C   0  0  0  0  0  0  0  0  0  0  0  0
  -18.0000  -22.6415   25.8418 C   0  0  0  0  0  0  0  0  0  0  0  0
  -17.8631  -25.0056   25.3632 C   0  0  0  0  0  0  0  0  0  0  0  0
  -21.3990  -29.3474   22.1122 C   0  0  0  0  0  0  0  0  0  0  0  0
  -22.8518  -30.6794   21.1374 C   0  0  0  0  0  0  0  0  0  0  0  0
  -31.4090  -24.5377   17.5510 C   0  0  0  0  0  0  0  0  0  0  0  0
  -30.6732  -24.0792   18.5772 C   0  0  0  0  0  0  0  0  0  0  0  0
  -29.1553  -30.2589   23.3104 C   0  0  0  0  0  0  0  0  0  0  0  0
  -21.2853  -29.5494   19.5507 C   0  0  0  0  0  0  0  0  0  0  0  0
  -25.5826  -16.9247   20.6669 C   0  0  0  0  0  0  0  0  0  0  0  0
  -24.1371  -18.7567   22.9200 C   0  0  0  0  0  0  0  0  0  0  0  0
  -23.9138  -21.7780   24.4912 C   0  0  0  0  0  0  0  0  0  0  0  0
  -27.3407  -31.2377   24.6789 C   0  0  0  0  0  0  0  0  0  0  0  0
  -23.9232  -12.1135   20.2709 C   0  0  0  0  0  0  0  0  0  0  0  0
  -27.5672  -17.8083   21.9462 C   0  0  0  0  0  0  0  0  0  0  0  0
  -25.6422  -19.9542   21.2872 C   0  0  0  0  0  0  0  0  0  0  0  0
  -31.5279  -25.9942   17.2288 C   0  0  0  0  0  0  0  0  0  0  0  0
  -29.9383  -25.0009   19.5237 C   0  0  0  0  0  0  0  0  0  0  0  0
  -23.2953  -13.4594   20.6240 C   0  0  0  0  0  0  0  0  0  0  0  0
  -24.3822  -33.1088   25.1721 C   0  0  0  0  0  0  0  0  0  0  0  0
  -23.6798  -14.5150   19.5922 C   0  0  0  0  0  0  0  0  0  0  0  0
  -23.3487  -32.3856   24.3043 C   0  0  0  0  0  0  0  0  0  0  0  0
  -30.4473  -26.8355   17.9061 C   0  0  0  0  0  0  0  0  0  0  0  0
  -25.3431  -32.1295   25.8450 C   0  0  0  0  0  0  0  0  0  0  0  0
  -24.9682  -30.4597   24.0760 C   0  0  0  0  0  0  0  0  0  0  0  0
  -25.1980  -14.7291   19.5614 C   0  0  1  0  0  0  0  0  0  0  0  0
  -26.0616  -17.5625   21.9402 C   0  0  1  0  0  0  0  0  0  0  0  0
  -24.0213  -31.4066   23.3211 C   0  0  1  0  0  0  0  0  0  0  0  0
  -27.9639  -30.5192   20.6413 C   0  0  0  0  0  0  0  0  0  0  0  0
  -22.6115  -22.9845   26.2648 C   0  0  0  0  0  0  0  0  0  0  0  0
  -21.7963  -19.0659   20.9875 C   0  0  0  0  0  0  0  0  0  0  0  0
  -20.9964  -20.9910   22.3740 C   0  0  0  0  0  0  0  0  0  0  0  0
  -21.1388  -18.7101   23.3741 C   0  0  0  0  0  0  0  0  0  0  0  0
  -26.3340  -22.2078   26.1395 C   0  0  0  0  0  0  0  0  0  0  0  0
  -30.5457  -22.6110   18.8617 C   0  0  0  0  0  0  0  0  0  1  0  0
  -23.2666  -19.9899   22.8980 C   0  0  1  0  0  0  0  0  0  0  0  0
  -23.8433  -22.1456   25.9624 C   0  0  2  0  0  0  0  0  0  0  0  0
  -21.8257  -19.6893   22.3973 C   0  0  0  0  0  0  0  0  0  0  0  0
  -22.1269  -29.8413   23.1173 N   0  0  0  0  0  0  0  0  0  0  0  0
  -23.0019  -30.6477   22.4927 N   0  0  0  0  0  0  0  0  0  0  0  0
  -30.2860  -26.4111   19.2996 N   0  0  1  0  0  0  0  0  0  0  0  0
  -25.2874  -18.7925   22.1192 N   0  0  0  0  0  0  0  0  0  0  0  0
  -25.9449  -31.2450   24.8457 N   0  0  0  0  0  0  0  0  0  0  0  0
  -23.6484  -31.4388   20.3556 N   0  0  0  0  0  0  0  0  0  0  0  0
  -20.2086  -28.6589   19.4409 N   0  0  0  0  0  0  0  0  0  0  0  0
  -27.8139  -30.3908   23.6705 N   0  0  0  0  0  0  0  0  0  0  0  0
  -25.6164  -15.5434   20.6822 N   0  0  0  0  0  0  0  0  0  0  0  0
  -23.3265  -20.5558   24.2414 N   0  0  0  0  0  0  0  0  0  0  0  0
  -25.0508  -22.9230   26.3605 N   0  3  0  0  0  0  0  0  0  0  0  0
  -30.0906  -30.8642   23.8270 O   0  0  0  0  0  0  0  0  0  0  0  0
  -21.7714  -30.0561   18.5112 O   0  0  0  0  0  0  0  0  0  0  0  0
  -25.2086  -17.6333   19.7397 O   0  0  0  0  0  0  0  0  0  0  0  0
  -23.8124  -17.7998   23.6274 O   0  0  0  0  0  0  0  0  0  0  0  0
  -24.4343  -22.5044   23.6474 O   0  0  0  0  0  0  0  0  0  0  0  0
  -28.0977  -31.9519   25.3440 O   0  0  0  0  0  0  0  0  0  0  0  0
  -17.2492  -25.7480   23.1562 O   0  0  0  0  0  0  0  0  0  0  0  0
  -29.1775  -22.2154   18.7720 O   0  0  0  0  0  0  0  0  0  1  0  0
  -18.2390  -21.6442   26.7035 F   0  0  0  0  0  0  0  0  0  0  0  0
  -17.9728  -26.2773   25.7713 F   0  0  0  0  0  0  0  0  0  0  0  0
  1  2  1  0  0  0  0
  1  6  2  0  0  0  0
  2  7  2  0  0  0  0
  3 10  2  0  0  0  0
  3 18  1  0  0  0  0
  4 11  1  0  0  0  0
  4 18  2  0  0  0  0
  5  9  2  0  0  0  0
  5 19  1  0  0  0  0
  6 21  1  0  0  0  0
  7 23  1  0  0  0  0
  8 12  2  0  0  0  0
  8 22  1  0  0  0  0
  9 26  1  0  0  0  0
 10 27  1  0  0  0  0
 11 27  2  0  0  0  0
 12 28  1  0  0  0  0
 13 14  2  0  0  0  0
 13 29  1  0  0  0  0
 14 30  1  0  0  0  0
 15 24  1  0  0  0  0
 15 28  2  0  0  0  0
 16 25  1  0  0  0  0
 16 26  2  0  0  0  0
 17 30  2  0  0  0  0
 17 31  1  0  0  0  0
 18 32  1  0  0  0  0
 19 25  2  0  0  0  0
 19 36  1  0  0  0  0
 20 32  1  0  0  0  0
 20 33  2  0  0  0  0
 20 37  1  0  0  0  0
 21 23  2  0  0  0  0
 21 42  1  0  0  0  0
 22 24  2  0  0  0  0
 22 43  1  0  0  0  0
 23 54  1  0  0  0  0
 24 44  1  0  0  0  0
 25 57  1  0  0  0  0
 26 69  1  0  0  0  0
 27 84  1  0  0  0  0
 28 85  1  0  0  0  0
 29 31  2  0  0  0  0
 29 84  1  0  0  0  0
 30 86  1  0  0  0  0
 31 87  1  0  0  0  0
 32 67  2  0  0  0  0
 33 68  1  0  0  0  0
 33 72  1  0  0  0  0
 34 35  2  0  0  0  0
 34 45  1  0  0  0  0
 35 46  1  0  0  0  0
 35 63  1  0  0  0  0
 36 74  1  0  0  0  0
 36 78  2  0  0  0  0
 37 73  1  0  0  0  0
 37 79  2  0  0  0  0
 38 55  1  0  0  0  0
 38 75  1  0  0  0  0
 38 80  2  0  0  0  0
 39 64  1  0  0  0  0
 39 70  1  0  0  0  0
 39 81  2  0  0  0  0
 40 65  1  0  0  0  0
 40 76  1  0  0  0  0
 40 82  2  0  0  0  0
 41 71  1  0  0  0  0
 41 74  1  0  0  0  0
 41 83  2  0  0  0  0
 42 47  1  0  0  0  0
 43 55  1  0  0  0  0
 44 70  1  0  0  0  0
 45 51  1  0  0  0  0
 46 69  1  0  0  0  0
 47 49  1  0  0  0  0
 48 50  1  0  0  0  0
 48 52  1  0  0  0  0
 49 54  1  0  0  0  0
 50 56  1  0  0  0  0
 51 69  1  0  0  0  0
 52 71  1  0  0  0  0
 53 56  1  0  0  0  0
 53 71  1  0  0  0  0
 54 75  1  0  0  0  0
 55 70  1  0  0  0  0
 56 68  1  0  0  0  0
 58 65  1  0  0  0  0
 59 66  1  0  0  0  0
 60 66  1  0  0  0  0
 61 66  1  0  0  0  0
 62 77  1  0  0  0  0
 63 85  1  0  0  0  0
 64 66  1  0  0  0  0
 64 76  1  0  0  0  0
 65 77  1  0  0  0  0
 67 68  1  0  0  0  0
M  CHG  1  77   1
M  ISO  4  41 100  63 101  74 100  85 101
M  END
> <Batch ID>
0072

> <Smiles>
CNC(C)C(=O)NC(C(=O)N1Cc2cc([101O:1][101CH2:1]C3=CCCN(c4ccc(C(=O)[100NH:0][100C:0](=O)N5CCCC(n6nc(-c7ccc(Oc8ccc(F)cc8F)cc7)c(C(N)=O)c6N)C5)c(C)c4)C3)ccc2CC1C(=O)NC1CCCc2ccccc21)C(C)(C)C

> <Shape>
0.275

> <Color>
0.048

> <Negative vol penalty>
0.000

$$$$

  -OEChem-04042323383D

 87 96  0     1  0  0  0  0  0999 V2000
  -17.6762  -26.3159   18.5910 C   0  0  0  0  0  0  0  0  0  0  0  0
  -17.9389  -25.0311   18.1264 C   0  0  0  0  0  0  0  0  0  0  0  0
  -27.8573  -23.7630   20.9349 C   0  0  0  0  0  0  0  0  0  0  0  0
  -28.2875  -23.4056   18.5846 C   0  0  0  0  0  0  0  0  0  0  0  0
  -18.2585  -26.7594   19.7777 C   0  0  0  0  0  0  0  0  0  0  0  0
  -18.7849  -24.1894   18.8477 C   0  0  0  0  0  0  0  0  0  0  0  0
  -19.7608  -17.2692   20.4204 C   0  0  0  0  0  0  0  0  0  0  0  0
  -27.8782  -25.1424   20.7290 C   0  0  0  0  0  0  0  0  0  0  0  0
  -28.3084  -24.7850   18.3786 C   0  0  0  0  0  0  0  0  0  0  0  0
  -20.7507  -16.2877   20.3935 C   0  0  0  0  0  0  0  0  0  0  0  0
  -25.7892  -27.5132   19.5255 C   0  0  0  0  0  0  0  0  0  0  0  0
  -24.7829  -28.2729   20.1220 C   0  0  0  0  0  0  0  0  0  0  0  0
  -21.6374  -17.1337   22.4713 C   0  0  0  0  0  0  0  0  0  0  0  0
  -27.9049  -13.0312   19.5087 C   0  0  0  0  0  0  0  0  0  0  0  0
  -29.9346  -11.9480   20.2462 C   0  0  0  0  0  0  0  0  0  0  0  0
  -23.6314  -12.0199   20.8547 C   0  0  0  0  0  0  0  0  0  0  0  0
  -27.8182  -11.3626   21.2539 C   0  0  0  0  0  0  0  0  0  0  0  0
  -26.4501  -29.5145   21.3533 C   0  0  0  0  0  0  0  0  0  0  0  0
  -28.0620  -22.8946   19.8627 C   0  0  0  0  0  0  0  0  0  0  0  0
  -26.9247  -20.6152   20.0003 C   0  0  0  0  0  0  0  0  0  0  0  0
  -19.1044  -25.9193   20.5189 C   0  0  0  0  0  0  0  0  0  0  0  0
  -19.7084  -18.1986   21.4691 C   0  0  0  0  0  0  0  0  0  0  0  0
  -19.3801  -24.6226   20.0447 C   0  0  0  0  0  0  0  0  0  0  0  0
  -20.6444  -18.1243   22.5105 C   0  0  0  0  0  0  0  0  0  0  0  0
  -29.2869  -12.8653   19.4187 C   0  0  0  0  0  0  0  0  0  0  0  0
  -23.7673  -13.3730   20.4577 C   0  0  0  0  0  0  0  0  0  0  0  0
  -27.1705  -12.2799   20.4264 C   0  0  0  0  0  0  0  0  0  0  0  0
  -29.2003  -11.1967   21.1638 C   0  0  0  0  0  0  0  0  0  0  0  0
  -28.1037  -25.6534   19.4509 C   0  0  0  0  0  0  0  0  0  0  0  0
  -21.6909  -16.2217   21.4175 C   0  0  0  0  0  0  0  0  0  0  0  0
  -27.1259  -27.7540   19.8431 C   0  0  0  0  0  0  0  0  0  0  0  0
  -25.1133  -29.2736   21.0358 C   0  0  0  0  0  0  0  0  0  0  0  0
  -27.4564  -28.7547   20.7569 C   0  0  0  0  0  0  0  0  0  0  0  0
  -28.0412  -21.4696   20.0749 C   0  0  0  0  0  0  0  0  0  0  0  0
  -27.4273  -19.3682   20.2811 C   0  0  0  0  0  0  0  0  0  0  0  0
  -24.8943  -11.4708   20.8833 C   0  0  0  0  0  0  0  0  0  0  0  0
  -25.1092  -13.6096   20.2557 C   0  0  0  0  0  0  0  0  0  0  0  0
  -25.5558  -20.9215   19.7036 C   0  0  0  0  0  0  0  0  0  0  0  0
  -19.9614  -21.3602   21.6792 C   0  0  0  0  0  0  0  0  0  0  0  0
  -19.1696  -20.8272   24.7794 C   0  0  0  0  0  0  0  0  0  0  0  0
  -19.0835  -18.6630   27.4168 C   0  0  0  0  0  0  0  0  0  0  0  0
  -31.3359  -15.4375   19.6345 C   0  0  0  0  0  0  0  0  0  0  0  0
  -19.7482  -26.4595   21.7712 C   0  0  0  0  0  0  0  0  0  0  0  0
  -18.6181  -19.2345   21.4973 C   0  0  0  0  0  0  0  0  0  0  0  0
  -20.6192  -19.0859   23.6695 C   0  0  0  0  0  0  0  0  0  0  0  0
  -20.3357  -25.3750   22.6706 C   0  0  0  0  0  0  0  0  0  0  0  0
  -31.9477  -17.9656   22.0658 C   0  0  0  0  0  0  0  0  0  0  0  0
  -21.1515  -24.3830   21.8476 C   0  0  0  0  0  0  0  0  0  0  0  0
  -30.8983  -19.0342   21.7544 C   0  0  0  0  0  0  0  0  0  0  0  0
  -32.4763  -17.3062   20.7939 C   0  0  0  0  0  0  0  0  0  0  0  0
  -30.3877  -17.8241   19.5925 C   0  0  0  0  0  0  0  0  0  0  0  0
  -20.2727  -23.6714   20.8118 C   0  0  1  0  0  0  0  0  0  0  0  0
  -18.9709  -20.4501   22.3488 C   0  0  1  0  0  0  0  0  0  0  0  0
  -29.7842  -18.4784   20.8471 C   0  0  2  0  0  0  0  0  0  0  0  0
  -18.4146  -18.5260   29.8315 C   0  0  0  0  0  0  0  0  0  0  0  0
  -21.6625  -22.4054   25.5570 C   0  0  0  0  0  0  0  0  0  0  0  0
  -21.4683  -21.4432   27.8602 C   0  0  0  0  0  0  0  0  0  0  0  0
  -19.6455  -22.8858   26.9552 C   0  0  0  0  0  0  0  0  0  0  0  0
  -17.1095  -16.5271   26.8689 C   0  0  0  0  0  0  0  0  0  0  0  0
  -30.0718  -13.6688   18.4376 C   0  0  0  0  0  0  0  0  0  0  0  0
  -22.6513  -14.3617   20.2888 C   0  0  0  0  0  0  0  0  0  1  0  0
  -19.9405  -20.5450   26.0464 C   0  0  1  0  0  0  0  0  0  0  0  0
  -17.9759  -18.3071   28.3920 C   0  0  2  0  0  0  0  0  0  0  0  0
  -20.6811  -21.8028   26.5820 C   0  0  0  0  0  0  0  0  0  0  0  0
  -29.1679  -20.8202   20.3794 N   0  0  0  0  0  0  0  0  0  0  0  0
  -25.7846  -12.4462   20.5171 N   0  0  0  0  0  0  0  0  0  0  0  0
  -28.7621  -19.5446   20.4987 N   0  0  0  0  0  0  0  0  0  0  0  0
  -19.5377  -20.0846   23.6485 N   0  0  0  0  0  0  0  0  0  0  0  0
  -31.3697  -16.7989   19.9790 N   0  0  0  0  0  0  0  0  0  0  0  0
  -29.8553  -10.2695   22.0013 N   0  0  0  0  0  0  0  0  0  0  0  0
  -26.8532  -18.1490   20.3607 N   0  0  0  0  0  0  0  0  0  0  0  0
  -25.2116  -22.2540   19.4387 N   0  0  0  0  0  0  0  0  0  0  0  0
  -19.4843  -22.6355   21.4442 N   0  0  0  0  0  0  0  0  0  0  0  0
  -18.9846  -19.9691   26.9860 N   0  0  0  0  0  0  0  0  0  0  0  0
  -30.2494  -15.0384   18.8657 N   0  0  0  0  0  0  0  0  0  0  0  0
  -17.5844  -16.8780   28.2321 N   0  3  0  0  0  0  0  0  0  0  0  0
  -24.6614  -20.0421   19.6904 O   0  0  0  0  0  0  0  0  0  0  0  0
  -21.0766  -20.9370   21.3980 O   0  0  0  0  0  0  0  0  0  0  0  0
  -18.2692  -21.6702   24.7944 O   0  0  0  0  0  0  0  0  0  0  0  0
  -19.9519  -17.8635   27.0744 O   0  0  0  0  0  0  0  0  0  0  0  0
  -32.2064  -14.6360   19.9906 O   0  0  0  0  0  0  0  0  0  0  0  0
  -25.2919  -10.2421   21.1914 O   0  0  0  0  0  0  0  0  0  0  0  0
  -25.7455  -14.7123   19.8772 O   0  0  0  0  0  0  0  0  0  0  0  0
  -28.1239  -26.9994   19.2495 O   0  0  0  0  0  0  0  0  0  0  0  0
  -22.6586  -15.2651   21.3934 O   0  0  0  0  0  0  0  0  0  1  0  0
  -24.1470  -30.0042   21.6073 F   0  0  0  0  0  0  0  0  0  0  0  0
  -28.7389  -28.9914   21.0650 F   0  0  0  0  0  0  0  0  0  0  0  0
  1  2  1  0  0  0  0
  1  5  2  0  0  0  0
  2  6  2  0  0  0  0
  3  8  2  0  0  0  0
  3 19  1  0  0  0  0
  4  9  1  0  0  0  0
  4 19  2  0  0  0  0
  5 21  1  0  0  0  0
  6 23  1  0  0  0  0
  7 10  2  0  0  0  0
  7 22  1  0  0  0  0
  8 29  1  0  0  0  0
  9 29  2  0  0  0  0
 10 30  1  0  0  0  0
 11 12  2  0  0  0  0
 11 31  1  0  0  0  0
 12 32  1  0  0  0  0
 13 24  1  0  0  0  0
 13 30  2  0  0  0  0
 14 25  1  0  0  0  0
 14 27  2  0  0  0  0
 15 25  2  0  0  0  0
 15 28  1  0  0  0  0
 16 26  1  0  0  0  0
 16 36  2  0  0  0  0
 17 27  1  0  0  0  0
 17 28  2  0  0  0  0
 18 32  2  0  0  0  0
 18 33  1  0  0  0  0
 19 34  1  0  0  0  0
 20 34  1  0  0  0  0
 20 35  2  0  0  0  0
 20 38  1  0  0  0  0
 21 23  2  0  0  0  0
 21 43  1  0  0  0  0
 22 24  2  0  0  0  0
 22 44  1  0  0  0  0
 23 52  1  0  0  0  0
 24 45  1  0  0  0  0
 25 60  1  0  0  0  0
 26 37  2  0  0  0  0
 26 61  1  0  0  0  0
 27 66  1  0  0  0  0
 28 70  1  0  0  0  0
 29 84  1  0  0  0  0
 30 85  1  0  0  0  0
 31 33  2  0  0  0  0
 31 84  1  0  0  0  0
 32 86  1  0  0  0  0
 33 87  1  0  0  0  0
 34 65  2  0  0  0  0
 35 67  1  0  0  0  0
 35 71  1  0  0  0  0
 36 66  1  0  0  0  0
 36 82  1  0  0  0  0
 37 66  1  0  0  0  0
 37 83  1  0  0  0  0
 38 72  1  0  0  0  0
 38 77  2  0  0  0  0
 39 53  1  0  0  0  0
 39 73  1  0  0  0  0
 39 78  2  0  0  0  0
 40 62  1  0  0  0  0
 40 68  1  0  0  0  0
 40 79  2  0  0  0  0
 41 63  1  0  0  0  0
 41 74  1  0  0  0  0
 41 80  2  0  0  0  0
 42 69  1  0  0  0  0
 42 75  1  0  0  0  0
 42 81  2  0  0  0  0
 43 46  1  0  0  0  0
 44 53  1  0  0  0  0
 45 68  1  0  0  0  0
 46 48  1  0  0  0  0
 47 49  1  0  0  0  0
 47 50  1  0  0  0  0
 48 52  1  0  0  0  0
 49 54  1  0  0  0  0
 50 69  1  0  0  0  0
 51 54  1  0  0  0  0
 51 69  1  0  0  0  0
 52 73  1  0  0  0  0
 53 68  1  0  0  0  0
 54 67  1  0  0  0  0
 55 63  1  0  0  0  0
 56 64  1  0  0  0  0
 57 64  1  0  0  0  0
 58 64  1  0  0  0  0
 59 76  1  0  0  0  0
 60 75  1  0  0  0  0
 61 85  1  0  0  0  0
 62 64  1  0  0  0  0
 62 74  1  0  0  0  0
 63 76  1  0  0  0  0
 65 67  1  0  0  0  0
M  CHG  1  76   1
M  ISO  4  42 100  61 101  75 100  85 101
M  END
> <Batch ID>
0072

> <Smiles>
CNC(C)C(=O)NC(C(=O)N1Cc2cc([101O:1][101CH2:1]C3CC(=O)N(c4cc(N)cc(C[100NH:0][100C:0](=O)N5CCCC(n6nc(-c7ccc(Oc8ccc(F)cc8F)cc7)c(C(N)=O)c6N)C5)c4)C3=O)ccc2CC1C(=O)NC1CCCc2ccccc21)C(C)(C)C

> <Shape>
0.215

> <Color>
0.095

> <Negative vol penalty>
0.000

$$$$

  -OEChem-04042323383D

 87 96  0     1  0  0  0  0  0999 V2000
  -20.3401  -23.4007   22.8809 C   0  0  0  0  0  0  0  0  0  0  0  0
  -21.4833  -23.8186   22.2073 C   0  0  0  0  0  0  0  0  0  0  0  0
  -24.3224  -13.1267   21.5825 C   0  0  0  0  0  0  0  0  0  0  0  0
  -25.9700  -13.1823   19.8163 C   0  0  0  0  0  0  0  0  0  0  0  0
  -19.3668  -24.3309   23.2435 C   0  0  0  0  0  0  0  0  0  0  0  0
  -21.6535  -25.1668   21.8948 C   0  0  0  0  0  0  0  0  0  0  0  0
  -26.3311  -26.8209   22.9090 C   0  0  0  0  0  0  0  0  0  0  0  0
  -23.8335  -11.9174   21.0884 C   0  0  0  0  0  0  0  0  0  0  0  0
  -25.4812  -11.9729   19.3222 C   0  0  0  0  0  0  0  0  0  0  0  0
  -27.3345  -26.4908   21.9991 C   0  0  0  0  0  0  0  0  0  0  0  0
  -21.8266  -10.8841   18.5727 C   0  0  0  0  0  0  0  0  0  0  0  0
  -20.4431  -10.7380   18.4716 C   0  0  0  0  0  0  0  0  0  0  0  0
  -27.1665  -28.6913   21.0249 C   0  0  0  0  0  0  0  0  0  0  0  0
  -28.1339  -22.4854   17.8711 C   0  0  0  0  0  0  0  0  0  0  0  0
  -20.5323   -8.8508   19.9774 C   0  0  0  0  0  0  0  0  0  0  0  0
  -29.9348  -20.9761   16.3672 C   0  0  0  0  0  0  0  0  0  0  0  0
  -25.3906  -13.7592   20.9464 C   0  0  0  0  0  0  0  0  0  0  0  0
  -26.9141  -15.1877   22.4113 C   0  0  0  0  0  0  0  0  0  0  0  0
  -19.5296  -25.6926   22.9438 C   0  0  0  0  0  0  0  0  0  0  0  0
  -25.7293  -28.0871   22.8767 C   0  0  0  0  0  0  0  0  0  0  0  0
  -20.6808  -26.1159   22.2525 C   0  0  0  0  0  0  0  0  0  0  0  0
  -26.1575  -29.0358   21.9372 C   0  0  0  0  0  0  0  0  0  0  0  0
  -29.2799  -23.0846   17.3485 C   0  0  0  0  0  0  0  0  0  0  0  0
  -27.8882  -21.1316   17.6418 C   0  0  0  0  0  0  0  0  0  0  0  0
  -24.4129  -11.3404   19.9583 C   0  0  0  0  0  0  0  0  0  0  0  0
  -27.7503  -27.4250   21.0549 C   0  0  0  0  0  0  0  0  0  0  0  0
  -22.5630  -10.0135   19.3761 C   0  0  0  0  0  0  0  0  0  0  0  0
  -19.7959   -9.7214   19.1739 C   0  0  0  0  0  0  0  0  0  0  0  0
  -30.1804  -22.3300   16.5966 C   0  0  0  0  0  0  0  0  0  0  0  0
  -28.7887  -20.3770   16.8898 C   0  0  0  0  0  0  0  0  0  0  0  0
  -21.9158   -8.9968   20.0784 C   0  0  0  0  0  0  0  0  0  0  0  0
  -25.8957  -15.0087   21.4560 C   0  0  0  0  0  0  0  0  0  0  0  0
  -27.0186  -16.5502   22.5506 C   0  0  0  0  0  0  0  0  0  0  0  0
  -28.5608  -25.4798   17.7683 C   0  0  0  0  0  0  0  0  0  0  0  0
  -27.6957  -14.2099   23.1104 C   0  0  0  0  0  0  0  0  0  0  0  0
  -22.7779  -29.1557   22.3756 C   0  0  0  0  0  0  0  0  0  0  0  0
  -24.0951  -32.0115   23.1702 C   0  0  0  0  0  0  0  0  0  0  0  0
  -26.8963  -33.9480   23.3939 C   0  0  0  0  0  0  0  0  0  0  0  0
  -25.7293  -21.1334   18.9399 C   0  0  0  0  0  0  0  0  0  0  0  0
  -18.4283  -26.6542   23.3141 C   0  0  0  0  0  0  0  0  0  0  0  0
  -24.6669  -28.4367   23.8824 C   0  0  0  0  0  0  0  0  0  0  0  0
  -25.5576  -30.4159   21.8738 C   0  0  0  0  0  0  0  0  0  0  0  0
  -18.8597  -28.1180   23.2772 C   0  0  0  0  0  0  0  0  0  0  0  0
  -24.4235  -20.5600   22.2023 C   0  0  0  0  0  0  0  0  0  0  0  0
  -19.6333  -28.4143   21.9963 C   0  0  0  0  0  0  0  0  0  0  0  0
  -24.7510  -19.0893   22.4706 C   0  0  0  0  0  0  0  0  0  0  0  0
  -30.7144  -26.3821   18.2472 C   0  0  0  0  0  0  0  0  0  0  0  0
  -24.0497  -20.8004   20.7408 C   0  0  0  0  0  0  0  0  0  0  0  0
  -30.8731  -25.0149   17.6101 C   0  0  0  0  0  0  0  0  0  0  0  0
  -25.3521  -18.8341   20.0292 C   0  0  0  0  0  0  0  0  0  0  0  0
  -20.9131  -27.5733   21.9177 C   0  0  1  0  0  0  0  0  0  0  0  0
  -23.7650  -29.5794   23.4261 C   0  0  1  0  0  0  0  0  0  0  0  0
  -25.7976  -18.5541   21.4738 C   0  0  2  0  0  0  0  0  0  0  0  0
  -29.3014  -26.8140   17.8469 C   0  0  1  0  0  0  0  0  0  0  0  0
  -29.2834  -27.4755   16.4639 C   0  0  0  0  0  0  0  0  0  0  0  0
  -27.6522  -36.2512   24.0432 C   0  0  0  0  0  0  0  0  0  0  0  0
  -22.9787  -33.1131   20.5530 C   0  0  0  0  0  0  0  0  0  0  0  0
  -24.5278  -35.0651   20.7947 C   0  0  0  0  0  0  0  0  0  0  0  0
  -22.7636  -34.6553   22.5100 C   0  0  0  0  0  0  0  0  0  0  0  0
  -28.6481  -32.8956   25.5346 C   0  0  0  0  0  0  0  0  0  0  0  0
  -28.6790  -27.7407   18.8884 C   0  0  0  0  0  0  0  0  0  1  0  0
  -24.7735  -33.1248   22.4090 C   0  0  1  0  0  0  0  0  0  0  0  0
  -27.4295  -34.8225   24.5144 C   0  0  2  0  0  0  0  0  0  0  0  0
  -23.7710  -33.9630   21.5663 C   0  0  0  0  0  0  0  0  0  0  0  0
  -25.3893  -16.1649   21.0193 N   0  0  0  0  0  0  0  0  0  0  0  0
  -26.0923  -17.0836   21.7034 N   0  0  0  0  0  0  0  0  0  0  0  0
  -29.5287  -24.4706   17.5844 N   0  0  0  0  0  0  0  0  0  0  0  0
  -24.5178  -30.7078   22.8744 N   0  0  0  0  0  0  0  0  0  0  0  0
  -25.0891  -20.2712   19.8551 N   0  0  0  0  0  0  0  0  0  0  0  0
  -27.8114  -17.3319   23.3139 N   0  0  0  0  0  0  0  0  0  0  0  0
  -27.4592  -12.8536   22.8480 N   0  0  0  0  0  0  0  0  0  0  0  0
  -26.7230  -20.5255   18.1734 N   0  0  0  0  0  0  0  0  0  0  0  0
  -21.9385  -28.1323   22.7725 N   0  0  0  0  0  0  0  0  0  0  0  0
  -25.5183  -33.8992   23.3958 N   0  0  0  0  0  0  0  0  0  0  0  0
  -28.7256  -34.2862   25.0179 N   0  3  0  0  0  0  0  0  0  0  0  0
  -27.3412  -25.3919   17.8031 O   0  0  0  0  0  0  0  0  0  0  0  0
  -28.5664  -14.5291   23.9550 O   0  0  0  0  0  0  0  0  0  0  0  0
  -22.7768  -29.7167   21.2861 O   0  0  0  0  0  0  0  0  0  0  0  0
  -23.2275  -32.2889   24.0020 O   0  0  0  0  0  0  0  0  0  0  0  0
  -27.6289  -33.3694   22.5945 O   0  0  0  0  0  0  0  0  0  0  0  0
  -25.4376  -22.3296   18.8624 O   0  0  0  0  0  0  0  0  0  0  0  0
  -23.9363  -10.1603   19.4760 O   0  0  0  0  0  0  0  0  0  0  0  0
  -28.7290  -27.1052   20.1651 O   0  0  0  0  0  0  0  0  0  1  0  0
  -18.4672   -9.5822   19.0780 F   0  0  0  0  0  0  0  0  0  0  0  0
  -31.2852  -22.8950   16.0893 F   0  0  0  0  0  0  0  0  0  0  0  0
  -28.5632  -19.0751   16.6629 F   0  0  0  0  0  0  0  0  0  0  0  0
  -22.6178   -8.1581   20.8528 F   0  0  0  0  0  0  0  0  0  0  0  0
  1  2  1  0  0  0  0
  1  5  2  0  0  0  0
  2  6  2  0  0  0  0
  3  8  2  0  0  0  0
  3 17  1  0  0  0  0
  4  9  1  0  0  0  0
  4 17  2  0  0  0  0
  5 19  1  0  0  0  0
  6 21  1  0  0  0  0
  7 10  2  0  0  0  0
  7 20  1  0  0  0  0
  8 25  1  0  0  0  0
  9 25  2  0  0  0  0
 10 26  1  0  0  0  0
 11 12  2  0  0  0  0
 11 27  1  0  0  0  0
 12 28  1  0  0  0  0
 13 22  1  0  0  0  0
 13 26  2  0  0  0  0
 14 23  1  0  0  0  0
 14 24  2  0  0  0  0
 15 28  2  0  0  0  0
 15 31  1  0  0  0  0
 16 29  1  0  0  0  0
 16 30  2  0  0  0  0
 17 32  1  0  0  0  0
 18 32  1  0  0  0  0
 18 33  2  0  0  0  0
 18 35  1  0  0  0  0
 19 21  2  0  0  0  0
 19 40  1  0  0  0  0
 20 22  2  0  0  0  0
 20 41  1  0  0  0  0
 21 51  1  0  0  0  0
 22 42  1  0  0  0  0
 23 29  2  0  0  0  0
 23 67  1  0  0  0  0
 24 30  1  0  0  0  0
 24 72  1  0  0  0  0
 25 82  1  0  0  0  0
 26 83  1  0  0  0  0
 27 31  2  0  0  0  0
 27 82  1  0  0  0  0
 28 84  1  0  0  0  0
 29 85  1  0  0  0  0
 30 86  1  0  0  0  0
 31 87  1  0  0  0  0
 32 65  2  0  0  0  0
 33 66  1  0  0  0  0
 33 70  1  0  0  0  0
 34 54  1  0  0  0  0
 34 67  1  0  0  0  0
 34 76  2  0  0  0  0
 35 71  1  0  0  0  0
 35 77  2  0  0  0  0
 36 52  1  0  0  0  0
 36 73  1  0  0  0  0
 36 78  2  0  0  0  0
 37 62  1  0  0  0  0
 37 68  1  0  0  0  0
 37 79  2  0  0  0  0
 38 63  1  0  0  0  0
 38 74  1  0  0  0  0
 38 80  2  0  0  0  0
 39 69  1  0  0  0  0
 39 72  1  0  0  0  0
 39 81  2  0  0  0  0
 40 43  1  0  0  0  0
 41 52  1  0  0  0  0
 42 68  1  0  0  0  0
 43 45  1  0  0  0  0
 44 46  1  0  0  0  0
 44 48  1  0  0  0  0
 45 51  1  0  0  0  0
 46 53  1  0  0  0  0
 47 49  1  0  0  0  0
 47 54  1  0  0  0  0
 48 69  1  0  0  0  0
 49 67  1  0  0  0  0
 50 53  1  0  0  0  0
 50 69  1  0  0  0  0
 51 73  1  0  0  0  0
 52 68  1  0  0  0  0
 53 66  1  0  0  0  0
 54 55  1  0  0  0  0
 54 61  1  0  0  0  0
 56 63  1  0  0  0  0
 57 64  1  0  0  0  0
 58 64  1  0  0  0  0
 59 64  1  0  0  0  0
 60 75  1  0  0  0  0
 61 83  1  0  0  0  0
 62 64  1  0  0  0  0
 62 74  1  0  0  0  0
 63 75  1  0  0  0  0
 65 66  1  0  0  0  0
M  CHG  1  75   1
M  ISO  4  39 100  61 101  72 100  83 101
M  END
> <Batch ID>
0072

> <Smiles>
CNC(C)C(=O)NC(C(=O)N1Cc2cc([101O:1][101CH2:1]C3(C)CCN(c4cc([100NH:0][100C:0](=O)N5CCCC(n6nc(-c7ccc(Oc8ccc(F)cc8F)cc7)c(C(N)=O)c6N)C5)c(F)cc4F)C3=O)ccc2CC1C(=O)NC1CCCc2ccccc21)C(C)(C)C

> <Shape>
0.235

> <Color>
0.079

> <Negative vol penalty>
0.000

$$$$

  -OEChem-04042323383D

 86 95  0     1  0  0  0  0  0999 V2000
  -17.7303  -27.6046   22.5368 C   0  0  0  0  0  0  0  0  0  0  0  0
  -18.5109  -26.5312   22.1198 C   0  0  0  0  0  0  0  0  0  0  0  0
  -24.7765  -12.0966   19.7683 C   0  0  0  0  0  0  0  0  0  0  0  0
  -27.7448  -23.1312   20.3859 C   0  0  0  0  0  0  0  0  0  0  0  0
  -29.6079  -23.3371   18.8616 C   0  0  0  0  0  0  0  0  0  0  0  0
  -26.0201  -12.1627   20.3967 C   0  0  0  0  0  0  0  0  0  0  0  0
  -18.3146  -28.6597   23.2362 C   0  0  0  0  0  0  0  0  0  0  0  0
  -19.8765  -26.5128   22.4011 C   0  0  0  0  0  0  0  0  0  0  0  0
  -21.4502  -22.0086   24.0983 C   0  0  0  0  0  0  0  0  0  0  0  0
  -23.9279  -13.2035   19.7830 C   0  0  0  0  0  0  0  0  0  0  0  0
  -27.6892  -24.5197   20.5055 C   0  0  0  0  0  0  0  0  0  0  0  0
  -29.5523  -24.7257   18.9811 C   0  0  0  0  0  0  0  0  0  0  0  0
  -21.6389  -21.0022   23.1521 C   0  0  0  0  0  0  0  0  0  0  0  0
  -26.5107  -27.1295   18.7074 C   0  0  0  0  0  0  0  0  0  0  0  0
  -25.2566  -27.7364   18.6384 C   0  0  0  0  0  0  0  0  0  0  0  0
  -25.5663  -14.4427   21.0546 C   0  0  0  0  0  0  0  0  0  0  0  0
  -24.0131  -21.4283   23.1811 C   0  0  0  0  0  0  0  0  0  0  0  0
  -25.5685  -28.6333   20.8600 C   0  0  0  0  0  0  0  0  0  0  0  0
  -28.7043  -22.5398   19.5640 C   0  0  0  0  0  0  0  0  0  0  0  0
  -26.4149  -13.3357   21.0399 C   0  0  0  0  0  0  0  0  0  0  0  0
  -28.0839  -20.3046   18.5024 C   0  0  0  0  0  0  0  0  0  0  0  0
  -19.6862  -28.6498   23.5346 C   0  0  0  0  0  0  0  0  0  0  0  0
  -22.5421  -22.7411   24.5857 C   0  0  0  0  0  0  0  0  0  0  0  0
  -20.4799  -27.5695   23.1039 C   0  0  0  0  0  0  0  0  0  0  0  0
  -23.8358  -22.4418   24.1353 C   0  0  0  0  0  0  0  0  0  0  0  0
  -24.3228  -14.3766   20.4262 C   0  0  0  0  0  0  0  0  0  0  0  0
  -28.5929  -25.3170   19.8031 C   0  0  0  0  0  0  0  0  0  0  0  0
  -22.9201  -20.7138   22.6913 C   0  0  0  0  0  0  0  0  0  0  0  0
  -27.2936  -27.2745   19.8527 C   0  0  0  0  0  0  0  0  0  0  0  0
  -24.7856  -28.4883   19.7147 C   0  0  0  0  0  0  0  0  0  0  0  0
  -26.8226  -28.0264   20.9290 C   0  0  0  0  0  0  0  0  0  0  0  0
  -28.7626  -21.1054   19.4405 C   0  0  0  0  0  0  0  0  0  0  0  0
  -28.4718  -19.0215   18.8019 C   0  0  0  0  0  0  0  0  0  0  0  0
  -23.7090  -16.7576   21.0450 C   0  0  0  0  0  0  0  0  0  0  0  0
  -27.7396  -13.4047   21.7087 C   0  0  0  0  0  0  0  0  0  0  0  0
  -27.1834  -20.6865   17.4541 C   0  0  0  0  0  0  0  0  0  0  0  0
  -23.3984  -25.8015   24.5217 C   0  0  0  0  0  0  0  0  0  0  0  0
  -25.7874  -24.7704   26.4586 C   0  0  0  0  0  0  0  0  0  0  0  0
  -27.7436  -22.1835   27.5207 C   0  0  0  0  0  0  0  0  0  0  0  0
  -29.5183  -14.9667   22.4297 C   0  0  0  0  0  0  0  0  0  0  0  0
  -20.2818  -29.8353   24.2518 C   0  0  0  0  0  0  0  0  0  0  0  0
  -22.3249  -23.8055   25.6260 C   0  0  0  0  0  0  0  0  0  0  0  0
  -25.0437  -23.1853   24.6421 C   0  0  0  0  0  0  0  0  0  0  0  0
  -21.6651  -29.5617   24.8364 C   0  0  0  0  0  0  0  0  0  0  0  0
  -32.1078  -17.3109   21.8853 C   0  0  0  0  0  0  0  0  0  0  0  0
  -22.5491  -28.8601   23.8102 C   0  0  0  0  0  0  0  0  0  0  0  0
  -31.4168  -18.4400   21.1159 C   0  0  0  0  0  0  0  0  0  0  0  0
  -21.4350  -16.6916   20.3458 C   0  0  0  0  0  0  0  0  0  0  0  0
  -31.1965  -16.7138   22.9566 C   0  0  0  0  0  0  0  0  0  0  0  0
  -22.1762  -15.5094   19.7541 C   0  0  0  0  0  0  0  0  0  0  0  0
  -29.1883  -17.4122   21.7167 C   0  0  0  0  0  0  0  0  0  0  0  0
  -21.9601  -27.5015   23.4116 C   0  0  1  0  0  0  0  0  0  0  0  0
  -22.5518  -17.6714   20.6753 C   0  0  1  0  0  0  0  0  0  0  0  0
  -23.4496  -24.8352   25.6712 C   0  0  1  0  0  0  0  0  0  0  0  0
  -30.0401  -17.9992   20.5796 C   0  0  1  0  0  0  0  0  0  0  0  0
  -29.6338  -21.6563   29.0848 C   0  0  0  0  0  0  0  0  0  0  0  0
  -27.7517  -26.0701   24.5190 C   0  0  0  0  0  0  0  0  0  0  0  0
  -29.5798  -24.7289   25.5809 C   0  0  0  0  0  0  0  0  0  0  0  0
  -28.3060  -26.3910   26.9365 C   0  0  0  0  0  0  0  0  0  0  0  0
  -26.0903  -20.2710   29.0595 C   0  0  0  0  0  0  0  0  0  0  0  0
  -22.1855  -18.6430   21.7814 C   0  0  0  0  0  0  0  0  0  1  0  0
  -27.1823  -24.2348   26.2435 C   0  0  1  0  0  0  0  0  0  0  0  0
  -28.1238  -21.7139   28.9133 C   0  0  2  0  0  0  0  0  0  0  0  0
  -28.1822  -25.3433   25.8088 C   0  0  0  0  0  0  0  0  0  0  0  0
  -29.5238  -20.3909   20.2735 N   0  0  0  0  0  0  0  0  0  0  0  0
  -29.3257  -19.1276   19.8601 N   0  0  0  0  0  0  0  0  0  0  0  0
  -23.4545  -15.5091   20.4408 N   0  0  0  0  0  0  0  0  0  0  0  0
  -24.7789  -24.2214   25.6540 N   0  0  0  0  0  0  0  0  0  0  0  0
  -29.9180  -16.3130   22.3664 N   0  0  0  0  0  0  0  0  0  0  0  0
  -28.1622  -17.8241   18.2607 N   0  0  0  0  0  0  0  0  0  0  0  0
  -26.8936  -22.0472   17.2849 N   0  0  0  0  0  0  0  0  0  0  0  0
  -28.3026  -14.6780   21.7999 N   0  0  0  0  0  0  0  0  0  0  0  0
  -22.2190  -26.5170   24.4403 N   0  0  0  0  0  0  0  0  0  0  0  0
  -27.5507  -23.5481   27.4768 N   0  0  0  0  0  0  0  0  0  0  0  0
  -27.5693  -20.3549   29.1711 N   0  3  0  0  0  0  0  0  0  0  0  0
  -24.6750  -17.1302   21.6951 O   0  0  0  0  0  0  0  0  0  0  0  0
  -28.2330  -12.3773   22.1657 O   0  0  0  0  0  0  0  0  0  0  0  0
  -26.6388  -19.8445   16.7005 O   0  0  0  0  0  0  0  0  0  0  0  0
  -24.3584  -25.8924   23.7655 O   0  0  0  0  0  0  0  0  0  0  0  0
  -25.5983  -25.6386   27.3142 O   0  0  0  0  0  0  0  0  0  0  0  0
  -27.6327  -21.4170   26.5664 O   0  0  0  0  0  0  0  0  0  0  0  0
  -30.2027  -14.0903   22.9671 O   0  0  0  0  0  0  0  0  0  0  0  0
  -28.5387  -26.6720   19.9193 O   0  0  0  0  0  0  0  0  0  0  0  0
  -23.1070  -19.7324   21.7673 O   0  0  0  0  0  0  0  0  0  1  0  0
  -23.5820  -29.0723   19.6477 F   0  0  0  0  0  0  0  0  0  0  0  0
  -27.5707  -28.1702   22.0314 F   0  0  0  0  0  0  0  0  0  0  0  0
  1  2  1  0  0  0  0
  1  7  2  0  0  0  0
  2  8  2  0  0  0  0
  3  6  1  0  0  0  0
  3 10  2  0  0  0  0
  4 11  2  0  0  0  0
  4 19  1  0  0  0  0
  5 12  1  0  0  0  0
  5 19  2  0  0  0  0
  6 20  2  0  0  0  0
  7 22  1  0  0  0  0
  8 24  1  0  0  0  0
  9 13  2  0  0  0  0
  9 23  1  0  0  0  0
 10 26  1  0  0  0  0
 11 27  1  0  0  0  0
 12 27  2  0  0  0  0
 13 28  1  0  0  0  0
 14 15  2  0  0  0  0
 14 29  1  0  0  0  0
 15 30  1  0  0  0  0
 16 20  1  0  0  0  0
 16 26  2  0  0  0  0
 17 25  1  0  0  0  0
 17 28  2  0  0  0  0
 18 30  2  0  0  0  0
 18 31  1  0  0  0  0
 19 32  1  0  0  0  0
 20 35  1  0  0  0  0
 21 32  1  0  0  0  0
 21 33  2  0  0  0  0
 21 36  1  0  0  0  0
 22 24  2  0  0  0  0
 22 41  1  0  0  0  0
 23 25  2  0  0  0  0
 23 42  1  0  0  0  0
 24 52  1  0  0  0  0
 25 43  1  0  0  0  0
 26 67  1  0  0  0  0
 27 83  1  0  0  0  0
 28 84  1  0  0  0  0
 29 31  2  0  0  0  0
 29 83  1  0  0  0  0
 30 85  1  0  0  0  0
 31 86  1  0  0  0  0
 32 65  2  0  0  0  0
 33 66  1  0  0  0  0
 33 70  1  0  0  0  0
 34 53  1  0  0  0  0
 34 67  1  0  0  0  0
 34 76  2  0  0  0  0
 35 72  1  0  0  0  0
 35 77  2  0  0  0  0
 36 71  1  0  0  0  0
 36 78  2  0  0  0  0
 37 54  1  0  0  0  0
 37 73  1  0  0  0  0
 37 79  2  0  0  0  0
 38 62  1  0  0  0  0
 38 68  1  0  0  0  0
 38 80  2  0  0  0  0
 39 63  1  0  0  0  0
 39 74  1  0  0  0  0
 39 81  2  0  0  0  0
 40 69  1  0  0  0  0
 40 72  1  0  0  0  0
 40 82  2  0  0  0  0
 41 44  1  0  0  0  0
 42 54  1  0  0  0  0
 43 68  1  0  0  0  0
 44 46  1  0  0  0  0
 45 47  1  0  0  0  0
 45 49  1  0  0  0  0
 46 52  1  0  0  0  0
 47 55  1  0  0  0  0
 48 50  1  0  0  0  0
 48 53  1  0  0  0  0
 49 69  1  0  0  0  0
 50 67  1  0  0  0  0
 51 55  1  0  0  0  0
 51 69  1  0  0  0  0
 52 73  1  0  0  0  0
 53 61  1  0  0  0  0
 54 68  1  0  0  0  0
 55 66  1  0  0  0  0
 56 63  1  0  0  0  0
 57 64  1  0  0  0  0
 58 64  1  0  0  0  0
 59 64  1  0  0  0  0
 60 75  1  0  0  0  0
 61 84  1  0  0  0  0
 62 64  1  0  0  0  0
 62 74  1  0  0  0  0
 63 75  1  0  0  0  0
 65 66  1  0  0  0  0
M  CHG  1  75   1
M  ISO  4  40 100  61 101  72 100  84 101
M  END
> <Batch ID>
0072

> <Smiles>
CNC(C)C(=O)NC(C(=O)N1Cc2cc([101O:1][101CH2:1]C3CCN(c4cccc(C(=O)[100NH:0][100C:0](=O)N5CCCC(n6nc(-c7ccc(Oc8ccc(F)cc8F)cc7)c(C(N)=O)c6N)C5)c4)C3=O)ccc2CC1C(=O)NC1CCCc2ccccc21)C(C)(C)C

> <Shape>
0.229

> <Color>
0.078

> <Negative vol penalty>
0.000

$$$$

  -OEChem-04042323383D

 87 96  0     1  0  0  0  0  0999 V2000
  -26.8124  -36.2826   25.7206 C   0  0  0  0  0  0  0  0  0  0  0  0
  -27.4732  -35.3169   24.9680 C   0  0  0  0  0  0  0  0  0  0  0  0
  -26.0179  -11.4709   21.4881 C   0  0  0  0  0  0  0  0  0  0  0  0
  -25.5783  -12.9553   19.6332 C   0  0  0  0  0  0  0  0  0  0  0  0
  -25.5870  -35.9837   26.3147 C   0  0  0  0  0  0  0  0  0  0  0  0
  -26.9095  -34.0514   24.8101 C   0  0  0  0  0  0  0  0  0  0  0  0
  -27.2522  -30.4599   19.8614 C   0  0  0  0  0  0  0  0  0  0  0  0
  -24.6564  -11.1820   21.5795 C   0  0  0  0  0  0  0  0  0  0  0  0
  -24.2168  -12.6663   19.7246 C   0  0  0  0  0  0  0  0  0  0  0  0
  -28.0715  -29.3778   19.5426 C   0  0  0  0  0  0  0  0  0  0  0  0
  -21.8781  -12.6469   22.8285 C   0  0  0  0  0  0  0  0  0  0  0  0
  -21.3012  -12.6422   24.0984 C   0  0  0  0  0  0  0  0  0  0  0  0
  -26.3540  -27.8624   20.2994 C   0  0  0  0  0  0  0  0  0  0  0  0
  -29.3793  -21.1537   18.1476 C   0  0  0  0  0  0  0  0  0  0  0  0
  -30.5897  -20.9317   20.6513 C   0  0  0  0  0  0  0  0  0  0  0  0
  -20.6750  -10.3272   23.8054 C   0  0  0  0  0  0  0  0  0  0  0  0
  -26.4789  -12.3576   20.5149 C   0  0  0  0  0  0  0  0  0  0  0  0
  -28.8485  -11.9791   19.6494 C   0  0  0  0  0  0  0  0  0  0  0  0
  -25.0033  -34.7169   26.1560 C   0  0  0  0  0  0  0  0  0  0  0  0
  -25.9798  -30.2513   20.4126 C   0  0  0  0  0  0  0  0  0  0  0  0
  -25.6758  -33.7348   25.4038 C   0  0  0  0  0  0  0  0  0  0  0  0
  -25.5195  -28.9434   20.6218 C   0  0  0  0  0  0  0  0  0  0  0  0
  -29.6549  -22.2999   18.8930 C   0  0  0  0  0  0  0  0  0  0  0  0
  -30.3140  -19.7854   19.9059 C   0  0  0  0  0  0  0  0  0  0  0  0
  -23.7558  -11.7797   20.6978 C   0  0  0  0  0  0  0  0  0  0  0  0
  -27.6236  -28.0789   19.7643 C   0  0  0  0  0  0  0  0  0  0  0  0
  -21.8534  -11.4918   22.0469 C   0  0  0  0  0  0  0  0  0  0  0  0
  -20.6997  -11.4824   24.5869 C   0  0  0  0  0  0  0  0  0  0  0  0
  -29.7087  -19.8964   18.6541 C   0  0  0  0  0  0  0  0  0  0  0  0
  -30.2602  -22.1890   20.1449 C   0  0  0  0  0  0  0  0  0  0  0  0
  -21.2518  -10.3320   22.5354 C   0  0  0  0  0  0  0  0  0  0  0  0
  -27.8851  -12.6569   20.4203 C   0  0  0  0  0  0  0  0  0  0  0  0
  -30.0224  -12.6455   19.9034 C   0  0  0  0  0  0  0  0  0  0  0  0
  -28.3220  -25.2401   17.1806 C   0  0  0  0  0  0  0  0  0  0  0  0
  -28.2613  -23.7838   17.5291 C   0  0  0  0  0  0  0  0  0  0  0  0
  -28.6960  -10.8483   18.7812 C   0  0  0  0  0  0  0  0  0  0  0  0
  -24.5709  -31.0174   23.1570 C   0  0  0  0  0  0  0  0  0  0  0  0
  -21.9479  -29.7765   21.7071 C   0  0  0  0  0  0  0  0  0  0  0  0
  -20.6659  -27.6866   19.3332 C   0  0  0  0  0  0  0  0  0  0  0  0
  -31.2530  -18.2265   21.6478 C   0  0  0  0  0  0  0  0  0  0  0  0
  -23.6999  -34.4252   26.8564 C   0  0  0  0  0  0  0  0  0  0  0  0
  -25.0977  -31.4286   20.7260 C   0  0  0  0  0  0  0  0  0  0  0  0
  -24.1537  -28.6652   21.1924 C   0  0  0  0  0  0  0  0  0  0  0  0
  -22.9907  -33.1803   26.3298 C   0  0  0  0  0  0  0  0  0  0  0  0
  -32.2077  -15.2200   23.2991 C   0  0  0  0  0  0  0  0  0  0  0  0
  -23.9749  -32.0230   26.1927 C   0  0  0  0  0  0  0  0  0  0  0  0
  -31.2994  -14.1588   22.6737 C   0  0  0  0  0  0  0  0  0  0  0  0
  -31.4849  -16.5548   23.4717 C   0  0  0  0  0  0  0  0  0  0  0  0
  -30.0571  -24.7738   18.6934 C   0  0  0  0  0  0  0  0  0  0  0  0
  -29.9385  -16.0157   21.6312 C   0  0  0  0  0  0  0  0  0  0  0  0
  -25.0845  -32.3584   25.1889 C   0  0  1  0  0  0  0  0  0  0  0  0
  -29.5808  -25.8516   17.7159 C   0  0  2  0  0  0  0  0  0  0  0  0
  -24.0229  -31.1110   21.7611 C   0  0  1  0  0  0  0  0  0  0  0  0
  -30.6421  -14.6724   21.3777 C   0  0  2  0  0  0  0  0  0  0  0  0
  -18.4852  -26.8548   18.4113 C   0  0  0  0  0  0  0  0  0  0  0  0
  -21.6086  -27.9722   24.1442 C   0  0  0  0  0  0  0  0  0  0  0  0
  -20.0513  -26.5541   22.7906 C   0  0  0  0  0  0  0  0  0  0  0  0
  -19.4792  -28.9371   23.2560 C   0  0  0  0  0  0  0  0  0  0  0  0
  -21.2530  -28.7776   16.6455 C   0  0  0  0  0  0  0  0  0  0  0  0
  -29.3379  -27.1927   18.3744 C   0  0  0  0  0  0  0  0  0  1  0  0
  -21.3265  -28.4038   21.6143 C   0  0  1  0  0  0  0  0  0  0  0  0
  -19.5881  -27.8941   18.2845 C   0  0  2  0  0  0  0  0  0  0  0  0
  -20.6429  -27.9717   22.9423 C   0  0  0  0  0  0  0  0  0  0  0  0
  -28.4022  -13.6756   21.1124 N   0  0  0  0  0  0  0  0  0  0  0  0
  -29.7032  -13.6429   20.7773 N   0  0  0  0  0  0  0  0  0  0  0  0
  -29.3249  -23.5515   18.3860 N   0  0  0  0  0  0  0  0  0  0  0  0
  -23.3309  -29.8496   21.4886 N   0  0  0  0  0  0  0  0  0  0  0  0
  -30.8910  -16.9807   22.2025 N   0  0  0  0  0  0  0  0  0  0  0  0
  -31.2861  -12.4698   19.4624 N   0  0  0  0  0  0  0  0  0  0  0  0
  -27.4207  -10.2860   18.6344 N   0  0  0  0  0  0  0  0  0  0  0  0
  -30.6493  -18.5096   20.4231 N   0  0  0  0  0  0  0  0  0  0  0  0
  -24.5975  -32.2224   23.8329 N   0  0  0  0  0  0  0  0  0  0  0  0
  -20.4294  -28.4388   20.4644 N   0  0  0  0  0  0  0  0  0  0  0  0
  -20.1709  -27.7964   16.9164 N   0  3  0  0  0  0  0  0  0  0  0  0
  -27.4478  -25.7693   16.5243 O   0  0  0  0  0  0  0  0  0  0  0  0
  -27.4002  -23.0504   17.0899 O   0  0  0  0  0  0  0  0  0  0  0  0
  -29.6650  -10.3412   18.1670 O   0  0  0  0  0  0  0  0  0  0  0  0
  -24.9408  -29.9321   23.5893 O   0  0  0  0  0  0  0  0  0  0  0  0
  -21.2314  -30.7490   21.9570 O   0  0  0  0  0  0  0  0  0  0  0  0
  -21.6200  -26.9299   19.1671 O   0  0  0  0  0  0  0  0  0  0  0  0
  -32.0613  -18.9743   22.2041 O   0  0  0  0  0  0  0  0  0  0  0  0
  -22.4272  -11.4978   20.7866 O   0  0  0  0  0  0  0  0  0  0  0  0
  -28.4215  -27.0209   19.4547 O   0  0  0  0  0  0  0  0  0  1  0  0
  -20.1472  -11.4776   25.8071 F   0  0  0  0  0  0  0  0  0  0  0  0
  -29.4394  -18.8015   17.9285 F   0  0  0  0  0  0  0  0  0  0  0  0
  -30.5304  -23.2840   20.8698 F   0  0  0  0  0  0  0  0  0  0  0  0
  -21.2260   -9.2188   21.7897 F   0  0  0  0  0  0  0  0  0  0  0  0
  1  2  1  0  0  0  0
  1  5  2  0  0  0  0
  2  6  2  0  0  0  0
  3  8  2  0  0  0  0
  3 17  1  0  0  0  0
  4  9  1  0  0  0  0
  4 17  2  0  0  0  0
  5 19  1  0  0  0  0
  6 21  1  0  0  0  0
  7 10  2  0  0  0  0
  7 20  1  0  0  0  0
  8 25  1  0  0  0  0
  9 25  2  0  0  0  0
 10 26  1  0  0  0  0
 11 12  2  0  0  0  0
 11 27  1  0  0  0  0
 12 28  1  0  0  0  0
 13 22  1  0  0  0  0
 13 26  2  0  0  0  0
 14 23  1  0  0  0  0
 14 29  2  0  0  0  0
 15 24  2  0  0  0  0
 15 30  1  0  0  0  0
 16 28  2  0  0  0  0
 16 31  1  0  0  0  0
 17 32  1  0  0  0  0
 18 32  1  0  0  0  0
 18 33  2  0  0  0  0
 18 36  1  0  0  0  0
 19 21  2  0  0  0  0
 19 41  1  0  0  0  0
 20 22  2  0  0  0  0
 20 42  1  0  0  0  0
 21 51  1  0  0  0  0
 22 43  1  0  0  0  0
 23 30  2  0  0  0  0
 23 66  1  0  0  0  0
 24 29  1  0  0  0  0
 24 71  1  0  0  0  0
 25 82  1  0  0  0  0
 26 83  1  0  0  0  0
 27 31  2  0  0  0  0
 27 82  1  0  0  0  0
 28 84  1  0  0  0  0
 29 85  1  0  0  0  0
 30 86  1  0  0  0  0
 31 87  1  0  0  0  0
 32 64  2  0  0  0  0
 33 65  1  0  0  0  0
 33 69  1  0  0  0  0
 34 35  1  0  0  0  0
 34 52  1  0  0  0  0
 34 75  2  0  0  0  0
 35 66  1  0  0  0  0
 35 76  2  0  0  0  0
 36 70  1  0  0  0  0
 36 77  2  0  0  0  0
 37 53  1  0  0  0  0
 37 72  1  0  0  0  0
 37 78  2  0  0  0  0
 38 61  1  0  0  0  0
 38 67  1  0  0  0  0
 38 79  2  0  0  0  0
 39 62  1  0  0  0  0
 39 73  1  0  0  0  0
 39 80  2  0  0  0  0
 40 68  1  0  0  0  0
 40 71  1  0  0  0  0
 40 81  2  0  0  0  0
 41 44  1  0  0  0  0
 42 53  1  0  0  0  0
 43 67  1  0  0  0  0
 44 46  1  0  0  0  0
 45 47  1  0  0  0  0
 45 48  1  0  0  0  0
 46 51  1  0  0  0  0
 47 54  1  0  0  0  0
 48 68  1  0  0  0  0
 49 52  1  0  0  0  0
 49 66  1  0  0  0  0
 50 54  1  0  0  0  0
 50 68  1  0  0  0  0
 51 72  1  0  0  0  0
 52 60  1  0  0  0  0
 53 67  1  0  0  0  0
 54 65  1  0  0  0  0
 55 62  1  0  0  0  0
 56 63  1  0  0  0  0
 57 63  1  0  0  0  0
 58 63  1  0  0  0  0
 59 74  1  0  0  0  0
 60 83  1  0  0  0  0
 61 63  1  0  0  0  0
 61 73  1  0  0  0  0
 62 74  1  0  0  0  0
 64 65  1  0  0  0  0
M  CHG  1  74   1
M  ISO  4  40 100  60 101  71 100  83 101
M  END
> <Batch ID>
0072

> <Smiles>
CNC(C)C(=O)NC(C(=O)N1Cc2cc([101O:1][101CH2:1]C3CN(c4cc(F)c([100NH:0][100C:0](=O)N5CCCC(n6nc(-c7ccc(Oc8ccc(F)cc8F)cc7)c(C(N)=O)c6N)C5)cc4F)C(=O)C3=O)ccc2CC1C(=O)NC1CCCc2ccccc21)C(C)(C)C

> <Shape>
0.340

> <Color>
0.060

> <Negative vol penalty>
0.000

$$$$

  -OEChem-04042323383D

 85 93  0     1  0  0  0  0  0999 V2000
  -28.7868  -31.0722   28.2114 C   0  0  0  0  0  0  0  0  0  0  0  0
  -29.4226  -29.8349   28.2264 C   0  0  0  0  0  0  0  0  0  0  0  0
  -22.9997   -9.8937   19.9817 C   0  0  0  0  0  0  0  0  0  0  0  0
  -23.7233   -9.9469   22.2862 C   0  0  0  0  0  0  0  0  0  0  0  0
  -27.4193  -31.1552   28.4702 C   0  0  0  0  0  0  0  0  0  0  0  0
  -28.6913  -28.6798   28.5014 C   0  0  0  0  0  0  0  0  0  0  0  0
  -29.7977  -24.8816   25.3400 C   0  0  0  0  0  0  0  0  0  0  0  0
  -22.2328   -8.7597   20.2487 C   0  0  0  0  0  0  0  0  0  0  0  0
  -22.9563   -8.8129   22.5532 C   0  0  0  0  0  0  0  0  0  0  0  0
  -30.9796  -24.1808   25.5757 C   0  0  0  0  0  0  0  0  0  0  0  0
  -21.4733   -5.7214   23.7587 C   0  0  0  0  0  0  0  0  0  0  0  0
  -22.0585   -4.7062   24.5154 C   0  0  0  0  0  0  0  0  0  0  0  0
  -30.4692  -18.3466   23.9897 C   0  0  0  0  0  0  0  0  0  0  0  0
  -29.7186  -22.4276   26.6505 C   0  0  0  0  0  0  0  0  0  0  0  0
  -32.0565  -16.5501   22.5629 C   0  0  0  0  0  0  0  0  0  0  0  0
  -23.7860   -4.4570   22.8448 C   0  0  0  0  0  0  0  0  0  0  0  0
  -23.7451  -10.4873   21.0005 C   0  0  0  0  0  0  0  0  0  0  0  0
  -31.8526  -18.3442   24.1682 C   0  0  0  0  0  0  0  0  0  0  0  0
  -24.1311  -13.0026   20.8222 C   0  0  0  0  0  0  0  0  0  0  0  0
  -26.6691  -29.9995   28.7389 C   0  0  0  0  0  0  0  0  0  0  0  0
  -28.5664  -24.3650   25.7682 C   0  0  0  0  0  0  0  0  0  0  0  0
  -27.3128  -28.7476   28.7653 C   0  0  0  0  0  0  0  0  0  0  0  0
  -28.5222  -23.1226   26.4168 C   0  0  0  0  0  0  0  0  0  0  0  0
  -32.6463  -17.4460   23.4548 C   0  0  0  0  0  0  0  0  0  0  0  0
  -30.6731  -16.5525   22.3845 C   0  0  0  0  0  0  0  0  0  0  0  0
  -22.2110   -8.2192   21.5344 C   0  0  0  0  0  0  0  0  0  0  0  0
  -30.9405  -22.9549   26.2336 C   0  0  0  0  0  0  0  0  0  0  0  0
  -22.0443   -6.1043   22.5450 C   0  0  0  0  0  0  0  0  0  0  0  0
  -23.2149   -4.0740   24.0585 C   0  0  0  0  0  0  0  0  0  0  0  0
  -29.8795  -17.4507   23.0979 C   0  0  0  0  0  0  0  0  0  0  0  0
  -23.2007   -5.4721   22.0881 C   0  0  0  0  0  0  0  0  0  0  0  0
  -24.5380  -11.6585   20.7252 C   0  0  0  0  0  0  0  0  0  0  0  0
  -25.2412  -13.7246   20.4578 C   0  0  0  0  0  0  0  0  0  0  0  0
  -32.4521  -19.3018   25.1190 C   0  0  0  0  0  0  0  0  0  0  0  0
  -22.8629  -13.5497   21.2072 C   0  0  0  0  0  0  0  0  0  0  0  0
  -26.3135  -25.3253   27.7946 C   0  0  0  0  0  0  0  0  0  0  0  0
  -24.7227  -22.7449   26.6398 C   0  0  0  0  0  0  0  0  0  0  0  0
  -24.8704  -19.6823   25.1414 C   0  0  0  0  0  0  0  0  0  0  0  0
  -30.7208  -14.6847   20.6947 C   0  0  0  0  0  0  0  0  0  0  0  0
  -25.2024  -30.1443   29.0594 C   0  0  0  0  0  0  0  0  0  0  0  0
  -27.2976  -25.1206   25.4825 C   0  0  0  0  0  0  0  0  0  0  0  0
  -27.2238  -22.5148   26.8785 C   0  0  0  0  0  0  0  0  0  0  0  0
  -24.4275  -28.8320   28.9725 C   0  0  0  0  0  0  0  0  0  0  0  0
  -29.6036  -12.2297   18.3705 C   0  0  0  0  0  0  0  0  0  0  0  0
  -25.1838  -27.7171   29.6880 C   0  0  0  0  0  0  0  0  0  0  0  0
  -28.1526  -11.9728   18.7839 C   0  0  0  0  0  0  0  0  0  0  0  0
  -30.5033  -12.4741   19.5807 C   0  0  0  0  0  0  0  0  0  0  0  0
  -28.5872  -13.2648   20.9120 C   0  0  0  0  0  0  0  0  0  0  0  0
  -26.5489  -27.4693   29.0350 C   0  0  1  0  0  0  0  0  0  0  0  0
  -26.1537  -24.7432   26.4186 C   0  0  1  0  0  0  0  0  0  0  0  0
  -27.6303  -13.0774   19.7233 C   0  0  2  0  0  0  0  0  0  0  0  0
  -23.4077  -17.7985   24.3610 C   0  0  0  0  0  0  0  0  0  0  0  0
  -35.3846  -21.4471   24.9159 C   0  0  0  0  0  0  0  0  0  0  0  0
  -24.3638  -21.8301   29.5284 C   0  0  0  0  0  0  0  0  0  0  0  0
  -23.7726  -19.5569   28.6618 C   0  0  0  0  0  0  0  0  0  0  0  0
  -22.3498  -21.5211   28.0784 C   0  0  0  0  0  0  0  0  0  0  0  0
  -25.7541  -20.0046   22.3354 C   0  0  0  0  0  0  0  0  0  0  0  0
  -33.1527  -22.4433   25.5261 C   0  0  0  0  0  0  0  0  0  1  0  0
  -24.6333  -21.2864   27.0189 C   0  0  1  0  0  0  0  0  0  0  0  0
  -24.1011  -19.0948   23.9720 C   0  0  2  0  0  0  0  0  0  0  0  0
  -34.0061  -21.1826   25.4987 C   0  0  1  0  0  0  0  0  0  0  0  0
  -23.8047  -21.0607   28.3150 C   0  0  0  0  0  0  0  0  0  0  0  0
  -25.8075  -11.5313   20.3301 N   0  0  0  0  0  0  0  0  0  0  0  0
  -26.2079  -12.8048   20.1754 N   0  0  0  0  0  0  0  0  0  0  0  0
  -26.0111  -23.2950   26.5816 N   0  0  0  0  0  0  0  0  0  0  0  0
  -29.9479  -13.5361   20.4225 N   0  0  0  0  0  0  0  0  0  0  0  0
  -34.0488  -17.4291   23.6224 N   0  0  0  0  0  0  0  0  0  0  0  0
  -25.4751  -15.0501   20.3545 N   0  0  0  0  0  0  0  0  0  0  0  0
  -32.0750  -19.2385   26.3960 N   0  0  0  0  0  0  0  0  0  0  0  0
  -21.8307  -12.6662   21.5509 N   0  0  0  0  0  0  0  0  0  0  0  0
  -30.0761  -15.6409   21.4788 N   0  0  0  0  0  0  0  0  0  0  0  0
  -26.3948  -26.7045   27.8160 N   0  0  0  0  0  0  0  0  0  0  0  0
  -24.1111  -20.5914   25.8473 N   0  0  0  0  0  0  0  0  0  0  0  0
  -33.3393  -20.1836   24.6510 N   0  3  0  0  0  0  0  0  0  0  0  0
  -25.0226  -18.8122   22.8354 N   0  3  0  0  0  0  0  0  0  0  0  0
  -22.6465  -14.7851   21.2295 O   0  0  0  0  0  0  0  0  0  0  0  0
  -26.3583  -24.5784   28.7651 O   0  0  0  0  0  0  0  0  0  0  0  0
  -23.6881  -23.3712   26.3971 O   0  0  0  0  0  0  0  0  0  0  0  0
  -26.0278  -19.3635   25.4048 O   0  0  0  0  0  0  0  0  0  0  0  0
  -31.8598  -14.8229   20.2413 O   0  0  0  0  0  0  0  0  0  0  0  0
  -21.4625   -7.1128   21.7954 O   0  0  0  0  0  0  0  0  0  0  0  0
  -32.0928  -22.2691   26.4656 O   0  0  0  0  0  0  0  0  0  1  0  0
  -23.7777   -3.1003   24.7860 F   0  0  0  0  0  0  0  0  0  0  0  0
  -28.5487  -17.4601   22.9355 F   0  0  0  0  0  0  0  0  0  0  0  0
  -23.7545   -5.8364   20.9235 F   0  0  0  0  0  0  0  0  0  0  0  0
  1  2  1  0  0  0  0
  1  5  2  0  0  0  0
  2  6  2  0  0  0  0
  3  8  2  0  0  0  0
  3 17  1  0  0  0  0
  4  9  1  0  0  0  0
  4 17  2  0  0  0  0
  5 20  1  0  0  0  0
  6 22  1  0  0  0  0
  7 10  2  0  0  0  0
  7 21  1  0  0  0  0
  8 26  1  0  0  0  0
  9 26  2  0  0  0  0
 10 27  1  0  0  0  0
 11 12  2  0  0  0  0
 11 28  1  0  0  0  0
 12 29  1  0  0  0  0
 13 18  1  0  0  0  0
 13 30  2  0  0  0  0
 14 23  1  0  0  0  0
 14 27  2  0  0  0  0
 15 24  1  0  0  0  0
 15 25  2  0  0  0  0
 16 29  2  0  0  0  0
 16 31  1  0  0  0  0
 17 32  1  0  0  0  0
 18 24  2  0  0  0  0
 18 34  1  0  0  0  0
 19 32  1  0  0  0  0
 19 33  2  0  0  0  0
 19 35  1  0  0  0  0
 20 22  2  0  0  0  0
 20 40  1  0  0  0  0
 21 23  2  0  0  0  0
 21 41  1  0  0  0  0
 22 49  1  0  0  0  0
 23 42  1  0  0  0  0
 24 67  1  0  0  0  0
 25 30  1  0  0  0  0
 25 71  1  0  0  0  0
 26 81  1  0  0  0  0
 27 82  1  0  0  0  0
 28 31  2  0  0  0  0
 28 81  1  0  0  0  0
 29 83  1  0  0  0  0
 30 84  1  0  0  0  0
 31 85  1  0  0  0  0
 32 63  2  0  0  0  0
 33 64  1  0  0  0  0
 33 68  1  0  0  0  0
 34 69  1  0  0  0  0
 34 74  2  0  0  0  0
 35 70  1  0  0  0  0
 35 76  2  0  0  0  0
 36 50  1  0  0  0  0
 36 72  1  0  0  0  0
 36 77  2  0  0  0  0
 37 59  1  0  0  0  0
 37 65  1  0  0  0  0
 37 78  2  0  0  0  0
 38 60  1  0  0  0  0
 38 73  1  0  0  0  0
 38 79  2  0  0  0  0
 39 66  1  0  0  0  0
 39 71  1  0  0  0  0
 39 80  2  0  0  0  0
 40 43  1  0  0  0  0
 41 50  1  0  0  0  0
 42 65  1  0  0  0  0
 43 45  1  0  0  0  0
 44 46  1  0  0  0  0
 44 47  1  0  0  0  0
 45 49  1  0  0  0  0
 46 51  1  0  0  0  0
 47 66  1  0  0  0  0
 48 51  1  0  0  0  0
 48 66  1  0  0  0  0
 49 72  1  0  0  0  0
 50 65  1  0  0  0  0
 51 64  1  0  0  0  0
 52 60  1  0  0  0  0
 53 61  1  0  0  0  0
 54 62  1  0  0  0  0
 55 62  1  0  0  0  0
 56 62  1  0  0  0  0
 57 75  1  0  0  0  0
 58 61  1  0  0  0  0
 58 82  1  0  0  0  0
 59 62  1  0  0  0  0
 59 73  1  0  0  0  0
 60 75  1  0  0  0  0
 61 74  1  0  0  0  0
 63 64  1  0  0  0  0
M  CHG  2  74   1  75   1
M  ISO  4  39 100  58 101  71 100  82 101
M  END
> <Batch ID>
0072

> <Smiles>
CNC(C)C(=O)NC(C(=O)N1Cc2cc([101O:1][101CH2:1]C(C)NC(=N)c3cc(F)c([100NH:0][100C:0](=O)N4CCCC(n5nc(-c6ccc(Oc7ccc(F)cc7F)cc6)c(C(N)=O)c5N)C4)cc3N)ccc2CC1C(=O)NC1CCCc2ccccc21)C(C)(C)C

> <Shape>
0.172

> <Color>
0.186

> <Negative vol penalty>
0.000

$$$$

  -OEChem-04042323383D

 88 97  0     1  0  0  0  0  0999 V2000
  -17.4644  -30.6497   23.8431 C   0  0  0  0  0  0  0  0  0  0  0  0
  -18.7657  -30.1579   23.8335 C   0  0  0  0  0  0  0  0  0  0  0  0
  -23.0945  -10.0792   21.9592 C   0  0  0  0  0  0  0  0  0  0  0  0
  -23.7701  -11.3677   23.8881 C   0  0  0  0  0  0  0  0  0  0  0  0
  -16.3907  -29.7811   23.6523 C   0  0  0  0  0  0  0  0  0  0  0  0
  -18.9940  -28.7968   23.6341 C   0  0  0  0  0  0  0  0  0  0  0  0
  -23.7104  -26.2502   20.6717 C   0  0  0  0  0  0  0  0  0  0  0  0
  -22.3387   -9.2440   22.7819 C   0  0  0  0  0  0  0  0  0  0  0  0
  -23.0143  -10.5325   24.7107 C   0  0  0  0  0  0  0  0  0  0  0  0
  -24.9018  -25.6807   21.1190 C   0  0  0  0  0  0  0  0  0  0  0  0
  -19.3372   -9.3310   24.3362 C   0  0  0  0  0  0  0  0  0  0  0  0
  -18.0488   -9.0006   23.9162 C   0  0  0  0  0  0  0  0  0  0  0  0
  -23.8893  -23.4938   21.0125 C   0  0  0  0  0  0  0  0  0  0  0  0
  -29.7355  -18.3159   20.1479 C   0  0  0  0  0  0  0  0  0  0  0  0
  -31.5143  -19.7524   19.3676 C   0  0  0  0  0  0  0  0  0  0  0  0
  -31.8408  -17.3599   19.4475 C   0  0  0  0  0  0  0  0  0  0  0  0
  -18.6509   -6.6609   23.9096 C   0  0  0  0  0  0  0  0  0  0  0  0
  -23.8102  -11.1411   22.5123 C   0  0  0  0  0  0  0  0  0  0  0  0
  -24.1634  -13.1836   21.0253 C   0  0  0  0  0  0  0  0  0  0  0  0
  -16.6064  -28.4102   23.4408 C   0  0  0  0  0  0  0  0  0  0  0  0
  -22.5943  -25.4455   20.4014 C   0  0  0  0  0  0  0  0  0  0  0  0
  -17.9221  -27.9088   23.4416 C   0  0  0  0  0  0  0  0  0  0  0  0
  -22.6857  -24.0553   20.5594 C   0  0  0  0  0  0  0  0  0  0  0  0
  -30.2196  -19.5922   19.8612 C   0  0  0  0  0  0  0  0  0  0  0  0
  -30.5461  -17.1997   19.9411 C   0  0  0  0  0  0  0  0  0  0  0  0
  -32.3250  -18.6362   19.1607 C   0  0  0  0  0  0  0  0  0  0  0  0
  -22.2986   -9.4706   24.1576 C   0  0  0  0  0  0  0  0  0  0  0  0
  -24.9905  -24.3026   21.2922 C   0  0  0  0  0  0  0  0  0  0  0  0
  -20.2825   -8.3263   24.5429 C   0  0  0  0  0  0  0  0  0  0  0  0
  -17.7056   -7.6656   23.7029 C   0  0  0  0  0  0  0  0  0  0  0  0
  -19.9394   -6.9913   24.3296 C   0  0  0  0  0  0  0  0  0  0  0  0
  -24.5916  -12.0039   21.6631 C   0  0  0  0  0  0  0  0  0  0  0  0
  -25.2702  -13.6262   20.3430 C   0  0  0  0  0  0  0  0  0  0  0  0
  -28.5035  -22.8177   19.9299 C   0  0  0  0  0  0  0  0  0  0  0  0
  -29.4945  -21.8705   19.3245 C   0  0  0  0  0  0  0  0  0  0  0  0
  -22.8799  -13.8222   21.0477 C   0  0  0  0  0  0  0  0  0  0  0  0
  -19.6492  -25.2266   21.5773 C   0  0  0  0  0  0  0  0  0  0  0  0
  -19.2577  -23.1076   19.1526 C   0  0  0  0  0  0  0  0  0  0  0  0
  -20.6870  -20.9191   16.9584 C   0  0  0  0  0  0  0  0  0  0  0  0
  -30.7293  -14.6913   20.0844 C   0  0  0  0  0  0  0  0  0  0  0  0
  -15.4117  -27.5026   23.2863 C   0  0  0  0  0  0  0  0  0  0  0  0
  -21.3247  -26.0726   19.8941 C   0  0  0  0  0  0  0  0  0  0  0  0
  -21.5225  -23.1453   20.2637 C   0  0  0  0  0  0  0  0  0  0  0  0
  -15.7580  -26.1330   22.7080 C   0  0  0  0  0  0  0  0  0  0  0  0
  -29.6953  -11.3507   19.4145 C   0  0  0  0  0  0  0  0  0  0  0  0
  -16.9810  -25.5510   23.4096 C   0  0  0  0  0  0  0  0  0  0  0  0
  -28.2401  -11.3199   19.8873 C   0  0  0  0  0  0  0  0  0  0  0  0
  -30.5666  -12.2226   20.3170 C   0  0  0  0  0  0  0  0  0  0  0  0
  -28.3770  -20.7804   21.0918 C   0  0  0  0  0  0  0  0  0  0  0  0
  -28.6125  -13.5562   21.0043 C   0  0  0  0  0  0  0  0  0  0  0  0
  -18.2115  -26.4426   23.2037 C   0  0  1  0  0  0  0  0  0  0  0  0
  -27.9408  -22.2444   21.1947 C   0  0  2  0  0  0  0  0  0  0  0  0
  -20.0915  -25.2092   20.1414 C   0  0  1  0  0  0  0  0  0  0  0  0
  -27.6829  -12.7427   20.0890 C   0  0  2  0  0  0  0  0  0  0  0  0
  -20.1071  -19.3068   15.1249 C   0  0  0  0  0  0  0  0  0  0  0  0
  -18.2726  -21.1025   21.2307 C   0  0  0  0  0  0  0  0  0  0  0  0
  -18.6183  -19.2873   19.5414 C   0  0  0  0  0  0  0  0  0  0  0  0
  -16.9760  -21.1105   19.0922 C   0  0  0  0  0  0  0  0  0  0  0  0
  -34.1466  -20.1201   18.3608 C   0  0  0  0  0  0  0  0  0  0  0  0
  -34.4891  -17.6459   18.4565 C   0  0  0  0  0  0  0  0  0  0  0  0
  -22.2837  -22.4237   14.9721 C   0  0  0  0  0  0  0  0  0  0  0  0
  -26.4400  -22.4171   21.2906 C   0  0  0  0  0  0  0  0  0  1  0  0
  -19.4506  -21.6190   18.9921 C   0  0  1  0  0  0  0  0  0  0  0  0
  -20.5110  -20.7337   15.4620 C   0  0  2  0  0  0  0  0  0  0  0  0
  -18.3509  -20.7969   19.7216 C   0  0  0  0  0  0  0  0  0  0  0  0
  -25.8706  -11.7152   21.4086 N   0  0  0  0  0  0  0  0  0  0  0  0
  -26.2556  -12.7198   20.6032 N   0  0  0  0  0  0  0  0  0  0  0  0
  -29.4115  -20.7042   20.0678 N   0  0  0  0  0  0  0  0  0  0  0  0
  -20.3010  -23.8067   19.7761 N   0  0  0  0  0  0  0  0  0  0  0  0
  -29.9788  -13.5565   20.4585 N   0  0  0  0  0  0  0  0  0  0  0  0
  -25.4869  -14.6983   19.5518 N   0  0  0  0  0  0  0  0  0  0  0  0
  -21.8538  -13.2337   21.7993 N   0  0  0  0  0  0  0  0  0  0  0  0
  -30.0551  -15.9029   20.2326 N   0  0  0  0  0  0  0  0  0  0  0  0
  -18.7643  -26.2435   21.8811 N   0  0  0  0  0  0  0  0  0  0  0  0
  -19.5294  -21.3700   17.5568 N   0  0  0  0  0  0  0  0  0  0  0  0
  -33.6341  -18.7982   18.6617 N   0  0  0  0  0  0  0  0  0  0  0  0
  -21.7823  -21.0432   14.7487 N   0  3  0  0  0  0  0  0  0  0  0  0
  -28.2688  -23.8957   19.4222 O   0  0  0  0  0  0  0  0  0  0  0  0
  -30.1771  -22.1746   18.3685 O   0  0  0  0  0  0  0  0  0  0  0  0
  -22.6452  -14.8745   20.4065 O   0  0  0  0  0  0  0  0  0  0  0  0
  -20.0779  -24.3792   22.3518 O   0  0  0  0  0  0  0  0  0  0  0  0
  -18.2228  -23.6320   18.7335 O   0  0  0  0  0  0  0  0  0  0  0  0
  -21.7443  -20.6837   17.5390 O   0  0  0  0  0  0  0  0  0  0  0  0
  -31.8752  -14.5932   19.6380 O   0  0  0  0  0  0  0  0  0  0  0  0
  -21.5610   -8.6559   24.9606 O   0  0  0  0  0  0  0  0  0  0  0  0
  -26.1520  -23.7441   21.7292 O   0  0  0  0  0  0  0  0  0  1  0  0
  -16.4679   -7.3483   23.3011 F   0  0  0  0  0  0  0  0  0  0  0  0
  -20.8429   -6.0216   24.5276 F   0  0  0  0  0  0  0  0  0  0  0  0
  1  2  1  0  0  0  0
  1  5  2  0  0  0  0
  2  6  2  0  0  0  0
  3  8  2  0  0  0  0
  3 18  1  0  0  0  0
  4  9  1  0  0  0  0
  4 18  2  0  0  0  0
  5 20  1  0  0  0  0
  6 22  1  0  0  0  0
  7 10  2  0  0  0  0
  7 21  1  0  0  0  0
  8 27  1  0  0  0  0
  9 27  2  0  0  0  0
 10 28  1  0  0  0  0
 11 12  2  0  0  0  0
 11 29  1  0  0  0  0
 12 30  1  0  0  0  0
 13 23  1  0  0  0  0
 13 28  2  0  0  0  0
 14 24  1  0  0  0  0
 14 25  2  0  0  0  0
 15 24  2  0  0  0  0
 15 26  1  0  0  0  0
 16 25  1  0  0  0  0
 16 26  2  0  0  0  0
 17 30  2  0  0  0  0
 17 31  1  0  0  0  0
 18 32  1  0  0  0  0
 19 32  1  0  0  0  0
 19 33  2  0  0  0  0
 19 36  1  0  0  0  0
 20 22  2  0  0  0  0
 20 41  1  0  0  0  0
 21 23  2  0  0  0  0
 21 42  1  0  0  0  0
 22 51  1  0  0  0  0
 23 43  1  0  0  0  0
 24 68  1  0  0  0  0
 25 73  1  0  0  0  0
 26 76  1  0  0  0  0
 27 85  1  0  0  0  0
 28 86  1  0  0  0  0
 29 31  2  0  0  0  0
 29 85  1  0  0  0  0
 30 87  1  0  0  0  0
 31 88  1  0  0  0  0
 32 66  2  0  0  0  0
 33 67  1  0  0  0  0
 33 71  1  0  0  0  0
 34 35  1  0  0  0  0
 34 52  1  0  0  0  0
 34 78  2  0  0  0  0
 35 68  1  0  0  0  0
 35 79  2  0  0  0  0
 36 72  1  0  0  0  0
 36 80  2  0  0  0  0
 37 53  1  0  0  0  0
 37 74  1  0  0  0  0
 37 81  2  0  0  0  0
 38 63  1  0  0  0  0
 38 69  1  0  0  0  0
 38 82  2  0  0  0  0
 39 64  1  0  0  0  0
 39 75  1  0  0  0  0
 39 83  2  0  0  0  0
 40 70  1  0  0  0  0
 40 73  1  0  0  0  0
 40 84  2  0  0  0  0
 41 44  1  0  0  0  0
 42 53  1  0  0  0  0
 43 69  1  0  0  0  0
 44 46  1  0  0  0  0
 45 47  1  0  0  0  0
 45 48  1  0  0  0  0
 46 51  1  0  0  0  0
 47 54  1  0  0  0  0
 48 70  1  0  0  0  0
 49 52  1  0  0  0  0
 49 68  1  0  0  0  0
 50 54  1  0  0  0  0
 50 70  1  0  0  0  0
 51 74  1  0  0  0  0
 52 62  1  0  0  0  0
 53 69  1  0  0  0  0
 54 67  1  0  0  0  0
 55 64  1  0  0  0  0
 56 65  1  0  0  0  0
 57 65  1  0  0  0  0
 58 65  1  0  0  0  0
 59 76  1  0  0  0  0
 60 76  1  0  0  0  0
 61 77  1  0  0  0  0
 62 86  1  0  0  0  0
 63 65  1  0  0  0  0
 63 75  1  0  0  0  0
 64 77  1  0  0  0  0
 66 67  1  0  0  0  0
M  CHG  1  77   1
M  ISO  4  40 100  62 101  73 100  86 101
M  END
> <Batch ID>
0072

> <Smiles>
CNC(C)C(=O)NC(C(=O)N1Cc2cc([101O:1][101CH2:1]C3CN(c4cc([100NH:0][100C:0](=O)N5CCCC(n6nc(-c7ccc(Oc8ccc(F)cc8F)cc7)c(C(N)=O)c6N)C5)cc(N(C)C)c4)C(=O)C3=O)ccc2CC1C(=O)NC1CCCc2ccccc21)C(C)(C)C

> <Shape>
0.218

> <Color>
0.126

> <Negative vol penalty>
0.000

$$$$

  -OEChem-04042323383D

 83 91  0     1  0  0  0  0  0999 V2000
  -30.2638  -24.0216   18.1475 C   0  0  0  0  0  0  0  0  0  0  0  0
  -29.0325  -24.0612   18.7938 C   0  0  0  0  0  0  0  0  0  0  0  0
  -25.2848  -12.7031   19.2003 C   0  0  0  0  0  0  0  0  0  0  0  0
  -24.5477  -13.0720   21.4713 C   0  0  0  0  0  0  0  0  0  0  0  0
  -31.2963  -24.8603   18.5651 C   0  0  0  0  0  0  0  0  0  0  0  0
  -28.8333  -24.9388   19.8589 C   0  0  0  0  0  0  0  0  0  0  0  0
  -24.4068  -27.3806   19.5627 C   0  0  0  0  0  0  0  0  0  0  0  0
  -25.6671  -23.5018   23.2323 C   0  0  0  0  0  0  0  0  0  0  0  0
  -25.0509  -24.5032   23.9826 C   0  0  0  0  0  0  0  0  0  0  0  0
  -25.3494  -11.3313   19.4440 C   0  0  0  0  0  0  0  0  0  0  0  0
  -24.6122  -11.7001   21.7151 C   0  0  0  0  0  0  0  0  0  0  0  0
  -23.2643  -26.6758   19.9392 C   0  0  0  0  0  0  0  0  0  0  0  0
  -22.7310   -8.9668   21.0742 C   0  0  0  0  0  0  0  0  0  0  0  0
  -21.6626   -8.3795   21.7518 C   0  0  0  0  0  0  0  0  0  0  0  0
  -23.5010  -22.6968   22.5275 C   0  0  0  0  0  0  0  0  0  0  0  0
  -23.3036  -27.7719   22.0878 C   0  0  0  0  0  0  0  0  0  0  0  0
  -23.1645   -7.6725   23.5072 C   0  0  0  0  0  0  0  0  0  0  0  0
  -24.8840  -13.5735   20.2140 C   0  0  0  0  0  0  0  0  0  0  0  0
  -22.8847  -23.6982   23.2778 C   0  0  0  0  0  0  0  0  0  0  0  0
  -23.7112  -15.7187   19.4858 C   0  0  0  0  0  0  0  0  0  0  0  0
  -31.1066  -25.7555   19.6296 C   0  0  0  0  0  0  0  0  0  0  0  0
  -25.0135  -28.2798   20.4513 C   0  0  0  0  0  0  0  0  0  0  0  0
  -29.8647  -25.7893   20.2921 C   0  0  0  0  0  0  0  0  0  0  0  0
  -24.4522  -28.4888   21.7191 C   0  0  0  0  0  0  0  0  0  0  0  0
  -24.8922  -22.5986   22.5047 C   0  0  0  0  0  0  0  0  0  0  0  0
  -23.6597  -24.6014   24.0054 C   0  0  0  0  0  0  0  0  0  0  0  0
  -25.0131  -10.8297   20.7014 C   0  0  0  0  0  0  0  0  0  0  0  0
  -22.7142  -26.8692   21.2030 C   0  0  0  0  0  0  0  0  0  0  0  0
  -24.0162   -8.9069   21.6131 C   0  0  0  0  0  0  0  0  0  0  0  0
  -21.8793   -7.7324   22.9683 C   0  0  0  0  0  0  0  0  0  0  0  0
  -24.2329   -8.2598   22.8296 C   0  0  0  0  0  0  0  0  0  0  0  0
  -24.8176  -14.9908   19.9630 C   0  0  0  0  0  0  0  0  0  0  0  0
  -24.1563  -17.0164   19.4204 C   0  0  0  0  0  0  0  0  0  0  0  0
  -21.3962  -23.7767   23.2803 C   0  0  0  0  0  0  0  0  0  0  0  0
  -22.3984  -15.2626   19.1333 C   0  0  0  0  0  0  0  0  0  0  0  0
  -27.8595  -28.4712   21.8540 C   0  0  0  0  0  0  0  0  0  0  0  0
  -26.7300  -31.3355   22.8749 C   0  0  0  0  0  0  0  0  0  0  0  0
  -24.0305  -33.2988   23.5856 C   0  0  0  0  0  0  0  0  0  0  0  0
  -26.8872  -21.3455   21.6124 C   0  0  0  0  0  0  0  0  0  0  0  0
  -32.2673  -26.6090   20.0759 C   0  0  0  0  0  0  0  0  0  0  0  0
  -26.2300  -29.0523   20.0201 C   0  0  0  0  0  0  0  0  0  0  0  0
  -25.0537  -29.4578   22.7028 C   0  0  0  0  0  0  0  0  0  0  0  0
  -31.8567  -27.7759   20.9703 C   0  0  0  0  0  0  0  0  0  0  0  0
  -28.8240  -18.9240   19.8624 C   0  0  0  0  0  0  0  0  0  0  0  0
  -30.8898  -27.3050   22.0521 C   0  0  0  0  0  0  0  0  0  0  0  0
  -27.8633  -17.7447   19.6933 C   0  0  0  0  0  0  0  0  0  0  0  0
  -28.6322  -19.6234   21.2070 C   0  0  0  0  0  0  0  0  0  0  0  0
  -26.2937  -18.8587   21.3311 C   0  0  0  0  0  0  0  0  0  0  0  0
  -29.6022  -26.7453   21.4354 C   0  0  1  0  0  0  0  0  0  0  0  0
  -27.0622  -29.5601   21.1935 C   0  0  1  0  0  0  0  0  0  0  0  0
  -26.4048  -18.1626   19.9648 C   0  0  2  0  0  0  0  0  0  0  0  0
  -23.4234  -35.5794   24.4385 C   0  0  0  0  0  0  0  0  0  0  0  0
  -27.4226  -30.4557   25.7133 C   0  0  0  0  0  0  0  0  0  0  0  0
  -25.9615  -32.3009   26.5671 C   0  0  0  0  0  0  0  0  0  0  0  0
  -27.9747  -32.8394   25.1960 C   0  0  0  0  0  0  0  0  0  0  0  0
  -22.6346  -33.9949   21.0705 C   0  0  0  0  0  0  0  0  0  0  0  0
  -21.4129  -24.8891   20.9990 C   0  0  0  0  0  0  0  0  0  1  0  0
  -20.6474  -23.9954   21.9677 C   0  0  2  0  0  0  0  0  0  0  0  0
  -25.9533  -31.8108   24.0790 C   0  0  1  0  0  0  0  0  0  0  0  0
  -23.6990  -34.7310   23.2069 C   0  0  2  0  0  0  0  0  0  0  0  0
  -26.8176  -31.8319   25.3713 C   0  0  0  0  0  0  0  0  0  0  0  0
  -25.8854  -15.7620   20.1848 N   0  0  0  0  0  0  0  0  0  0  0  0
  -25.4519  -16.9880   19.8455 N   0  0  0  0  0  0  0  0  0  0  0  0
  -26.2462  -30.1846   22.2368 N   0  0  0  0  0  0  0  0  0  0  0  0
  -27.2276  -19.9939   21.3930 N   0  0  0  0  0  0  0  0  0  0  0  0
  -23.0553  -25.6224   24.7723 N   0  0  0  0  0  0  0  0  0  0  0  0
  -23.5619  -18.1677   19.0413 N   0  0  0  0  0  0  0  0  0  0  0  0
  -22.1090  -13.8972   19.2603 N   0  0  0  0  0  0  0  0  0  0  0  0
  -25.5190  -21.5816   21.7426 N   0  0  0  0  0  0  0  0  0  0  0  0
  -28.7374  -27.8233   21.0060 N   0  0  0  0  0  0  0  0  0  0  0  0
  -25.3897  -33.1065   23.7158 N   0  0  0  0  0  0  0  0  0  0  0  0
  -22.4942  -34.7693   22.3305 N   0  3  0  0  0  0  0  0  0  0  0  0
  -20.7991  -23.6570   24.3491 O   0  0  0  0  0  0  0  0  0  0  0  0
  -21.5135  -16.0403   18.7024 O   0  0  0  0  0  0  0  0  0  0  0  0
  -27.6918  -28.2372   23.0451 O   0  0  0  0  0  0  0  0  0  0  0  0
  -27.7251  -31.9664   22.5097 O   0  0  0  0  0  0  0  0  0  0  0  0
  -23.1697  -32.4378   23.7532 O   0  0  0  0  0  0  0  0  0  0  0  0
  -27.7439  -22.2322   21.6526 O   0  0  0  0  0  0  0  0  0  0  0  0
  -19.4054  -24.6278   22.2588 O   0  0  0  0  0  0  0  0  0  0  0  0
  -25.0758   -9.4911   20.9395 O   0  0  0  0  0  0  0  0  0  0  0  0
  -21.5996  -26.1820   21.5733 O   0  0  0  0  0  0  0  0  0  1  0  0
  -20.8529   -7.1698   23.6197 F   0  0  0  0  0  0  0  0  0  0  0  0
  -25.4652   -8.2000   23.3528 F   0  0  0  0  0  0  0  0  0  0  0  0
  1  2  1  0  0  0  0
  1  5  2  0  0  0  0
  2  6  2  0  0  0  0
  3 10  2  0  0  0  0
  3 18  1  0  0  0  0
  4 11  1  0  0  0  0
  4 18  2  0  0  0  0
  5 21  1  0  0  0  0
  6 23  1  0  0  0  0
  7 12  2  0  0  0  0
  7 22  1  0  0  0  0
  8  9  2  0  0  0  0
  8 25  1  0  0  0  0
  9 26  1  0  0  0  0
 10 27  1  0  0  0  0
 11 27  2  0  0  0  0
 12 28  1  0  0  0  0
 13 14  2  0  0  0  0
 13 29  1  0  0  0  0
 14 30  1  0  0  0  0
 15 19  1  0  0  0  0
 15 25  2  0  0  0  0
 16 24  1  0  0  0  0
 16 28  2  0  0  0  0
 17 30  2  0  0  0  0
 17 31  1  0  0  0  0
 18 32  1  0  0  0  0
 19 26  2  0  0  0  0
 19 34  1  0  0  0  0
 20 32  1  0  0  0  0
 20 33  2  0  0  0  0
 20 35  1  0  0  0  0
 21 23  2  0  0  0  0
 21 40  1  0  0  0  0
 22 24  2  0  0  0  0
 22 41  1  0  0  0  0
 23 49  1  0  0  0  0
 24 42  1  0  0  0  0
 25 69  1  0  0  0  0
 26 66  1  0  0  0  0
 27 80  1  0  0  0  0
 28 81  1  0  0  0  0
 29 31  2  0  0  0  0
 29 80  1  0  0  0  0
 30 82  1  0  0  0  0
 31 83  1  0  0  0  0
 32 62  2  0  0  0  0
 33 63  1  0  0  0  0
 33 67  1  0  0  0  0
 34 58  1  0  0  0  0
 34 73  2  0  0  0  0
 35 68  1  0  0  0  0
 35 74  2  0  0  0  0
 36 50  1  0  0  0  0
 36 70  1  0  0  0  0
 36 75  2  0  0  0  0
 37 59  1  0  0  0  0
 37 64  1  0  0  0  0
 37 76  2  0  0  0  0
 38 60  1  0  0  0  0
 38 71  1  0  0  0  0
 38 77  2  0  0  0  0
 39 65  1  0  0  0  0
 39 69  1  0  0  0  0
 39 78  2  0  0  0  0
 40 43  1  0  0  0  0
 41 50  1  0  0  0  0
 42 64  1  0  0  0  0
 43 45  1  0  0  0  0
 44 46  1  0  0  0  0
 44 47  1  0  0  0  0
 45 49  1  0  0  0  0
 46 51  1  0  0  0  0
 47 65  1  0  0  0  0
 48 51  1  0  0  0  0
 48 65  1  0  0  0  0
 49 70  1  0  0  0  0
 50 64  1  0  0  0  0
 51 63  1  0  0  0  0
 52 60  1  0  0  0  0
 53 61  1  0  0  0  0
 54 61  1  0  0  0  0
 55 61  1  0  0  0  0
 56 72  1  0  0  0  0
 57 58  1  0  0  0  0
 57 81  1  0  0  0  0
 58 79  1  0  0  0  0
 59 61  1  0  0  0  0
 59 71  1  0  0  0  0
 60 72  1  0  0  0  0
 62 63  1  0  0  0  0
M  CHG  1  72   1
M  ISO  4  39 100  57 101  69 100  81 101
M  END
> <Batch ID>
0072

> <Smiles>
CNC(C)C(=O)NC(C(=O)N1Cc2cc([101O:1][101CH2:1]C(O)C(=O)c3cc([100NH:0][100C:0](=O)N4CCCC(n5nc(-c6ccc(Oc7ccc(F)cc7F)cc6)c(C(N)=O)c5N)C4)ccc3N)ccc2CC1C(=O)NC1CCCc2ccccc21)C(C)(C)C

> <Shape>
0.272

> <Color>
0.062

> <Negative vol penalty>
0.000

$$$$

  -OEChem-04042323383D

 86 94  0     1  0  0  0  0  0999 V2000
  -24.4379  -33.2222   28.2471 C   0  0  0  0  0  0  0  0  0  0  0  0
  -25.3424  -32.5079   27.4679 C   0  0  0  0  0  0  0  0  0  0  0  0
  -25.6478  -12.7120   21.9361 C   0  0  0  0  0  0  0  0  0  0  0  0
  -25.9298  -13.9693   19.8925 C   0  0  0  0  0  0  0  0  0  0  0  0
  -31.4500  -22.6970   20.7893 C   0  0  0  0  0  0  0  0  0  0  0  0
  -23.0756  -32.9352   28.1714 C   0  0  0  0  0  0  0  0  0  0  0  0
  -24.8851  -31.5055   26.6132 C   0  0  0  0  0  0  0  0  0  0  0  0
  -27.1844  -30.0023   21.1397 C   0  0  0  0  0  0  0  0  0  0  0  0
  -31.4616  -21.4931   21.4937 C   0  0  0  0  0  0  0  0  0  0  0  0
  -24.2878  -12.5697   21.6610 C   0  0  0  0  0  0  0  0  0  0  0  0
  -24.5698  -13.8270   19.6172 C   0  0  0  0  0  0  0  0  0  0  0  0
  -28.0578  -28.9941   20.7340 C   0  0  0  0  0  0  0  0  0  0  0  0
  -22.3351  -10.6478   19.6795 C   0  0  0  0  0  0  0  0  0  0  0  0
  -21.7667   -9.3863   19.8556 C   0  0  0  0  0  0  0  0  0  0  0  0
  -31.0236  -21.4931   18.7385 C   0  0  0  0  0  0  0  0  0  0  0  0
  -26.1743  -27.6186   20.1179 C   0  0  0  0  0  0  0  0  0  0  0  0
  -20.2417  -10.3017   21.4907 C   0  0  0  0  0  0  0  0  0  0  0  0
  -26.4688  -13.4119   21.0519 C   0  0  0  0  0  0  0  0  0  0  0  0
  -31.2309  -22.6970   19.4117 C   0  0  0  0  0  0  0  0  0  0  0  0
  -28.9150  -12.6956   20.9477 C   0  0  0  0  0  0  0  0  0  0  0  0
  -22.6004  -31.9353   27.3083 C   0  0  0  0  0  0  0  0  0  0  0  0
  -25.7968  -29.8216   21.0475 C   0  0  0  0  0  0  0  0  0  0  0  0
  -23.5153  -31.2040   26.5269 C   0  0  0  0  0  0  0  0  0  0  0  0
  -25.2855  -28.6270   20.5207 C   0  0  0  0  0  0  0  0  0  0  0  0
  -31.2543  -20.2892   20.8205 C   0  0  0  0  0  0  0  0  0  0  0  0
  -23.7488  -13.1271   20.5015 C   0  0  0  0  0  0  0  0  0  0  0  0
  -27.5528  -27.8010   20.2257 C   0  0  0  0  0  0  0  0  0  0  0  0
  -21.8569  -11.7363   20.4091 C   0  0  0  0  0  0  0  0  0  0  0  0
  -20.7199   -9.2132   20.7611 C   0  0  0  0  0  0  0  0  0  0  0  0
  -31.0353  -20.2892   19.4429 C   0  0  0  0  0  0  0  0  0  0  0  0
  -20.8102  -11.5632   21.3146 C   0  0  0  0  0  0  0  0  0  0  0  0
  -27.8737  -13.5597   21.3359 C   0  0  0  0  0  0  0  0  0  0  0  0
  -30.0505  -13.2745   21.4595 C   0  0  0  0  0  0  0  0  0  0  0  0
  -31.2183  -23.9710   18.6653 C   0  0  0  0  0  0  0  0  0  0  0  0
  -28.8607  -11.4784   20.1919 C   0  0  0  0  0  0  0  0  0  0  0  0
  -23.4017  -29.7411   23.1357 C   0  0  0  0  0  0  0  0  0  0  0  0
  -29.2899  -26.0128   17.1386 C   0  0  0  0  0  0  0  0  0  0  0  0
  -21.5838  -29.5869   20.4536 C   0  0  0  0  0  0  0  0  0  0  0  0
  -21.3624  -28.7741   17.1465 C   0  0  0  0  0  0  0  0  0  0  0  0
  -31.4695  -18.8954   22.9079 C   0  0  0  0  0  0  0  0  0  0  0  0
  -21.1238  -31.6288   27.2957 C   0  0  0  0  0  0  0  0  0  0  0  0
  -24.8685  -30.9292   21.4645 C   0  0  0  0  0  0  0  0  0  0  0  0
  -23.8043  -28.3914   20.3821 C   0  0  0  0  0  0  0  0  0  0  0  0
  -20.6827  -30.8064   26.0877 C   0  0  0  0  0  0  0  0  0  0  0  0
  -31.5367  -16.0600   25.0604 C   0  0  0  0  0  0  0  0  0  0  0  0
  -21.6331  -29.6344   25.8639 C   0  0  0  0  0  0  0  0  0  0  0  0
  -30.7048  -15.0164   24.3114 C   0  0  0  0  0  0  0  0  0  0  0  0
  -30.9738  -17.4689   24.8813 C   0  0  0  0  0  0  0  0  0  0  0  0
  -29.9346  -16.8384   22.7385 C   0  0  0  0  0  0  0  0  0  0  0  0
  -23.0554  -30.1261   25.5694 C   0  0  1  0  0  0  0  0  0  0  0  0
  -23.4655  -30.4364   21.8052 C   0  0  1  0  0  0  0  0  0  0  0  0
  -30.5001  -15.4121   22.8359 C   0  0  2  0  0  0  0  0  0  0  0  0
  -29.5940  -26.8432   15.9174 C   0  0  0  0  0  0  0  0  0  0  0  0
  -19.7373  -28.7234   15.2349 C   0  0  0  0  0  0  0  0  0  0  0  0
  -20.2798  -27.0926   21.6316 C   0  0  0  0  0  0  0  0  0  0  0  0
  -19.3969  -26.5614   19.3498 C   0  0  0  0  0  0  0  0  0  0  0  0
  -18.6958  -28.6617   20.4987 C   0  0  0  0  0  0  0  0  0  0  0  0
  -22.9912  -30.6682   15.5596 C   0  0  0  0  0  0  0  0  0  0  0  0
  -29.6788  -27.2182   19.3334 C   0  0  0  0  0  0  0  0  0  1  0  0
  -30.2010  -26.1967   18.3367 C   0  0  1  0  0  0  0  0  0  0  0  0
  -21.0470  -28.4723   19.5886 C   0  0  1  0  0  0  0  0  0  0  0  0
  -20.8018  -29.5339   15.9578 C   0  0  2  0  0  0  0  0  0  0  0  0
  -19.8828  -27.7004   20.2714 C   0  0  0  0  0  0  0  0  0  0  0  0
  -28.3090  -14.6078   22.0402 N   0  0  0  0  0  0  0  0  0  0  0  0
  -29.6363  -14.4060   22.0986 N   0  0  0  0  0  0  0  0  0  0  0  0
  -22.9373  -29.5019   20.8093 N   0  0  0  0  0  0  0  0  0  0  0  0
  -30.8109  -17.7756   23.4586 N   0  0  0  0  0  0  0  0  0  0  0  0
  -31.3527  -12.9210   21.4209 N   0  0  0  0  0  0  0  0  0  0  0  0
  -32.1114  -24.1363   17.6896 N   0  0  0  0  0  0  0  0  0  0  0  0
  -27.6127  -11.0261   19.7423 N   0  0  0  0  0  0  0  0  0  0  0  0
  -31.2665  -19.0681   21.5391 N   0  0  0  0  0  0  0  0  0  0  0  0
  -23.1579  -30.5866   24.2012 N   0  0  0  0  0  0  0  0  0  0  0  0
  -20.6918  -29.0816   18.3114 N   0  0  0  0  0  0  0  0  0  0  0  0
  -30.3143  -24.8985   19.0043 N   0  3  0  0  0  0  0  0  0  0  0  0
  -21.8878  -29.8537   14.9886 N   0  3  0  0  0  0  0  0  0  0  0  0
  -29.8866  -10.8030   19.9372 O   0  0  0  0  0  0  0  0  0  0  0  0
  -23.5603  -28.5273   23.1913 O   0  0  0  0  0  0  0  0  0  0  0  0
  -28.3392  -25.2304   17.1439 O   0  0  0  0  0  0  0  0  0  0  0  0
  -20.8317  -30.5032   20.7950 O   0  0  0  0  0  0  0  0  0  0  0  0
  -22.2988  -27.9839   17.0504 O   0  0  0  0  0  0  0  0  0  0  0  0
  -32.1844  -19.6301   23.5941 O   0  0  0  0  0  0  0  0  0  0  0  0
  -22.4218  -12.9882   20.2326 O   0  0  0  0  0  0  0  0  0  0  0  0
  -28.4030  -26.8151   19.8295 O   0  0  0  0  0  0  0  0  0  1  0  0
  -20.1731   -8.0020   20.9290 F   0  0  0  0  0  0  0  0  0  0  0  0
  -30.8362  -19.1379   18.7854 F   0  0  0  0  0  0  0  0  0  0  0  0
  -20.3457  -12.6054   22.0175 F   0  0  0  0  0  0  0  0  0  0  0  0
  1  2  1  0  0  0  0
  1  6  2  0  0  0  0
  2  7  2  0  0  0  0
  3 10  2  0  0  0  0
  3 18  1  0  0  0  0
  4 11  1  0  0  0  0
  4 18  2  0  0  0  0
  5  9  2  0  0  0  0
  5 19  1  0  0  0  0
  6 21  1  0  0  0  0
  7 23  1  0  0  0  0
  8 12  2  0  0  0  0
  8 22  1  0  0  0  0
  9 25  1  0  0  0  0
 10 26  1  0  0  0  0
 11 26  2  0  0  0  0
 12 27  1  0  0  0  0
 13 14  2  0  0  0  0
 13 28  1  0  0  0  0
 14 29  1  0  0  0  0
 15 19  2  0  0  0  0
 15 30  1  0  0  0  0
 16 24  1  0  0  0  0
 16 27  2  0  0  0  0
 17 29  2  0  0  0  0
 17 31  1  0  0  0  0
 18 32  1  0  0  0  0
 19 34  1  0  0  0  0
 20 32  1  0  0  0  0
 20 33  2  0  0  0  0
 20 35  1  0  0  0  0
 21 23  2  0  0  0  0
 21 41  1  0  0  0  0
 22 24  2  0  0  0  0
 22 42  1  0  0  0  0
 23 50  1  0  0  0  0
 24 43  1  0  0  0  0
 25 30  2  0  0  0  0
 25 71  1  0  0  0  0
 26 82  1  0  0  0  0
 27 83  1  0  0  0  0
 28 31  2  0  0  0  0
 28 82  1  0  0  0  0
 29 84  1  0  0  0  0
 30 85  1  0  0  0  0
 31 86  1  0  0  0  0
 32 64  2  0  0  0  0
 33 65  1  0  0  0  0
 33 68  1  0  0  0  0
 34 69  1  0  0  0  0
 34 74  2  0  0  0  0
 35 70  1  0  0  0  0
 35 76  2  0  0  0  0
 36 51  1  0  0  0  0
 36 72  1  0  0  0  0
 36 77  2  0  0  0  0
 37 53  1  0  0  0  0
 37 60  1  0  0  0  0
 37 78  2  0  0  0  0
 38 61  1  0  0  0  0
 38 66  1  0  0  0  0
 38 79  2  0  0  0  0
 39 62  1  0  0  0  0
 39 73  1  0  0  0  0
 39 80  2  0  0  0  0
 40 67  1  0  0  0  0
 40 71  1  0  0  0  0
 40 81  2  0  0  0  0
 41 44  1  0  0  0  0
 42 51  1  0  0  0  0
 43 66  1  0  0  0  0
 44 46  1  0  0  0  0
 45 47  1  0  0  0  0
 45 48  1  0  0  0  0
 46 50  1  0  0  0  0
 47 52  1  0  0  0  0
 48 67  1  0  0  0  0
 49 52  1  0  0  0  0
 49 67  1  0  0  0  0
 50 72  1  0  0  0  0
 51 66  1  0  0  0  0
 52 65  1  0  0  0  0
 54 62  1  0  0  0  0
 55 63  1  0  0  0  0
 56 63  1  0  0  0  0
 57 63  1  0  0  0  0
 58 75  1  0  0  0  0
 59 60  1  0  0  0  0
 59 83  1  0  0  0  0
 60 74  1  0  0  0  0
 61 63  1  0  0  0  0
 61 73  1  0  0  0  0
 62 75  1  0  0  0  0
 64 65  1  0  0  0  0
M  CHG  2  74   1  75   1
M  ISO  4  40 100  59 101  71 100  83 101
M  END
> <Batch ID>
0072

> <Smiles>
CNC(C)C(=O)NC(C(=O)N1Cc2cc([101O:1][101CH2:1]C(NC(=N)c3ccc([100NH:0][100C:0](=O)N4CCCC(n5nc(-c6ccc(Oc7ccc(F)cc7F)cc6)c(C(N)=O)c5N)C4)c(F)c3)C(C)=O)ccc2CC1C(=O)NC1CCCc2ccccc21)C(C)(C)C

> <Shape>
0.254

> <Color>
0.067

> <Negative vol penalty>
0.000

$$$$

  -OEChem-04042323383D

 86 95  0     1  0  0  0  0  0999 V2000
  -16.7831  -30.2359   23.8600 C   0  0  0  0  0  0  0  0  0  0  0  0
  -17.9623  -30.8139   24.3193 C   0  0  0  0  0  0  0  0  0  0  0  0
  -36.5280  -28.5607   20.9608 C   0  0  0  0  0  0  0  0  0  0  0  0
  -28.1872  -21.3845   21.5711 C   0  0  0  0  0  0  0  0  0  0  0  0
  -26.4004  -21.9211   20.0359 C   0  0  0  0  0  0  0  0  0  0  0  0
  -16.8248  -29.0281   23.1648 C   0  0  0  0  0  0  0  0  0  0  0  0
  -19.1838  -30.1837   24.0846 C   0  0  0  0  0  0  0  0  0  0  0  0
  -26.0811  -31.6641   22.8388 C   0  0  0  0  0  0  0  0  0  0  0  0
  -36.1283  -28.3426   19.6424 C   0  0  0  0  0  0  0  0  0  0  0  0
  -35.6104  -29.0345   21.8985 C   0  0  0  0  0  0  0  0  0  0  0  0
  -27.5762  -20.1633   21.8554 C   0  0  0  0  0  0  0  0  0  0  0  0
  -25.7894  -20.6999   20.3202 C   0  0  0  0  0  0  0  0  0  0  0  0
  -27.3535  -31.3456   23.3115 C   0  0  0  0  0  0  0  0  0  0  0  0
  -26.1744  -17.4596   19.4410 C   0  0  0  0  0  0  0  0  0  0  0  0
  -25.6924  -16.7122   18.3665 C   0  0  0  0  0  0  0  0  0  0  0  0
  -27.3112  -29.3020   22.0304 C   0  0  0  0  0  0  0  0  0  0  0  0
  -23.4633  -16.8190   19.2923 C   0  0  0  0  0  0  0  0  0  0  0  0
  -27.5993  -22.2635   20.6614 C   0  0  0  0  0  0  0  0  0  0  0  0
  -28.5196  -24.5623   21.2747 C   0  0  0  0  0  0  0  0  0  0  0  0
  -18.0484  -28.3876   22.9130 C   0  0  0  0  0  0  0  0  0  0  0  0
  -25.4086  -30.7973   21.9655 C   0  0  0  0  0  0  0  0  0  0  0  0
  -19.2418  -28.9654   23.3866 C   0  0  0  0  0  0  0  0  0  0  0  0
  -26.0315  -29.6131   21.5461 C   0  0  0  0  0  0  0  0  0  0  0  0
  -34.8110  -28.5984   19.2615 C   0  0  0  0  0  0  0  0  0  0  0  0
  -34.2931  -29.2902   21.5177 C   0  0  0  0  0  0  0  0  0  0  0  0
  -26.3773  -19.8209   21.2300 C   0  0  0  0  0  0  0  0  0  0  0  0
  -27.9676  -30.1630   22.9095 C   0  0  0  0  0  0  0  0  0  0  0  0
  -25.3010  -17.8866   20.4412 C   0  0  0  0  0  0  0  0  0  0  0  0
  -24.3368  -16.3919   18.2921 C   0  0  0  0  0  0  0  0  0  0  0  0
  -23.9454  -17.5663   20.3668 C   0  0  0  0  0  0  0  0  0  0  0  0
  -33.8934  -29.0722   20.1992 C   0  0  0  0  0  0  0  0  0  0  0  0
  -28.2297  -23.5254   20.3677 C   0  0  0  0  0  0  0  0  0  0  0  0
  -29.1129  -25.5343   20.5068 C   0  0  0  0  0  0  0  0  0  0  0  0
  -32.4421  -30.4963   24.4371 C   0  0  0  0  0  0  0  0  0  0  0  0
  -31.4949  -30.5173   23.4968 C   0  0  0  0  0  0  0  0  0  0  0  0
  -33.6820  -30.0111   23.7988 C   0  0  0  0  0  0  0  0  0  0  0  0
  -28.2747  -24.6398   22.6852 C   0  0  0  0  0  0  0  0  0  0  0  0
  -22.6994  -29.1399   22.0951 C   0  0  0  0  0  0  0  0  0  0  0  0
  -23.4124  -28.4770   19.0008 C   0  0  0  0  0  0  0  0  0  0  0  0
  -25.7930  -28.2028   16.5709 C   0  0  0  0  0  0  0  0  0  0  0  0
  -32.7228  -27.0728   16.5384 C   0  0  0  0  0  0  0  0  0  0  0  0
  -18.0390  -27.0595   22.1985 C   0  0  0  0  0  0  0  0  0  0  0  0
  -24.0476  -31.1682   21.4436 C   0  0  0  0  0  0  0  0  0  0  0  0
  -25.3604  -28.6584   20.5939 C   0  0  0  0  0  0  0  0  0  0  0  0
  -31.9926  -30.0595   22.1692 C   0  0  0  0  0  0  0  0  0  0  0  0
  -19.4080  -26.6452   21.6651 C   0  0  0  0  0  0  0  0  0  0  0  0
  -29.5028  -25.9796   15.4832 C   0  0  0  0  0  0  0  0  0  0  0  0
  -20.4800  -26.8481   22.7311 C   0  0  0  0  0  0  0  0  0  0  0  0
  -28.9115  -25.3240   16.7324 C   0  0  0  0  0  0  0  0  0  0  0  0
  -31.0042  -25.7251   15.3692 C   0  0  0  0  0  0  0  0  0  0  0  0
  -31.1968  -25.4447   17.8102 C   0  0  0  0  0  0  0  0  0  0  0  0
  -20.5887  -28.3248   23.1301 C   0  0  1  0  0  0  0  0  0  0  0  0
  -23.2435  -29.9642   20.9628 C   0  0  1  0  0  0  0  0  0  0  0  0
  -29.6952  -25.7206   17.9981 C   0  0  2  0  0  0  0  0  0  0  0  0
  -26.0772  -27.6063   14.1500 C   0  0  0  0  0  0  0  0  0  0  0  0
  -23.1193  -25.5208   19.6973 C   0  0  0  0  0  0  0  0  0  0  0  0
  -24.3155  -24.9721   17.5674 C   0  0  0  0  0  0  0  0  0  0  0  0
  -22.1322  -26.1766   17.4950 C   0  0  0  0  0  0  0  0  0  0  0  0
  -26.8351  -30.8930   15.9106 C   0  0  0  0  0  0  0  0  0  0  0  0
  -34.3870  -28.3638   17.8509 C   0  0  0  0  0  0  0  0  0  0  0  0
  -30.0814  -30.9361   23.6777 C   0  0  0  0  0  0  0  0  0  1  0  0
  -24.1967  -27.3995   18.2916 C   0  0  1  0  0  0  0  0  0  0  0  0
  -25.8457  -28.7299   15.1483 C   0  0  2  0  0  0  0  0  0  0  0  0
  -23.4530  -26.0341   18.2823 C   0  0  0  0  0  0  0  0  0  0  0  0
  -28.6075  -23.8120   19.1190 N   0  0  0  0  0  0  0  0  0  0  0  0
  -29.1408  -25.0399   19.2359 N   0  0  0  0  0  0  0  0  0  0  0  0
  -33.3810  -29.7614   22.4541 N   0  0  0  0  0  0  0  0  0  0  0  0
  -24.0276  -29.0624   20.1165 N   0  0  0  0  0  0  0  0  0  0  0  0
  -31.6889  -26.1239   16.6013 N   0  0  0  0  0  0  0  0  0  0  0  0
  -29.6081  -26.7551   20.8013 N   0  0  0  0  0  0  0  0  0  0  0  0
  -27.0564  -25.1766   23.1233 N   0  0  0  0  0  0  0  0  0  0  0  0
  -21.3198  -29.0673   22.1258 N   0  0  0  0  0  0  0  0  0  0  0  0
  -24.5014  -27.9230   16.9644 N   0  0  0  0  0  0  0  0  0  0  0  0
  -33.3143  -27.3992   17.7526 N   0  0  0  0  0  0  0  0  0  0  0  0
  -26.9487  -29.7217   15.0039 N   0  3  0  0  0  0  0  0  0  0  0  0
  -34.7418  -29.8746   24.3881 O   0  0  0  0  0  0  0  0  0  0  0  0
  -29.1182  -24.2600   23.5324 O   0  0  0  0  0  0  0  0  0  0  0  0
  -23.4739  -28.6079   22.8818 O   0  0  0  0  0  0  0  0  0  0  0  0
  -22.2982  -28.7928   18.5762 O   0  0  0  0  0  0  0  0  0  0  0  0
  -26.7975  -28.0507   17.2625 O   0  0  0  0  0  0  0  0  0  0  0  0
  -33.0877  -27.5945   15.4794 O   0  0  0  0  0  0  0  0  0  0  0  0
  -25.7810  -18.6292   21.5070 O   0  0  0  0  0  0  0  0  0  0  0  0
  -29.2092  -29.8494   23.3699 O   0  0  0  0  0  0  0  0  0  1  0  0
  -23.8737  -15.6755   17.2594 F   0  0  0  0  0  0  0  0  0  0  0  0
  -23.1012  -17.9748   21.3241 F   0  0  0  0  0  0  0  0  0  0  0  0
  -32.6263  -29.3165   19.8324 F   0  0  0  0  0  0  0  0  0  0  0  0
  1  2  1  0  0  0  0
  1  6  2  0  0  0  0
  2  7  2  0  0  0  0
  3  9  1  0  0  0  0
  3 10  2  0  0  0  0
  4 11  2  0  0  0  0
  4 18  1  0  0  0  0
  5 12  1  0  0  0  0
  5 18  2  0  0  0  0
  6 20  1  0  0  0  0
  7 22  1  0  0  0  0
  8 13  2  0  0  0  0
  8 21  1  0  0  0  0
  9 24  2  0  0  0  0
 10 25  1  0  0  0  0
 11 26  1  0  0  0  0
 12 26  2  0  0  0  0
 13 27  1  0  0  0  0
 14 15  2  0  0  0  0
 14 28  1  0  0  0  0
 15 29  1  0  0  0  0
 16 23  1  0  0  0  0
 16 27  2  0  0  0  0
 17 29  2  0  0  0  0
 17 30  1  0  0  0  0
 18 32  1  0  0  0  0
 19 32  1  0  0  0  0
 19 33  2  0  0  0  0
 19 37  1  0  0  0  0
 20 22  2  0  0  0  0
 20 42  1  0  0  0  0
 21 23  2  0  0  0  0
 21 43  1  0  0  0  0
 22 52  1  0  0  0  0
 23 44  1  0  0  0  0
 24 31  1  0  0  0  0
 24 60  1  0  0  0  0
 25 31  2  0  0  0  0
 25 67  1  0  0  0  0
 26 82  1  0  0  0  0
 27 83  1  0  0  0  0
 28 30  2  0  0  0  0
 28 82  1  0  0  0  0
 29 84  1  0  0  0  0
 30 85  1  0  0  0  0
 31 86  1  0  0  0  0
 32 65  2  0  0  0  0
 33 66  1  0  0  0  0
 33 70  1  0  0  0  0
 34 35  2  0  0  0  0
 34 36  1  0  0  0  0
 35 45  1  0  0  0  0
 35 61  1  0  0  0  0
 36 67  1  0  0  0  0
 36 76  2  0  0  0  0
 37 71  1  0  0  0  0
 37 77  2  0  0  0  0
 38 53  1  0  0  0  0
 38 72  1  0  0  0  0
 38 78  2  0  0  0  0
 39 62  1  0  0  0  0
 39 68  1  0  0  0  0
 39 79  2  0  0  0  0
 40 63  1  0  0  0  0
 40 73  1  0  0  0  0
 40 80  2  0  0  0  0
 41 69  1  0  0  0  0
 41 74  1  0  0  0  0
 41 81  2  0  0  0  0
 42 46  1  0  0  0  0
 43 53  1  0  0  0  0
 44 68  1  0  0  0  0
 45 67  1  0  0  0  0
 46 48  1  0  0  0  0
 47 49  1  0  0  0  0
 47 50  1  0  0  0  0
 48 52  1  0  0  0  0
 49 54  1  0  0  0  0
 50 69  1  0  0  0  0
 51 54  1  0  0  0  0
 51 69  1  0  0  0  0
 52 72  1  0  0  0  0
 53 68  1  0  0  0  0
 54 66  1  0  0  0  0
 55 63  1  0  0  0  0
 56 64  1  0  0  0  0
 57 64  1  0  0  0  0
 58 64  1  0  0  0  0
 59 75  1  0  0  0  0
 60 74  1  0  0  0  0
 61 83  1  0  0  0  0
 62 64  1  0  0  0  0
 62 73  1  0  0  0  0
 63 75  1  0  0  0  0
 65 66  1  0  0  0  0
M  CHG  1  75   1
M  ISO  4  41 100  61 101  74 100  83 101
M  END
> <Batch ID>
0072

> <Smiles>
CNC(C)C(=O)NC(C(=O)N1Cc2cc([101O:1][101CH2:1]C3=CC(=O)N(c4cccc(C[100NH:0][100C:0](=O)N5CCCC(n6nc(-c7ccc(Oc8ccc(F)cc8F)cc7)c(C(N)=O)c6N)C5)c4F)C3)ccc2CC1C(=O)NC1CCCc2ccccc21)C(C)(C)C

> <Shape>
0.196

> <Color>
0.099

> <Negative vol penalty>
0.000

$$$$

  -OEChem-04042323383D

 84 92  0     1  0  0  0  0  0999 V2000
  -26.7578  -37.8301   18.9824 C   0  0  0  0  0  0  0  0  0  0  0  0
  -27.3419  -36.5750   18.8458 C   0  0  0  0  0  0  0  0  0  0  0  0
  -26.5253  -10.5099   20.0485 C   0  0  0  0  0  0  0  0  0  0  0  0
  -25.9693  -12.2823   18.5037 C   0  0  0  0  0  0  0  0  0  0  0  0
  -25.8934  -38.0834   20.0466 C   0  0  0  0  0  0  0  0  0  0  0  0
  -27.0629  -35.5726   19.7741 C   0  0  0  0  0  0  0  0  0  0  0  0
  -26.5982  -29.5653   18.6777 C   0  0  0  0  0  0  0  0  0  0  0  0
  -29.4064  -20.5022   21.7149 C   0  0  0  0  0  0  0  0  0  0  0  0
  -25.2336   -9.9979   19.9261 C   0  0  0  0  0  0  0  0  0  0  0  0
  -24.6776  -11.7703   18.3813 C   0  0  0  0  0  0  0  0  0  0  0  0
  -27.4949  -28.5101   18.8397 C   0  0  0  0  0  0  0  0  0  0  0  0
  -21.9725   -8.4324   20.2971 C   0  0  0  0  0  0  0  0  0  0  0  0
  -21.3108   -8.0518   21.4644 C   0  0  0  0  0  0  0  0  0  0  0  0
  -28.9029  -21.7791   21.4664 C   0  0  0  0  0  0  0  0  0  0  0  0
  -26.5098  -28.0102   20.9842 C   0  0  0  0  0  0  0  0  0  0  0  0
  -28.3573  -21.1239   19.2058 C   0  0  0  0  0  0  0  0  0  0  0  0
  -21.4903  -10.3105   22.3028 C   0  0  0  0  0  0  0  0  0  0  0  0
  -26.8932  -11.6521   19.3374 C   0  0  0  0  0  0  0  0  0  0  0  0
  -29.3503  -11.8524   18.6815 C   0  0  0  0  0  0  0  0  0  0  0  0
  -25.5961  -37.0807   20.9830 C   0  0  0  0  0  0  0  0  0  0  0  0
  -25.6561  -29.8582   19.6742 C   0  0  0  0  0  0  0  0  0  0  0  0
  -26.1948  -35.8130   20.8526 C   0  0  0  0  0  0  0  0  0  0  0  0
  -25.6005  -29.0680   20.8312 C   0  0  0  0  0  0  0  0  0  0  0  0
  -29.3854  -19.5362   20.7089 C   0  0  0  0  0  0  0  0  0  0  0  0
  -28.8609  -19.8470   19.4543 C   0  0  0  0  0  0  0  0  0  0  0  0
  -24.3098  -10.6281   19.0925 C   0  0  0  0  0  0  0  0  0  0  0  0
  -27.4527  -27.7342   19.9944 C   0  0  0  0  0  0  0  0  0  0  0  0
  -22.3932   -9.7522   20.1325 C   0  0  0  0  0  0  0  0  0  0  0  0
  -21.0697   -8.9908   22.4673 C   0  0  0  0  0  0  0  0  0  0  0  0
  -22.1521  -10.6912   21.1354 C   0  0  0  0  0  0  0  0  0  0  0  0
  -28.3783  -22.0899   20.2118 C   0  0  0  0  0  0  0  0  0  0  0  0
  -28.2272  -12.1817   19.4638 C   0  0  0  0  0  0  0  0  0  0  0  0
  -30.3651  -12.6212   19.1969 C   0  0  0  0  0  0  0  0  0  0  0  0
  -29.4659  -10.9339   17.5867 C   0  0  0  0  0  0  0  0  0  0  0  0
  -25.0753  -32.3607   21.5460 C   0  0  0  0  0  0  0  0  0  0  0  0
  -22.4820  -30.6163   22.4143 C   0  0  0  0  0  0  0  0  0  0  0  0
  -21.0151  -27.5473   22.6911 C   0  0  0  0  0  0  0  0  0  0  0  0
  -30.4532  -17.7955   22.1841 C   0  0  0  0  0  0  0  0  0  0  0  0
  -24.6928  -37.4158   22.1434 C   0  0  0  0  0  0  0  0  0  0  0  0
  -24.6782  -30.9831   19.4723 C   0  0  0  0  0  0  0  0  0  0  0  0
  -24.5949  -29.3285   21.9218 C   0  0  0  0  0  0  0  0  0  0  0  0
  -24.1562  -36.1866   22.8723 C   0  0  0  0  0  0  0  0  0  0  0  0
  -31.7998  -14.6847   23.2734 C   0  0  0  0  0  0  0  0  0  0  0  0
  -25.2803  -35.1903   23.1377 C   0  0  0  0  0  0  0  0  0  0  0  0
  -31.1433  -13.6605   22.3449 C   0  0  0  0  0  0  0  0  0  0  0  0
  -30.8410  -15.8172   23.6369 C   0  0  0  0  0  0  0  0  0  0  0  0
  -29.5565  -15.4659   21.5643 C   0  0  0  0  0  0  0  0  0  0  0  0
  -25.8975  -34.6924   21.8252 C   0  0  1  0  0  0  0  0  0  0  0  0
  -24.0990  -31.5133   20.7803 C   0  0  1  0  0  0  0  0  0  0  0  0
  -30.5039  -14.3402   21.1183 C   0  0  2  0  0  0  0  0  0  0  0  0
  -18.9050  -26.4357   23.4717 C   0  0  0  0  0  0  0  0  0  0  0  0
  -23.3721  -30.9668   25.3116 C   0  0  0  0  0  0  0  0  0  0  0  0
  -21.8289  -29.0977   25.9388 C   0  0  0  0  0  0  0  0  0  0  0  0
  -20.9088  -31.1915   24.9426 C   0  0  0  0  0  0  0  0  0  0  0  0
  -27.8250  -18.8714   17.4048 C   0  0  0  0  0  0  0  0  0  0  0  0
  -20.4346  -26.4901   19.9884 C   0  0  0  0  0  0  0  0  0  0  0  0
  -28.7796  -26.0453   18.9732 C   0  0  0  0  0  0  0  0  0  1  0  0
  -29.1368  -24.6097   19.3013 C   0  0  0  0  0  0  0  0  0  0  0  0
  -22.1956  -29.5829   23.4768 C   0  0  1  0  0  0  0  0  0  0  0  0
  -19.6387  -27.0488   22.2891 C   0  0  2  0  0  0  0  0  0  0  0  0
  -22.0967  -30.2058   24.8980 C   0  0  0  0  0  0  0  0  0  0  0  0
  -28.5023  -13.0889   20.4048 N   0  0  0  0  0  0  0  0  0  0  0  0
  -29.8099  -13.3361   20.2171 N   0  0  0  0  0  0  0  0  0  0  0  0
  -23.6642  -30.4435   21.6806 N   0  0  0  0  0  0  0  0  0  0  0  0
  -30.2775  -16.4165   22.4253 N   0  0  0  0  0  0  0  0  0  0  0  0
  -31.6693  -12.7485   18.8725 N   0  0  0  0  0  0  0  0  0  0  0  0
  -28.3250  -10.2254   17.1857 N   0  0  0  0  0  0  0  0  0  0  0  0
  -29.9020  -18.2460   20.9850 N   0  0  0  0  0  0  0  0  0  0  0  0
  -28.8291  -18.8837   18.4212 N   0  0  0  0  0  0  0  0  0  0  0  0
  -25.0427  -33.7004   21.2091 N   0  0  0  0  0  0  0  0  0  0  0  0
  -20.9919  -28.8790   23.0478 N   0  0  0  0  0  0  0  0  0  0  0  0
  -19.7535  -26.0162   21.2207 N   0  3  0  0  0  0  0  0  0  0  0  0
  -30.5525  -10.7347   16.9926 O   0  0  0  0  0  0  0  0  0  0  0  0
  -25.8033  -31.8380   22.3819 O   0  0  0  0  0  0  0  0  0  0  0  0
  -21.6824  -31.5387   22.2367 O   0  0  0  0  0  0  0  0  0  0  0  0
  -22.0105  -26.8264   22.6923 O   0  0  0  0  0  0  0  0  0  0  0  0
  -31.0723  -18.5180   22.9695 O   0  0  0  0  0  0  0  0  0  0  0  0
  -26.7724  -23.5822   18.8231 O   0  0  0  0  0  0  0  0  0  0  0  0
  -27.3493  -24.2896   21.1711 O   0  0  0  0  0  0  0  0  0  0  0  0
  -23.0493  -10.1287   18.9726 O   0  0  0  0  0  0  0  0  0  0  0  0
  -28.3272  -26.7040   20.1554 O   0  0  0  0  0  0  0  0  0  1  0  0
  -20.4328   -8.6255   23.5876 F   0  0  0  0  0  0  0  0  0  0  0  0
  -22.5528  -11.9608   20.9825 F   0  0  0  0  0  0  0  0  0  0  0  0
  -27.7399  -23.7083   19.8988 S   0  0  0  0  0  0  0  0  0  0  0  0
  1  2  1  0  0  0  0
  1  5  2  0  0  0  0
  2  6  2  0  0  0  0
  3  9  2  0  0  0  0
  3 18  1  0  0  0  0
  4 10  1  0  0  0  0
  4 18  2  0  0  0  0
  5 20  1  0  0  0  0
  6 22  1  0  0  0  0
  7 11  2  0  0  0  0
  7 21  1  0  0  0  0
  8 14  2  0  0  0  0
  8 24  1  0  0  0  0
  9 26  1  0  0  0  0
 10 26  2  0  0  0  0
 11 27  1  0  0  0  0
 12 13  2  0  0  0  0
 12 28  1  0  0  0  0
 13 29  1  0  0  0  0
 14 31  1  0  0  0  0
 15 23  1  0  0  0  0
 15 27  2  0  0  0  0
 16 25  1  0  0  0  0
 16 31  2  0  0  0  0
 17 29  2  0  0  0  0
 17 30  1  0  0  0  0
 18 32  1  0  0  0  0
 19 32  1  0  0  0  0
 19 33  2  0  0  0  0
 19 34  1  0  0  0  0
 20 22  2  0  0  0  0
 20 39  1  0  0  0  0
 21 23  2  0  0  0  0
 21 40  1  0  0  0  0
 22 48  1  0  0  0  0
 23 41  1  0  0  0  0
 24 25  2  0  0  0  0
 24 68  1  0  0  0  0
 25 69  1  0  0  0  0
 26 80  1  0  0  0  0
 27 81  1  0  0  0  0
 28 30  2  0  0  0  0
 28 80  1  0  0  0  0
 29 82  1  0  0  0  0
 30 83  1  0  0  0  0
 31 84  1  0  0  0  0
 32 62  2  0  0  0  0
 33 63  1  0  0  0  0
 33 66  1  0  0  0  0
 34 67  1  0  0  0  0
 34 73  2  0  0  0  0
 35 49  1  0  0  0  0
 35 70  1  0  0  0  0
 35 74  2  0  0  0  0
 36 59  1  0  0  0  0
 36 64  1  0  0  0  0
 36 75  2  0  0  0  0
 37 60  1  0  0  0  0
 37 71  1  0  0  0  0
 37 76  2  0  0  0  0
 38 65  1  0  0  0  0
 38 68  1  0  0  0  0
 38 77  2  0  0  0  0
 39 42  1  0  0  0  0
 40 49  1  0  0  0  0
 41 64  1  0  0  0  0
 42 44  1  0  0  0  0
 43 45  1  0  0  0  0
 43 46  1  0  0  0  0
 44 48  1  0  0  0  0
 45 50  1  0  0  0  0
 46 65  1  0  0  0  0
 47 50  1  0  0  0  0
 47 65  1  0  0  0  0
 48 70  1  0  0  0  0
 49 64  1  0  0  0  0
 50 63  1  0  0  0  0
 51 60  1  0  0  0  0
 52 61  1  0  0  0  0
 53 61  1  0  0  0  0
 54 61  1  0  0  0  0
 55 69  1  0  0  0  0
 56 72  1  0  0  0  0
 57 58  1  0  0  0  0
 57 81  1  0  0  0  0
 58 84  1  0  0  0  0
 59 61  1  0  0  0  0
 59 71  1  0  0  0  0
 60 72  1  0  0  0  0
 62 63  1  0  0  0  0
 78 84  2  0  0  0  0
 79 84  2  0  0  0  0
M  CHG  1  72   1
M  ISO  4  38 100  57 101  68 100  81 101
M  END
> <Batch ID>
0072

> <Smiles>
CNc1cc(S(=O)(=O)C[101CH2:1][101O:1]c2ccc3c(c2)CN(C(=O)C(NC(=O)C(C)NC)C(C)(C)C)C(C(=O)NC2CCCc4ccccc42)C3)ccc1[100NH:0][100C:0](=O)N1CCCC(n2nc(-c3ccc(Oc4ccc(F)cc4F)cc3)c(C(N)=O)c2N)C1

> <Shape>
0.328

> <Color>
0.074

> <Negative vol penalty>
0.000

$$$$

  -OEChem-04042323383D

 87 96  0     1  0  0  0  0  0999 V2000
  -23.0027  -23.8677   18.4724 C   0  0  0  0  0  0  0  0  0  0  0  0
  -24.1356  -23.1863   18.9054 C   0  0  0  0  0  0  0  0  0  0  0  0
  -25.3418  -27.7394   19.5795 C   0  0  0  0  0  0  0  0  0  0  0  0
  -25.3901  -26.3079   21.5251 C   0  0  0  0  0  0  0  0  0  0  0  0
  -31.3790  -19.6055   23.2569 C   0  0  0  0  0  0  0  0  0  0  0  0
  -21.7354  -23.4060   18.8257 C   0  0  0  0  0  0  0  0  0  0  0  0
  -24.0020  -22.0433   19.6929 C   0  0  0  0  0  0  0  0  0  0  0  0
  -27.0415  -18.2821   18.1896 C   0  0  0  0  0  0  0  0  0  0  0  0
  -31.3286  -20.8697   22.6696 C   0  0  0  0  0  0  0  0  0  0  0  0
  -23.9519  -27.6314   19.5345 C   0  0  0  0  0  0  0  0  0  0  0  0
  -24.0001  -26.1999   21.4801 C   0  0  0  0  0  0  0  0  0  0  0  0
  -28.3851  -18.3659   18.5520 C   0  0  0  0  0  0  0  0  0  0  0  0
  -20.4348  -25.8391   22.0936 C   0  0  0  0  0  0  0  0  0  0  0  0
  -19.7343  -25.9704   23.2926 C   0  0  0  0  0  0  0  0  0  0  0  0
  -27.9865  -16.8236   20.3635 C   0  0  0  0  0  0  0  0  0  0  0  0
  -32.4070  -19.9942   20.6928 C   0  0  0  0  0  0  0  0  0  0  0  0
  -20.6249  -28.1992   23.5690 C   0  0  0  0  0  0  0  0  0  0  0  0
  -26.0609  -27.0776   20.5747 C   0  0  0  0  0  0  0  0  0  0  0  0
  -31.9434  -18.5357   22.5622 C   0  0  0  0  0  0  0  0  0  0  0  0
  -28.2529  -28.1535   21.3130 C   0  0  0  0  0  0  0  0  0  0  0  0
  -21.5859  -22.2513   19.6098 C   0  0  0  0  0  0  0  0  0  0  0  0
  -26.1564  -17.4756   18.9194 C   0  0  0  0  0  0  0  0  0  0  0  0
  -22.7315  -21.5665   20.0581 C   0  0  0  0  0  0  0  0  0  0  0  0
  -26.6326  -16.7294   20.0068 C   0  0  0  0  0  0  0  0  0  0  0  0
  -32.4574  -18.7301   21.2801 C   0  0  0  0  0  0  0  0  0  0  0  0
  -31.8426  -21.0641   21.3876 C   0  0  0  0  0  0  0  0  0  0  0  0
  -23.2810  -26.8617   20.4848 C   0  0  0  0  0  0  0  0  0  0  0  0
  -28.8572  -17.6388   19.6408 C   0  0  0  0  0  0  0  0  0  0  0  0
  -21.2304  -26.8879   21.6323 C   0  0  0  0  0  0  0  0  0  0  0  0
  -19.8293  -27.1504   24.0303 C   0  0  0  0  0  0  0  0  0  0  0  0
  -21.3255  -28.0679   22.3700 C   0  0  0  0  0  0  0  0  0  0  0  0
  -27.4968  -27.1883   20.6214 C   0  0  0  0  0  0  0  0  0  0  0  0
  -29.5588  -27.8263   21.0409 C   0  0  0  0  0  0  0  0  0  0  0  0
  -33.3267  -15.9181   19.1645 C   0  0  0  0  0  0  0  0  0  0  0  0
  -34.5371  -16.1579   19.6709 C   0  0  0  0  0  0  0  0  0  0  0  0
  -32.3470  -16.8185   19.7124 C   0  0  0  0  0  0  0  0  0  0  0  0
  -34.3882  -17.3041   20.5979 C   0  0  0  0  0  0  0  0  0  0  0  0
  -31.0428  -16.8312   19.4366 C   0  0  0  0  0  0  0  0  0  1  0  0
  -31.9806  -17.2279   23.2049 C   0  0  0  0  0  0  0  0  0  0  0  0
  -27.8142  -29.2480   22.1287 C   0  0  0  0  0  0  0  0  0  0  0  0
  -23.5336  -18.0061   20.6351 C   0  0  0  0  0  0  0  0  0  0  0  0
  -23.4414  -14.7666   20.7763 C   0  0  0  0  0  0  0  0  0  0  0  0
  -25.1366  -11.8097   20.6042 C   0  0  0  0  0  0  0  0  0  0  0  0
  -32.2558  -22.7131   19.5285 C   0  0  0  0  0  0  0  0  0  0  0  0
  -20.1968  -21.8174   20.0057 C   0  0  0  0  0  0  0  0  0  0  0  0
  -24.7156  -17.3753   18.4994 C   0  0  0  0  0  0  0  0  0  0  0  0
  -25.7276  -15.8331   20.8106 C   0  0  0  0  0  0  0  0  0  0  0  0
  -20.1322  -20.3853   20.5302 C   0  0  0  0  0  0  0  0  0  0  0  0
  -32.2803  -25.7596   17.6858 C   0  0  0  0  0  0  0  0  0  0  0  0
  -21.2476  -20.1359   21.5404 C   0  0  0  0  0  0  0  0  0  0  0  0
  -31.1291  -26.5620   18.2965 C   0  0  0  0  0  0  0  0  0  0  0  0
  -31.9566  -24.2684   17.6136 C   0  0  0  0  0  0  0  0  0  0  0  0
  -30.3747  -24.4669   19.4918 C   0  0  0  0  0  0  0  0  0  0  0  0
  -22.6269  -20.3087   20.8931 C   0  0  1  0  0  0  0  0  0  0  0  0
  -23.7944  -16.9220   19.6278 C   0  0  1  0  0  0  0  0  0  0  0  0
  -30.6799  -25.9659   19.6450 C   0  0  2  0  0  0  0  0  0  0  0  0
  -32.0781  -17.1966   24.7010 C   0  0  0  0  0  0  0  0  0  0  0  0
  -24.7980   -9.3307   20.7975 C   0  0  0  0  0  0  0  0  0  0  0  0
  -23.2747  -15.0285   23.8117 C   0  0  0  0  0  0  0  0  0  0  0  0
  -23.8925  -12.6085   23.9847 C   0  0  0  0  0  0  0  0  0  0  0  0
  -21.7832  -13.2762   22.8324 C   0  0  0  0  0  0  0  0  0  0  0  0
  -26.0325  -11.3533   17.8207 C   0  0  0  0  0  0  0  0  0  0  0  0
  -24.0038  -13.7207   21.7084 C   0  0  1  0  0  0  0  0  0  0  0  0
  -24.8436  -10.5228   19.8542 C   0  0  2  0  0  0  0  0  0  0  0  0
  -23.2555  -13.6768   23.0705 C   0  0  0  0  0  0  0  0  0  0  0  0
  -28.2588  -26.3136   19.9595 N   0  0  0  0  0  0  0  0  0  0  0  0
  -29.5074  -26.7279   20.2339 N   0  0  0  0  0  0  0  0  0  0  0  0
  -33.0267  -17.6752   20.5675 N   0  0  0  0  0  0  0  0  0  0  0  0
  -24.3259  -15.7735   20.3645 N   0  0  0  0  0  0  0  0  0  0  0  0
  -31.5429  -23.7724   18.9280 N   0  0  0  0  0  0  0  0  0  0  0  0
  -30.7345  -28.3738   21.4154 N   0  0  0  0  0  0  0  0  0  0  0  0
  -26.4370  -29.4407   22.3037 N   0  0  0  0  0  0  0  0  0  0  0  0
  -31.7913  -22.3487   20.7918 N   0  0  0  0  0  0  0  0  0  0  0  0
  -22.9626  -19.1452   20.1006 N   0  0  0  0  0  0  0  0  0  0  0  0
  -23.9786  -12.4616   20.9718 N   0  0  0  0  0  0  0  0  0  0  0  0
  -25.8946  -10.2703   18.8283 N   0  3  0  0  0  0  0  0  0  0  0  0
  -35.3084  -17.7911   21.2343 O   0  0  0  0  0  0  0  0  0  0  0  0
  -31.9428  -16.1509   22.6101 O   0  0  0  0  0  0  0  0  0  0  0  0
  -28.6191  -30.0417   22.6724 O   0  0  0  0  0  0  0  0  0  0  0  0
  -23.8274  -17.8220   21.8105 O   0  0  0  0  0  0  0  0  0  0  0  0
  -22.2627  -14.6890   20.4209 O   0  0  0  0  0  0  0  0  0  0  0  0
  -26.2786  -12.1960   20.8434 O   0  0  0  0  0  0  0  0  0  0  0  0
  -33.2251  -22.1875   18.9752 O   0  0  0  0  0  0  0  0  0  0  0  0
  -21.9247  -26.7563   20.4414 O   0  0  0  0  0  0  0  0  0  0  0  0
  -30.1682  -17.7193   19.9970 O   0  0  0  0  0  0  0  0  0  1  0  0
  -19.1553  -27.2769   25.1809 F   0  0  0  0  0  0  0  0  0  0  0  0
  -22.0873  -29.0793   21.9313 F   0  0  0  0  0  0  0  0  0  0  0  0
  1  2  1  0  0  0  0
  1  6  2  0  0  0  0
  2  7  2  0  0  0  0
  3 10  2  0  0  0  0
  3 18  1  0  0  0  0
  4 11  1  0  0  0  0
  4 18  2  0  0  0  0
  5  9  2  0  0  0  0
  5 19  1  0  0  0  0
  6 21  1  0  0  0  0
  7 23  1  0  0  0  0
  8 12  2  0  0  0  0
  8 22  1  0  0  0  0
  9 26  1  0  0  0  0
 10 27  1  0  0  0  0
 11 27  2  0  0  0  0
 12 28  1  0  0  0  0
 13 14  2  0  0  0  0
 13 29  1  0  0  0  0
 14 30  1  0  0  0  0
 15 24  1  0  0  0  0
 15 28  2  0  0  0  0
 16 25  1  0  0  0  0
 16 26  2  0  0  0  0
 17 30  2  0  0  0  0
 17 31  1  0  0  0  0
 18 32  1  0  0  0  0
 19 25  2  0  0  0  0
 19 39  1  0  0  0  0
 20 32  1  0  0  0  0
 20 33  2  0  0  0  0
 20 40  1  0  0  0  0
 21 23  2  0  0  0  0
 21 45  1  0  0  0  0
 22 24  2  0  0  0  0
 22 46  1  0  0  0  0
 23 54  1  0  0  0  0
 24 47  1  0  0  0  0
 25 68  1  0  0  0  0
 26 73  1  0  0  0  0
 27 84  1  0  0  0  0
 28 85  1  0  0  0  0
 29 31  2  0  0  0  0
 29 84  1  0  0  0  0
 30 86  1  0  0  0  0
 31 87  1  0  0  0  0
 32 66  2  0  0  0  0
 33 67  1  0  0  0  0
 33 71  1  0  0  0  0
 34 35  2  0  0  0  0
 34 36  1  0  0  0  0
 35 37  1  0  0  0  0
 36 38  2  0  0  0  0
 36 68  1  0  0  0  0
 37 68  1  0  0  0  0
 37 77  2  0  0  0  0
 38 85  1  0  0  0  0
 39 57  1  0  0  0  0
 39 78  2  0  0  0  0
 40 72  1  0  0  0  0
 40 79  2  0  0  0  0
 41 55  1  0  0  0  0
 41 74  1  0  0  0  0
 41 80  2  0  0  0  0
 42 63  1  0  0  0  0
 42 69  1  0  0  0  0
 42 81  2  0  0  0  0
 43 64  1  0  0  0  0
 43 75  1  0  0  0  0
 43 82  2  0  0  0  0
 44 70  1  0  0  0  0
 44 73  1  0  0  0  0
 44 83  2  0  0  0  0
 45 48  1  0  0  0  0
 46 55  1  0  0  0  0
 47 69  1  0  0  0  0
 48 50  1  0  0  0  0
 49 51  1  0  0  0  0
 49 52  1  0  0  0  0
 50 54  1  0  0  0  0
 51 56  1  0  0  0  0
 52 70  1  0  0  0  0
 53 56  1  0  0  0  0
 53 70  1  0  0  0  0
 54 74  1  0  0  0  0
 55 69  1  0  0  0  0
 56 67  1  0  0  0  0
 58 64  1  0  0  0  0
 59 65  1  0  0  0  0
 60 65  1  0  0  0  0
 61 65  1  0  0  0  0
 62 76  1  0  0  0  0
 63 65  1  0  0  0  0
 63 75  1  0  0  0  0
 64 76  1  0  0  0  0
 66 67  1  0  0  0  0
M  CHG  1  76   1
M  ISO  4  38 101  44 100  73 100  85 101
M  END
> <Batch ID>
0072

> <Smiles>
CNC(C)C(=O)NC(C(=O)N1Cc2cc([101O:1][101CH:1]=C3C=CC(=O)N3c3cc([100NH:0][100C:0](=O)N4CCCC(n5nc(-c6ccc(Oc7ccc(F)cc7F)cc6)c(C(N)=O)c5N)C4)ccc3C(C)=O)ccc2CC1C(=O)NC1CCCc2ccccc21)C(C)(C)C

> <Shape>
0.202

> <Color>
0.066

> <Negative vol penalty>
0.000

$$$$

  -OEChem-04042323383D

 86 95  0     1  0  0  0  0  0999 V2000
  -26.0818  -31.7889   24.1232 C   0  0  0  0  0  0  0  0  0  0  0  0
  -26.0266  -30.5308   24.7144 C   0  0  0  0  0  0  0  0  0  0  0  0
  -22.6806  -10.7127   21.8180 C   0  0  0  0  0  0  0  0  0  0  0  0
  -24.2903   -9.4263   20.5566 C   0  0  0  0  0  0  0  0  0  0  0  0
  -25.6698  -31.9555   22.8016 C   0  0  0  0  0  0  0  0  0  0  0  0
  -25.5583  -29.4387   23.9847 C   0  0  0  0  0  0  0  0  0  0  0  0
  -28.4575  -25.3274   24.5651 C   0  0  0  0  0  0  0  0  0  0  0  0
  -21.9192   -9.5616   22.0203 C   0  0  0  0  0  0  0  0  0  0  0  0
  -23.5289   -8.2751   20.7590 C   0  0  0  0  0  0  0  0  0  0  0  0
  -28.3002  -24.5985   25.7432 C   0  0  0  0  0  0  0  0  0  0  0  0
  -23.0124   -6.0361   23.2370 C   0  0  0  0  0  0  0  0  0  0  0  0
  -23.6857   -4.8729   23.6099 C   0  0  0  0  0  0  0  0  0  0  0  0
  -26.9215  -23.0064   24.5669 C   0  0  0  0  0  0  0  0  0  0  0  0
  -27.7209  -16.7816   27.5035 C   0  0  0  0  0  0  0  0  0  0  0  0
  -29.9178  -16.4934   25.8085 C   0  0  0  0  0  0  0  0  0  0  0  0
  -22.8705   -3.7644   21.6240 C   0  0  0  0  0  0  0  0  0  0  0  0
  -23.8661  -10.6450   21.0861 C   0  0  0  0  0  0  0  0  0  0  0  0
  -24.2493  -13.0168   20.2284 C   0  0  0  0  0  0  0  0  0  0  0  0
  -25.2054  -30.8631   22.0523 C   0  0  0  0  0  0  0  0  0  0  0  0
  -27.8380  -24.9065   23.3796 C   0  0  0  0  0  0  0  0  0  0  0  0
  -25.1385  -29.5911   22.6523 C   0  0  0  0  0  0  0  0  0  0  0  0
  -27.0746  -23.7303   23.3746 C   0  0  0  0  0  0  0  0  0  0  0  0
  -28.7387  -17.7352   27.5128 C   0  0  0  0  0  0  0  0  0  0  0  0
  -28.8999  -15.5397   25.7992 C   0  0  0  0  0  0  0  0  0  0  0  0
  -22.3434   -8.3429   21.4909 C   0  0  0  0  0  0  0  0  0  0  0  0
  -27.5297  -23.4394   25.7449 C   0  0  0  0  0  0  0  0  0  0  0  0
  -22.2681   -6.0635   22.0576 C   0  0  0  0  0  0  0  0  0  0  0  0
  -23.6148   -3.7370   22.8035 C   0  0  0  0  0  0  0  0  0  0  0  0
  -27.8015  -15.6838   26.6467 C   0  0  0  0  0  0  0  0  0  0  0  0
  -29.8372  -17.5911   26.6653 C   0  0  0  0  0  0  0  0  0  0  0  0
  -22.1972   -4.9276   21.2511 C   0  0  0  0  0  0  0  0  0  0  0  0
  -24.6528  -11.8338   20.8762 C   0  0  0  0  0  0  0  0  0  0  0  0
  -25.3505  -13.8353   20.2912 C   0  0  0  0  0  0  0  0  0  0  0  0
  -22.9916  -13.3463   19.6241 C   0  0  0  0  0  0  0  0  0  0  0  0
  -25.6556  -26.1436   21.4275 C   0  0  0  0  0  0  0  0  0  0  0  0
  -26.3630  -23.5437   19.6213 C   0  0  0  0  0  0  0  0  0  0  0  0
  -26.9994  -20.0378   20.1878 C   0  0  0  0  0  0  0  0  0  0  0  0
  -30.0064  -14.1354   24.0244 C   0  0  0  0  0  0  0  0  0  0  0  0
  -24.7265  -31.1012   20.6421 C   0  0  0  0  0  0  0  0  0  0  0  0
  -28.0394  -25.6893   22.1111 C   0  0  0  0  0  0  0  0  0  0  0  0
  -26.4052  -23.2247   22.1237 C   0  0  0  0  0  0  0  0  0  0  0  0
  -24.5958  -29.8221   19.8191 C   0  0  0  0  0  0  0  0  0  0  0  0
  -29.6878  -20.1431   30.4094 C   0  0  0  0  0  0  0  0  0  0  0  0
  -30.1322  -13.6704   20.4967 C   0  0  0  0  0  0  0  0  0  0  0  0
  -29.7955  -18.9446   29.4693 C   0  0  0  0  0  0  0  0  0  0  0  0
  -23.8743  -28.7432   20.6205 C   0  0  0  0  0  0  0  0  0  0  0  0
  -29.6177  -21.4591   29.6389 C   0  0  0  0  0  0  0  0  0  0  0  0
  -28.7031  -13.2602   20.1339 C   0  0  0  0  0  0  0  0  0  0  0  0
  -28.5815  -20.2574   27.6703 C   0  0  0  0  0  0  0  0  0  0  0  0
  -30.5653  -13.0885   21.8411 C   0  0  0  0  0  0  0  0  0  0  0  0
  -28.2242  -12.9525   22.5962 C   0  0  0  0  0  0  0  0  0  0  0  0
  -28.6475  -18.9291   28.4460 C   0  0  1  0  0  0  0  0  0  0  0  0
  -24.6600  -28.3774   21.8855 C   0  0  1  0  0  0  0  0  0  0  0  0
  -26.9415  -25.4484   21.0797 C   0  0  1  0  0  0  0  0  0  0  0  0
  -28.4694  -21.4591   28.6210 C   0  0  2  0  0  0  0  0  0  0  0  0
  -27.7202  -13.5679   21.2805 C   0  0  2  0  0  0  0  0  0  0  0  0
  -28.3466  -18.3888   18.8600 C   0  0  0  0  0  0  0  0  0  0  0  0
  -23.6979  -22.8728   18.2958 C   0  0  0  0  0  0  0  0  0  0  0  0
  -24.3900  -20.4668   18.2816 C   0  0  0  0  0  0  0  0  0  0  0  0
  -25.7153  -22.1516   17.0058 C   0  0  0  0  0  0  0  0  0  0  0  0
  -28.6500  -19.3190   22.5368 C   0  0  0  0  0  0  0  0  0  0  0  0
  -28.4460  -22.7686   27.8344 C   0  0  0  0  0  0  0  0  0  1  0  0
  -25.8401  -22.1304   19.5309 C   0  0  1  0  0  0  0  0  0  0  0  0
  -28.3329  -19.3238   20.0593 C   0  0  2  0  0  0  0  0  0  0  0  0
  -24.9099  -21.9201   18.3029 C   0  0  0  0  0  0  0  0  0  0  0  0
  -25.9120  -11.8915   21.3179 N   0  0  0  0  0  0  0  0  0  0  0  0
  -26.3093  -13.1206   20.9469 N   0  0  0  0  0  0  0  0  0  0  0  0
  -26.6268  -24.0284   20.9102 N   0  0  0  0  0  0  0  0  0  0  0  0
  -29.5888  -13.4237   22.8799 N   0  0  0  0  0  0  0  0  0  0  0  0
  -25.5824  -15.0895   19.8488 N   0  0  0  0  0  0  0  0  0  0  0  0
  -22.8032  -13.0471   18.2679 N   0  0  0  0  0  0  0  0  0  0  0  0
  -28.9844  -14.4258   24.9276 N   0  0  0  0  0  0  0  0  0  0  0  0
  -25.7741  -27.5143   21.5567 N   0  0  0  0  0  0  0  0  0  0  0  0
  -27.0108  -21.2601   19.5497 N   0  0  0  0  0  0  0  0  0  0  0  0
  -28.6111  -18.5216   21.2840 N   0  3  0  0  0  0  0  0  0  0  0  0
  -22.0683  -13.9050   20.2635 O   0  0  0  0  0  0  0  0  0  0  0  0
  -24.6314  -25.4853   21.5669 O   0  0  0  0  0  0  0  0  0  0  0  0
  -26.5378  -24.1912   18.5860 O   0  0  0  0  0  0  0  0  0  0  0  0
  -26.0420  -19.5575   20.7906 O   0  0  0  0  0  0  0  0  0  0  0  0
  -31.1790  -14.4868   24.1781 O   0  0  0  0  0  0  0  0  0  0  0  0
  -21.6008   -7.2194   21.6883 O   0  0  0  0  0  0  0  0  0  0  0  0
  -27.3740  -22.7265   26.8935 O   0  0  0  0  0  0  0  0  0  1  0  0
  -24.2627   -2.6205   23.1609 F   0  0  0  0  0  0  0  0  0  0  0  0
  -26.8173  -14.7732   26.6462 F   0  0  0  0  0  0  0  0  0  0  0  0
  -30.8201  -18.5022   26.6674 F   0  0  0  0  0  0  0  0  0  0  0  0
  -21.4846   -4.9483   20.1163 F   0  0  0  0  0  0  0  0  0  0  0  0
  1  2  1  0  0  0  0
  1  5  2  0  0  0  0
  2  6  2  0  0  0  0
  3  8  2  0  0  0  0
  3 17  1  0  0  0  0
  4  9  1  0  0  0  0
  4 17  2  0  0  0  0
  5 19  1  0  0  0  0
  6 21  1  0  0  0  0
  7 10  2  0  0  0  0
  7 20  1  0  0  0  0
  8 25  1  0  0  0  0
  9 25  2  0  0  0  0
 10 26  1  0  0  0  0
 11 12  2  0  0  0  0
 11 27  1  0  0  0  0
 12 28  1  0  0  0  0
 13 22  1  0  0  0  0
 13 26  2  0  0  0  0
 14 23  1  0  0  0  0
 14 29  2  0  0  0  0
 15 24  2  0  0  0  0
 15 30  1  0  0  0  0
 16 28  2  0  0  0  0
 16 31  1  0  0  0  0
 17 32  1  0  0  0  0
 18 32  1  0  0  0  0
 18 33  2  0  0  0  0
 18 34  1  0  0  0  0
 19 21  2  0  0  0  0
 19 39  1  0  0  0  0
 20 22  2  0  0  0  0
 20 40  1  0  0  0  0
 21 53  1  0  0  0  0
 22 41  1  0  0  0  0
 23 30  2  0  0  0  0
 23 52  1  0  0  0  0
 24 29  1  0  0  0  0
 24 72  1  0  0  0  0
 25 81  1  0  0  0  0
 26 82  1  0  0  0  0
 27 31  2  0  0  0  0
 27 81  1  0  0  0  0
 28 83  1  0  0  0  0
 29 84  1  0  0  0  0
 30 85  1  0  0  0  0
 31 86  1  0  0  0  0
 32 66  2  0  0  0  0
 33 67  1  0  0  0  0
 33 70  1  0  0  0  0
 34 71  1  0  0  0  0
 34 76  2  0  0  0  0
 35 54  1  0  0  0  0
 35 73  1  0  0  0  0
 35 77  2  0  0  0  0
 36 63  1  0  0  0  0
 36 68  1  0  0  0  0
 36 78  2  0  0  0  0
 37 64  1  0  0  0  0
 37 74  1  0  0  0  0
 37 79  2  0  0  0  0
 38 69  1  0  0  0  0
 38 72  1  0  0  0  0
 38 80  2  0  0  0  0
 39 42  1  0  0  0  0
 40 54  1  0  0  0  0
 41 68  1  0  0  0  0
 42 46  1  0  0  0  0
 43 45  1  0  0  0  0
 43 47  1  0  0  0  0
 44 48  1  0  0  0  0
 44 50  1  0  0  0  0
 45 52  1  0  0  0  0
 46 53  1  0  0  0  0
 47 55  1  0  0  0  0
 48 56  1  0  0  0  0
 49 52  1  0  0  0  0
 49 55  1  0  0  0  0
 50 69  1  0  0  0  0
 51 56  1  0  0  0  0
 51 69  1  0  0  0  0
 53 73  1  0  0  0  0
 54 68  1  0  0  0  0
 55 62  1  0  0  0  0
 56 67  1  0  0  0  0
 57 64  1  0  0  0  0
 58 65  1  0  0  0  0
 59 65  1  0  0  0  0
 60 65  1  0  0  0  0
 61 75  1  0  0  0  0
 62 82  1  0  0  0  0
 63 65  1  0  0  0  0
 63 74  1  0  0  0  0
 64 75  1  0  0  0  0
 66 67  1  0  0  0  0
M  CHG  1  75   1
M  ISO  4  38 100  62 101  72 100  82 101
M  END
> <Batch ID>
0072

> <Smiles>
CNC(C)C(=O)NC(C(=O)N1Cc2cc([101O:1][101CH2:1]C3CCCC(c4cc(F)c([100NH:0][100C:0](=O)N5CCCC(n6nc(-c7ccc(Oc8ccc(F)cc8F)cc7)c(C(N)=O)c6N)C5)cc4F)C3)ccc2CC1C(=O)NC1CCCc2ccccc21)C(C)(C)C

> <Shape>
0.191

> <Color>
0.124

> <Negative vol penalty>
0.000

$$$$

  -OEChem-04042323383D

 85 94  0     1  0  0  0  0  0999 V2000
  -18.6036  -27.8585   28.5316 C   0  0  0  0  0  0  0  0  0  0  0  0
  -19.8106  -28.3328   28.0280 C   0  0  0  0  0  0  0  0  0  0  0  0
  -26.7138  -12.5644   21.7238 C   0  0  0  0  0  0  0  0  0  0  0  0
  -26.1235  -13.9400   19.8274 C   0  0  0  0  0  0  0  0  0  0  0  0
  -17.8453  -26.9562   27.7868 C   0  0  0  0  0  0  0  0  0  0  0  0
  -20.2605  -27.9042   26.7797 C   0  0  0  0  0  0  0  0  0  0  0  0
  -23.9582  -30.1972   21.0888 C   0  0  0  0  0  0  0  0  0  0  0  0
  -29.1558  -23.8340   20.4133 C   0  0  0  0  0  0  0  0  0  0  0  0
  -29.6665  -22.6552   20.9566 C   0  0  0  0  0  0  0  0  0  0  0  0
  -25.4173  -12.0509   21.7550 C   0  0  0  0  0  0  0  0  0  0  0  0
  -24.8269  -13.4264   19.8585 C   0  0  0  0  0  0  0  0  0  0  0  0
  -25.0381  -29.8304   20.2869 C   0  0  0  0  0  0  0  0  0  0  0  0
  -23.6119   -9.7408   20.0706 C   0  0  0  0  0  0  0  0  0  0  0  0
  -23.4641   -8.3628   20.2277 C   0  0  0  0  0  0  0  0  0  0  0  0
  -23.6059  -28.3308   19.0545 C   0  0  0  0  0  0  0  0  0  0  0  0
  -29.0738  -21.4678   18.9377 C   0  0  0  0  0  0  0  0  0  0  0  0
  -22.2159   -8.7288   22.2637 C   0  0  0  0  0  0  0  0  0  0  0  0
  -27.0669  -13.5090   20.7600 C   0  0  0  0  0  0  0  0  0  0  0  0
  -29.5063  -13.5289   20.0139 C   0  0  0  0  0  0  0  0  0  0  0  0
  -18.2814  -26.5238   26.5244 C   0  0  0  0  0  0  0  0  0  0  0  0
  -22.6944  -29.6244   20.8862 C   0  0  0  0  0  0  0  0  0  0  0  0
  -19.5079  -26.9942   26.0178 C   0  0  0  0  0  0  0  0  0  0  0  0
  -22.5110  -28.6939   19.8535 C   0  0  0  0  0  0  0  0  0  0  0  0
  -28.6040  -23.8297   19.1321 C   0  0  0  0  0  0  0  0  0  0  0  0
  -29.6255  -21.4721   20.2189 C   0  0  0  0  0  0  0  0  0  0  0  0
  -24.4739  -12.4819   20.8223 C   0  0  0  0  0  0  0  0  0  0  0  0
  -24.8627  -28.8950   19.2715 C   0  0  0  0  0  0  0  0  0  0  0  0
  -23.0618  -10.6129   21.0101 C   0  0  0  0  0  0  0  0  0  0  0  0
  -22.7661   -7.8568   21.3243 C   0  0  0  0  0  0  0  0  0  0  0  0
  -28.5631  -22.6466   18.3944 C   0  0  0  0  0  0  0  0  0  0  0  0
  -22.3638  -10.1069   22.1066 C   0  0  0  0  0  0  0  0  0  0  0  0
  -28.4059  -14.0402   20.7276 C   0  0  0  0  0  0  0  0  0  0  0  0
  -30.5375  -14.3854   20.3130 C   0  0  0  0  0  0  0  0  0  0  0  0
  -28.0148  -26.2584   19.0861 C   0  0  0  0  0  0  0  0  0  0  0  0
  -29.5889  -12.3823   19.1571 C   0  0  0  0  0  0  0  0  0  0  0  0
  -20.7378  -27.8313   22.6356 C   0  0  0  0  0  0  0  0  0  0  0  0
  -18.7188  -28.2858   20.1377 C   0  0  0  0  0  0  0  0  0  0  0  0
  -18.3244  -29.0029   16.8246 C   0  0  0  0  0  0  0  0  0  0  0  0
  -30.7257  -20.1064   22.0274 C   0  0  0  0  0  0  0  0  0  0  0  0
  -17.4504  -25.5112   25.7769 C   0  0  0  0  0  0  0  0  0  0  0  0
  -21.5335  -30.0506   21.7426 C   0  0  0  0  0  0  0  0  0  0  0  0
  -21.1698  -28.0647   19.5818 C   0  0  0  0  0  0  0  0  0  0  0  0
  -17.8155  -25.3953   24.2992 C   0  0  0  0  0  0  0  0  0  0  0  0
  -32.0890  -17.3158   23.7684 C   0  0  0  0  0  0  0  0  0  0  0  0
  -19.3288  -25.3078   24.1285 C   0  0  0  0  0  0  0  0  0  0  0  0
  -31.4039  -16.1122   23.1171 C   0  0  0  0  0  0  0  0  0  0  0  0
  -31.1447  -18.5109   23.8858 C   0  0  0  0  0  0  0  0  0  0  0  0
  -29.8037  -17.7057   21.9826 C   0  0  0  0  0  0  0  0  0  0  0  0
  -27.4816  -25.2646   17.3065 C   0  0  0  0  0  0  0  0  0  0  0  0
  -20.0175  -26.5719   24.6569 C   0  0  1  0  0  0  0  0  0  0  0  0
  -20.4083  -29.0211   21.7791 C   0  0  1  0  0  0  0  0  0  0  0  0
  -30.7345  -16.4983   21.7836 C   0  0  2  0  0  0  0  0  0  0  0  0
  -27.3360  -26.7443   17.7731 C   0  0  2  0  0  0  0  0  0  0  0  0
  -28.1701  -27.7455   16.9815 C   0  0  0  0  0  0  0  0  0  0  0  0
  -16.5568  -29.2660   15.0628 C   0  0  0  0  0  0  0  0  0  0  0  0
  -18.4138  -25.2532   19.9944 C   0  0  0  0  0  0  0  0  0  0  0  0
  -17.4446  -25.5289   17.7024 C   0  0  0  0  0  0  0  0  0  0  0  0
  -16.2887  -26.5318   19.6724 C   0  0  0  0  0  0  0  0  0  0  0  0
  -19.0665  -31.8261   16.3369 C   0  0  0  0  0  0  0  0  0  0  0  0
  -25.9075  -27.2094   17.9588 C   0  0  0  0  0  0  0  0  0  1  0  0
  -18.4422  -27.5632   18.8414 C   0  0  1  0  0  0  0  0  0  0  0  0
  -17.4054  -29.9749   16.1068 C   0  0  2  0  0  0  0  0  0  0  0  0
  -17.6731  -26.2295   19.0588 C   0  0  0  0  0  0  0  0  0  0  0  0
  -28.7096  -15.1365   21.4276 N   0  0  0  0  0  0  0  0  0  0  0  0
  -30.0127  -15.3210   21.1552 N   0  0  0  0  0  0  0  0  0  0  0  0
  -28.1011  -24.9934   18.5989 N   0  0  0  0  0  0  0  0  0  0  0  0
  -20.0672  -28.5093   20.4502 N   0  0  0  0  0  0  0  0  0  0  0  0
  -30.5512  -18.8215   22.5835 N   0  0  0  0  0  0  0  0  0  0  0  0
  -31.8330  -14.4218   19.9353 N   0  0  0  0  0  0  0  0  0  0  0  0
  -28.4349  -11.6120   18.9586 N   0  0  0  0  0  0  0  0  0  0  0  0
  -30.1444  -20.2748   20.7711 N   0  0  0  0  0  0  0  0  0  0  0  0
  -19.8831  -27.6554   23.7070 N   0  0  0  0  0  0  0  0  0  0  0  0
  -17.7515  -28.5179   17.9812 N   0  0  0  0  0  0  0  0  0  0  0  0
  -18.2023  -31.0335   15.4247 N   0  3  0  0  0  0  0  0  0  0  0  0
  -28.3486  -26.7614   20.1348 O   0  0  0  0  0  0  0  0  0  0  0  0
  -30.6585  -12.0412   18.5975 O   0  0  0  0  0  0  0  0  0  0  0  0
  -21.6956  -27.1243   22.3450 O   0  0  0  0  0  0  0  0  0  0  0  0
  -17.7730  -28.6452   20.8434 O   0  0  0  0  0  0  0  0  0  0  0  0
  -19.4374  -28.7010   16.3996 O   0  0  0  0  0  0  0  0  0  0  0  0
  -31.3685  -20.9837   22.6098 O   0  0  0  0  0  0  0  0  0  0  0  0
  -23.2087  -11.9808   20.8523 O   0  0  0  0  0  0  0  0  0  0  0  0
  -25.9153  -28.5347   18.4877 O   0  0  0  0  0  0  0  0  0  1  0  0
  -22.6229   -6.5334   21.4742 F   0  0  0  0  0  0  0  0  0  0  0  0
  -28.0345  -22.6305   17.1622 F   0  0  0  0  0  0  0  0  0  0  0  0
  -21.8320  -10.9398   23.0118 F   0  0  0  0  0  0  0  0  0  0  0  0
  1  2  1  0  0  0  0
  1  5  2  0  0  0  0
  2  6  2  0  0  0  0
  3 10  2  0  0  0  0
  3 18  1  0  0  0  0
  4 11  1  0  0  0  0
  4 18  2  0  0  0  0
  5 20  1  0  0  0  0
  6 22  1  0  0  0  0
  7 12  2  0  0  0  0
  7 21  1  0  0  0  0
  8  9  2  0  0  0  0
  8 24  1  0  0  0  0
  9 25  1  0  0  0  0
 10 26  1  0  0  0  0
 11 26  2  0  0  0  0
 12 27  1  0  0  0  0
 13 14  2  0  0  0  0
 13 28  1  0  0  0  0
 14 29  1  0  0  0  0
 15 23  1  0  0  0  0
 15 27  2  0  0  0  0
 16 25  2  0  0  0  0
 16 30  1  0  0  0  0
 17 29  2  0  0  0  0
 17 31  1  0  0  0  0
 18 32  1  0  0  0  0
 19 32  1  0  0  0  0
 19 33  2  0  0  0  0
 19 35  1  0  0  0  0
 20 22  2  0  0  0  0
 20 40  1  0  0  0  0
 21 23  2  0  0  0  0
 21 41  1  0  0  0  0
 22 50  1  0  0  0  0
 23 42  1  0  0  0  0
 24 30  2  0  0  0  0
 24 66  1  0  0  0  0
 25 71  1  0  0  0  0
 26 81  1  0  0  0  0
 27 82  1  0  0  0  0
 28 31  2  0  0  0  0
 28 81  1  0  0  0  0
 29 83  1  0  0  0  0
 30 84  1  0  0  0  0
 31 85  1  0  0  0  0
 32 64  2  0  0  0  0
 33 65  1  0  0  0  0
 33 69  1  0  0  0  0
 34 53  1  0  0  0  0
 34 66  1  0  0  0  0
 34 75  2  0  0  0  0
 35 70  1  0  0  0  0
 35 76  2  0  0  0  0
 36 51  1  0  0  0  0
 36 72  1  0  0  0  0
 36 77  2  0  0  0  0
 37 61  1  0  0  0  0
 37 67  1  0  0  0  0
 37 78  2  0  0  0  0
 38 62  1  0  0  0  0
 38 73  1  0  0  0  0
 38 79  2  0  0  0  0
 39 68  1  0  0  0  0
 39 71  1  0  0  0  0
 39 80  2  0  0  0  0
 40 43  1  0  0  0  0
 41 51  1  0  0  0  0
 42 67  1  0  0  0  0
 43 45  1  0  0  0  0
 44 46  1  0  0  0  0
 44 47  1  0  0  0  0
 45 50  1  0  0  0  0
 46 52  1  0  0  0  0
 47 68  1  0  0  0  0
 48 52  1  0  0  0  0
 48 68  1  0  0  0  0
 49 53  1  0  0  0  0
 49 66  1  0  0  0  0
 50 72  1  0  0  0  0
 51 67  1  0  0  0  0
 52 65  1  0  0  0  0
 53 54  1  0  0  0  0
 53 60  1  0  0  0  0
 55 62  1  0  0  0  0
 56 63  1  0  0  0  0
 57 63  1  0  0  0  0
 58 63  1  0  0  0  0
 59 74  1  0  0  0  0
 60 82  1  0  0  0  0
 61 63  1  0  0  0  0
 61 73  1  0  0  0  0
 62 74  1  0  0  0  0
 64 65  1  0  0  0  0
M  CHG  1  74   1
M  ISO  4  39 100  60 101  71 100  82 101
M  END
> <Batch ID>
0072

> <Smiles>
CNC(C)C(=O)NC(C(=O)N1Cc2cc([101O:1][101CH2:1]C3(C)CN(c4ccc([100NH:0][100C:0](=O)N5CCCC(n6nc(-c7ccc(Oc8ccc(F)cc8F)cc7)c(C(N)=O)c6N)C5)cc4F)C3=O)ccc2CC1C(=O)NC1CCCc2ccccc21)C(C)(C)C

> <Shape>
0.263

> <Color>
0.069

> <Negative vol penalty>
0.000

$$$$

  -OEChem-04042323383D

 88 97  0     1  0  0  0  0  0999 V2000
  -33.4997  -18.2717   30.4148 C   0  0  0  0  0  0  0  0  0  0  0  0
  -32.9524  -18.5380   29.1638 C   0  0  0  0  0  0  0  0  0  0  0  0
  -23.0280   -9.9884   19.8855 C   0  0  0  0  0  0  0  0  0  0  0  0
  -23.8860   -9.8234   22.1380 C   0  0  0  0  0  0  0  0  0  0  0  0
  -33.0284  -18.9484   31.5390 C   0  0  0  0  0  0  0  0  0  0  0  0
  -31.9327  -19.4806   29.0365 C   0  0  0  0  0  0  0  0  0  0  0  0
  -32.6449  -22.5942   25.1068 C   0  0  0  0  0  0  0  0  0  0  0  0
  -29.5454  -17.9561   20.8657 C   0  0  0  0  0  0  0  0  0  0  0  0
  -29.3381  -19.1219   20.1285 C   0  0  0  0  0  0  0  0  0  0  0  0
  -22.2780   -8.8296   20.0863 C   0  0  0  0  0  0  0  0  0  0  0  0
  -23.1360   -8.6647   22.3388 C   0  0  0  0  0  0  0  0  0  0  0  0
  -32.3373  -22.1009   23.8396 C   0  0  0  0  0  0  0  0  0  0  0  0
  -19.9249   -7.8657   23.0254 C   0  0  0  0  0  0  0  0  0  0  0  0
  -19.2186   -7.7521   24.2228 C   0  0  0  0  0  0  0  0  0  0  0  0
  -30.2259  -23.2659   23.9052 C   0  0  0  0  0  0  0  0  0  0  0  0
  -31.6155  -19.8016   20.5632 C   0  0  0  0  0  0  0  0  0  0  0  0
  -20.4607   -5.7523   24.7658 C   0  0  0  0  0  0  0  0  0  0  0  0
  -23.8321  -10.4853   20.9113 C   0  0  0  0  0  0  0  0  0  0  0  0
  -24.2071  -13.0082   20.9542 C   0  0  0  0  0  0  0  0  0  0  0  0
  -32.0091  -19.9067   31.4240 C   0  0  0  0  0  0  0  0  0  0  0  0
  -31.7391  -23.4197   25.7884 C   0  0  0  0  0  0  0  0  0  0  0  0
  -31.4464  -20.1698   30.1604 C   0  0  0  0  0  0  0  0  0  0  0  0
  -30.5256  -23.7705   25.1798 C   0  0  0  0  0  0  0  0  0  0  0  0
  -30.7876  -17.7131   21.4517 C   0  0  0  0  0  0  0  0  0  0  0  0
  -31.8227  -18.6358   21.3004 C   0  0  0  0  0  0  0  0  0  0  0  0
  -30.3732  -20.0447   19.9772 C   0  0  0  0  0  0  0  0  0  0  0  0
  -22.3319   -8.1678   21.3129 C   0  0  0  0  0  0  0  0  0  0  0  0
  -31.1264  -22.4343   23.2398 C   0  0  0  0  0  0  0  0  0  0  0  0
  -20.8991   -6.9226   22.6981 C   0  0  0  0  0  0  0  0  0  0  0  0
  -19.4865   -6.6955   25.0930 C   0  0  0  0  0  0  0  0  0  0  0  0
  -21.1670   -5.8659   23.5683 C   0  0  0  0  0  0  0  0  0  0  0  0
  -24.6075  -11.6819   20.7043 C   0  0  0  0  0  0  0  0  0  0  0  0
  -25.2939  -13.7681   20.5967 C   0  0  0  0  0  0  0  0  0  0  0  0
  -30.2943  -22.4962   19.7527 C   0  0  0  0  0  0  0  0  0  0  0  0
  -30.0480  -23.4652   18.6577 C   0  0  0  0  0  0  0  0  0  0  0  0
  -29.7995  -21.2322   17.8618 C   0  0  0  0  0  0  0  0  0  0  0  0
  -30.5980  -22.8541   21.0003 C   0  0  0  0  0  0  0  0  0  1  0  0
  -22.9639  -13.5086   21.4639 C   0  0  0  0  0  0  0  0  0  0  0  0
  -30.1260  -23.2054   28.5189 C   0  0  0  0  0  0  0  0  0  0  0  0
  -29.2821  -26.2557   27.8077 C   0  0  0  0  0  0  0  0  0  0  0  0
  -28.8423  -28.6596   25.4256 C   0  0  0  0  0  0  0  0  0  0  0  0
  -30.8220  -14.6019   20.7587 C   0  0  0  0  0  0  0  0  0  0  0  0
  -31.4997  -20.5785   32.6746 C   0  0  0  0  0  0  0  0  0  0  0  0
  -32.0974  -23.9653   27.1435 C   0  0  0  0  0  0  0  0  0  0  0  0
  -29.5276  -24.6697   25.8610 C   0  0  0  0  0  0  0  0  0  0  0  0
  -29.6901  -22.6847   17.4335 C   0  0  0  0  0  0  0  0  0  0  0  0
  -30.6753  -21.8334   32.3993 C   0  0  0  0  0  0  0  0  0  0  0  0
  -29.5126  -12.5368   18.1090 C   0  0  0  0  0  0  0  0  0  0  0  0
  -29.6583  -21.5719   31.2929 C   0  0  0  0  0  0  0  0  0  0  0  0
  -28.1002  -12.2077   18.5910 C   0  0  0  0  0  0  0  0  0  0  0  0
  -30.4909  -12.6409   19.2746 C   0  0  0  0  0  0  0  0  0  0  0  0
  -28.6564  -13.2944   20.8123 C   0  0  0  0  0  0  0  0  0  0  0  0
  -30.3560  -21.2032   29.9781 C   0  0  1  0  0  0  0  0  0  0  0  0
  -30.8787  -24.3805   27.9618 C   0  0  1  0  0  0  0  0  0  0  0  0
  -27.6359  -13.2082   19.6643 C   0  0  2  0  0  0  0  0  0  0  0  0
  -33.1616  -18.3957   21.9171 C   0  0  0  0  0  0  0  0  0  0  0  0
  -30.6186  -16.6193   23.7141 C   0  0  0  0  0  0  0  0  0  0  0  0
  -28.1078  -31.0426   25.1438 C   0  0  0  0  0  0  0  0  0  0  0  0
  -26.3734  -25.3959   28.1401 C   0  0  0  0  0  0  0  0  0  0  0  0
  -25.6913  -27.4883   26.9464 C   0  0  0  0  0  0  0  0  0  0  0  0
  -26.9174  -27.6343   29.1139 C   0  0  0  0  0  0  0  0  0  0  0  0
  -31.4779  -29.4663   24.3478 C   0  0  0  0  0  0  0  0  0  0  0  0
  -30.9854  -16.4582   22.2371 C   0  0  1  0  0  0  0  0  0  0  0  0
  -28.1568  -26.9013   27.0358 C   0  0  1  0  0  0  0  0  0  0  0  0
  -29.2883  -30.1093   25.3631 C   0  0  2  0  0  0  0  0  0  0  0  0
  -26.8025  -26.8364   27.7968 C   0  0  0  0  0  0  0  0  0  0  0  0
  -25.8515  -11.6005   20.2250 N   0  0  0  0  0  0  0  0  0  0  0  0
  -26.2422  -12.8852   20.1707 N   0  0  0  0  0  0  0  0  0  0  0  0
  -30.1667  -21.2112   19.2375 N   0  0  0  0  0  0  0  0  0  0  0  0
  -29.9211  -25.1728   27.1875 N   0  0  0  0  0  0  0  0  0  0  0  0
  -30.0023  -13.5687   20.2939 N   0  0  0  0  0  0  0  0  0  0  0  0
  -25.5214  -15.0988   20.6083 N   0  0  0  0  0  0  0  0  0  0  0  0
  -21.9536  -12.5902   21.7807 N   0  0  0  0  0  0  0  0  0  0  0  0
  -30.8834  -22.3883   29.3362 N   0  0  0  0  0  0  0  0  0  0  0  0
  -28.6013  -28.2548   26.7215 N   0  0  0  0  0  0  0  0  0  0  0  0
  -30.2564  -30.3058   24.2472 N   0  3  0  0  0  0  0  0  0  0  0  0
  -30.1139  -24.6785   18.7433 O   0  0  0  0  0  0  0  0  0  0  0  0
  -29.5977  -20.2771   17.1244 O   0  0  0  0  0  0  0  0  0  0  0  0
  -22.7492  -14.7348   21.6180 O   0  0  0  0  0  0  0  0  0  0  0  0
  -28.9450  -23.0523   28.2299 O   0  0  0  0  0  0  0  0  0  0  0  0
  -29.5877  -26.7006   28.9169 O   0  0  0  0  0  0  0  0  0  0  0  0
  -28.7164  -27.9577   24.4246 O   0  0  0  0  0  0  0  0  0  0  0  0
  -31.9695  -14.8058   20.3661 O   0  0  0  0  0  0  0  0  0  0  0  0
  -21.6000   -7.0371   21.5093 O   0  0  0  0  0  0  0  0  0  0  0  0
  -30.8233  -21.9536   22.0033 O   0  0  0  0  0  0  0  0  0  1  0  0
  -30.2103  -15.3757   21.7090 O   0  0  0  0  0  0  0  0  0  0  0  0
  -18.8093   -6.5874   26.2436 F   0  0  0  0  0  0  0  0  0  0  0  0
  -22.1026   -4.9574   23.2599 F   0  0  0  0  0  0  0  0  0  0  0  0
  1  2  1  0  0  0  0
  1  5  2  0  0  0  0
  2  6  2  0  0  0  0
  3 10  2  0  0  0  0
  3 18  1  0  0  0  0
  4 11  1  0  0  0  0
  4 18  2  0  0  0  0
  5 20  1  0  0  0  0
  6 22  1  0  0  0  0
  7 12  2  0  0  0  0
  7 21  1  0  0  0  0
  8  9  2  0  0  0  0
  8 24  1  0  0  0  0
  9 26  1  0  0  0  0
 10 27  1  0  0  0  0
 11 27  2  0  0  0  0
 12 28  1  0  0  0  0
 13 14  2  0  0  0  0
 13 29  1  0  0  0  0
 14 30  1  0  0  0  0
 15 23  1  0  0  0  0
 15 28  2  0  0  0  0
 16 25  1  0  0  0  0
 16 26  2  0  0  0  0
 17 30  2  0  0  0  0
 17 31  1  0  0  0  0
 18 32  1  0  0  0  0
 19 32  1  0  0  0  0
 19 33  2  0  0  0  0
 19 38  1  0  0  0  0
 20 22  2  0  0  0  0
 20 43  1  0  0  0  0
 21 23  2  0  0  0  0
 21 44  1  0  0  0  0
 22 53  1  0  0  0  0
 23 45  1  0  0  0  0
 24 25  2  0  0  0  0
 24 63  1  0  0  0  0
 25 56  1  0  0  0  0
 26 69  1  0  0  0  0
 27 84  1  0  0  0  0
 28 85  1  0  0  0  0
 29 31  2  0  0  0  0
 29 84  1  0  0  0  0
 30 87  1  0  0  0  0
 31 88  1  0  0  0  0
 32 67  2  0  0  0  0
 33 68  1  0  0  0  0
 33 72  1  0  0  0  0
 34 35  1  0  0  0  0
 34 37  2  0  0  0  0
 34 69  1  0  0  0  0
 35 46  1  0  0  0  0
 35 77  2  0  0  0  0
 36 46  1  0  0  0  0
 36 69  1  0  0  0  0
 36 78  2  0  0  0  0
 37 85  1  0  0  0  0
 38 73  1  0  0  0  0
 38 79  2  0  0  0  0
 39 54  1  0  0  0  0
 39 74  1  0  0  0  0
 39 80  2  0  0  0  0
 40 64  1  0  0  0  0
 40 70  1  0  0  0  0
 40 81  2  0  0  0  0
 41 65  1  0  0  0  0
 41 75  1  0  0  0  0
 41 82  2  0  0  0  0
 42 71  1  0  0  0  0
 42 83  2  0  0  0  0
 42 86  1  0  0  0  0
 43 47  1  0  0  0  0
 44 54  1  0  0  0  0
 45 70  1  0  0  0  0
 47 49  1  0  0  0  0
 48 50  1  0  0  0  0
 48 51  1  0  0  0  0
 49 53  1  0  0  0  0
 50 55  1  0  0  0  0
 51 71  1  0  0  0  0
 52 55  1  0  0  0  0
 52 71  1  0  0  0  0
 53 74  1  0  0  0  0
 54 70  1  0  0  0  0
 55 68  1  0  0  0  0
 57 63  1  0  0  0  0
 58 65  1  0  0  0  0
 59 66  1  0  0  0  0
 60 66  1  0  0  0  0
 61 66  1  0  0  0  0
 62 76  1  0  0  0  0
 63 86  1  0  0  0  0
 64 66  1  0  0  0  0
 64 75  1  0  0  0  0
 65 76  1  0  0  0  0
 67 68  1  0  0  0  0
M  CHG  1  76   1
M  ISO  4  37 101  42 100  85 101  86 100
M  END
> <Batch ID>
0072

> <Smiles>
CNC(C)C(=O)NC(C(=O)N1Cc2cc([101O:1][101CH:1]=C3C(=O)CC(=O)N3c3ccc(C(C)[100O:0][100C:0](=O)N4CCCC(n5nc(-c6ccc(Oc7ccc(F)cc7F)cc6)c(C(N)=O)c5N)C4)c(C)c3)ccc2CC1C(=O)NC1CCCc2ccccc21)C(C)(C)C

> <Shape>
0.233

> <Color>
0.188

> <Negative vol penalty>
0.000

$$$$

  -OEChem-04042323383D

 87 96  0     1  0  0  0  0  0999 V2000
  -29.9679  -35.8013   24.7180 C   0  0  0  0  0  0  0  0  0  0  0  0
  -30.1152  -35.0824   23.5361 C   0  0  0  0  0  0  0  0  0  0  0  0
  -23.8720  -10.0916   22.6680 C   0  0  0  0  0  0  0  0  0  0  0  0
  -24.2580  -11.9315   24.1855 C   0  0  0  0  0  0  0  0  0  0  0  0
  -29.3090  -35.2271   25.8043 C   0  0  0  0  0  0  0  0  0  0  0  0
  -29.6044  -33.7884   23.4402 C   0  0  0  0  0  0  0  0  0  0  0  0
  -26.6915  -29.2732   18.7027 C   0  0  0  0  0  0  0  0  0  0  0  0
  -23.3578   -9.3325   23.7191 C   0  0  0  0  0  0  0  0  0  0  0  0
  -23.7437  -11.1724   25.2367 C   0  0  0  0  0  0  0  0  0  0  0  0
  -26.8479  -27.9772   18.2131 C   0  0  0  0  0  0  0  0  0  0  0  0
  -20.4579   -9.1072   25.4432 C   0  0  0  0  0  0  0  0  0  0  0  0
  -19.2785   -8.3984   25.2146 C   0  0  0  0  0  0  0  0  0  0  0  0
  -25.6586  -27.1170   20.1275 C   0  0  0  0  0  0  0  0  0  0  0  0
  -29.9221  -20.8884   18.9138 C   0  0  0  0  0  0  0  0  0  0  0  0
  -30.7434  -18.6206   19.0533 C   0  0  0  0  0  0  0  0  0  0  0  0
  -28.3664  -19.0403   18.9503 C   0  0  0  0  0  0  0  0  0  0  0  0
  -20.4270   -6.3298   25.7036 C   0  0  0  0  0  0  0  0  0  0  0  0
  -24.3222  -11.3912   22.9012 C   0  0  0  0  0  0  0  0  0  0  0  0
  -24.1403  -13.0335   20.9576 C   0  0  0  0  0  0  0  0  0  0  0  0
  -28.7814  -33.9291   25.7184 C   0  0  0  0  0  0  0  0  0  0  0  0
  -26.0259  -29.5003   19.9158 C   0  0  0  0  0  0  0  0  0  0  0  0
  -28.9389  -33.1959   24.5268 C   0  0  0  0  0  0  0  0  0  0  0  0
  -25.4929  -28.4170   20.6290 C   0  0  0  0  0  0  0  0  0  0  0  0
  -30.9882  -19.9926   18.9947 C   0  0  0  0  0  0  0  0  0  0  0  0
  -28.6111  -20.4123   18.8917 C   0  0  0  0  0  0  0  0  0  0  0  0
  -29.4325  -18.1445   19.0311 C   0  0  0  0  0  0  0  0  0  0  0  0
  -23.2936   -9.8729   25.0034 C   0  0  0  0  0  0  0  0  0  0  0  0
  -26.3340  -26.8986   18.9269 C   0  0  0  0  0  0  0  0  0  0  0  0
  -21.6218   -8.4273   25.8019 C   0  0  0  0  0  0  0  0  0  0  0  0
  -19.2630   -7.0097   25.3448 C   0  0  0  0  0  0  0  0  0  0  0  0
  -21.6064   -7.0386   25.9322 C   0  0  0  0  0  0  0  0  0  0  0  0
  -24.8539  -12.1756   21.8159 C   0  0  0  0  0  0  0  0  0  0  0  0
  -25.0928  -13.5372   20.1059 C   0  0  0  0  0  0  0  0  0  0  0  0
  -27.6060  -22.7353   18.7434 C   0  0  0  0  0  0  0  0  0  0  0  0
  -22.7414  -13.3470   20.9326 C   0  0  0  0  0  0  0  0  0  0  0  0
  -26.8438  -30.7432   22.7248 C   0  0  0  0  0  0  0  0  0  0  0  0
  -23.6836  -30.3860   23.3636 C   0  0  0  0  0  0  0  0  0  0  0  0
  -20.7550  -28.7707   22.6846 C   0  0  0  0  0  0  0  0  0  0  0  0
  -30.1269  -15.7272   19.1763 C   0  0  0  0  0  0  0  0  0  0  0  0
  -28.1185  -33.3330   26.9349 C   0  0  0  0  0  0  0  0  0  0  0  0
  -25.8422  -30.9065   20.4169 C   0  0  0  0  0  0  0  0  0  0  0  0
  -24.7523  -28.6090   21.9263 C   0  0  0  0  0  0  0  0  0  0  0  0
  -27.2778  -32.0968   26.6262 C   0  0  0  0  0  0  0  0  0  0  0  0
  -29.9152  -12.1791   19.3838 C   0  0  0  0  0  0  0  0  0  0  0  0
  -28.0473  -31.1403   25.7207 C   0  0  0  0  0  0  0  0  0  0  0  0
  -28.5209  -11.9325   19.9644 C   0  0  0  0  0  0  0  0  0  0  0  0
  -25.3296  -22.1176   19.0607 C   0  0  0  0  0  0  0  0  0  0  0  0
  -30.5695  -13.4205   19.9875 C   0  0  0  0  0  0  0  0  0  0  0  0
  -26.1425  -20.8829   18.7265 C   0  0  0  0  0  0  0  0  0  0  0  0
  -28.3666  -14.3977   20.4989 C   0  0  0  0  0  0  0  0  0  0  0  0
  -28.3769  -31.7990   24.3757 C   0  0  1  0  0  0  0  0  0  0  0  0
  -26.1927  -23.2543   18.5329 C   0  0  1  0  0  0  0  0  0  0  0  0
  -25.5962  -30.9776   21.9209 C   0  0  1  0  0  0  0  0  0  0  0  0
  -27.6413  -13.1949   19.8738 C   0  0  2  0  0  0  0  0  0  0  0  0
  -32.6733  -21.3849   20.2498 C   0  0  0  0  0  0  0  0  0  0  0  0
  -32.7625  -21.2635   17.7334 C   0  0  0  0  0  0  0  0  0  0  0  0
  -18.3506  -28.6692   23.3958 C   0  0  0  0  0  0  0  0  0  0  0  0
  -24.4924  -28.8443   25.8694 C   0  0  0  0  0  0  0  0  0  0  0  0
  -22.1479  -27.9766   26.0077 C   0  0  0  0  0  0  0  0  0  0  0  0
  -22.5821  -30.4264   26.1891 C   0  0  0  0  0  0  0  0  0  0  0  0
  -19.8052  -29.5518   19.9927 C   0  0  0  0  0  0  0  0  0  0  0  0
  -25.9342  -24.5745   19.2344 C   0  0  0  0  0  0  0  0  0  1  0  0
  -32.3898  -20.5023   19.0197 C   0  0  0  0  0  0  0  0  0  0  0  0
  -22.8281  -29.2868   23.9457 C   0  0  1  0  0  0  0  0  0  0  0  0
  -19.3514  -29.2923   22.4351 C   0  0  2  0  0  0  0  0  0  0  0  0
  -23.0282  -29.1294   25.4795 C   0  0  0  0  0  0  0  0  0  0  0  0
  -26.1591  -12.1342   21.5349 N   0  0  0  0  0  0  0  0  0  0  0  0
  -26.2730  -12.9723   20.4905 N   0  0  0  0  0  0  0  0  0  0  0  0
  -27.5207  -21.3293   18.8091 N   0  0  0  0  0  0  0  0  0  0  0  0
  -24.6041  -30.0024   22.3780 N   0  0  0  0  0  0  0  0  0  0  0  0
  -29.6805  -14.5775   19.8616 N   0  0  0  0  0  0  0  0  0  0  0  0
  -25.0275  -14.4039   19.0729 N   0  0  0  0  0  0  0  0  0  0  0  0
  -21.9039  -12.7411   21.8790 N   0  0  0  0  0  0  0  0  0  0  0  0
  -29.1837  -16.7508   19.0920 N   0  0  0  0  0  0  0  0  0  0  0  0
  -27.2098  -31.8123   23.5200 N   0  0  0  0  0  0  0  0  0  0  0  0
  -21.4559  -29.5843   23.5495 N   0  0  0  0  0  0  0  0  0  0  0  0
  -18.9229  -28.9802   21.0423 N   0  3  0  0  0  0  0  0  0  0  0  0
  -28.5884  -23.4622   18.7743 O   0  0  0  0  0  0  0  0  0  0  0  0
  -22.2462  -14.1282   20.0853 O   0  0  0  0  0  0  0  0  0  0  0  0
  -27.4300  -29.6711   22.6316 O   0  0  0  0  0  0  0  0  0  0  0  0
  -23.5355  -31.5435   23.7634 O   0  0  0  0  0  0  0  0  0  0  0  0
  -21.1853  -27.7423   22.1672 O   0  0  0  0  0  0  0  0  0  0  0  0
  -31.2528  -15.7881   18.6756 O   0  0  0  0  0  0  0  0  0  0  0  0
  -22.7917   -9.1325   26.0293 O   0  0  0  0  0  0  0  0  0  0  0  0
  -26.4858  -25.6325   18.4517 O   0  0  0  0  0  0  0  0  0  1  0  0
  -18.1301   -6.3293   25.1267 F   0  0  0  0  0  0  0  0  0  0  0  0
  -22.7211   -6.3801   26.2777 F   0  0  0  0  0  0  0  0  0  0  0  0
  1  2  1  0  0  0  0
  1  5  2  0  0  0  0
  2  6  2  0  0  0  0
  3  8  2  0  0  0  0
  3 18  1  0  0  0  0
  4  9  1  0  0  0  0
  4 18  2  0  0  0  0
  5 20  1  0  0  0  0
  6 22  1  0  0  0  0
  7 10  2  0  0  0  0
  7 21  1  0  0  0  0
  8 27  1  0  0  0  0
  9 27  2  0  0  0  0
 10 28  1  0  0  0  0
 11 12  2  0  0  0  0
 11 29  1  0  0  0  0
 12 30  1  0  0  0  0
 13 23  1  0  0  0  0
 13 28  2  0  0  0  0
 14 24  1  0  0  0  0
 14 25  2  0  0  0  0
 15 24  2  0  0  0  0
 15 26  1  0  0  0  0
 16 25  1  0  0  0  0
 16 26  2  0  0  0  0
 17 30  2  0  0  0  0
 17 31  1  0  0  0  0
 18 32  1  0  0  0  0
 19 32  1  0  0  0  0
 19 33  2  0  0  0  0
 19 35  1  0  0  0  0
 20 22  2  0  0  0  0
 20 40  1  0  0  0  0
 21 23  2  0  0  0  0
 21 41  1  0  0  0  0
 22 51  1  0  0  0  0
 23 42  1  0  0  0  0
 24 63  1  0  0  0  0
 25 69  1  0  0  0  0
 26 74  1  0  0  0  0
 27 84  1  0  0  0  0
 28 85  1  0  0  0  0
 29 31  2  0  0  0  0
 29 84  1  0  0  0  0
 30 86  1  0  0  0  0
 31 87  1  0  0  0  0
 32 67  2  0  0  0  0
 33 68  1  0  0  0  0
 33 72  1  0  0  0  0
 34 52  1  0  0  0  0
 34 69  1  0  0  0  0
 34 78  2  0  0  0  0
 35 73  1  0  0  0  0
 35 79  2  0  0  0  0
 36 53  1  0  0  0  0
 36 75  1  0  0  0  0
 36 80  2  0  0  0  0
 37 64  1  0  0  0  0
 37 70  1  0  0  0  0
 37 81  2  0  0  0  0
 38 65  1  0  0  0  0
 38 76  1  0  0  0  0
 38 82  2  0  0  0  0
 39 71  1  0  0  0  0
 39 74  1  0  0  0  0
 39 83  2  0  0  0  0
 40 43  1  0  0  0  0
 41 53  1  0  0  0  0
 42 70  1  0  0  0  0
 43 45  1  0  0  0  0
 44 46  1  0  0  0  0
 44 48  1  0  0  0  0
 45 51  1  0  0  0  0
 46 54  1  0  0  0  0
 47 49  1  0  0  0  0
 47 52  1  0  0  0  0
 48 71  1  0  0  0  0
 49 69  1  0  0  0  0
 50 54  1  0  0  0  0
 50 71  1  0  0  0  0
 51 75  1  0  0  0  0
 52 62  1  0  0  0  0
 53 70  1  0  0  0  0
 54 68  1  0  0  0  0
 55 63  1  0  0  0  0
 56 63  1  0  0  0  0
 57 65  1  0  0  0  0
 58 66  1  0  0  0  0
 59 66  1  0  0  0  0
 60 66  1  0  0  0  0
 61 77  1  0  0  0  0
 62 85  1  0  0  0  0
 64 66  1  0  0  0  0
 64 76  1  0  0  0  0
 65 77  1  0  0  0  0
 67 68  1  0  0  0  0
M  CHG  1  77   1
M  ISO  4  39 100  62 101  74 100  85 101
M  END
> <Batch ID>
0072

> <Smiles>
CNC(C)C(=O)NC(C(=O)N1Cc2cc([101O:1][101CH2:1]C3CCN(c4cc([100NH:0][100C:0](=O)N5CCCC(n6nc(-c7ccc(Oc8ccc(F)cc8F)cc7)c(C(N)=O)c6N)C5)cc(C(C)C)c4)C3=O)ccc2CC1C(=O)NC1CCCc2ccccc21)C(C)(C)C

> <Shape>
0.268

> <Color>
0.126

> <Negative vol penalty>
0.000

$$$$

  -OEChem-04042323383D

 79 86  0     1  0  0  0  0  0999 V2000
  -20.7712  -33.2571   19.1021 C   0  0  0  0  0  0  0  0  0  0  0  0
  -22.0341  -32.7026   19.2838 C   0  0  0  0  0  0  0  0  0  0  0  0
  -27.2919  -17.6575   20.1149 C   0  0  0  0  0  0  0  0  0  0  0  0
  -29.5178  -17.0359   20.8193 C   0  0  0  0  0  0  0  0  0  0  0  0
  -19.7597  -33.0030   20.0274 C   0  0  0  0  0  0  0  0  0  0  0  0
  -22.2865  -31.8944   20.3918 C   0  0  0  0  0  0  0  0  0  0  0  0
  -24.8585  -27.7004   19.1914 C   0  0  0  0  0  0  0  0  0  0  0  0
  -27.0009  -16.3188   19.8530 C   0  0  0  0  0  0  0  0  0  0  0  0
  -29.2268  -15.6971   20.5575 C   0  0  0  0  0  0  0  0  0  0  0  0
  -26.2308  -27.8325   18.9841 C   0  0  0  0  0  0  0  0  0  0  0  0
  -26.1583  -13.5612   21.6191 C   0  0  0  0  0  0  0  0  0  0  0  0
  -24.9328  -13.0652   22.0638 C   0  0  0  0  0  0  0  0  0  0  0  0
  -26.6411  -27.0018   21.2113 C   0  0  0  0  0  0  0  0  0  0  0  0
  -24.3251  -12.5266   19.7883 C   0  0  0  0  0  0  0  0  0  0  0  0
  -28.5504  -18.0161   20.5980 C   0  0  0  0  0  0  0  0  0  0  0  0
  -28.6613  -20.0895   22.0801 C   0  0  0  0  0  0  0  0  0  0  0  0
  -19.9972  -32.1834   21.1421 C   0  0  0  0  0  0  0  0  0  0  0  0
  -24.3659  -27.2275   20.4162 C   0  0  0  0  0  0  0  0  0  0  0  0
  -21.2777  -31.6301   21.3336 C   0  0  0  0  0  0  0  0  0  0  0  0
  -25.2622  -26.8622   21.4307 C   0  0  0  0  0  0  0  0  0  0  0  0
  -27.9683  -15.3386   20.0743 C   0  0  0  0  0  0  0  0  0  0  0  0
  -27.1223  -27.4859   19.9951 C   0  0  0  0  0  0  0  0  0  0  0  0
  -26.4672  -13.5400   20.2590 C   0  0  0  0  0  0  0  0  0  0  0  0
  -24.0162  -12.5479   21.1484 C   0  0  0  0  0  0  0  0  0  0  0  0
  -25.5506  -13.0227   19.3436 C   0  0  0  0  0  0  0  0  0  0  0  0
  -28.8518  -19.3990   20.8682 C   0  0  0  0  0  0  0  0  0  0  0  0
  -29.1003  -21.3649   21.8212 C   0  0  0  0  0  0  0  0  0  0  0  0
  -28.1347  -19.6200   23.3282 C   0  0  0  0  0  0  0  0  0  0  0  0
  -22.5131  -28.4283   22.7029 C   0  0  0  0  0  0  0  0  0  0  0  0
  -22.7347  -25.4287   23.9178 C   0  0  0  0  0  0  0  0  0  0  0  0
  -30.7694  -27.4718   20.5105 C   0  0  0  0  0  0  0  0  0  0  0  0
  -24.4792  -22.5018   24.1088 C   0  0  0  0  0  0  0  0  0  0  0  0
  -32.8446  -24.8707   19.6222 C   0  0  0  0  0  0  0  0  0  0  0  0
  -18.8859  -31.9757   22.1404 C   0  0  0  0  0  0  0  0  0  0  0  0
  -22.8837  -27.0655   20.6145 C   0  0  0  0  0  0  0  0  0  0  0  0
  -24.7851  -26.3303   22.7566 C   0  0  0  0  0  0  0  0  0  0  0  0
  -19.1297  -30.8044   23.0884 C   0  0  0  0  0  0  0  0  0  0  0  0
  -30.3222  -23.6031   17.4526 C   0  0  0  0  0  0  0  0  0  0  0  0
  -20.5520  -30.8494   23.6379 C   0  0  0  0  0  0  0  0  0  0  0  0
  -29.7038  -22.4500   18.2450 C   0  0  0  0  0  0  0  0  0  0  0  0
  -31.8277  -23.7055   17.6871 C   0  0  0  0  0  0  0  0  0  0  0  0
  -31.6112  -22.6346   19.8962 C   0  0  0  0  0  0  0  0  0  0  0  0
  -21.5834  -30.7281   22.5096 C   0  0  1  0  0  0  0  0  0  0  0  0
  -22.4746  -27.0596   22.0841 C   0  0  1  0  0  0  0  0  0  0  0  0
  -30.0852  -22.5259   19.7357 C   0  0  2  0  0  0  0  0  0  0  0  0
  -24.4309  -20.2481   25.2114 C   0  0  0  0  0  0  0  0  0  0  0  0
  -23.6627  -26.6923   26.5355 C   0  0  0  0  0  0  0  0  0  0  0  0
  -24.4901  -24.4395   27.2486 C   0  0  0  0  0  0  0  0  0  0  0  0
  -22.0606  -24.7910   26.8052 C   0  0  0  0  0  0  0  0  0  0  0  0
  -33.8725  -25.6055   23.1586 C   0  0  0  0  0  0  0  0  0  0  0  0
  -35.2248  -25.9949   21.0937 C   0  0  0  0  0  0  0  0  0  0  0  0
  -24.3350  -21.1022   21.5050 C   0  0  0  0  0  0  0  0  0  0  0  0
  -29.3183  -27.2409   20.8745 C   0  0  0  0  0  0  0  0  0  1  0  0
  -33.0556  -27.2595   21.4663 C   0  0  0  0  0  0  0  0  0  0  0  0
  -23.6781  -24.7252   24.8632 C   0  0  1  0  0  0  0  0  0  0  0  0
  -24.0362  -21.0552   23.9844 C   0  0  2  0  0  0  0  0  0  0  0  0
  -23.4821  -25.1738   26.3389 C   0  0  0  0  0  0  0  0  0  0  0  0
  -33.7981  -25.9234   21.6574 C   0  0  0  0  0  0  0  0  0  0  0  0
  -29.3712  -20.1718   19.9105 N   0  0  0  0  0  0  0  0  0  0  0  0
  -29.5107  -21.3611   20.5205 N   0  0  0  0  0  0  0  0  0  0  0  0
  -23.3265  -26.1960   22.9045 N   0  0  0  0  0  0  0  0  0  0  0  0
  -32.1218  -23.7758   19.1205 N   0  0  0  0  0  0  0  0  0  0  0  0
  -29.1714  -22.4782   22.5815 N   0  0  0  0  0  0  0  0  0  0  0  0
  -27.7305  -18.2812   23.4216 N   0  0  0  0  0  0  0  0  0  0  0  0
  -21.6988  -29.3521   22.0761 N   0  0  0  0  0  0  0  0  0  0  0  0
  -31.6190  -27.1330   21.5518 N   0  0  0  0  0  0  0  0  0  0  0  0
  -23.4864  -23.2958   24.6427 N   0  0  0  0  0  0  0  0  0  0  0  0
  -33.0746  -24.8626   20.9925 N   0  0  0  0  0  0  0  0  0  0  0  0
  -24.6587  -20.4239   22.7865 N   0  3  0  0  0  0  0  0  0  0  0  0
  -28.0106  -20.3698   24.3262 O   0  0  0  0  0  0  0  0  0  0  0  0
  -23.2276  -28.6308   23.6777 O   0  0  0  0  0  0  0  0  0  0  0  0
  -21.5175  -25.2964   24.0683 O   0  0  0  0  0  0  0  0  0  0  0  0
  -31.1187  -27.9088   19.4173 O   0  0  0  0  0  0  0  0  0  0  0  0
  -25.5957  -22.8880   23.7698 O   0  0  0  0  0  0  0  0  0  0  0  0
  -33.2499  -25.7903   18.9032 O   0  0  0  0  0  0  0  0  0  0  0  0
  -27.6846  -14.0320   19.8192 O   0  0  0  0  0  0  0  0  0  0  0  0
  -28.4622  -27.6145   19.7957 O   0  0  0  0  0  0  0  0  0  1  0  0
  -22.8400  -12.0703   21.5757 F   0  0  0  0  0  0  0  0  0  0  0  0
  -25.8422  -12.9985   18.0359 F   0  0  0  0  0  0  0  0  0  0  0  0
  1  2  1  0  0  0  0
  1  5  2  0  0  0  0
  2  6  2  0  0  0  0
  3  8  2  0  0  0  0
  3 15  1  0  0  0  0
  4  9  1  0  0  0  0
  4 15  2  0  0  0  0
  5 17  1  0  0  0  0
  6 19  1  0  0  0  0
  7 10  2  0  0  0  0
  7 18  1  0  0  0  0
  8 21  1  0  0  0  0
  9 21  2  0  0  0  0
 10 22  1  0  0  0  0
 11 12  2  0  0  0  0
 11 23  1  0  0  0  0
 12 24  1  0  0  0  0
 13 20  1  0  0  0  0
 13 22  2  0  0  0  0
 14 24  2  0  0  0  0
 14 25  1  0  0  0  0
 15 26  1  0  0  0  0
 16 26  1  0  0  0  0
 16 27  2  0  0  0  0
 16 28  1  0  0  0  0
 17 19  2  0  0  0  0
 17 34  1  0  0  0  0
 18 20  2  0  0  0  0
 18 35  1  0  0  0  0
 19 43  1  0  0  0  0
 20 36  1  0  0  0  0
 21 76  1  0  0  0  0
 22 77  1  0  0  0  0
 23 25  2  0  0  0  0
 23 76  1  0  0  0  0
 24 78  1  0  0  0  0
 25 79  1  0  0  0  0
 26 59  2  0  0  0  0
 27 60  1  0  0  0  0
 27 63  1  0  0  0  0
 28 64  1  0  0  0  0
 28 70  2  0  0  0  0
 29 44  1  0  0  0  0
 29 65  1  0  0  0  0
 29 71  2  0  0  0  0
 30 55  1  0  0  0  0
 30 61  1  0  0  0  0
 30 72  2  0  0  0  0
 31 53  1  0  0  0  0
 31 66  1  0  0  0  0
 31 73  2  0  0  0  0
 32 56  1  0  0  0  0
 32 67  1  0  0  0  0
 32 74  2  0  0  0  0
 33 62  1  0  0  0  0
 33 68  1  0  0  0  0
 33 75  2  0  0  0  0
 34 37  1  0  0  0  0
 35 44  1  0  0  0  0
 36 61  1  0  0  0  0
 37 39  1  0  0  0  0
 38 40  1  0  0  0  0
 38 41  1  0  0  0  0
 39 43  1  0  0  0  0
 40 45  1  0  0  0  0
 41 62  1  0  0  0  0
 42 45  1  0  0  0  0
 42 62  1  0  0  0  0
 43 65  1  0  0  0  0
 44 61  1  0  0  0  0
 45 60  1  0  0  0  0
 46 56  1  0  0  0  0
 47 57  1  0  0  0  0
 48 57  1  0  0  0  0
 49 57  1  0  0  0  0
 50 58  1  0  0  0  0
 51 58  1  0  0  0  0
 52 69  1  0  0  0  0
 53 77  1  0  0  0  0
 54 58  1  0  0  0  0
 54 66  1  0  0  0  0
 55 57  1  0  0  0  0
 55 67  1  0  0  0  0
 56 69  1  0  0  0  0
 58 68  1  0  0  0  0
 59 60  1  0  0  0  0
M  CHG  1  69   1
M  ISO  4  33 100  53 101  68 100  77 101
M  END
> <Batch ID>
0072

> <Smiles>
CNC(C)C(=O)NC(C(=O)N1Cc2cc([101O:1][101CH2:1]C(=O)NCC(C)(C)[100NH:0][100C:0](=O)N3CCCC(n4nc(-c5ccc(Oc6ccc(F)cc6F)cc5)c(C(N)=O)c4N)C3)ccc2CC1C(=O)NC1CCCc2ccccc21)C(C)(C)C

> <Shape>
0.192

> <Color>
0.083

> <Negative vol penalty>
0.000

$$$$

  -OEChem-04042323383D

 88 96  0     1  0  0  0  0  0999 V2000
  -34.2781  -29.9495   26.8475 C   0  0  0  0  0  0  0  0  0  0  0  0
  -34.5163  -28.6266   27.2062 C   0  0  0  0  0  0  0  0  0  0  0  0
  -23.1997   -9.8514   19.9532 C   0  0  0  0  0  0  0  0  0  0  0  0
  -23.9123   -9.9297   22.2603 C   0  0  0  0  0  0  0  0  0  0  0  0
  -32.9729  -30.3858   26.6240 C   0  0  0  0  0  0  0  0  0  0  0  0
  -33.4492  -27.7395   27.3429 C   0  0  0  0  0  0  0  0  0  0  0  0
  -34.3536  -23.2614   25.1582 C   0  0  0  0  0  0  0  0  0  0  0  0
  -22.5074   -8.6674   20.2071 C   0  0  0  0  0  0  0  0  0  0  0  0
  -23.2200   -8.7457   22.5144 C   0  0  0  0  0  0  0  0  0  0  0  0
  -35.1736  -22.3700   25.8488 C   0  0  0  0  0  0  0  0  0  0  0  0
  -21.3428   -5.9360   23.8560 C   0  0  0  0  0  0  0  0  0  0  0  0
  -20.5662   -5.8734   25.0130 C   0  0  0  0  0  0  0  0  0  0  0  0
  -31.3696  -15.7253   25.5874 C   0  0  0  0  0  0  0  0  0  0  0  0
  -33.2214  -21.1821   26.6215 C   0  0  0  0  0  0  0  0  0  0  0  0
  -32.6210  -14.7384   23.2976 C   0  0  0  0  0  0  0  0  0  0  0  0
  -19.2447   -7.7369   24.2267 C   0  0  0  0  0  0  0  0  0  0  0  0
  -23.9023  -10.4825   20.9798 C   0  0  0  0  0  0  0  0  0  0  0  0
  -32.7537  -15.5530   25.5683 C   0  0  0  0  0  0  0  0  0  0  0  0
  -24.1244  -13.0192   20.8260 C   0  0  0  0  0  0  0  0  0  0  0  0
  -31.8901  -29.5012   26.7486 C   0  0  0  0  0  0  0  0  0  0  0  0
  -32.9586  -23.1260   25.2030 C   0  0  0  0  0  0  0  0  0  0  0  0
  -32.1281  -28.1647   27.1222 C   0  0  0  0  0  0  0  0  0  0  0  0
  -32.3860  -22.0715   25.9285 C   0  0  0  0  0  0  0  0  0  0  0  0
  -31.2369  -14.9106   23.3167 C   0  0  0  0  0  0  0  0  0  0  0  0
  -22.5175   -8.1146   21.4877 C   0  0  0  0  0  0  0  0  0  0  0  0
  -34.6074  -21.3320   26.5829 C   0  0  0  0  0  0  0  0  0  0  0  0
  -21.0704   -6.8991   22.8844 C   0  0  0  0  0  0  0  0  0  0  0  0
  -19.5171   -6.7738   25.1983 C   0  0  0  0  0  0  0  0  0  0  0  0
  -30.6112  -15.4040   24.4616 C   0  0  0  0  0  0  0  0  0  0  0  0
  -33.3793  -15.0595   24.4234 C   0  0  0  0  0  0  0  0  0  0  0  0
  -20.0213   -7.7995   23.0697 C   0  0  0  0  0  0  0  0  0  0  0  0
  -24.6181  -11.7053   20.7179 C   0  0  0  0  0  0  0  0  0  0  0  0
  -25.1862  -13.8152   20.4719 C   0  0  0  0  0  0  0  0  0  0  0  0
  -36.8772  -15.7618   27.6807 C   0  0  0  0  0  0  0  0  0  0  0  0
  -33.5540  -15.8937   26.7616 C   0  0  0  0  0  0  0  0  0  0  0  0
  -22.8224  -13.4790   21.2120 C   0  0  0  0  0  0  0  0  0  0  0  0
  -30.5618  -24.9351   26.2452 C   0  0  0  0  0  0  0  0  0  0  0  0
  -36.0713  -18.1439   27.4933 C   0  0  0  0  0  0  0  0  0  0  0  0
  -28.7392  -22.6085   24.9082 C   0  0  0  0  0  0  0  0  0  0  0  0
  -28.4770  -19.3643   23.8820 C   0  0  0  0  0  0  0  0  0  0  0  0
  -30.9354  -14.0838   20.9563 C   0  0  0  0  0  0  0  0  0  0  0  0
  -30.4928  -30.0306   26.5431 C   0  0  0  0  0  0  0  0  0  0  0  0
  -32.0889  -24.0798   24.4308 C   0  0  0  0  0  0  0  0  0  0  0  0
  -30.8947  -21.8706   25.9921 C   0  0  0  0  0  0  0  0  0  0  0  0
  -29.4494  -28.9345   26.3432 C   0  0  0  0  0  0  0  0  0  0  0  0
  -29.3625  -13.1183   17.9114 C   0  0  0  0  0  0  0  0  0  0  0  0
  -29.6246  -27.8342   27.3851 C   0  0  0  0  0  0  0  0  0  0  0  0
  -27.9301  -12.7836   18.3336 C   0  0  0  0  0  0  0  0  0  0  0  0
  -30.3792  -12.6967   18.9709 C   0  0  0  0  0  0  0  0  0  0  0  0
  -28.6792  -12.8669   20.7458 C   0  0  0  0  0  0  0  0  0  0  0  0
  -30.9989  -27.1662   27.2562 C   0  0  1  0  0  0  0  0  0  0  0  0
  -30.6621  -24.1541   24.9655 C   0  0  1  0  0  0  0  0  0  0  0  0
  -27.6142  -13.3316   19.7391 C   0  0  2  0  0  0  0  0  0  0  0  0
  -26.8521  -17.7455   22.8638 C   0  0  0  0  0  0  0  0  0  0  0  0
  -27.3070  -22.3624   27.5912 C   0  0  0  0  0  0  0  0  0  0  0  0
  -26.3985  -20.1588   26.8251 C   0  0  0  0  0  0  0  0  0  0  0  0
  -25.8071  -22.2459   25.5934 C   0  0  0  0  0  0  0  0  0  0  0  0
  -30.2026  -18.9417   21.5150 C   0  0  0  0  0  0  0  0  0  0  0  0
  -34.9200  -19.1292   27.4233 C   0  0  0  0  0  0  0  0  0  1  0  0
  -35.6992  -16.6927   27.6873 C   0  0  1  0  0  0  0  0  0  0  0  0
  -28.1455  -21.3066   25.3893 C   0  0  1  0  0  0  0  0  0  0  0  0
  -27.9570  -18.7546   22.5926 C   0  0  2  0  0  0  0  0  0  0  0  0
  -26.9426  -21.5231   26.3503 C   0  0  0  0  0  0  0  0  0  0  0  0
  -25.8942  -11.6646   20.3257 N   0  0  0  0  0  0  0  0  0  0  0  0
  -26.2113  -12.9629   20.1841 N   0  0  0  0  0  0  0  0  0  0  0  0
  -30.0864  -22.8330   25.2254 N   0  0  0  0  0  0  0  0  0  0  0  0
  -30.0178  -13.2562   20.2752 N   0  0  0  0  0  0  0  0  0  0  0  0
  -25.3336  -15.1540   20.3817 N   0  0  0  0  0  0  0  0  0  0  0  0
  -21.8489  -12.5271   21.5442 N   0  0  0  0  0  0  0  0  0  0  0  0
  -30.4690  -14.5837   22.1716 N   0  0  0  0  0  0  0  0  0  0  0  0
  -34.8200  -16.3120   26.5924 N   0  0  0  0  0  0  0  0  0  0  0  0
  -31.0080  -26.2391   26.1450 N   0  0  0  0  0  0  0  0  0  0  0  0
  -27.8229  -20.5380   24.1920 N   0  0  0  0  0  0  0  0  0  0  0  0
  -32.9817  -15.7677   27.9590 N   0  3  0  0  0  0  0  0  0  0  0  0
  -29.0585  -18.0616   21.8663 N   0  3  0  0  0  0  0  0  0  0  0  0
  -37.0604  -14.8757   26.8519 O   0  0  0  0  0  0  0  0  0  0  0  0
  -22.5260  -14.6975   21.2451 O   0  0  0  0  0  0  0  0  0  0  0  0
  -30.1114  -24.3951   27.2489 O   0  0  0  0  0  0  0  0  0  0  0  0
  -37.2422  -18.5146   27.4079 O   0  0  0  0  0  0  0  0  0  0  0  0
  -28.0357  -23.3941   24.2683 O   0  0  0  0  0  0  0  0  0  0  0  0
  -29.3711  -18.8490   24.5494 O   0  0  0  0  0  0  0  0  0  0  0  0
  -32.0423  -14.3527   20.4825 O   0  0  0  0  0  0  0  0  0  0  0  0
  -21.8419   -6.9594   21.7360 O   0  0  0  0  0  0  0  0  0  0  0  0
  -35.4055  -20.4609   27.2584 O   0  0  0  0  0  0  0  0  0  1  0  0
  -18.7705   -6.7126   26.3087 F   0  0  0  0  0  0  0  0  0  0  0  0
  -29.2815  -15.5734   24.4912 F   0  0  0  0  0  0  0  0  0  0  0  0
  -34.7088  -14.8903   24.3956 F   0  0  0  0  0  0  0  0  0  0  0  0
  -19.7541   -8.7261   22.1393 F   0  0  0  0  0  0  0  0  0  0  0  0
  1  2  1  0  0  0  0
  1  5  2  0  0  0  0
  2  6  2  0  0  0  0
  3  8  2  0  0  0  0
  3 17  1  0  0  0  0
  4  9  1  0  0  0  0
  4 17  2  0  0  0  0
  5 20  1  0  0  0  0
  6 22  1  0  0  0  0
  7 10  2  0  0  0  0
  7 21  1  0  0  0  0
  8 25  1  0  0  0  0
  9 25  2  0  0  0  0
 10 26  1  0  0  0  0
 11 12  2  0  0  0  0
 11 27  1  0  0  0  0
 12 28  1  0  0  0  0
 13 18  1  0  0  0  0
 13 29  2  0  0  0  0
 14 23  1  0  0  0  0
 14 26  2  0  0  0  0
 15 24  2  0  0  0  0
 15 30  1  0  0  0  0
 16 28  2  0  0  0  0
 16 31  1  0  0  0  0
 17 32  1  0  0  0  0
 18 30  2  0  0  0  0
 18 35  1  0  0  0  0
 19 32  1  0  0  0  0
 19 33  2  0  0  0  0
 19 36  1  0  0  0  0
 20 22  2  0  0  0  0
 20 42  1  0  0  0  0
 21 23  2  0  0  0  0
 21 43  1  0  0  0  0
 22 51  1  0  0  0  0
 23 44  1  0  0  0  0
 24 29  1  0  0  0  0
 24 70  1  0  0  0  0
 25 83  1  0  0  0  0
 26 84  1  0  0  0  0
 27 31  2  0  0  0  0
 27 83  1  0  0  0  0
 28 85  1  0  0  0  0
 29 86  1  0  0  0  0
 30 87  1  0  0  0  0
 31 88  1  0  0  0  0
 32 64  2  0  0  0  0
 33 65  1  0  0  0  0
 33 68  1  0  0  0  0
 34 60  1  0  0  0  0
 34 76  2  0  0  0  0
 35 71  1  0  0  0  0
 35 74  2  0  0  0  0
 36 69  1  0  0  0  0
 36 77  2  0  0  0  0
 37 52  1  0  0  0  0
 37 72  1  0  0  0  0
 37 78  2  0  0  0  0
 38 59  1  0  0  0  0
 38 60  1  0  0  0  0
 38 79  2  0  0  0  0
 39 61  1  0  0  0  0
 39 66  1  0  0  0  0
 39 80  2  0  0  0  0
 40 62  1  0  0  0  0
 40 73  1  0  0  0  0
 40 81  2  0  0  0  0
 41 67  1  0  0  0  0
 41 70  1  0  0  0  0
 41 82  2  0  0  0  0
 42 45  1  0  0  0  0
 43 52  1  0  0  0  0
 44 66  1  0  0  0  0
 45 47  1  0  0  0  0
 46 48  1  0  0  0  0
 46 49  1  0  0  0  0
 47 51  1  0  0  0  0
 48 53  1  0  0  0  0
 49 67  1  0  0  0  0
 50 53  1  0  0  0  0
 50 67  1  0  0  0  0
 51 72  1  0  0  0  0
 52 66  1  0  0  0  0
 53 65  1  0  0  0  0
 54 62  1  0  0  0  0
 55 63  1  0  0  0  0
 56 63  1  0  0  0  0
 57 63  1  0  0  0  0
 58 75  1  0  0  0  0
 59 84  1  0  0  0  0
 60 71  1  0  0  0  0
 61 63  1  0  0  0  0
 61 73  1  0  0  0  0
 62 75  1  0  0  0  0
 64 65  1  0  0  0  0
M  CHG  2  74   1  75   1
M  ISO  4  41 100  59 101  70 100  84 101
M  END
> <Batch ID>
0072

> <Smiles>
CNC(C)C(=O)NC(C(=O)N1Cc2cc([101O:1][101CH2:1]C(=O)C(C=O)NC(=N)c3cc(F)c([100NH:0][100C:0](=O)N4CCCC(n5nc(-c6ccc(Oc7ccc(F)cc7F)cc6)c(C(N)=O)c5N)C4)cc3F)ccc2CC1C(=O)NC1CCCc2ccccc21)C(C)(C)C

> <Shape>
0.156

> <Color>
0.171

> <Negative vol penalty>
0.000

$$$$

  -OEChem-04042323383D

 86 95  0     1  0  0  0  0  0999 V2000
  -28.2075  -36.8961   22.4782 C   0  0  0  0  0  0  0  0  0  0  0  0
  -28.6808  -35.6388   22.1171 C   0  0  0  0  0  0  0  0  0  0  0  0
  -23.4052   -9.8258   19.9123 C   0  0  0  0  0  0  0  0  0  0  0  0
  -24.1670   -9.8958   22.2040 C   0  0  0  0  0  0  0  0  0  0  0  0
  -27.0531  -37.0094   23.2518 C   0  0  0  0  0  0  0  0  0  0  0  0
  -28.0006  -34.4938   22.5304 C   0  0  0  0  0  0  0  0  0  0  0  0
  -27.3829  -29.2544   19.4203 C   0  0  0  0  0  0  0  0  0  0  0  0
  -22.8377   -8.5720   20.1392 C   0  0  0  0  0  0  0  0  0  0  0  0
  -23.5994   -8.6419   22.4309 C   0  0  0  0  0  0  0  0  0  0  0  0
  -28.0617  -28.0385   19.4869 C   0  0  0  0  0  0  0  0  0  0  0  0
  -20.5241   -7.3717   23.0221 C   0  0  0  0  0  0  0  0  0  0  0  0
  -19.7866   -7.1982   24.1932 C   0  0  0  0  0  0  0  0  0  0  0  0
  -26.3450  -27.1665   20.9400 C   0  0  0  0  0  0  0  0  0  0  0  0
  -29.6734  -20.1183   20.4683 C   0  0  0  0  0  0  0  0  0  0  0  0
  -29.1506  -20.0426   22.8257 C   0  0  0  0  0  0  0  0  0  0  0  0
  -21.2995   -5.4467   24.8865 C   0  0  0  0  0  0  0  0  0  0  0  0
  -24.0699  -10.4877   20.9447 C   0  0  0  0  0  0  0  0  0  0  0  0
  -24.0411  -13.0376   20.8774 C   0  0  0  0  0  0  0  0  0  0  0  0
  -26.3530  -35.8656   23.6667 C   0  0  0  0  0  0  0  0  0  0  0  0
  -26.1836  -29.4395   20.1230 C   0  0  0  0  0  0  0  0  0  0  0  0
  -26.8365  -34.5919   23.3114 C   0  0  0  0  0  0  0  0  0  0  0  0
  -25.6515  -28.3849   20.8786 C   0  0  0  0  0  0  0  0  0  0  0  0
  -29.3952  -20.7774   21.6656 C   0  0  0  0  0  0  0  0  0  0  0  0
  -29.4625  -17.9895   21.5911 C   0  0  0  0  0  0  0  0  0  0  0  0
  -22.9348   -7.9800   21.3985 C   0  0  0  0  0  0  0  0  0  0  0  0
  -27.5443  -26.9952   20.2491 C   0  0  0  0  0  0  0  0  0  0  0  0
  -21.6493   -6.5827   22.7831 C   0  0  0  0  0  0  0  0  0  0  0  0
  -20.1743   -6.2357   25.1254 C   0  0  0  0  0  0  0  0  0  0  0  0
  -29.7070  -18.7243   20.4310 C   0  0  0  0  0  0  0  0  0  0  0  0
  -29.1843  -18.6486   22.7885 C   0  0  0  0  0  0  0  0  0  0  0  0
  -22.0370   -5.6202   23.7153 C   0  0  0  0  0  0  0  0  0  0  0  0
  -24.6568  -11.7826   20.7108 C   0  0  0  0  0  0  0  0  0  0  0  0
  -25.0112  -13.9451   20.5281 C   0  0  0  0  0  0  0  0  0  0  0  0
  -29.1215  -23.0325   22.7085 C   0  0  0  0  0  0  0  0  0  0  0  0
  -22.7112  -13.3548   21.3093 C   0  0  0  0  0  0  0  0  0  0  0  0
  -25.2235  -31.3813   22.4492 C   0  0  0  0  0  0  0  0  0  0  0  0
  -22.3376  -30.0211   21.8630 C   0  0  0  0  0  0  0  0  0  0  0  0
  -20.5831  -27.3568   20.6503 C   0  0  0  0  0  0  0  0  0  0  0  0
  -30.2686  -15.7692   20.7153 C   0  0  0  0  0  0  0  0  0  0  0  0
  -25.1364  -36.0366   24.5416 C   0  0  0  0  0  0  0  0  0  0  0  0
  -25.4497  -30.7483   20.0193 C   0  0  0  0  0  0  0  0  0  0  0  0
  -24.3570  -28.5259   21.6354 C   0  0  0  0  0  0  0  0  0  0  0  0
  -24.2645  -34.7863   24.6237 C   0  0  0  0  0  0  0  0  0  0  0  0
  -29.5049  -13.2686   18.2986 C   0  0  0  0  0  0  0  0  0  0  0  0
  -25.1246  -33.5510   24.8709 C   0  0  0  0  0  0  0  0  0  0  0  0
  -28.1249  -12.7623   18.7244 C   0  0  0  0  0  0  0  0  0  0  0  0
  -30.3829  -13.6030   19.5032 C   0  0  0  0  0  0  0  0  0  0  0  0
  -28.3976  -14.0143   20.9027 C   0  0  0  0  0  0  0  0  0  0  0  0
  -29.5772  -23.1431   20.6545 C   0  0  0  0  0  0  0  0  0  0  0  0
  -26.1125  -33.3272   23.7196 C   0  0  1  0  0  0  0  0  0  0  0  0
  -24.5019  -30.9961   21.1888 C   0  0  1  0  0  0  0  0  0  0  0  0
  -27.4546  -13.7260   19.7232 C   0  0  2  0  0  0  0  0  0  0  0  0
  -29.3163  -24.2326   21.7376 C   0  0  2  0  0  0  0  0  0  0  0  0
  -30.5239  -25.1031   22.0674 C   0  0  0  0  0  0  0  0  0  0  0  0
  -18.2382  -26.5182   20.3416 C   0  0  0  0  0  0  0  0  0  0  0  0
  -22.1848  -29.3604   24.8379 C   0  0  0  0  0  0  0  0  0  0  0  0
  -20.3501  -27.7398   24.3126 C   0  0  0  0  0  0  0  0  0  0  0  0
  -20.0402  -30.1690   23.8374 C   0  0  0  0  0  0  0  0  0  0  0  0
  -20.8893  -27.2375   17.7090 C   0  0  0  0  0  0  0  0  0  0  0  0
  -28.0626  -25.0521   21.5186 C   0  0  0  0  0  0  0  0  0  1  0  0
  -21.6005  -28.8109   22.3838 C   0  0  1  0  0  0  0  0  0  0  0  0
  -19.3943  -27.2776   19.7096 C   0  0  2  0  0  0  0  0  0  0  0  0
  -21.0693  -29.0177   23.8303 C   0  0  0  0  0  0  0  0  0  0  0  0
  -25.9201  -11.8801   20.2884 N   0  0  0  0  0  0  0  0  0  0  0  0
  -26.1062  -13.2071   20.1865 N   0  0  0  0  0  0  0  0  0  0  0  0
  -29.3613  -22.1518   21.7025 N   0  0  0  0  0  0  0  0  0  0  0  0
  -23.6799  -29.8270   21.5077 N   0  0  0  0  0  0  0  0  0  0  0  0
  -29.6844  -14.5234   20.4031 N   0  0  0  0  0  0  0  0  0  0  0  0
  -25.0258  -15.2942   20.4828 N   0  0  0  0  0  0  0  0  0  0  0  0
  -21.8436  -12.3016   21.6291 N   0  0  0  0  0  0  0  0  0  0  0  0
  -29.4978  -16.5735   21.5541 N   0  0  0  0  0  0  0  0  0  0  0  0
  -25.4380  -32.7399   22.5818 N   0  0  0  0  0  0  0  0  0  0  0  0
  -20.5626  -28.5118   21.4031 N   0  0  0  0  0  0  0  0  0  0  0  0
  -19.7779  -26.5843   18.4474 N   0  3  0  0  0  0  0  0  0  0  0  0
  -28.8627  -22.8914   23.8821 O   0  0  0  0  0  0  0  0  0  0  0  0
  -22.2992  -14.5367   21.3930 O   0  0  0  0  0  0  0  0  0  0  0  0
  -25.5594  -30.5105   23.2433 O   0  0  0  0  0  0  0  0  0  0  0  0
  -21.7421  -31.0972   21.7680 O   0  0  0  0  0  0  0  0  0  0  0  0
  -21.4420  -26.4800   20.7137 O   0  0  0  0  0  0  0  0  0  0  0  0
  -31.3590  -16.1097   20.2493 O   0  0  0  0  0  0  0  0  0  0  0  0
  -22.3810   -6.7567   21.6203 O   0  0  0  0  0  0  0  0  0  0  0  0
  -28.2052  -25.8076   20.3164 O   0  0  0  0  0  0  0  0  0  1  0  0
  -19.4668   -6.0703   26.2507 F   0  0  0  0  0  0  0  0  0  0  0  0
  -29.9751  -18.1014   19.2742 F   0  0  0  0  0  0  0  0  0  0  0  0
  -28.9471  -17.9529   23.9098 F   0  0  0  0  0  0  0  0  0  0  0  0
  -23.1177   -4.8600   23.4918 F   0  0  0  0  0  0  0  0  0  0  0  0
  1  2  1  0  0  0  0
  1  5  2  0  0  0  0
  2  6  2  0  0  0  0
  3  8  2  0  0  0  0
  3 17  1  0  0  0  0
  4  9  1  0  0  0  0
  4 17  2  0  0  0  0
  5 19  1  0  0  0  0
  6 21  1  0  0  0  0
  7 10  2  0  0  0  0
  7 20  1  0  0  0  0
  8 25  1  0  0  0  0
  9 25  2  0  0  0  0
 10 26  1  0  0  0  0
 11 12  2  0  0  0  0
 11 27  1  0  0  0  0
 12 28  1  0  0  0  0
 13 22  1  0  0  0  0
 13 26  2  0  0  0  0
 14 23  1  0  0  0  0
 14 29  2  0  0  0  0
 15 23  2  0  0  0  0
 15 30  1  0  0  0  0
 16 28  2  0  0  0  0
 16 31  1  0  0  0  0
 17 32  1  0  0  0  0
 18 32  1  0  0  0  0
 18 33  2  0  0  0  0
 18 35  1  0  0  0  0
 19 21  2  0  0  0  0
 19 40  1  0  0  0  0
 20 22  2  0  0  0  0
 20 41  1  0  0  0  0
 21 50  1  0  0  0  0
 22 42  1  0  0  0  0
 23 66  1  0  0  0  0
 24 29  1  0  0  0  0
 24 30  2  0  0  0  0
 24 71  1  0  0  0  0
 25 81  1  0  0  0  0
 26 82  1  0  0  0  0
 27 31  2  0  0  0  0
 27 81  1  0  0  0  0
 28 83  1  0  0  0  0
 29 84  1  0  0  0  0
 30 85  1  0  0  0  0
 31 86  1  0  0  0  0
 32 64  2  0  0  0  0
 33 65  1  0  0  0  0
 33 69  1  0  0  0  0
 34 53  1  0  0  0  0
 34 66  1  0  0  0  0
 34 75  2  0  0  0  0
 35 70  1  0  0  0  0
 35 76  2  0  0  0  0
 36 51  1  0  0  0  0
 36 72  1  0  0  0  0
 36 77  2  0  0  0  0
 37 61  1  0  0  0  0
 37 67  1  0  0  0  0
 37 78  2  0  0  0  0
 38 62  1  0  0  0  0
 38 73  1  0  0  0  0
 38 79  2  0  0  0  0
 39 68  1  0  0  0  0
 39 71  1  0  0  0  0
 39 80  2  0  0  0  0
 40 43  1  0  0  0  0
 41 51  1  0  0  0  0
 42 67  1  0  0  0  0
 43 45  1  0  0  0  0
 44 46  1  0  0  0  0
 44 47  1  0  0  0  0
 45 50  1  0  0  0  0
 46 52  1  0  0  0  0
 47 68  1  0  0  0  0
 48 52  1  0  0  0  0
 48 68  1  0  0  0  0
 49 53  1  0  0  0  0
 49 66  1  0  0  0  0
 50 72  1  0  0  0  0
 51 67  1  0  0  0  0
 52 65  1  0  0  0  0
 53 54  1  0  0  0  0
 53 60  1  0  0  0  0
 55 62  1  0  0  0  0
 56 63  1  0  0  0  0
 57 63  1  0  0  0  0
 58 63  1  0  0  0  0
 59 74  1  0  0  0  0
 60 82  1  0  0  0  0
 61 63  1  0  0  0  0
 61 73  1  0  0  0  0
 62 74  1  0  0  0  0
 64 65  1  0  0  0  0
M  CHG  1  74   1
M  ISO  4  39 100  60 101  71 100  82 101
M  END
> <Batch ID>
0072

> <Smiles>
CNC(C)C(=O)NC(C(=O)N1Cc2cc([101O:1][101CH2:1]C3(C)CN(c4cc(F)c([100NH:0][100C:0](=O)N5CCCC(n6nc(-c7ccc(Oc8ccc(F)cc8F)cc7)c(C(N)=O)c6N)C5)c(F)c4)C3=O)ccc2CC1C(=O)NC1CCCc2ccccc21)C(C)(C)C

> <Shape>
0.408

> <Color>
0.184

> <Negative vol penalty>
0.000

$$$$

  -OEChem-04042323383D

 87 96  0     1  0  0  0  0  0999 V2000
  -18.6112  -15.6218   17.8450 C   0  0  0  0  0  0  0  0  0  0  0  0
  -19.6050  -15.8380   18.7942 C   0  0  0  0  0  0  0  0  0  0  0  0
  -22.9999   -9.8942   19.9817 C   0  0  0  0  0  0  0  0  0  0  0  0
  -23.7237   -9.9468   22.2861 C   0  0  0  0  0  0  0  0  0  0  0  0
  -18.2500  -16.6454   16.9700 C   0  0  0  0  0  0  0  0  0  0  0  0
  -20.2390  -17.0777   18.8682 C   0  0  0  0  0  0  0  0  0  0  0  0
  -22.2671  -19.8795   23.9222 C   0  0  0  0  0  0  0  0  0  0  0  0
  -22.2330   -8.7601   20.2484 C   0  0  0  0  0  0  0  0  0  0  0  0
  -22.9567   -8.8127   22.5529 C   0  0  0  0  0  0  0  0  0  0  0  0
  -23.5324  -19.9706   24.5006 C   0  0  0  0  0  0  0  0  0  0  0  0
  -23.2006   -5.4733   22.0837 C   0  0  0  0  0  0  0  0  0  0  0  0
  -23.7875   -4.4566   22.8369 C   0  0  0  0  0  0  0  0  0  0  0  0
  -30.6536  -19.8073   21.4073 C   0  0  0  0  0  0  0  0  0  0  0  0
  -31.1936  -17.6055   20.5723 C   0  0  0  0  0  0  0  0  0  0  0  0
  -23.8732  -22.0933   23.4065 C   0  0  0  0  0  0  0  0  0  0  0  0
  -29.5389  -17.8648   22.3135 C   0  0  0  0  0  0  0  0  0  0  0  0
  -22.0627   -4.7012   24.5109 C   0  0  0  0  0  0  0  0  0  0  0  0
  -23.7453  -10.4876   21.0005 C   0  0  0  0  0  0  0  0  0  0  0  0
  -31.3851  -18.9870   20.5486 C   0  0  0  0  0  0  0  0  0  0  0  0
  -24.1313  -13.0029   20.8228 C   0  0  0  0  0  0  0  0  0  0  0  0
  -18.8733  -17.9014   17.0396 C   0  0  0  0  0  0  0  0  0  0  0  0
  -21.7989  -20.8912   23.0714 C   0  0  0  0  0  0  0  0  0  0  0  0
  -19.8869  -18.1187   17.9924 C   0  0  0  0  0  0  0  0  0  0  0  0
  -22.6006  -22.0140   22.8206 C   0  0  0  0  0  0  0  0  0  0  0  0
  -29.7305  -19.2463   22.2898 C   0  0  0  0  0  0  0  0  0  0  0  0
  -30.2704  -17.0444   21.4547 C   0  0  0  0  0  0  0  0  0  0  0  0
  -22.2114   -8.2193   21.5340 C   0  0  0  0  0  0  0  0  0  0  0  0
  -24.3368  -21.0762   24.2405 C   0  0  0  0  0  0  0  0  0  0  0  0
  -22.0448   -6.1041   22.5441 C   0  0  0  0  0  0  0  0  0  0  0  0
  -23.2185   -4.0705   24.0505 C   0  0  0  0  0  0  0  0  0  0  0  0
  -21.4758   -5.7180   23.7577 C   0  0  0  0  0  0  0  0  0  0  0  0
  -24.5382  -11.6588   20.7255 C   0  0  0  0  0  0  0  0  0  0  0  0
  -25.2414  -13.7250   20.4586 C   0  0  0  0  0  0  0  0  0  0  0  0
  -28.0659  -19.7834   24.0755 C   0  0  0  0  0  0  0  0  0  0  0  0
  -32.3419  -19.5686   19.6334 C   0  0  0  0  0  0  0  0  0  0  0  0
  -22.8632  -13.5499   21.2082 C   0  0  0  0  0  0  0  0  0  0  0  0
  -20.9260  -21.0289   20.0181 C   0  0  0  0  0  0  0  0  0  0  0  0
  -20.0778  -24.0603   20.8015 C   0  0  0  0  0  0  0  0  0  0  0  0
  -20.4945  -26.7426   22.8700 C   0  0  0  0  0  0  0  0  0  0  0  0
  -30.7210  -14.6851   20.6951 C   0  0  0  0  0  0  0  0  0  0  0  0
  -18.4822  -18.9622   16.0414 C   0  0  0  0  0  0  0  0  0  0  0  0
  -20.4210  -20.7908   22.4767 C   0  0  0  0  0  0  0  0  0  0  0  0
  -22.1364  -23.1369   21.9306 C   0  0  0  0  0  0  0  0  0  0  0  0
  -18.9409  -20.3648   16.4320 C   0  0  0  0  0  0  0  0  0  0  0  0
  -29.6036  -12.2307   18.3704 C   0  0  0  0  0  0  0  0  0  0  0  0
  -20.3982  -20.3439   16.8822 C   0  0  0  0  0  0  0  0  0  0  0  0
  -28.1527  -11.9737   18.7839 C   0  0  0  0  0  0  0  0  0  0  0  0
  -30.5034  -12.4748   19.5805 C   0  0  0  0  0  0  0  0  0  0  0  0
  -28.5874  -13.2651   20.9123 C   0  0  0  0  0  0  0  0  0  0  0  0
  -29.0154  -21.5029   23.3134 C   0  0  0  0  0  0  0  0  0  0  0  0
  -20.5805  -19.4575   18.1202 C   0  0  1  0  0  0  0  0  0  0  0  0
  -20.2513  -21.6340   21.2166 C   0  0  1  0  0  0  0  0  0  0  0  0
  -27.6304  -13.0781   19.7236 C   0  0  2  0  0  0  0  0  0  0  0  0
  -27.9279  -21.2966   24.4102 C   0  0  2  0  0  0  0  0  0  0  0  0
  -28.3728  -21.6591   25.8228 C   0  0  0  0  0  0  0  0  0  0  0  0
  -19.6892  -29.0908   23.2373 C   0  0  0  0  0  0  0  0  0  0  0  0
  -21.7890  -25.0106   18.4609 C   0  0  0  0  0  0  0  0  0  0  0  0
  -21.7220  -27.3148   19.4379 C   0  0  0  0  0  0  0  0  0  0  0  0
  -19.6076  -26.2077   18.7121 C   0  0  0  0  0  0  0  0  0  0  0  0
  -19.4385  -26.0840   25.5551 C   0  0  0  0  0  0  0  0  0  0  0  0
  -26.5693  -21.8780   24.0700 C   0  0  0  0  0  0  0  0  0  1  0  0
  -20.7755  -25.3990   20.8035 C   0  0  1  0  0  0  0  0  0  0  0  0
  -19.4907  -27.6249   23.5900 C   0  0  2  0  0  0  0  0  0  0  0  0
  -20.9833  -25.9611   19.3689 C   0  0  0  0  0  0  0  0  0  0  0  0
  -25.8077  -11.5317   20.3302 N   0  0  0  0  0  0  0  0  0  0  0  0
  -26.2081  -12.8053   20.1758 N   0  0  0  0  0  0  0  0  0  0  0  0
  -29.0089  -20.0552   23.1363 N   0  0  0  0  0  0  0  0  0  0  0  0
  -20.7841  -22.9895   21.3676 N   0  0  0  0  0  0  0  0  0  0  0  0
  -29.9481  -13.5365   20.4227 N   0  0  0  0  0  0  0  0  0  0  0  0
  -25.4753  -15.0506   20.3556 N   0  0  0  0  0  0  0  0  0  0  0  0
  -32.5335  -20.8981   19.6026 N   0  0  0  0  0  0  0  0  0  0  0  0
  -21.8310  -12.6662   21.5518 N   0  0  0  0  0  0  0  0  0  0  0  0
  -30.0764  -15.6410   21.4796 N   0  0  0  0  0  0  0  0  0  0  0  0
  -20.1301  -20.1501   19.3084 N   0  0  0  0  0  0  0  0  0  0  0  0
  -19.9926  -26.2661   21.6774 N   0  0  0  0  0  0  0  0  0  0  0  0
  -33.0528  -18.7868   18.8036 N   0  3  0  0  0  0  0  0  0  0  0  0
  -19.6325  -27.4732   25.0658 N   0  3  0  0  0  0  0  0  0  0  0  0
  -27.5635  -18.7535   24.4639 O   0  0  0  0  0  0  0  0  0  0  0  0
  -22.6468  -14.7853   21.2309 O   0  0  0  0  0  0  0  0  0  0  0  0
  -22.0825  -21.3377   19.7558 O   0  0  0  0  0  0  0  0  0  0  0  0
  -18.9449  -23.9695   20.3221 O   0  0  0  0  0  0  0  0  0  0  0  0
  -21.6134  -26.5033   23.3187 O   0  0  0  0  0  0  0  0  0  0  0  0
  -31.8599  -14.8234   20.2417 O   0  0  0  0  0  0  0  0  0  0  0  0
  -21.4629   -7.1128   21.7947 O   0  0  0  0  0  0  0  0  0  0  0  0
  -25.5725  -21.1673   24.8032 O   0  0  0  0  0  0  0  0  0  1  0  0
  -23.7813   -3.0930   24.7730 F   0  0  0  0  0  0  0  0  0  0  0  0
  -20.3648   -6.3194   24.2045 F   0  0  0  0  0  0  0  0  0  0  0  0
  1  2  1  0  0  0  0
  1  5  2  0  0  0  0
  2  6  2  0  0  0  0
  3  8  2  0  0  0  0
  3 18  1  0  0  0  0
  4  9  1  0  0  0  0
  4 18  2  0  0  0  0
  5 21  1  0  0  0  0
  6 23  1  0  0  0  0
  7 10  2  0  0  0  0
  7 22  1  0  0  0  0
  8 27  1  0  0  0  0
  9 27  2  0  0  0  0
 10 28  1  0  0  0  0
 11 12  2  0  0  0  0
 11 29  1  0  0  0  0
 12 30  1  0  0  0  0
 13 19  1  0  0  0  0
 13 25  2  0  0  0  0
 14 19  2  0  0  0  0
 14 26  1  0  0  0  0
 15 24  1  0  0  0  0
 15 28  2  0  0  0  0
 16 25  1  0  0  0  0
 16 26  2  0  0  0  0
 17 30  2  0  0  0  0
 17 31  1  0  0  0  0
 18 32  1  0  0  0  0
 19 35  1  0  0  0  0
 20 32  1  0  0  0  0
 20 33  2  0  0  0  0
 20 36  1  0  0  0  0
 21 23  2  0  0  0  0
 21 41  1  0  0  0  0
 22 24  2  0  0  0  0
 22 42  1  0  0  0  0
 23 51  1  0  0  0  0
 24 43  1  0  0  0  0
 25 67  1  0  0  0  0
 26 73  1  0  0  0  0
 27 84  1  0  0  0  0
 28 85  1  0  0  0  0
 29 31  2  0  0  0  0
 29 84  1  0  0  0  0
 30 86  1  0  0  0  0
 31 87  1  0  0  0  0
 32 65  2  0  0  0  0
 33 66  1  0  0  0  0
 33 70  1  0  0  0  0
 34 54  1  0  0  0  0
 34 67  1  0  0  0  0
 34 78  2  0  0  0  0
 35 71  1  0  0  0  0
 35 76  2  0  0  0  0
 36 72  1  0  0  0  0
 36 79  2  0  0  0  0
 37 52  1  0  0  0  0
 37 74  1  0  0  0  0
 37 80  2  0  0  0  0
 38 62  1  0  0  0  0
 38 68  1  0  0  0  0
 38 81  2  0  0  0  0
 39 63  1  0  0  0  0
 39 75  1  0  0  0  0
 39 82  2  0  0  0  0
 40 69  1  0  0  0  0
 40 73  1  0  0  0  0
 40 83  2  0  0  0  0
 41 44  1  0  0  0  0
 42 52  1  0  0  0  0
 43 68  1  0  0  0  0
 44 46  1  0  0  0  0
 45 47  1  0  0  0  0
 45 48  1  0  0  0  0
 46 51  1  0  0  0  0
 47 53  1  0  0  0  0
 48 69  1  0  0  0  0
 49 53  1  0  0  0  0
 49 69  1  0  0  0  0
 50 54  1  0  0  0  0
 50 67  1  0  0  0  0
 51 74  1  0  0  0  0
 52 68  1  0  0  0  0
 53 66  1  0  0  0  0
 54 55  1  0  0  0  0
 54 61  1  0  0  0  0
 56 63  1  0  0  0  0
 57 64  1  0  0  0  0
 58 64  1  0  0  0  0
 59 64  1  0  0  0  0
 60 77  1  0  0  0  0
 61 85  1  0  0  0  0
 62 64  1  0  0  0  0
 62 75  1  0  0  0  0
 63 77  1  0  0  0  0
 65 66  1  0  0  0  0
M  CHG  2  76   1  77   1
M  ISO  4  40 100  61 101  73 100  85 101
M  END
> <Batch ID>
0072

> <Smiles>
CNC(C)C(=O)NC(C(=O)N1Cc2cc([101O:1][101CH2:1]C3(C)CN(c4cc([100NH:0][100C:0](=O)N5CCCC(n6nc(-c7ccc(Oc8ccc(F)cc8F)cc7)c(C(N)=O)c6N)C5)cc(C(=N)N)c4)C3=O)ccc2CC1C(=O)NC1CCCc2ccccc21)C(C)(C)C

> <Shape>
0.221

> <Color>
0.186

> <Negative vol penalty>
0.000

$$$$

  -OEChem-04042323383D

 85 94  0     1  0  0  0  0  0999 V2000
  -29.6349  -35.2071   22.7456 C   0  0  0  0  0  0  0  0  0  0  0  0
  -29.5840  -33.8246   22.5990 C   0  0  0  0  0  0  0  0  0  0  0  0
  -22.8273  -10.8792   21.6281 C   0  0  0  0  0  0  0  0  0  0  0  0
  -23.1173  -12.8854   22.9426 C   0  0  0  0  0  0  0  0  0  0  0  0
  -28.5479  -35.8898   23.2898 C   0  0  0  0  0  0  0  0  0  0  0  0
  -28.4463  -33.1238   22.9978 C   0  0  0  0  0  0  0  0  0  0  0  0
  -27.0030  -29.6641   19.5930 C   0  0  0  0  0  0  0  0  0  0  0  0
  -31.0901  -19.2657   19.4200 C   0  0  0  0  0  0  0  0  0  0  0  0
  -29.1149  -18.5610   18.2205 C   0  0  0  0  0  0  0  0  0  0  0  0
  -30.5234  -20.5255   19.6133 C   0  0  0  0  0  0  0  0  0  0  0  0
  -28.5481  -19.8208   18.4138 C   0  0  0  0  0  0  0  0  0  0  0  0
  -21.8852  -10.4142   22.5456 C   0  0  0  0  0  0  0  0  0  0  0  0
  -22.1751  -12.4205   23.8601 C   0  0  0  0  0  0  0  0  0  0  0  0
  -27.7186  -28.4681   19.5580 C   0  0  0  0  0  0  0  0  0  0  0  0
  -21.8872   -8.9543   25.5940 C   0  0  0  0  0  0  0  0  0  0  0  0
  -21.9813   -7.6233   26.0003 C   0  0  0  0  0  0  0  0  0  0  0  0
  -25.9774  -27.3958   20.8377 C   0  0  0  0  0  0  0  0  0  0  0  0
  -19.7634   -7.2036   25.1390 C   0  0  0  0  0  0  0  0  0  0  0  0
  -23.4435  -12.1148   21.8267 C   0  0  0  0  0  0  0  0  0  0  0  0
  -24.1757  -13.3799   19.7360 C   0  0  0  0  0  0  0  0  0  0  0  0
  -27.3926  -35.1981   23.6865 C   0  0  0  0  0  0  0  0  0  0  0  0
  -25.7723  -29.7378   20.2611 C   0  0  0  0  0  0  0  0  0  0  0  0
  -27.3433  -33.7977   23.5491 C   0  0  0  0  0  0  0  0  0  0  0  0
  -25.2469  -28.5932   20.8776 C   0  0  0  0  0  0  0  0  0  0  0  0
  -30.3859  -18.2835   18.7235 C   0  0  0  0  0  0  0  0  0  0  0  0
  -29.2523  -20.8030   19.1102 C   0  0  0  0  0  0  0  0  0  0  0  0
  -21.5590  -11.1849   23.6615 C   0  0  0  0  0  0  0  0  0  0  0  0
  -27.2072  -27.3344   20.1828 C   0  0  0  0  0  0  0  0  0  0  0  0
  -20.7311   -9.4101   24.9603 C   0  0  0  0  0  0  0  0  0  0  0  0
  -20.9194   -6.7479   25.7728 C   0  0  0  0  0  0  0  0  0  0  0  0
  -19.6692   -8.5347   24.7328 C   0  0  0  0  0  0  0  0  0  0  0  0
  -24.4173  -12.5954   20.8796 C   0  0  0  0  0  0  0  0  0  0  0  0
  -25.4172  -13.5664   19.1790 C   0  0  0  0  0  0  0  0  0  0  0  0
  -27.9046  -23.8748   19.4849 C   0  0  0  0  0  0  0  0  0  0  0  0
  -27.5033  -22.5809   18.9316 C   0  0  0  0  0  0  0  0  0  0  0  0
  -27.3108  -25.0788   19.5728 C   0  0  0  0  0  0  0  0  0  1  0  0
  -22.9395  -13.8941   19.2230 C   0  0  0  0  0  0  0  0  0  0  0  0
  -24.6605  -31.3896   22.7389 C   0  0  0  0  0  0  0  0  0  0  0  0
  -21.8456  -30.0179   21.8921 C   0  0  0  0  0  0  0  0  0  0  0  0
  -20.2277  -27.4503   20.3312 C   0  0  0  0  0  0  0  0  0  0  0  0
  -30.8482  -14.7490   19.6800 C   0  0  0  0  0  0  0  0  0  0  0  0
  -26.2613  -35.9740   24.3134 C   0  0  0  0  0  0  0  0  0  0  0  0
  -25.0000  -31.0286   20.2669 C   0  0  0  0  0  0  0  0  0  0  0  0
  -23.9205  -28.6146   21.5907 C   0  0  0  0  0  0  0  0  0  0  0  0
  -29.2264  -23.2620   19.8873 C   0  0  0  0  0  0  0  0  0  0  0  0
  -24.9466  -35.1998   24.3645 C   0  0  0  0  0  0  0  0  0  0  0  0
  -29.8550  -11.3725   20.2180 C   0  0  0  0  0  0  0  0  0  0  0  0
  -25.1810  -33.7832   24.8794 C   0  0  0  0  0  0  0  0  0  0  0  0
  -28.3333  -11.4554   20.3499 C   0  0  0  0  0  0  0  0  0  0  0  0
  -30.5426  -12.5838   20.8440 C   0  0  0  0  0  0  0  0  0  0  0  0
  -28.5378  -13.9728   20.4900 C   0  0  0  0  0  0  0  0  0  0  0  0
  -26.1171  -33.0050   23.9469 C   0  0  1  0  0  0  0  0  0  0  0  0
  -24.0006  -31.1217   21.4158 C   0  0  1  0  0  0  0  0  0  0  0  0
  -27.7973  -12.8006   19.8239 C   0  0  2  0  0  0  0  0  0  0  0  0
  -31.1664  -16.5822   17.0329 C   0  0  0  0  0  0  0  0  0  0  0  0
  -17.9252  -26.5826   19.8381 C   0  0  0  0  0  0  0  0  0  0  0  0
  -21.6014  -29.0368   24.7710 C   0  0  0  0  0  0  0  0  0  0  0  0
  -19.8426  -27.4300   24.0007 C   0  0  0  0  0  0  0  0  0  0  0  0
  -19.4709  -29.8863   23.7741 C   0  0  0  0  0  0  0  0  0  0  0  0
  -20.6496  -27.6571   17.4092 C   0  0  0  0  0  0  0  0  0  0  0  0
  -30.9921  -16.9366   18.5169 C   0  0  2  0  0  0  0  0  0  0  0  0
  -21.1296  -28.7380   22.2502 C   0  0  1  0  0  0  0  0  0  0  0  0
  -19.0789  -27.4386   19.3389 C   0  0  2  0  0  0  0  0  0  0  0  0
  -20.5371  -28.7725   23.6873 C   0  0  0  0  0  0  0  0  0  0  0  0
  -25.7106  -12.3034   21.0408 N   0  0  0  0  0  0  0  0  0  0  0  0
  -26.2929  -12.9076   19.9911 N   0  0  0  0  0  0  0  0  0  0  0  0
  -28.6930  -22.0452   19.3009 N   0  0  0  0  0  0  0  0  0  0  0  0
  -23.2062  -29.9019   21.5742 N   0  0  0  0  0  0  0  0  0  0  0  0
  -29.9897  -13.8271   20.3014 N   0  0  0  0  0  0  0  0  0  0  0  0
  -25.8344  -14.2279   18.0786 N   0  0  0  0  0  0  0  0  0  0  0  0
  -21.7569  -13.6083   19.9188 N   0  0  0  0  0  0  0  0  0  0  0  0
  -25.4013  -32.5556   22.7722 N   0  0  0  0  0  0  0  0  0  0  0  0
  -20.1403  -28.5165   21.2012 N   0  0  0  0  0  0  0  0  0  0  0  0
  -30.2419  -15.8981   19.1875 N   0  0  0  0  0  0  0  0  0  0  0  0
  -19.5330  -26.8965   18.0271 N   0  3  0  0  0  0  0  0  0  0  0  0
  -26.5189  -22.1571   18.3624 O   0  0  0  0  0  0  0  0  0  0  0  0
  -22.8832  -14.5728   18.1695 O   0  0  0  0  0  0  0  0  0  0  0  0
  -24.5076  -30.5979   23.6616 O   0  0  0  0  0  0  0  0  0  0  0  0
  -21.2190  -31.0804   21.8876 O   0  0  0  0  0  0  0  0  0  0  0  0
  -21.1120  -26.5968   20.3365 O   0  0  0  0  0  0  0  0  0  0  0  0
  -32.0641  -14.5594   19.5673 O   0  0  0  0  0  0  0  0  0  0  0  0
  -20.6395  -10.7316   24.5568 O   0  0  0  0  0  0  0  0  0  0  0  0
  -27.9040  -26.1659   20.1507 O   0  0  0  0  0  0  0  0  0  1  0  0
  -21.0105   -5.4694   26.1616 F   0  0  0  0  0  0  0  0  0  0  0  0
  -18.5565   -8.9664   24.1234 F   0  0  0  0  0  0  0  0  0  0  0  0
  1  2  1  0  0  0  0
  1  5  2  0  0  0  0
  2  6  2  0  0  0  0
  3 12  2  0  0  0  0
  3 19  1  0  0  0  0
  4 13  1  0  0  0  0
  4 19  2  0  0  0  0
  5 21  1  0  0  0  0
  6 23  1  0  0  0  0
  7 14  2  0  0  0  0
  7 22  1  0  0  0  0
  8 10  2  0  0  0  0
  8 25  1  0  0  0  0
  9 11  1  0  0  0  0
  9 25  2  0  0  0  0
 10 26  1  0  0  0  0
 11 26  2  0  0  0  0
 12 27  1  0  0  0  0
 13 27  2  0  0  0  0
 14 28  1  0  0  0  0
 15 16  2  0  0  0  0
 15 29  1  0  0  0  0
 16 30  1  0  0  0  0
 17 24  1  0  0  0  0
 17 28  2  0  0  0  0
 18 30  2  0  0  0  0
 18 31  1  0  0  0  0
 19 32  1  0  0  0  0
 20 32  1  0  0  0  0
 20 33  2  0  0  0  0
 20 37  1  0  0  0  0
 21 23  2  0  0  0  0
 21 42  1  0  0  0  0
 22 24  2  0  0  0  0
 22 43  1  0  0  0  0
 23 52  1  0  0  0  0
 24 44  1  0  0  0  0
 25 61  1  0  0  0  0
 26 67  1  0  0  0  0
 27 82  1  0  0  0  0
 28 83  1  0  0  0  0
 29 31  2  0  0  0  0
 29 82  1  0  0  0  0
 30 84  1  0  0  0  0
 31 85  1  0  0  0  0
 32 65  2  0  0  0  0
 33 66  1  0  0  0  0
 33 70  1  0  0  0  0
 34 35  1  0  0  0  0
 34 36  2  0  0  0  0
 34 45  1  0  0  0  0
 35 67  1  0  0  0  0
 35 76  2  0  0  0  0
 36 83  1  0  0  0  0
 37 71  1  0  0  0  0
 37 77  2  0  0  0  0
 38 53  1  0  0  0  0
 38 72  1  0  0  0  0
 38 78  2  0  0  0  0
 39 62  1  0  0  0  0
 39 68  1  0  0  0  0
 39 79  2  0  0  0  0
 40 63  1  0  0  0  0
 40 73  1  0  0  0  0
 40 80  2  0  0  0  0
 41 69  1  0  0  0  0
 41 74  1  0  0  0  0
 41 81  2  0  0  0  0
 42 46  1  0  0  0  0
 43 53  1  0  0  0  0
 44 68  1  0  0  0  0
 45 67  1  0  0  0  0
 46 48  1  0  0  0  0
 47 49  1  0  0  0  0
 47 50  1  0  0  0  0
 48 52  1  0  0  0  0
 49 54  1  0  0  0  0
 50 69  1  0  0  0  0
 51 54  1  0  0  0  0
 51 69  1  0  0  0  0
 52 72  1  0  0  0  0
 53 68  1  0  0  0  0
 54 66  1  0  0  0  0
 55 61  1  0  0  0  0
 56 63  1  0  0  0  0
 57 64  1  0  0  0  0
 58 64  1  0  0  0  0
 59 64  1  0  0  0  0
 60 75  1  0  0  0  0
 61 74  1  0  0  0  0
 62 64  1  0  0  0  0
 62 73  1  0  0  0  0
 63 75  1  0  0  0  0
 65 66  1  0  0  0  0
M  CHG  1  75   1
M  ISO  4  36 101  41 100  74 100  83 101
M  END
> <Batch ID>
0072

> <Smiles>
CNC(C)C(=O)NC(C(=O)N1Cc2cc([101O:1][101CH:1]=C3CN(c4ccc(C(C)[100NH:0][100C:0](=O)N5CCCC(n6nc(-c7ccc(Oc8ccc(F)cc8F)cc7)c(C(N)=O)c6N)C5)cc4)C3=O)ccc2CC1C(=O)NC1CCCc2ccccc21)C(C)(C)C

> <Shape>
0.301

> <Color>
0.094

> <Negative vol penalty>
0.000

$$$$

  -OEChem-04042323383D

 86 95  0     1  0  0  0  0  0999 V2000
  -25.8408  -35.4490   23.0156 C   0  0  0  0  0  0  0  0  0  0  0  0
  -26.4232  -34.2026   22.8094 C   0  0  0  0  0  0  0  0  0  0  0  0
  -24.4222  -12.5475   21.3560 C   0  0  0  0  0  0  0  0  0  0  0  0
  -25.9454  -12.5733   19.4809 C   0  0  0  0  0  0  0  0  0  0  0  0
  -24.5441  -35.5364   23.5204 C   0  0  0  0  0  0  0  0  0  0  0  0
  -25.7097  -33.0426   23.1091 C   0  0  0  0  0  0  0  0  0  0  0  0
  -26.1021  -29.5290   19.4834 C   0  0  0  0  0  0  0  0  0  0  0  0
  -23.8280  -11.3883   20.8574 C   0  0  0  0  0  0  0  0  0  0  0  0
  -25.3512  -11.4140   18.9823 C   0  0  0  0  0  0  0  0  0  0  0  0
  -27.2804  -28.7850   19.4427 C   0  0  0  0  0  0  0  0  0  0  0  0
  -24.5041   -8.0761   20.7839 C   0  0  0  0  0  0  0  0  0  0  0  0
  -24.2459   -7.0417   21.6833 C   0  0  0  0  0  0  0  0  0  0  0  0
  -26.1643  -26.9670   20.5690 C   0  0  0  0  0  0  0  0  0  0  0  0
  -30.4780  -21.5689   16.2816 C   0  0  0  0  0  0  0  0  0  0  0  0
  -28.5354  -21.8005   17.6991 C   0  0  0  0  0  0  0  0  0  0  0  0
  -28.9898  -19.6937   16.6075 C   0  0  0  0  0  0  0  0  0  0  0  0
  -21.8895   -7.1824   21.1687 C   0  0  0  0  0  0  0  0  0  0  0  0
  -25.4809  -13.1401   20.6677 C   0  0  0  0  0  0  0  0  0  0  0  0
  -27.1852  -14.4210   22.0685 C   0  0  0  0  0  0  0  0  0  0  0  0
  -23.8107  -34.3768   23.8174 C   0  0  0  0  0  0  0  0  0  0  0  0
  -24.9470  -29.0010   20.0780 C   0  0  0  0  0  0  0  0  0  0  0  0
  -24.4024  -33.1146   23.6197 C   0  0  0  0  0  0  0  0  0  0  0  0
  -24.9718  -27.7054   20.6137 C   0  0  0  0  0  0  0  0  0  0  0  0
  -29.6789  -22.3483   17.1179 C   0  0  0  0  0  0  0  0  0  0  0  0
  -30.1334  -20.2415   16.0263 C   0  0  0  0  0  0  0  0  0  0  0  0
  -28.1908  -20.4732   17.4439 C   0  0  0  0  0  0  0  0  0  0  0  0
  -24.2925  -10.8215   19.6706 C   0  0  0  0  0  0  0  0  0  0  0  0
  -27.3124  -27.5049   19.9881 C   0  0  0  0  0  0  0  0  0  0  0  0
  -23.4550   -8.6638   20.0770 C   0  0  0  0  0  0  0  0  0  0  0  0
  -22.9386   -6.5948   21.8757 C   0  0  0  0  0  0  0  0  0  0  0  0
  -22.1477   -8.2169   20.2693 C   0  0  0  0  0  0  0  0  0  0  0  0
  -26.0948  -14.3379   21.1819 C   0  0  0  0  0  0  0  0  0  0  0  0
  -27.3817  -15.7688   22.2456 C   0  0  0  0  0  0  0  0  0  0  0  0
  -31.1494  -24.3986   16.8724 C   0  0  0  0  0  0  0  0  0  0  0  0
  -27.9518  -13.3736   22.6775 C   0  0  0  0  0  0  0  0  0  0  0  0
  -23.1226  -29.8176   22.5495 C   0  0  0  0  0  0  0  0  0  0  0  0
  -21.2595  -27.3882   21.4776 C   0  0  0  0  0  0  0  0  0  0  0  0
  -21.0284  -24.4739   19.7168 C   0  0  0  0  0  0  0  0  0  0  0  0
  -26.1298  -20.5522   18.8905 C   0  0  0  0  0  0  0  0  0  0  0  0
  -22.4297  -34.5221   24.4057 C   0  0  0  0  0  0  0  0  0  0  0  0
  -23.6765  -29.8061   20.0900 C   0  0  0  0  0  0  0  0  0  0  0  0
  -23.7534  -27.0850   21.2452 C   0  0  0  0  0  0  0  0  0  0  0  0
  -21.6037  -33.2398   24.3450 C   0  0  0  0  0  0  0  0  0  0  0  0
  -25.0179  -19.9337   22.2159 C   0  0  0  0  0  0  0  0  0  0  0  0
  -22.4324  -32.0482   24.8144 C   0  0  0  0  0  0  0  0  0  0  0  0
  -25.2728  -18.4373   22.4109 C   0  0  0  0  0  0  0  0  0  0  0  0
  -24.5603  -20.2503   20.7932 C   0  0  0  0  0  0  0  0  0  0  0  0
  -29.2000  -24.5754   18.1927 C   0  0  0  0  0  0  0  0  0  0  0  0
  -25.6888  -18.2395   19.9260 C   0  0  0  0  0  0  0  0  0  0  0  0
  -23.6514  -31.8331   23.9093 C   0  0  1  0  0  0  0  0  0  0  0  0
  -31.0226  -25.8451   17.3277 C   0  0  1  0  0  0  0  0  0  0  0  0
  -22.7019  -29.3681   21.1789 C   0  0  1  0  0  0  0  0  0  0  0  0
  -30.1147  -25.7379   18.5538 C   0  0  1  0  0  0  0  0  0  0  0  0
  -26.2142  -17.8798   21.3254 C   0  0  2  0  0  0  0  0  0  0  0  0
  -32.3696  -26.4814   17.6255 C   0  0  0  0  0  0  0  0  0  0  0  0
  -19.3828  -22.7008   19.0494 C   0  0  0  0  0  0  0  0  0  0  0  0
  -21.3806  -26.2193   24.2934 C   0  0  0  0  0  0  0  0  0  0  0  0
  -20.5628  -24.0483   23.3522 C   0  0  0  0  0  0  0  0  0  0  0  0
  -19.1330  -26.0871   23.2048 C   0  0  0  0  0  0  0  0  0  0  0  0
  -21.4161  -25.0345   16.8368 C   0  0  0  0  0  0  0  0  0  0  0  0
  -29.3453  -27.0145   18.8555 C   0  0  0  0  0  0  0  0  0  1  0  0
  -21.1844  -25.9032   21.7385 C   0  0  1  0  0  0  0  0  0  0  0  0
  -20.0443  -24.0127   18.6569 C   0  0  2  0  0  0  0  0  0  0  0  0
  -20.5889  -25.5766   23.1371 C   0  0  0  0  0  0  0  0  0  0  0  0
  -25.6311  -15.5373   20.8210 N   0  0  0  0  0  0  0  0  0  0  0  0
  -26.4339  -16.3869   21.4842 N   0  0  0  0  0  0  0  0  0  0  0  0
  -30.0316  -23.7063   17.3807 N   0  0  0  0  0  0  0  0  0  0  0  0
  -22.5369  -27.9143   21.2383 N   0  0  0  0  0  0  0  0  0  0  0  0
  -25.5025  -19.6950   19.8192 N   0  0  0  0  0  0  0  0  0  0  0  0
  -30.9409  -19.4528   15.1807 N   0  0  0  0  0  0  0  0  0  0  0  0
  -28.2711  -16.4736   22.9768 N   0  0  0  0  0  0  0  0  0  0  0  0
  -27.6158  -12.0443   22.3873 N   0  0  0  0  0  0  0  0  0  0  0  0
  -27.0299  -19.9166   18.0358 N   0  0  0  0  0  0  0  0  0  0  0  0
  -23.2572  -31.1871   22.6757 N   0  0  0  0  0  0  0  0  0  0  0  0
  -20.4391  -25.3299   20.6230 N   0  0  0  0  0  0  0  0  0  0  0  0
  -20.7405  -23.8167   17.3539 N   0  3  0  0  0  0  0  0  0  0  0  0
  -32.0505  -24.0023   16.1473 O   0  0  0  0  0  0  0  0  0  0  0  0
  -28.8961  -13.6094   23.4689 O   0  0  0  0  0  0  0  0  0  0  0  0
  -23.3098  -28.9839   23.4279 O   0  0  0  0  0  0  0  0  0  0  0  0
  -20.2221  -28.0556   21.4787 O   0  0  0  0  0  0  0  0  0  0  0  0
  -22.2015  -24.1082   19.7407 O   0  0  0  0  0  0  0  0  0  0  0  0
  -25.9069  -21.7655   18.8738 O   0  0  0  0  0  0  0  0  0  0  0  0
  -23.7130   -9.6902   19.1839 O   0  0  0  0  0  0  0  0  0  0  0  0
  -28.4614  -26.7767   19.9503 O   0  0  0  0  0  0  0  0  0  1  0  0
  -22.6911   -5.6004   22.7382 F   0  0  0  0  0  0  0  0  0  0  0  0
  -21.1359   -8.7767   19.5921 F   0  0  0  0  0  0  0  0  0  0  0  0
  1  2  1  0  0  0  0
  1  5  2  0  0  0  0
  2  6  2  0  0  0  0
  3  8  2  0  0  0  0
  3 18  1  0  0  0  0
  4  9  1  0  0  0  0
  4 18  2  0  0  0  0
  5 20  1  0  0  0  0
  6 22  1  0  0  0  0
  7 10  2  0  0  0  0
  7 21  1  0  0  0  0
  8 27  1  0  0  0  0
  9 27  2  0  0  0  0
 10 28  1  0  0  0  0
 11 12  2  0  0  0  0
 11 29  1  0  0  0  0
 12 30  1  0  0  0  0
 13 23  1  0  0  0  0
 13 28  2  0  0  0  0
 14 24  1  0  0  0  0
 14 25  2  0  0  0  0
 15 24  2  0  0  0  0
 15 26  1  0  0  0  0
 16 25  1  0  0  0  0
 16 26  2  0  0  0  0
 17 30  2  0  0  0  0
 17 31  1  0  0  0  0
 18 32  1  0  0  0  0
 19 32  1  0  0  0  0
 19 33  2  0  0  0  0
 19 35  1  0  0  0  0
 20 22  2  0  0  0  0
 20 40  1  0  0  0  0
 21 23  2  0  0  0  0
 21 41  1  0  0  0  0
 22 50  1  0  0  0  0
 23 42  1  0  0  0  0
 24 67  1  0  0  0  0
 25 70  1  0  0  0  0
 26 73  1  0  0  0  0
 27 83  1  0  0  0  0
 28 84  1  0  0  0  0
 29 31  2  0  0  0  0
 29 83  1  0  0  0  0
 30 85  1  0  0  0  0
 31 86  1  0  0  0  0
 32 65  2  0  0  0  0
 33 66  1  0  0  0  0
 33 71  1  0  0  0  0
 34 51  1  0  0  0  0
 34 67  1  0  0  0  0
 34 77  2  0  0  0  0
 35 72  1  0  0  0  0
 35 78  2  0  0  0  0
 36 52  1  0  0  0  0
 36 74  1  0  0  0  0
 36 79  2  0  0  0  0
 37 62  1  0  0  0  0
 37 68  1  0  0  0  0
 37 80  2  0  0  0  0
 38 63  1  0  0  0  0
 38 75  1  0  0  0  0
 38 81  2  0  0  0  0
 39 69  1  0  0  0  0
 39 73  1  0  0  0  0
 39 82  2  0  0  0  0
 40 43  1  0  0  0  0
 41 52  1  0  0  0  0
 42 68  1  0  0  0  0
 43 45  1  0  0  0  0
 44 46  1  0  0  0  0
 44 47  1  0  0  0  0
 45 50  1  0  0  0  0
 46 54  1  0  0  0  0
 47 69  1  0  0  0  0
 48 53  1  0  0  0  0
 48 67  1  0  0  0  0
 49 54  1  0  0  0  0
 49 69  1  0  0  0  0
 50 74  1  0  0  0  0
 51 53  1  0  0  0  0
 51 55  1  0  0  0  0
 52 68  1  0  0  0  0
 53 61  1  0  0  0  0
 54 66  1  0  0  0  0
 56 63  1  0  0  0  0
 57 64  1  0  0  0  0
 58 64  1  0  0  0  0
 59 64  1  0  0  0  0
 60 76  1  0  0  0  0
 61 84  1  0  0  0  0
 62 64  1  0  0  0  0
 62 75  1  0  0  0  0
 63 76  1  0  0  0  0
 65 66  1  0  0  0  0
M  CHG  1  76   1
M  ISO  4  39 100  61 101  73 100  84 101
M  END
> <Batch ID>
0072

> <Smiles>
CNC(C)C(=O)NC(C(=O)N1Cc2cc([101O:1][101CH2:1]C3CN(c4cc(N)cc([100NH:0][100C:0](=O)N5CCCC(n6nc(-c7ccc(Oc8ccc(F)cc8F)cc7)c(C(N)=O)c6N)C5)c4)C(=O)C3C)ccc2CC1C(=O)NC1CCCc2ccccc21)C(C)(C)C

> <Shape>
0.249

> <Color>
0.078

> <Negative vol penalty>
0.000

$$$$

  -OEChem-04042323383D

 86 95  0     1  0  0  0  0  0999 V2000
  -27.4776  -33.4112   26.4179 C   0  0  0  0  0  0  0  0  0  0  0  0
  -27.7460  -32.2614   25.6821 C   0  0  0  0  0  0  0  0  0  0  0  0
  -30.2366  -19.3620   16.1264 C   0  0  0  0  0  0  0  0  0  0  0  0
  -22.1931  -12.8030   22.7807 C   0  0  0  0  0  0  0  0  0  0  0  0
  -22.1729  -14.9193   21.6152 C   0  0  0  0  0  0  0  0  0  0  0  0
  -26.1662  -33.7148   26.7810 C   0  0  0  0  0  0  0  0  0  0  0  0
  -26.7031  -31.4139   25.3099 C   0  0  0  0  0  0  0  0  0  0  0  0
  -27.0391  -29.9243   20.4815 C   0  0  0  0  0  0  0  0  0  0  0  0
  -29.6353  -18.3874   16.9226 C   0  0  0  0  0  0  0  0  0  0  0  0
  -30.1492  -20.7072   16.4852 C   0  0  0  0  0  0  0  0  0  0  0  0
  -20.9726  -13.1197   23.3769 C   0  0  0  0  0  0  0  0  0  0  0  0
  -20.9524  -15.2360   22.2115 C   0  0  0  0  0  0  0  0  0  0  0  0
  -27.9545  -28.9143   20.1890 C   0  0  0  0  0  0  0  0  0  0  0  0
  -17.7040  -13.1234   22.5113 C   0  0  0  0  0  0  0  0  0  0  0  0
  -16.7206  -12.1346   22.5401 C   0  0  0  0  0  0  0  0  0  0  0  0
  -26.1612  -27.3010   20.1755 C   0  0  0  0  0  0  0  0  0  0  0  0
  -28.8590  -20.1029   18.4364 C   0  0  0  0  0  0  0  0  0  0  0  0
  -16.6998  -12.2256   24.9543 C   0  0  0  0  0  0  0  0  0  0  0  0
  -22.7933  -13.7028   21.8998 C   0  0  0  0  0  0  0  0  0  0  0  0
  -24.3334  -12.2786   20.4482 C   0  0  0  0  0  0  0  0  0  0  0  0
  -25.1055  -32.8756   26.4048 C   0  0  0  0  0  0  0  0  0  0  0  0
  -25.6770  -29.6280   20.6342 C   0  0  0  0  0  0  0  0  0  0  0  0
  -25.3763  -31.7059   25.6695 C   0  0  0  0  0  0  0  0  0  0  0  0
  -25.2301  -28.3094   20.4674 C   0  0  0  0  0  0  0  0  0  0  0  0
  -28.9464  -18.7578   18.0776 C   0  0  0  0  0  0  0  0  0  0  0  0
  -29.4604  -21.0776   17.6401 C   0  0  0  0  0  0  0  0  0  0  0  0
  -20.3522  -14.3362   23.0923 C   0  0  0  0  0  0  0  0  0  0  0  0
  -27.5161  -27.6020   20.0388 C   0  0  0  0  0  0  0  0  0  0  0  0
  -18.1853  -13.6633   23.7041 C   0  0  0  0  0  0  0  0  0  0  0  0
  -16.2185  -11.6857   23.7616 C   0  0  0  0  0  0  0  0  0  0  0  0
  -17.6832  -13.2144   24.9255 C   0  0  0  0  0  0  0  0  0  0  0  0
  -24.0544  -13.3765   21.2840 C   0  0  0  0  0  0  0  0  0  0  0  0
  -25.6620  -12.4187   20.1293 C   0  0  0  0  0  0  0  0  0  0  0  0
  -29.9096  -23.5443   17.3325 C   0  0  0  0  0  0  0  0  0  0  0  0
  -23.4689  -11.2262   20.0001 C   0  0  0  0  0  0  0  0  0  0  0  0
  -23.5816  -29.8698   23.0122 C   0  0  0  0  0  0  0  0  0  0  0  0
  -21.4697  -28.9586   20.7250 C   0  0  0  0  0  0  0  0  0  0  0  0
  -29.2673  -17.2241   19.9792 C   0  0  0  0  0  0  0  0  0  0  0  0
  -20.9233  -27.3763   17.7510 C   0  0  0  0  0  0  0  0  0  0  0  0
  -23.7100  -33.2206   26.8610 C   0  0  0  0  0  0  0  0  0  0  0  0
  -24.6984  -30.7331   20.9233 C   0  0  0  0  0  0  0  0  0  0  0  0
  -23.7755  -27.9422   20.6012 C   0  0  0  0  0  0  0  0  0  0  0  0
  -22.6185  -32.4664   26.1061 C   0  0  0  0  0  0  0  0  0  0  0  0
  -29.7608  -14.1922   21.8242 C   0  0  0  0  0  0  0  0  0  0  0  0
  -22.9655  -30.9844   26.0056 C   0  0  0  0  0  0  0  0  0  0  0  0
  -28.3727  -13.5535   21.8433 C   0  0  0  0  0  0  0  0  0  0  0  0
  -29.6764  -15.7137   21.8938 C   0  0  0  0  0  0  0  0  0  0  0  0
  -27.4350  -15.6871   20.8464 C   0  0  0  0  0  0  0  0  0  0  0  0
  -28.5904  -22.9084   19.1237 C   0  0  0  0  0  0  0  0  0  0  0  0
  -24.2691  -30.7747   25.2257 C   0  0  1  0  0  0  0  0  0  0  0  0
  -23.4072  -30.2351   21.5652 C   0  0  1  0  0  0  0  0  0  0  0  0
  -27.4738  -14.1519   20.7467 C   0  0  2  0  0  0  0  0  0  0  0  0
  -29.0291  -24.3468   19.2845 C   0  0  2  0  0  0  0  0  0  0  0  0
  -19.0869  -26.7605   16.1555 C   0  0  0  0  0  0  0  0  0  0  0  0
  -20.5871  -26.7247   22.6067 C   0  0  0  0  0  0  0  0  0  0  0  0
  -19.4865  -25.6094   20.6540 C   0  0  0  0  0  0  0  0  0  0  0  0
  -18.7209  -27.8653   21.3939 C   0  0  0  0  0  0  0  0  0  0  0  0
  -22.1376  -28.9553   15.5622 C   0  0  0  0  0  0  0  0  0  0  0  0
  -27.8892  -25.2920   19.6134 C   0  0  0  0  0  0  0  0  0  1  0  0
  -20.9473  -27.6360   20.2180 C   0  0  1  0  0  0  0  0  0  0  0  0
  -20.1437  -27.7927   16.5168 C   0  0  2  0  0  0  0  0  0  0  0  0
  -28.3037  -17.7154   18.9285 C   0  0  0  0  0  0  0  0  0  0  0  0
  -19.9632  -26.9651   21.2175 C   0  0  0  0  0  0  0  0  0  0  0  0
  -25.1201  -14.1564   21.4837 N   0  0  0  0  0  0  0  0  0  0  0  0
  -26.0818  -13.5478   20.7689 N   0  0  0  0  0  0  0  0  0  0  0  0
  -29.3719  -22.4514   18.0066 N   0  0  0  0  0  0  0  0  0  0  0  0
  -22.8584  -29.0569   20.8906 N   0  0  0  0  0  0  0  0  0  0  0  0
  -28.7959  -16.2416   20.8502 N   0  0  0  0  0  0  0  0  0  0  0  0
  -26.5005  -11.6849   19.3671 N   0  0  0  0  0  0  0  0  0  0  0  0
  -22.7587  -11.4080   18.8056 N   0  0  0  0  0  0  0  0  0  0  0  0
  -24.0344  -30.9080   23.8039 N   0  0  0  0  0  0  0  0  0  0  0  0
  -20.3749  -27.9004   18.9024 N   0  0  0  0  0  0  0  0  0  0  0  0
  -21.0617  -27.9524   15.3537 N   0  3  0  0  0  0  0  0  0  0  0  0
  -30.5454  -23.5767   16.2883 O   0  0  0  0  0  0  0  0  0  0  0  0
  -23.3178  -10.1630   20.6484 O   0  0  0  0  0  0  0  0  0  0  0  0
  -23.3231  -28.7309   23.3833 O   0  0  0  0  0  0  0  0  0  0  0  0
  -20.6754  -29.8731   20.9584 O   0  0  0  0  0  0  0  0  0  0  0  0
  -30.4055  -17.6984   20.0212 O   0  0  0  0  0  0  0  0  0  0  0  0
  -21.9170  -26.6549   17.6992 O   0  0  0  0  0  0  0  0  0  0  0  0
  -29.5951  -24.6974   18.0142 O   0  0  0  0  0  0  0  0  0  0  0  0
  -19.1610  -14.6455   23.6738 O   0  0  0  0  0  0  0  0  0  0  0  0
  -28.4076  -26.6141   19.7540 O   0  0  0  0  0  0  0  0  0  1  0  0
  -15.2731  -10.7372   23.7890 F   0  0  0  0  0  0  0  0  0  0  0  0
  -18.1408  -13.7301   26.0746 F   0  0  0  0  0  0  0  0  0  0  0  0
  -27.1708  -18.1710   19.5559 F   0  0  0  0  0  0  0  0  0  0  0  0
  -27.8660  -16.6365   18.2010 F   0  0  0  0  0  0  0  0  0  0  0  0
  1  2  1  0  0  0  0
  1  6  2  0  0  0  0
  2  7  2  0  0  0  0
  3  9  1  0  0  0  0
  3 10  2  0  0  0  0
  4 11  2  0  0  0  0
  4 19  1  0  0  0  0
  5 12  1  0  0  0  0
  5 19  2  0  0  0  0
  6 21  1  0  0  0  0
  7 23  1  0  0  0  0
  8 13  2  0  0  0  0
  8 22  1  0  0  0  0
  9 25  2  0  0  0  0
 10 26  1  0  0  0  0
 11 27  1  0  0  0  0
 12 27  2  0  0  0  0
 13 28  1  0  0  0  0
 14 15  2  0  0  0  0
 14 29  1  0  0  0  0
 15 30  1  0  0  0  0
 16 24  1  0  0  0  0
 16 28  2  0  0  0  0
 17 25  1  0  0  0  0
 17 26  2  0  0  0  0
 18 30  2  0  0  0  0
 18 31  1  0  0  0  0
 19 32  1  0  0  0  0
 20 32  1  0  0  0  0
 20 33  2  0  0  0  0
 20 35  1  0  0  0  0
 21 23  2  0  0  0  0
 21 40  1  0  0  0  0
 22 24  2  0  0  0  0
 22 41  1  0  0  0  0
 23 50  1  0  0  0  0
 24 42  1  0  0  0  0
 25 62  1  0  0  0  0
 26 66  1  0  0  0  0
 27 81  1  0  0  0  0
 28 82  1  0  0  0  0
 29 31  2  0  0  0  0
 29 81  1  0  0  0  0
 30 83  1  0  0  0  0
 31 84  1  0  0  0  0
 32 64  2  0  0  0  0
 33 65  1  0  0  0  0
 33 69  1  0  0  0  0
 34 66  1  0  0  0  0
 34 74  2  0  0  0  0
 34 80  1  0  0  0  0
 35 70  1  0  0  0  0
 35 75  2  0  0  0  0
 36 51  1  0  0  0  0
 36 71  1  0  0  0  0
 36 76  2  0  0  0  0
 37 60  1  0  0  0  0
 37 67  1  0  0  0  0
 37 77  2  0  0  0  0
 38 62  1  0  0  0  0
 38 68  1  0  0  0  0
 38 78  2  0  0  0  0
 39 61  1  0  0  0  0
 39 72  1  0  0  0  0
 39 79  2  0  0  0  0
 40 43  1  0  0  0  0
 41 51  1  0  0  0  0
 42 67  1  0  0  0  0
 43 45  1  0  0  0  0
 44 46  1  0  0  0  0
 44 47  1  0  0  0  0
 45 50  1  0  0  0  0
 46 52  1  0  0  0  0
 47 68  1  0  0  0  0
 48 52  1  0  0  0  0
 48 68  1  0  0  0  0
 49 53  1  0  0  0  0
 49 66  1  0  0  0  0
 50 71  1  0  0  0  0
 51 67  1  0  0  0  0
 52 65  1  0  0  0  0
 53 59  1  0  0  0  0
 53 80  1  0  0  0  0
 54 61  1  0  0  0  0
 55 63  1  0  0  0  0
 56 63  1  0  0  0  0
 57 63  1  0  0  0  0
 58 73  1  0  0  0  0
 59 82  1  0  0  0  0
 60 63  1  0  0  0  0
 60 72  1  0  0  0  0
 61 73  1  0  0  0  0
 62 85  1  0  0  0  0
 62 86  1  0  0  0  0
 64 65  1  0  0  0  0
M  CHG  1  73   1
M  ISO  4  38 100  59 101  62 100  82 101
M  END
> <Batch ID>
0072

> <Smiles>
CNC(C)C(=O)NC(C(=O)N1Cc2cc([101O:1][101CH2:1]C3CN(c4cccc([100C:0](F)(F)[100C:0](=O)N5CCCC(n6nc(-c7ccc(Oc8ccc(F)cc8F)cc7)c(C(N)=O)c6N)C5)c4)C(=O)O3)ccc2CC1C(=O)NC1CCCc2ccccc21)C(C)(C)C

> <Shape>
0.299

> <Color>
0.098

> <Negative vol penalty>
0.000

$$$$

  -OEChem-04042323383D

 85 93  0     1  0  0  0  0  0999 V2000
  -28.6289  -37.4767   21.7947 C   0  0  0  0  0  0  0  0  0  0  0  0
  -28.9880  -36.1924   21.3985 C   0  0  0  0  0  0  0  0  0  0  0  0
  -24.5473   -8.5359   21.4152 C   0  0  0  0  0  0  0  0  0  0  0  0
  -23.1584  -10.3455   20.6193 C   0  0  0  0  0  0  0  0  0  0  0  0
  -27.9948  -19.4294   19.3822 C   0  0  0  0  0  0  0  0  0  0  0  0
  -25.9039  -18.7829   18.3589 C   0  0  0  0  0  0  0  0  0  0  0  0
  -27.6471  -37.6556   22.7683 C   0  0  0  0  0  0  0  0  0  0  0  0
  -28.3663  -35.0862   21.9765 C   0  0  0  0  0  0  0  0  0  0  0  0
  -27.0153  -29.7758   19.2414 C   0  0  0  0  0  0  0  0  0  0  0  0
  -28.4350  -18.1074   19.3182 C   0  0  0  0  0  0  0  0  0  0  0  0
  -26.3441  -17.4608   18.2948 C   0  0  0  0  0  0  0  0  0  0  0  0
  -23.5678   -8.1942   22.3476 C   0  0  0  0  0  0  0  0  0  0  0  0
  -22.1789  -10.0038   21.5517 C   0  0  0  0  0  0  0  0  0  0  0  0
  -27.6588  -28.5392   19.2242 C   0  0  0  0  0  0  0  0  0  0  0  0
  -21.2800   -6.6211   24.6942 C   0  0  0  0  0  0  0  0  0  0  0  0
  -20.9610   -5.2705   24.8342 C   0  0  0  0  0  0  0  0  0  0  0  0
  -26.2263  -27.7757   21.0087 C   0  0  0  0  0  0  0  0  0  0  0  0
  -20.3009   -5.1857   22.5117 C   0  0  0  0  0  0  0  0  0  0  0  0
  -24.3426   -9.6116   20.5511 C   0  0  0  0  0  0  0  0  0  0  0  0
  -26.7293  -19.7671   18.9027 C   0  0  0  0  0  0  0  0  0  0  0  0
  -25.4804   -9.4834   18.2715 C   0  0  0  0  0  0  0  0  0  0  0  0
  -27.0061  -36.5513   23.3516 C   0  0  0  0  0  0  0  0  0  0  0  0
  -25.9779  -30.0258   20.1513 C   0  0  0  0  0  0  0  0  0  0  0  0
  -27.3759  -35.2504   22.9598 C   0  0  0  0  0  0  0  0  0  0  0  0
  -25.5695  -29.0155   21.0336 C   0  0  0  0  0  0  0  0  0  0  0  0
  -27.6096  -17.1231   18.7745 C   0  0  0  0  0  0  0  0  0  0  0  0
  -22.3836   -8.9281   22.4158 C   0  0  0  0  0  0  0  0  0  0  0  0
  -27.2663  -27.5399   20.1099 C   0  0  0  0  0  0  0  0  0  0  0  0
  -21.1095   -7.2541   23.4630 C   0  0  0  0  0  0  0  0  0  0  0  0
  -20.4715   -4.5528   23.7429 C   0  0  0  0  0  0  0  0  0  0  0  0
  -20.6199   -6.5364   22.3717 C   0  0  0  0  0  0  0  0  0  0  0  0
  -25.3544   -9.9655   19.5881 C   0  0  0  0  0  0  0  0  0  0  0  0
  -26.5923  -10.1206   17.7775 C   0  0  0  0  0  0  0  0  0  0  0  0
  -26.2561  -21.1878   18.9717 C   0  0  0  0  0  0  0  0  0  0  0  0
  -24.6652   -8.5436   17.5587 C   0  0  0  0  0  0  0  0  0  0  0  0
  -25.5358  -32.0737   22.5417 C   0  0  0  0  0  0  0  0  0  0  0  0
  -22.5529  -30.7992   22.5656 C   0  0  0  0  0  0  0  0  0  0  0  0
  -20.5230  -28.1620   21.8097 C   0  0  0  0  0  0  0  0  0  0  0  0
  -29.2850  -15.2777   19.1410 C   0  0  0  0  0  0  0  0  0  0  0  0
  -25.9843  -36.7933   24.4342 C   0  0  0  0  0  0  0  0  0  0  0  0
  -25.2759  -31.3560   20.1389 C   0  0  0  0  0  0  0  0  0  0  0  0
  -24.4477  -29.2265   22.0162 C   0  0  0  0  0  0  0  0  0  0  0  0
  -25.1083  -35.5781   24.7276 C   0  0  0  0  0  0  0  0  0  0  0  0
  -30.7496  -12.0328   19.1899 C   0  0  0  0  0  0  0  0  0  0  0  0
  -25.9636  -34.3214   24.8540 C   0  0  0  0  0  0  0  0  0  0  0  0
  -29.5439  -11.0905   19.1716 C   0  0  0  0  0  0  0  0  0  0  0  0
  -30.4786  -13.2845   20.0227 C   0  0  0  0  0  0  0  0  0  0  0  0
  -28.0534  -13.0762   19.6431 C   0  0  0  0  0  0  0  0  0  0  0  0
  -26.7068  -34.0260   23.5456 C   0  0  1  0  0  0  0  0  0  0  0  0
  -24.5761  -31.6745   21.4566 C   0  0  1  0  0  0  0  0  0  0  0  0
  -28.2556  -11.8316   18.7634 C   0  0  2  0  0  0  0  0  0  0  0  0
  -18.1389  -27.3981   21.9834 C   0  0  0  0  0  0  0  0  0  0  0  0
  -22.9514  -30.2394   25.5384 C   0  0  0  0  0  0  0  0  0  0  0  0
  -21.0041  -28.6694   25.4325 C   0  0  0  0  0  0  0  0  0  0  0  0
  -20.6796  -31.0917   24.9327 C   0  0  0  0  0  0  0  0  0  0  0  0
  -20.2588  -27.9383   18.8705 C   0  0  0  0  0  0  0  0  0  0  0  0
  -28.4242  -25.8906   18.8469 C   0  0  0  0  0  0  0  0  0  1  0  0
  -28.4467  -24.3757   18.8161 C   0  0  0  0  0  0  0  0  0  0  0  0
  -21.8940  -29.6333   23.2623 C   0  0  1  0  0  0  0  0  0  0  0  0
  -19.1748  -28.0953   21.1152 C   0  0  2  0  0  0  0  0  0  0  0  0
  -21.6547  -29.9048   24.7744 C   0  0  0  0  0  0  0  0  0  0  0  0
  -26.3100  -10.8412   19.9102 N   0  0  0  0  0  0  0  0  0  0  0  0
  -27.1788  -22.1058   18.8981 N   0  0  0  0  0  0  0  0  0  0  0  0
  -27.0472  -10.9145   18.7890 N   0  0  0  0  0  0  0  0  0  0  0  0
  -23.7966  -30.5462   21.9698 N   0  0  0  0  0  0  0  0  0  0  0  0
  -29.2453  -13.9363   19.5766 N   0  0  0  0  0  0  0  0  0  0  0  0
  -27.2157  -10.0737   16.5810 N   0  0  0  0  0  0  0  0  0  0  0  0
  -24.9011  -21.4050   19.1099 N   0  0  0  0  0  0  0  0  0  0  0  0
  -23.5609   -7.9840   18.2156 N   0  0  0  0  0  0  0  0  0  0  0  0
  -28.0578  -15.7804   18.7097 N   0  0  0  0  0  0  0  0  0  0  0  0
  -25.8109  -33.4273   22.5795 N   0  0  0  0  0  0  0  0  0  0  0  0
  -20.6798  -29.3404   22.5084 N   0  0  0  0  0  0  0  0  0  0  0  0
  -19.2903  -27.3490   19.8305 N   0  3  0  0  0  0  0  0  0  0  0  0
  -24.9185   -8.1977   16.3798 O   0  0  0  0  0  0  0  0  0  0  0  0
  -25.9916  -31.2172   23.2903 O   0  0  0  0  0  0  0  0  0  0  0  0
  -21.9817  -31.8923   22.5444 O   0  0  0  0  0  0  0  0  0  0  0  0
  -21.3524  -27.2575   21.7425 O   0  0  0  0  0  0  0  0  0  0  0  0
  -30.3358  -15.9238   19.1242 O   0  0  0  0  0  0  0  0  0  0  0  0
  -26.0840  -24.0910   17.7762 O   0  0  0  0  0  0  0  0  0  0  0  0
  -26.3317  -24.0437   20.2857 O   0  0  0  0  0  0  0  0  0  0  0  0
  -21.4274   -8.5948   23.3254 O   0  0  0  0  0  0  0  0  0  0  0  0
  -27.8933  -26.3321   20.0957 O   0  0  0  0  0  0  0  0  0  1  0  0
  -20.1666   -3.2554   23.8771 F   0  0  0  0  0  0  0  0  0  0  0  0
  -20.4551   -7.1387   21.1860 F   0  0  0  0  0  0  0  0  0  0  0  0
  -26.8234  -23.6944   18.9631 S   0  0  0  0  0  0  0  0  0  0  0  0
  1  2  1  0  0  0  0
  1  7  2  0  0  0  0
  2  8  2  0  0  0  0
  3 12  2  0  0  0  0
  3 19  1  0  0  0  0
  4 13  1  0  0  0  0
  4 19  2  0  0  0  0
  5 10  2  0  0  0  0
  5 20  1  0  0  0  0
  6 11  1  0  0  0  0
  6 20  2  0  0  0  0
  7 22  1  0  0  0  0
  8 24  1  0  0  0  0
  9 14  2  0  0  0  0
  9 23  1  0  0  0  0
 10 26  1  0  0  0  0
 11 26  2  0  0  0  0
 12 27  1  0  0  0  0
 13 27  2  0  0  0  0
 14 28  1  0  0  0  0
 15 16  2  0  0  0  0
 15 29  1  0  0  0  0
 16 30  1  0  0  0  0
 17 25  1  0  0  0  0
 17 28  2  0  0  0  0
 18 30  2  0  0  0  0
 18 31  1  0  0  0  0
 19 32  1  0  0  0  0
 20 34  1  0  0  0  0
 21 32  1  0  0  0  0
 21 33  2  0  0  0  0
 21 35  1  0  0  0  0
 22 24  2  0  0  0  0
 22 40  1  0  0  0  0
 23 25  2  0  0  0  0
 23 41  1  0  0  0  0
 24 49  1  0  0  0  0
 25 42  1  0  0  0  0
 26 70  1  0  0  0  0
 27 81  1  0  0  0  0
 28 82  1  0  0  0  0
 29 31  2  0  0  0  0
 29 81  1  0  0  0  0
 30 83  1  0  0  0  0
 31 84  1  0  0  0  0
 32 62  2  0  0  0  0
 33 64  1  0  0  0  0
 33 67  1  0  0  0  0
 34 63  2  0  0  0  0
 34 68  1  0  0  0  0
 35 69  1  0  0  0  0
 35 74  2  0  0  0  0
 36 50  1  0  0  0  0
 36 71  1  0  0  0  0
 36 75  2  0  0  0  0
 37 59  1  0  0  0  0
 37 65  1  0  0  0  0
 37 76  2  0  0  0  0
 38 60  1  0  0  0  0
 38 72  1  0  0  0  0
 38 77  2  0  0  0  0
 39 66  1  0  0  0  0
 39 70  1  0  0  0  0
 39 78  2  0  0  0  0
 40 43  1  0  0  0  0
 41 50  1  0  0  0  0
 42 65  1  0  0  0  0
 43 45  1  0  0  0  0
 44 46  1  0  0  0  0
 44 47  1  0  0  0  0
 45 49  1  0  0  0  0
 46 51  1  0  0  0  0
 47 66  1  0  0  0  0
 48 51  1  0  0  0  0
 48 66  1  0  0  0  0
 49 71  1  0  0  0  0
 50 65  1  0  0  0  0
 51 64  1  0  0  0  0
 52 60  1  0  0  0  0
 53 61  1  0  0  0  0
 54 61  1  0  0  0  0
 55 61  1  0  0  0  0
 56 73  1  0  0  0  0
 57 58  1  0  0  0  0
 57 82  1  0  0  0  0
 58 85  1  0  0  0  0
 59 61  1  0  0  0  0
 59 72  1  0  0  0  0
 60 73  1  0  0  0  0
 62 64  1  0  0  0  0
 63 85  1  0  0  0  0
 79 85  2  0  0  0  0
 80 85  2  0  0  0  0
M  CHG  1  73   1
M  ISO  4  39 100  57 101  70 100  82 101
M  END
> <Batch ID>
0072

> <Smiles>
CNC(C)C(=O)NC(C(=O)N1Cc2cc([101O:1][101CH2:1]CS(=O)(=O)NC(=N)c3ccc([100NH:0][100C:0](=O)N4CCCC(n5nc(-c6ccc(Oc7ccc(F)cc7F)cc6)c(C(N)=O)c5N)C4)cc3)ccc2CC1C(=O)NC1CCCc2ccccc21)C(C)(C)C

> <Shape>
0.295

> <Color>
0.095

> <Negative vol penalty>
0.000

$$$$

  -OEChem-04042323383D

 85 94  0     1  0  0  0  0  0999 V2000
  -25.7749  -37.0534   18.1604 C   0  0  0  0  0  0  0  0  0  0  0  0
  -26.5913  -36.0127   18.5916 C   0  0  0  0  0  0  0  0  0  0  0  0
  -24.4776   -9.7710   21.4318 C   0  0  0  0  0  0  0  0  0  0  0  0
  -24.8552  -10.8288   23.5709 C   0  0  0  0  0  0  0  0  0  0  0  0
  -24.5019  -37.2114   18.7068 C   0  0  0  0  0  0  0  0  0  0  0  0
  -26.1357  -35.1301   19.5702 C   0  0  0  0  0  0  0  0  0  0  0  0
  -27.3717  -29.1470   19.9950 C   0  0  0  0  0  0  0  0  0  0  0  0
  -30.1745  -21.1465   21.9932 C   0  0  0  0  0  0  0  0  0  0  0  0
  -30.0679  -19.8589   21.4677 C   0  0  0  0  0  0  0  0  0  0  0  0
  -24.1578   -8.5773   22.0785 C   0  0  0  0  0  0  0  0  0  0  0  0
  -24.5354   -9.6350   24.2176 C   0  0  0  0  0  0  0  0  0  0  0  0
  -28.2936  -28.4315   20.7579 C   0  0  0  0  0  0  0  0  0  0  0  0
  -21.5026   -7.2593   23.7050 C   0  0  0  0  0  0  0  0  0  0  0  0
  -20.3772   -6.5638   23.2629 C   0  0  0  0  0  0  0  0  0  0  0  0
  -26.5893  -28.0115   22.4127 C   0  0  0  0  0  0  0  0  0  0  0  0
  -27.6652  -19.9637   21.6983 C   0  0  0  0  0  0  0  0  0  0  0  0
  -21.7630   -4.6560   22.7366 C   0  0  0  0  0  0  0  0  0  0  0  0
  -24.8264  -10.8968   22.1779 C   0  0  0  0  0  0  0  0  0  0  0  0
  -24.2748  -13.1670   21.1537 C   0  0  0  0  0  0  0  0  0  0  0  0
  -24.0267  -36.3244   19.6857 C   0  0  0  0  0  0  0  0  0  0  0  0
  -26.0523  -29.3096   20.4413 C   0  0  0  0  0  0  0  0  0  0  0  0
  -24.8557  -35.2772   20.1312 C   0  0  0  0  0  0  0  0  0  0  0  0
  -25.6519  -28.7273   21.6524 C   0  0  0  0  0  0  0  0  0  0  0  0
  -27.7718  -21.2514   22.2238 C   0  0  0  0  0  0  0  0  0  0  0  0
  -29.0264  -21.8428   22.3713 C   0  0  0  0  0  0  0  0  0  0  0  0
  -28.8132  -19.2675   21.3202 C   0  0  0  0  0  0  0  0  0  0  0  0
  -24.1866   -8.5093   23.4714 C   0  0  0  0  0  0  0  0  0  0  0  0
  -27.9033  -27.8661   21.9683 C   0  0  0  0  0  0  0  0  0  0  0  0
  -22.7582   -6.6531   23.6628 C   0  0  0  0  0  0  0  0  0  0  0  0
  -20.5074   -5.2622   22.7787 C   0  0  0  0  0  0  0  0  0  0  0  0
  -22.8884   -5.3515   23.1786 C   0  0  0  0  0  0  0  0  0  0  0  0
  -25.1574  -12.1300   21.5104 C   0  0  0  0  0  0  0  0  0  0  0  0
  -25.0745  -14.1059   20.5492 C   0  0  0  0  0  0  0  0  0  0  0  0
  -28.7989  -23.6496   24.0836 C   0  0  0  0  0  0  0  0  0  0  0  0
  -22.8586  -13.2723   21.3511 C   0  0  0  0  0  0  0  0  0  0  0  0
  -24.2395  -31.8012   21.2223 C   0  0  0  0  0  0  0  0  0  0  0  0
  -21.9207  -29.5450   21.4576 C   0  0  0  0  0  0  0  0  0  0  0  0
  -21.1068  -26.2670   21.9464 C   0  0  0  0  0  0  0  0  0  0  0  0
  -29.7444  -17.1324   20.3607 C   0  0  0  0  0  0  0  0  0  0  0  0
  -22.6617  -36.5637   20.2809 C   0  0  0  0  0  0  0  0  0  0  0  0
  -25.0629  -30.0616   19.5939 C   0  0  0  0  0  0  0  0  0  0  0  0
  -24.2420  -28.8557   22.1662 C   0  0  0  0  0  0  0  0  0  0  0  0
  -22.1107  -35.3618   21.0438 C   0  0  0  0  0  0  0  0  0  0  0  0
  -29.8927  -13.8367   19.0214 C   0  0  0  0  0  0  0  0  0  0  0  0
  -23.1760  -34.7832   21.9697 C   0  0  0  0  0  0  0  0  0  0  0  0
  -28.6014  -13.1842   19.5202 C   0  0  0  0  0  0  0  0  0  0  0  0
  -30.4903  -14.7807   20.0632 C   0  0  0  0  0  0  0  0  0  0  0  0
  -28.2759  -15.1466   21.0790 C   0  0  0  0  0  0  0  0  0  0  0  0
  -29.7193  -24.3263   22.3134 C   0  0  0  0  0  0  0  0  0  0  0  0
  -24.3876  -34.2844   21.1730 C   0  0  1  0  0  0  0  0  0  0  0  0
  -23.8804  -30.6011   20.3926 C   0  0  1  0  0  0  0  0  0  0  0  0
  -27.6021  -14.2367   20.0390 C   0  0  2  0  0  0  0  0  0  0  0  0
  -29.3535  -25.0374   23.6508 C   0  0  2  0  0  0  0  0  0  0  0  0
  -26.5256  -21.9739   22.6211 C   0  0  0  0  0  0  0  0  0  0  0  0
  -30.5511  -25.5058   24.4701 C   0  0  0  0  0  0  0  0  0  0  0  0
  -19.1280  -24.7338   22.1229 C   0  0  0  0  0  0  0  0  0  0  0  0
  -21.3705  -30.5834   24.2734 C   0  0  0  0  0  0  0  0  0  0  0  0
  -20.1038  -28.4725   24.7291 C   0  0  0  0  0  0  0  0  0  0  0  0
  -19.3237  -30.0329   22.9460 C   0  0  0  0  0  0  0  0  0  0  0  0
  -21.9813  -24.6797   19.6065 C   0  0  0  0  0  0  0  0  0  0  0  0
  -28.2895  -26.1105   23.5254 C   0  0  0  0  0  0  0  0  0  1  0  0
  -21.4060  -28.6519   22.5605 C   0  0  1  0  0  0  0  0  0  0  0  0
  -20.1697  -25.3389   21.1947 C   0  0  2  0  0  0  0  0  0  0  0  0
  -20.5781  -29.4342   23.6188 C   0  0  0  0  0  0  0  0  0  0  0  0
  -26.4211  -12.3856   21.1615 N   0  0  0  0  0  0  0  0  0  0  0  0
  -26.3383  -13.5939   20.5791 N   0  0  0  0  0  0  0  0  0  0  0  0
  -29.1523  -23.1113   22.8875 N   0  0  0  0  0  0  0  0  0  0  0  0
  -23.3131  -29.6057   21.3046 N   0  0  0  0  0  0  0  0  0  0  0  0
  -29.4877  -15.7525   20.5052 N   0  0  0  0  0  0  0  0  0  0  0  0
  -24.8130  -15.3111   20.0001 N   0  0  0  0  0  0  0  0  0  0  0  0
  -22.1927  -12.2171   21.9896 N   0  0  0  0  0  0  0  0  0  0  0  0
  -28.7054  -17.9597   20.7855 N   0  0  0  0  0  0  0  0  0  0  0  0
  -24.0979  -33.0057   20.5602 N   0  0  0  0  0  0  0  0  0  0  0  0
  -20.6723  -27.5749   21.9047 N   0  0  0  0  0  0  0  0  0  0  0  0
  -20.9371  -24.2290   20.5623 N   0  3  0  0  0  0  0  0  0  0  0  0
  -28.2651  -23.1903   25.0676 O   0  0  0  0  0  0  0  0  0  0  0  0
  -22.2004  -14.2651   20.9579 O   0  0  0  0  0  0  0  0  0  0  0  0
  -24.6158  -31.6459   22.3782 O   0  0  0  0  0  0  0  0  0  0  0  0
  -21.1167  -30.1604   20.7530 O   0  0  0  0  0  0  0  0  0  0  0  0
  -22.1207  -25.8707   22.5168 O   0  0  0  0  0  0  0  0  0  0  0  0
  -30.7967  -17.5487   19.8694 O   0  0  0  0  0  0  0  0  0  0  0  0
  -23.8744   -7.3446   24.1029 O   0  0  0  0  0  0  0  0  0  0  0  0
  -28.8013  -27.1678   22.7151 O   0  0  0  0  0  0  0  0  0  1  0  0
  -19.4264   -4.5939   22.3556 F   0  0  0  0  0  0  0  0  0  0  0  0
  -24.0919   -4.7635   23.1368 F   0  0  0  0  0  0  0  0  0  0  0  0
  1  2  1  0  0  0  0
  1  5  2  0  0  0  0
  2  6  2  0  0  0  0
  3 10  2  0  0  0  0
  3 18  1  0  0  0  0
  4 11  1  0  0  0  0
  4 18  2  0  0  0  0
  5 20  1  0  0  0  0
  6 22  1  0  0  0  0
  7 12  2  0  0  0  0
  7 21  1  0  0  0  0
  8  9  2  0  0  0  0
  8 25  1  0  0  0  0
  9 26  1  0  0  0  0
 10 27  1  0  0  0  0
 11 27  2  0  0  0  0
 12 28  1  0  0  0  0
 13 14  2  0  0  0  0
 13 29  1  0  0  0  0
 14 30  1  0  0  0  0
 15 23  1  0  0  0  0
 15 28  2  0  0  0  0
 16 24  1  0  0  0  0
 16 26  2  0  0  0  0
 17 30  2  0  0  0  0
 17 31  1  0  0  0  0
 18 32  1  0  0  0  0
 19 32  1  0  0  0  0
 19 33  2  0  0  0  0
 19 35  1  0  0  0  0
 20 22  2  0  0  0  0
 20 40  1  0  0  0  0
 21 23  2  0  0  0  0
 21 41  1  0  0  0  0
 22 50  1  0  0  0  0
 23 42  1  0  0  0  0
 24 25  2  0  0  0  0
 24 54  1  0  0  0  0
 25 67  1  0  0  0  0
 26 72  1  0  0  0  0
 27 82  1  0  0  0  0
 28 83  1  0  0  0  0
 29 31  2  0  0  0  0
 29 82  1  0  0  0  0
 30 84  1  0  0  0  0
 31 85  1  0  0  0  0
 32 65  2  0  0  0  0
 33 66  1  0  0  0  0
 33 70  1  0  0  0  0
 34 53  1  0  0  0  0
 34 67  1  0  0  0  0
 34 76  2  0  0  0  0
 35 71  1  0  0  0  0
 35 77  2  0  0  0  0
 36 51  1  0  0  0  0
 36 73  1  0  0  0  0
 36 78  2  0  0  0  0
 37 62  1  0  0  0  0
 37 68  1  0  0  0  0
 37 79  2  0  0  0  0
 38 63  1  0  0  0  0
 38 74  1  0  0  0  0
 38 80  2  0  0  0  0
 39 69  1  0  0  0  0
 39 72  1  0  0  0  0
 39 81  2  0  0  0  0
 40 43  1  0  0  0  0
 41 51  1  0  0  0  0
 42 68  1  0  0  0  0
 43 45  1  0  0  0  0
 44 46  1  0  0  0  0
 44 47  1  0  0  0  0
 45 50  1  0  0  0  0
 46 52  1  0  0  0  0
 47 69  1  0  0  0  0
 48 52  1  0  0  0  0
 48 69  1  0  0  0  0
 49 53  1  0  0  0  0
 49 67  1  0  0  0  0
 50 73  1  0  0  0  0
 51 68  1  0  0  0  0
 52 66  1  0  0  0  0
 53 55  1  0  0  0  0
 53 61  1  0  0  0  0
 56 63  1  0  0  0  0
 57 64  1  0  0  0  0
 58 64  1  0  0  0  0
 59 64  1  0  0  0  0
 60 75  1  0  0  0  0
 61 83  1  0  0  0  0
 62 64  1  0  0  0  0
 62 74  1  0  0  0  0
 63 75  1  0  0  0  0
 65 66  1  0  0  0  0
M  CHG  1  75   1
M  ISO  4  39 100  61 101  72 100  83 101
M  END
> <Batch ID>
0072

> <Smiles>
CNC(C)C(=O)NC(C(=O)N1Cc2cc([101O:1][101CH2:1]C3(C)CN(c4ccc([100NH:0][100C:0](=O)N5CCCC(n6nc(-c7ccc(Oc8ccc(F)cc8F)cc7)c(C(N)=O)c6N)C5)cc4C)C3=O)ccc2CC1C(=O)NC1CCCc2ccccc21)C(C)(C)C

> <Shape>
0.272

> <Color>
0.119

> <Negative vol penalty>
0.000

$$$$

  -OEChem-04042323383D

 88 97  0     1  0  0  0  0  0999 V2000
  -29.0064  -11.8450   20.5809 C   0  0  0  0  0  0  0  0  0  0  0  0
  -29.1264  -13.1038   20.0007 C   0  0  0  0  0  0  0  0  0  0  0  0
  -29.3382  -25.2783   19.5846 C   0  0  0  0  0  0  0  0  0  0  0  0
  -27.3339  -24.3475   20.5609 C   0  0  0  0  0  0  0  0  0  0  0  0
  -27.7444  -11.3368   20.8860 C   0  0  0  0  0  0  0  0  0  0  0  0
  -27.9843  -13.8546   19.7244 C   0  0  0  0  0  0  0  0  0  0  0  0
  -25.6911  -20.6359   19.4559 C   0  0  0  0  0  0  0  0  0  0  0  0
  -18.7600  -26.3792   22.2902 C   0  0  0  0  0  0  0  0  0  0  0  0
  -30.0727  -24.1895   20.0542 C   0  0  0  0  0  0  0  0  0  0  0  0
  -28.0683  -23.2586   21.0306 C   0  0  0  0  0  0  0  0  0  0  0  0
  -25.0406  -21.5196   18.5958 C   0  0  0  0  0  0  0  0  0  0  0  0
  -30.5961  -20.9690   19.1672 C   0  0  0  0  0  0  0  0  0  0  0  0
  -31.4982  -20.3683   18.2891 C   0  0  0  0  0  0  0  0  0  0  0  0
  -18.1334  -27.0114   23.3642 C   0  0  0  0  0  0  0  0  0  0  0  0
  -22.9170  -20.5732   19.2390 C   0  0  0  0  0  0  0  0  0  0  0  0
  -19.8030  -28.7570   23.3106 C   0  0  0  0  0  0  0  0  0  0  0  0
  -33.3101  -20.8727   19.8056 C   0  0  0  0  0  0  0  0  0  0  0  0
  -27.9688  -25.3574   19.8379 C   0  0  0  0  0  0  0  0  0  0  0  0
  -27.0466  -26.8843   18.0143 C   0  0  0  0  0  0  0  0  0  0  0  0
  -26.5869  -12.0858   20.6221 C   0  0  0  0  0  0  0  0  0  0  0  0
  -24.9589  -19.7052   20.2070 C   0  0  0  0  0  0  0  0  0  0  0  0
  -26.7056  -13.3553   20.0250 C   0  0  0  0  0  0  0  0  0  0  0  0
  -23.5603  -19.6804   20.1098 C   0  0  0  0  0  0  0  0  0  0  0  0
  -19.9081  -26.9358   21.7266 C   0  0  0  0  0  0  0  0  0  0  0  0
  -20.4296  -28.1247   22.2367 C   0  0  0  0  0  0  0  0  0  0  0  0
  -29.4377  -23.1797   20.7772 C   0  0  0  0  0  0  0  0  0  0  0  0
  -23.6537  -21.4864   18.4851 C   0  0  0  0  0  0  0  0  0  0  0  0
  -31.0510  -21.5216   20.3644 C   0  0  0  0  0  0  0  0  0  0  0  0
  -32.8552  -20.3201   18.6083 C   0  0  0  0  0  0  0  0  0  0  0  0
  -32.4080  -21.4734   20.6836 C   0  0  0  0  0  0  0  0  0  0  0  0
  -18.6549  -28.2003   23.8743 C   0  0  0  0  0  0  0  0  0  0  0  0
  -27.2097  -26.4822   19.3535 C   0  0  0  0  0  0  0  0  0  0  0  0
  -26.2444  -27.9970   18.0852 C   0  0  0  0  0  0  0  0  0  0  0  0
  -27.5731  -26.3040   16.8136 C   0  0  0  0  0  0  0  0  0  0  0  0
  -24.8471  -16.5319   20.3539 C   0  0  0  0  0  0  0  0  0  0  0  0
  -22.8565  -17.1065   22.8499 C   0  0  0  0  0  0  0  0  0  0  0  0
  -20.1650  -19.3891   23.6002 C   0  0  0  0  0  0  0  0  0  0  0  0
  -22.2260  -29.8842   22.0847 C   0  0  0  0  0  0  0  0  0  0  0  0
  -25.2419  -11.4748   20.9261 C   0  0  0  0  0  0  0  0  0  0  0  0
  -25.6735  -18.7767   21.1503 C   0  0  0  0  0  0  0  0  0  0  0  0
  -22.7268  -18.7141   20.9097 C   0  0  0  0  0  0  0  0  0  0  0  0
  -24.1021  -12.4901   20.9457 C   0  0  0  0  0  0  0  0  0  0  0  0
  -25.1315  -31.6318   20.9979 C   0  0  0  0  0  0  0  0  0  0  0  0
  -24.1844  -13.4087   19.7307 C   0  0  0  0  0  0  0  0  0  0  0  0
  -25.9766  -30.5474   20.3256 C   0  0  0  0  0  0  0  0  0  0  0  0
  -22.4725  -25.1287   19.6917 C   0  0  0  0  0  0  0  0  0  0  0  0
  -20.6317  -25.9513   18.2108 C   0  0  0  0  0  0  0  0  0  0  0  0
  -24.3910  -31.0963   22.2220 C   0  0  0  0  0  0  0  0  0  0  0  0
  -21.5592  -25.2820   20.9078 C   0  0  0  0  0  0  0  0  0  0  0  0
  -19.7226  -26.0967   19.4299 C   0  0  0  0  0  0  0  0  0  0  0  0
  -24.4300  -28.8080   21.3102 C   0  0  0  0  0  0  0  0  0  0  0  0
  -25.4917  -14.2104   19.7328 C   0  0  1  0  0  0  0  0  0  0  0  0
  -24.8671  -17.5247   21.4816 C   0  0  1  0  0  0  0  0  0  0  0  0
  -21.6725  -24.8459   18.4163 C   0  0  0  0  0  0  0  0  0  0  0  0
  -25.1437  -29.2836   20.0343 C   0  0  2  0  0  0  0  0  0  0  0  0
  -19.3403  -20.2726   25.7994 C   0  0  0  0  0  0  0  0  0  0  0  0
  -23.3430  -26.0694   17.0193 C   0  0  0  0  0  0  0  0  0  0  0  0
  -21.7485  -24.4593   15.9547 C   0  0  0  0  0  0  0  0  0  0  0  0
  -20.8835  -14.7830   22.7141 C   0  0  0  0  0  0  0  0  0  0  0  0
  -19.1432  -16.2949   23.6907 C   0  0  0  0  0  0  0  0  0  0  0  0
  -21.1975  -15.7528   24.9978 C   0  0  0  0  0  0  0  0  0  0  0  0
  -20.4812  -22.1977   22.7224 C   0  0  0  0  0  0  0  0  0  0  0  0
  -23.6332  -23.6152   17.4250 C   0  0  0  0  0  0  0  0  0  1  0  0
  -21.3679  -17.3021   23.0071 C   0  0  1  0  0  0  0  0  0  0  0  0
  -20.2034  -20.5494   24.5783 C   0  0  2  0  0  0  0  0  0  0  0  0
  -22.5974  -24.7379   17.2064 C   0  0  0  0  0  0  0  0  0  0  0  0
  -20.6615  -16.0403   23.5784 C   0  0  0  0  0  0  0  0  0  0  0  0
  -26.5631  -27.2749   20.2124 N   0  0  0  0  0  0  0  0  0  0  0  0
  -25.9861  -28.1864   19.4109 N   0  0  0  0  0  0  0  0  0  0  0  0
  -20.5205  -26.2846   20.6491 N   0  0  0  0  0  0  0  0  0  0  0  0
  -23.4722  -17.8222   21.8133 N   0  0  0  0  0  0  0  0  0  0  0  0
  -23.6203  -29.9019   21.8694 N   0  0  0  0  0  0  0  0  0  0  0  0
  -25.7419  -28.8220   17.1422 N   0  0  0  0  0  0  0  0  0  0  0  0
  -28.3792  -25.1626   16.9210 N   0  0  0  0  0  0  0  0  0  0  0  0
  -21.5951  -28.7081   21.6808 N   0  0  0  0  0  0  0  0  0  0  0  0
  -25.4088  -15.3097   20.6704 N   0  0  0  0  0  0  0  0  0  0  0  0
  -21.1973  -18.5017   23.8196 N   0  0  0  0  0  0  0  0  0  0  0  0
  -19.7083  -21.7941   23.9252 N   0  3  0  0  0  0  0  0  0  0  0  0
  -27.3492  -26.7931   15.6804 O   0  0  0  0  0  0  0  0  0  0  0  0
  -24.3569  -16.8506   19.2770 O   0  0  0  0  0  0  0  0  0  0  0  0
  -23.4524  -16.3523   23.6230 O   0  0  0  0  0  0  0  0  0  0  0  0
  -19.3031  -19.2789   22.7310 O   0  0  0  0  0  0  0  0  0  0  0  0
  -21.6313  -30.8525   22.5651 O   0  0  0  0  0  0  0  0  0  0  0  0
  -30.1540  -22.1169   21.2355 O   0  0  0  0  0  0  0  0  0  0  0  0
  -23.0163  -22.3475   17.6459 O   0  0  0  0  0  0  0  0  0  1  0  0
  -33.7212  -19.7419   17.7657 F   0  0  0  0  0  0  0  0  0  0  0  0
  -32.8508  -22.0016   21.8329 F   0  0  0  0  0  0  0  0  0  0  0  0
  -17.8806  -28.9795   25.1991 Cl  0  0  0  0  0  0  0  0  0  0  0  0
  1  2  1  0  0  0  0
  1  5  2  0  0  0  0
  2  6  2  0  0  0  0
  3  9  2  0  0  0  0
  3 18  1  0  0  0  0
  4 10  1  0  0  0  0
  4 18  2  0  0  0  0
  5 20  1  0  0  0  0
  6 22  1  0  0  0  0
  7 11  2  0  0  0  0
  7 21  1  0  0  0  0
  8 14  2  0  0  0  0
  8 24  1  0  0  0  0
  9 26  1  0  0  0  0
 10 26  2  0  0  0  0
 11 27  1  0  0  0  0
 12 13  2  0  0  0  0
 12 28  1  0  0  0  0
 13 29  1  0  0  0  0
 14 31  1  0  0  0  0
 15 23  1  0  0  0  0
 15 27  2  0  0  0  0
 16 25  1  0  0  0  0
 16 31  2  0  0  0  0
 17 29  2  0  0  0  0
 17 30  1  0  0  0  0
 18 32  1  0  0  0  0
 19 32  1  0  0  0  0
 19 33  2  0  0  0  0
 19 34  1  0  0  0  0
 20 22  2  0  0  0  0
 20 39  1  0  0  0  0
 21 23  2  0  0  0  0
 21 40  1  0  0  0  0
 22 52  1  0  0  0  0
 23 41  1  0  0  0  0
 24 25  2  0  0  0  0
 24 70  1  0  0  0  0
 25 75  1  0  0  0  0
 26 84  1  0  0  0  0
 27 85  1  0  0  0  0
 28 30  2  0  0  0  0
 28 84  1  0  0  0  0
 29 86  1  0  0  0  0
 30 87  1  0  0  0  0
 31 88  1  0  0  0  0
 32 68  2  0  0  0  0
 33 69  1  0  0  0  0
 33 73  1  0  0  0  0
 34 74  1  0  0  0  0
 34 79  2  0  0  0  0
 35 53  1  0  0  0  0
 35 76  1  0  0  0  0
 35 80  2  0  0  0  0
 36 64  1  0  0  0  0
 36 71  1  0  0  0  0
 36 81  2  0  0  0  0
 37 65  1  0  0  0  0
 37 77  1  0  0  0  0
 37 82  2  0  0  0  0
 38 72  1  0  0  0  0
 38 75  1  0  0  0  0
 38 83  2  0  0  0  0
 39 42  1  0  0  0  0
 40 53  1  0  0  0  0
 41 71  1  0  0  0  0
 42 44  1  0  0  0  0
 43 45  1  0  0  0  0
 43 48  1  0  0  0  0
 44 52  1  0  0  0  0
 45 55  1  0  0  0  0
 46 49  1  0  0  0  0
 46 54  1  0  0  0  0
 47 50  1  0  0  0  0
 47 54  1  0  0  0  0
 48 72  1  0  0  0  0
 49 70  1  0  0  0  0
 50 70  1  0  0  0  0
 51 55  1  0  0  0  0
 51 72  1  0  0  0  0
 52 76  1  0  0  0  0
 53 71  1  0  0  0  0
 54 66  1  0  0  0  0
 55 69  1  0  0  0  0
 56 65  1  0  0  0  0
 57 66  1  0  0  0  0
 58 66  1  0  0  0  0
 59 67  1  0  0  0  0
 60 67  1  0  0  0  0
 61 67  1  0  0  0  0
 62 78  1  0  0  0  0
 63 66  1  0  0  0  0
 63 85  1  0  0  0  0
 64 67  1  0  0  0  0
 64 77  1  0  0  0  0
 65 78  1  0  0  0  0
 68 69  1  0  0  0  0
M  CHG  1  78   1
M  ISO  4  38 100  63 101  75 100  85 101
M  END
> <Batch ID>
0072

> <Smiles>
CNC(C)C(=O)NC(C(=O)N1Cc2cc([101O:1][101CH2:1]C(C)(C)C3CCN(c4ccc(Cl)cc4[100NH:0][100C:0](=O)N4CCCC(n5nc(-c6ccc(Oc7ccc(F)cc7F)cc6)c(C(N)=O)c5N)C4)CC3)ccc2CC1C(=O)NC1CCCc2ccccc21)C(C)(C)C

> <Shape>
0.201

> <Color>
0.085

> <Negative vol penalty>
0.000

$$$$

  -OEChem-04042323383D

 89 98  0     1  0  0  0  0  0999 V2000
  -21.4004  -12.2645   20.0937 C   0  0  0  0  0  0  0  0  0  0  0  0
  -21.4813  -13.4715   20.7806 C   0  0  0  0  0  0  0  0  0  0  0  0
  -22.5916  -23.8773   22.4501 C   0  0  0  0  0  0  0  0  0  0  0  0
  -20.8766  -25.5789   22.4673 C   0  0  0  0  0  0  0  0  0  0  0  0
  -22.5623  -11.5528   19.7980 C   0  0  0  0  0  0  0  0  0  0  0  0
  -22.7242  -13.9672   21.1732 C   0  0  0  0  0  0  0  0  0  0  0  0
  -26.0799  -20.8498   19.6258 C   0  0  0  0  0  0  0  0  0  0  0  0
  -29.5202  -27.6334   20.6575 C   0  0  0  0  0  0  0  0  0  0  0  0
  -29.3170  -28.6451   21.5960 C   0  0  0  0  0  0  0  0  0  0  0  0
  -21.8211  -23.0919   23.3074 C   0  0  0  0  0  0  0  0  0  0  0  0
  -20.1060  -24.7935   23.3247 C   0  0  0  0  0  0  0  0  0  0  0  0
  -26.8417  -21.9690   19.2895 C   0  0  0  0  0  0  0  0  0  0  0  0
  -17.8456  -23.3955   25.8038 C   0  0  0  0  0  0  0  0  0  0  0  0
  -17.2475  -24.0234   26.8962 C   0  0  0  0  0  0  0  0  0  0  0  0
  -27.1333  -27.4621   20.3253 C   0  0  0  0  0  0  0  0  0  0  0  0
  -28.8728  -20.6964   19.6108 C   0  0  0  0  0  0  0  0  0  0  0  0
  -19.4255  -24.6746   27.7144 C   0  0  0  0  0  0  0  0  0  0  0  0
  -22.1194  -25.1208   22.0301 C   0  0  0  0  0  0  0  0  0  0  0  0
  -26.9301  -28.4738   21.2638 C   0  0  0  0  0  0  0  0  0  0  0  0
  -23.3589  -25.5968   19.8518 C   0  0  0  0  0  0  0  0  0  0  0  0
  -23.8208  -12.0447   20.1787 C   0  0  0  0  0  0  0  0  0  0  0  0
  -26.7121  -19.6439   19.9413 C   0  0  0  0  0  0  0  0  0  0  0  0
  -23.9039  -13.2607   20.8835 C   0  0  0  0  0  0  0  0  0  0  0  0
  -28.1146  -19.5685   19.9363 C   0  0  0  0  0  0  0  0  0  0  0  0
  -28.4283  -27.0419   20.0221 C   0  0  0  0  0  0  0  0  0  0  0  0
  -28.0219  -29.0653   21.8991 C   0  0  0  0  0  0  0  0  0  0  0  0
  -20.5783  -23.5500   23.7447 C   0  0  0  0  0  0  0  0  0  0  0  0
  -28.2347  -21.8925   19.2822 C   0  0  0  0  0  0  0  0  0  0  0  0
  -19.2337  -23.4070   25.6667 C   0  0  0  0  0  0  0  0  0  0  0  0
  -18.0374  -24.6630   27.8515 C   0  0  0  0  0  0  0  0  0  0  0  0
  -20.0236  -24.0466   26.6220 C   0  0  0  0  0  0  0  0  0  0  0  0
  -22.9152  -25.9328   21.1449 C   0  0  0  0  0  0  0  0  0  0  0  0
  -24.0709  -26.6956   19.4369 C   0  0  0  0  0  0  0  0  0  0  0  0
  -29.7591  -25.8535   18.2206 C   0  0  0  0  0  0  0  0  0  0  0  0
  -25.5643  -28.8882   21.5600 C   0  0  0  0  0  0  0  0  0  0  0  0
  -23.1464  -24.3986   19.0936 C   0  0  0  0  0  0  0  0  0  0  0  0
  -26.3345  -16.0434   20.9260 C   0  0  0  0  0  0  0  0  0  0  0  0
  -28.6111  -16.1720   18.8738 C   0  0  0  0  0  0  0  0  0  0  0  0
  -30.1722  -16.6687   16.1870 C   0  0  0  0  0  0  0  0  0  0  0  0
  -26.7580  -31.0171   22.8395 C   0  0  0  0  0  0  0  0  0  0  0  0
  -25.0451  -11.2167   19.8783 C   0  0  0  0  0  0  0  0  0  0  0  0
  -25.9330  -18.4300   20.3694 C   0  0  0  0  0  0  0  0  0  0  0  0
  -28.7522  -18.2601   20.3162 C   0  0  0  0  0  0  0  0  0  0  0  0
  -26.3522  -11.9956   20.0004 C   0  0  0  0  0  0  0  0  0  0  0  0
  -24.3832  -31.4281   20.0316 C   0  0  0  0  0  0  0  0  0  0  0  0
  -26.3694  -12.8109   21.2895 C   0  0  0  0  0  0  0  0  0  0  0  0
  -23.7163  -30.0564   19.9478 C   0  0  0  0  0  0  0  0  0  0  0  0
  -24.8458  -31.7472   21.4500 C   0  0  0  0  0  0  0  0  0  0  0  0
  -25.0782  -29.3306   21.9478 C   0  0  0  0  0  0  0  0  0  0  0  0
  -27.6384  -24.9786   18.8117 C   0  0  0  0  0  0  0  0  0  0  0  0
  -25.2356  -13.8434   21.3044 C   0  0  1  0  0  0  0  0  0  0  0  0
  -26.5653  -17.1091   19.8952 C   0  0  1  0  0  0  0  0  0  0  0  0
  -24.6394  -28.9685   20.5210 C   0  0  1  0  0  0  0  0  0  0  0  0
  -28.3863  -23.9086   18.0324 C   0  0  1  0  0  0  0  0  0  1  0  0
  -29.4664  -24.6914   17.2697 C   0  0  0  0  0  0  0  0  0  0  0  0
  -24.8511  -28.1729   22.6684 C   0  0  0  0  0  0  0  0  0  0  0  0
  -28.9065  -25.2720   15.9622 C   0  0  0  0  0  0  0  0  0  0  0  0
  -30.7300  -23.8799   16.9830 C   0  0  0  0  0  0  0  0  0  0  0  0
  -31.5715  -16.6754   14.1039 C   0  0  0  0  0  0  0  0  0  0  0  0
  -30.6396  -16.0152   21.1463 C   0  0  0  0  0  0  0  0  0  0  0  0
  -32.4345  -15.7083   19.4281 C   0  0  0  0  0  0  0  0  0  0  0  0
  -30.6081  -14.0219   19.6362 C   0  0  0  0  0  0  0  0  0  0  0  0
  -28.9442  -30.4092   23.7790 C   0  0  0  0  0  0  0  0  0  0  0  0
  -28.1074  -15.2017   14.6561 C   0  0  0  0  0  0  0  0  0  0  0  0
  -30.0957  -16.2872   18.6371 C   0  0  1  0  0  0  0  0  0  0  0  0
  -30.4769  -15.9594   14.8799 C   0  0  2  0  0  0  0  0  0  0  0  0
  -30.9275  -15.5309   19.7112 C   0  0  0  0  0  0  0  0  0  0  0  0
  -23.3122  -27.1497   21.5263 N   0  0  0  0  0  0  0  0  0  0  0  0
  -24.0129  -27.5880   20.4666 N   0  0  0  0  0  0  0  0  0  0  0  0
  -28.6371  -26.0054   19.0617 N   0  0  0  0  0  0  0  0  0  0  0  0
  -28.0233  -17.1457   19.6905 N   0  0  0  0  0  0  0  0  0  0  0  0
  -25.6742  -30.6754   22.0048 N   0  0  0  0  0  0  0  0  0  0  0  0
  -24.7347  -26.9758   18.2953 N   0  0  0  0  0  0  0  0  0  0  0  0
  -24.0741  -23.3555   19.2185 N   0  0  0  0  0  0  0  0  0  0  0  0
  -25.5760  -14.9798   20.4755 N   0  0  0  0  0  0  0  0  0  0  0  0
  -30.3278  -15.8308   17.2710 N   0  0  0  0  0  0  0  0  0  0  0  0
  -27.8362  -30.1123   22.8739 N   0  0  0  0  0  0  0  0  0  0  0  0
  -29.2570  -15.9005   14.0259 N   0  3  0  0  0  0  0  0  0  0  0  0
  -30.7795  -26.5253   18.1567 O   0  0  0  0  0  0  0  0  0  0  0  0
  -24.9543  -29.7765   20.9650 O   0  0  0  0  0  0  0  0  0  0  0  0
  -22.1719  -24.2636   18.3154 O   0  0  0  0  0  0  0  0  0  0  0  0
  -26.8104  -16.1745   22.0476 O   0  0  0  0  0  0  0  0  0  0  0  0
  -27.9879  -15.2416   18.3547 O   0  0  0  0  0  0  0  0  0  0  0  0
  -29.8338  -17.8489   16.2413 O   0  0  0  0  0  0  0  0  0  0  0  0
  -26.7435  -32.0305   23.5490 O   0  0  0  0  0  0  0  0  0  0  0  0
  -19.8260  -22.7838   24.5811 O   0  0  0  0  0  0  0  0  0  0  0  0
  -28.9723  -22.9877   18.9485 O   0  0  0  0  0  0  0  0  0  1  0  0
  -17.4627  -25.2674   28.8998 F   0  0  0  0  0  0  0  0  0  0  0  0
  -21.3576  -24.0620   26.4950 F   0  0  0  0  0  0  0  0  0  0  0  0
  1  2  1  0  0  0  0
  1  5  2  0  0  0  0
  2  6  2  0  0  0  0
  3 10  2  0  0  0  0
  3 18  1  0  0  0  0
  4 11  1  0  0  0  0
  4 18  2  0  0  0  0
  5 21  1  0  0  0  0
  6 23  1  0  0  0  0
  7 12  2  0  0  0  0
  7 22  1  0  0  0  0
  8  9  2  0  0  0  0
  8 25  1  0  0  0  0
  9 26  1  0  0  0  0
 10 27  1  0  0  0  0
 11 27  2  0  0  0  0
 12 28  1  0  0  0  0
 13 14  2  0  0  0  0
 13 29  1  0  0  0  0
 14 30  1  0  0  0  0
 15 19  1  0  0  0  0
 15 25  2  0  0  0  0
 16 24  1  0  0  0  0
 16 28  2  0  0  0  0
 17 30  2  0  0  0  0
 17 31  1  0  0  0  0
 18 32  1  0  0  0  0
 19 26  2  0  0  0  0
 19 35  1  0  0  0  0
 20 32  1  0  0  0  0
 20 33  2  0  0  0  0
 20 36  1  0  0  0  0
 21 23  2  0  0  0  0
 21 41  1  0  0  0  0
 22 24  2  0  0  0  0
 22 42  1  0  0  0  0
 23 51  1  0  0  0  0
 24 43  1  0  0  0  0
 25 70  1  0  0  0  0
 26 77  1  0  0  0  0
 27 86  1  0  0  0  0
 28 87  1  0  0  0  0
 29 31  2  0  0  0  0
 29 86  1  0  0  0  0
 30 88  1  0  0  0  0
 31 89  1  0  0  0  0
 32 68  2  0  0  0  0
 33 69  1  0  0  0  0
 33 73  1  0  0  0  0
 34 55  1  0  0  0  0
 34 70  1  0  0  0  0
 34 79  2  0  0  0  0
 35 56  1  0  0  0  0
 35 80  2  0  0  0  0
 36 74  1  0  0  0  0
 36 81  2  0  0  0  0
 37 52  1  0  0  0  0
 37 75  1  0  0  0  0
 37 82  2  0  0  0  0
 38 65  1  0  0  0  0
 38 71  1  0  0  0  0
 38 83  2  0  0  0  0
 39 66  1  0  0  0  0
 39 76  1  0  0  0  0
 39 84  2  0  0  0  0
 40 72  1  0  0  0  0
 40 77  1  0  0  0  0
 40 85  2  0  0  0  0
 41 44  1  0  0  0  0
 42 52  1  0  0  0  0
 43 71  1  0  0  0  0
 44 46  1  0  0  0  0
 45 47  1  0  0  0  0
 45 48  1  0  0  0  0
 46 51  1  0  0  0  0
 47 53  1  0  0  0  0
 48 72  1  0  0  0  0
 49 53  1  0  0  0  0
 49 72  1  0  0  0  0
 50 54  1  0  0  0  0
 50 70  1  0  0  0  0
 51 75  1  0  0  0  0
 52 71  1  0  0  0  0
 53 69  1  0  0  0  0
 54 55  1  0  0  0  0
 54 87  1  0  0  0  0
 55 57  1  0  0  0  0
 55 58  1  0  0  0  0
 59 66  1  0  0  0  0
 60 67  1  0  0  0  0
 61 67  1  0  0  0  0
 62 67  1  0  0  0  0
 63 77  1  0  0  0  0
 64 78  1  0  0  0  0
 65 67  1  0  0  0  0
 65 76  1  0  0  0  0
 66 78  1  0  0  0  0
 68 69  1  0  0  0  0
M  CHG  1  78   1
M  ISO  4  40 100  54 101  77 100  87 101
M  END
> <Batch ID>
0072

> <Smiles>
CNC(C)C(=O)NC(C(=O)N1Cc2cc([101O:1][101CH:1]3CN(c4ccc([100N:0](C)[100C:0](=O)N5CCCC(n6nc(-c7ccc(Oc8ccc(F)cc8F)cc7)c(C(N)=O)c6N)C5)c(C(C)=O)c4)C(=O)C3(C)C)ccc2CC1C(=O)NC1CCCc2ccccc21)C(C)(C)C

> <Shape>
0.246

> <Color>
0.073

> <Negative vol penalty>
0.000

$$$$

  -OEChem-04042323383D

 87 95  0     1  0  0  0  0  0999 V2000
  -16.9263  -29.4629   24.5478 C   0  0  0  0  0  0  0  0  0  0  0  0
  -17.3479  -28.3081   23.8966 C   0  0  0  0  0  0  0  0  0  0  0  0
  -26.1425  -12.4922   22.2266 C   0  0  0  0  0  0  0  0  0  0  0  0
  -26.6372  -13.1520   19.9557 C   0  0  0  0  0  0  0  0  0  0  0  0
  -17.5227  -30.6873   24.2494 C   0  0  0  0  0  0  0  0  0  0  0  0
  -18.3655  -28.3772   22.9457 C   0  0  0  0  0  0  0  0  0  0  0  0
  -22.6524  -24.1490   21.8272 C   0  0  0  0  0  0  0  0  0  0  0  0
  -29.2960  -23.8156   18.5761 C   0  0  0  0  0  0  0  0  0  0  0  0
  -27.9944  -23.3562   18.3752 C   0  0  0  0  0  0  0  0  0  0  0  0
  -24.9202  -11.9668   21.8077 C   0  0  0  0  0  0  0  0  0  0  0  0
  -25.4149  -12.6266   19.5367 C   0  0  0  0  0  0  0  0  0  0  0  0
  -22.7561  -23.1519   20.8582 C   0  0  0  0  0  0  0  0  0  0  0  0
  -23.8068   -9.1662   20.2747 C   0  0  0  0  0  0  0  0  0  0  0  0
  -23.4417   -7.9096   20.7576 C   0  0  0  0  0  0  0  0  0  0  0  0
  -24.1080  -24.6190   19.5019 C   0  0  0  0  0  0  0  0  0  0  0  0
  -28.6668  -21.1443   19.0771 C   0  0  0  0  0  0  0  0  0  0  0  0
  -21.4637   -8.8693   21.7595 C   0  0  0  0  0  0  0  0  0  0  0  0
  -27.0010  -13.0849   21.3006 C   0  0  0  0  0  0  0  0  0  0  0  0
  -29.4981  -12.9557   21.8062 C   0  0  0  0  0  0  0  0  0  0  0  0
  -18.5548  -30.7700   23.3014 C   0  0  0  0  0  0  0  0  0  0  0  0
  -23.2676  -25.3945   21.6355 C   0  0  0  0  0  0  0  0  0  0  0  0
  -18.9754  -29.6041   22.6334 C   0  0  0  0  0  0  0  0  0  0  0  0
  -24.0127  -25.6293   20.4711 C   0  0  0  0  0  0  0  0  0  0  0  0
  -30.2830  -22.9394   19.0275 C   0  0  0  0  0  0  0  0  0  0  0  0
  -29.9684  -21.6038   19.2780 C   0  0  0  0  0  0  0  0  0  0  0  0
  -27.6798  -22.0206   18.6257 C   0  0  0  0  0  0  0  0  0  0  0  0
  -24.5564  -12.0340   20.4628 C   0  0  0  0  0  0  0  0  0  0  0  0
  -23.4816  -23.3878   19.6941 C   0  0  0  0  0  0  0  0  0  0  0  0
  -23.0004  -10.2744   20.5343 C   0  0  0  0  0  0  0  0  0  0  0  0
  -22.2702   -7.7611   21.5000 C   0  0  0  0  0  0  0  0  0  0  0  0
  -21.8289  -10.1259   21.2767 C   0  0  0  0  0  0  0  0  0  0  0  0
  -28.2635  -13.6283   21.7328 C   0  0  0  0  0  0  0  0  0  0  0  0
  -30.3776  -13.9023   22.2719 C   0  0  0  0  0  0  0  0  0  0  0  0
  -33.0275  -19.9172   18.4449 C   0  0  0  0  0  0  0  0  0  0  0  0
  -31.7043  -19.9044   18.6459 C   0  0  0  0  0  0  0  0  0  0  0  0
  -29.8210  -11.5969   21.4822 C   0  0  0  0  0  0  0  0  0  0  0  0
  -22.2370  -28.3915   21.3908 C   0  0  0  0  0  0  0  0  0  0  0  0
  -25.4091  -29.0701   21.3872 C   0  0  0  0  0  0  0  0  0  0  0  0
  -25.8744  -20.2652   18.6224 C   0  0  0  0  0  0  0  0  0  0  0  0
  -28.5975  -28.0120   20.7865 C   0  0  0  0  0  0  0  0  0  0  0  0
  -30.4222  -19.8856   22.0517 C   0  0  0  0  0  0  0  0  0  0  0  0
  -19.1366  -32.1233   22.9779 C   0  0  0  0  0  0  0  0  0  0  0  0
  -23.1685  -26.4502   22.7023 C   0  0  0  0  0  0  0  0  0  0  0  0
  -24.7090  -26.9422   20.2265 C   0  0  0  0  0  0  0  0  0  0  0  0
  -20.4653  -32.0519   22.2297 C   0  0  0  0  0  0  0  0  0  0  0  0
  -30.5480  -17.8498   24.9699 C   0  0  0  0  0  0  0  0  0  0  0  0
  -20.3808  -31.0455   21.0865 C   0  0  0  0  0  0  0  0  0  0  0  0
  -30.0881  -16.4763   24.4778 C   0  0  0  0  0  0  0  0  0  0  0  0
  -29.7962  -18.9804   24.2709 C   0  0  0  0  0  0  0  0  0  0  0  0
  -29.3715  -17.5558   22.3053 C   0  0  0  0  0  0  0  0  0  0  0  0
  -20.0933  -29.6346   21.6138 C   0  0  1  0  0  0  0  0  0  0  0  0
  -23.4062  -27.8605   22.1712 C   0  0  1  0  0  0  0  0  0  0  0  0
  -30.1405  -16.3849   22.9409 C   0  0  2  0  0  0  0  0  0  0  0  0
  -31.6696  -23.4543   19.2346 C   0  0  0  0  0  0  0  0  0  0  0  0
  -30.9784  -28.8032   20.8389 C   0  0  0  0  0  0  0  0  0  0  0  0
  -24.9450  -30.6297   18.8061 C   0  0  0  0  0  0  0  0  0  0  0  0
  -27.4169  -30.5775   18.4122 C   0  0  0  0  0  0  0  0  0  0  0  0
  -26.5005  -31.7312   20.4251 C   0  0  0  0  0  0  0  0  0  0  0  0
  -29.3514  -25.9772   22.7991 C   0  0  0  0  0  0  0  0  0  0  0  0
  -23.5427  -21.0630   19.1966 C   0  0  0  0  0  0  0  0  0  1  0  0
  -31.0083  -20.6481   19.7638 C   0  0  2  0  0  0  0  0  0  0  0  0
  -26.4723  -29.2051   20.3240 C   0  0  1  0  0  0  0  0  0  0  0  0
  -24.3898  -20.1769   18.2893 C   0  0  2  0  0  0  0  0  0  0  0  0
  -29.8658  -28.1151   21.6143 C   0  0  2  0  0  0  0  0  0  0  0  0
  -26.3190  -30.5117   19.4953 C   0  0  0  0  0  0  0  0  0  0  0  0
  -28.3472  -14.9035   22.1210 N   0  0  0  0  0  0  0  0  0  0  0  0
  -29.6449  -15.0399   22.4429 N   0  0  0  0  0  0  0  0  0  0  0  0
  -24.5773  -27.9451   21.2963 N   0  0  0  0  0  0  0  0  0  0  0  0
  -29.8862  -18.8361   22.8159 N   0  0  0  0  0  0  0  0  0  0  0  0
  -31.6985  -13.8642   22.5478 N   0  0  0  0  0  0  0  0  0  0  0  0
  -28.7978  -10.7597   21.0168 N   0  0  0  0  0  0  0  0  0  0  0  0
  -26.3590  -21.5545   18.4238 N   0  0  0  0  0  0  0  0  0  0  0  0
  -21.2957  -29.0453   22.1627 N   0  0  0  0  0  0  0  0  0  0  0  0
  -27.7537  -29.0794   21.0099 N   0  0  0  0  0  0  0  0  0  0  0  0
  -30.4771  -19.6645   20.6810 N   0  0  0  0  0  0  0  0  0  0  0  0
  -23.9123  -18.7689   18.4091 N   0  3  0  0  0  0  0  0  0  0  0  0
  -30.3382  -26.7580   22.0095 N   0  3  0  0  0  0  0  0  0  0  0  0
  -30.9790  -11.1341   21.6174 O   0  0  0  0  0  0  0  0  0  0  0  0
  -22.1930  -28.2218   20.1780 O   0  0  0  0  0  0  0  0  0  0  0  0
  -25.3245  -29.9274   22.2701 O   0  0  0  0  0  0  0  0  0  0  0  0
  -26.5042  -19.2865   19.0128 O   0  0  0  0  0  0  0  0  0  0  0  0
  -28.3790  -27.0799   20.0159 O   0  0  0  0  0  0  0  0  0  0  0  0
  -30.8272  -20.9394   22.5542 O   0  0  0  0  0  0  0  0  0  0  0  0
  -23.3638  -11.5212   20.0536 O   0  0  0  0  0  0  0  0  0  0  0  0
  -23.5839  -22.4166   18.7464 O   0  0  0  0  0  0  0  0  0  1  0  0
  -21.9189   -6.5540   21.9623 F   0  0  0  0  0  0  0  0  0  0  0  0
  -21.0495  -11.1867   21.5283 F   0  0  0  0  0  0  0  0  0  0  0  0
  1  2  1  0  0  0  0
  1  5  2  0  0  0  0
  2  6  2  0  0  0  0
  3 10  2  0  0  0  0
  3 18  1  0  0  0  0
  4 11  1  0  0  0  0
  4 18  2  0  0  0  0
  5 20  1  0  0  0  0
  6 22  1  0  0  0  0
  7 12  2  0  0  0  0
  7 21  1  0  0  0  0
  8  9  2  0  0  0  0
  8 24  1  0  0  0  0
  9 26  1  0  0  0  0
 10 27  1  0  0  0  0
 11 27  2  0  0  0  0
 12 28  1  0  0  0  0
 13 14  2  0  0  0  0
 13 29  1  0  0  0  0
 14 30  1  0  0  0  0
 15 23  1  0  0  0  0
 15 28  2  0  0  0  0
 16 25  1  0  0  0  0
 16 26  2  0  0  0  0
 17 30  2  0  0  0  0
 17 31  1  0  0  0  0
 18 32  1  0  0  0  0
 19 32  1  0  0  0  0
 19 33  2  0  0  0  0
 19 36  1  0  0  0  0
 20 22  2  0  0  0  0
 20 42  1  0  0  0  0
 21 23  2  0  0  0  0
 21 43  1  0  0  0  0
 22 51  1  0  0  0  0
 23 44  1  0  0  0  0
 24 25  2  0  0  0  0
 24 54  1  0  0  0  0
 25 61  1  0  0  0  0
 26 72  1  0  0  0  0
 27 84  1  0  0  0  0
 28 85  1  0  0  0  0
 29 31  2  0  0  0  0
 29 84  1  0  0  0  0
 30 86  1  0  0  0  0
 31 87  1  0  0  0  0
 32 66  2  0  0  0  0
 33 67  1  0  0  0  0
 33 70  1  0  0  0  0
 34 35  2  0  0  0  0
 35 61  1  0  0  0  0
 36 71  1  0  0  0  0
 36 78  2  0  0  0  0
 37 52  1  0  0  0  0
 37 73  1  0  0  0  0
 37 79  2  0  0  0  0
 38 62  1  0  0  0  0
 38 68  1  0  0  0  0
 38 80  2  0  0  0  0
 39 63  1  0  0  0  0
 39 72  1  0  0  0  0
 39 81  2  0  0  0  0
 40 64  1  0  0  0  0
 40 74  1  0  0  0  0
 40 82  2  0  0  0  0
 41 69  1  0  0  0  0
 41 75  1  0  0  0  0
 41 83  2  0  0  0  0
 42 45  1  0  0  0  0
 43 52  1  0  0  0  0
 44 68  1  0  0  0  0
 45 47  1  0  0  0  0
 46 48  1  0  0  0  0
 46 49  1  0  0  0  0
 47 51  1  0  0  0  0
 48 53  1  0  0  0  0
 49 69  1  0  0  0  0
 50 53  1  0  0  0  0
 50 69  1  0  0  0  0
 51 73  1  0  0  0  0
 52 68  1  0  0  0  0
 53 67  1  0  0  0  0
 55 64  1  0  0  0  0
 56 65  1  0  0  0  0
 57 65  1  0  0  0  0
 58 65  1  0  0  0  0
 59 77  1  0  0  0  0
 60 63  1  0  0  0  0
 60 85  1  0  0  0  0
 61 75  1  0  0  0  0
 62 65  1  0  0  0  0
 62 74  1  0  0  0  0
 63 76  1  0  0  0  0
 64 77  1  0  0  0  0
 66 67  1  0  0  0  0
M  CHG  2  76   1  77   1
M  ISO  4  41 100  60 101  75 100  85 101
M  END
> <Batch ID>
0072

> <Smiles>
C=CC([100NH:0][100C:0](=O)N1CCCC(n2nc(-c3ccc(Oc4ccc(F)cc4F)cc3)c(C(N)=O)c2N)C1)c1cc(NC(=O)C(N)[101CH2:1][101O:1]c2ccc3c(c2)CN(C(=O)C(NC(=O)C(C)NC)C(C)(C)C)C(C(=O)NC2CCCc4ccccc42)C3)ccc1C

> <Shape>
0.249

> <Color>
0.075

> <Negative vol penalty>
0.000

$$$$

  -OEChem-04042323383D

 86 95  0     1  0  0  0  0  0999 V2000
  -27.4289  -34.4638   25.4378 C   0  0  0  0  0  0  0  0  0  0  0  0
  -27.7178  -33.2252   24.8740 C   0  0  0  0  0  0  0  0  0  0  0  0
  -23.8782  -11.0186   17.9117 C   0  0  0  0  0  0  0  0  0  0  0  0
  -23.9095   -9.3019   19.6113 C   0  0  0  0  0  0  0  0  0  0  0  0
  -26.1269  -34.7589   25.8397 C   0  0  0  0  0  0  0  0  0  0  0  0
  -26.7049  -32.2805   24.7128 C   0  0  0  0  0  0  0  0  0  0  0  0
  -26.8295  -30.0556   20.1654 C   0  0  0  0  0  0  0  0  0  0  0  0
  -28.8522  -20.7544   22.0421 C   0  0  0  0  0  0  0  0  0  0  0  0
  -28.6288  -19.3963   22.2682 C   0  0  0  0  0  0  0  0  0  0  0  0
  -23.3722  -10.0995   16.9926 C   0  0  0  0  0  0  0  0  0  0  0  0
  -23.4034   -8.3827   18.6922 C   0  0  0  0  0  0  0  0  0  0  0  0
  -27.7824  -29.0565   19.9712 C   0  0  0  0  0  0  0  0  0  0  0  0
  -20.3852   -8.6928   16.2635 C   0  0  0  0  0  0  0  0  0  0  0  0
  -19.3236   -9.1009   15.4560 C   0  0  0  0  0  0  0  0  0  0  0  0
  -26.0882  -27.3783   20.3356 C   0  0  0  0  0  0  0  0  0  0  0  0
  -29.5883  -20.2593   19.7949 C   0  0  0  0  0  0  0  0  0  0  0  0
  -20.6676   -8.7036   13.4881 C   0  0  0  0  0  0  0  0  0  0  0  0
  -24.1469  -10.6198   19.2211 C   0  0  0  0  0  0  0  0  0  0  0  0
  -23.9334  -12.4057   21.0301 C   0  0  0  0  0  0  0  0  0  0  0  0
  -25.0956  -33.8209   25.6744 C   0  0  0  0  0  0  0  0  0  0  0  0
  -25.4989  -29.7231   20.4573 C   0  0  0  0  0  0  0  0  0  0  0  0
  -25.3881  -32.5628   25.1141 C   0  0  0  0  0  0  0  0  0  0  0  0
  -25.1198  -28.3751   20.5305 C   0  0  0  0  0  0  0  0  0  0  0  0
  -29.3649  -18.9011   20.0210 C   0  0  0  0  0  0  0  0  0  0  0  0
  -29.3319  -21.1860   20.8054 C   0  0  0  0  0  0  0  0  0  0  0  0
  -28.8852  -18.4696   21.2577 C   0  0  0  0  0  0  0  0  0  0  0  0
  -23.1348   -8.7816   17.3828 C   0  0  0  0  0  0  0  0  0  0  0  0
  -27.4124  -27.7177   20.0592 C   0  0  0  0  0  0  0  0  0  0  0  0
  -21.5881   -8.2901   15.6833 C   0  0  0  0  0  0  0  0  0  0  0  0
  -19.4648   -9.1063   14.0684 C   0  0  0  0  0  0  0  0  0  0  0  0
  -21.7293   -8.2955   14.2956 C   0  0  0  0  0  0  0  0  0  0  0  0
  -24.6701  -11.5687   20.1708 C   0  0  0  0  0  0  0  0  0  0  0  0
  -24.8869  -13.1094   21.7246 C   0  0  0  0  0  0  0  0  0  0  0  0
  -30.0290  -23.1713   19.4092 C   0  0  0  0  0  0  0  0  0  0  0  0
  -22.5141  -12.5355   21.1867 C   0  0  0  0  0  0  0  0  0  0  0  0
  -23.5431  -30.2422   22.9087 C   0  0  0  0  0  0  0  0  0  0  0  0
  -21.3510  -28.8774   20.9454 C   0  0  0  0  0  0  0  0  0  0  0  0
  -20.7157  -26.8157   18.3011 C   0  0  0  0  0  0  0  0  0  0  0  0
  -29.6874  -16.1194   21.4256 C   0  0  0  0  0  0  0  0  0  0  0  0
  -23.7131  -34.1677   26.1674 C   0  0  0  0  0  0  0  0  0  0  0  0
  -24.4775  -30.8124   20.6376 C   0  0  0  0  0  0  0  0  0  0  0  0
  -23.7000  -27.9652   20.8214 C   0  0  0  0  0  0  0  0  0  0  0  0
  -22.6228  -33.2513   25.6179 C   0  0  0  0  0  0  0  0  0  0  0  0
  -29.8878  -12.4865   22.0356 C   0  0  0  0  0  0  0  0  0  0  0  0
  -23.0484  -31.7905   25.7265 C   0  0  0  0  0  0  0  0  0  0  0  0
  -28.5059  -11.9931   21.6102 C   0  0  0  0  0  0  0  0  0  0  0  0
  -30.3111  -13.7280   21.2561 C   0  0  0  0  0  0  0  0  0  0  0  0
  -27.9418  -14.3509   20.8973 C   0  0  0  0  0  0  0  0  0  0  0  0
  -29.3986  -23.5674   21.6015 C   0  0  0  0  0  0  0  0  0  0  0  0
  -24.3116  -31.5210   24.8999 C   0  0  1  0  0  0  0  0  0  0  0  0
  -23.2592  -30.3626   21.4382 C   0  0  1  0  0  0  0  0  0  0  0  0
  -27.4687  -13.1263   21.6950 C   0  0  1  0  0  0  0  0  0  0  0  0
  -29.4963  -24.8770   20.8487 C   0  0  2  0  0  0  0  0  0  0  0  0
  -29.6461  -17.9307   18.9200 C   0  0  0  0  0  0  0  0  0  0  0  0
  -18.8236  -25.8661   16.9538 C   0  0  0  0  0  0  0  0  0  0  0  0
  -20.7169  -26.9339   23.2104 C   0  0  0  0  0  0  0  0  0  0  0  0
  -19.5650  -25.4696   21.5380 C   0  0  0  0  0  0  0  0  0  0  0  0
  -18.7167  -27.7758   21.9675 C   0  0  0  0  0  0  0  0  0  0  0  0
  -27.3609  -16.6729   22.0973 C   0  0  0  0  0  0  0  0  0  0  0  0
  -21.6996  -28.0803   15.8127 C   0  0  0  0  0  0  0  0  0  0  0  0
  -28.1426  -25.5129   20.5710 C   0  0  0  0  0  0  0  0  0  1  0  0
  -20.8761  -27.4675   20.6893 C   0  0  1  0  0  0  0  0  0  0  0  0
  -19.8389  -26.9918   17.0744 C   0  0  2  0  0  0  0  0  0  0  0  0
  -19.9959  -26.9191   21.8477 C   0  0  0  0  0  0  0  0  0  0  0  0
  -25.9898  -11.7250   20.3052 N   0  0  0  0  0  0  0  0  0  0  0  0
  -26.0898  -12.6685   21.2569 N   0  0  0  0  0  0  0  0  0  0  0  0
  -29.5574  -22.5737   20.5738 N   0  0  0  0  0  0  0  0  0  0  0  0
  -22.7393  -29.0670   20.9962 N   0  0  0  0  0  0  0  0  0  0  0  0
  -29.2878  -14.7724   21.3152 N   0  0  0  0  0  0  0  0  0  0  0  0
  -24.8052  -14.0562   22.6834 N   0  0  0  0  0  0  0  0  0  0  0  0
  -21.6787  -11.7366   20.3941 N   0  0  0  0  0  0  0  0  0  0  0  0
  -23.9827  -31.4139   23.4946 N   0  0  0  0  0  0  0  0  0  0  0  0
  -20.2097  -27.4906   19.3918 N   0  0  0  0  0  0  0  0  0  0  0  0
  -28.6458  -17.0685   21.5112 N   0  0  0  0  0  0  0  0  0  0  0  0
  -20.6729  -27.0069   15.8394 N   0  3  0  0  0  0  0  0  0  0  0  0
  -30.3659  -22.6557   18.3527 O   0  0  0  0  0  0  0  0  0  0  0  0
  -22.0018  -13.3479   21.9935 O   0  0  0  0  0  0  0  0  0  0  0  0
  -23.3744  -29.1663   23.4705 O   0  0  0  0  0  0  0  0  0  0  0  0
  -20.5209  -29.7787   21.0878 O   0  0  0  0  0  0  0  0  0  0  0  0
  -21.7446  -26.1434   18.2935 O   0  0  0  0  0  0  0  0  0  0  0  0
  -30.8798  -16.4444   21.4740 O   0  0  0  0  0  0  0  0  0  0  0  0
  -30.1105  -24.5314   19.5982 O   0  0  0  0  0  0  0  0  0  0  0  0
  -22.6408   -7.8845   16.4863 O   0  0  0  0  0  0  0  0  0  0  0  0
  -28.3406  -26.7405   19.8708 O   0  0  0  0  0  0  0  0  0  1  0  0
  -18.4447   -9.4968   13.2930 F   0  0  0  0  0  0  0  0  0  0  0  0
  -22.8821   -7.9087   13.7324 F   0  0  0  0  0  0  0  0  0  0  0  0
  1  2  1  0  0  0  0
  1  5  2  0  0  0  0
  2  6  2  0  0  0  0
  3 10  2  0  0  0  0
  3 18  1  0  0  0  0
  4 11  1  0  0  0  0
  4 18  2  0  0  0  0
  5 20  1  0  0  0  0
  6 22  1  0  0  0  0
  7 12  2  0  0  0  0
  7 21  1  0  0  0  0
  8  9  2  0  0  0  0
  8 25  1  0  0  0  0
  9 26  1  0  0  0  0
 10 27  1  0  0  0  0
 11 27  2  0  0  0  0
 12 28  1  0  0  0  0
 13 14  2  0  0  0  0
 13 29  1  0  0  0  0
 14 30  1  0  0  0  0
 15 23  1  0  0  0  0
 15 28  2  0  0  0  0
 16 24  1  0  0  0  0
 16 25  2  0  0  0  0
 17 30  2  0  0  0  0
 17 31  1  0  0  0  0
 18 32  1  0  0  0  0
 19 32  1  0  0  0  0
 19 33  2  0  0  0  0
 19 35  1  0  0  0  0
 20 22  2  0  0  0  0
 20 40  1  0  0  0  0
 21 23  2  0  0  0  0
 21 41  1  0  0  0  0
 22 50  1  0  0  0  0
 23 42  1  0  0  0  0
 24 26  2  0  0  0  0
 24 54  1  0  0  0  0
 25 67  1  0  0  0  0
 26 74  1  0  0  0  0
 27 83  1  0  0  0  0
 28 84  1  0  0  0  0
 29 31  2  0  0  0  0
 29 83  1  0  0  0  0
 30 85  1  0  0  0  0
 31 86  1  0  0  0  0
 32 65  2  0  0  0  0
 33 66  1  0  0  0  0
 33 70  1  0  0  0  0
 34 67  1  0  0  0  0
 34 76  2  0  0  0  0
 34 82  1  0  0  0  0
 35 71  1  0  0  0  0
 35 77  2  0  0  0  0
 36 51  1  0  0  0  0
 36 72  1  0  0  0  0
 36 78  2  0  0  0  0
 37 62  1  0  0  0  0
 37 68  1  0  0  0  0
 37 79  2  0  0  0  0
 38 63  1  0  0  0  0
 38 73  1  0  0  0  0
 38 80  2  0  0  0  0
 39 69  1  0  0  0  0
 39 74  1  0  0  0  0
 39 81  2  0  0  0  0
 40 43  1  0  0  0  0
 41 51  1  0  0  0  0
 42 68  1  0  0  0  0
 43 45  1  0  0  0  0
 44 46  1  0  0  0  0
 44 47  1  0  0  0  0
 45 50  1  0  0  0  0
 46 52  1  0  0  0  0
 47 69  1  0  0  0  0
 48 52  1  0  0  0  0
 48 69  1  0  0  0  0
 49 53  1  0  0  0  0
 49 67  1  0  0  0  0
 50 72  1  0  0  0  0
 51 68  1  0  0  0  0
 52 66  1  0  0  0  0
 53 61  1  0  0  0  0
 53 82  1  0  0  0  0
 55 63  1  0  0  0  0
 56 64  1  0  0  0  0
 57 64  1  0  0  0  0
 58 64  1  0  0  0  0
 59 74  1  0  0  0  0
 60 75  1  0  0  0  0
 61 84  1  0  0  0  0
 62 64  1  0  0  0  0
 62 73  1  0  0  0  0
 63 75  1  0  0  0  0
 65 66  1  0  0  0  0
M  CHG  1  75   1
M  ISO  4  39 100  61 101  74 100  84 101
M  END
> <Batch ID>
0072

> <Smiles>
CNC(C)C(=O)NC(C(=O)N1Cc2cc([101O:1][101CH2:1]C3CN(c4ccc([100N:0](C)[100C:0](=O)N5CCCC(n6nc(-c7ccc(Oc8ccc(F)cc8F)cc7)c(C(N)=O)c6N)C5)c(C)c4)C(=O)O3)ccc2CC1C(=O)NC1CCCc2ccccc21)C(C)(C)C

> <Shape>
0.310

> <Color>
0.096

> <Negative vol penalty>
0.000

$$$$

  -OEChem-04042323383D

 83 91  0     1  0  0  0  0  0999 V2000
  -23.5153   -7.0324   23.5408 C   0  0  0  0  0  0  0  0  0  0  0  0
  -24.1775   -7.8551   22.6353 C   0  0  0  0  0  0  0  0  0  0  0  0
  -24.9108  -30.9433   21.0497 C   0  0  0  0  0  0  0  0  0  0  0  0
  -24.8540  -29.2426   22.7648 C   0  0  0  0  0  0  0  0  0  0  0  0
  -29.5285  -20.0581   19.2024 C   0  0  0  0  0  0  0  0  0  0  0  0
  -27.7149  -18.8667   18.1402 C   0  0  0  0  0  0  0  0  0  0  0  0
  -22.1344   -7.1419   23.6997 C   0  0  0  0  0  0  0  0  0  0  0  0
  -23.4590   -8.7871   21.8872 C   0  0  0  0  0  0  0  0  0  0  0  0
  -25.7178  -13.3172   21.7405 C   0  0  0  0  0  0  0  0  0  0  0  0
  -28.9036  -21.2703   18.9099 C   0  0  0  0  0  0  0  0  0  0  0  0
  -27.0899  -20.0789   17.8476 C   0  0  0  0  0  0  0  0  0  0  0  0
  -24.2631  -31.8311   21.9086 C   0  0  0  0  0  0  0  0  0  0  0  0
  -24.2063  -30.1305   23.6238 C   0  0  0  0  0  0  0  0  0  0  0  0
  -26.7977  -13.4623   20.8707 C   0  0  0  0  0  0  0  0  0  0  0  0
  -22.9473  -34.6602   23.7741 C   0  0  0  0  0  0  0  0  0  0  0  0
  -23.4388  -35.9633   23.8509 C   0  0  0  0  0  0  0  0  0  0  0  0
  -25.3540  -14.5422   19.2680 C   0  0  0  0  0  0  0  0  0  0  0  0
  -25.5722  -35.1144   24.6025 C   0  0  0  0  0  0  0  0  0  0  0  0
  -25.2062  -29.6490   21.4778 C   0  0  0  0  0  0  0  0  0  0  0  0
  -28.9342  -18.8563   18.8175 C   0  0  0  0  0  0  0  0  0  0  0  0
  -27.2629  -28.5432   20.4506 C   0  0  0  0  0  0  0  0  0  0  0  0
  -21.4000   -8.0824   22.9602 C   0  0  0  0  0  0  0  0  0  0  0  0
  -24.4434  -13.7744   21.3754 C   0  0  0  0  0  0  0  0  0  0  0  0
  -22.0669   -8.9084   22.0353 C   0  0  0  0  0  0  0  0  0  0  0  0
  -24.2601  -14.4039   20.1359 C   0  0  0  0  0  0  0  0  0  0  0  0
  -27.6842  -21.2807   18.2325 C   0  0  0  0  0  0  0  0  0  0  0  0
  -23.9109  -31.4248   23.1956 C   0  0  0  0  0  0  0  0  0  0  0  0
  -26.6153  -14.0723   19.6331 C   0  0  0  0  0  0  0  0  0  0  0  0
  -23.7682  -33.5841   24.1116 C   0  0  0  0  0  0  0  0  0  0  0  0
  -24.7513  -36.1904   24.2650 C   0  0  0  0  0  0  0  0  0  0  0  0
  -25.0807  -33.8112   24.5258 C   0  0  0  0  0  0  0  0  0  0  0  0
  -25.8748  -28.7311   20.5908 C   0  0  0  0  0  0  0  0  0  0  0  0
  -27.3821  -27.5690   19.4898 C   0  0  0  0  0  0  0  0  0  0  0  0
  -29.6000  -17.5652   19.1289 C   0  0  0  0  0  0  0  0  0  0  0  0
  -28.3475  -29.1912   21.1284 C   0  0  0  0  0  0  0  0  0  0  0  0
  -21.6134  -12.4012   20.9184 C   0  0  0  0  0  0  0  0  0  0  0  0
  -20.6144  -15.4694   20.5857 C   0  0  0  0  0  0  0  0  0  0  0  0
  -21.3955  -18.7051   19.8330 C   0  0  0  0  0  0  0  0  0  0  0  0
  -25.8388  -22.7008   17.2712 C   0  0  0  0  0  0  0  0  0  0  0  0
  -19.9024   -8.1314   23.1318 C   0  0  0  0  0  0  0  0  0  0  0  0
  -23.2944  -13.6343   22.3359 C   0  0  0  0  0  0  0  0  0  0  0  0
  -22.9164  -14.9302   19.7049 C   0  0  0  0  0  0  0  0  0  0  0  0
  -19.2667   -9.4021   22.5736 C   0  0  0  0  0  0  0  0  0  0  0  0
  -23.9250  -25.5681   16.3807 C   0  0  0  0  0  0  0  0  0  0  0  0
  -19.8124   -9.7050   21.1818 C   0  0  0  0  0  0  0  0  0  0  0  0
  -24.3758  -26.6311   17.3851 C   0  0  0  0  0  0  0  0  0  0  0  0
  -23.8586  -24.1801   17.0154 C   0  0  0  0  0  0  0  0  0  0  0  0
  -25.5355  -24.8145   18.7050 C   0  0  0  0  0  0  0  0  0  0  0  0
  -21.3258   -9.9487   21.2237 C   0  0  1  0  0  0  0  0  0  0  0  0
  -21.9329  -13.6748   21.6489 C   0  0  1  0  0  0  0  0  0  0  0  0
  -25.6801  -26.2184   18.0952 C   0  0  2  0  0  0  0  0  0  0  0  0
  -20.3611  -20.9805   19.6097 C   0  0  0  0  0  0  0  0  0  0  0  0
  -30.0539  -14.5157   17.1057 C   0  0  0  0  0  0  0  0  0  0  0  0
  -19.3997  -14.6518   17.9087 C   0  0  0  0  0  0  0  0  0  0  0  0
  -19.2380  -17.0798   17.3197 C   0  0  0  0  0  0  0  0  0  0  0  0
  -17.9744  -16.1859   19.2760 C   0  0  0  0  0  0  0  0  0  0  0  0
  -23.1117  -19.8225   21.9697 C   0  0  0  0  0  0  0  0  0  0  0  0
  -28.9614  -14.3568   19.3669 C   0  0  0  0  0  0  0  0  0  1  0  0
  -20.4859  -16.4325   19.4303 C   0  0  1  0  0  0  0  0  0  0  0  0
  -21.0728  -20.0097   20.5390 C   0  0  2  0  0  0  0  0  0  0  0  0
  -29.8615  -15.1910   18.4572 C   0  0  2  0  0  0  0  0  0  0  0  0
  -19.2995  -16.0759   18.4907 C   0  0  0  0  0  0  0  0  0  0  0  0
  -25.1632  -27.9400   19.7835 N   0  0  0  0  0  0  0  0  0  0  0  0
  -26.1079  -27.2455   19.1267 N   0  0  0  0  0  0  0  0  0  0  0  0
  -21.8227  -14.7640   20.6764 N   0  0  0  0  0  0  0  0  0  0  0  0
  -25.1303  -23.8555   17.6653 N   0  0  0  0  0  0  0  0  0  0  0  0
  -28.4517  -26.9662   18.9284 N   0  0  0  0  0  0  0  0  0  0  0  0
  -28.0477  -30.1688   22.0868 N   0  0  0  0  0  0  0  0  0  0  0  0
  -27.0501  -22.5127   17.9360 N   0  0  0  0  0  0  0  0  0  0  0  0
  -29.3114  -16.5147   18.2724 N   0  0  0  0  0  0  0  0  0  0  0  0
  -21.6103  -11.2772   21.7222 N   0  0  0  0  0  0  0  0  0  0  0  0
  -20.4034  -17.7655   20.0174 N   0  0  0  0  0  0  0  0  0  0  0  0
  -22.3230  -20.6574   21.0274 N   0  3  0  0  0  0  0  0  0  0  0  0
  -30.3336  -17.4899   20.1110 O   0  0  0  0  0  0  0  0  0  0  0  0
  -29.5474  -28.9232   20.8794 O   0  0  0  0  0  0  0  0  0  0  0  0
  -21.3850  -12.4359   19.7149 O   0  0  0  0  0  0  0  0  0  0  0  0
  -19.6801  -15.3527   21.3825 O   0  0  0  0  0  0  0  0  0  0  0  0
  -22.4232  -18.5377   19.1799 O   0  0  0  0  0  0  0  0  0  0  0  0
  -25.4162  -21.9499   16.3883 O   0  0  0  0  0  0  0  0  0  0  0  0
  -23.2790  -32.2910   24.0341 O   0  0  0  0  0  0  0  0  0  0  0  0
  -27.6676  -14.2146   18.7820 O   0  0  0  0  0  0  0  0  0  1  0  0
  -25.2236  -37.4418   24.3372 F   0  0  0  0  0  0  0  0  0  0  0  0
  -25.8745  -32.7814   24.8501 F   0  0  0  0  0  0  0  0  0  0  0  0
  1  2  1  0  0  0  0
  1  7  2  0  0  0  0
  2  8  2  0  0  0  0
  3 12  2  0  0  0  0
  3 19  1  0  0  0  0
  4 13  1  0  0  0  0
  4 19  2  0  0  0  0
  5 10  2  0  0  0  0
  5 20  1  0  0  0  0
  6 11  1  0  0  0  0
  6 20  2  0  0  0  0
  7 22  1  0  0  0  0
  8 24  1  0  0  0  0
  9 14  2  0  0  0  0
  9 23  1  0  0  0  0
 10 26  1  0  0  0  0
 11 26  2  0  0  0  0
 12 27  1  0  0  0  0
 13 27  2  0  0  0  0
 14 28  1  0  0  0  0
 15 16  2  0  0  0  0
 15 29  1  0  0  0  0
 16 30  1  0  0  0  0
 17 25  1  0  0  0  0
 17 28  2  0  0  0  0
 18 30  2  0  0  0  0
 18 31  1  0  0  0  0
 19 32  1  0  0  0  0
 20 34  1  0  0  0  0
 21 32  1  0  0  0  0
 21 33  2  0  0  0  0
 21 35  1  0  0  0  0
 22 24  2  0  0  0  0
 22 40  1  0  0  0  0
 23 25  2  0  0  0  0
 23 41  1  0  0  0  0
 24 49  1  0  0  0  0
 25 42  1  0  0  0  0
 26 69  1  0  0  0  0
 27 80  1  0  0  0  0
 28 81  1  0  0  0  0
 29 31  2  0  0  0  0
 29 80  1  0  0  0  0
 30 82  1  0  0  0  0
 31 83  1  0  0  0  0
 32 63  2  0  0  0  0
 33 64  1  0  0  0  0
 33 67  1  0  0  0  0
 34 70  1  0  0  0  0
 34 74  2  0  0  0  0
 35 68  1  0  0  0  0
 35 75  2  0  0  0  0
 36 50  1  0  0  0  0
 36 71  1  0  0  0  0
 36 76  2  0  0  0  0
 37 59  1  0  0  0  0
 37 65  1  0  0  0  0
 37 77  2  0  0  0  0
 38 60  1  0  0  0  0
 38 72  1  0  0  0  0
 38 78  2  0  0  0  0
 39 66  1  0  0  0  0
 39 69  1  0  0  0  0
 39 79  2  0  0  0  0
 40 43  1  0  0  0  0
 41 50  1  0  0  0  0
 42 65  1  0  0  0  0
 43 45  1  0  0  0  0
 44 46  1  0  0  0  0
 44 47  1  0  0  0  0
 45 49  1  0  0  0  0
 46 51  1  0  0  0  0
 47 66  1  0  0  0  0
 48 51  1  0  0  0  0
 48 66  1  0  0  0  0
 49 71  1  0  0  0  0
 50 65  1  0  0  0  0
 51 64  1  0  0  0  0
 52 60  1  0  0  0  0
 53 61  1  0  0  0  0
 54 62  1  0  0  0  0
 55 62  1  0  0  0  0
 56 62  1  0  0  0  0
 57 73  1  0  0  0  0
 58 61  1  0  0  0  0
 58 81  1  0  0  0  0
 59 62  1  0  0  0  0
 59 72  1  0  0  0  0
 60 73  1  0  0  0  0
 61 70  1  0  0  0  0
 63 64  1  0  0  0  0
M  CHG  1  73   1
M  ISO  4  39 100  58 101  69 100  81 101
M  END
> <Batch ID>
0072

> <Smiles>
CNC(C)C(=O)NC(C(=O)N1Cc2cc([101O:1][101CH2:1]C(C)NC(=O)c3ccc([100NH:0][100C:0](=O)N4CCCC(n5nc(-c6ccc(Oc7ccc(F)cc7F)cc6)c(C(N)=O)c5N)C4)cc3)ccc2CC1C(=O)NC1CCCc2ccccc21)C(C)(C)C

> <Shape>
0.244

> <Color>
0.063

> <Negative vol penalty>
0.000

$$$$

  -OEChem-04042323383D

 88 97  0     1  0  0  0  0  0999 V2000
  -24.1945  -36.3368   16.1435 C   0  0  0  0  0  0  0  0  0  0  0  0
  -24.7820  -35.0764   16.1026 C   0  0  0  0  0  0  0  0  0  0  0  0
  -24.5034   -8.6981   20.1571 C   0  0  0  0  0  0  0  0  0  0  0  0
  -22.9499  -10.3799   20.9287 C   0  0  0  0  0  0  0  0  0  0  0  0
  -24.1538  -37.0471   17.3425 C   0  0  0  0  0  0  0  0  0  0  0  0
  -25.3301  -34.5261   17.2607 C   0  0  0  0  0  0  0  0  0  0  0  0
  -25.3852  -28.6141   18.8579 C   0  0  0  0  0  0  0  0  0  0  0  0
  -23.7391   -7.7085   20.7751 C   0  0  0  0  0  0  0  0  0  0  0  0
  -22.1855   -9.3903   21.5467 C   0  0  0  0  0  0  0  0  0  0  0  0
  -26.3602  -27.6231   18.7527 C   0  0  0  0  0  0  0  0  0  0  0  0
  -20.8863   -6.0067   20.1438 C   0  0  0  0  0  0  0  0  0  0  0  0
  -20.6236   -4.8438   19.4198 C   0  0  0  0  0  0  0  0  0  0  0  0
  -27.0373  -28.0562   21.0271 C   0  0  0  0  0  0  0  0  0  0  0  0
  -26.6513  -21.3245   18.3433 C   0  0  0  0  0  0  0  0  0  0  0  0
  -27.8928  -19.7090   19.6418 C   0  0  0  0  0  0  0  0  0  0  0  0
  -21.7371   -3.5349   21.1181 C   0  0  0  0  0  0  0  0  0  0  0  0
  -24.1089  -10.0339   20.2339 C   0  0  0  0  0  0  0  0  0  0  0  0
  -24.7641  -11.5370   18.2796 C   0  0  0  0  0  0  0  0  0  0  0  0
  -24.6931  -36.5011   18.5180 C   0  0  0  0  0  0  0  0  0  0  0  0
  -25.2359  -29.3423   20.0470 C   0  0  0  0  0  0  0  0  0  0  0  0
  -25.2978  -35.2303   18.4763 C   0  0  0  0  0  0  0  0  0  0  0  0
  -26.0579  -29.0542   21.1457 C   0  0  0  0  0  0  0  0  0  0  0  0
  -26.0742  -20.2896   17.6074 C   0  0  0  0  0  0  0  0  0  0  0  0
  -27.5607  -21.0343   19.3604 C   0  0  0  0  0  0  0  0  0  0  0  0
  -27.3156  -18.6741   18.9060 C   0  0  0  0  0  0  0  0  0  0  0  0
  -22.5801   -8.0546   21.4699 C   0  0  0  0  0  0  0  0  0  0  0  0
  -27.1883  -27.3460   19.8364 C   0  0  0  0  0  0  0  0  0  0  0  0
  -21.5745   -5.9338   21.3549 C   0  0  0  0  0  0  0  0  0  0  0  0
  -21.0489   -3.6079   19.9069 C   0  0  0  0  0  0  0  0  0  0  0  0
  -21.9999   -4.6979   21.8421 C   0  0  0  0  0  0  0  0  0  0  0  0
  -26.4063  -18.9644   17.8888 C   0  0  0  0  0  0  0  0  0  0  0  0
  -24.8983  -11.0567   19.5961 C   0  0  0  0  0  0  0  0  0  0  0  0
  -25.7414  -12.4948   18.1623 C   0  0  0  0  0  0  0  0  0  0  0  0
  -29.0811  -21.9615   21.1661 C   0  0  0  0  0  0  0  0  0  0  0  0
  -23.8386  -11.1518   17.2546 C   0  0  0  0  0  0  0  0  0  0  0  0
  -25.5053  -32.4061   20.8498 C   0  0  0  0  0  0  0  0  0  0  0  0
  -24.3898  -31.3524   23.7077 C   0  0  0  0  0  0  0  0  0  0  0  0
  -24.0038  -28.7555   25.8880 C   0  0  0  0  0  0  0  0  0  0  0  0
  -28.5392  -16.8705   20.1694 C   0  0  0  0  0  0  0  0  0  0  0  0
  -24.6677  -37.3266   19.7800 C   0  0  0  0  0  0  0  0  0  0  0  0
  -24.1617  -30.3897   20.1532 C   0  0  0  0  0  0  0  0  0  0  0  0
  -25.9248  -29.7934   22.4512 C   0  0  0  0  0  0  0  0  0  0  0  0
  -24.9368  -36.5147   21.0443 C   0  0  0  0  0  0  0  0  0  0  0  0
  -29.6138  -13.6408   21.2141 C   0  0  0  0  0  0  0  0  0  0  0  0
  -26.1385  -35.5968   20.8437 C   0  0  0  0  0  0  0  0  0  0  0  0
  -28.4718  -12.7201   20.7780 C   0  0  0  0  0  0  0  0  0  0  0  0
  -29.0974  -14.9940   21.6998 C   0  0  0  0  0  0  0  0  0  0  0  0
  -27.7978  -23.4836   19.8911 C   0  0  0  0  0  0  0  0  0  0  0  0
  -27.0636  -14.7698   20.3278 C   0  0  0  0  0  0  0  0  0  0  0  0
  -25.8810  -34.5892   19.7168 C   0  0  1  0  0  0  0  0  0  0  0  0
  -24.4394  -31.4221   21.2415 C   0  0  1  0  0  0  0  0  0  0  0  0
  -28.9107  -24.2658   20.5776 C   0  0  2  0  0  0  0  0  0  0  0  0
  -27.5387  -13.4185   19.7694 C   0  0  2  0  0  0  0  0  0  0  0  0
  -29.3080  -23.3558   21.7571 C   0  0  0  0  0  0  0  0  0  0  0  0
  -25.1015  -20.6039   16.5211 C   0  0  0  0  0  0  0  0  0  0  0  0
  -28.4093  -23.4997   22.9934 C   0  0  0  0  0  0  0  0  0  0  0  0
  -30.7729  -23.5506   22.1521 C   0  0  0  0  0  0  0  0  0  0  0  0
  -23.0866  -28.2099   28.1592 C   0  0  0  0  0  0  0  0  0  0  0  0
  -26.8083  -32.6883   25.0026 C   0  0  0  0  0  0  0  0  0  0  0  0
  -26.3644  -31.3365   27.0627 C   0  0  0  0  0  0  0  0  0  0  0  0
  -24.6633  -32.9733   26.2565 C   0  0  0  0  0  0  0  0  0  0  0  0
  -22.0707  -26.8140   24.7687 C   0  0  0  0  0  0  0  0  0  0  0  0
  -28.4902  -25.6850   20.9328 C   0  0  0  0  0  0  0  0  0  1  0  0
  -25.0216  -30.8247   24.9732 C   0  0  1  0  0  0  0  0  0  0  0  0
  -22.7968  -28.2655   26.6674 C   0  0  2  0  0  0  0  0  0  0  0  0
  -25.7184  -31.9429   25.7987 C   0  0  0  0  0  0  0  0  0  0  0  0
  -25.8834  -11.6595   20.2670 N   0  0  0  0  0  0  0  0  0  0  0  0
  -26.3772  -12.5284   19.3685 N   0  0  0  0  0  0  0  0  0  0  0  0
  -28.1512  -22.0938   20.1138 N   0  0  0  0  0  0  0  0  0  0  0  0
  -24.8638  -30.8128   22.5036 N   0  0  0  0  0  0  0  0  0  0  0  0
  -28.2240  -15.5981   20.6913 N   0  0  0  0  0  0  0  0  0  0  0  0
  -26.1106  -13.3031   17.1460 N   0  0  0  0  0  0  0  0  0  0  0  0
  -22.9002  -10.1516   17.5431 N   0  0  0  0  0  0  0  0  0  0  0  0
  -27.6547  -17.3287   19.1935 N   0  0  0  0  0  0  0  0  0  0  0  0
  -25.0271  -33.5176   20.1824 N   0  0  0  0  0  0  0  0  0  0  0  0
  -23.9664  -30.1200   25.6931 N   0  0  0  0  0  0  0  0  0  0  0  0
  -22.4062  -26.9008   26.2134 N   0  3  0  0  0  0  0  0  0  0  0  0
  -29.6005  -20.9518   21.6217 O   0  0  0  0  0  0  0  0  0  0  0  0
  -23.8543  -11.6675   16.1111 O   0  0  0  0  0  0  0  0  0  0  0  0
  -26.6748  -32.1747   21.1333 O   0  0  0  0  0  0  0  0  0  0  0  0
  -23.5033  -32.2066   23.7852 O   0  0  0  0  0  0  0  0  0  0  0  0
  -24.8930  -28.0035   25.4950 O   0  0  0  0  0  0  0  0  0  0  0  0
  -29.5366  -17.4950   20.5399 O   0  0  0  0  0  0  0  0  0  0  0  0
  -21.8339   -7.0891   22.0730 O   0  0  0  0  0  0  0  0  0  0  0  0
  -28.1412  -26.3796   19.7362 O   0  0  0  0  0  0  0  0  0  1  0  0
  -20.7952   -2.4911   19.2123 F   0  0  0  0  0  0  0  0  0  0  0  0
  -22.6604   -4.6214   23.0055 F   0  0  0  0  0  0  0  0  0  0  0  0
  -25.8503  -17.9707   17.1794 F   0  0  0  0  0  0  0  0  0  0  0  0
  1  2  1  0  0  0  0
  1  5  2  0  0  0  0
  2  6  2  0  0  0  0
  3  8  2  0  0  0  0
  3 17  1  0  0  0  0
  4  9  1  0  0  0  0
  4 17  2  0  0  0  0
  5 19  1  0  0  0  0
  6 21  1  0  0  0  0
  7 10  2  0  0  0  0
  7 20  1  0  0  0  0
  8 26  1  0  0  0  0
  9 26  2  0  0  0  0
 10 27  1  0  0  0  0
 11 12  2  0  0  0  0
 11 28  1  0  0  0  0
 12 29  1  0  0  0  0
 13 22  1  0  0  0  0
 13 27  2  0  0  0  0
 14 23  2  0  0  0  0
 14 24  1  0  0  0  0
 15 24  2  0  0  0  0
 15 25  1  0  0  0  0
 16 29  2  0  0  0  0
 16 30  1  0  0  0  0
 17 32  1  0  0  0  0
 18 32  1  0  0  0  0
 18 33  2  0  0  0  0
 18 35  1  0  0  0  0
 19 21  2  0  0  0  0
 19 40  1  0  0  0  0
 20 22  2  0  0  0  0
 20 41  1  0  0  0  0
 21 50  1  0  0  0  0
 22 42  1  0  0  0  0
 23 31  1  0  0  0  0
 23 55  1  0  0  0  0
 24 69  1  0  0  0  0
 25 31  2  0  0  0  0
 25 74  1  0  0  0  0
 26 84  1  0  0  0  0
 27 85  1  0  0  0  0
 28 30  2  0  0  0  0
 28 84  1  0  0  0  0
 29 86  1  0  0  0  0
 30 87  1  0  0  0  0
 31 88  1  0  0  0  0
 32 67  2  0  0  0  0
 33 68  1  0  0  0  0
 33 72  1  0  0  0  0
 34 54  1  0  0  0  0
 34 69  1  0  0  0  0
 34 78  2  0  0  0  0
 35 73  1  0  0  0  0
 35 79  2  0  0  0  0
 36 51  1  0  0  0  0
 36 75  1  0  0  0  0
 36 80  2  0  0  0  0
 37 64  1  0  0  0  0
 37 70  1  0  0  0  0
 37 81  2  0  0  0  0
 38 65  1  0  0  0  0
 38 76  1  0  0  0  0
 38 82  2  0  0  0  0
 39 71  1  0  0  0  0
 39 74  1  0  0  0  0
 39 83  2  0  0  0  0
 40 43  1  0  0  0  0
 41 51  1  0  0  0  0
 42 70  1  0  0  0  0
 43 45  1  0  0  0  0
 44 46  1  0  0  0  0
 44 47  1  0  0  0  0
 45 50  1  0  0  0  0
 46 53  1  0  0  0  0
 47 71  1  0  0  0  0
 48 52  1  0  0  0  0
 48 69  1  0  0  0  0
 49 53  1  0  0  0  0
 49 71  1  0  0  0  0
 50 75  1  0  0  0  0
 51 70  1  0  0  0  0
 52 54  1  0  0  0  0
 52 63  1  0  0  0  0
 53 68  1  0  0  0  0
 54 56  1  0  0  0  0
 54 57  1  0  0  0  0
 58 65  1  0  0  0  0
 59 66  1  0  0  0  0
 60 66  1  0  0  0  0
 61 66  1  0  0  0  0
 62 77  1  0  0  0  0
 63 85  1  0  0  0  0
 64 66  1  0  0  0  0
 64 76  1  0  0  0  0
 65 77  1  0  0  0  0
 67 68  1  0  0  0  0
M  CHG  1  77   1
M  ISO  4  39 100  63 101  74 100  85 101
M  END
> <Batch ID>
0072

> <Smiles>
CNC(C)C(=O)NC(C(=O)N1Cc2cc([101O:1][101CH2:1]C3CN(c4cc(C)c(F)c([100NH:0][100C:0](=O)N5CCCC(n6nc(-c7ccc(Oc8ccc(F)cc8F)cc7)c(C(N)=O)c6N)C5)c4)C(=O)C3(C)C)ccc2CC1C(=O)NC1CCCc2ccccc21)C(C)(C)C

> <Shape>
0.259

> <Color>
0.130

> <Negative vol penalty>
0.000

$$$$

  -OEChem-04042323383D

 87 96  0     1  0  0  0  0  0999 V2000
  -28.2877  -23.6085   17.3557 C   0  0  0  0  0  0  0  0  0  0  0  0
  -27.1165  -23.8224   18.0754 C   0  0  0  0  0  0  0  0  0  0  0  0
  -27.6170  -12.8113   19.8701 C   0  0  0  0  0  0  0  0  0  0  0  0
  -27.7697  -13.8010   22.0688 C   0  0  0  0  0  0  0  0  0  0  0  0
  -29.4727  -24.2249   17.7556 C   0  0  0  0  0  0  0  0  0  0  0  0
  -27.1298  -24.6521   19.1960 C   0  0  0  0  0  0  0  0  0  0  0  0
  -23.2015  -27.8464   19.2950 C   0  0  0  0  0  0  0  0  0  0  0  0
  -28.8701  -12.2248   20.0470 C   0  0  0  0  0  0  0  0  0  0  0  0
  -29.0229  -13.2145   22.2458 C   0  0  0  0  0  0  0  0  0  0  0  0
  -21.9714  -27.3305   19.7005 C   0  0  0  0  0  0  0  0  0  0  0  0
  -30.1618   -9.5458   21.6556 C   0  0  0  0  0  0  0  0  0  0  0  0
  -30.3088   -8.2079   21.2896 C   0  0  0  0  0  0  0  0  0  0  0  0
  -18.6634  -21.0272   24.2985 C   0  0  0  0  0  0  0  0  0  0  0  0
  -19.6708  -19.0618   23.3190 C   0  0  0  0  0  0  0  0  0  0  0  0
  -22.3112  -28.2643   21.8986 C   0  0  0  0  0  0  0  0  0  0  0  0
  -20.1865  -21.2509   22.4364 C   0  0  0  0  0  0  0  0  0  0  0  0
  -32.0170   -8.8307   19.6986 C   0  0  0  0  0  0  0  0  0  0  0  0
  -27.0668  -13.5995   20.8810 C   0  0  0  0  0  0  0  0  0  0  0  0
  -18.8273  -19.6424   24.2662 C   0  0  0  0  0  0  0  0  0  0  0  0
  -24.5210  -13.6557   21.0335 C   0  0  0  0  0  0  0  0  0  0  0  0
  -29.4984  -25.0702   18.8761 C   0  0  0  0  0  0  0  0  0  0  0  0
  -24.0020  -28.5671   20.1929 C   0  0  0  0  0  0  0  0  0  0  0  0
  -28.3165  -25.2793   19.6120 C   0  0  0  0  0  0  0  0  0  0  0  0
  -23.5498  -28.7905   21.5013 C   0  0  0  0  0  0  0  0  0  0  0  0
  -19.3430  -21.8314   23.3835 C   0  0  0  0  0  0  0  0  0  0  0  0
  -20.3504  -19.8660   22.4041 C   0  0  0  0  0  0  0  0  0  0  0  0
  -29.5730  -12.4264   21.2349 C   0  0  0  0  0  0  0  0  0  0  0  0
  -21.5273  -27.5369   21.0033 C   0  0  0  0  0  0  0  0  0  0  0  0
  -30.9423  -10.5262   21.0430 C   0  0  0  0  0  0  0  0  0  0  0  0
  -31.2364   -7.8503   20.3112 C   0  0  0  0  0  0  0  0  0  0  0  0
  -31.8699  -10.1687   20.0646 C   0  0  0  0  0  0  0  0  0  0  0  0
  -25.7727  -14.2061   20.6986 C   0  0  0  0  0  0  0  0  0  0  0  0
  -23.6130  -14.6178   20.6645 C   0  0  0  0  0  0  0  0  0  0  0  0
  -19.7895  -24.1890   22.5642 C   0  0  0  0  0  0  0  0  0  0  0  0
  -18.1189  -18.8039   25.2202 C   0  0  0  0  0  0  0  0  0  0  0  0
  -24.2072  -12.3880   21.6255 C   0  0  0  0  0  0  0  0  0  0  0  0
  -26.9017  -28.1670   21.4321 C   0  0  0  0  0  0  0  0  0  0  0  0
  -26.3534  -31.1145   22.6706 C   0  0  0  0  0  0  0  0  0  0  0  0
  -24.0862  -33.4719   23.6449 C   0  0  0  0  0  0  0  0  0  0  0  0
  -21.9553  -19.9296   20.4633 C   0  0  0  0  0  0  0  0  0  0  0  0
  -30.8133  -25.6768   19.2977 C   0  0  0  0  0  0  0  0  0  0  0  0
  -25.3142  -29.1399   19.7322 C   0  0  0  0  0  0  0  0  0  0  0  0
  -24.3623  -29.5748   22.4980 C   0  0  0  0  0  0  0  0  0  0  0  0
  -30.6621  -26.8387   20.2762 C   0  0  0  0  0  0  0  0  0  0  0  0
  -24.2119  -18.8382   17.9347 C   0  0  0  0  0  0  0  0  0  0  0  0
  -29.6809  -26.4771   21.3867 C   0  0  0  0  0  0  0  0  0  0  0  0
  -24.7161  -17.4905   18.4559 C   0  0  0  0  0  0  0  0  0  0  0  0
  -18.6890  -25.3514   24.3255 C   0  0  0  0  0  0  0  0  0  0  0  0
  -24.0087  -19.8439   19.0665 C   0  0  0  0  0  0  0  0  0  0  0  0
  -18.2672  -23.8958   24.3448 C   0  0  0  0  0  0  0  0  0  0  0  0
  -23.6686  -18.0250   20.6929 C   0  0  0  0  0  0  0  0  0  0  0  0
  -28.2853  -26.1922   20.8186 C   0  0  1  0  0  0  0  0  0  0  0  0
  -19.1959  -25.5467   22.9039 C   0  0  1  0  0  0  0  0  0  0  0  0
  -26.2803  -29.4185   20.8796 C   0  0  1  0  0  0  0  0  0  0  0  0
  -23.8264  -16.9588   19.5966 C   0  0  2  0  0  0  0  0  0  0  0  0
  -23.9387  -35.7650   24.6535 C   0  0  0  0  0  0  0  0  0  0  0  0
  -27.0160  -29.9489   25.4115 C   0  0  0  0  0  0  0  0  0  0  0  0
  -25.9517  -31.9639   26.4484 C   0  0  0  0  0  0  0  0  0  0  0  0
  -27.9590  -32.2267   24.9909 C   0  0  0  0  0  0  0  0  0  0  0  0
  -22.7155  -34.5600   21.2583 C   0  0  0  0  0  0  0  0  0  0  0  0
  -20.1961  -26.6804   22.7782 C   0  0  0  0  0  0  0  0  0  1  0  0
  -25.7340  -31.6414   23.9425 C   0  0  1  0  0  0  0  0  0  0  0  0
  -23.9976  -34.9611   23.3639 C   0  0  2  0  0  0  0  0  0  0  0  0
  -26.6505  -31.4288   25.1803 C   0  0  0  0  0  0  0  0  0  0  0  0
  -25.6726  -15.4234   20.1581 N   0  0  0  0  0  0  0  0  0  0  0  0
  -24.3473  -15.6458   20.1506 N   0  0  0  0  0  0  0  0  0  0  0  0
  -19.1754  -23.2483   23.4165 N   0  0  0  0  0  0  0  0  0  0  0  0
  -25.6411  -30.1091   22.0015 N   0  0  0  0  0  0  0  0  0  0  0  0
  -23.1525  -19.2727   20.1084 N   0  0  0  0  0  0  0  0  0  0  0  0
  -22.2660  -14.6762   20.7325 N   0  0  0  0  0  0  0  0  0  0  0  0
  -17.2899  -19.4328   26.1446 N   0  0  0  0  0  0  0  0  0  0  0  0
  -25.2606  -11.5196   21.9424 N   0  0  0  0  0  0  0  0  0  0  0  0
  -21.2075  -19.2761   21.4423 N   0  0  0  0  0  0  0  0  0  0  0  0
  -27.6070  -27.4302   20.4999 N   0  0  0  0  0  0  0  0  0  0  0  0
  -25.3939  -33.0363   23.6834 N   0  0  0  0  0  0  0  0  0  0  0  0
  -22.7776  -35.2657   22.5641 N   0  3  0  0  0  0  0  0  0  0  0  0
  -20.5968  -24.0181   21.6623 O   0  0  0  0  0  0  0  0  0  0  0  0
  -18.2582  -17.5682   25.2258 O   0  0  0  0  0  0  0  0  0  0  0  0
  -23.0266  -12.0292   21.8511 O   0  0  0  0  0  0  0  0  0  0  0  0
  -26.7534  -27.8911   22.6168 O   0  0  0  0  0  0  0  0  0  0  0  0
  -27.4261  -31.5829   22.2812 O   0  0  0  0  0  0  0  0  0  0  0  0
  -23.0946  -32.7664   23.8169 O   0  0  0  0  0  0  0  0  0  0  0  0
  -21.6048  -20.9793   19.9182 O   0  0  0  0  0  0  0  0  0  0  0  0
  -30.7957  -11.8540   21.4079 O   0  0  0  0  0  0  0  0  0  0  0  0
  -20.3274  -27.0339   21.4019 O   0  0  0  0  0  0  0  0  0  1  0  0
  -31.3786   -6.5653   19.9610 F   0  0  0  0  0  0  0  0  0  0  0  0
  -32.6235  -11.1060   19.4734 F   0  0  0  0  0  0  0  0  0  0  0  0
  1  2  1  0  0  0  0
  1  5  2  0  0  0  0
  2  6  2  0  0  0  0
  3  8  2  0  0  0  0
  3 18  1  0  0  0  0
  4  9  1  0  0  0  0
  4 18  2  0  0  0  0
  5 21  1  0  0  0  0
  6 23  1  0  0  0  0
  7 10  2  0  0  0  0
  7 22  1  0  0  0  0
  8 27  1  0  0  0  0
  9 27  2  0  0  0  0
 10 28  1  0  0  0  0
 11 12  2  0  0  0  0
 11 29  1  0  0  0  0
 12 30  1  0  0  0  0
 13 19  1  0  0  0  0
 13 25  2  0  0  0  0
 14 19  2  0  0  0  0
 14 26  1  0  0  0  0
 15 24  1  0  0  0  0
 15 28  2  0  0  0  0
 16 25  1  0  0  0  0
 16 26  2  0  0  0  0
 17 30  2  0  0  0  0
 17 31  1  0  0  0  0
 18 32  1  0  0  0  0
 19 35  1  0  0  0  0
 20 32  1  0  0  0  0
 20 33  2  0  0  0  0
 20 36  1  0  0  0  0
 21 23  2  0  0  0  0
 21 41  1  0  0  0  0
 22 24  2  0  0  0  0
 22 42  1  0  0  0  0
 23 52  1  0  0  0  0
 24 43  1  0  0  0  0
 25 67  1  0  0  0  0
 26 73  1  0  0  0  0
 27 84  1  0  0  0  0
 28 85  1  0  0  0  0
 29 31  2  0  0  0  0
 29 84  1  0  0  0  0
 30 86  1  0  0  0  0
 31 87  1  0  0  0  0
 32 65  2  0  0  0  0
 33 66  1  0  0  0  0
 33 70  1  0  0  0  0
 34 53  1  0  0  0  0
 34 67  1  0  0  0  0
 34 77  2  0  0  0  0
 35 71  1  0  0  0  0
 35 78  2  0  0  0  0
 36 72  1  0  0  0  0
 36 79  2  0  0  0  0
 37 54  1  0  0  0  0
 37 74  1  0  0  0  0
 37 80  2  0  0  0  0
 38 62  1  0  0  0  0
 38 68  1  0  0  0  0
 38 81  2  0  0  0  0
 39 63  1  0  0  0  0
 39 75  1  0  0  0  0
 39 82  2  0  0  0  0
 40 69  1  0  0  0  0
 40 73  1  0  0  0  0
 40 83  2  0  0  0  0
 41 44  1  0  0  0  0
 42 54  1  0  0  0  0
 43 68  1  0  0  0  0
 44 46  1  0  0  0  0
 45 47  1  0  0  0  0
 45 49  1  0  0  0  0
 46 52  1  0  0  0  0
 47 55  1  0  0  0  0
 48 50  1  0  0  0  0
 48 53  1  0  0  0  0
 49 69  1  0  0  0  0
 50 67  1  0  0  0  0
 51 55  1  0  0  0  0
 51 69  1  0  0  0  0
 52 74  1  0  0  0  0
 53 61  1  0  0  0  0
 54 68  1  0  0  0  0
 55 66  1  0  0  0  0
 56 63  1  0  0  0  0
 57 64  1  0  0  0  0
 58 64  1  0  0  0  0
 59 64  1  0  0  0  0
 60 76  1  0  0  0  0
 61 85  1  0  0  0  0
 62 64  1  0  0  0  0
 62 75  1  0  0  0  0
 63 76  1  0  0  0  0
 65 66  1  0  0  0  0
M  CHG  1  76   1
M  ISO  4  40 100  61 101  73 100  85 101
M  END
> <Batch ID>
0072

> <Smiles>
CNC(C)C(=O)NC(C(=O)N1Cc2cc([101O:1][101CH2:1]C3CCN(c4cc([100NH:0][100C:0](=O)N5CCCC(n6nc(-c7ccc(Oc8ccc(F)cc8F)cc7)c(C(N)=O)c6N)C5)cc(C(N)=O)c4)C3=O)ccc2CC1C(=O)NC1CCCc2ccccc21)C(C)(C)C

> <Shape>
0.259

> <Color>
0.078

> <Negative vol penalty>
0.000

$$$$
