
  -OEChem-04042323413D

 89 98  0     1  0  0  0  0  0999 V2000
  -30.2472  -35.1070   18.7044 C   0  0  0  0  0  0  0  0  0  0  0  0
  -30.1827  -33.8070   19.1957 C   0  0  0  0  0  0  0  0  0  0  0  0
  -24.2856  -16.9067   21.0788 C   0  0  0  0  0  0  0  0  0  0  0  0
  -24.3429  -16.5103   18.6962 C   0  0  0  0  0  0  0  0  0  0  0  0
  -29.3195  -36.0578   19.1275 C   0  0  0  0  0  0  0  0  0  0  0  0
  -29.1908  -33.4575   20.1114 C   0  0  0  0  0  0  0  0  0  0  0  0
  -26.9993  -29.0282   19.0052 C   0  0  0  0  0  0  0  0  0  0  0  0
  -31.5405  -20.2262   20.2109 C   0  0  0  0  0  0  0  0  0  0  0  0
  -31.6046  -18.8473   20.0103 C   0  0  0  0  0  0  0  0  0  0  0  0
  -23.7705  -18.1833   20.8540 C   0  0  0  0  0  0  0  0  0  0  0  0
  -23.8277  -17.7869   18.4714 C   0  0  0  0  0  0  0  0  0  0  0  0
  -27.7020  -27.8702   19.3352 C   0  0  0  0  0  0  0  0  0  0  0  0
  -24.9435  -21.2141   19.9251 C   0  0  0  0  0  0  0  0  0  0  0  0
  -25.4960  -22.2715   20.6476 C   0  0  0  0  0  0  0  0  0  0  0  0
  -26.3505  -27.6224   21.3179 C   0  0  0  0  0  0  0  0  0  0  0  0
  -30.6009  -24.2402   21.5356 C   0  0  0  0  0  0  0  0  0  0  0  0
  -29.1563  -20.0636   20.5666 C   0  0  0  0  0  0  0  0  0  0  0  0
  -23.3328  -22.7401   21.6161 C   0  0  0  0  0  0  0  0  0  0  0  0
  -24.5718  -16.0702   19.9999 C   0  0  0  0  0  0  0  0  0  0  0  0
  -24.3765  -13.5603   20.4119 C   0  0  0  0  0  0  0  0  0  0  0  0
  -28.3098  -35.7172   20.0414 C   0  0  0  0  0  0  0  0  0  0  0  0
  -25.9725  -29.4989   19.8362 C   0  0  0  0  0  0  0  0  0  0  0  0
  -28.2495  -34.4050   20.5482 C   0  0  0  0  0  0  0  0  0  0  0  0
  -25.6346  -28.7852   20.9949 C   0  0  0  0  0  0  0  0  0  0  0  0
  -29.7118  -24.3571   20.4389 C   0  0  0  0  0  0  0  0  0  0  0  0
  -30.3163  -20.8343   20.4891 C   0  0  0  0  0  0  0  0  0  0  0  0
  -30.4446  -18.0766   20.0878 C   0  0  0  0  0  0  0  0  0  0  0  0
  -23.5415  -18.6234   19.5503 C   0  0  0  0  0  0  0  0  0  0  0  0
  -27.3796  -27.1686   20.4932 C   0  0  0  0  0  0  0  0  0  0  0  0
  -23.5856  -20.9196   20.0480 C   0  0  0  0  0  0  0  0  0  0  0  0
  -24.6907  -23.0345   21.4931 C   0  0  0  0  0  0  0  0  0  0  0  0
  -29.2205  -18.6847   20.3660 C   0  0  0  0  0  0  0  0  0  0  0  0
  -22.7802  -21.6826   20.8935 C   0  0  0  0  0  0  0  0  0  0  0  0
  -25.1045  -14.7516   20.2314 C   0  0  0  0  0  0  0  0  0  0  0  0
  -25.3367  -12.5954   20.5948 C   0  0  0  0  0  0  0  0  0  0  0  0
  -30.9188  -22.9065   21.6672 C   0  0  0  0  0  0  0  0  0  0  0  0
  -29.5132  -23.0911   19.9337 C   0  0  0  0  0  0  0  0  0  0  0  0
  -22.9589  -13.3451   20.4141 C   0  0  0  0  0  0  0  0  0  0  0  0
  -25.4867  -32.1515   21.5188 C   0  0  0  0  0  0  0  0  0  0  0  0
  -22.5711  -30.8261   22.0332 C   0  0  0  0  0  0  0  0  0  0  0  0
  -31.4712  -16.0657   19.0385 C   0  0  0  0  0  0  0  0  0  0  0  0
  -20.6554  -28.0054   22.1769 C   0  0  0  0  0  0  0  0  0  0  0  0
  -29.7803  -15.8293   20.7639 C   0  0  0  0  0  0  0  0  0  0  0  0
  -27.3583  -36.7914   20.5055 C   0  0  0  0  0  0  0  0  0  0  0  0
  -25.2062  -30.7350   19.4523 C   0  0  0  0  0  0  0  0  0  0  0  0
  -24.5271  -29.2374   21.9101 C   0  0  0  0  0  0  0  0  0  0  0  0
  -26.1097  -36.2439   21.1922 C   0  0  0  0  0  0  0  0  0  0  0  0
  -29.0183  -13.0970   18.3990 C   0  0  0  0  0  0  0  0  0  0  0  0
  -26.4865  -35.1695   22.2075 C   0  0  0  0  0  0  0  0  0  0  0  0
  -28.4238  -12.0411   19.3233 C   0  0  0  0  0  0  0  0  0  0  0  0
  -30.0938  -13.9219   19.0983 C   0  0  0  0  0  0  0  0  0  0  0  0
  -28.9804  -13.5438   21.2955 C   0  0  0  0  0  0  0  0  0  0  0  0
  -27.1731  -33.9810   21.5238 C   0  0  1  0  0  0  0  0  0  0  0  0
  -24.5227  -31.4069   20.6391 C   0  0  1  0  0  0  0  0  0  0  0  0
  -27.9223  -12.6305   20.6505 C   0  0  1  0  0  0  0  0  0  0  0  0
  -31.6751  -16.7098   17.6843 C   0  0  0  0  0  0  0  0  0  0  0  0
  -18.3163  -27.2353   22.6592 C   0  0  0  0  0  0  0  0  0  0  0  0
  -23.0659  -31.2022   25.0205 C   0  0  0  0  0  0  0  0  0  0  0  0
  -21.1956  -29.5972   25.4614 C   0  0  0  0  0  0  0  0  0  0  0  0
  -20.7416  -31.7423   24.2719 C   0  0  0  0  0  0  0  0  0  0  0  0
  -20.3339  -26.8981   19.4512 C   0  0  0  0  0  0  0  0  0  0  0  0
  -29.1009  -25.6283   19.9270 C   0  0  0  0  0  0  0  0  0  1  0  0
  -21.9865  -29.8985   23.0708 C   0  0  1  0  0  0  0  0  0  0  0  0
  -19.2962  -27.6797   21.5845 C   0  0  2  0  0  0  0  0  0  0  0  0
  -21.7696  -30.6023   24.4401 C   0  0  0  0  0  0  0  0  0  0  0  0
  -26.4253  -14.5632   20.2941 N   0  0  0  0  0  0  0  0  0  0  0  0
  -30.2515  -22.2173   20.6884 N   0  0  0  0  0  0  0  0  0  0  0  0
  -26.5349  -13.2423   20.5161 N   0  0  0  0  0  0  0  0  0  0  0  0
  -23.8115  -30.4551   21.4950 N   0  0  0  0  0  0  0  0  0  0  0  0
  -29.6200  -14.4835   20.3699 N   0  0  0  0  0  0  0  0  0  0  0  0
  -25.2646  -11.2652   20.8136 N   0  0  0  0  0  0  0  0  0  0  0  0
  -22.1157  -14.4461   20.2113 N   0  0  0  0  0  0  0  0  0  0  0  0
  -26.1946  -33.1423   20.8655 N   0  0  0  0  0  0  0  0  0  0  0  0
  -20.7708  -29.3446   22.4845 N   0  0  0  0  0  0  0  0  0  0  0  0
  -30.5137  -16.6506   19.8787 N   0  0  0  0  0  0  0  0  0  0  0  0
  -19.4180  -26.5868   20.5786 N   0  3  0  0  0  0  0  0  0  0  0  0
  -22.4546  -12.2128   20.6069 O   0  0  0  0  0  0  0  0  0  0  0  0
  -25.5804  -31.8505   22.7030 O   0  0  0  0  0  0  0  0  0  0  0  0
  -21.9468  -31.8388   21.7070 O   0  0  0  0  0  0  0  0  0  0  0  0
  -32.1067  -15.0492   19.3322 O   0  0  0  0  0  0  0  0  0  0  0  0
  -21.5262  -27.1562   22.3528 O   0  0  0  0  0  0  0  0  0  0  0  0
  -29.3642  -16.2593   21.8468 O   0  0  0  0  0  0  0  0  0  0  0  0
  -31.7091  -22.2919   22.5392 O   0  0  0  0  0  0  0  0  0  0  0  0
  -28.7693  -22.6730   18.9158 O   0  0  0  0  0  0  0  0  0  0  0  0
  -23.0387  -19.8689   19.3306 O   0  0  0  0  0  0  0  0  0  0  0  0
  -28.0643  -26.0383   20.8179 O   0  0  0  0  0  0  0  0  0  1  0  0
  -25.2217  -24.0490   22.1881 F   0  0  0  0  0  0  0  0  0  0  0  0
  -28.0990  -17.9538   20.4412 F   0  0  0  0  0  0  0  0  0  0  0  0
  -21.4753  -21.4037   21.0167 F   0  0  0  0  0  0  0  0  0  0  0  0
  1  2  1  0  0  0  0
  1  5  2  0  0  0  0
  2  6  2  0  0  0  0
  3 10  2  0  0  0  0
  3 19  1  0  0  0  0
  4 11  1  0  0  0  0
  4 19  2  0  0  0  0
  5 21  1  0  0  0  0
  6 23  1  0  0  0  0
  7 12  2  0  0  0  0
  7 22  1  0  0  0  0
  8  9  2  0  0  0  0
  8 26  1  0  0  0  0
  9 27  1  0  0  0  0
 10 28  1  0  0  0  0
 11 28  2  0  0  0  0
 12 29  1  0  0  0  0
 13 14  2  0  0  0  0
 13 30  1  0  0  0  0
 14 31  1  0  0  0  0
 15 24  1  0  0  0  0
 15 29  2  0  0  0  0
 16 25  1  0  0  0  0
 16 36  2  0  0  0  0
 17 26  2  0  0  0  0
 17 32  1  0  0  0  0
 18 31  2  0  0  0  0
 18 33  1  0  0  0  0
 19 34  1  0  0  0  0
 20 34  1  0  0  0  0
 20 35  2  0  0  0  0
 20 38  1  0  0  0  0
 21 23  2  0  0  0  0
 21 44  1  0  0  0  0
 22 24  2  0  0  0  0
 22 45  1  0  0  0  0
 23 53  1  0  0  0  0
 24 46  1  0  0  0  0
 25 37  2  0  0  0  0
 25 62  1  0  0  0  0
 26 67  1  0  0  0  0
 27 32  2  0  0  0  0
 27 75  1  0  0  0  0
 28 85  1  0  0  0  0
 29 86  1  0  0  0  0
 30 33  2  0  0  0  0
 30 85  1  0  0  0  0
 31 87  1  0  0  0  0
 32 88  1  0  0  0  0
 33 89  1  0  0  0  0
 34 66  2  0  0  0  0
 35 68  1  0  0  0  0
 35 71  1  0  0  0  0
 36 67  1  0  0  0  0
 36 83  1  0  0  0  0
 37 67  1  0  0  0  0
 37 84  1  0  0  0  0
 38 72  1  0  0  0  0
 38 77  2  0  0  0  0
 39 54  1  0  0  0  0
 39 73  1  0  0  0  0
 39 78  2  0  0  0  0
 40 63  1  0  0  0  0
 40 69  1  0  0  0  0
 40 79  2  0  0  0  0
 41 56  1  0  0  0  0
 41 75  1  0  0  0  0
 41 80  2  0  0  0  0
 42 64  1  0  0  0  0
 42 74  1  0  0  0  0
 42 81  2  0  0  0  0
 43 70  1  0  0  0  0
 43 75  1  0  0  0  0
 43 82  2  0  0  0  0
 44 47  1  0  0  0  0
 45 54  1  0  0  0  0
 46 69  1  0  0  0  0
 47 49  1  0  0  0  0
 48 50  1  0  0  0  0
 48 51  1  0  0  0  0
 49 53  1  0  0  0  0
 50 55  1  0  0  0  0
 51 70  1  0  0  0  0
 52 55  1  0  0  0  0
 52 70  1  0  0  0  0
 53 73  1  0  0  0  0
 54 69  1  0  0  0  0
 55 68  1  0  0  0  0
 57 64  1  0  0  0  0
 58 65  1  0  0  0  0
 59 65  1  0  0  0  0
 60 65  1  0  0  0  0
 61 76  1  0  0  0  0
 62 86  1  0  0  0  0
 63 65  1  0  0  0  0
 63 74  1  0  0  0  0
 64 76  1  0  0  0  0
 66 68  1  0  0  0  0
M  CHG  1  76   1
M  ISO  4  43 100  62 101  75 100  86 101
M  END
> <Batch ID>
0073

> <Smiles>
CNC(C)C(=O)NC(C(=O)N1Cc2cc([101O:1][101CH2:1]C3CC(=O)N(c4ccc([100N:0](C(C)=O)[100C:0](=O)N5CCCC(n6nc(-c7ccc(Oc8ccc(F)cc8F)cc7)c(C(N)=O)c6N)C5)c(F)c4)C3=O)ccc2CC1C(=O)NC1CCCc2ccccc21)C(C)(C)C

> <Shape>
0.284

> <Color>
0.104

> <Negative vol penalty>
0.000

$$$$

  -OEChem-04042323413D

 84 93  0     1  0  0  0  0  0999 V2000
  -28.1274  -24.1677   17.5916 C   0  0  0  0  0  0  0  0  0  0  0  0
  -26.9084  -24.4841   18.1826 C   0  0  0  0  0  0  0  0  0  0  0  0
  -16.0186  -22.0912   24.0060 C   0  0  0  0  0  0  0  0  0  0  0  0
  -26.8869  -21.3811   22.1631 C   0  0  0  0  0  0  0  0  0  0  0  0
  -27.0678  -18.9749   22.2846 C   0  0  0  0  0  0  0  0  0  0  0  0
  -29.3143  -24.6460   18.1452 C   0  0  0  0  0  0  0  0  0  0  0  0
  -26.8757  -25.2782   19.3284 C   0  0  0  0  0  0  0  0  0  0  0  0
  -23.3051  -28.8625   19.1067 C   0  0  0  0  0  0  0  0  0  0  0  0
  -16.2560  -23.3344   23.4197 C   0  0  0  0  0  0  0  0  0  0  0  0
  -16.9500  -21.0628   23.8619 C   0  0  0  0  0  0  0  0  0  0  0  0
  -27.8579  -21.4036   21.1621 C   0  0  0  0  0  0  0  0  0  0  0  0
  -28.0389  -18.9974   21.2835 C   0  0  0  0  0  0  0  0  0  0  0  0
  -21.9906  -28.4677   19.3515 C   0  0  0  0  0  0  0  0  0  0  0  0
  -28.1377  -19.2825   17.9175 C   0  0  0  0  0  0  0  0  0  0  0  0
  -28.0288  -18.3456   16.8900 C   0  0  0  0  0  0  0  0  0  0  0  0
  -22.1663  -29.3029   21.6077 C   0  0  0  0  0  0  0  0  0  0  0  0
  -18.3560  -22.5208   22.5449 C   0  0  0  0  0  0  0  0  0  0  0  0
  -30.1943  -17.4497   17.4772 C   0  0  0  0  0  0  0  0  0  0  0  0
  -26.4918  -20.1668   22.7244 C   0  0  0  0  0  0  0  0  0  0  0  0
  -25.5497  -20.7737   25.0161 C   0  0  0  0  0  0  0  0  0  0  0  0
  -29.2955  -25.4543   19.2928 C   0  0  0  0  0  0  0  0  0  0  0  0
  -24.0650  -29.4716   20.1156 C   0  0  0  0  0  0  0  0  0  0  0  0
  -28.0635  -25.7667   19.8987 C   0  0  0  0  0  0  0  0  0  0  0  0
  -23.4894  -29.7068   21.3724 C   0  0  0  0  0  0  0  0  0  0  0  0
  -17.4246  -23.5492   22.6891 C   0  0  0  0  0  0  0  0  0  0  0  0
  -18.1186  -21.2776   23.1313 C   0  0  0  0  0  0  0  0  0  0  0  0
  -28.4339  -20.2118   20.7222 C   0  0  0  0  0  0  0  0  0  0  0  0
  -21.4219  -28.6853   20.6030 C   0  0  0  0  0  0  0  0  0  0  0  0
  -29.2750  -19.3031   18.7249 C   0  0  0  0  0  0  0  0  0  0  0  0
  -29.0570  -17.4292   16.6698 C   0  0  0  0  0  0  0  0  0  0  0  0
  -30.3033  -18.3867   18.5048 C   0  0  0  0  0  0  0  0  0  0  0  0
  -25.4892  -20.1429   23.7590 C   0  0  0  0  0  0  0  0  0  0  0  0
  -24.3601  -20.4486   25.6209 C   0  0  0  0  0  0  0  0  0  0  0  0
  -18.7484  -25.1583   21.3636 C   0  0  0  0  0  0  0  0  0  0  0  0
  -18.6643  -26.4295   20.9478 C   0  0  0  0  0  0  0  0  0  0  0  0
  -17.4151  -26.9886   21.4420 C   0  0  0  0  0  0  0  0  0  0  0  0
  -16.9444  -28.2256   21.2544 C   0  0  0  0  0  0  0  0  0  0  0  0
  -26.5882  -21.5813   25.5861 C   0  0  0  0  0  0  0  0  0  0  0  0
  -26.7465  -28.7379   21.6567 C   0  0  0  0  0  0  0  0  0  0  0  0
  -26.3592  -31.6931   22.9369 C   0  0  0  0  0  0  0  0  0  0  0  0
  -24.2442  -34.2485   23.7391 C   0  0  0  0  0  0  0  0  0  0  0  0
  -18.9811  -18.9397   23.5009 C   0  0  0  0  0  0  0  0  0  0  0  0
  -30.6072  -25.9087   19.8822 C   0  0  0  0  0  0  0  0  0  0  0  0
  -25.4729  -29.9158   19.8274 C   0  0  0  0  0  0  0  0  0  0  0  0
  -24.2561  -30.3753   22.4832 C   0  0  0  0  0  0  0  0  0  0  0  0
  -16.7122  -25.8971   22.2324 C   0  0  0  0  0  0  0  0  0  0  0  0
  -30.4620  -27.0540   20.8810 C   0  0  0  0  0  0  0  0  0  0  0  0
  -21.0157  -17.0219   25.7053 C   0  0  0  0  0  0  0  0  0  0  0  0
  -29.3274  -26.7681   21.8597 C   0  0  0  0  0  0  0  0  0  0  0  0
  -22.3979  -17.6659   25.5754 C   0  0  0  0  0  0  0  0  0  0  0  0
  -20.2714  -17.0026   24.3714 C   0  0  0  0  0  0  0  0  0  0  0  0
  -21.5523  -18.9476   23.5681 C   0  0  0  0  0  0  0  0  0  0  0  0
  -27.9853  -26.6458   21.1280 C   0  0  1  0  0  0  0  0  0  0  0  0
  -26.3229  -30.0616   21.0858 C   0  0  1  0  0  0  0  0  0  0  0  0
  -22.3141  -19.0486   24.8997 C   0  0  2  0  0  0  0  0  0  0  0  0
  -24.2134  -36.5172   24.8112 C   0  0  0  0  0  0  0  0  0  0  0  0
  -26.5790  -30.3931   25.6885 C   0  0  0  0  0  0  0  0  0  0  0  0
  -25.6109  -32.4806   26.6751 C   0  0  0  0  0  0  0  0  0  0  0  0
  -27.7896  -32.5699   25.4634 C   0  0  0  0  0  0  0  0  0  0  0  0
  -23.2757  -35.5363   21.2567 C   0  0  0  0  0  0  0  0  0  0  0  0
  -19.6537  -27.1691   20.1232 C   0  0  0  0  0  0  0  0  0  1  0  0
  -25.6532  -32.2484   24.1502 C   0  0  1  0  0  0  0  0  0  0  0  0
  -24.3396  -35.7456   23.5068 C   0  0  2  0  0  0  0  0  0  0  0  0
  -26.3941  -31.9086   25.4742 C   0  0  0  0  0  0  0  0  0  0  0  0
  -24.3514  -19.4680   23.5749 N   0  0  0  0  0  0  0  0  0  0  0  0
  -23.6859  -19.6728   24.7244 N   0  0  0  0  0  0  0  0  0  0  0  0
  -17.6581  -24.7722   22.1129 N   0  0  0  0  0  0  0  0  0  0  0  0
  -25.6312  -30.7857   22.1543 N   0  0  0  0  0  0  0  0  0  0  0  0
  -20.2279  -18.3471   23.7924 N   0  0  0  0  0  0  0  0  0  0  0  0
  -23.8356  -20.7534   26.8268 N   0  0  0  0  0  0  0  0  0  0  0  0
  -27.5922  -20.9496   26.3325 N   0  0  0  0  0  0  0  0  0  0  0  0
  -19.0638  -20.2323   22.9842 N   0  0  0  0  0  0  0  0  0  0  0  0
  -27.4770  -27.9560   20.7823 N   0  0  0  0  0  0  0  0  0  0  0  0
  -25.4879  -33.6775   23.9078 N   0  0  0  0  0  0  0  0  0  0  0  0
  -23.2574  -36.1971   22.5871 N   0  3  0  0  0  0  0  0  0  0  0  0
  -26.6156  -22.8282   25.4516 O   0  0  0  0  0  0  0  0  0  0  0  0
  -26.4351  -28.4480   22.8059 O   0  0  0  0  0  0  0  0  0  0  0  0
  -27.5115  -32.0567   22.6885 O   0  0  0  0  0  0  0  0  0  0  0  0
  -23.1733  -33.6464   23.7717 O   0  0  0  0  0  0  0  0  0  0  0  0
  -17.9174  -18.3548   23.7206 O   0  0  0  0  0  0  0  0  0  0  0  0
  -29.3813  -20.2334   19.7452 O   0  0  0  0  0  0  0  0  0  0  0  0
  -20.1393  -28.3003   20.8448 O   0  0  0  0  0  0  0  0  0  1  0  0
  -28.9516  -16.5285   15.6840 F   0  0  0  0  0  0  0  0  0  0  0  0
  -31.3977  -18.4009   19.2779 F   0  0  0  0  0  0  0  0  0  0  0  0
  1  2  1  0  0  0  0
  1  6  2  0  0  0  0
  2  7  2  0  0  0  0
  3  9  2  0  0  0  0
  3 10  1  0  0  0  0
  4 11  2  0  0  0  0
  4 19  1  0  0  0  0
  5 12  1  0  0  0  0
  5 19  2  0  0  0  0
  6 21  1  0  0  0  0
  7 23  1  0  0  0  0
  8 13  2  0  0  0  0
  8 22  1  0  0  0  0
  9 25  1  0  0  0  0
 10 26  2  0  0  0  0
 11 27  1  0  0  0  0
 12 27  2  0  0  0  0
 13 28  1  0  0  0  0
 14 15  2  0  0  0  0
 14 29  1  0  0  0  0
 15 30  1  0  0  0  0
 16 24  1  0  0  0  0
 16 28  2  0  0  0  0
 17 25  2  0  0  0  0
 17 26  1  0  0  0  0
 18 30  2  0  0  0  0
 18 31  1  0  0  0  0
 19 32  1  0  0  0  0
 20 32  1  0  0  0  0
 20 33  2  0  0  0  0
 20 38  1  0  0  0  0
 21 23  2  0  0  0  0
 21 43  1  0  0  0  0
 22 24  2  0  0  0  0
 22 44  1  0  0  0  0
 23 53  1  0  0  0  0
 24 45  1  0  0  0  0
 25 67  1  0  0  0  0
 26 72  1  0  0  0  0
 27 81  1  0  0  0  0
 28 82  1  0  0  0  0
 29 31  2  0  0  0  0
 29 81  1  0  0  0  0
 30 83  1  0  0  0  0
 31 84  1  0  0  0  0
 32 65  2  0  0  0  0
 33 66  1  0  0  0  0
 33 70  1  0  0  0  0
 34 35  2  0  0  0  0
 34 67  1  0  0  0  0
 35 36  1  0  0  0  0
 35 61  1  0  0  0  0
 36 37  2  0  0  0  0
 36 46  1  0  0  0  0
 38 71  1  0  0  0  0
 38 76  2  0  0  0  0
 39 54  1  0  0  0  0
 39 73  1  0  0  0  0
 39 77  2  0  0  0  0
 40 62  1  0  0  0  0
 40 68  1  0  0  0  0
 40 78  2  0  0  0  0
 41 63  1  0  0  0  0
 41 74  1  0  0  0  0
 41 79  2  0  0  0  0
 42 69  1  0  0  0  0
 42 72  1  0  0  0  0
 42 80  2  0  0  0  0
 43 47  1  0  0  0  0
 44 54  1  0  0  0  0
 45 68  1  0  0  0  0
 46 67  1  0  0  0  0
 47 49  1  0  0  0  0
 48 50  1  0  0  0  0
 48 51  1  0  0  0  0
 49 53  1  0  0  0  0
 50 55  1  0  0  0  0
 51 69  1  0  0  0  0
 52 55  1  0  0  0  0
 52 69  1  0  0  0  0
 53 73  1  0  0  0  0
 54 68  1  0  0  0  0
 55 66  1  0  0  0  0
 56 63  1  0  0  0  0
 57 64  1  0  0  0  0
 58 64  1  0  0  0  0
 59 64  1  0  0  0  0
 60 75  1  0  0  0  0
 61 82  1  0  0  0  0
 62 64  1  0  0  0  0
 62 74  1  0  0  0  0
 63 75  1  0  0  0  0
 65 66  1  0  0  0  0
M  CHG  1  75   1
M  ISO  4  42 100  61 101  72 100  82 101
M  END
> <Batch ID>
0073

> <Smiles>
C=C1CN(c2cccc([100NH:0][100C:0](=O)N3CCCC(n4nc(-c5ccc(Oc6ccc(F)cc6F)cc5)c(C(N)=O)c4N)C3)c2)C=C1[101CH2:1][101O:1]c1ccc2c(c1)CN(C(=O)C(NC(=O)C(C)NC)C(C)(C)C)C(C(=O)NC1CCCc3ccccc31)C2

> <Shape>
0.236

> <Color>
0.069

> <Negative vol penalty>
0.000

$$$$

  -OEChem-04042323413D

 88 97  0     1  0  0  0  0  0999 V2000
  -36.8630  -17.0547   27.9382 C   0  0  0  0  0  0  0  0  0  0  0  0
  -36.5523  -17.5465   26.6745 C   0  0  0  0  0  0  0  0  0  0  0  0
  -23.0758   -9.8670   19.9374 C   0  0  0  0  0  0  0  0  0  0  0  0
  -23.8354   -9.8695   22.2308 C   0  0  0  0  0  0  0  0  0  0  0  0
  -29.6796  -19.2685   22.3959 C   0  0  0  0  0  0  0  0  0  0  0  0
  -36.3923  -17.7102   29.0752 C   0  0  0  0  0  0  0  0  0  0  0  0
  -35.7697  -18.6936   26.5470 C   0  0  0  0  0  0  0  0  0  0  0  0
  -37.6120  -21.9307   23.1159 C   0  0  0  0  0  0  0  0  0  0  0  0
  -29.5134  -17.8837   22.3849 C   0  0  0  0  0  0  0  0  0  0  0  0
  -22.3327   -8.7128   20.1847 C   0  0  0  0  0  0  0  0  0  0  0  0
  -23.0922   -8.7153   22.4782 C   0  0  0  0  0  0  0  0  0  0  0  0
  -37.3828  -21.6339   21.7731 C   0  0  0  0  0  0  0  0  0  0  0  0
  -19.8645   -7.9140   23.0786 C   0  0  0  0  0  0  0  0  0  0  0  0
  -19.1075   -7.8710   24.2493 C   0  0  0  0  0  0  0  0  0  0  0  0
  -35.5601  -23.2138   21.7412 C   0  0  0  0  0  0  0  0  0  0  0  0
  -31.1448  -17.7020   20.6122 C   0  0  0  0  0  0  0  0  0  0  0  0
  -20.3501   -5.9328   24.9817 C   0  0  0  0  0  0  0  0  0  0  0  0
  -23.8272  -10.4453   20.9604 C   0  0  0  0  0  0  0  0  0  0  0  0
  -30.5783  -19.8701   21.5149 C   0  0  0  0  0  0  0  0  0  0  0  0
  -24.1674  -12.9709   20.8459 C   0  0  0  0  0  0  0  0  0  0  0  0
  -35.6117  -18.8714   28.9617 C   0  0  0  0  0  0  0  0  0  0  0  0
  -36.8086  -22.8649   23.7855 C   0  0  0  0  0  0  0  0  0  0  0  0
  -35.2871  -19.3645   27.6835 C   0  0  0  0  0  0  0  0  0  0  0  0
  -35.7828  -23.5225   23.0918 C   0  0  0  0  0  0  0  0  0  0  0  0
  -31.3109  -19.0869   20.6231 C   0  0  0  0  0  0  0  0  0  0  0  0
  -30.2461  -17.1004   21.4931 C   0  0  0  0  0  0  0  0  0  0  0  0
  -22.3408   -8.1369   21.4551 C   0  0  0  0  0  0  0  0  0  0  0  0
  -36.3550  -22.2733   21.0863 C   0  0  0  0  0  0  0  0  0  0  0  0
  -20.8643   -6.9663   22.8594 C   0  0  0  0  0  0  0  0  0  0  0  0
  -19.3503   -6.8804   25.2009 C   0  0  0  0  0  0  0  0  0  0  0  0
  -21.1071   -5.9758   23.8109 C   0  0  0  0  0  0  0  0  0  0  0  0
  -24.5955  -11.6373   20.7054 C   0  0  0  0  0  0  0  0  0  0  0  0
  -25.2591  -13.7219   20.4844 C   0  0  0  0  0  0  0  0  0  0  0  0
  -33.1099  -20.9597   18.0424 C   0  0  0  0  0  0  0  0  0  0  0  0
  -34.0978  -20.2470   18.5883 C   0  0  0  0  0  0  0  0  0  0  0  0
  -31.8685  -20.6095   18.7610 C   0  0  0  0  0  0  0  0  0  0  0  0
  -30.7277  -21.3196   21.5520 C   0  0  0  0  0  0  0  0  0  0  0  0
  -22.8965  -13.4850   21.2658 C   0  0  0  0  0  0  0  0  0  0  0  0
  -34.8363  -22.7509   26.2757 C   0  0  0  0  0  0  0  0  0  0  0  0
  -34.7270  -25.9635   25.8405 C   0  0  0  0  0  0  0  0  0  0  0  0
  -35.1022  -28.6151   23.7250 C   0  0  0  0  0  0  0  0  0  0  0  0
  -30.7245  -14.7708   20.6621 C   0  0  0  0  0  0  0  0  0  0  0  0
  -35.0862  -19.5185   30.2186 C   0  0  0  0  0  0  0  0  0  0  0  0
  -37.0858  -23.1935   25.2269 C   0  0  0  0  0  0  0  0  0  0  0  0
  -34.9049  -24.5482   23.7595 C   0  0  0  0  0  0  0  0  0  0  0  0
  -33.6288  -19.3705   19.6980 C   0  0  0  0  0  0  0  0  0  0  0  0
  -34.5758  -20.9410   30.0037 C   0  0  0  0  0  0  0  0  0  0  0  0
  -29.6120  -12.3614   18.2884 C   0  0  0  0  0  0  0  0  0  0  0  0
  -33.6836  -21.0071   28.7682 C   0  0  0  0  0  0  0  0  0  0  0  0
  -28.1725  -12.0679   18.7172 C   0  0  0  0  0  0  0  0  0  0  0  0
  -30.5268  -12.5882   19.4907 C   0  0  0  0  0  0  0  0  0  0  0  0
  -28.6192  -13.3084   20.8733 C   0  0  0  0  0  0  0  0  0  0  0  0
  -34.4616  -20.6202   27.5046 C   0  0  1  0  0  0  0  0  0  0  0  0
  -35.8778  -23.7833   25.9483 C   0  0  1  0  0  0  0  0  0  0  0  0
  -27.6467  -13.1370   19.6949 C   0  0  2  0  0  0  0  0  0  0  0  0
  -29.5079  -22.1465   21.2743 C   0  0  0  0  0  0  0  0  0  0  0  0
  -34.9073  -31.1157   23.6468 C   0  0  0  0  0  0  0  0  0  0  0  0
  -31.6869  -25.7212   25.7442 C   0  0  0  0  0  0  0  0  0  0  0  0
  -31.6058  -28.0122   24.7378 C   0  0  0  0  0  0  0  0  0  0  0  0
  -32.5362  -27.6910   27.0299 C   0  0  0  0  0  0  0  0  0  0  0  0
  -37.9659  -28.9331   23.0491 C   0  0  0  0  0  0  0  0  0  0  0  0
  -35.5355  -20.2706   18.1860 C   0  0  0  0  0  0  0  0  0  0  0  0
  -36.4523  -20.6668   19.3355 C   0  0  0  0  0  0  0  0  0  1  0  0
  -33.8680  -26.9040   25.0301 C   0  0  1  0  0  0  0  0  0  0  0  0
  -35.8355  -29.9347   23.8840 C   0  0  2  0  0  0  0  0  0  0  0  0
  -32.4394  -27.0614   25.6232 C   0  0  0  0  0  0  0  0  0  0  0  0
  -25.8605  -11.5432   20.2870 N   0  0  0  0  0  0  0  0  0  0  0  0
  -26.2366  -12.8273   20.1615 N   0  0  0  0  0  0  0  0  0  0  0  0
  -32.2112  -19.6649   19.7364 N   0  0  0  0  0  0  0  0  0  0  0  0
  -35.2114  -24.8306   25.1715 N   0  0  0  0  0  0  0  0  0  0  0  0
  -29.9671  -13.6168   20.3702 N   0  0  0  0  0  0  0  0  0  0  0  0
  -25.4686  -15.0537   20.4143 N   0  0  0  0  0  0  0  0  0  0  0  0
  -21.8851  -12.5744   21.6010 N   0  0  0  0  0  0  0  0  0  0  0  0
  -30.0764  -15.6936   21.4824 N   0  0  0  0  0  0  0  0  0  0  0  0
  -35.2977  -21.7184   27.0697 N   0  0  0  0  0  0  0  0  0  0  0  0
  -34.6140  -28.1536   24.9292 N   0  0  0  0  0  0  0  0  0  0  0  0
  -36.9632  -30.0209   22.9135 N   0  3  0  0  0  0  0  0  0  0  0  0
  -30.7761  -21.0895   18.5052 O   0  0  0  0  0  0  0  0  0  0  0  0
  -31.7802  -21.9122   21.7893 O   0  0  0  0  0  0  0  0  0  0  0  0
  -22.6594  -14.7153   21.3258 O   0  0  0  0  0  0  0  0  0  0  0  0
  -33.6980  -22.8822   25.8413 O   0  0  0  0  0  0  0  0  0  0  0  0
  -34.9654  -26.2282   27.0215 O   0  0  0  0  0  0  0  0  0  0  0  0
  -34.9719  -28.0519   22.6403 O   0  0  0  0  0  0  0  0  0  0  0  0
  -31.8536  -14.9413   20.1949 O   0  0  0  0  0  0  0  0  0  0  0  0
  -21.6156   -7.0108   21.6969 O   0  0  0  0  0  0  0  0  0  0  0  0
  -36.1287  -21.9850   19.7757 O   0  0  0  0  0  0  0  0  0  1  0  0
  -18.6242   -6.8402   26.3258 F   0  0  0  0  0  0  0  0  0  0  0  0
  -22.0671   -5.0634   23.6064 F   0  0  0  0  0  0  0  0  0  0  0  0
  1  2  1  0  0  0  0
  1  6  2  0  0  0  0
  2  7  2  0  0  0  0
  3 10  2  0  0  0  0
  3 18  1  0  0  0  0
  4 11  1  0  0  0  0
  4 18  2  0  0  0  0
  5  9  2  0  0  0  0
  5 19  1  0  0  0  0
  6 21  1  0  0  0  0
  7 23  1  0  0  0  0
  8 12  2  0  0  0  0
  8 22  1  0  0  0  0
  9 26  1  0  0  0  0
 10 27  1  0  0  0  0
 11 27  2  0  0  0  0
 12 28  1  0  0  0  0
 13 14  2  0  0  0  0
 13 29  1  0  0  0  0
 14 30  1  0  0  0  0
 15 24  1  0  0  0  0
 15 28  2  0  0  0  0
 16 25  1  0  0  0  0
 16 26  2  0  0  0  0
 17 30  2  0  0  0  0
 17 31  1  0  0  0  0
 18 32  1  0  0  0  0
 19 25  2  0  0  0  0
 19 37  1  0  0  0  0
 20 32  1  0  0  0  0
 20 33  2  0  0  0  0
 20 38  1  0  0  0  0
 21 23  2  0  0  0  0
 21 43  1  0  0  0  0
 22 24  2  0  0  0  0
 22 44  1  0  0  0  0
 23 53  1  0  0  0  0
 24 45  1  0  0  0  0
 25 69  1  0  0  0  0
 26 74  1  0  0  0  0
 27 85  1  0  0  0  0
 28 86  1  0  0  0  0
 29 31  2  0  0  0  0
 29 85  1  0  0  0  0
 30 87  1  0  0  0  0
 31 88  1  0  0  0  0
 32 67  2  0  0  0  0
 33 68  1  0  0  0  0
 33 72  1  0  0  0  0
 34 35  2  0  0  0  0
 34 36  1  0  0  0  0
 35 46  1  0  0  0  0
 35 62  1  0  0  0  0
 36 69  1  0  0  0  0
 36 78  2  0  0  0  0
 37 56  1  0  0  0  0
 37 79  2  0  0  0  0
 38 73  1  0  0  0  0
 38 80  2  0  0  0  0
 39 54  1  0  0  0  0
 39 75  1  0  0  0  0
 39 81  2  0  0  0  0
 40 64  1  0  0  0  0
 40 70  1  0  0  0  0
 40 82  2  0  0  0  0
 41 65  1  0  0  0  0
 41 76  1  0  0  0  0
 41 83  2  0  0  0  0
 42 71  1  0  0  0  0
 42 74  1  0  0  0  0
 42 84  2  0  0  0  0
 43 47  1  0  0  0  0
 44 54  1  0  0  0  0
 45 70  1  0  0  0  0
 46 69  1  0  0  0  0
 47 49  1  0  0  0  0
 48 50  1  0  0  0  0
 48 51  1  0  0  0  0
 49 53  1  0  0  0  0
 50 55  1  0  0  0  0
 51 71  1  0  0  0  0
 52 55  1  0  0  0  0
 52 71  1  0  0  0  0
 53 75  1  0  0  0  0
 54 70  1  0  0  0  0
 55 68  1  0  0  0  0
 57 65  1  0  0  0  0
 58 66  1  0  0  0  0
 59 66  1  0  0  0  0
 60 66  1  0  0  0  0
 61 77  1  0  0  0  0
 62 63  1  0  0  0  0
 63 86  1  0  0  0  0
 64 66  1  0  0  0  0
 64 76  1  0  0  0  0
 65 77  1  0  0  0  0
 67 68  1  0  0  0  0
M  CHG  1  77   1
M  ISO  4  42 100  63 101  74 100  86 101
M  END
> <Batch ID>
0073

> <Smiles>
CNC(C)C(=O)NC(C(=O)N1Cc2cc([101O:1][101CH2:1]CC3=CC(=O)N(c4cc([100NH:0][100C:0](=O)N5CCCC(n6nc(-c7ccc(Oc8ccc(F)cc8F)cc7)c(C(N)=O)c6N)C5)ccc4C(C)=O)C3)ccc2CC1C(=O)NC1CCCc2ccccc21)C(C)(C)C

> <Shape>
0.181

> <Color>
0.188

> <Negative vol penalty>
0.000

$$$$

  -OEChem-04042323413D

 87 96  0     1  0  0  0  0  0999 V2000
  -20.7192  -31.0142   21.1425 C   0  0  0  0  0  0  0  0  0  0  0  0
  -20.5831  -29.6679   20.8192 C   0  0  0  0  0  0  0  0  0  0  0  0
  -23.1019   -9.9041   19.8467 C   0  0  0  0  0  0  0  0  0  0  0  0
  -23.9398   -9.6708   22.1007 C   0  0  0  0  0  0  0  0  0  0  0  0
  -21.7936  -31.7458   20.6382 C   0  0  0  0  0  0  0  0  0  0  0  0
  -21.5208  -29.0528   19.9905 C   0  0  0  0  0  0  0  0  0  0  0  0
  -23.4906  -23.2635   20.3221 C   0  0  0  0  0  0  0  0  0  0  0  0
  -26.9162  -16.0937   17.1997 C   0  0  0  0  0  0  0  0  0  0  0  0
  -28.0081  -15.2820   16.8923 C   0  0  0  0  0  0  0  0  0  0  0  0
  -22.4066   -8.7024   19.9807 C   0  0  0  0  0  0  0  0  0  0  0  0
  -23.2445   -8.4690   22.2348 C   0  0  0  0  0  0  0  0  0  0  0  0
  -23.1372  -22.1109   19.6218 C   0  0  0  0  0  0  0  0  0  0  0  0
  -21.4008   -5.5212   23.2973 C   0  0  0  0  0  0  0  0  0  0  0  0
  -20.6873   -5.3121   24.4775 C   0  0  0  0  0  0  0  0  0  0  0  0
  -24.9903  -22.4637   18.1181 C   0  0  0  0  0  0  0  0  0  0  0  0
  -25.4237  -14.4404   16.2635 C   0  0  0  0  0  0  0  0  0  0  0  0
  -19.3533   -7.2734   24.0185 C   0  0  0  0  0  0  0  0  0  0  0  0
  -23.8686  -10.3883   20.9066 C   0  0  0  0  0  0  0  0  0  0  0  0
  -24.1203  -12.9212   21.0762 C   0  0  0  0  0  0  0  0  0  0  0  0
  -22.7503  -31.1370   19.8108 C   0  0  0  0  0  0  0  0  0  0  0  0
  -24.5918  -24.0321   19.9184 C   0  0  0  0  0  0  0  0  0  0  0  0
  -22.6083  -29.7773   19.4736 C   0  0  0  0  0  0  0  0  0  0  0  0
  -25.3571  -23.6242   18.8165 C   0  0  0  0  0  0  0  0  0  0  0  0
  -26.5157  -13.6288   15.9561 C   0  0  0  0  0  0  0  0  0  0  0  0
  -25.6240  -15.6729   16.8853 C   0  0  0  0  0  0  0  0  0  0  0  0
  -27.8079  -14.0496   16.2705 C   0  0  0  0  0  0  0  0  0  0  0  0
  -22.4779   -7.9848   21.1748 C   0  0  0  0  0  0  0  0  0  0  0  0
  -23.8854  -21.7124   18.5179 C   0  0  0  0  0  0  0  0  0  0  0  0
  -21.0906   -6.6065   22.4777 C   0  0  0  0  0  0  0  0  0  0  0  0
  -19.6635   -6.1881   24.8380 C   0  0  0  0  0  0  0  0  0  0  0  0
  -20.0668   -7.4825   22.8383 C   0  0  0  0  0  0  0  0  0  0  0  0
  -24.5875  -11.6293   20.7686 C   0  0  0  0  0  0  0  0  0  0  0  0
  -25.1732  -13.7487   20.7713 C   0  0  0  0  0  0  0  0  0  0  0  0
  -23.2083  -18.2299   17.9474 C   0  0  0  0  0  0  0  0  0  0  0  0
  -22.4088  -17.2950   17.4194 C   0  0  0  0  0  0  0  0  0  0  0  0
  -24.6021  -17.7321   17.8171 C   0  0  0  0  0  0  0  0  0  0  0  0
  -22.8483  -13.3360   21.5915 C   0  0  0  0  0  0  0  0  0  0  0  0
  -24.9907  -27.0137   18.8912 C   0  0  0  0  0  0  0  0  0  0  0  0
  -28.1359  -26.2401   19.0685 C   0  0  0  0  0  0  0  0  0  0  0  0
  -30.5247  -23.8028   19.0645 C   0  0  0  0  0  0  0  0  0  0  0  0
  -29.8408  -12.7422   16.9406 C   0  0  0  0  0  0  0  0  0  0  0  0
  -23.8685  -31.9804   19.2514 C   0  0  0  0  0  0  0  0  0  0  0  0
  -24.9759  -25.2581   20.7006 C   0  0  0  0  0  0  0  0  0  0  0  0
  -26.5605  -24.4033   18.3547 C   0  0  0  0  0  0  0  0  0  0  0  0
  -23.1672  -16.1188   16.9014 C   0  0  0  0  0  0  0  0  0  0  0  0
  -25.0243  -31.1607   18.6837 C   0  0  0  0  0  0  0  0  0  0  0  0
  -29.9435  -13.8251   20.4775 C   0  0  0  0  0  0  0  0  0  0  0  0
  -24.4969  -30.0371   17.7970 C   0  0  0  0  0  0  0  0  0  0  0  0
  -28.5672  -13.4150   20.9980 C   0  0  0  0  0  0  0  0  0  0  0  0
  -30.4117  -12.9212   19.3411 C   0  0  0  0  0  0  0  0  0  0  0  0
  -28.0617  -12.4272   18.7286 C   0  0  0  0  0  0  0  0  0  0  0  0
  -23.6185  -29.0684   18.5978 C   0  0  1  0  0  0  0  0  0  0  0  0
  -25.8093  -26.2467   19.8909 C   0  0  1  0  0  0  0  0  0  0  0  0
  -27.5500  -13.3474   19.8469 C   0  0  1  0  0  0  0  0  0  0  0  0
  -26.2719  -12.3126   15.2919 C   0  0  0  0  0  0  0  0  0  0  0  0
  -20.9242  -17.3095   17.3030 C   0  0  0  0  0  0  0  0  0  0  0  0
  -33.0104  -23.4806   19.1869 C   0  0  0  0  0  0  0  0  0  0  0  0
  -28.3937  -27.1456   16.1662 C   0  0  0  0  0  0  0  0  0  0  0  0
  -30.5856  -25.9406   16.0579 C   0  0  0  0  0  0  0  0  0  0  0  0
  -30.2854  -27.8396   17.6474 C   0  0  0  0  0  0  0  0  0  0  0  0
  -29.3458  -13.0983   14.5616 C   0  0  0  0  0  0  0  0  0  0  0  0
  -30.3134  -22.2181   21.5551 C   0  0  0  0  0  0  0  0  0  0  0  0
  -22.9097  -19.5442   18.5713 C   0  0  0  0  0  0  0  0  0  1  0  0
  -29.1430  -25.6344   18.1209 C   0  0  1  0  0  0  0  0  0  0  0  0
  -31.7128  -23.5554   19.9765 C   0  0  2  0  0  0  0  0  0  0  0  0
  -29.5782  -26.6262   17.0054 C   0  0  0  0  0  0  0  0  0  0  0  0
  -25.8397  -11.6310   20.3038 N   0  0  0  0  0  0  0  0  0  0  0  0
  -26.1682  -12.9340   20.3170 N   0  0  0  0  0  0  0  0  0  0  0  0
  -24.5361  -16.4805   17.1940 N   0  0  0  0  0  0  0  0  0  0  0  0
  -26.8920  -25.5981   19.1484 N   0  0  0  0  0  0  0  0  0  0  0  0
  -29.4081  -12.8187   18.2804 N   0  0  0  0  0  0  0  0  0  0  0  0
  -25.3357  -15.0866   20.8502 N   0  0  0  0  0  0  0  0  0  0  0  0
  -21.8800  -12.3560   21.8492 N   0  0  0  0  0  0  0  0  0  0  0  0
  -24.4399  -28.1786   19.3903 N   0  0  0  0  0  0  0  0  0  0  0  0
  -30.2409  -25.1472   18.9489 N   0  0  0  0  0  0  0  0  0  0  0  0
  -28.9502  -13.2242   15.9626 N   0  0  0  0  0  0  0  0  0  0  0  0
  -31.5390  -22.2741   20.7175 N   0  3  0  0  0  0  0  0  0  0  0  0
  -25.5889  -18.3409   18.1994 O   0  0  0  0  0  0  0  0  0  0  0  0
  -22.5726  -14.5416   21.8013 O   0  0  0  0  0  0  0  0  0  0  0  0
  -24.8690  -26.5814   17.7510 O   0  0  0  0  0  0  0  0  0  0  0  0
  -28.4441  -27.2416   19.7194 O   0  0  0  0  0  0  0  0  0  0  0  0
  -29.9122  -22.8946   18.5073 O   0  0  0  0  0  0  0  0  0  0  0  0
  -30.9229  -12.2286   16.6308 O   0  0  0  0  0  0  0  0  0  0  0  0
  -21.7993   -6.8123   21.3060 O   0  0  0  0  0  0  0  0  0  0  0  0
  -23.5422  -20.5882   17.8321 O   0  0  0  0  0  0  0  0  0  1  0  0
  -18.9774   -5.9863   25.9706 F   0  0  0  0  0  0  0  0  0  0  0  0
  -19.7635   -8.5262   22.0544 F   0  0  0  0  0  0  0  0  0  0  0  0
  1  2  1  0  0  0  0
  1  5  2  0  0  0  0
  2  6  2  0  0  0  0
  3 10  2  0  0  0  0
  3 18  1  0  0  0  0
  4 11  1  0  0  0  0
  4 18  2  0  0  0  0
  5 20  1  0  0  0  0
  6 22  1  0  0  0  0
  7 12  2  0  0  0  0
  7 21  1  0  0  0  0
  8  9  2  0  0  0  0
  8 25  1  0  0  0  0
  9 26  1  0  0  0  0
 10 27  1  0  0  0  0
 11 27  2  0  0  0  0
 12 28  1  0  0  0  0
 13 14  2  0  0  0  0
 13 29  1  0  0  0  0
 14 30  1  0  0  0  0
 15 23  1  0  0  0  0
 15 28  2  0  0  0  0
 16 24  1  0  0  0  0
 16 25  2  0  0  0  0
 17 30  2  0  0  0  0
 17 31  1  0  0  0  0
 18 32  1  0  0  0  0
 19 32  1  0  0  0  0
 19 33  2  0  0  0  0
 19 37  1  0  0  0  0
 20 22  2  0  0  0  0
 20 42  1  0  0  0  0
 21 23  2  0  0  0  0
 21 43  1  0  0  0  0
 22 52  1  0  0  0  0
 23 44  1  0  0  0  0
 24 26  2  0  0  0  0
 24 55  1  0  0  0  0
 25 69  1  0  0  0  0
 26 76  1  0  0  0  0
 27 84  1  0  0  0  0
 28 85  1  0  0  0  0
 29 31  2  0  0  0  0
 29 84  1  0  0  0  0
 30 86  1  0  0  0  0
 31 87  1  0  0  0  0
 32 67  2  0  0  0  0
 33 68  1  0  0  0  0
 33 72  1  0  0  0  0
 34 35  2  0  0  0  0
 34 36  1  0  0  0  0
 34 63  1  0  0  0  0
 35 45  1  0  0  0  0
 35 56  1  0  0  0  0
 36 69  1  0  0  0  0
 36 78  2  0  0  0  0
 37 73  1  0  0  0  0
 37 79  2  0  0  0  0
 38 53  1  0  0  0  0
 38 74  1  0  0  0  0
 38 80  2  0  0  0  0
 39 64  1  0  0  0  0
 39 70  1  0  0  0  0
 39 81  2  0  0  0  0
 40 65  1  0  0  0  0
 40 75  1  0  0  0  0
 40 82  2  0  0  0  0
 41 71  1  0  0  0  0
 41 76  1  0  0  0  0
 41 83  2  0  0  0  0
 42 46  1  0  0  0  0
 43 53  1  0  0  0  0
 44 70  1  0  0  0  0
 45 69  1  0  0  0  0
 46 48  1  0  0  0  0
 47 49  1  0  0  0  0
 47 50  1  0  0  0  0
 48 52  1  0  0  0  0
 49 54  1  0  0  0  0
 50 71  1  0  0  0  0
 51 54  1  0  0  0  0
 51 71  1  0  0  0  0
 52 74  1  0  0  0  0
 53 70  1  0  0  0  0
 54 68  1  0  0  0  0
 57 65  1  0  0  0  0
 58 66  1  0  0  0  0
 59 66  1  0  0  0  0
 60 66  1  0  0  0  0
 61 76  1  0  0  0  0
 62 77  1  0  0  0  0
 63 85  1  0  0  0  0
 64 66  1  0  0  0  0
 64 75  1  0  0  0  0
 65 77  1  0  0  0  0
 67 68  1  0  0  0  0
M  CHG  1  77   1
M  ISO  4  41 100  63 101  76 100  85 101
M  END
> <Batch ID>
0073

> <Smiles>
C=C1CN(c2ccc([100N:0](C)[100C:0](=O)N3CCCC(n4nc(-c5ccc(Oc6ccc(F)cc6F)cc5)c(C(N)=O)c4N)C3)c(C)c2)C(=O)C1[101CH2:1][101O:1]c1ccc2c(c1)CN(C(=O)C(NC(=O)C(C)NC)C(C)(C)C)C(C(=O)NC1CCCc3ccccc31)C2

> <Shape>
0.237

> <Color>
0.183

> <Negative vol penalty>
0.000

$$$$

  -OEChem-04042323413D

 89 98  0     1  0  0  0  0  0999 V2000
  -17.4051  -28.1660   20.4633 C   0  0  0  0  0  0  0  0  0  0  0  0
  -17.9421  -27.4861   21.5517 C   0  0  0  0  0  0  0  0  0  0  0  0
  -26.0904  -12.7286   19.7392 C   0  0  0  0  0  0  0  0  0  0  0  0
  -24.5015  -14.4862   20.2112 C   0  0  0  0  0  0  0  0  0  0  0  0
  -18.2326  -28.9342   19.6454 C   0  0  0  0  0  0  0  0  0  0  0  0
  -19.3072  -27.5731   21.8223 C   0  0  0  0  0  0  0  0  0  0  0  0
  -23.9214  -27.6105   27.3017 C   0  0  0  0  0  0  0  0  0  0  0  0
  -27.9331  -21.6828   22.4896 C   0  0  0  0  0  0  0  0  0  0  0  0
  -27.9679  -21.9839   23.8510 C   0  0  0  0  0  0  0  0  0  0  0  0
  -25.4243  -11.8871   20.6301 C   0  0  0  0  0  0  0  0  0  0  0  0
  -23.8353  -13.6447   21.1021 C   0  0  0  0  0  0  0  0  0  0  0  0
  -25.0800  -26.9697   27.7385 C   0  0  0  0  0  0  0  0  0  0  0  0
  -22.6338   -9.9776   20.6401 C   0  0  0  0  0  0  0  0  0  0  0  0
  -22.3880   -8.6664   20.2327 C   0  0  0  0  0  0  0  0  0  0  0  0
  -26.3996  -28.3904   26.3035 C   0  0  0  0  0  0  0  0  0  0  0  0
  -28.8986  -24.1557   23.3469 C   0  0  0  0  0  0  0  0  0  0  0  0
  -23.6819   -7.8438   22.0999 C   0  0  0  0  0  0  0  0  0  0  0  0
  -25.6290  -14.0282   19.5297 C   0  0  0  0  0  0  0  0  0  0  0  0
  -26.0697  -15.0447   17.2319 C   0  0  0  0  0  0  0  0  0  0  0  0
  -19.6070  -29.0384   19.9117 C   0  0  0  0  0  0  0  0  0  0  0  0
  -23.9924  -28.6404   26.3527 C   0  0  0  0  0  0  0  0  0  0  0  0
  -20.1542  -28.3423   21.0064 C   0  0  0  0  0  0  0  0  0  0  0  0
  -25.2407  -29.0444   25.8582 C   0  0  0  0  0  0  0  0  0  0  0  0
  -28.3812  -22.6180   21.5567 C   0  0  0  0  0  0  0  0  0  0  0  0
  -28.8639  -23.8545   21.9853 C   0  0  0  0  0  0  0  0  0  0  0  0
  -28.4506  -23.2204   24.2797 C   0  0  0  0  0  0  0  0  0  0  0  0
  -24.2967  -12.3451   21.3115 C   0  0  0  0  0  0  0  0  0  0  0  0
  -26.3191  -27.3576   27.2373 C   0  0  0  0  0  0  0  0  0  0  0  0
  -23.4038  -10.2219   21.7773 C   0  0  0  0  0  0  0  0  0  0  0  0
  -22.9120   -7.5995   20.9626 C   0  0  0  0  0  0  0  0  0  0  0  0
  -23.9278   -9.1550   22.5072 C   0  0  0  0  0  0  0  0  0  0  0  0
  -26.3171  -14.8981   18.6099 C   0  0  0  0  0  0  0  0  0  0  0  0
  -26.9830  -15.9829   16.8170 C   0  0  0  0  0  0  0  0  0  0  0  0
  -28.9414  -24.7293   26.2577 C   0  0  0  0  0  0  0  0  0  0  0  0
  -26.8890  -23.4234   18.3911 C   0  0  0  0  0  0  0  0  0  0  0  0
  -27.0150  -22.6158   19.4509 C   0  0  0  0  0  0  0  0  0  0  0  0
  -25.1008  -14.3914   16.4011 C   0  0  0  0  0  0  0  0  0  0  0  0
  -22.8674  -29.0602   23.4096 C   0  0  0  0  0  0  0  0  0  0  0  0
  -24.0773  -32.0455   23.7923 C   0  0  0  0  0  0  0  0  0  0  0  0
  -26.3081  -34.0867   25.3748 C   0  0  0  0  0  0  0  0  0  0  0  0
  -29.8828  -20.3850   19.6568 C   0  0  0  0  0  0  0  0  0  0  0  0
  -20.4696  -29.8427   18.9716 C   0  0  0  0  0  0  0  0  0  0  0  0
  -22.7358  -29.3397   25.9117 C   0  0  0  0  0  0  0  0  0  0  0  0
  -25.3729  -30.1583   24.8531 C   0  0  0  0  0  0  0  0  0  0  0  0
  -21.8419  -30.1847   19.5462 C   0  0  0  0  0  0  0  0  0  0  0  0
  -31.3345  -17.6841   17.8471 C   0  0  0  0  0  0  0  0  0  0  0  0
  -22.4767  -28.9520   20.1819 C   0  0  0  0  0  0  0  0  0  0  0  0
  -30.1909  -16.6771   17.7131 C   0  0  0  0  0  0  0  0  0  0  0  0
  -28.5368  -23.1366   27.9842 C   0  0  0  0  0  0  0  0  0  0  0  0
  -31.2970  -18.4048   19.1930 C   0  0  0  0  0  0  0  0  0  0  0  0
  -27.9790  -22.6111   26.6755 C   0  0  0  0  0  0  0  0  0  0  0  0
  -28.8665  -18.0424   19.3806 C   0  0  0  0  0  0  0  0  0  0  0  0
  -21.6259  -28.4319   21.3469 C   0  0  1  0  0  0  0  0  0  0  0  0
  -22.8791  -30.0288   24.5582 C   0  0  1  0  0  0  0  0  0  0  0  0
  -28.8295  -17.3308   18.0174 C   0  0  2  0  0  0  0  0  0  0  0  0
  -28.6537  -24.6458   27.7560 C   0  0  1  0  0  0  0  0  0  0  0  0
  -29.3468  -24.8721   21.0046 C   0  0  0  0  0  0  0  0  0  0  0  0
  -29.7861  -25.2545   28.5795 C   0  0  0  0  0  0  0  0  0  0  0  0
  -27.0872  -36.4710   25.4494 C   0  0  0  0  0  0  0  0  0  0  0  0
  -25.6037  -31.6259   21.1838 C   0  0  0  0  0  0  0  0  0  0  0  0
  -27.0478  -33.5773   21.7961 C   0  0  0  0  0  0  0  0  0  0  0  0
  -24.5986  -33.9004   21.4500 C   0  0  0  0  0  0  0  0  0  0  0  0
  -25.5309  -34.3734   28.2160 C   0  0  0  0  0  0  0  0  0  0  0  0
  -27.3323  -25.3655   28.0502 C   0  0  0  0  0  0  0  0  0  1  0  0
  -28.3349  -22.2726   20.1044 C   0  0  2  0  0  0  0  0  0  0  0  0
  -25.4100  -32.7016   23.5229 C   0  0  1  0  0  0  0  0  0  0  0  0
  -26.1382  -35.4402   26.0408 C   0  0  2  0  0  0  0  0  0  0  0  0
  -25.6627  -32.9290   22.0057 C   0  0  0  0  0  0  0  0  0  0  0  0
  -27.3099  -15.6803   19.0417 N   0  0  0  0  0  0  0  0  0  0  0  0
  -27.6944  -16.3275   17.9284 N   0  0  0  0  0  0  0  0  0  0  0  0
  -28.4846  -23.5299   25.6732 N   0  0  0  0  0  0  0  0  0  0  0  0
  -24.1147  -30.8069   24.4481 N   0  0  0  0  0  0  0  0  0  0  0  0
  -29.9796  -19.0039   19.4197 N   0  0  0  0  0  0  0  0  0  0  0  0
  -27.2389  -16.5385   15.6135 N   0  0  0  0  0  0  0  0  0  0  0  0
  -24.2400  -13.4544   16.9888 N   0  0  0  0  0  0  0  0  0  0  0  0
  -21.8247  -29.2513   22.5232 N   0  0  0  0  0  0  0  0  0  0  0  0
  -25.4331  -33.9221   24.3219 N   0  0  0  0  0  0  0  0  0  0  0  0
  -28.5968  -20.8725   19.8554 N   0  0  0  0  0  0  0  0  0  0  0  0
  -26.4092  -35.3359   27.5025 N   0  3  0  0  0  0  0  0  0  0  0  0
  -29.4258  -25.7191   25.7268 O   0  0  0  0  0  0  0  0  0  0  0  0
  -25.0123  -14.6193   15.1708 O   0  0  0  0  0  0  0  0  0  0  0  0
  -23.7407  -28.2040   23.3324 O   0  0  0  0  0  0  0  0  0  0  0  0
  -23.0410  -32.6146   23.4404 O   0  0  0  0  0  0  0  0  0  0  0  0
  -27.1369  -33.2597   25.7486 O   0  0  0  0  0  0  0  0  0  0  0  0
  -30.8687  -21.1294   19.6837 O   0  0  0  0  0  0  0  0  0  0  0  0
  -23.6463  -11.5242   22.1808 O   0  0  0  0  0  0  0  0  0  0  0  0
  -27.4514  -26.7334   27.6615 O   0  0  0  0  0  0  0  0  0  1  0  0
  -22.6746   -6.3404   20.5722 F   0  0  0  0  0  0  0  0  0  0  0  0
  -24.6672   -9.3835   23.6012 F   0  0  0  0  0  0  0  0  0  0  0  0
  1  2  1  0  0  0  0
  1  5  2  0  0  0  0
  2  6  2  0  0  0  0
  3 10  2  0  0  0  0
  3 18  1  0  0  0  0
  4 11  1  0  0  0  0
  4 18  2  0  0  0  0
  5 20  1  0  0  0  0
  6 22  1  0  0  0  0
  7 12  2  0  0  0  0
  7 21  1  0  0  0  0
  8  9  2  0  0  0  0
  8 24  1  0  0  0  0
  9 26  1  0  0  0  0
 10 27  1  0  0  0  0
 11 27  2  0  0  0  0
 12 28  1  0  0  0  0
 13 14  2  0  0  0  0
 13 29  1  0  0  0  0
 14 30  1  0  0  0  0
 15 23  1  0  0  0  0
 15 28  2  0  0  0  0
 16 25  1  0  0  0  0
 16 26  2  0  0  0  0
 17 30  2  0  0  0  0
 17 31  1  0  0  0  0
 18 32  1  0  0  0  0
 19 32  1  0  0  0  0
 19 33  2  0  0  0  0
 19 37  1  0  0  0  0
 20 22  2  0  0  0  0
 20 42  1  0  0  0  0
 21 23  2  0  0  0  0
 21 43  1  0  0  0  0
 22 53  1  0  0  0  0
 23 44  1  0  0  0  0
 24 25  2  0  0  0  0
 24 65  1  0  0  0  0
 25 57  1  0  0  0  0
 26 71  1  0  0  0  0
 27 86  1  0  0  0  0
 28 87  1  0  0  0  0
 29 31  2  0  0  0  0
 29 86  1  0  0  0  0
 30 88  1  0  0  0  0
 31 89  1  0  0  0  0
 32 69  2  0  0  0  0
 33 70  1  0  0  0  0
 33 74  1  0  0  0  0
 34 56  1  0  0  0  0
 34 71  1  0  0  0  0
 34 80  2  0  0  0  0
 35 36  2  0  0  0  0
 36 65  1  0  0  0  0
 37 75  1  0  0  0  0
 37 81  2  0  0  0  0
 38 54  1  0  0  0  0
 38 76  1  0  0  0  0
 38 82  2  0  0  0  0
 39 66  1  0  0  0  0
 39 72  1  0  0  0  0
 39 83  2  0  0  0  0
 40 67  1  0  0  0  0
 40 77  1  0  0  0  0
 40 84  2  0  0  0  0
 41 73  1  0  0  0  0
 41 78  1  0  0  0  0
 41 85  2  0  0  0  0
 42 45  1  0  0  0  0
 43 54  1  0  0  0  0
 44 72  1  0  0  0  0
 45 47  1  0  0  0  0
 46 48  1  0  0  0  0
 46 50  1  0  0  0  0
 47 53  1  0  0  0  0
 48 55  1  0  0  0  0
 49 51  1  0  0  0  0
 49 56  1  0  0  0  0
 50 73  1  0  0  0  0
 51 71  1  0  0  0  0
 52 55  1  0  0  0  0
 52 73  1  0  0  0  0
 53 76  1  0  0  0  0
 54 72  1  0  0  0  0
 55 70  1  0  0  0  0
 56 58  1  0  0  0  0
 56 64  1  0  0  0  0
 59 67  1  0  0  0  0
 60 68  1  0  0  0  0
 61 68  1  0  0  0  0
 62 68  1  0  0  0  0
 63 79  1  0  0  0  0
 64 87  1  0  0  0  0
 65 78  1  0  0  0  0
 66 68  1  0  0  0  0
 66 77  1  0  0  0  0
 67 79  1  0  0  0  0
 69 70  1  0  0  0  0
M  CHG  1  79   1
M  ISO  4  41 100  64 101  78 100  87 101
M  END
> <Batch ID>
0073

> <Smiles>
C=CC([100NH:0][100C:0](=O)N1CCCC(n2nc(-c3ccc(Oc4ccc(F)cc4F)cc3)c(C(N)=O)c2N)C1)c1ccc(N2CCC(C)([101CH2:1][101O:1]c3ccc4c(c3)CN(C(=O)C(NC(=O)C(C)NC)C(C)(C)C)C(C(=O)NC3CCCc5ccccc53)C4)C2=O)cc1C

> <Shape>
0.227

> <Color>
0.087

> <Negative vol penalty>
0.000

$$$$

  -OEChem-04042323413D

 83 91  0     1  0  0  0  0  0999 V2000
  -28.5776  -33.0772   21.6276 C   0  0  0  0  0  0  0  0  0  0  0  0
  -28.2964  -31.7767   21.2215 C   0  0  0  0  0  0  0  0  0  0  0  0
  -26.6769  -12.5033   21.7936 C   0  0  0  0  0  0  0  0  0  0  0  0
  -25.9733  -14.0099   20.0408 C   0  0  0  0  0  0  0  0  0  0  0  0
  -27.8263  -33.6670   22.6433 C   0  0  0  0  0  0  0  0  0  0  0  0
  -27.2642  -31.0648   21.8317 C   0  0  0  0  0  0  0  0  0  0  0  0
  -24.3489  -28.6212   18.4888 C   0  0  0  0  0  0  0  0  0  0  0  0
  -31.2929  -22.1582   20.6172 C   0  0  0  0  0  0  0  0  0  0  0  0
  -25.4003  -11.9420   21.8235 C   0  0  0  0  0  0  0  0  0  0  0  0
  -24.6968  -13.4486   20.0707 C   0  0  0  0  0  0  0  0  0  0  0  0
  -24.8470  -27.4314   17.9596 C   0  0  0  0  0  0  0  0  0  0  0  0
  -22.4285   -9.8681   22.1107 C   0  0  0  0  0  0  0  0  0  0  0  0
  -31.6597  -23.0981   19.6541 C   0  0  0  0  0  0  0  0  0  0  0  0
  -22.3326   -8.4774   22.1590 C   0  0  0  0  0  0  0  0  0  0  0  0
  -23.4830  -26.1796   19.5061 C   0  0  0  0  0  0  0  0  0  0  0  0
  -29.4369  -21.4653   19.2345 C   0  0  0  0  0  0  0  0  0  0  0  0
  -23.5186   -8.3227   20.0599 C   0  0  0  0  0  0  0  0  0  0  0  0
  -26.9634  -13.5373   20.9023 C   0  0  0  0  0  0  0  0  0  0  0  0
  -29.3726  -13.7086   20.0812 C   0  0  0  0  0  0  0  0  0  0  0  0
  -26.7782  -32.9654   23.2596 C   0  0  0  0  0  0  0  0  0  0  0  0
  -23.4207  -28.5992   19.5398 C   0  0  0  0  0  0  0  0  0  0  0  0
  -26.4991  -31.6453   22.8575 C   0  0  0  0  0  0  0  0  0  0  0  0
  -22.9727  -27.3704   20.0452 C   0  0  0  0  0  0  0  0  0  0  0  0
  -29.8036  -22.4053   18.2713 C   0  0  0  0  0  0  0  0  0  0  0  0
  -30.1816  -21.3417   20.4074 C   0  0  0  0  0  0  0  0  0  0  0  0
  -24.4103  -12.4146   20.9621 C   0  0  0  0  0  0  0  0  0  0  0  0
  -24.4162  -26.2104   18.4702 C   0  0  0  0  0  0  0  0  0  0  0  0
  -23.0694  -10.4862   21.0370 C   0  0  0  0  0  0  0  0  0  0  0  0
  -22.8776   -7.7047   21.1336 C   0  0  0  0  0  0  0  0  0  0  0  0
  -30.9150  -23.2217   18.4811 C   0  0  0  0  0  0  0  0  0  0  0  0
  -23.6145   -9.7134   20.0116 C   0  0  0  0  0  0  0  0  0  0  0  0
  -28.2817  -14.1180   20.8713 C   0  0  0  0  0  0  0  0  0  0  0  0
  -30.3844  -14.5742   20.4179 C   0  0  0  0  0  0  0  0  0  0  0  0
  -29.4631  -12.6413   19.1281 C   0  0  0  0  0  0  0  0  0  0  0  0
  -23.3995  -29.6597   22.5362 C   0  0  0  0  0  0  0  0  0  0  0  0
  -20.3042  -28.6940   22.4442 C   0  0  0  0  0  0  0  0  0  0  0  0
  -26.8774  -23.7127   17.5470 C   0  0  0  0  0  0  0  0  0  0  0  0
  -17.9393  -26.6766   21.0356 C   0  0  0  0  0  0  0  0  0  0  0  0
  -30.4410  -20.1352   22.6036 C   0  0  0  0  0  0  0  0  0  0  0  0
  -26.0246  -33.6279   24.3856 C   0  0  0  0  0  0  0  0  0  0  0  0
  -22.8729  -29.8910   20.0816 C   0  0  0  0  0  0  0  0  0  0  0  0
  -21.9623  -27.2922   21.1594 C   0  0  0  0  0  0  0  0  0  0  0  0
  -24.7048  -32.9391   24.7233 C   0  0  0  0  0  0  0  0  0  0  0  0
  -31.9586  -17.2606   24.0565 C   0  0  0  0  0  0  0  0  0  0  0  0
  -24.8993  -31.4291   24.8170 C   0  0  0  0  0  0  0  0  0  0  0  0
  -31.2916  -16.0914   23.3284 C   0  0  0  0  0  0  0  0  0  0  0  0
  -30.9794  -18.4064   24.3056 C   0  0  0  0  0  0  0  0  0  0  0  0
  -29.5993  -17.7145   22.3858 C   0  0  0  0  0  0  0  0  0  0  0  0
  -25.3713  -30.8495   23.4781 C   0  0  1  0  0  0  0  0  0  0  0  0
  -22.3190  -29.7582   21.4969 C   0  0  1  0  0  0  0  0  0  0  0  0
  -30.5624  -16.5628   22.0549 C   0  0  2  0  0  0  0  0  0  0  0  0
  -15.5059  -26.0846   21.1961 C   0  0  0  0  0  0  0  0  0  0  0  0
  -20.8703  -27.0586   24.9572 C   0  0  0  0  0  0  0  0  0  0  0  0
  -18.7576  -25.7877   24.5219 C   0  0  0  0  0  0  0  0  0  0  0  0
  -18.6673  -28.2423   24.9572 C   0  0  0  0  0  0  0  0  0  0  0  0
  -17.4214  -27.5625   18.2597 C   0  0  0  0  0  0  0  0  0  0  0  0
  -29.0013  -22.5358   17.0089 C   0  0  0  0  0  0  0  0  0  0  0  0
  -26.2265  -25.0741   17.4271 C   0  0  0  0  0  0  0  0  0  1  0  0
  -19.5761  -27.4075   22.7506 C   0  0  1  0  0  0  0  0  0  0  0  0
  -16.5416  -26.9703   20.5211 C   0  0  2  0  0  0  0  0  0  0  0  0
  -19.4883  -27.1252   24.2770 C   0  0  0  0  0  0  0  0  0  0  0  0
  -28.5732  -15.1623   21.6513 N   0  0  0  0  0  0  0  0  0  0  0  0
  -29.8587  -15.4164   21.3530 N   0  0  0  0  0  0  0  0  0  0  0  0
  -21.4611  -28.5828   21.6600 N   0  0  0  0  0  0  0  0  0  0  0  0
  -30.3298  -18.8028   23.0543 N   0  0  0  0  0  0  0  0  0  0  0  0
  -31.6637  -14.6893   20.0025 N   0  0  0  0  0  0  0  0  0  0  0  0
  -28.3294  -11.8486   18.9029 N   0  0  0  0  0  0  0  0  0  0  0  0
  -29.8099  -20.3865   21.3857 N   0  0  0  0  0  0  0  0  0  0  0  0
  -24.2616  -30.7394   22.5557 N   0  0  0  0  0  0  0  0  0  0  0  0
  -28.1602  -23.7102   17.0219 N   0  0  0  0  0  0  0  0  0  0  0  0
  -18.2813  -27.5029   22.0851 N   0  0  0  0  0  0  0  0  0  0  0  0
  -16.4716  -26.7383   19.0506 N   0  3  0  0  0  0  0  0  0  0  0  0
  -30.5230  -12.3874   18.5070 O   0  0  0  0  0  0  0  0  0  0  0  0
  -23.4467  -28.6775   23.2675 O   0  0  0  0  0  0  0  0  0  0  0  0
  -19.8587  -29.7591   22.8786 O   0  0  0  0  0  0  0  0  0  0  0  0
  -26.3107  -22.7475   18.0520 O   0  0  0  0  0  0  0  0  0  0  0  0
  -18.6546  -25.7992   20.5569 O   0  0  0  0  0  0  0  0  0  0  0  0
  -31.0742  -20.9837   23.2368 O   0  0  0  0  0  0  0  0  0  0  0  0
  -23.1646  -11.8669   20.9908 O   0  0  0  0  0  0  0  0  0  0  0  0
  -24.9013  -25.0476   17.9559 O   0  0  0  0  0  0  0  0  0  1  0  0
  -22.7868   -6.3692   21.1809 F   0  0  0  0  0  0  0  0  0  0  0  0
  -31.2745  -24.1286   17.5620 F   0  0  0  0  0  0  0  0  0  0  0  0
  -24.2325  -10.3014   18.9780 F   0  0  0  0  0  0  0  0  0  0  0  0
  1  2  1  0  0  0  0
  1  5  2  0  0  0  0
  2  6  2  0  0  0  0
  3  9  2  0  0  0  0
  3 18  1  0  0  0  0
  4 10  1  0  0  0  0
  4 18  2  0  0  0  0
  5 20  1  0  0  0  0
  6 22  1  0  0  0  0
  7 11  2  0  0  0  0
  7 21  1  0  0  0  0
  8 13  2  0  0  0  0
  8 25  1  0  0  0  0
  9 26  1  0  0  0  0
 10 26  2  0  0  0  0
 11 27  1  0  0  0  0
 12 14  2  0  0  0  0
 12 28  1  0  0  0  0
 13 30  1  0  0  0  0
 14 29  1  0  0  0  0
 15 23  1  0  0  0  0
 15 27  2  0  0  0  0
 16 24  1  0  0  0  0
 16 25  2  0  0  0  0
 17 29  2  0  0  0  0
 17 31  1  0  0  0  0
 18 32  1  0  0  0  0
 19 32  1  0  0  0  0
 19 33  2  0  0  0  0
 19 34  1  0  0  0  0
 20 22  2  0  0  0  0
 20 40  1  0  0  0  0
 21 23  2  0  0  0  0
 21 41  1  0  0  0  0
 22 49  1  0  0  0  0
 23 42  1  0  0  0  0
 24 30  2  0  0  0  0
 24 57  1  0  0  0  0
 25 68  1  0  0  0  0
 26 79  1  0  0  0  0
 27 80  1  0  0  0  0
 28 31  2  0  0  0  0
 28 79  1  0  0  0  0
 29 81  1  0  0  0  0
 30 82  1  0  0  0  0
 31 83  1  0  0  0  0
 32 62  2  0  0  0  0
 33 63  1  0  0  0  0
 33 66  1  0  0  0  0
 34 67  1  0  0  0  0
 34 73  2  0  0  0  0
 35 50  1  0  0  0  0
 35 69  1  0  0  0  0
 35 74  2  0  0  0  0
 36 59  1  0  0  0  0
 36 64  1  0  0  0  0
 36 75  2  0  0  0  0
 37 58  1  0  0  0  0
 37 70  1  0  0  0  0
 37 76  2  0  0  0  0
 38 60  1  0  0  0  0
 38 71  1  0  0  0  0
 38 77  2  0  0  0  0
 39 65  1  0  0  0  0
 39 68  1  0  0  0  0
 39 78  2  0  0  0  0
 40 43  1  0  0  0  0
 41 50  1  0  0  0  0
 42 64  1  0  0  0  0
 43 45  1  0  0  0  0
 44 46  1  0  0  0  0
 44 47  1  0  0  0  0
 45 49  1  0  0  0  0
 46 51  1  0  0  0  0
 47 65  1  0  0  0  0
 48 51  1  0  0  0  0
 48 65  1  0  0  0  0
 49 69  1  0  0  0  0
 50 64  1  0  0  0  0
 51 63  1  0  0  0  0
 52 60  1  0  0  0  0
 53 61  1  0  0  0  0
 54 61  1  0  0  0  0
 55 61  1  0  0  0  0
 56 72  1  0  0  0  0
 57 70  1  0  0  0  0
 58 80  1  0  0  0  0
 59 61  1  0  0  0  0
 59 71  1  0  0  0  0
 60 72  1  0  0  0  0
 62 63  1  0  0  0  0
M  CHG  1  72   1
M  ISO  4  39 100  58 101  68 100  80 101
M  END
> <Batch ID>
0073

> <Smiles>
CNC(C)C(=O)NC(C(=O)N1Cc2cc([101O:1][101CH2:1]C(=O)NCc3cc([100NH:0][100C:0](=O)N4CCCC(n5nc(-c6ccc(Oc7ccc(F)cc7F)cc6)c(C(N)=O)c5N)C4)ccc3F)ccc2CC1C(=O)NC1CCCc2ccccc21)C(C)(C)C

> <Shape>
0.324

> <Color>
0.068

> <Negative vol penalty>
0.000

$$$$

  -OEChem-04042323413D

 87 96  0     1  0  0  0  0  0999 V2000
  -25.0034  -35.3224   19.3585 C   0  0  0  0  0  0  0  0  0  0  0  0
  -25.7264  -34.1886   19.7151 C   0  0  0  0  0  0  0  0  0  0  0  0
  -32.1656  -21.3705   15.5714 C   0  0  0  0  0  0  0  0  0  0  0  0
  -25.4094  -14.8910   19.1265 C   0  0  0  0  0  0  0  0  0  0  0  0
  -25.8635  -14.2903   21.4221 C   0  0  0  0  0  0  0  0  0  0  0  0
  -23.7176  -35.5147   19.8622 C   0  0  0  0  0  0  0  0  0  0  0  0
  -25.1645  -33.2469   20.5764 C   0  0  0  0  0  0  0  0  0  0  0  0
  -25.8923  -28.4908   18.9970 C   0  0  0  0  0  0  0  0  0  0  0  0
  -31.6909  -22.4970   16.2513 C   0  0  0  0  0  0  0  0  0  0  0  0
  -24.3870  -13.9434   19.0807 C   0  0  0  0  0  0  0  0  0  0  0  0
  -24.8410  -13.3427   21.3764 C   0  0  0  0  0  0  0  0  0  0  0  0
  -27.1502  -27.9319   19.2184 C   0  0  0  0  0  0  0  0  0  0  0  0
  -24.3959  -10.2138   20.1751 C   0  0  0  0  0  0  0  0  0  0  0  0
  -32.4556  -20.1850   16.2607 C   0  0  0  0  0  0  0  0  0  0  0  0
  -24.6565   -8.9529   20.7115 C   0  0  0  0  0  0  0  0  0  0  0  0
  -26.2868  -26.7672   21.1464 C   0  0  0  0  0  0  0  0  0  0  0  0
  -22.8507   -9.2507   22.2887 C   0  0  0  0  0  0  0  0  0  0  0  0
  -26.1478  -15.0645   20.2972 C   0  0  0  0  0  0  0  0  0  0  0  0
  -28.3577  -16.0884   19.5389 C   0  0  0  0  0  0  0  0  0  0  0  0
  -23.1359  -34.5702   20.7225 C   0  0  0  0  0  0  0  0  0  0  0  0
  -24.8231  -28.2002   19.8565 C   0  0  0  0  0  0  0  0  0  0  0  0
  -23.8702  -33.4275   21.0932 C   0  0  0  0  0  0  0  0  0  0  0  0
  -25.0157  -27.3217   20.9323 C   0  0  0  0  0  0  0  0  0  0  0  0
  -31.7990  -21.2294   18.3064 C   0  0  0  0  0  0  0  0  0  0  0  0
  -31.5073  -22.4132   17.6241 C   0  0  0  0  0  0  0  0  0  0  0  0
  -24.1027  -13.1692   20.2057 C   0  0  0  0  0  0  0  0  0  0  0  0
  -27.3484  -27.0722   20.2948 C   0  0  0  0  0  0  0  0  0  0  0  0
  -23.3628  -10.9933   20.6956 C   0  0  0  0  0  0  0  0  0  0  0  0
  -23.8839   -8.4713   21.7682 C   0  0  0  0  0  0  0  0  0  0  0  0
  -32.2766  -20.1101   17.6413 C   0  0  0  0  0  0  0  0  0  0  0  0
  -22.5902  -10.5117   21.7523 C   0  0  0  0  0  0  0  0  0  0  0  0
  -27.2045  -16.0428   20.3449 C   0  0  0  0  0  0  0  0  0  0  0  0
  -29.0372  -17.1998   19.9743 C   0  0  0  0  0  0  0  0  0  0  0  0
  -29.1158  -25.7440   19.5315 C   0  0  0  0  0  0  0  0  0  1  0  0
  -28.7773  -15.2052   18.4903 C   0  0  0  0  0  0  0  0  0  0  0  0
  -30.4303  -25.6228   19.3170 C   0  0  0  0  0  0  0  0  0  0  0  0
  -29.4311  -22.5649   20.1033 C   0  0  0  0  0  0  0  0  0  0  0  0
  -30.8337  -24.7301   18.2093 C   0  0  0  0  0  0  0  0  0  0  0  0
  -28.9589  -22.5791   21.5069 C   0  0  0  0  0  0  0  0  0  0  0  0
  -22.9713  -29.9122   21.7914 C   0  0  0  0  0  0  0  0  0  0  0  0
  -21.3893  -27.1004   22.1274 C   0  0  0  0  0  0  0  0  0  0  0  0
  -22.2579  -23.6193   22.5079 C   0  0  0  0  0  0  0  0  0  0  0  0
  -21.7613  -34.8448   21.2791 C   0  0  0  0  0  0  0  0  0  0  0  0
  -23.4657  -28.7902   19.5885 C   0  0  0  0  0  0  0  0  0  0  0  0
  -31.5897  -21.3784   19.7814 C   0  0  0  0  0  0  0  0  0  0  0  0
  -23.8955  -26.9617   21.8725 C   0  0  0  0  0  0  0  0  0  0  0  0
  -21.0942  -33.6147   21.8889 C   0  0  0  0  0  0  0  0  0  0  0  0
  -28.3418  -20.1157   24.0382 C   0  0  0  0  0  0  0  0  0  0  0  0
  -22.0706  -32.8723   22.7957 C   0  0  0  0  0  0  0  0  0  0  0  0
  -28.0473  -18.8497   23.2344 C   0  0  0  0  0  0  0  0  0  0  0  0
  -27.8272  -21.3620   23.3253 C   0  0  0  0  0  0  0  0  0  0  0  0
  -28.0517  -20.2490   21.1208 C   0  0  0  0  0  0  0  0  0  0  0  0
  -23.2854  -32.3712   22.0054 C   0  0  1  0  0  0  0  0  0  0  0  0
  -30.9026  -22.7505   19.8618 C   0  0  1  0  0  0  0  0  0  0  0  0
  -22.5762  -28.8297   20.8273 C   0  0  1  0  0  0  0  0  0  0  0  0
  -28.5813  -18.9720   21.7962 C   0  0  2  0  0  0  0  0  0  0  0  0
  -31.5150  -26.2984   20.0875 C   0  0  0  0  0  0  0  0  0  0  0  0
  -20.9875  -21.5441   21.8938 C   0  0  0  0  0  0  0  0  0  0  0  0
  -20.4052  -27.1976   25.0140 C   0  0  0  0  0  0  0  0  0  0  0  0
  -20.5780  -24.7009   25.0836 C   0  0  0  0  0  0  0  0  0  0  0  0
  -19.0098  -25.7967   23.4827 C   0  0  0  0  0  0  0  0  0  0  0  0
  -24.4992  -22.5917   20.8710 C   0  0  0  0  0  0  0  0  0  0  0  0
  -21.4992  -25.9163   23.0575 C   0  0  1  0  0  0  0  0  0  0  0  0
  -22.0772  -22.5196   21.4771 C   0  0  2  0  0  0  0  0  0  0  0  0
  -20.3957  -25.9188   24.1529 C   0  0  0  0  0  0  0  0  0  0  0  0
  -27.1510  -17.0454   21.2258 N   0  0  0  0  0  0  0  0  0  0  0  0
  -28.5577  -22.3948   19.1701 N   0  0  0  0  0  0  0  0  0  0  0  0
  -28.2793  -17.7314   20.9759 N   0  0  0  0  0  0  0  0  0  0  0  0
  -31.0430  -23.3971   18.5318 N   0  0  0  0  0  0  0  0  0  0  0  0
  -28.3235  -21.4284   21.9522 N   0  0  0  0  0  0  0  0  0  0  0  0
  -22.5884  -27.5691   21.5723 N   0  0  0  0  0  0  0  0  0  0  0  0
  -30.2031  -17.7644   19.5944 N   0  0  0  0  0  0  0  0  0  0  0  0
  -29.5754  -14.1027   18.8247 N   0  0  0  0  0  0  0  0  0  0  0  0
  -22.9433  -31.1840   21.2517 N   0  0  0  0  0  0  0  0  0  0  0  0
  -21.4965  -24.7294   22.2093 N   0  0  0  0  0  0  0  0  0  0  0  0
  -23.3470  -21.7593   21.3028 N   0  3  0  0  0  0  0  0  0  0  0  0
  -28.4677  -15.3974   17.2900 O   0  0  0  0  0  0  0  0  0  0  0  0
  -30.9583  -25.2376   17.0954 O   0  0  0  0  0  0  0  0  0  0  0  0
  -29.1805  -23.6107   22.1274 O   0  0  0  0  0  0  0  0  0  0  0  0
  -23.2775  -29.6158   22.9404 O   0  0  0  0  0  0  0  0  0  0  0  0
  -20.2795  -27.5868   21.8962 O   0  0  0  0  0  0  0  0  0  0  0  0
  -22.9975  -23.5035   23.4827 O   0  0  0  0  0  0  0  0  0  0  0  0
  -23.1049  -12.2446   20.1614 O   0  0  0  0  0  0  0  0  0  0  0  0
  -28.5754  -26.5258   20.5135 O   0  0  0  0  0  0  0  0  0  1  0  0
  -24.1332   -7.2597   22.2822 F   0  0  0  0  0  0  0  0  0  0  0  0
  -32.5671  -18.9849   18.3053 F   0  0  0  0  0  0  0  0  0  0  0  0
  -21.5956  -11.2554   22.2557 F   0  0  0  0  0  0  0  0  0  0  0  0
  1  2  1  0  0  0  0
  1  6  2  0  0  0  0
  2  7  2  0  0  0  0
  3  9  2  0  0  0  0
  3 14  1  0  0  0  0
  4 10  2  0  0  0  0
  4 18  1  0  0  0  0
  5 11  1  0  0  0  0
  5 18  2  0  0  0  0
  6 20  1  0  0  0  0
  7 22  1  0  0  0  0
  8 12  2  0  0  0  0
  8 21  1  0  0  0  0
  9 25  1  0  0  0  0
 10 26  1  0  0  0  0
 11 26  2  0  0  0  0
 12 27  1  0  0  0  0
 13 15  2  0  0  0  0
 13 28  1  0  0  0  0
 14 30  2  0  0  0  0
 15 29  1  0  0  0  0
 16 23  1  0  0  0  0
 16 27  2  0  0  0  0
 17 29  2  0  0  0  0
 17 31  1  0  0  0  0
 18 32  1  0  0  0  0
 19 32  1  0  0  0  0
 19 33  2  0  0  0  0
 19 35  1  0  0  0  0
 20 22  2  0  0  0  0
 20 43  1  0  0  0  0
 21 23  2  0  0  0  0
 21 44  1  0  0  0  0
 22 53  1  0  0  0  0
 23 46  1  0  0  0  0
 24 25  2  0  0  0  0
 24 30  1  0  0  0  0
 24 45  1  0  0  0  0
 25 69  1  0  0  0  0
 26 83  1  0  0  0  0
 27 84  1  0  0  0  0
 28 31  2  0  0  0  0
 28 83  1  0  0  0  0
 29 85  1  0  0  0  0
 30 86  1  0  0  0  0
 31 87  1  0  0  0  0
 32 66  2  0  0  0  0
 33 68  1  0  0  0  0
 33 72  1  0  0  0  0
 34 36  2  0  0  0  0
 34 84  1  0  0  0  0
 35 73  1  0  0  0  0
 35 77  2  0  0  0  0
 36 38  1  0  0  0  0
 36 57  1  0  0  0  0
 37 39  1  0  0  0  0
 37 54  1  0  0  0  0
 37 67  2  0  0  0  0
 38 69  1  0  0  0  0
 38 78  2  0  0  0  0
 39 70  1  0  0  0  0
 39 79  2  0  0  0  0
 40 55  1  0  0  0  0
 40 74  1  0  0  0  0
 40 80  2  0  0  0  0
 41 63  1  0  0  0  0
 41 71  1  0  0  0  0
 41 81  2  0  0  0  0
 42 64  1  0  0  0  0
 42 75  1  0  0  0  0
 42 82  2  0  0  0  0
 43 47  1  0  0  0  0
 44 55  1  0  0  0  0
 45 54  1  0  0  0  0
 46 71  1  0  0  0  0
 47 49  1  0  0  0  0
 48 50  1  0  0  0  0
 48 51  1  0  0  0  0
 49 53  1  0  0  0  0
 50 56  1  0  0  0  0
 51 70  1  0  0  0  0
 52 56  1  0  0  0  0
 52 70  1  0  0  0  0
 53 74  1  0  0  0  0
 54 69  1  0  0  0  0
 55 71  1  0  0  0  0
 56 68  1  0  0  0  0
 58 64  1  0  0  0  0
 59 65  1  0  0  0  0
 60 65  1  0  0  0  0
 61 65  1  0  0  0  0
 62 76  1  0  0  0  0
 63 65  1  0  0  0  0
 63 75  1  0  0  0  0
 64 76  1  0  0  0  0
 66 68  1  0  0  0  0
M  CHG  1  76   1
M  ISO  4  34 101  37 100  39 100  84 101
M  END
> <Batch ID>
0073

> <Smiles>
CNC(C)C(=O)NC(C(=O)N1Cc2cc([101O:1][101CH:1]=C(C)C(=O)N3c4cccc(F)c4CC3[100C:0](=N)[100C:0](=O)N3CCCC(n4nc(-c5ccc(Oc6ccc(F)cc6F)cc5)c(C(N)=O)c4N)C3)ccc2CC1C(=O)NC1CCCc2ccccc21)C(C)(C)C

> <Shape>
0.249

> <Color>
0.074

> <Negative vol penalty>
0.000

$$$$

  -OEChem-04042323413D

 87 95  0     1  0  0  0  0  0999 V2000
  -18.2302  -24.8696   21.0473 C   0  0  0  0  0  0  0  0  0  0  0  0
  -19.5884  -24.7957   20.7552 C   0  0  0  0  0  0  0  0  0  0  0  0
  -23.8949   -9.1851   21.6183 C   0  0  0  0  0  0  0  0  0  0  0  0
  -23.0383  -11.4406   21.7444 C   0  0  0  0  0  0  0  0  0  0  0  0
  -30.4087  -19.2477   20.0552 C   0  0  0  0  0  0  0  0  0  0  0  0
  -17.7343  -25.9443   21.7841 C   0  0  0  0  0  0  0  0  0  0  0  0
  -20.4513  -25.7972   21.1988 C   0  0  0  0  0  0  0  0  0  0  0  0
  -24.7217  -23.9410   23.1895 C   0  0  0  0  0  0  0  0  0  0  0  0
  -30.3311  -17.8552   20.0782 C   0  0  0  0  0  0  0  0  0  0  0  0
  -23.0305   -8.7995   22.6429 C   0  0  0  0  0  0  0  0  0  0  0  0
  -22.1739  -11.0551   22.7689 C   0  0  0  0  0  0  0  0  0  0  0  0
  -25.7008  -23.5017   22.2994 C   0  0  0  0  0  0  0  0  0  0  0  0
  -19.2196   -9.4396   23.0573 C   0  0  0  0  0  0  0  0  0  0  0  0
  -17.8969   -9.8767   22.9861 C   0  0  0  0  0  0  0  0  0  0  0  0
  -26.8974  -25.5743   22.6023 C   0  0  0  0  0  0  0  0  0  0  0  0
  -27.9244  -17.9921   20.2404 C   0  0  0  0  0  0  0  0  0  0  0  0
  -18.1610  -11.0200   25.0980 C   0  0  0  0  0  0  0  0  0  0  0  0
  -23.8989  -10.5057   21.1691 C   0  0  0  0  0  0  0  0  0  0  0  0
  -29.2442  -20.0124   20.1248 C   0  0  0  0  0  0  0  0  0  0  0  0
  -24.5335  -10.8841   18.7274 C   0  0  0  0  0  0  0  0  0  0  0  0
  -18.5930  -26.9545   22.2452 C   0  0  0  0  0  0  0  0  0  0  0  0
  -24.8177  -25.2068   23.7853 C   0  0  0  0  0  0  0  0  0  0  0  0
  -19.9662  -26.8872   21.9413 C   0  0  0  0  0  0  0  0  0  0  0  0
  -25.9196  -26.0262   23.5015 C   0  0  0  0  0  0  0  0  0  0  0  0
  -29.0889  -17.2274   20.1708 C   0  0  0  0  0  0  0  0  0  0  0  0
  -22.1700   -9.7345   23.2182 C   0  0  0  0  0  0  0  0  0  0  0  0
  -26.7873  -24.3196   22.0034 C   0  0  0  0  0  0  0  0  0  0  0  0
  -20.0130   -9.7927   24.1489 C   0  0  0  0  0  0  0  0  0  0  0  0
  -17.3676  -10.6669   24.0064 C   0  0  0  0  0  0  0  0  0  0  0  0
  -28.0021  -19.3846   20.2174 C   0  0  0  0  0  0  0  0  0  0  0  0
  -19.4837  -10.5829   25.1693 C   0  0  0  0  0  0  0  0  0  0  0  0
  -24.7919  -10.9047   20.1111 C   0  0  0  0  0  0  0  0  0  0  0  0
  -25.6895  -11.3560   18.1552 C   0  0  0  0  0  0  0  0  0  0  0  0
  -29.3298  -21.4864   20.1008 C   0  0  0  0  0  0  0  0  0  0  0  0
  -23.3540  -10.4751   18.0224 C   0  0  0  0  0  0  0  0  0  0  0  0
  -23.0455  -27.8452   23.7449 C   0  0  0  0  0  0  0  0  0  0  0  0
  -27.4886  -25.7301   19.6193 C   0  0  0  0  0  0  0  0  0  0  0  0
  -25.1739  -28.8414   25.9810 C   0  0  0  0  0  0  0  0  0  0  0  0
  -28.2934  -28.5659   27.3373 C   0  0  0  0  0  0  0  0  0  0  0  0
  -30.0693  -14.9071   20.1332 C   0  0  0  0  0  0  0  0  0  0  0  0
  -18.0034  -28.1211   22.9976 C   0  0  0  0  0  0  0  0  0  0  0  0
  -23.7670  -25.6550   24.7639 C   0  0  0  0  0  0  0  0  0  0  0  0
  -26.0797  -27.3855   24.1302 C   0  0  0  0  0  0  0  0  0  0  0  0
  -19.0422  -28.9477   23.7511 C   0  0  0  0  0  0  0  0  0  0  0  0
  -30.4146  -11.5846   18.9007 C   0  0  0  0  0  0  0  0  0  0  0  0
  -20.2434  -29.2389   22.8571 C   0  0  0  0  0  0  0  0  0  0  0  0
  -28.9874  -11.0333   18.9396 C   0  0  0  0  0  0  0  0  0  0  0  0
  -30.6999  -12.5039   20.0870 C   0  0  0  0  0  0  0  0  0  0  0  0
  -28.3066  -13.0426   20.3131 C   0  0  0  0  0  0  0  0  0  0  0  0
  -20.9377  -27.9413   22.4262 C   0  0  1  0  0  0  0  0  0  0  0  0
  -23.7012  -27.1715   24.9170 C   0  0  1  0  0  0  0  0  0  0  0  0
  -27.9514  -12.1626   19.1035 C   0  0  2  0  0  0  0  0  0  0  0  0
  -28.7055  -26.5333   20.0105 C   0  0  0  0  0  0  0  0  0  0  0  0
  -29.7547  -29.5389   29.1304 C   0  0  0  0  0  0  0  0  0  0  0  0
  -26.2342  -23.5664   19.3138 C   0  0  0  0  0  0  0  0  0  0  0  0
  -25.6353  -31.3170   24.2581 C   0  0  0  0  0  0  0  0  0  0  0  0
  -27.7250  -31.7525   25.5664 C   0  0  0  0  0  0  0  0  0  0  0  0
  -25.5109  -31.7646   26.7154 C   0  0  0  0  0  0  0  0  0  0  0  0
  -28.5369  -25.9583   28.7157 C   0  0  0  0  0  0  0  0  0  0  0  0
  -28.7251  -23.6022   18.9808 C   0  0  0  0  0  0  0  0  0  0  0  0
  -26.4975  -29.5666   25.9489 C   0  0  1  0  0  0  0  0  0  0  0  0
  -28.7586  -28.4454   28.7773 C   0  0  2  0  0  0  0  0  0  0  0  0
  -27.5521  -24.2025   19.7546 C   0  0  1  0  0  0  0  0  0  1  0  0
  -26.3384  -31.0754   25.6087 C   0  0  0  0  0  0  0  0  0  0  0  0
  -26.0161  -11.3539   20.4004 N   0  0  0  0  0  0  0  0  0  0  0  0
  -26.5372  -11.6199   19.1905 N   0  0  0  0  0  0  0  0  0  0  0  0
  -25.0229  -27.7815   25.0756 N   0  0  0  0  0  0  0  0  0  0  0  0
  -29.6804  -13.5515   20.1768 N   0  0  0  0  0  0  0  0  0  0  0  0
  -26.0535  -11.5667   16.8724 N   0  0  0  0  0  0  0  0  0  0  0  0
  -30.0208  -22.0913   21.0670 N   0  0  0  0  0  0  0  0  0  0  0  0
  -22.2572  -10.0163   18.7648 N   0  0  0  0  0  0  0  0  0  0  0  0
  -29.0107  -15.8128   20.1939 N   0  0  0  0  0  0  0  0  0  0  0  0
  -21.7523  -27.4220   23.5038 N   0  0  0  0  0  0  0  0  0  0  0  0
  -27.1358  -29.3081   27.2350 N   0  0  0  0  0  0  0  0  0  0  0  0
  -28.7091  -22.1408   19.1139 N   0  3  0  0  0  0  0  0  0  0  0  0
  -29.4114  -27.1246   29.0019 N   0  3  0  0  0  0  0  0  0  0  0  0
  -23.2807  -10.4998   16.7704 O   0  0  0  0  0  0  0  0  0  0  0  0
  -23.6663  -28.6878   23.1074 O   0  0  0  0  0  0  0  0  0  0  0  0
  -26.4784  -26.2999   19.2009 O   0  0  0  0  0  0  0  0  0  0  0  0
  -24.3085  -29.1974   26.7847 O   0  0  0  0  0  0  0  0  0  0  0  0
  -28.8985  -28.0560   26.3969 O   0  0  0  0  0  0  0  0  0  0  0  0
  -31.2520  -15.2397   20.0208 O   0  0  0  0  0  0  0  0  0  0  0  0
  -21.3262   -9.3586   24.2178 O   0  0  0  0  0  0  0  0  0  0  0  0
  -27.7440  -23.8936   21.1345 O   0  0  0  0  0  0  0  0  0  1  0  0
  -16.0979  -11.0878   23.9371 F   0  0  0  0  0  0  0  0  0  0  0  0
  -26.8777  -20.1110   20.2867 F   0  0  0  0  0  0  0  0  0  0  0  0
  -20.2414  -10.9262   26.2199 F   0  0  0  0  0  0  0  0  0  0  0  0
  1  2  1  0  0  0  0
  1  6  2  0  0  0  0
  2  7  2  0  0  0  0
  3 10  2  0  0  0  0
  3 18  1  0  0  0  0
  4 11  1  0  0  0  0
  4 18  2  0  0  0  0
  5  9  2  0  0  0  0
  5 19  1  0  0  0  0
  6 21  1  0  0  0  0
  7 23  1  0  0  0  0
  8 12  2  0  0  0  0
  8 22  1  0  0  0  0
  9 25  1  0  0  0  0
 10 26  1  0  0  0  0
 11 26  2  0  0  0  0
 12 27  1  0  0  0  0
 13 14  2  0  0  0  0
 13 28  1  0  0  0  0
 14 29  1  0  0  0  0
 15 24  1  0  0  0  0
 15 27  2  0  0  0  0
 16 25  2  0  0  0  0
 16 30  1  0  0  0  0
 17 29  2  0  0  0  0
 17 31  1  0  0  0  0
 18 32  1  0  0  0  0
 19 30  2  0  0  0  0
 19 34  1  0  0  0  0
 20 32  1  0  0  0  0
 20 33  2  0  0  0  0
 20 35  1  0  0  0  0
 21 23  2  0  0  0  0
 21 41  1  0  0  0  0
 22 24  2  0  0  0  0
 22 42  1  0  0  0  0
 23 50  1  0  0  0  0
 24 43  1  0  0  0  0
 25 72  1  0  0  0  0
 26 83  1  0  0  0  0
 27 84  1  0  0  0  0
 28 31  2  0  0  0  0
 28 83  1  0  0  0  0
 29 85  1  0  0  0  0
 30 86  1  0  0  0  0
 31 87  1  0  0  0  0
 32 65  2  0  0  0  0
 33 66  1  0  0  0  0
 33 69  1  0  0  0  0
 34 70  1  0  0  0  0
 34 75  2  0  0  0  0
 35 71  1  0  0  0  0
 35 77  2  0  0  0  0
 36 51  1  0  0  0  0
 36 73  1  0  0  0  0
 36 78  2  0  0  0  0
 37 53  1  0  0  0  0
 37 63  1  0  0  0  0
 37 79  2  0  0  0  0
 38 61  1  0  0  0  0
 38 67  1  0  0  0  0
 38 80  2  0  0  0  0
 39 62  1  0  0  0  0
 39 74  1  0  0  0  0
 39 81  2  0  0  0  0
 40 68  1  0  0  0  0
 40 72  1  0  0  0  0
 40 82  2  0  0  0  0
 41 44  1  0  0  0  0
 42 51  1  0  0  0  0
 43 67  1  0  0  0  0
 44 46  1  0  0  0  0
 45 47  1  0  0  0  0
 45 48  1  0  0  0  0
 46 50  1  0  0  0  0
 47 52  1  0  0  0  0
 48 68  1  0  0  0  0
 49 52  1  0  0  0  0
 49 68  1  0  0  0  0
 50 73  1  0  0  0  0
 51 67  1  0  0  0  0
 52 66  1  0  0  0  0
 54 62  1  0  0  0  0
 55 63  1  0  0  0  0
 56 64  1  0  0  0  0
 57 64  1  0  0  0  0
 58 64  1  0  0  0  0
 59 76  1  0  0  0  0
 60 63  1  0  0  0  0
 60 75  1  0  0  0  0
 61 64  1  0  0  0  0
 61 74  1  0  0  0  0
 62 76  1  0  0  0  0
 63 84  1  0  0  0  0
 65 66  1  0  0  0  0
M  CHG  2  75   1  76   1
M  ISO  4  40 100  63 101  72 100  84 101
M  END
> <Batch ID>
0073

> <Smiles>
CNC(C)C(=O)NC(C(=O)N1Cc2cc([101O:1][101C:1](C)(CNC(=N)c3ccc([100NH:0][100C:0](=O)N4CCCC(n5nc(-c6ccc(Oc7ccc(F)cc7F)cc6)c(C(N)=O)c5N)C4)cc3F)C(C)=O)ccc2CC1C(=O)NC1CCCc2ccccc21)C(C)(C)C

> <Shape>
0.260

> <Color>
0.094

> <Negative vol penalty>
0.000

$$$$

  -OEChem-04042323413D

 88 97  0     1  0  0  0  0  0999 V2000
  -18.2129  -33.7306   21.6812 C   0  0  0  0  0  0  0  0  0  0  0  0
  -19.5278  -33.6642   22.1306 C   0  0  0  0  0  0  0  0  0  0  0  0
  -26.8579  -10.1172   20.5504 C   0  0  0  0  0  0  0  0  0  0  0  0
  -25.6705  -12.0314   19.6771 C   0  0  0  0  0  0  0  0  0  0  0  0
  -17.3751  -32.6241   21.8146 C   0  0  0  0  0  0  0  0  0  0  0  0
  -20.0054  -32.4915   22.7148 C   0  0  0  0  0  0  0  0  0  0  0  0
  -25.6795  -29.0171   19.9535 C   0  0  0  0  0  0  0  0  0  0  0  0
  -25.6441   -9.4713   20.7851 C   0  0  0  0  0  0  0  0  0  0  0  0
  -24.4567  -11.3855   19.9118 C   0  0  0  0  0  0  0  0  0  0  0  0
  -26.8875  -28.4100   19.6095 C   0  0  0  0  0  0  0  0  0  0  0  0
  -23.3326   -7.7822   18.9861 C   0  0  0  0  0  0  0  0  0  0  0  0
  -23.2268   -6.4437   18.6080 C   0  0  0  0  0  0  0  0  0  0  0  0
  -28.4511  -21.7352   16.7213 C   0  0  0  0  0  0  0  0  0  0  0  0
  -26.5400  -26.7290   21.3129 C   0  0  0  0  0  0  0  0  0  0  0  0
  -29.4604  -20.7876   18.7013 C   0  0  0  0  0  0  0  0  0  0  0  0
  -22.7641   -5.8331   20.8993 C   0  0  0  0  0  0  0  0  0  0  0  0
  -26.8711  -11.3973   19.9964 C   0  0  0  0  0  0  0  0  0  0  0  0
  -27.8891  -20.4960   16.4146 C   0  0  0  0  0  0  0  0  0  0  0  0
  -29.1737  -11.6289   18.9230 C   0  0  0  0  0  0  0  0  0  0  0  0
  -17.8455  -31.4341   22.3919 C   0  0  0  0  0  0  0  0  0  0  0  0
  -24.8888  -28.4729   20.9694 C   0  0  0  0  0  0  0  0  0  0  0  0
  -19.1727  -31.3686   22.8573 C   0  0  0  0  0  0  0  0  0  0  0  0
  -25.3230  -27.3256   21.6534 C   0  0  0  0  0  0  0  0  0  0  0  0
  -29.2368  -21.8810   17.8646 C   0  0  0  0  0  0  0  0  0  0  0  0
  -28.8984  -19.5483   18.3947 C   0  0  0  0  0  0  0  0  0  0  0  0
  -24.4435  -10.1054   20.4658 C   0  0  0  0  0  0  0  0  0  0  0  0
  -27.3167  -27.2689   20.2877 C   0  0  0  0  0  0  0  0  0  0  0  0
  -23.1543   -8.1461   20.3208 C   0  0  0  0  0  0  0  0  0  0  0  0
  -22.9425   -5.4692   19.5646 C   0  0  0  0  0  0  0  0  0  0  0  0
  -22.8700   -7.1715   21.2774 C   0  0  0  0  0  0  0  0  0  0  0  0
  -28.1127  -19.4026   17.2513 C   0  0  0  0  0  0  0  0  0  0  0  0
  -28.1247  -12.0652   19.7542 C   0  0  0  0  0  0  0  0  0  0  0  0
  -30.1302  -12.6082   19.0346 C   0  0  0  0  0  0  0  0  0  0  0  0
  -27.0723  -20.3494   15.2198 C   0  0  0  0  0  0  0  0  0  0  0  0
  -26.2991  -21.3106   14.6658 C   0  0  0  0  0  0  0  0  0  0  0  0
  -29.2745  -10.4443   18.1216 C   0  0  0  0  0  0  0  0  0  0  0  0
  -21.7246  -28.6988   22.9726 C   0  0  0  0  0  0  0  0  0  0  0  0
  -22.1844  -25.7273   22.3652 C   0  0  0  0  0  0  0  0  0  0  0  0
  -22.8255  -22.6141   21.1265 C   0  0  0  0  0  0  0  0  0  0  0  0
  -29.8841  -18.4161   20.4177 C   0  0  0  0  0  0  0  0  0  0  0  0
  -16.8888  -30.2801   22.5577 C   0  0  0  0  0  0  0  0  0  0  0  0
  -23.6101  -29.1289   21.4148 C   0  0  0  0  0  0  0  0  0  0  0  0
  -24.4564  -26.7952   22.7628 C   0  0  0  0  0  0  0  0  0  0  0  0
  -17.5818  -28.9512   22.8474 C   0  0  0  0  0  0  0  0  0  0  0  0
  -31.7737  -15.9064   22.0933 C   0  0  0  0  0  0  0  0  0  0  0  0
  -18.6446  -29.1276   23.9274 C   0  0  0  0  0  0  0  0  0  0  0  0
  -31.1518  -14.5967   21.6033 C   0  0  0  0  0  0  0  0  0  0  0  0
  -30.7222  -16.9989   22.2789 C   0  0  0  0  0  0  0  0  0  0  0  0
  -31.0756  -23.1432   18.9018 C   0  0  0  0  0  0  0  0  0  0  0  0
  -29.2453  -15.9329   20.6202 C   0  0  0  0  0  0  0  0  0  0  0  0
  -28.9322  -24.2873   18.3836 C   0  0  0  0  0  0  0  0  0  0  0  0
  -31.7639  -24.4886   18.7083 C   0  0  0  0  0  0  0  0  0  0  0  0
  -19.7348  -30.1060   23.4739 C   0  0  1  0  0  0  0  0  0  0  0  0
  -22.5332  -28.1187   21.8496 C   0  0  1  0  0  0  0  0  0  0  0  0
  -30.2742  -14.8214   20.3564 C   0  0  2  0  0  0  0  0  0  0  0  0
  -29.7390  -25.5775   18.2084 C   0  0  1  0  0  0  0  0  0  0  0  0
  -25.4677  -21.1118   13.4403 C   0  0  0  0  0  0  0  0  0  0  0  0
  -21.9454  -20.2642   21.1523 C   0  0  0  0  0  0  0  0  0  0  0  0
  -23.2957  -25.3459   25.1801 C   0  0  0  0  0  0  0  0  0  0  0  0
  -23.2658  -22.8746   24.7805 C   0  0  0  0  0  0  0  0  0  0  0  0
  -21.1332  -24.1681   24.7434 C   0  0  0  0  0  0  0  0  0  0  0  0
  -22.4031  -22.6167   18.1972 C   0  0  0  0  0  0  0  0  0  0  0  0
  -28.9063  -26.7967   18.5825 C   0  0  0  0  0  0  0  0  0  1  0  0
  -22.7670  -24.4166   22.8300 C   0  0  1  0  0  0  0  0  0  0  0  0
  -21.9322  -21.6029   20.4309 C   0  0  2  0  0  0  0  0  0  0  0  0
  -22.6298  -24.2186   24.3661 C   0  0  0  0  0  0  0  0  0  0  0  0
  -28.3897  -13.2309   20.3501 N   0  0  0  0  0  0  0  0  0  0  0  0
  -29.6161  -13.5353   19.8928 N   0  0  0  0  0  0  0  0  0  0  0  0
  -29.8010  -23.1237   18.1730 N   0  0  2  0  0  0  0  0  0  0  0  0
  -23.0425  -26.8337   22.3578 N   0  0  0  0  0  0  0  0  0  0  0  0
  -29.9321  -17.1588   21.0562 N   0  0  0  0  0  0  0  0  0  0  0  0
  -31.3525  -12.7581   18.4815 N   0  0  0  0  0  0  0  0  0  0  0  0
  -28.2004   -9.5440   18.1220 N   0  0  0  0  0  0  0  0  0  0  0  0
  -29.1282  -18.4393   19.2461 N   0  0  0  0  0  0  0  0  0  0  0  0
  -20.6467  -29.4568   22.5566 N   0  0  0  0  0  0  0  0  0  0  0  0
  -22.1222  -23.3780   22.0337 N   0  0  0  0  0  0  0  0  0  0  0  0
  -22.3891  -21.3859   19.0291 N   0  3  0  0  0  0  0  0  0  0  0  0
  -30.2938  -10.1836   17.4385 O   0  0  0  0  0  0  0  0  0  0  0  0
  -22.0525  -28.4746   24.1318 O   0  0  0  0  0  0  0  0  0  0  0  0
  -20.9995  -25.7730   22.0228 O   0  0  0  0  0  0  0  0  0  0  0  0
  -24.0277  -22.7137   20.8914 O   0  0  0  0  0  0  0  0  0  0  0  0
  -30.4927  -19.3931   20.8617 O   0  0  0  0  0  0  0  0  0  0  0  0
  -30.8886  -25.5582   19.0580 O   0  0  0  0  0  0  0  0  0  0  0  0
  -23.2589   -9.4754   20.6945 O   0  0  0  0  0  0  0  0  0  0  0  0
  -28.4949  -26.6786   19.9438 O   0  0  0  0  0  0  0  0  0  1  0  0
  -22.8393   -4.1841   19.2011 F   0  0  0  0  0  0  0  0  0  0  0  0
  -22.6965   -7.5152   22.5610 F   0  0  0  0  0  0  0  0  0  0  0  0
  -27.5751  -18.2078   16.9589 F   0  0  0  0  0  0  0  0  0  0  0  0
  1  2  1  0  0  0  0
  1  5  2  0  0  0  0
  2  6  2  0  0  0  0
  3  8  2  0  0  0  0
  3 17  1  0  0  0  0
  4  9  1  0  0  0  0
  4 17  2  0  0  0  0
  5 20  1  0  0  0  0
  6 22  1  0  0  0  0
  7 10  2  0  0  0  0
  7 21  1  0  0  0  0
  8 26  1  0  0  0  0
  9 26  2  0  0  0  0
 10 27  1  0  0  0  0
 11 12  2  0  0  0  0
 11 28  1  0  0  0  0
 12 29  1  0  0  0  0
 13 18  1  0  0  0  0
 13 24  2  0  0  0  0
 14 23  1  0  0  0  0
 14 27  2  0  0  0  0
 15 24  1  0  0  0  0
 15 25  2  0  0  0  0
 16 29  2  0  0  0  0
 16 30  1  0  0  0  0
 17 32  1  0  0  0  0
 18 31  2  0  0  0  0
 18 34  1  0  0  0  0
 19 32  1  0  0  0  0
 19 33  2  0  0  0  0
 19 36  1  0  0  0  0
 20 22  2  0  0  0  0
 20 41  1  0  0  0  0
 21 23  2  0  0  0  0
 21 42  1  0  0  0  0
 22 53  1  0  0  0  0
 23 43  1  0  0  0  0
 24 69  1  0  0  0  0
 25 31  1  0  0  0  0
 25 74  1  0  0  0  0
 26 84  1  0  0  0  0
 27 85  1  0  0  0  0
 28 30  2  0  0  0  0
 28 84  1  0  0  0  0
 29 86  1  0  0  0  0
 30 87  1  0  0  0  0
 31 88  1  0  0  0  0
 32 67  2  0  0  0  0
 33 68  1  0  0  0  0
 33 72  1  0  0  0  0
 34 35  2  0  0  0  0
 35 57  1  0  0  0  0
 36 73  1  0  0  0  0
 36 78  2  0  0  0  0
 37 54  1  0  0  0  0
 37 75  1  0  0  0  0
 37 79  2  0  0  0  0
 38 64  1  0  0  0  0
 38 70  1  0  0  0  0
 38 80  2  0  0  0  0
 39 65  1  0  0  0  0
 39 76  1  0  0  0  0
 39 81  2  0  0  0  0
 40 71  1  0  0  0  0
 40 74  1  0  0  0  0
 40 82  2  0  0  0  0
 41 44  1  0  0  0  0
 42 54  1  0  0  0  0
 43 70  1  0  0  0  0
 44 46  1  0  0  0  0
 45 47  1  0  0  0  0
 45 48  1  0  0  0  0
 46 53  1  0  0  0  0
 47 55  1  0  0  0  0
 48 71  1  0  0  0  0
 49 52  1  0  0  0  0
 49 69  1  0  0  0  0
 50 55  1  0  0  0  0
 50 71  1  0  0  0  0
 51 56  1  0  0  0  0
 51 69  1  0  0  0  0
 52 83  1  0  0  0  0
 53 75  1  0  0  0  0
 54 70  1  0  0  0  0
 55 68  1  0  0  0  0
 56 63  1  0  0  0  0
 56 83  1  0  0  0  0
 58 65  1  0  0  0  0
 59 66  1  0  0  0  0
 60 66  1  0  0  0  0
 61 66  1  0  0  0  0
 62 77  1  0  0  0  0
 63 85  1  0  0  0  0
 64 66  1  0  0  0  0
 64 76  1  0  0  0  0
 65 77  1  0  0  0  0
 67 68  1  0  0  0  0
M  CHG  1  77   1
M  ISO  4  40 100  63 101  74 100  85 101
M  END
> <Batch ID>
0073

> <Smiles>
CC=Cc1cc(N2CCOC([101CH2:1][101O:1]c3ccc4c(c3)CN(C(=O)C(NC(=O)C(C)NC)C(C)(C)C)C(C(=O)NC3CCCc5ccccc53)C4)C2)cc([100NH:0][100C:0](=O)N2CCCC(n3nc(-c4ccc(Oc5ccc(F)cc5F)cc4)c(C(N)=O)c3N)C2)c1F

> <Shape>
0.265

> <Color>
0.085

> <Negative vol penalty>
0.000

$$$$

  -OEChem-04042323413D

 86 95  0     1  0  0  0  0  0999 V2000
  -31.1990  -35.2543   26.1898 C   0  0  0  0  0  0  0  0  0  0  0  0
  -31.3124  -34.1709   25.3245 C   0  0  0  0  0  0  0  0  0  0  0  0
  -24.6690   -8.8950   21.4656 C   0  0  0  0  0  0  0  0  0  0  0  0
  -22.9481  -10.0679   20.2409 C   0  0  0  0  0  0  0  0  0  0  0  0
  -30.1016  -35.3505   27.0444 C   0  0  0  0  0  0  0  0  0  0  0  0
  -30.3290  -33.1824   25.3141 C   0  0  0  0  0  0  0  0  0  0  0  0
  -28.3588  -30.0005   20.4665 C   0  0  0  0  0  0  0  0  0  0  0  0
  -27.6433  -19.7516   17.0467 C   0  0  0  0  0  0  0  0  0  0  0  0
  -27.9940  -20.9681   17.6322 C   0  0  0  0  0  0  0  0  0  0  0  0
  -23.8019   -7.8187   21.6532 C   0  0  0  0  0  0  0  0  0  0  0  0
  -22.0810   -8.9916   20.4285 C   0  0  0  0  0  0  0  0  0  0  0  0
  -28.6696  -28.7273   19.9909 C   0  0  0  0  0  0  0  0  0  0  0  0
  -21.2054   -7.0348   23.6701 C   0  0  0  0  0  0  0  0  0  0  0  0
  -21.1398   -6.4708   24.9441 C   0  0  0  0  0  0  0  0  0  0  0  0
  -26.7391  -27.8369   21.1311 C   0  0  0  0  0  0  0  0  0  0  0  0
  -27.4205  -20.0867   19.8073 C   0  0  0  0  0  0  0  0  0  0  0  0
  -21.8563   -4.3475   24.0410 C   0  0  0  0  0  0  0  0  0  0  0  0
  -24.2421  -10.0197   20.7594 C   0  0  0  0  0  0  0  0  0  0  0  0
  -26.0313  -11.3275   19.4962 C   0  0  0  0  0  0  0  0  0  0  0  0
  -29.0993  -34.3677   27.0376 C   0  0  0  0  0  0  0  0  0  0  0  0
  -27.2402  -30.2000   21.2882 C   0  0  0  0  0  0  0  0  0  0  0  0
  -29.2178  -33.2649   26.1703 C   0  0  0  0  0  0  0  0  0  0  0  0
  -26.4150  -29.1141   21.6136 C   0  0  0  0  0  0  0  0  0  0  0  0
  -27.1811  -18.7026   17.8416 C   0  0  0  0  0  0  0  0  0  0  0  0
  -27.8826  -21.1356   19.0124 C   0  0  0  0  0  0  0  0  0  0  0  0
  -27.0698  -18.8701   19.2218 C   0  0  0  0  0  0  0  0  0  0  0  0
  -22.5079   -7.8669   21.1346 C   0  0  0  0  0  0  0  0  0  0  0  0
  -27.8613  -27.6447   20.3256 C   0  0  0  0  0  0  0  0  0  0  0  0
  -21.5963   -6.2551   22.5814 C   0  0  0  0  0  0  0  0  0  0  0  0
  -21.4653   -5.1272   25.1296 C   0  0  0  0  0  0  0  0  0  0  0  0
  -21.9218   -4.9115   22.7670 C   0  0  0  0  0  0  0  0  0  0  0  0
  -25.1372  -11.1321   20.5658 C   0  0  0  0  0  0  0  0  0  0  0  0
  -26.6458  -12.5235   19.7765 C   0  0  0  0  0  0  0  0  0  0  0  0
  -28.2194  -22.7651   20.8777 C   0  0  0  0  0  0  0  0  0  0  0  0
  -26.2838  -10.5019   18.3515 C   0  0  0  0  0  0  0  0  0  0  0  0
  -26.7973  -31.2251   24.2642 C   0  0  0  0  0  0  0  0  0  0  0  0
  -23.6634  -31.0352   23.4485 C   0  0  0  0  0  0  0  0  0  0  0  0
  -21.2690  -29.6524   21.4482 C   0  0  0  0  0  0  0  0  0  0  0  0
  -26.4387  -17.8361   21.4307 C   0  0  0  0  0  0  0  0  0  0  0  0
  -27.9555  -34.4904   28.0130 C   0  0  0  0  0  0  0  0  0  0  0  0
  -26.9035  -31.5841   21.7711 C   0  0  0  0  0  0  0  0  0  0  0  0
  -25.1911  -29.2786   22.4760 C   0  0  0  0  0  0  0  0  0  0  0  0
  -26.7676  -33.5933   27.6749 C   0  0  0  0  0  0  0  0  0  0  0  0
  -26.5916  -15.3502   23.9751 C   0  0  0  0  0  0  0  0  0  0  0  0
  -27.2421  -32.1825   27.3412 C   0  0  0  0  0  0  0  0  0  0  0  0
  -26.3004  -14.0473   23.2270 C   0  0  0  0  0  0  0  0  0  0  0  0
  -25.7697  -16.5152   23.4263 C   0  0  0  0  0  0  0  0  0  0  0  0
  -25.5849  -15.4183   21.2281 C   0  0  0  0  0  0  0  0  0  0  0  0
  -28.7317  -23.5709   18.9996 C   0  0  0  0  0  0  0  0  0  0  0  0
  -28.1591  -32.1851   26.1121 C   0  0  1  0  0  0  0  0  0  0  0  0
  -26.0312  -31.5846   23.0226 C   0  0  1  0  0  0  0  0  0  0  0  0
  -26.4372  -14.2300   21.7027 C   0  0  2  0  0  0  0  0  0  0  0  0
  -28.7584  -24.1584   20.4427 C   0  0  2  0  0  0  0  0  0  0  0  0
  -30.1519  -24.4743   20.9747 C   0  0  0  0  0  0  0  0  0  0  0  0
  -18.7925  -29.6646   21.0434 C   0  0  0  0  0  0  0  0  0  0  0  0
  -23.2522  -29.3039   25.9271 C   0  0  0  0  0  0  0  0  0  0  0  0
  -21.0533  -28.5818   24.9725 C   0  0  0  0  0  0  0  0  0  0  0  0
  -21.4460  -30.9843   25.5170 C   0  0  0  0  0  0  0  0  0  0  0  0
  -21.6091  -30.6456   18.6811 C   0  0  0  0  0  0  0  0  0  0  0  0
  -26.8127  -17.4107   17.1873 C   0  0  0  0  0  0  0  0  0  0  0  0
  -27.7826  -25.2945   20.6805 C   0  0  0  0  0  0  0  0  0  1  0  0
  -22.6043  -29.9615   23.5160 C   0  0  1  0  0  0  0  0  0  0  0  0
  -20.1311  -30.2763   20.6605 C   0  0  2  0  0  0  0  0  0  0  0  0
  -22.1130  -29.7041   24.9685 C   0  0  0  0  0  0  0  0  0  0  0  0
  -25.1770  -12.1243   21.4590 N   0  0  0  0  0  0  0  0  0  0  0  0
  -26.1037  -12.9547   20.9513 N   0  0  0  0  0  0  0  0  0  0  0  0
  -28.2284  -22.3353   19.5892 N   0  0  0  0  0  0  0  0  0  0  0  0
  -24.9075  -30.6504   22.9287 N   0  0  0  0  0  0  0  0  0  0  0  0
  -25.9522  -16.6299   21.9777 N   0  0  0  0  0  0  0  0  0  0  0  0
  -27.5916  -13.2378   19.1301 N   0  0  0  0  0  0  0  0  0  0  0  0
  -25.5647   -9.3063   18.2184 N   0  0  0  0  0  0  0  0  0  0  0  0
  -26.6023  -17.8165   20.0459 N   0  0  0  0  0  0  0  0  0  0  0  0
  -27.3785  -32.3059   24.8994 N   0  0  0  0  0  0  0  0  0  0  0  0
  -21.5511  -30.3686   22.5922 N   0  0  0  0  0  0  0  0  0  0  0  0
  -20.3401  -30.0725   19.1990 N   0  3  0  0  0  0  0  0  0  0  0  0
  -27.9068  -22.2359   21.9200 O   0  0  0  0  0  0  0  0  0  0  0  0
  -27.1341  -10.8070   17.4812 O   0  0  0  0  0  0  0  0  0  0  0  0
  -26.8554  -30.0540   24.6204 O   0  0  0  0  0  0  0  0  0  0  0  0
  -23.3946  -32.1750   23.8359 O   0  0  0  0  0  0  0  0  0  0  0  0
  -21.8472  -28.6298   21.0868 O   0  0  0  0  0  0  0  0  0  0  0  0
  -26.7173  -18.8052   22.1414 O   0  0  0  0  0  0  0  0  0  0  0  0
  -27.8300  -16.4503   17.4386 O   0  0  0  0  0  0  0  0  0  0  0  0
  -21.6616   -6.8167   21.3173 O   0  0  0  0  0  0  0  0  0  0  0  0
  -28.1627  -26.4008   19.8633 O   0  0  0  0  0  0  0  0  0  1  0  0
  -21.4038   -4.5861   26.3534 F   0  0  0  0  0  0  0  0  0  0  0  0
  -22.2992   -4.1578   21.7252 F   0  0  0  0  0  0  0  0  0  0  0  0
  1  2  1  0  0  0  0
  1  5  2  0  0  0  0
  2  6  2  0  0  0  0
  3 10  2  0  0  0  0
  3 18  1  0  0  0  0
  4 11  1  0  0  0  0
  4 18  2  0  0  0  0
  5 20  1  0  0  0  0
  6 22  1  0  0  0  0
  7 12  2  0  0  0  0
  7 21  1  0  0  0  0
  8  9  2  0  0  0  0
  8 24  1  0  0  0  0
  9 25  1  0  0  0  0
 10 27  1  0  0  0  0
 11 27  2  0  0  0  0
 12 28  1  0  0  0  0
 13 14  2  0  0  0  0
 13 29  1  0  0  0  0
 14 30  1  0  0  0  0
 15 23  1  0  0  0  0
 15 28  2  0  0  0  0
 16 25  2  0  0  0  0
 16 26  1  0  0  0  0
 17 30  2  0  0  0  0
 17 31  1  0  0  0  0
 18 32  1  0  0  0  0
 19 32  1  0  0  0  0
 19 33  2  0  0  0  0
 19 35  1  0  0  0  0
 20 22  2  0  0  0  0
 20 40  1  0  0  0  0
 21 23  2  0  0  0  0
 21 41  1  0  0  0  0
 22 50  1  0  0  0  0
 23 42  1  0  0  0  0
 24 26  2  0  0  0  0
 24 60  1  0  0  0  0
 25 67  1  0  0  0  0
 26 72  1  0  0  0  0
 27 83  1  0  0  0  0
 28 84  1  0  0  0  0
 29 31  2  0  0  0  0
 29 83  1  0  0  0  0
 30 85  1  0  0  0  0
 31 86  1  0  0  0  0
 32 65  2  0  0  0  0
 33 66  1  0  0  0  0
 33 70  1  0  0  0  0
 34 53  1  0  0  0  0
 34 67  1  0  0  0  0
 34 76  2  0  0  0  0
 35 71  1  0  0  0  0
 35 77  2  0  0  0  0
 36 51  1  0  0  0  0
 36 73  1  0  0  0  0
 36 78  2  0  0  0  0
 37 62  1  0  0  0  0
 37 68  1  0  0  0  0
 37 79  2  0  0  0  0
 38 63  1  0  0  0  0
 38 74  1  0  0  0  0
 38 80  2  0  0  0  0
 39 69  1  0  0  0  0
 39 72  1  0  0  0  0
 39 81  2  0  0  0  0
 40 43  1  0  0  0  0
 41 51  1  0  0  0  0
 42 68  1  0  0  0  0
 43 45  1  0  0  0  0
 44 46  1  0  0  0  0
 44 47  1  0  0  0  0
 45 50  1  0  0  0  0
 46 52  1  0  0  0  0
 47 69  1  0  0  0  0
 48 52  1  0  0  0  0
 48 69  1  0  0  0  0
 49 53  1  0  0  0  0
 49 67  1  0  0  0  0
 50 73  1  0  0  0  0
 51 68  1  0  0  0  0
 52 66  1  0  0  0  0
 53 54  1  0  0  0  0
 53 61  1  0  0  0  0
 55 63  1  0  0  0  0
 56 64  1  0  0  0  0
 57 64  1  0  0  0  0
 58 64  1  0  0  0  0
 59 75  1  0  0  0  0
 60 82  1  0  0  0  0
 61 84  1  0  0  0  0
 62 64  1  0  0  0  0
 62 74  1  0  0  0  0
 63 75  1  0  0  0  0
 65 66  1  0  0  0  0
M  CHG  1  75   1
M  ISO  4  39 100  61 101  72 100  84 101
M  END
> <Batch ID>
0073

> <Smiles>
CNC(C)C(=O)NC(C(=O)N1Cc2cc([101O:1][101CH2:1]C3(C)CN(c4ccc(CO)c([100NH:0][100C:0](=O)N5CCCC(n6nc(-c7ccc(Oc8ccc(F)cc8F)cc7)c(C(N)=O)c6N)C5)c4)C3=O)ccc2CC1C(=O)NC1CCCc2ccccc21)C(C)(C)C

> <Shape>
0.290

> <Color>
0.103

> <Negative vol penalty>
0.000

$$$$

  -OEChem-04042323413D

 87 95  0     1  0  0  0  0  0999 V2000
  -18.9261  -33.2562   23.6990 C   0  0  0  0  0  0  0  0  0  0  0  0
  -20.2204  -33.2485   23.1889 C   0  0  0  0  0  0  0  0  0  0  0  0
  -23.8862   -9.9543   21.7278 C   0  0  0  0  0  0  0  0  0  0  0  0
  -24.5396  -11.1706   23.7104 C   0  0  0  0  0  0  0  0  0  0  0  0
  -18.3906  -32.0956   24.2559 C   0  0  0  0  0  0  0  0  0  0  0  0
  -20.9804  -32.0803   23.2365 C   0  0  0  0  0  0  0  0  0  0  0  0
  -26.0173  -28.5437   19.5708 C   0  0  0  0  0  0  0  0  0  0  0  0
  -28.6567  -19.4522   20.6617 C   0  0  0  0  0  0  0  0  0  0  0  0
  -28.9932  -20.7552   21.0285 C   0  0  0  0  0  0  0  0  0  0  0  0
  -23.4162   -8.9096   22.5235 C   0  0  0  0  0  0  0  0  0  0  0  0
  -24.0696  -10.1259   24.5062 C   0  0  0  0  0  0  0  0  0  0  0  0
  -27.2698  -27.9584   19.7516 C   0  0  0  0  0  0  0  0  0  0  0  0
  -20.6760   -8.2355   24.3862 C   0  0  0  0  0  0  0  0  0  0  0  0
  -19.4328   -7.6880   24.0694 C   0  0  0  0  0  0  0  0  0  0  0  0
  -26.2124  -25.9921   20.6652 C   0  0  0  0  0  0  0  0  0  0  0  0
  -30.9972  -18.9313   20.3654 C   0  0  0  0  0  0  0  0  0  0  0  0
  -20.4690   -5.5323   23.7285 C   0  0  0  0  0  0  0  0  0  0  0  0
  -24.4480  -11.0848   22.3212 C   0  0  0  0  0  0  0  0  0  0  0  0
  -24.2092  -13.2845   21.0516 C   0  0  0  0  0  0  0  0  0  0  0  0
  -19.1409  -30.9101   24.3016 C   0  0  0  0  0  0  0  0  0  0  0  0
  -24.8516  -27.8607   19.9466 C   0  0  0  0  0  0  0  0  0  0  0  0
  -20.4548  -30.9031   23.7958 C   0  0  0  0  0  0  0  0  0  0  0  0
  -24.9462  -26.5698   20.4858 C   0  0  0  0  0  0  0  0  0  0  0  0
  -31.3337  -20.2343   20.7322 C   0  0  0  0  0  0  0  0  0  0  0  0
  -29.6588  -18.5402   20.3301 C   0  0  0  0  0  0  0  0  0  0  0  0
  -30.3316  -21.1463   21.0637 C   0  0  0  0  0  0  0  0  0  0  0  0
  -23.5079   -8.9954   23.9127 C   0  0  0  0  0  0  0  0  0  0  0  0
  -27.3676  -26.6836   20.3015 C   0  0  0  0  0  0  0  0  0  0  0  0
  -21.8157   -7.4314   24.3741 C   0  0  0  0  0  0  0  0  0  0  0  0
  -19.3293   -6.3364   23.7406 C   0  0  0  0  0  0  0  0  0  0  0  0
  -21.7122   -6.0798   24.0452 C   0  0  0  0  0  0  0  0  0  0  0  0
  -24.9342  -12.1641   21.4997 C   0  0  0  0  0  0  0  0  0  0  0  0
  -25.1142  -14.0057   20.3119 C   0  0  0  0  0  0  0  0  0  0  0  0
  -22.8400  -13.6415   21.2833 C   0  0  0  0  0  0  0  0  0  0  0  0
  -22.5160  -28.3914   22.0363 C   0  0  0  0  0  0  0  0  0  0  0  0
  -30.7364  -27.2121   20.5280 C   0  0  0  0  0  0  0  0  0  0  0  0
  -21.2117  -25.7617   20.6557 C   0  0  0  0  0  0  0  0  0  0  0  0
  -21.6868  -22.8738   18.9005 C   0  0  0  0  0  0  0  0  0  0  0  0
  -30.1878  -16.1872   19.6023 C   0  0  0  0  0  0  0  0  0  0  0  0
  -29.7742  -23.4973   21.8005 C   0  0  0  0  0  0  0  0  0  0  0  0
  -18.5364  -29.6932   24.9562 C   0  0  0  0  0  0  0  0  0  0  0  0
  -23.5067  -28.4951   19.7203 C   0  0  0  0  0  0  0  0  0  0  0  0
  -23.7240  -25.7864   20.8868 C   0  0  0  0  0  0  0  0  0  0  0  0
  -19.2726  -28.3966   24.6290 C   0  0  0  0  0  0  0  0  0  0  0  0
  -29.7410  -12.7819   18.6635 C   0  0  0  0  0  0  0  0  0  0  0  0
  -20.7787  -28.5852   24.7797 C   0  0  0  0  0  0  0  0  0  0  0  0
  -28.3910  -12.4098   19.2808 C   0  0  0  0  0  0  0  0  0  0  0  0
  -30.5350  -13.7269   19.5636 C   0  0  0  0  0  0  0  0  0  0  0  0
  -28.4636  -14.5621   20.6033 C   0  0  0  0  0  0  0  0  0  0  0  0
  -21.3016  -29.6489   23.8068 C   0  0  1  0  0  0  0  0  0  0  0  0
  -22.4148  -27.9159   20.6146 C   0  0  1  0  0  0  0  0  0  0  0  0
  -27.5999  -13.6632   19.7035 C   0  0  2  0  0  0  0  0  0  0  0  0
  -32.7755  -20.6254   20.7634 C   0  0  0  0  0  0  0  0  0  0  0  0
  -31.7883  -28.0148   21.2501 C   0  0  0  0  0  0  0  0  0  0  0  0
  -20.4353  -20.9157   17.9534 C   0  0  0  0  0  0  0  0  0  0  0  0
  -20.9671  -24.5682   23.4532 C   0  0  0  0  0  0  0  0  0  0  0  0
  -20.6241  -22.3270   22.3912 C   0  0  0  0  0  0  0  0  0  0  0  0
  -18.9927  -24.1669   21.9714 C   0  0  0  0  0  0  0  0  0  0  0  0
  -22.5181  -23.5309   16.1371 C   0  0  0  0  0  0  0  0  0  0  0  0
  -29.8501  -25.8926   22.5114 C   0  0  0  0  0  0  0  0  0  0  0  0
  -29.5091  -26.7932   21.3301 C   0  0  2  0  0  0  0  0  0  1  0  0
  -21.2837  -24.2750   20.9076 C   0  0  1  0  0  0  0  0  0  0  0  0
  -20.9813  -22.3086   17.6809 C   0  0  2  0  0  0  0  0  0  0  0  0
  -20.4902  -23.8496   22.1752 C   0  0  0  0  0  0  0  0  0  0  0  0
  -26.2021  -12.1687   21.0796 N   0  0  0  0  0  0  0  0  0  0  0  0
  -26.2808  -13.3007   20.3597 N   0  0  0  0  0  0  0  0  0  0  0  0
  -22.4320  -26.4521   20.6517 N   0  0  0  0  0  0  0  0  0  0  0  0
  -29.7238  -14.8931   19.9198 N   0  0  0  0  0  0  0  0  0  0  0  0
  -25.0180  -15.1678   19.6316 N   0  0  0  0  0  0  0  0  0  0  0  0
  -22.0504  -12.7882   22.0661 N   0  0  0  0  0  0  0  0  0  0  0  0
  -29.3169  -17.2158   19.9602 N   0  0  0  0  0  0  0  0  0  0  0  0
  -30.6524  -22.4715   21.4398 N   0  0  0  0  0  0  0  0  0  0  0  0
  -21.4135  -29.1015   22.4718 N   0  0  0  0  0  0  0  0  0  0  0  0
  -20.8357  -23.6305   19.6779 N   0  0  0  0  0  0  0  0  0  0  0  0
  -30.4849  -24.6658   22.1057 N   0  0  0  0  0  0  0  0  0  0  0  0
  -21.9233  -22.2271   16.5290 N   0  3  0  0  0  0  0  0  0  0  0  0
  -22.3274  -14.6778   20.7966 O   0  0  0  0  0  0  0  0  0  0  0  0
  -23.5194  -28.1320   22.6902 O   0  0  0  0  0  0  0  0  0  0  0  0
  -30.8701  -26.9214   19.3391 O   0  0  0  0  0  0  0  0  0  0  0  0
  -20.1138  -26.2898   20.4624 O   0  0  0  0  0  0  0  0  0  0  0  0
  -22.8732  -22.6619   19.1415 O   0  0  0  0  0  0  0  0  0  0  0  0
  -31.2651  -16.3678   19.0289 O   0  0  0  0  0  0  0  0  0  0  0  0
  -28.5487  -23.4269   21.8553 O   0  0  0  0  0  0  0  0  0  0  0  0
  -23.0491   -7.9762   24.6895 O   0  0  0  0  0  0  0  0  0  0  0  0
  -28.5889  -26.1103   20.4797 O   0  0  0  0  0  0  0  0  0  1  0  0
  -18.1352   -5.8104   23.4379 F   0  0  0  0  0  0  0  0  0  0  0  0
  -22.8035   -5.3020   24.0330 F   0  0  0  0  0  0  0  0  0  0  0  0
  1  2  1  0  0  0  0
  1  5  2  0  0  0  0
  2  6  2  0  0  0  0
  3 10  2  0  0  0  0
  3 18  1  0  0  0  0
  4 11  1  0  0  0  0
  4 18  2  0  0  0  0
  5 20  1  0  0  0  0
  6 22  1  0  0  0  0
  7 12  2  0  0  0  0
  7 21  1  0  0  0  0
  8  9  2  0  0  0  0
  8 25  1  0  0  0  0
  9 26  1  0  0  0  0
 10 27  1  0  0  0  0
 11 27  2  0  0  0  0
 12 28  1  0  0  0  0
 13 14  2  0  0  0  0
 13 29  1  0  0  0  0
 14 30  1  0  0  0  0
 15 23  1  0  0  0  0
 15 28  2  0  0  0  0
 16 24  1  0  0  0  0
 16 25  2  0  0  0  0
 17 30  2  0  0  0  0
 17 31  1  0  0  0  0
 18 32  1  0  0  0  0
 19 32  1  0  0  0  0
 19 33  2  0  0  0  0
 19 34  1  0  0  0  0
 20 22  2  0  0  0  0
 20 41  1  0  0  0  0
 21 23  2  0  0  0  0
 21 42  1  0  0  0  0
 22 50  1  0  0  0  0
 23 43  1  0  0  0  0
 24 26  2  0  0  0  0
 24 53  1  0  0  0  0
 25 71  1  0  0  0  0
 26 72  1  0  0  0  0
 27 84  1  0  0  0  0
 28 85  1  0  0  0  0
 29 31  2  0  0  0  0
 29 84  1  0  0  0  0
 30 86  1  0  0  0  0
 31 87  1  0  0  0  0
 32 65  2  0  0  0  0
 33 66  1  0  0  0  0
 33 69  1  0  0  0  0
 34 70  1  0  0  0  0
 34 77  2  0  0  0  0
 35 51  1  0  0  0  0
 35 73  1  0  0  0  0
 35 78  2  0  0  0  0
 36 54  1  0  0  0  0
 36 61  1  0  0  0  0
 36 79  2  0  0  0  0
 37 62  1  0  0  0  0
 37 67  1  0  0  0  0
 37 80  2  0  0  0  0
 38 63  1  0  0  0  0
 38 74  1  0  0  0  0
 38 81  2  0  0  0  0
 39 68  1  0  0  0  0
 39 71  1  0  0  0  0
 39 82  2  0  0  0  0
 40 72  1  0  0  0  0
 40 75  1  0  0  0  0
 40 83  2  0  0  0  0
 41 44  1  0  0  0  0
 42 51  1  0  0  0  0
 43 67  1  0  0  0  0
 44 46  1  0  0  0  0
 45 47  1  0  0  0  0
 45 48  1  0  0  0  0
 46 50  1  0  0  0  0
 47 52  1  0  0  0  0
 48 68  1  0  0  0  0
 49 52  1  0  0  0  0
 49 68  1  0  0  0  0
 50 73  1  0  0  0  0
 51 67  1  0  0  0  0
 52 66  1  0  0  0  0
 55 63  1  0  0  0  0
 56 64  1  0  0  0  0
 57 64  1  0  0  0  0
 58 64  1  0  0  0  0
 59 76  1  0  0  0  0
 60 61  1  0  0  0  0
 60 75  1  0  0  0  0
 61 85  1  0  0  0  0
 62 64  1  0  0  0  0
 62 74  1  0  0  0  0
 63 76  1  0  0  0  0
 65 66  1  0  0  0  0
M  CHG  1  76   1
M  ISO  4  39 100  61 101  71 100  85 101
M  END
> <Batch ID>
0073

> <Smiles>
CNC(C)C(=O)NC(C(=O)N1Cc2cc([101O:1][101CH:1](CNC(=O)Nc3ccc([100NH:0][100C:0](=O)N4CCCC(n5nc(-c6ccc(Oc7ccc(F)cc7F)cc6)c(C(N)=O)c5N)C4)cc3C)C(C)=O)ccc2CC1C(=O)NC1CCCc2ccccc21)C(C)(C)C

> <Shape>
0.274

> <Color>
0.141

> <Negative vol penalty>
0.000

$$$$

  -OEChem-04042323413D

 86 94  0     1  0  0  0  0  0999 V2000
  -16.7397  -26.4911   21.8704 C   0  0  0  0  0  0  0  0  0  0  0  0
  -17.9807  -26.2780   21.2788 C   0  0  0  0  0  0  0  0  0  0  0  0
  -23.5358  -10.0775   22.1142 C   0  0  0  0  0  0  0  0  0  0  0  0
  -22.9433  -12.3701   21.6345 C   0  0  0  0  0  0  0  0  0  0  0  0
  -30.9329  -18.9004   20.6562 C   0  0  0  0  0  0  0  0  0  0  0  0
  -28.6955  -19.2582   19.8179 C   0  0  0  0  0  0  0  0  0  0  0  0
  -16.3870  -27.7673   22.3073 C   0  0  0  0  0  0  0  0  0  0  0  0
  -18.8692  -27.3413   21.1227 C   0  0  0  0  0  0  0  0  0  0  0  0
  -23.6049  -26.1252   22.4417 C   0  0  0  0  0  0  0  0  0  0  0  0
  -30.7983  -17.5305   20.4308 C   0  0  0  0  0  0  0  0  0  0  0  0
  -28.5608  -17.8883   19.5924 C   0  0  0  0  0  0  0  0  0  0  0  0
  -22.5662  -10.0365   23.1161 C   0  0  0  0  0  0  0  0  0  0  0  0
  -21.9736  -12.3291   22.6363 C   0  0  0  0  0  0  0  0  0  0  0  0
  -24.3486  -25.3791   21.5284 C   0  0  0  0  0  0  0  0  0  0  0  0
  -19.2097   -9.6840   23.3211 C   0  0  0  0  0  0  0  0  0  0  0  0
  -18.3817   -8.5628   23.3765 C   0  0  0  0  0  0  0  0  0  0  0  0
  -25.4621  -27.3914   20.8004 C   0  0  0  0  0  0  0  0  0  0  0  0
  -19.1700   -8.0910   25.6110 C   0  0  0  0  0  0  0  0  0  0  0  0
  -23.7244  -11.2443   21.3734 C   0  0  0  0  0  0  0  0  0  0  0  0
  -29.8815  -19.7643   20.3498 C   0  0  0  0  0  0  0  0  0  0  0  0
  -24.5594  -10.9602   18.9798 C   0  0  0  0  0  0  0  0  0  0  0  0
  -17.2755  -28.8448   22.1652 C   0  0  0  0  0  0  0  0  0  0  0  0
  -23.7767  -27.5139   22.5337 C   0  0  0  0  0  0  0  0  0  0  0  0
  -18.5275  -28.6333   21.5569 C   0  0  0  0  0  0  0  0  0  0  0  0
  -24.7212  -28.1525   21.7174 C   0  0  0  0  0  0  0  0  0  0  0  0
  -29.6123  -17.0244   19.8989 C   0  0  0  0  0  0  0  0  0  0  0  0
  -21.7851  -11.1623   23.3771 C   0  0  0  0  0  0  0  0  0  0  0  0
  -25.2752  -26.0125   20.7056 C   0  0  0  0  0  0  0  0  0  0  0  0
  -20.0178  -10.0087   24.4107 C   0  0  0  0  0  0  0  0  0  0  0  0
  -18.3618   -7.7663   24.5214 C   0  0  0  0  0  0  0  0  0  0  0  0
  -19.9979   -9.2122   25.5557 C   0  0  0  0  0  0  0  0  0  0  0  0
  -24.7262  -11.2875   20.3387 C   0  0  0  0  0  0  0  0  0  0  0  0
  -25.7982  -11.1647   18.4228 C   0  0  0  0  0  0  0  0  0  0  0  0
  -27.9936  -24.0485   19.4297 C   0  0  0  0  0  0  0  0  0  0  0  0
  -27.2006  -24.7750   20.2239 C   0  0  0  0  0  0  0  0  0  1  0  0
  -30.0248  -21.2233   20.5901 C   0  0  0  0  0  0  0  0  0  0  0  0
  -23.3894  -10.5115   18.2831 C   0  0  0  0  0  0  0  0  0  0  0  0
  -21.9044  -30.0411   22.0740 C   0  0  0  0  0  0  0  0  0  0  0  0
  -24.4713  -31.6623   23.2164 C   0  0  0  0  0  0  0  0  0  0  0  0
  -30.3928  -23.9884   18.9359 C   0  0  0  0  0  0  0  0  0  0  0  0
  -27.8439  -31.7574   23.7301 C   0  0  0  0  0  0  0  0  0  0  0  0
  -30.4234  -14.6395   19.9188 C   0  0  0  0  0  0  0  0  0  0  0  0
  -16.8310  -30.2157   22.6098 C   0  0  0  0  0  0  0  0  0  0  0  0
  -22.9859  -28.3007   23.5427 C   0  0  0  0  0  0  0  0  0  0  0  0
  -24.9580  -29.6380   21.7913 C   0  0  0  0  0  0  0  0  0  0  0  0
  -17.9783  -31.2132   22.7474 C   0  0  0  0  0  0  0  0  0  0  0  0
  -30.4576  -11.1007   19.5274 C   0  0  0  0  0  0  0  0  0  0  0  0
  -18.8936  -31.1455   21.5290 C   0  0  0  0  0  0  0  0  0  0  0  0
  -28.9762  -10.7179   19.5613 C   0  0  0  0  0  0  0  0  0  0  0  0
  -30.7696  -12.2458   20.4893 C   0  0  0  0  0  0  0  0  0  0  0  0
  -28.4463  -13.0554   20.3628 C   0  0  0  0  0  0  0  0  0  0  0  0
  -19.5285  -29.7563   21.3924 C   0  0  1  0  0  0  0  0  0  0  0  0
  -22.8744  -29.7811   23.1916 C   0  0  1  0  0  0  0  0  0  0  0  0
  -28.0712  -11.9496   19.3627 C   0  0  2  0  0  0  0  0  0  0  0  0
  -29.6554  -33.2294   24.6515 C   0  0  0  0  0  0  0  0  0  0  0  0
  -24.3362  -33.3945   20.7082 C   0  0  0  0  0  0  0  0  0  0  0  0
  -26.6616  -34.1764   21.2073 C   0  0  0  0  0  0  0  0  0  0  0  0
  -24.8161  -34.6490   22.8178 C   0  0  0  0  0  0  0  0  0  0  0  0
  -28.5794  -29.7614   25.7878 C   0  0  0  0  0  0  0  0  0  0  0  0
  -29.3080  -23.4884   19.8747 C   0  0  2  0  0  0  0  0  0  0  0  0
  -25.6993  -32.2898   22.6023 C   0  0  1  0  0  0  0  0  0  0  0  0
  -28.6665  -32.1146   24.9549 C   0  0  2  0  0  0  0  0  0  0  0  0
  -25.3727  -33.5997   21.8309 C   0  0  0  0  0  0  0  0  0  0  0  0
  -25.9727  -11.6706   20.6276 N   0  0  0  0  0  0  0  0  0  0  0  0
  -26.6005  -11.5853   19.4424 N   0  0  0  0  0  0  0  0  0  0  0  0
  -24.1558  -30.3646   22.7893 N   0  0  0  0  0  0  0  0  0  0  0  0
  -29.8762  -13.3791   20.2394 N   0  0  0  0  0  0  0  0  0  0  0  0
  -26.2685  -11.0239   17.1653 N   0  0  0  0  0  0  0  0  0  0  0  0
  -22.1997  -10.3547   19.0072 N   0  0  0  0  0  0  0  0  0  0  0  0
  -30.9939  -25.1484   19.3756 N   0  0  0  0  0  0  0  0  0  0  0  0
  -29.4767  -15.6327   19.6701 N   0  0  0  0  0  0  0  0  0  0  0  0
  -29.2605  -22.0541   19.7797 N   0  0  0  0  0  0  0  0  0  0  0  0
  -20.6190  -29.6045   22.3317 N   0  0  0  0  0  0  0  0  0  0  0  0
  -26.6579  -32.4595   23.6890 N   0  0  0  0  0  0  0  0  0  0  0  0
  -29.4295  -30.9263   25.4310 N   0  3  0  0  0  0  0  0  0  0  0  0
  -30.8045  -21.6154   21.4542 O   0  0  0  0  0  0  0  0  0  0  0  0
  -23.4027  -10.2414   17.0582 O   0  0  0  0  0  0  0  0  0  0  0  0
  -22.2931  -30.5980   21.0539 O   0  0  0  0  0  0  0  0  0  0  0  0
  -23.8202  -32.2972   24.0499 O   0  0  0  0  0  0  0  0  0  0  0  0
  -30.6790  -23.4372   17.8750 O   0  0  0  0  0  0  0  0  0  0  0  0
  -28.2177  -30.9402   22.8917 O   0  0  0  0  0  0  0  0  0  0  0  0
  -31.6418  -14.8174   19.8419 O   0  0  0  0  0  0  0  0  0  0  0  0
  -20.8387  -11.1225   24.3545 O   0  0  0  0  0  0  0  0  0  0  0  0
  -26.0019  -25.2867   19.8128 O   0  0  0  0  0  0  0  0  0  1  0  0
  -17.5656   -6.6906   24.5750 F   0  0  0  0  0  0  0  0  0  0  0  0
  -20.7712   -9.5198   26.6060 F   0  0  0  0  0  0  0  0  0  0  0  0
  1  2  1  0  0  0  0
  1  7  2  0  0  0  0
  2  8  2  0  0  0  0
  3 12  2  0  0  0  0
  3 19  1  0  0  0  0
  4 13  1  0  0  0  0
  4 19  2  0  0  0  0
  5 10  2  0  0  0  0
  5 20  1  0  0  0  0
  6 11  1  0  0  0  0
  6 20  2  0  0  0  0
  7 22  1  0  0  0  0
  8 24  1  0  0  0  0
  9 14  2  0  0  0  0
  9 23  1  0  0  0  0
 10 26  1  0  0  0  0
 11 26  2  0  0  0  0
 12 27  1  0  0  0  0
 13 27  2  0  0  0  0
 14 28  1  0  0  0  0
 15 16  2  0  0  0  0
 15 29  1  0  0  0  0
 16 30  1  0  0  0  0
 17 25  1  0  0  0  0
 17 28  2  0  0  0  0
 18 30  2  0  0  0  0
 18 31  1  0  0  0  0
 19 32  1  0  0  0  0
 20 36  1  0  0  0  0
 21 32  1  0  0  0  0
 21 33  2  0  0  0  0
 21 37  1  0  0  0  0
 22 24  2  0  0  0  0
 22 43  1  0  0  0  0
 23 25  2  0  0  0  0
 23 44  1  0  0  0  0
 24 52  1  0  0  0  0
 25 45  1  0  0  0  0
 26 71  1  0  0  0  0
 27 83  1  0  0  0  0
 28 84  1  0  0  0  0
 29 31  2  0  0  0  0
 29 83  1  0  0  0  0
 30 85  1  0  0  0  0
 31 86  1  0  0  0  0
 32 64  2  0  0  0  0
 33 65  1  0  0  0  0
 33 68  1  0  0  0  0
 34 35  2  0  0  0  0
 34 60  1  0  0  0  0
 35 84  1  0  0  0  0
 36 72  1  0  0  0  0
 36 76  2  0  0  0  0
 37 69  1  0  0  0  0
 37 77  2  0  0  0  0
 38 53  1  0  0  0  0
 38 73  1  0  0  0  0
 38 78  2  0  0  0  0
 39 61  1  0  0  0  0
 39 66  1  0  0  0  0
 39 79  2  0  0  0  0
 40 60  1  0  0  0  0
 40 70  1  0  0  0  0
 40 80  2  0  0  0  0
 41 62  1  0  0  0  0
 41 74  1  0  0  0  0
 41 81  2  0  0  0  0
 42 67  1  0  0  0  0
 42 71  1  0  0  0  0
 42 82  2  0  0  0  0
 43 46  1  0  0  0  0
 44 53  1  0  0  0  0
 45 66  1  0  0  0  0
 46 48  1  0  0  0  0
 47 49  1  0  0  0  0
 47 50  1  0  0  0  0
 48 52  1  0  0  0  0
 49 54  1  0  0  0  0
 50 67  1  0  0  0  0
 51 54  1  0  0  0  0
 51 67  1  0  0  0  0
 52 73  1  0  0  0  0
 53 66  1  0  0  0  0
 54 65  1  0  0  0  0
 55 62  1  0  0  0  0
 56 63  1  0  0  0  0
 57 63  1  0  0  0  0
 58 63  1  0  0  0  0
 59 75  1  0  0  0  0
 60 72  1  0  0  0  0
 61 63  1  0  0  0  0
 61 74  1  0  0  0  0
 62 75  1  0  0  0  0
 64 65  1  0  0  0  0
M  CHG  1  75   1
M  ISO  4  35 101  42 100  71 100  84 101
M  END
> <Batch ID>
0073

> <Smiles>
CNC(C)C(=O)NC(C(=O)N1Cc2cc([101O:1][101CH:1]=CC(NC(=O)c3ccc([100NH:0][100C:0](=O)N4CCCC(n5nc(-c6ccc(Oc7ccc(F)cc7F)cc6)c(C(N)=O)c5N)C4)cc3)C(N)=O)ccc2CC1C(=O)NC1CCCc2ccccc21)C(C)(C)C

> <Shape>
0.298

> <Color>
0.073

> <Negative vol penalty>
0.000

$$$$

  -OEChem-04042323413D

 93103  0     1  0  0  0  0  0999 V2000
  -17.6408  -31.0602   17.4307 C   0  0  0  0  0  0  0  0  0  0  0  0
  -18.8630  -31.7023   17.2593 C   0  0  0  0  0  0  0  0  0  0  0  0
  -24.0461   -9.1853   22.0488 C   0  0  0  0  0  0  0  0  0  0  0  0
  -23.5436  -11.3799   22.9254 C   0  0  0  0  0  0  0  0  0  0  0  0
  -17.2461  -30.6427   18.7011 C   0  0  0  0  0  0  0  0  0  0  0  0
  -19.6907  -31.9283   18.3585 C   0  0  0  0  0  0  0  0  0  0  0  0
  -26.3722  -29.2477   18.5657 C   0  0  0  0  0  0  0  0  0  0  0  0
  -31.2101  -18.8833   21.1796 C   0  0  0  0  0  0  0  0  0  0  0  0
  -30.9630  -17.5400   20.8969 C   0  0  0  0  0  0  0  0  0  0  0  0
  -23.4182   -8.6020   23.1493 C   0  0  0  0  0  0  0  0  0  0  0  0
  -22.9157  -10.7965   24.0259 C   0  0  0  0  0  0  0  0  0  0  0  0
  -27.7341  -28.9464   18.5892 C   0  0  0  0  0  0  0  0  0  0  0  0
  -20.2567   -7.9654   24.1654 C   0  0  0  0  0  0  0  0  0  0  0  0
  -19.3865   -6.9018   23.9268 C   0  0  0  0  0  0  0  0  0  0  0  0
  -27.9107  -29.8693   20.8174 C   0  0  0  0  0  0  0  0  0  0  0  0
  -28.7081  -17.7792   21.7306 C   0  0  0  0  0  0  0  0  0  0  0  0
  -20.7579   -5.4701   25.3076 C   0  0  0  0  0  0  0  0  0  0  0  0
  -24.1088  -10.5743   21.9369 C   0  0  0  0  0  0  0  0  0  0  0  0
  -24.1664  -11.5325   19.5734 C   0  0  0  0  0  0  0  0  0  0  0  0
  -18.0737  -30.8551   19.8149 C   0  0  0  0  0  0  0  0  0  0  0  0
  -25.7705  -29.8476   19.6754 C   0  0  0  0  0  0  0  0  0  0  0  0
  -19.3061  -31.5145   19.6452 C   0  0  0  0  0  0  0  0  0  0  0  0
  -26.5444  -30.1621   20.8045 C   0  0  0  0  0  0  0  0  0  0  0  0
  -28.9552  -19.1226   22.0134 C   0  0  0  0  0  0  0  0  0  0  0  0
  -30.2062  -19.6746   21.7380 C   0  0  0  0  0  0  0  0  0  0  0  0
  -29.7120  -16.9879   21.1724 C   0  0  0  0  0  0  0  0  0  0  0  0
  -22.8530   -9.4075   24.1378 C   0  0  0  0  0  0  0  0  0  0  0  0
  -28.5015  -29.2567   19.7122 C   0  0  0  0  0  0  0  0  0  0  0  0
  -21.3776   -7.7814   24.9751 C   0  0  0  0  0  0  0  0  0  0  0  0
  -19.6371   -5.6541   24.4979 C   0  0  0  0  0  0  0  0  0  0  0  0
  -21.6281   -6.5338   25.5462 C   0  0  0  0  0  0  0  0  0  0  0  0
  -24.7577  -11.1775   20.8006 C   0  0  0  0  0  0  0  0  0  0  0  0
  -25.1967  -12.0636   18.8366 C   0  0  0  0  0  0  0  0  0  0  0  0
  -31.1345  -26.3467   20.8304 C   0  0  0  0  0  0  0  0  0  0  0  0
  -22.8072  -11.3946   19.1383 C   0  0  0  0  0  0  0  0  0  0  0  0
  -32.2406  -24.2435   21.7842 C   0  0  0  0  0  0  0  0  0  0  0  0
  -22.6253  -31.1803   21.2271 C   0  0  0  0  0  0  0  0  0  0  0  0
  -24.1418  -29.6822   23.4331 C   0  0  0  0  0  0  0  0  0  0  0  0
  -25.9129  -27.5881   25.4617 C   0  0  0  0  0  0  0  0  0  0  0  0
  -30.3468  -14.7003   20.3297 C   0  0  0  0  0  0  0  0  0  0  0  0
  -17.5831  -30.4283   21.1757 C   0  0  0  0  0  0  0  0  0  0  0  0
  -24.3196  -30.2460   19.6704 C   0  0  0  0  0  0  0  0  0  0  0  0
  -25.8617  -30.8387   21.9617 C   0  0  0  0  0  0  0  0  0  0  0  0
  -18.6854  -30.3712   22.2302 C   0  0  0  0  0  0  0  0  0  0  0  0
  -29.9490  -11.7961   18.3087 C   0  0  0  0  0  0  0  0  0  0  0  0
  -19.5475  -31.6282   22.1700 C   0  0  0  0  0  0  0  0  0  0  0  0
  -28.5167  -11.3437   18.6021 C   0  0  0  0  0  0  0  0  0  0  0  0
  -32.2259  -26.2516   18.7189 C   0  0  0  0  0  0  0  0  0  0  0  0
  -31.3068  -22.7468   23.5652 C   0  0  0  0  0  0  0  0  0  0  0  0
  -29.9139  -23.3748   21.5588 C   0  0  0  0  0  0  0  0  0  0  0  0
  -30.6330  -12.3568   19.5543 C   0  0  0  0  0  0  0  0  0  0  0  0
  -32.9539  -25.3568   19.6970 C   0  0  0  0  0  0  0  0  0  0  0  0
  -31.5472  -21.3666   22.9498 C   0  0  0  0  0  0  0  0  0  0  0  0
  -30.1935  -21.9981   20.9567 C   0  0  0  0  0  0  0  0  0  0  0  0
  -28.4584  -12.9665   20.5386 C   0  0  0  0  0  0  0  0  0  0  0  0
  -20.2427  -31.7557   20.8091 C   0  0  1  0  0  0  0  0  0  0  0  0
  -31.4728  -27.2133   19.6296 C   0  0  1  0  0  0  0  0  0  0  0  0
  -31.0006  -23.8286   22.5316 C   0  0  0  0  0  0  0  0  0  0  0  0
  -23.6483  -30.0974   21.0476 C   0  0  1  0  0  0  0  0  0  0  0  0
  -27.7066  -12.4542   19.2992 C   0  0  2  0  0  0  0  0  0  0  0  0
  -27.8627  -19.9471   22.6125 C   0  0  0  0  0  0  0  0  0  0  0  0
  -25.9231  -26.6378   27.7842 C   0  0  0  0  0  0  0  0  0  0  0  0
  -25.1573  -32.3472   24.5150 C   0  0  0  0  0  0  0  0  0  0  0  0
  -26.0278  -31.1217   26.5172 C   0  0  0  0  0  0  0  0  0  0  0  0
  -23.5808  -31.1371   26.0332 C   0  0  0  0  0  0  0  0  0  0  0  0
  -25.6809  -24.8154   24.4531 C   0  0  0  0  0  0  0  0  0  0  0  0
  -30.2476  -27.8205   18.9734 C   0  0  0  0  0  0  0  0  0  1  0  0
  -25.1243  -29.7662   24.5737 C   0  0  1  0  0  0  0  0  0  0  0  0
  -25.4763  -26.4333   26.3450 C   0  0  2  0  0  0  0  0  0  0  0  0
  -24.9808  -31.0856   25.3836 C   0  0  0  0  0  0  0  0  0  0  0  0
  -26.0626  -11.4591   20.8447 N   0  0  0  0  0  0  0  0  0  0  0  0
  -26.2997  -11.9967   19.6361 N   0  0  0  0  0  0  0  0  0  0  0  0
  -30.4720  -21.0206   22.0160 N   0  0  0  0  0  0  0  0  0  0  0  0
  -32.0671  -25.2701   20.8430 N   0  0  0  0  0  0  0  0  0  0  0  0
  -24.5509  -30.2165   22.2052 N   0  0  0  0  0  0  0  0  0  0  0  0
  -29.8100  -13.4067   20.1587 N   0  0  0  0  0  0  0  0  0  0  0  0
  -25.2578  -12.5766   17.5894 N   0  0  0  0  0  0  0  0  0  0  0  0
  -21.8773  -10.8283   20.0209 N   0  0  0  0  0  0  0  0  0  0  0  0
  -29.4610  -15.6234   20.8845 N   0  0  0  0  0  0  0  0  0  0  0  0
  -21.3736  -30.8585   20.7378 N   0  0  0  0  0  0  0  0  0  0  0  0
  -24.9351  -28.5555   25.3654 N   0  0  0  0  0  0  0  0  0  0  0  0
  -26.0579  -25.1537   25.8497 N   0  3  0  0  0  0  0  0  0  0  0  0
  -30.2451  -26.5934   21.6318 O   0  0  0  0  0  0  0  0  0  0  0  0
  -22.4319  -11.7476   17.9945 O   0  0  0  0  0  0  0  0  0  0  0  0
  -33.3210  -23.6991   22.0188 O   0  0  0  0  0  0  0  0  0  0  0  0
  -22.9462  -32.2305   21.7708 O   0  0  0  0  0  0  0  0  0  0  0  0
  -23.0387  -29.1626   23.6242 O   0  0  0  0  0  0  0  0  0  0  0  0
  -27.0128  -27.6297   24.9149 O   0  0  0  0  0  0  0  0  0  0  0  0
  -31.4981  -14.9762   19.9827 O   0  0  0  0  0  0  0  0  0  0  0  0
  -22.2401   -8.8386   25.2117 O   0  0  0  0  0  0  0  0  0  0  0  0
  -29.8296  -28.9558   19.7302 O   0  0  0  0  0  0  0  0  0  1  0  0
  -18.8005   -4.6331   24.2699 F   0  0  0  0  0  0  0  0  0  0  0  0
  -22.7026   -6.3512   26.3259 F   0  0  0  0  0  0  0  0  0  0  0  0
  1  2  1  0  0  0  0
  1  5  2  0  0  0  0
  2  6  2  0  0  0  0
  3 10  2  0  0  0  0
  3 18  1  0  0  0  0
  4 11  1  0  0  0  0
  4 18  2  0  0  0  0
  5 20  1  0  0  0  0
  6 22  1  0  0  0  0
  7 12  2  0  0  0  0
  7 21  1  0  0  0  0
  8  9  2  0  0  0  0
  8 25  1  0  0  0  0
  9 26  1  0  0  0  0
 10 27  1  0  0  0  0
 11 27  2  0  0  0  0
 12 28  1  0  0  0  0
 13 14  2  0  0  0  0
 13 29  1  0  0  0  0
 14 30  1  0  0  0  0
 15 23  1  0  0  0  0
 15 28  2  0  0  0  0
 16 24  1  0  0  0  0
 16 26  2  0  0  0  0
 17 30  2  0  0  0  0
 17 31  1  0  0  0  0
 18 32  1  0  0  0  0
 19 32  1  0  0  0  0
 19 33  2  0  0  0  0
 19 35  1  0  0  0  0
 20 22  2  0  0  0  0
 20 41  1  0  0  0  0
 21 23  2  0  0  0  0
 21 42  1  0  0  0  0
 22 56  1  0  0  0  0
 23 43  1  0  0  0  0
 24 25  2  0  0  0  0
 24 61  1  0  0  0  0
 25 73  1  0  0  0  0
 26 79  1  0  0  0  0
 27 90  1  0  0  0  0
 28 91  1  0  0  0  0
 29 31  2  0  0  0  0
 29 90  1  0  0  0  0
 30 92  1  0  0  0  0
 31 93  1  0  0  0  0
 32 71  2  0  0  0  0
 33 72  1  0  0  0  0
 33 77  1  0  0  0  0
 34 57  1  0  0  0  0
 34 74  1  0  0  0  0
 34 83  2  0  0  0  0
 35 78  1  0  0  0  0
 35 84  2  0  0  0  0
 36 58  1  0  0  0  0
 36 74  1  0  0  0  0
 36 85  2  0  0  0  0
 37 59  1  0  0  0  0
 37 80  1  0  0  0  0
 37 86  2  0  0  0  0
 38 68  1  0  0  0  0
 38 75  1  0  0  0  0
 38 87  2  0  0  0  0
 39 69  1  0  0  0  0
 39 81  1  0  0  0  0
 39 88  2  0  0  0  0
 40 76  1  0  0  0  0
 40 79  1  0  0  0  0
 40 89  2  0  0  0  0
 41 44  1  0  0  0  0
 42 59  1  0  0  0  0
 43 75  1  0  0  0  0
 44 46  1  0  0  0  0
 45 47  1  0  0  0  0
 45 51  1  0  0  0  0
 46 56  1  0  0  0  0
 47 60  1  0  0  0  0
 48 52  1  0  0  0  0
 48 57  1  0  0  0  0
 49 53  1  0  0  0  0
 49 58  1  0  0  0  0
 50 54  1  0  0  0  0
 50 58  1  0  0  0  0
 51 76  1  0  0  0  0
 52 74  1  0  0  0  0
 53 73  1  0  0  0  0
 54 73  1  0  0  0  0
 55 60  1  0  0  0  0
 55 76  1  0  0  0  0
 56 80  1  0  0  0  0
 57 67  1  0  0  0  0
 59 75  1  0  0  0  0
 60 72  1  0  0  0  0
 62 69  1  0  0  0  0
 63 70  1  0  0  0  0
 64 70  1  0  0  0  0
 65 70  1  0  0  0  0
 66 82  1  0  0  0  0
 67 91  1  0  0  0  0
 68 70  1  0  0  0  0
 68 81  1  0  0  0  0
 69 82  1  0  0  0  0
 71 72  1  0  0  0  0
M  CHG  1  82   1
M  ISO  4  40 100  67 101  79 100  91 101
M  END
> <Batch ID>
0073

> <Smiles>
CNC(C)C(=O)NC(C(=O)N1Cc2cc([101O:1][101CH2:1]C3CCN(C(=O)C4CCN(c5ccc([100NH:0][100C:0](=O)N6CCCC(n7nc(-c8ccc(Oc9ccc(F)cc9F)cc8)c(C(N)=O)c7N)C6)cc5C)CC4)C3=O)ccc2CC1C(=O)NC1CCCc2ccccc21)C(C)(C)C

> <Shape>
0.261

> <Color>
0.083

> <Negative vol penalty>
0.000

$$$$

  -OEChem-04042323413D

 86 95  0     1  0  0  0  0  0999 V2000
  -28.8095  -21.6051   19.3074 C   0  0  0  0  0  0  0  0  0  0  0  0
  -27.5436  -22.1537   19.4858 C   0  0  0  0  0  0  0  0  0  0  0  0
  -26.3140  -13.3953   19.8985 C   0  0  0  0  0  0  0  0  0  0  0  0
  -24.6828  -13.4254   21.6805 C   0  0  0  0  0  0  0  0  0  0  0  0
  -29.8789  -22.0566   20.0798 C   0  0  0  0  0  0  0  0  0  0  0  0
  -27.3461  -23.1536   20.4375 C   0  0  0  0  0  0  0  0  0  0  0  0
  -24.5247  -26.9755   18.6832 C   0  0  0  0  0  0  0  0  0  0  0  0
  -26.2739  -12.0011   19.8854 C   0  0  0  0  0  0  0  0  0  0  0  0
  -24.6427  -12.0312   21.6674 C   0  0  0  0  0  0  0  0  0  0  0  0
  -23.1467  -26.7731   18.6204 C   0  0  0  0  0  0  0  0  0  0  0  0
  -23.2195   -9.5994   19.8015 C   0  0  0  0  0  0  0  0  0  0  0  0
  -21.9667   -8.9881   19.8490 C   0  0  0  0  0  0  0  0  0  0  0  0
  -22.8779  -28.0064   20.6761 C   0  0  0  0  0  0  0  0  0  0  0  0
  -20.7608  -24.4625   23.5515 C   0  0  0  0  0  0  0  0  0  0  0  0
  -22.0408  -22.8301   22.3132 C   0  0  0  0  0  0  0  0  0  0  0  0
  -22.6417  -23.3601   24.5925 C   0  0  0  0  0  0  0  0  0  0  0  0
  -22.5858   -7.8788   21.9041 C   0  0  0  0  0  0  0  0  0  0  0  0
  -25.5184  -14.1075   20.7961 C   0  0  0  0  0  0  0  0  0  0  0  0
  -25.2469  -16.4178   19.7490 C   0  0  0  0  0  0  0  0  0  0  0  0
  -29.6964  -23.0693   21.0347 C   0  0  0  0  0  0  0  0  0  0  0  0
  -25.0917  -27.6867   19.7505 C   0  0  0  0  0  0  0  0  0  0  0  0
  -28.4137  -23.6181   21.2243 C   0  0  0  0  0  0  0  0  0  0  0  0
  -24.2631  -28.2187   20.7488 C   0  0  0  0  0  0  0  0  0  0  0  0
  -20.9871  -23.7417   22.3790 C   0  0  0  0  0  0  0  0  0  0  0  0
  -21.5881  -24.2717   24.6582 C   0  0  0  0  0  0  0  0  0  0  0  0
  -22.8681  -22.6392   23.4199 C   0  0  0  0  0  0  0  0  0  0  0  0
  -25.4383  -11.3190   20.7698 C   0  0  0  0  0  0  0  0  0  0  0  0
  -22.3234  -27.2861   19.6184 C   0  0  0  0  0  0  0  0  0  0  0  0
  -24.1556   -9.3503   20.8053 C   0  0  0  0  0  0  0  0  0  0  0  0
  -21.6498   -8.1278   20.9003 C   0  0  0  0  0  0  0  0  0  0  0  0
  -23.8387   -8.4901   21.8565 C   0  0  0  0  0  0  0  0  0  0  0  0
  -25.5598  -15.5477   20.8105 C   0  0  0  0  0  0  0  0  0  0  0  0
  -25.4423  -17.6749   20.2665 C   0  0  0  0  0  0  0  0  0  0  0  0
  -24.8179  -16.1165   18.4145 C   0  0  0  0  0  0  0  0  0  0  0  0
  -27.1624  -26.9929   22.0601 C   0  0  0  0  0  0  0  0  0  0  0  0
  -26.9172  -30.1638   22.6982 C   0  0  0  0  0  0  0  0  0  0  0  0
  -24.2831  -32.6251   22.8414 C   0  0  0  0  0  0  0  0  0  0  0  0
  -24.8519  -21.4032   24.3598 C   0  0  0  0  0  0  0  0  0  0  0  0
  -30.8727  -23.4916   21.8788 C   0  0  0  0  0  0  0  0  0  0  0  0
  -26.5772  -27.9194   19.7896 C   0  0  0  0  0  0  0  0  0  0  0  0
  -24.8202  -29.0069   21.9050 C   0  0  0  0  0  0  0  0  0  0  0  0
  -30.6570  -24.8172   22.6045 C   0  0  0  0  0  0  0  0  0  0  0  0
  -27.6021  -19.1546   24.5987 C   0  0  0  0  0  0  0  0  0  0  0  0
  -29.2845  -24.8445   23.2697 C   0  0  0  0  0  0  0  0  0  0  0  0
  -27.2902  -18.0873   23.5471 C   0  0  0  0  0  0  0  0  0  0  0  0
  -26.3372  -19.6467   25.2998 C   0  0  0  0  0  0  0  0  0  0  0  0
  -19.9185  -22.8386   20.3334 C   0  0  0  0  0  0  0  0  0  0  0  0
  -24.9574  -19.0394   23.3513 C   0  0  0  0  0  0  0  0  0  0  0  0
  -19.3972  -25.1652   21.0798 C   0  0  0  0  0  0  0  0  0  0  0  0
  -18.6416  -23.1088   19.5499 C   0  0  0  0  0  0  0  0  0  0  0  0
  -28.1647  -24.7218   22.2293 C   0  0  1  0  0  0  0  0  0  0  0  0
  -27.0986  -28.2176   21.1920 C   0  0  1  0  0  0  0  0  0  0  0  0
  -26.1933  -18.5597   22.5729 C   0  0  2  0  0  0  0  0  0  0  0  0
  -19.2041  -25.4540   19.5731 C   0  0  1  0  0  0  0  0  0  0  0  0
  -18.1666  -26.5695   19.3979 C   0  0  0  0  0  0  0  0  0  0  0  0
  -24.3507  -35.1094   22.4930 C   0  0  0  0  0  0  0  0  0  0  0  0
  -27.2348  -30.2888   25.7303 C   0  0  0  0  0  0  0  0  0  0  0  0
  -25.7564  -32.3093   25.7321 C   0  0  0  0  0  0  0  0  0  0  0  0
  -27.9368  -32.3625   24.5215 C   0  0  0  0  0  0  0  0  0  0  0  0
  -22.1963  -32.5050   20.7462 C   0  0  0  0  0  0  0  0  0  0  0  0
  -20.5233  -25.8960   18.9232 C   0  0  0  0  0  0  0  0  0  1  0  0
  -26.0229  -31.0131   23.5687 C   0  0  1  0  0  0  0  0  0  0  0  0
  -24.0455  -33.7600   21.8616 C   0  0  2  0  0  0  0  0  0  0  0  0
  -26.7287  -31.4689   24.8770 C   0  0  0  0  0  0  0  0  0  0  0  0
  -25.9263  -16.1971   21.9187 N   0  0  0  0  0  0  0  0  0  0  0  0
  -25.8450  -17.4887   21.5562 N   0  0  0  0  0  0  0  0  0  0  0  0
  -20.1620  -23.9322   21.2749 N   0  0  3  0  0  0  0  0  0  0  0  0
  -26.2794  -29.2020   21.9020 N   0  0  0  0  0  0  0  0  0  0  0  0
  -25.3449  -20.0820   24.3145 N   0  0  0  0  0  0  0  0  0  0  0  0
  -21.3594  -25.0008   25.8438 N   0  0  0  0  0  0  0  0  0  0  0  0
  -25.3073  -18.9105   19.7397 N   0  0  0  0  0  0  0  0  0  0  0  0
  -23.4435  -16.0062   18.1634 N   0  0  0  0  0  0  0  0  0  0  0  0
  -23.9377  -21.7123   23.3531 N   0  0  0  0  0  0  0  0  0  0  0  0
  -27.9616  -25.9856   21.5540 N   0  0  0  0  0  0  0  0  0  0  0  0
  -25.5572  -32.1104   22.7276 N   0  0  0  0  0  0  0  0  0  0  0  0
  -22.6260  -33.7638   21.4077 N   0  3  0  0  0  0  0  0  0  0  0  0
  -25.6301  -15.9340   17.4761 O   0  0  0  0  0  0  0  0  0  0  0  0
  -26.5344  -26.9645   23.1119 O   0  0  0  0  0  0  0  0  0  0  0  0
  -28.1362  -30.3518   22.7185 O   0  0  0  0  0  0  0  0  0  0  0  0
  -23.4255  -32.2367   23.6315 O   0  0  0  0  0  0  0  0  0  0  0  0
  -25.2345  -22.2098   25.2112 O   0  0  0  0  0  0  0  0  0  0  0  0
  -18.7221  -24.3289   18.8246 O   0  0  0  0  0  0  0  0  0  0  0  0
  -25.3987   -9.9586   20.7571 O   0  0  0  0  0  0  0  0  0  0  0  0
  -20.9781  -27.0894   19.5599 O   0  0  0  0  0  0  0  0  0  1  0  0
  -20.4461   -7.5421   20.9466 F   0  0  0  0  0  0  0  0  0  0  0  0
  -24.7334   -8.2479   22.8244 F   0  0  0  0  0  0  0  0  0  0  0  0
  1  2  1  0  0  0  0
  1  5  2  0  0  0  0
  2  6  2  0  0  0  0
  3  8  2  0  0  0  0
  3 18  1  0  0  0  0
  4  9  1  0  0  0  0
  4 18  2  0  0  0  0
  5 20  1  0  0  0  0
  6 22  1  0  0  0  0
  7 10  2  0  0  0  0
  7 21  1  0  0  0  0
  8 27  1  0  0  0  0
  9 27  2  0  0  0  0
 10 28  1  0  0  0  0
 11 12  2  0  0  0  0
 11 29  1  0  0  0  0
 12 30  1  0  0  0  0
 13 23  1  0  0  0  0
 13 28  2  0  0  0  0
 14 24  1  0  0  0  0
 14 25  2  0  0  0  0
 15 24  2  0  0  0  0
 15 26  1  0  0  0  0
 16 25  1  0  0  0  0
 16 26  2  0  0  0  0
 17 30  2  0  0  0  0
 17 31  1  0  0  0  0
 18 32  1  0  0  0  0
 19 32  1  0  0  0  0
 19 33  2  0  0  0  0
 19 34  1  0  0  0  0
 20 22  2  0  0  0  0
 20 39  1  0  0  0  0
 21 23  2  0  0  0  0
 21 40  1  0  0  0  0
 22 51  1  0  0  0  0
 23 41  1  0  0  0  0
 24 67  1  0  0  0  0
 25 70  1  0  0  0  0
 26 73  1  0  0  0  0
 27 83  1  0  0  0  0
 28 84  1  0  0  0  0
 29 31  2  0  0  0  0
 29 83  1  0  0  0  0
 30 85  1  0  0  0  0
 31 86  1  0  0  0  0
 32 65  2  0  0  0  0
 33 66  1  0  0  0  0
 33 71  1  0  0  0  0
 34 72  1  0  0  0  0
 34 77  2  0  0  0  0
 35 52  1  0  0  0  0
 35 74  1  0  0  0  0
 35 78  2  0  0  0  0
 36 62  1  0  0  0  0
 36 68  1  0  0  0  0
 36 79  2  0  0  0  0
 37 63  1  0  0  0  0
 37 75  1  0  0  0  0
 37 80  2  0  0  0  0
 38 69  1  0  0  0  0
 38 73  1  0  0  0  0
 38 81  2  0  0  0  0
 39 42  1  0  0  0  0
 40 52  1  0  0  0  0
 41 68  1  0  0  0  0
 42 44  1  0  0  0  0
 43 45  1  0  0  0  0
 43 46  1  0  0  0  0
 44 51  1  0  0  0  0
 45 53  1  0  0  0  0
 46 69  1  0  0  0  0
 47 50  1  0  0  0  0
 47 67  1  0  0  0  0
 48 53  1  0  0  0  0
 48 69  1  0  0  0  0
 49 54  1  0  0  0  0
 49 67  1  0  0  0  0
 50 82  1  0  0  0  0
 51 74  1  0  0  0  0
 52 68  1  0  0  0  0
 53 66  1  0  0  0  0
 54 55  1  0  0  0  0
 54 61  1  0  0  0  0
 54 82  1  0  0  0  0
 56 63  1  0  0  0  0
 57 64  1  0  0  0  0
 58 64  1  0  0  0  0
 59 64  1  0  0  0  0
 60 76  1  0  0  0  0
 61 84  1  0  0  0  0
 62 64  1  0  0  0  0
 62 75  1  0  0  0  0
 63 76  1  0  0  0  0
 65 66  1  0  0  0  0
M  CHG  1  76   1
M  ISO  4  38 100  61 101  73 100  84 101
M  END
> <Batch ID>
0073

> <Smiles>
CNC(C)C(=O)NC(C(=O)N1Cc2cc([101O:1][101CH2:1]C3(C)CN(c4cc(N)cc([100NH:0][100C:0](=O)N5CCCC(n6nc(-c7ccc(Oc8ccc(F)cc8F)cc7)c(C(N)=O)c6N)C5)c4)CCO3)ccc2CC1C(=O)NC1CCCc2ccccc21)C(C)(C)C

> <Shape>
0.213

> <Color>
0.074

> <Negative vol penalty>
0.000

$$$$

  -OEChem-04042323413D

 90 98  0     1  0  0  0  0  0999 V2000
  -26.8450  -33.6725   26.1397 C   0  0  0  0  0  0  0  0  0  0  0  0
  -27.2701  -32.5127   25.4998 C   0  0  0  0  0  0  0  0  0  0  0  0
  -24.1684   -9.9675   22.4032 C   0  0  0  0  0  0  0  0  0  0  0  0
  -24.6587  -11.6751   24.0405 C   0  0  0  0  0  0  0  0  0  0  0  0
  -25.4904  -33.8617   26.4101 C   0  0  0  0  0  0  0  0  0  0  0  0
  -26.3408  -31.5407   25.1310 C   0  0  0  0  0  0  0  0  0  0  0  0
  -27.1142  -29.7941   20.4409 C   0  0  0  0  0  0  0  0  0  0  0  0
  -23.8161   -9.0875   23.4265 C   0  0  0  0  0  0  0  0  0  0  0  0
  -24.3064  -10.7951   25.0638 C   0  0  0  0  0  0  0  0  0  0  0  0
  -28.1413  -28.8674   20.2679 C   0  0  0  0  0  0  0  0  0  0  0  0
  -21.1568   -8.5501   25.4444 C   0  0  0  0  0  0  0  0  0  0  0  0
  -19.9885   -7.8050   25.2850 C   0  0  0  0  0  0  0  0  0  0  0  0
  -27.9942  -20.8319   19.1396 C   0  0  0  0  0  0  0  0  0  0  0  0
  -26.5210  -27.0804   20.2684 C   0  0  0  0  0  0  0  0  0  0  0  0
  -30.1996  -19.1436   18.8787 C   0  0  0  0  0  0  0  0  0  0  0  0
  -21.2713   -5.7628   25.4301 C   0  0  0  0  0  0  0  0  0  0  0  0
  -24.5897  -11.2613   22.7102 C   0  0  0  0  0  0  0  0  0  0  0  0
  -29.2784  -21.3699   19.0565 C   0  0  0  0  0  0  0  0  0  0  0  0
  -24.1078  -13.0664   20.9732 C   0  0  0  0  0  0  0  0  0  0  0  0
  -24.5429  -32.8959   26.0357 C   0  0  0  0  0  0  0  0  0  0  0  0
  -25.7815  -29.3693   20.5401 C   0  0  0  0  0  0  0  0  0  0  0  0
  -24.9723  -31.7165   25.3978 C   0  0  0  0  0  0  0  0  0  0  0  0
  -25.4785  -28.0039   20.4401 C   0  0  0  0  0  0  0  0  0  0  0  0
  -28.9154  -18.6055   18.9618 C   0  0  0  0  0  0  0  0  0  0  0  0
  -23.8851   -9.5013   24.7567 C   0  0  0  0  0  0  0  0  0  0  0  0
  -27.8451  -27.5101   20.1845 C   0  0  0  0  0  0  0  0  0  0  0  0
  -22.3824   -7.9017   25.5966 C   0  0  0  0  0  0  0  0  0  0  0  0
  -20.0457   -6.4113   25.2779 C   0  0  0  0  0  0  0  0  0  0  0  0
  -27.8127  -19.4497   19.0923 C   0  0  0  0  0  0  0  0  0  0  0  0
  -30.3811  -20.5258   18.9261 C   0  0  0  0  0  0  0  0  0  0  0  0
  -22.4396   -6.5080   25.5895 C   0  0  0  0  0  0  0  0  0  0  0  0
  -24.9542  -12.1706   21.6536 C   0  0  0  0  0  0  0  0  0  0  0  0
  -24.9293  -13.6968   20.0709 C   0  0  0  0  0  0  0  0  0  0  0  0
  -29.4313  -26.0767   21.1332 C   0  0  0  0  0  0  0  0  0  1  0  0
  -29.4669  -22.8427   19.1067 C   0  0  0  0  0  0  0  0  0  0  0  0
  -22.7045  -13.3071   21.1418 C   0  0  0  0  0  0  0  0  0  0  0  0
  -30.4272  -25.1749   21.1185 C   0  0  0  0  0  0  0  0  0  0  0  0
  -23.5326  -29.5426   22.7798 C   0  0  0  0  0  0  0  0  0  0  0  0
  -21.6636  -28.2772   20.4499 C   0  0  0  0  0  0  0  0  0  0  0  0
  -21.4577  -26.4640   17.5661 C   0  0  0  0  0  0  0  0  0  0  0  0
  -29.7207  -16.2251   18.7853 C   0  0  0  0  0  0  0  0  0  0  0  0
  -23.0950  -33.1232   26.3915 C   0  0  0  0  0  0  0  0  0  0  0  0
  -24.6825  -30.3837   20.6998 C   0  0  0  0  0  0  0  0  0  0  0  0
  -24.0622  -27.4979   20.5202 C   0  0  0  0  0  0  0  0  0  0  0  0
  -22.1313  -32.2148   25.6324 C   0  0  0  0  0  0  0  0  0  0  0  0
  -29.6811  -12.6669   18.6634 C   0  0  0  0  0  0  0  0  0  0  0  0
  -22.6291  -30.7730   25.6523 C   0  0  0  0  0  0  0  0  0  0  0  0
  -28.3782  -12.2943   19.3745 C   0  0  0  0  0  0  0  0  0  0  0  0
  -30.3520  -13.8790   19.3072 C   0  0  0  0  0  0  0  0  0  0  0  0
  -28.1886  -14.6873   20.1648 C   0  0  0  0  0  0  0  0  0  0  0  0
  -23.9918  -30.6502   24.9599 C   0  0  1  0  0  0  0  0  0  0  0  0
  -23.4106  -29.7966   21.3039 C   0  0  1  0  0  0  0  0  0  0  0  0
  -27.4431  -13.5118   19.5120 C   0  0  2  0  0  0  0  0  0  0  0  0
  -31.0311  -24.6319   22.3877 C   0  0  0  0  0  0  0  0  0  0  0  0
  -19.7912  -25.5637   15.9200 C   0  0  0  0  0  0  0  0  0  0  0  0
  -34.4828  -26.4367   19.4998 C   0  0  0  0  0  0  0  0  0  0  0  0
  -32.2650  -27.2838   18.7110 C   0  0  0  0  0  0  0  0  0  0  0  0
  -20.8948  -26.0867   22.4299 C   0  0  0  0  0  0  0  0  0  0  0  0
  -20.0304  -24.7439   20.5017 C   0  0  0  0  0  0  0  0  0  0  0  0
  -19.0015  -26.9508   21.0433 C   0  0  0  0  0  0  0  0  0  0  0  0
  -22.6394  -28.0194   15.3428 C   0  0  0  0  0  0  0  0  0  0  0  0
  -32.4946  -24.9030   19.5997 C   0  0  0  0  0  0  0  0  0  0  0  0
  -30.9831  -24.6827   19.7935 C   0  0  1  0  0  0  0  0  0  0  0  0
  -21.3066  -26.8788   20.0073 C   0  0  1  0  0  0  0  0  0  0  0  0
  -20.7167  -26.7197   16.2662 C   0  0  2  0  0  0  0  0  0  0  0  0
  -32.9679  -26.3665   19.7128 C   0  0  0  0  0  0  0  0  0  0  0  0
  -20.3353  -26.1741   20.9960 C   0  0  0  0  0  0  0  0  0  0  0  0
  -26.2166  -12.2241   21.2205 N   0  0  0  0  0  0  0  0  0  0  0  0
  -26.1694  -13.1610   20.2582 N   0  0  0  0  0  0  0  0  0  0  0  0
  -23.0232  -28.5283   20.6829 N   0  0  0  0  0  0  0  0  0  0  0  0
  -29.4077  -14.9945   19.4004 N   0  0  0  0  0  0  0  0  0  0  0  0
  -24.7045  -14.6516   19.1434 N   0  0  0  0  0  0  0  0  0  0  0  0
  -22.0126  -12.5722   22.1142 N   0  0  0  0  0  0  0  0  0  0  0  0
  -28.7331  -17.2012   18.9128 N   0  0  0  0  0  0  0  0  0  0  0  0
  -30.6625  -23.2783   19.6527 N   0  0  0  0  0  0  0  0  0  0  0  0
  -23.8315  -30.6693   23.5217 N   0  0  0  0  0  0  0  0  0  0  0  0
  -20.7914  -26.9999   18.6478 N   0  0  0  0  0  0  0  0  0  0  0  0
  -21.6829  -26.9000   15.1459 N   0  3  0  0  0  0  0  0  0  0  0  0
  -28.5728  -23.5765   18.6937 O   0  0  0  0  0  0  0  0  0  0  0  0
  -22.0791  -14.1371   20.4393 O   0  0  0  0  0  0  0  0  0  0  0  0
  -23.3664  -28.4086   23.2134 O   0  0  0  0  0  0  0  0  0  0  0  0
  -20.7699  -29.1179   20.5772 O   0  0  0  0  0  0  0  0  0  0  0  0
  -22.5194  -25.8469   17.6174 O   0  0  0  0  0  0  0  0  0  0  0  0
  -30.7747  -16.3914   18.1659 O   0  0  0  0  0  0  0  0  0  0  0  0
  -23.5412   -8.6429   25.7555 O   0  0  0  0  0  0  0  0  0  0  0  0
  -28.8458  -26.6034   20.0163 O   0  0  0  0  0  0  0  0  0  1  0  0
  -18.9236   -5.6958   25.1264 F   0  0  0  0  0  0  0  0  0  0  0  0
  -26.5737  -18.9437   19.1732 F   0  0  0  0  0  0  0  0  0  0  0  0
  -31.6202  -21.0316   18.8441 F   0  0  0  0  0  0  0  0  0  0  0  0
  -23.6139   -5.8794   25.7364 F   0  0  0  0  0  0  0  0  0  0  0  0
  1  2  1  0  0  0  0
  1  5  2  0  0  0  0
  2  6  2  0  0  0  0
  3  8  2  0  0  0  0
  3 17  1  0  0  0  0
  4  9  1  0  0  0  0
  4 17  2  0  0  0  0
  5 20  1  0  0  0  0
  6 22  1  0  0  0  0
  7 10  2  0  0  0  0
  7 21  1  0  0  0  0
  8 25  1  0  0  0  0
  9 25  2  0  0  0  0
 10 26  1  0  0  0  0
 11 12  2  0  0  0  0
 11 27  1  0  0  0  0
 12 28  1  0  0  0  0
 13 18  1  0  0  0  0
 13 29  2  0  0  0  0
 14 23  1  0  0  0  0
 14 26  2  0  0  0  0
 15 24  2  0  0  0  0
 15 30  1  0  0  0  0
 16 28  2  0  0  0  0
 16 31  1  0  0  0  0
 17 32  1  0  0  0  0
 18 30  2  0  0  0  0
 18 35  1  0  0  0  0
 19 32  1  0  0  0  0
 19 33  2  0  0  0  0
 19 36  1  0  0  0  0
 20 22  2  0  0  0  0
 20 42  1  0  0  0  0
 21 23  2  0  0  0  0
 21 43  1  0  0  0  0
 22 51  1  0  0  0  0
 23 44  1  0  0  0  0
 24 29  1  0  0  0  0
 24 74  1  0  0  0  0
 25 85  1  0  0  0  0
 26 86  1  0  0  0  0
 27 31  2  0  0  0  0
 27 85  1  0  0  0  0
 28 87  1  0  0  0  0
 29 88  1  0  0  0  0
 30 89  1  0  0  0  0
 31 90  1  0  0  0  0
 32 68  2  0  0  0  0
 33 69  1  0  0  0  0
 33 72  1  0  0  0  0
 34 37  2  0  0  0  0
 34 86  1  0  0  0  0
 35 75  1  0  0  0  0
 35 79  2  0  0  0  0
 36 73  1  0  0  0  0
 36 80  2  0  0  0  0
 37 54  1  0  0  0  0
 37 63  1  0  0  0  0
 38 52  1  0  0  0  0
 38 76  1  0  0  0  0
 38 81  2  0  0  0  0
 39 64  1  0  0  0  0
 39 70  1  0  0  0  0
 39 82  2  0  0  0  0
 40 65  1  0  0  0  0
 40 77  1  0  0  0  0
 40 83  2  0  0  0  0
 41 71  1  0  0  0  0
 41 74  1  0  0  0  0
 41 84  2  0  0  0  0
 42 45  1  0  0  0  0
 43 52  1  0  0  0  0
 44 70  1  0  0  0  0
 45 47  1  0  0  0  0
 46 48  1  0  0  0  0
 46 49  1  0  0  0  0
 47 51  1  0  0  0  0
 48 53  1  0  0  0  0
 49 71  1  0  0  0  0
 50 53  1  0  0  0  0
 50 71  1  0  0  0  0
 51 76  1  0  0  0  0
 52 70  1  0  0  0  0
 53 69  1  0  0  0  0
 55 65  1  0  0  0  0
 56 66  1  0  0  0  0
 57 66  1  0  0  0  0
 58 67  1  0  0  0  0
 59 67  1  0  0  0  0
 60 67  1  0  0  0  0
 61 78  1  0  0  0  0
 62 63  1  0  0  0  0
 62 66  1  0  0  0  0
 63 75  1  0  0  0  0
 64 67  1  0  0  0  0
 64 77  1  0  0  0  0
 65 78  1  0  0  0  0
 68 69  1  0  0  0  0
M  CHG  1  78   1
M  ISO  4  34 101  41 100  74 100  86 101
M  END
> <Batch ID>
0073

> <Smiles>
CNC(C)C(=O)NC(C(=O)N1Cc2cc([101O:1][101CH:1]=C(C)C(CC(C)C)NC(=O)c3cc(F)c([100NH:0][100C:0](=O)N4CCCC(n5nc(-c6ccc(Oc7ccc(F)cc7F)cc6)c(C(N)=O)c5N)C4)cc3F)ccc2CC1C(=O)NC1CCCc2ccccc21)C(C)(C)C

> <Shape>
0.312

> <Color>
0.128

> <Negative vol penalty>
0.000

$$$$

  -OEChem-04042323413D

 86 94  0     1  0  0  0  0  0999 V2000
  -29.1581  -37.0726   21.5981 C   0  0  0  0  0  0  0  0  0  0  0  0
  -29.4739  -35.7747   21.2094 C   0  0  0  0  0  0  0  0  0  0  0  0
  -24.2301   -9.4700   21.0750 C   0  0  0  0  0  0  0  0  0  0  0  0
  -25.6604  -10.0309   22.9396 C   0  0  0  0  0  0  0  0  0  0  0  0
  -28.1829  -37.2901   22.5706 C   0  0  0  0  0  0  0  0  0  0  0  0
  -28.8154  -34.6934   21.7938 C   0  0  0  0  0  0  0  0  0  0  0  0
  -27.2866  -29.4155   19.0895 C   0  0  0  0  0  0  0  0  0  0  0  0
  -24.1133   -8.1662   21.5568 C   0  0  0  0  0  0  0  0  0  0  0  0
  -25.5435   -8.7271   23.4214 C   0  0  0  0  0  0  0  0  0  0  0  0
  -27.8883  -28.1579   19.0797 C   0  0  0  0  0  0  0  0  0  0  0  0
  -22.3726   -6.5455   23.9601 C   0  0  0  0  0  0  0  0  0  0  0  0
  -21.1009   -5.9726   23.9783 C   0  0  0  0  0  0  0  0  0  0  0  0
  -26.4311  -27.4533   20.8683 C   0  0  0  0  0  0  0  0  0  0  0  0
  -28.2850  -19.3306   21.7318 C   0  0  0  0  0  0  0  0  0  0  0  0
  -30.2866  -19.2608   20.3807 C   0  0  0  0  0  0  0  0  0  0  0  0
  -21.8716   -4.2153   22.5103 C   0  0  0  0  0  0  0  0  0  0  0  0
  -25.0037  -10.4023   21.7663 C   0  0  0  0  0  0  0  0  0  0  0  0
  -24.2975  -12.8461   21.5741 C   0  0  0  0  0  0  0  0  0  0  0  0
  -27.5053  -36.2113   23.1602 C   0  0  0  0  0  0  0  0  0  0  0  0
  -26.2583  -29.7055   19.9978 C   0  0  0  0  0  0  0  0  0  0  0  0
  -27.8312  -34.8965   22.7760 C   0  0  0  0  0  0  0  0  0  0  0  0
  -25.8162  -28.7146   20.8860 C   0  0  0  0  0  0  0  0  0  0  0  0
  -29.0475  -18.7257   20.7326 C   0  0  0  0  0  0  0  0  0  0  0  0
  -24.7699   -7.7948   22.7300 C   0  0  0  0  0  0  0  0  0  0  0  0
  -27.4625  -27.1775   19.9711 C   0  0  0  0  0  0  0  0  0  0  0  0
  -23.3938   -5.9533   23.2170 C   0  0  0  0  0  0  0  0  0  0  0  0
  -20.8504   -4.8075   23.2534 C   0  0  0  0  0  0  0  0  0  0  0  0
  -28.7616  -20.4706   22.3790 C   0  0  0  0  0  0  0  0  0  0  0  0
  -30.7633  -20.4008   21.0280 C   0  0  0  0  0  0  0  0  0  0  0  0
  -23.1433   -4.7882   22.4921 C   0  0  0  0  0  0  0  0  0  0  0  0
  -30.0008  -21.0056   22.0272 C   0  0  0  0  0  0  0  0  0  0  0  0
  -25.1253  -11.7491   21.2688 C   0  0  0  0  0  0  0  0  0  0  0  0
  -24.8289  -13.8880   20.8541 C   0  0  0  0  0  0  0  0  0  0  0  0
  -23.1508  -12.9169   22.4318 C   0  0  0  0  0  0  0  0  0  0  0  0
  -25.8854  -31.7809   22.3762 C   0  0  0  0  0  0  0  0  0  0  0  0
  -22.8614  -30.6075   22.4072 C   0  0  0  0  0  0  0  0  0  0  0  0
  -29.2910  -24.3254   21.2492 C   0  0  0  0  0  0  0  0  0  0  0  0
  -20.7440  -28.0356   21.6665 C   0  0  0  0  0  0  0  0  0  0  0  0
  -29.1936  -16.8450   19.0629 C   0  0  0  0  0  0  0  0  0  0  0  0
  -26.4922  -36.4938   24.2412 C   0  0  0  0  0  0  0  0  0  0  0  0
  -25.6014  -31.0584   19.9777 C   0  0  0  0  0  0  0  0  0  0  0  0
  -24.7023  -28.9689   21.8672 C   0  0  0  0  0  0  0  0  0  0  0  0
  -25.5759  -35.3104   24.5416 C   0  0  0  0  0  0  0  0  0  0  0  0
  -28.3475  -13.9213   17.2154 C   0  0  0  0  0  0  0  0  0  0  0  0
  -26.3886  -34.0265   24.6754 C   0  0  0  0  0  0  0  0  0  0  0  0
  -27.3657  -13.1858   18.1304 C   0  0  0  0  0  0  0  0  0  0  0  0
  -29.4561  -14.6096   18.0098 C   0  0  0  0  0  0  0  0  0  0  0  0
  -28.0095  -14.7620   19.9980 C   0  0  0  0  0  0  0  0  0  0  0  0
  -27.1214  -33.6987   23.3689 C   0  0  1  0  0  0  0  0  0  0  0  0
  -24.9128  -31.4079   21.2934 C   0  0  1  0  0  0  0  0  0  0  0  0
  -26.8382  -14.1072   19.2477 C   0  0  2  0  0  0  0  0  0  0  0  0
  -18.3357  -27.3532   21.8443 C   0  0  0  0  0  0  0  0  0  0  0  0
  -23.2411  -30.0519   25.3833 C   0  0  0  0  0  0  0  0  0  0  0  0
  -21.2421  -28.5476   25.2863 C   0  0  0  0  0  0  0  0  0  0  0  0
  -20.9991  -30.9765   24.7724 C   0  0  0  0  0  0  0  0  0  0  0  0
  -20.4722  -27.8038   18.7286 C   0  0  0  0  0  0  0  0  0  0  0  0
  -28.0922  -25.2434   21.2034 C   0  0  0  0  0  0  0  0  0  1  0  0
  -22.1638  -29.4684   23.1106 C   0  0  1  0  0  0  0  0  0  0  0  0
  -19.3942  -28.0101   20.9722 C   0  0  2  0  0  0  0  0  0  0  0  0
  -21.9339  -29.7566   24.6211 C   0  0  0  0  0  0  0  0  0  0  0  0
  -26.1078  -12.0648   20.4209 N   0  0  0  0  0  0  0  0  0  0  0  0
  -25.9007  -13.3719   20.1871 N   0  0  0  0  0  0  0  0  0  0  0  0
  -24.0959  -30.3094   21.8130 N   0  0  0  0  0  0  0  0  0  0  0  0
  -28.8816  -15.4691   19.0471 N   0  0  0  0  0  0  0  0  0  0  0  0
  -24.4791  -15.1863   20.7328 N   0  0  0  0  0  0  0  0  0  0  0  0
  -22.7403  -11.7529   23.0959 N   0  0  0  0  0  0  0  0  0  0  0  0
  -28.5632  -17.5676   20.0754 N   0  0  0  0  0  0  0  0  0  0  0  0
  -26.2058  -33.1248   22.4062 N   0  0  0  0  0  0  0  0  0  0  0  0
  -20.9404  -29.2121   22.3583 N   0  0  0  0  0  0  0  0  0  0  0  0
  -29.3754  -23.5783   22.4677 N   0  0  0  0  0  0  0  0  0  0  0  0
  -19.4845  -27.2529   19.6918 N   0  3  0  0  0  0  0  0  0  0  0  0
  -22.4994  -13.9769   22.5914 O   0  0  0  0  0  0  0  0  0  0  0  0
  -26.3123  -30.9140   23.1298 O   0  0  0  0  0  0  0  0  0  0  0  0
  -22.3272  -31.7191   22.3795 O   0  0  0  0  0  0  0  0  0  0  0  0
  -30.1022  -24.2316   20.3351 O   0  0  0  0  0  0  0  0  0  0  0  0
  -21.5426  -27.1034   21.6046 O   0  0  0  0  0  0  0  0  0  0  0  0
  -29.9420  -17.3504   18.2224 O   0  0  0  0  0  0  0  0  0  0  0  0
  -31.8401  -22.8518   22.2026 O   0  0  0  0  0  0  0  0  0  0  0  0
  -30.5736  -22.1703   24.2692 O   0  0  0  0  0  0  0  0  0  0  0  0
  -24.6559   -6.5227   23.2006 O   0  0  0  0  0  0  0  0  0  0  0  0
  -28.0486  -25.9493   19.9640 O   0  0  0  0  0  0  0  0  0  1  0  0
  -19.6296   -4.2567   23.2722 F   0  0  0  0  0  0  0  0  0  0  0  0
  -28.0199  -21.0428   23.3378 F   0  0  0  0  0  0  0  0  0  0  0  0
  -31.9555  -20.9058   20.6811 F   0  0  0  0  0  0  0  0  0  0  0  0
  -24.1206   -4.2140   21.7773 F   0  0  0  0  0  0  0  0  0  0  0  0
  -30.6043  -22.4507   22.8467 S   0  0  0  0  0  0  0  0  0  0  0  0
  1  2  1  0  0  0  0
  1  5  2  0  0  0  0
  2  6  2  0  0  0  0
  3  8  2  0  0  0  0
  3 17  1  0  0  0  0
  4  9  1  0  0  0  0
  4 17  2  0  0  0  0
  5 19  1  0  0  0  0
  6 21  1  0  0  0  0
  7 10  2  0  0  0  0
  7 20  1  0  0  0  0
  8 24  1  0  0  0  0
  9 24  2  0  0  0  0
 10 25  1  0  0  0  0
 11 12  2  0  0  0  0
 11 26  1  0  0  0  0
 12 27  1  0  0  0  0
 13 22  1  0  0  0  0
 13 25  2  0  0  0  0
 14 23  1  0  0  0  0
 14 28  2  0  0  0  0
 15 23  2  0  0  0  0
 15 29  1  0  0  0  0
 16 27  2  0  0  0  0
 16 30  1  0  0  0  0
 17 32  1  0  0  0  0
 18 32  1  0  0  0  0
 18 33  2  0  0  0  0
 18 34  1  0  0  0  0
 19 21  2  0  0  0  0
 19 40  1  0  0  0  0
 20 22  2  0  0  0  0
 20 41  1  0  0  0  0
 21 49  1  0  0  0  0
 22 42  1  0  0  0  0
 23 67  1  0  0  0  0
 24 80  1  0  0  0  0
 25 81  1  0  0  0  0
 26 30  2  0  0  0  0
 26 80  1  0  0  0  0
 27 82  1  0  0  0  0
 28 31  1  0  0  0  0
 28 83  1  0  0  0  0
 29 31  2  0  0  0  0
 29 84  1  0  0  0  0
 30 85  1  0  0  0  0
 31 86  1  0  0  0  0
 32 61  2  0  0  0  0
 33 62  1  0  0  0  0
 33 65  1  0  0  0  0
 34 66  1  0  0  0  0
 34 72  2  0  0  0  0
 35 50  1  0  0  0  0
 35 68  1  0  0  0  0
 35 73  2  0  0  0  0
 36 58  1  0  0  0  0
 36 63  1  0  0  0  0
 36 74  2  0  0  0  0
 37 57  1  0  0  0  0
 37 70  1  0  0  0  0
 37 75  2  0  0  0  0
 38 59  1  0  0  0  0
 38 69  1  0  0  0  0
 38 76  2  0  0  0  0
 39 64  1  0  0  0  0
 39 67  1  0  0  0  0
 39 77  2  0  0  0  0
 40 43  1  0  0  0  0
 41 50  1  0  0  0  0
 42 63  1  0  0  0  0
 43 45  1  0  0  0  0
 44 46  1  0  0  0  0
 44 47  1  0  0  0  0
 45 49  1  0  0  0  0
 46 51  1  0  0  0  0
 47 64  1  0  0  0  0
 48 51  1  0  0  0  0
 48 64  1  0  0  0  0
 49 68  1  0  0  0  0
 50 63  1  0  0  0  0
 51 62  1  0  0  0  0
 52 59  1  0  0  0  0
 53 60  1  0  0  0  0
 54 60  1  0  0  0  0
 55 60  1  0  0  0  0
 56 71  1  0  0  0  0
 57 81  1  0  0  0  0
 58 60  1  0  0  0  0
 58 69  1  0  0  0  0
 59 71  1  0  0  0  0
 61 62  1  0  0  0  0
 70 86  1  0  0  0  0
 78 86  2  0  0  0  0
 79 86  2  0  0  0  0
M  CHG  1  71   1
M  ISO  4  39 100  57 101  67 100  81 101
M  END
> <Batch ID>
0073

> <Smiles>
CNC(C)C(=O)NC(C(=O)N1Cc2cc([101O:1][101CH2:1]C(=O)NS(=O)(=O)c3c(F)cc([100NH:0][100C:0](=O)N4CCCC(n5nc(-c6ccc(Oc7ccc(F)cc7F)cc6)c(C(N)=O)c5N)C4)cc3F)ccc2CC1C(=O)NC1CCCc2ccccc21)C(C)(C)C

> <Shape>
0.314

> <Color>
0.115

> <Negative vol penalty>
0.000

$$$$

  -OEChem-04042323413D

 86 95  0     1  0  0  0  0  0999 V2000
  -26.2828  -37.2852   21.1739 C   0  0  0  0  0  0  0  0  0  0  0  0
  -26.9564  -36.0926   20.9306 C   0  0  0  0  0  0  0  0  0  0  0  0
  -24.7372   -9.4228   21.8479 C   0  0  0  0  0  0  0  0  0  0  0  0
  -23.3302  -11.3076   22.4000 C   0  0  0  0  0  0  0  0  0  0  0  0
  -25.1912  -37.3036   22.0411 C   0  0  0  0  0  0  0  0  0  0  0  0
  -26.5395  -34.9177   21.5553 C   0  0  0  0  0  0  0  0  0  0  0  0
  -26.6872  -29.2564   19.2241 C   0  0  0  0  0  0  0  0  0  0  0  0
  -24.0344   -8.6319   22.7568 C   0  0  0  0  0  0  0  0  0  0  0  0
  -22.6274  -10.5167   23.3089 C   0  0  0  0  0  0  0  0  0  0  0  0
  -27.5872  -28.2026   19.3762 C   0  0  0  0  0  0  0  0  0  0  0  0
  -22.3784   -6.0203   24.6679 C   0  0  0  0  0  0  0  0  0  0  0  0
  -22.0045   -4.7400   24.2599 C   0  0  0  0  0  0  0  0  0  0  0  0
  -26.1843  -27.2610   21.0980 C   0  0  0  0  0  0  0  0  0  0  0  0
  -26.5683  -18.8323   17.1338 C   0  0  0  0  0  0  0  0  0  0  0  0
  -28.2772  -19.8725   18.4883 C   0  0  0  0  0  0  0  0  0  0  0  0
  -20.7150   -5.6926   22.4524 C   0  0  0  0  0  0  0  0  0  0  0  0
  -24.3852  -10.7607   21.6695 C   0  0  0  0  0  0  0  0  0  0  0  0
  -24.8239  -11.7643   19.3656 C   0  0  0  0  0  0  0  0  0  0  0  0
  -24.7547  -36.1265   22.6692 C   0  0  0  0  0  0  0  0  0  0  0  0
  -25.5325  -29.3264   20.0167 C   0  0  0  0  0  0  0  0  0  0  0  0
  -25.4419  -34.9205   22.4327 C   0  0  0  0  0  0  0  0  0  0  0  0
  -25.2699  -28.3155   20.9522 C   0  0  0  0  0  0  0  0  0  0  0  0
  -26.2306  -20.0774   16.6036 C   0  0  0  0  0  0  0  0  0  0  0  0
  -26.9163  -21.2201   17.0157 C   0  0  0  0  0  0  0  0  0  0  0  0
  -27.9396  -21.1177   17.9580 C   0  0  0  0  0  0  0  0  0  0  0  0
  -27.5915  -18.7298   18.0762 C   0  0  0  0  0  0  0  0  0  0  0  0
  -22.9795   -9.1788   23.4873 C   0  0  0  0  0  0  0  0  0  0  0  0
  -27.3373  -27.2062   20.3153 C   0  0  0  0  0  0  0  0  0  0  0  0
  -21.9206   -7.1368   23.9682 C   0  0  0  0  0  0  0  0  0  0  0  0
  -21.1728   -4.5761   23.1521 C   0  0  0  0  0  0  0  0  0  0  0  0
  -21.0889   -6.9729   22.8605 C   0  0  0  0  0  0  0  0  0  0  0  0
  -25.1111  -11.5784   20.7312 C   0  0  0  0  0  0  0  0  0  0  0  0
  -25.8000  -12.6235   18.9234 C   0  0  0  0  0  0  0  0  0  0  0  0
  -28.1091  -23.4091   19.0301 C   0  0  0  0  0  0  0  0  0  0  0  0
  -23.7692  -11.2099   18.5683 C   0  0  0  0  0  0  0  0  0  0  0  0
  -24.4046  -31.3846   22.1604 C   0  0  0  0  0  0  0  0  0  0  0  0
  -21.7922  -29.4647   22.0535 C   0  0  0  0  0  0  0  0  0  0  0  0
  -20.4859  -26.3846   21.3799 C   0  0  0  0  0  0  0  0  0  0  0  0
  -28.9233  -17.1890   19.5590 C   0  0  0  0  0  0  0  0  0  0  0  0
  -23.5991  -36.2047   23.6352 C   0  0  0  0  0  0  0  0  0  0  0  0
  -24.5581  -30.4556   19.8217 C   0  0  0  0  0  0  0  0  0  0  0  0
  -24.0346  -28.3335   21.8136 C   0  0  0  0  0  0  0  0  0  0  0  0
  -22.9889  -34.8452   23.9664 C   0  0  0  0  0  0  0  0  0  0  0  0
  -30.0482  -14.2179   21.1667 C   0  0  0  0  0  0  0  0  0  0  0  0
  -24.0840  -33.8309   24.2806 C   0  0  0  0  0  0  0  0  0  0  0  0
  -28.8404  -13.2816   21.0844 C   0  0  0  0  0  0  0  0  0  0  0  0
  -30.3754  -23.8598   18.4602 C   0  0  0  0  0  0  0  0  0  0  0  0
  -29.6268  -15.6685   21.3943 C   0  0  0  0  0  0  0  0  0  0  0  0
  -30.0948  -22.3825   18.2707 C   0  0  0  0  0  0  0  0  0  0  0  0
  -27.4328  -15.2498   20.3550 C   0  0  0  0  0  0  0  0  0  0  0  0
  -25.0044  -33.6206   23.0722 C   0  0  1  0  0  0  0  0  0  0  0  0
  -29.2775  -24.3014   19.4169 C   0  0  1  0  0  0  0  0  0  0  0  0
  -23.6738  -30.6989   21.0408 C   0  0  1  0  0  0  0  0  0  0  0  0
  -27.8042  -13.7871   20.0614 C   0  0  2  0  0  0  0  0  0  0  0  0
  -25.1312  -20.1595   15.5953 C   0  0  0  0  0  0  0  0  0  0  0  0
  -26.5500  -22.5538   16.4433 C   0  0  0  0  0  0  0  0  0  0  0  0
  -18.3256  -25.1084   21.4242 C   0  0  0  0  0  0  0  0  0  0  0  0
  -21.9978  -29.2265   25.0885 C   0  0  0  0  0  0  0  0  0  0  0  0
  -20.4684  -27.2480   24.9671 C   0  0  0  0  0  0  0  0  0  0  0  0
  -19.6680  -29.4888   24.2182 C   0  0  0  0  0  0  0  0  0  0  0  0
  -20.5808  -25.8955   18.4626 C   0  0  0  0  0  0  0  0  0  0  0  0
  -28.9552  -25.7803   19.3129 C   0  0  0  0  0  0  0  0  0  1  0  0
  -21.3403  -28.2318   22.7985 C   0  0  1  0  0  0  0  0  0  0  0  0
  -19.2646  -25.9605   20.5844 C   0  0  2  0  0  0  0  0  0  0  0  0
  -20.8930  -28.5492   24.2533 C   0  0  0  0  0  0  0  0  0  0  0  0
  -26.1856  -12.2642   21.1302 N   0  0  0  0  0  0  0  0  0  0  0  0
  -26.5822  -12.8894   20.0086 N   0  0  0  0  0  0  0  0  0  0  0  0
  -28.6531  -22.2739   18.3947 N   0  0  0  0  0  0  0  0  0  0  0  0
  -23.1154  -29.4617   21.5900 N   0  0  0  0  0  0  0  0  0  0  0  0
  -28.6477  -16.0792   20.3856 N   0  0  0  0  0  0  0  0  0  0  0  0
  -26.0569  -13.1699   17.7160 N   0  0  0  0  0  0  0  0  0  0  0  0
  -22.8523  -10.3450   19.1811 N   0  0  0  0  0  0  0  0  0  0  0  0
  -27.9341  -17.4651   18.6157 N   0  0  0  0  0  0  0  0  0  0  0  0
  -24.3674  -32.7644   22.0946 N   0  0  0  0  0  0  0  0  0  0  0  0
  -20.3052  -27.6146   21.9763 N   0  0  0  0  0  0  0  0  0  0  0  0
  -19.6738  -25.1702   19.3890 N   0  3  0  0  0  0  0  0  0  0  0  0
  -26.9477  -23.6676   19.3110 O   0  0  0  0  0  0  0  0  0  0  0  0
  -23.6531  -11.4608   17.3447 O   0  0  0  0  0  0  0  0  0  0  0  0
  -24.9598  -30.7117   23.0210 O   0  0  0  0  0  0  0  0  0  0  0  0
  -20.9981  -30.3931   21.8828 O   0  0  0  0  0  0  0  0  0  0  0  0
  -21.4976  -25.6922   21.4669 O   0  0  0  0  0  0  0  0  0  0  0  0
  -29.9728  -17.8294   19.6611 O   0  0  0  0  0  0  0  0  0  0  0  0
  -22.2934   -8.4072   24.3741 O   0  0  0  0  0  0  0  0  0  0  0  0
  -28.2144  -26.1768   20.4663 O   0  0  0  0  0  0  0  0  0  1  0  0
  -20.8151   -3.3464   22.7595 F   0  0  0  0  0  0  0  0  0  0  0  0
  -20.6469   -8.0417   22.1837 F   0  0  0  0  0  0  0  0  0  0  0  0
  1  2  1  0  0  0  0
  1  5  2  0  0  0  0
  2  6  2  0  0  0  0
  3  8  2  0  0  0  0
  3 17  1  0  0  0  0
  4  9  1  0  0  0  0
  4 17  2  0  0  0  0
  5 19  1  0  0  0  0
  6 21  1  0  0  0  0
  7 10  2  0  0  0  0
  7 20  1  0  0  0  0
  8 27  1  0  0  0  0
  9 27  2  0  0  0  0
 10 28  1  0  0  0  0
 11 12  2  0  0  0  0
 11 29  1  0  0  0  0
 12 30  1  0  0  0  0
 13 22  1  0  0  0  0
 13 28  2  0  0  0  0
 14 23  2  0  0  0  0
 14 26  1  0  0  0  0
 15 25  1  0  0  0  0
 15 26  2  0  0  0  0
 16 30  2  0  0  0  0
 16 31  1  0  0  0  0
 17 32  1  0  0  0  0
 18 32  1  0  0  0  0
 18 33  2  0  0  0  0
 18 35  1  0  0  0  0
 19 21  2  0  0  0  0
 19 40  1  0  0  0  0
 20 22  2  0  0  0  0
 20 41  1  0  0  0  0
 21 51  1  0  0  0  0
 22 42  1  0  0  0  0
 23 24  1  0  0  0  0
 23 55  1  0  0  0  0
 24 25  2  0  0  0  0
 24 56  1  0  0  0  0
 25 68  1  0  0  0  0
 26 73  1  0  0  0  0
 27 83  1  0  0  0  0
 28 84  1  0  0  0  0
 29 31  2  0  0  0  0
 29 83  1  0  0  0  0
 30 85  1  0  0  0  0
 31 86  1  0  0  0  0
 32 66  2  0  0  0  0
 33 67  1  0  0  0  0
 33 71  1  0  0  0  0
 34 52  1  0  0  0  0
 34 68  1  0  0  0  0
 34 77  2  0  0  0  0
 35 72  1  0  0  0  0
 35 78  2  0  0  0  0
 36 53  1  0  0  0  0
 36 74  1  0  0  0  0
 36 79  2  0  0  0  0
 37 63  1  0  0  0  0
 37 69  1  0  0  0  0
 37 80  2  0  0  0  0
 38 64  1  0  0  0  0
 38 75  1  0  0  0  0
 38 81  2  0  0  0  0
 39 70  1  0  0  0  0
 39 73  1  0  0  0  0
 39 82  2  0  0  0  0
 40 43  1  0  0  0  0
 41 53  1  0  0  0  0
 42 69  1  0  0  0  0
 43 45  1  0  0  0  0
 44 46  1  0  0  0  0
 44 48  1  0  0  0  0
 45 51  1  0  0  0  0
 46 54  1  0  0  0  0
 47 49  1  0  0  0  0
 47 52  1  0  0  0  0
 48 70  1  0  0  0  0
 49 68  1  0  0  0  0
 50 54  1  0  0  0  0
 50 70  1  0  0  0  0
 51 74  1  0  0  0  0
 52 62  1  0  0  0  0
 53 69  1  0  0  0  0
 54 67  1  0  0  0  0
 57 64  1  0  0  0  0
 58 65  1  0  0  0  0
 59 65  1  0  0  0  0
 60 65  1  0  0  0  0
 61 76  1  0  0  0  0
 62 84  1  0  0  0  0
 63 65  1  0  0  0  0
 63 75  1  0  0  0  0
 64 76  1  0  0  0  0
 66 67  1  0  0  0  0
M  CHG  1  76   1
M  ISO  4  39 100  62 101  73 100  84 101
M  END
> <Batch ID>
0073

> <Smiles>
CNC(C)C(=O)NC(C(=O)N1Cc2cc([101O:1][101CH2:1]C3CCN(c4cc([100NH:0][100C:0](=O)N5CCCC(n6nc(-c7ccc(Oc8ccc(F)cc8F)cc7)c(C(N)=O)c6N)C5)cc(C)c4C)C3=O)ccc2CC1C(=O)NC1CCCc2ccccc21)C(C)(C)C

> <Shape>
0.334

> <Color>
0.086

> <Negative vol penalty>
0.000

$$$$

  -OEChem-04042323413D

 87 96  0     1  0  0  0  0  0999 V2000
  -26.1031  -36.6806   25.3216 C   0  0  0  0  0  0  0  0  0  0  0  0
  -26.7202  -35.4725   25.0132 C   0  0  0  0  0  0  0  0  0  0  0  0
  -25.8206  -13.6483   21.5455 C   0  0  0  0  0  0  0  0  0  0  0  0
  -24.4723  -13.0852   19.6214 C   0  0  0  0  0  0  0  0  0  0  0  0
  -24.7151  -36.7436   25.4373 C   0  0  0  0  0  0  0  0  0  0  0  0
  -25.9495  -34.3263   24.8214 C   0  0  0  0  0  0  0  0  0  0  0  0
  -27.3970  -31.6691   20.7607 C   0  0  0  0  0  0  0  0  0  0  0  0
  -25.9567  -12.2932   21.8467 C   0  0  0  0  0  0  0  0  0  0  0  0
  -24.6084  -11.7301   19.9227 C   0  0  0  0  0  0  0  0  0  0  0  0
  -28.5343  -30.8736   20.8926 C   0  0  0  0  0  0  0  0  0  0  0  0
  -23.2539   -9.5100   22.0831 C   0  0  0  0  0  0  0  0  0  0  0  0
  -22.1097   -8.7146   22.0226 C   0  0  0  0  0  0  0  0  0  0  0  0
  -27.1342  -28.9339   21.2033 C   0  0  0  0  0  0  0  0  0  0  0  0
  -28.6394  -24.2064   20.4458 C   0  0  0  0  0  0  0  0  0  0  0  0
  -28.9782  -23.3304   17.8189 C   0  0  0  0  0  0  0  0  0  0  0  0
  -23.1533   -7.3421   20.3302 C   0  0  0  0  0  0  0  0  0  0  0  0
  -25.0784  -14.0443   20.4328 C   0  0  0  0  0  0  0  0  0  0  0  0
  -24.3657  -16.4421   20.9334 C   0  0  0  0  0  0  0  0  0  0  0  0
  -23.9264  -35.5996   25.2373 C   0  0  0  0  0  0  0  0  0  0  0  0
  -26.1175  -31.1038   20.8601 C   0  0  0  0  0  0  0  0  0  0  0  0
  -24.5498  -34.3737   24.9359 C   0  0  0  0  0  0  0  0  0  0  0  0
  -25.9823  -29.7240   21.0697 C   0  0  0  0  0  0  0  0  0  0  0  0
  -29.5423  -24.8568   19.6048 C   0  0  0  0  0  0  0  0  0  0  0  0
  -28.0753  -22.6801   18.6601 C   0  0  0  0  0  0  0  0  0  0  0  0
  -25.3506  -11.3341   21.0353 C   0  0  0  0  0  0  0  0  0  0  0  0
  -28.4031  -29.5063   21.1168 C   0  0  0  0  0  0  0  0  0  0  0  0
  -24.3478   -9.2215   21.2671 C   0  0  0  0  0  0  0  0  0  0  0  0
  -22.0594   -7.6306   21.1462 C   0  0  0  0  0  0  0  0  0  0  0  0
  -27.9059  -23.1180   19.9735 C   0  0  0  0  0  0  0  0  0  0  0  0
  -29.7117  -24.4188   18.2913 C   0  0  0  0  0  0  0  0  0  0  0  0
  -24.2975   -8.1376   20.3907 C   0  0  0  0  0  0  0  0  0  0  0  0
  -24.9370  -15.4440   20.1214 C   0  0  0  0  0  0  0  0  0  0  0  0
  -24.4717  -17.5920   20.1898 C   0  0  0  0  0  0  0  0  0  0  0  0
  -30.6996  -26.9617   19.3319 C   0  0  0  0  0  0  0  0  0  0  0  0
  -23.7908  -16.3390   22.2428 C   0  0  0  0  0  0  0  0  0  0  0  0
  -23.6433  -31.4840   22.8191 C   0  0  0  0  0  0  0  0  0  0  0  0
  -22.1805  -29.4788   20.7306 C   0  0  0  0  0  0  0  0  0  0  0  0
  -23.0421  -26.4839   18.9125 C   0  0  0  0  0  0  0  0  0  0  0  0
  -27.3819  -21.0152   16.9011 C   0  0  0  0  0  0  0  0  0  0  0  0
  -22.4331  -35.7066   25.4196 C   0  0  0  0  0  0  0  0  0  0  0  0
  -24.9007  -31.9712   20.6889 C   0  0  0  0  0  0  0  0  0  0  0  0
  -24.6313  -29.0650   21.1642 C   0  0  0  0  0  0  0  0  0  0  0  0
  -21.6618  -34.5274   24.8322 C   0  0  0  0  0  0  0  0  0  0  0  0
  -25.7390  -18.2712   15.3365 C   0  0  0  0  0  0  0  0  0  0  0  0
  -22.3139  -33.2088   25.2356 C   0  0  0  0  0  0  0  0  0  0  0  0
  -25.3369  -17.3731   16.5086 C   0  0  0  0  0  0  0  0  0  0  0  0
  -31.7916  -27.0436   21.4367 C   0  0  0  0  0  0  0  0  0  0  0  0
  -27.0942  -18.9364   15.5705 C   0  0  0  0  0  0  0  0  0  0  0  0
  -30.6053  -26.0921   21.4952 C   0  0  0  0  0  0  0  0  0  0  0  0
  -26.8156  -18.7657   18.0123 C   0  0  0  0  0  0  0  0  0  0  0  0
  -23.7462  -33.1139   24.6962 C   0  0  1  0  0  0  0  0  0  0  0  0
  -23.6472  -31.3736   21.3206 C   0  0  1  0  0  0  0  0  0  0  0  0
  -25.4275  -18.1246   17.8512 C   0  0  2  0  0  0  0  0  0  0  0  0
  -31.5107  -27.8984   20.1844 C   0  0  1  0  0  0  0  0  0  0  0  0
  -32.8290  -28.3086   19.5240 C   0  0  0  0  0  0  0  0  0  0  0  0
  -22.1540  -25.5771   16.7477 C   0  0  0  0  0  0  0  0  0  0  0  0
  -20.2841  -27.8840   22.5112 C   0  0  0  0  0  0  0  0  0  0  0  0
  -20.5463  -25.9518   20.9408 C   0  0  0  0  0  0  0  0  0  0  0  0
  -19.5520  -28.0906   20.1288 C   0  0  0  0  0  0  0  0  0  0  0  0
  -25.7496  -26.3471   17.7251 C   0  0  0  0  0  0  0  0  0  0  0  0
  -30.6800  -29.1378   20.5375 C   0  0  0  0  0  0  0  0  0  1  0  0
  -22.0311  -27.9812   20.6126 C   0  0  1  0  0  0  0  0  0  0  0  0
  -23.2710  -26.3630   17.4167 C   0  0  2  0  0  0  0  0  0  0  0  0
  -20.6261  -27.4887   21.0608 C   0  0  0  0  0  0  0  0  0  0  0  0
  -25.3733  -15.9183   18.9514 N   0  0  0  0  0  0  0  0  0  0  0  0
  -25.0760  -17.2270   19.0229 N   0  0  0  0  0  0  0  0  0  0  0  0
  -30.2642  -25.9290   20.0719 N   0  0  0  0  0  0  0  0  0  0  0  0
  -23.4716  -29.9564   20.9964 N   0  0  0  0  0  0  0  0  0  0  0  0
  -27.1045  -19.6324   16.8590 N   0  0  0  0  0  0  0  0  0  0  0  0
  -24.1057  -18.8697   20.4267 N   0  0  0  0  0  0  0  0  0  0  0  0
  -22.4200  -16.0679   22.3512 N   0  0  0  0  0  0  0  0  0  0  0  0
  -27.3316  -21.5747   18.1774 N   0  0  0  0  0  0  0  0  0  0  0  0
  -23.7348  -32.7806   23.2879 N   0  0  0  0  0  0  0  0  0  0  0  0
  -22.3708  -27.6445   19.2343 N   0  0  0  0  0  0  0  0  0  0  0  0
  -30.4944  -27.2823   18.0590 N   0  3  0  0  0  0  0  0  0  0  0  0
  -24.5618  -25.6696   17.1446 N   0  3  0  0  0  0  0  0  0  0  0  0
  -24.4693  -16.4992   23.2856 O   0  0  0  0  0  0  0  0  0  0  0  0
  -23.5618  -30.4681   23.4995 O   0  0  0  0  0  0  0  0  0  0  0  0
  -21.1895  -30.1987   20.5850 O   0  0  0  0  0  0  0  0  0  0  0  0
  -23.4178  -25.6320   19.7149 O   0  0  0  0  0  0  0  0  0  0  0  0
  -27.6180  -21.6612   15.8770 O   0  0  0  0  0  0  0  0  0  0  0  0
  -25.4833  -10.0117   21.3289 O   0  0  0  0  0  0  0  0  0  0  0  0
  -29.5116  -28.7276   21.2466 O   0  0  0  0  0  0  0  0  0  1  0  0
  -20.9611   -6.8660   21.0893 F   0  0  0  0  0  0  0  0  0  0  0  0
  -27.0410  -22.5005   20.7909 F   0  0  0  0  0  0  0  0  0  0  0  0
  -30.5773  -25.0384   17.4769 F   0  0  0  0  0  0  0  0  0  0  0  0
  -25.3457   -7.8548   19.6052 F   0  0  0  0  0  0  0  0  0  0  0  0
  1  2  1  0  0  0  0
  1  5  2  0  0  0  0
  2  6  2  0  0  0  0
  3  8  2  0  0  0  0
  3 17  1  0  0  0  0
  4  9  1  0  0  0  0
  4 17  2  0  0  0  0
  5 19  1  0  0  0  0
  6 21  1  0  0  0  0
  7 10  2  0  0  0  0
  7 20  1  0  0  0  0
  8 25  1  0  0  0  0
  9 25  2  0  0  0  0
 10 26  1  0  0  0  0
 11 12  2  0  0  0  0
 11 27  1  0  0  0  0
 12 28  1  0  0  0  0
 13 22  1  0  0  0  0
 13 26  2  0  0  0  0
 14 23  1  0  0  0  0
 14 29  2  0  0  0  0
 15 24  2  0  0  0  0
 15 30  1  0  0  0  0
 16 28  2  0  0  0  0
 16 31  1  0  0  0  0
 17 32  1  0  0  0  0
 18 32  1  0  0  0  0
 18 33  2  0  0  0  0
 18 35  1  0  0  0  0
 19 21  2  0  0  0  0
 19 40  1  0  0  0  0
 20 22  2  0  0  0  0
 20 41  1  0  0  0  0
 21 51  1  0  0  0  0
 22 42  1  0  0  0  0
 23 30  2  0  0  0  0
 23 67  1  0  0  0  0
 24 29  1  0  0  0  0
 24 72  1  0  0  0  0
 25 82  1  0  0  0  0
 26 83  1  0  0  0  0
 27 31  2  0  0  0  0
 27 82  1  0  0  0  0
 28 84  1  0  0  0  0
 29 85  1  0  0  0  0
 30 86  1  0  0  0  0
 31 87  1  0  0  0  0
 32 65  2  0  0  0  0
 33 66  1  0  0  0  0
 33 70  1  0  0  0  0
 34 54  1  0  0  0  0
 34 67  1  0  0  0  0
 34 75  2  0  0  0  0
 35 71  1  0  0  0  0
 35 77  2  0  0  0  0
 36 52  1  0  0  0  0
 36 73  1  0  0  0  0
 36 78  2  0  0  0  0
 37 62  1  0  0  0  0
 37 68  1  0  0  0  0
 37 79  2  0  0  0  0
 38 63  1  0  0  0  0
 38 74  1  0  0  0  0
 38 80  2  0  0  0  0
 39 69  1  0  0  0  0
 39 72  1  0  0  0  0
 39 81  2  0  0  0  0
 40 43  1  0  0  0  0
 41 52  1  0  0  0  0
 42 68  1  0  0  0  0
 43 45  1  0  0  0  0
 44 46  1  0  0  0  0
 44 48  1  0  0  0  0
 45 51  1  0  0  0  0
 46 53  1  0  0  0  0
 47 49  1  0  0  0  0
 47 54  1  0  0  0  0
 48 69  1  0  0  0  0
 49 67  1  0  0  0  0
 50 53  1  0  0  0  0
 50 69  1  0  0  0  0
 51 73  1  0  0  0  0
 52 68  1  0  0  0  0
 53 66  1  0  0  0  0
 54 55  1  0  0  0  0
 54 61  1  0  0  0  0
 56 63  1  0  0  0  0
 57 64  1  0  0  0  0
 58 64  1  0  0  0  0
 59 64  1  0  0  0  0
 60 76  1  0  0  0  0
 61 83  1  0  0  0  0
 62 64  1  0  0  0  0
 62 74  1  0  0  0  0
 63 76  1  0  0  0  0
 65 66  1  0  0  0  0
M  CHG  2  75   1  76   1
M  ISO  4  39 100  61 101  72 100  83 101
M  END
> <Batch ID>
0073

> <Smiles>
CNC(C)C(=O)NC(C(=O)N1Cc2cc([101O:1][101CH2:1]C3(C)CCN(c4cc(F)c([100NH:0][100C:0](=O)N5CCCC(n6nc(-c7ccc(Oc8ccc(F)cc8F)cc7)c(C(N)=O)c6N)C5)cc4F)C3=N)ccc2CC1C(=O)NC1CCCc2ccccc21)C(C)(C)C

> <Shape>
0.258

> <Color>
0.048

> <Negative vol penalty>
0.000

$$$$

  -OEChem-04042323413D

 89 98  0     1  0  0  0  0  0999 V2000
  -26.7684  -37.6801   19.2354 C   0  0  0  0  0  0  0  0  0  0  0  0
  -27.3606  -36.4330   19.0636 C   0  0  0  0  0  0  0  0  0  0  0  0
  -24.9286   -9.4346   20.9488 C   0  0  0  0  0  0  0  0  0  0  0  0
  -25.1540  -10.4379   23.1351 C   0  0  0  0  0  0  0  0  0  0  0  0
  -25.9045  -37.8985   20.3077 C   0  0  0  0  0  0  0  0  0  0  0  0
  -27.0899  -35.4038   19.9647 C   0  0  0  0  0  0  0  0  0  0  0  0
  -26.6626  -29.4258   18.7054 C   0  0  0  0  0  0  0  0  0  0  0  0
  -28.9652  -18.8518   24.8530 C   0  0  0  0  0  0  0  0  0  0  0  0
  -28.9913  -17.6906   24.0807 C   0  0  0  0  0  0  0  0  0  0  0  0
  -24.9330   -8.1667   21.5302 C   0  0  0  0  0  0  0  0  0  0  0  0
  -25.1583   -9.1700   23.7165 C   0  0  0  0  0  0  0  0  0  0  0  0
  -27.5665  -28.3725   18.8371 C   0  0  0  0  0  0  0  0  0  0  0  0
  -22.7502   -6.1693   23.1669 C   0  0  0  0  0  0  0  0  0  0  0  0
  -21.7999   -5.2496   22.7235 C   0  0  0  0  0  0  0  0  0  0  0  0
  -26.5887  -27.8078   20.9688 C   0  0  0  0  0  0  0  0  0  0  0  0
  -29.7752  -18.9685   22.1860 C   0  0  0  0  0  0  0  0  0  0  0  0
  -23.5684   -3.7582   22.0269 C   0  0  0  0  0  0  0  0  0  0  0  0
  -25.0391  -10.5702   21.7513 C   0  0  0  0  0  0  0  0  0  0  0  0
  -23.9157  -12.6939   20.8935 C   0  0  0  0  0  0  0  0  0  0  0  0
  -25.6155  -36.8687   21.2169 C   0  0  0  0  0  0  0  0  0  0  0  0
  -25.7205  -29.6851   19.7112 C   0  0  0  0  0  0  0  0  0  0  0  0
  -26.2223  -35.6090   21.0509 C   0  0  0  0  0  0  0  0  0  0  0  0
  -25.6723  -28.8634   20.8464 C   0  0  0  0  0  0  0  0  0  0  0  0
  -29.3440  -20.0714   24.2919 C   0  0  0  0  0  0  0  0  0  0  0  0
  -29.3963  -17.7489   22.7472 C   0  0  0  0  0  0  0  0  0  0  0  0
  -29.7490  -20.1297   22.9584 C   0  0  0  0  0  0  0  0  0  0  0  0
  -25.0478   -8.0344   22.9140 C   0  0  0  0  0  0  0  0  0  0  0  0
  -27.5316  -27.5651   19.9702 C   0  0  0  0  0  0  0  0  0  0  0  0
  -24.1096   -5.8835   23.0402 C   0  0  0  0  0  0  0  0  0  0  0  0
  -22.2090   -4.0440   22.1535 C   0  0  0  0  0  0  0  0  0  0  0  0
  -24.5187   -4.6779   22.4703 C   0  0  0  0  0  0  0  0  0  0  0  0
  -25.0353  -11.8802   21.1513 C   0  0  0  0  0  0  0  0  0  0  0  0
  -24.4394  -13.8270   20.3205 C   0  0  0  0  0  0  0  0  0  0  0  0
  -29.4389  -23.8845   19.5764 C   0  0  0  0  0  0  0  0  0  0  0  0
  -22.5266  -12.4475   21.1492 C   0  0  0  0  0  0  0  0  0  0  0  0
  -25.1268  -32.1317   21.6517 C   0  0  0  0  0  0  0  0  0  0  0  0
  -22.5466  -30.3471   22.4764 C   0  0  0  0  0  0  0  0  0  0  0  0
  -21.1005  -27.2621   22.6719 C   0  0  0  0  0  0  0  0  0  0  0  0
  -29.5716  -21.9631   21.2351 C   0  0  0  0  0  0  0  0  0  0  0  0
  -29.7985  -16.4524   20.6250 C   0  0  0  0  0  0  0  0  0  0  0  0
  -24.7123  -37.1660   22.3875 C   0  0  0  0  0  0  0  0  0  0  0  0
  -24.7348  -30.8086   19.5418 C   0  0  0  0  0  0  0  0  0  0  0  0
  -24.6670  -29.0872   21.9454 C   0  0  0  0  0  0  0  0  0  0  0  0
  -24.1851  -35.9139   23.0836 C   0  0  0  0  0  0  0  0  0  0  0  0
  -28.1471  -15.3181   17.6816 C   0  0  0  0  0  0  0  0  0  0  0  0
  -25.3162  -34.9181   23.3197 C   0  0  0  0  0  0  0  0  0  0  0  0
  -27.0559  -14.3866   18.2142 C   0  0  0  0  0  0  0  0  0  0  0  0
  -30.9150  -25.3419   20.7623 C   0  0  0  0  0  0  0  0  0  0  0  0
  -29.4316  -15.2142   18.5019 C   0  0  0  0  0  0  0  0  0  0  0  0
  -31.1136  -23.9284   21.2902 C   0  0  0  0  0  0  0  0  0  0  0  0
  -28.1697  -14.4669   20.4814 C   0  0  0  0  0  0  0  0  0  0  0  0
  -25.9342  -34.4603   21.9930 C   0  0  1  0  0  0  0  0  0  0  0  0
  -24.1547  -31.2991   20.8648 C   0  0  1  0  0  0  0  0  0  0  0  0
  -26.8353  -14.5840   19.7268 C   0  0  2  0  0  0  0  0  0  0  0  0
  -30.2494  -25.1602   19.3825 C   0  0  1  0  0  0  0  0  0  0  0  0
  -29.3093  -21.3034   25.1347 C   0  0  0  0  0  0  0  0  0  0  0  0
  -31.2837  -24.9283   18.2790 C   0  0  0  0  0  0  0  0  0  0  0  0
  -18.9993  -26.1157   23.4255 C   0  0  0  0  0  0  0  0  0  0  0  0
  -23.4399  -30.6244   25.3808 C   0  0  0  0  0  0  0  0  0  0  0  0
  -21.9102  -28.7287   25.9593 C   0  0  0  0  0  0  0  0  0  0  0  0
  -20.9745  -30.8427   25.0222 C   0  0  0  0  0  0  0  0  0  0  0  0
  -20.5219  -26.2753   19.9423 C   0  0  0  0  0  0  0  0  0  0  0  0
  -29.3468  -26.3422   19.0401 C   0  0  0  0  0  0  0  0  0  1  0  0
  -22.2691  -29.2832   23.5109 C   0  0  1  0  0  0  0  0  0  0  0  0
  -19.7267  -26.7656   22.2588 C   0  0  2  0  0  0  0  0  0  0  0  0
  -22.1688  -29.8664   24.9487 C   0  0  0  0  0  0  0  0  0  0  0  0
  -26.1835  -12.4481   20.7729 N   0  0  0  0  0  0  0  0  0  0  0  0
  -25.7882  -13.6306   20.2714 N   0  0  0  0  0  0  0  0  0  0  0  0
  -29.9920  -23.1759   20.7009 N   0  0  0  0  0  0  0  0  0  0  0  0
  -23.7286  -30.2022   21.7363 N   0  0  0  0  0  0  0  0  0  0  0  0
  -29.1459  -15.4162   19.9240 N   0  0  0  0  0  0  0  0  0  0  0  0
  -23.8731  -14.9621   19.8587 N   0  0  0  0  0  0  0  0  0  0  0  0
  -22.1621  -11.2318   21.7439 N   0  0  0  0  0  0  0  0  0  0  0  0
  -28.4848  -21.3237   20.6369 N   0  0  0  0  0  0  0  0  0  0  0  0
  -29.4227  -16.5692   21.9628 N   0  0  0  0  0  0  0  0  0  0  0  0
  -25.0847  -33.4799   21.3515 N   0  0  0  0  0  0  0  0  0  0  0  0
  -21.0692  -28.5834   23.0649 N   0  0  0  0  0  0  0  0  0  0  0  0
  -30.1407  -21.3720   22.3673 N   0  3  0  0  0  0  0  0  0  0  0  0
  -19.8462  -25.7634   21.1623 N   0  3  0  0  0  0  0  0  0  0  0  0
  -28.5067  -23.4989   18.8891 O   0  0  0  0  0  0  0  0  0  0  0  0
  -21.6336  -13.2738   20.8441 O   0  0  0  0  0  0  0  0  0  0  0  0
  -25.8598  -31.5912   22.4717 O   0  0  0  0  0  0  0  0  0  0  0  0
  -21.7407  -31.2687   22.3255 O   0  0  0  0  0  0  0  0  0  0  0  0
  -22.1006  -26.5481   22.6517 O   0  0  0  0  0  0  0  0  0  0  0  0
  -30.6092  -17.1998   20.0717 O   0  0  0  0  0  0  0  0  0  0  0  0
  -25.0519   -6.7973   23.4816 O   0  0  0  0  0  0  0  0  0  0  0  0
  -28.4131  -26.5368   20.1016 O   0  0  0  0  0  0  0  0  0  1  0  0
  -21.2963   -3.1602   21.7291 F   0  0  0  0  0  0  0  0  0  0  0  0
  -25.8232   -4.3973   22.3470 F   0  0  0  0  0  0  0  0  0  0  0  0
  1  2  1  0  0  0  0
  1  5  2  0  0  0  0
  2  6  2  0  0  0  0
  3 10  2  0  0  0  0
  3 18  1  0  0  0  0
  4 11  1  0  0  0  0
  4 18  2  0  0  0  0
  5 20  1  0  0  0  0
  6 22  1  0  0  0  0
  7 12  2  0  0  0  0
  7 21  1  0  0  0  0
  8  9  2  0  0  0  0
  8 24  1  0  0  0  0
  9 25  1  0  0  0  0
 10 27  1  0  0  0  0
 11 27  2  0  0  0  0
 12 28  1  0  0  0  0
 13 14  2  0  0  0  0
 13 29  1  0  0  0  0
 14 30  1  0  0  0  0
 15 23  1  0  0  0  0
 15 28  2  0  0  0  0
 16 25  2  0  0  0  0
 16 26  1  0  0  0  0
 17 30  2  0  0  0  0
 17 31  1  0  0  0  0
 18 32  1  0  0  0  0
 19 32  1  0  0  0  0
 19 33  2  0  0  0  0
 19 35  1  0  0  0  0
 20 22  2  0  0  0  0
 20 41  1  0  0  0  0
 21 23  2  0  0  0  0
 21 42  1  0  0  0  0
 22 52  1  0  0  0  0
 23 43  1  0  0  0  0
 24 26  2  0  0  0  0
 24 56  1  0  0  0  0
 25 75  1  0  0  0  0
 26 78  1  0  0  0  0
 27 86  1  0  0  0  0
 28 87  1  0  0  0  0
 29 31  2  0  0  0  0
 29 86  1  0  0  0  0
 30 88  1  0  0  0  0
 31 89  1  0  0  0  0
 32 67  2  0  0  0  0
 33 68  1  0  0  0  0
 33 72  1  0  0  0  0
 34 55  1  0  0  0  0
 34 69  1  0  0  0  0
 34 80  2  0  0  0  0
 35 73  1  0  0  0  0
 35 81  2  0  0  0  0
 36 53  1  0  0  0  0
 36 76  1  0  0  0  0
 36 82  2  0  0  0  0
 37 64  1  0  0  0  0
 37 70  1  0  0  0  0
 37 83  2  0  0  0  0
 38 65  1  0  0  0  0
 38 77  1  0  0  0  0
 38 84  2  0  0  0  0
 39 69  1  0  0  0  0
 39 74  1  0  0  0  0
 39 78  2  0  0  0  0
 40 71  1  0  0  0  0
 40 75  1  0  0  0  0
 40 85  2  0  0  0  0
 41 44  1  0  0  0  0
 42 53  1  0  0  0  0
 43 70  1  0  0  0  0
 44 46  1  0  0  0  0
 45 47  1  0  0  0  0
 45 49  1  0  0  0  0
 46 52  1  0  0  0  0
 47 54  1  0  0  0  0
 48 50  1  0  0  0  0
 48 55  1  0  0  0  0
 49 71  1  0  0  0  0
 50 69  1  0  0  0  0
 51 54  1  0  0  0  0
 51 71  1  0  0  0  0
 52 76  1  0  0  0  0
 53 70  1  0  0  0  0
 54 68  1  0  0  0  0
 55 57  1  0  0  0  0
 55 63  1  0  0  0  0
 58 65  1  0  0  0  0
 59 66  1  0  0  0  0
 60 66  1  0  0  0  0
 61 66  1  0  0  0  0
 62 79  1  0  0  0  0
 63 87  1  0  0  0  0
 64 66  1  0  0  0  0
 64 77  1  0  0  0  0
 65 79  1  0  0  0  0
 67 68  1  0  0  0  0
M  CHG  2  78   1  79   1
M  ISO  4  40 100  63 101  75 100  87 101
M  END
> <Batch ID>
0073

> <Smiles>
CNC(C)C(=O)NC(C(=O)N1Cc2cc([101O:1][101CH2:1]C3(C)CCN(C(=N)Nc4cc([100NH:0][100C:0](=O)N5CCCC(n6nc(-c7ccc(Oc8ccc(F)cc8F)cc7)c(C(N)=O)c6N)C5)ccc4C)C3=O)ccc2CC1C(=O)NC1CCCc2ccccc21)C(C)(C)C

> <Shape>
0.322

> <Color>
0.114

> <Negative vol penalty>
0.000

$$$$

  -OEChem-04042323413D

 85 93  0     1  0  0  0  0  0999 V2000
  -18.3796  -32.7846   20.4460 C   0  0  0  0  0  0  0  0  0  0  0  0
  -19.7678  -32.7767   20.3544 C   0  0  0  0  0  0  0  0  0  0  0  0
  -26.7025  -12.5492   21.3573 C   0  0  0  0  0  0  0  0  0  0  0  0
  -25.8668  -13.8265   19.4846 C   0  0  0  0  0  0  0  0  0  0  0  0
  -30.0500  -24.2985   19.5337 C   0  0  0  0  0  0  0  0  0  0  0  0
  -17.7365  -31.9340   21.3442 C   0  0  0  0  0  0  0  0  0  0  0  0
  -20.5137  -31.9188   21.1619 C   0  0  0  0  0  0  0  0  0  0  0  0
  -25.7445  -29.0953   19.6875 C   0  0  0  0  0  0  0  0  0  0  0  0
  -30.1088  -22.9506   19.8875 C   0  0  0  0  0  0  0  0  0  0  0  0
  -25.4197  -12.0543   21.5922 C   0  0  0  0  0  0  0  0  0  0  0  0
  -24.5840  -13.3315   19.7194 C   0  0  0  0  0  0  0  0  0  0  0  0
  -27.0795  -29.3933   19.9571 C   0  0  0  0  0  0  0  0  0  0  0  0
  -23.3911   -9.6783   20.2990 C   0  0  0  0  0  0  0  0  0  0  0  0
  -23.2593   -8.3128   20.5512 C   0  0  0  0  0  0  0  0  0  0  0  0
  -27.0224  -27.9041   21.8540 C   0  0  0  0  0  0  0  0  0  0  0  0
  -31.9954  -23.4102   21.3251 C   0  0  0  0  0  0  0  0  0  0  0  0
  -22.3009   -8.8048   22.7137 C   0  0  0  0  0  0  0  0  0  0  0  0
  -26.9260  -13.4354   20.3036 C   0  0  0  0  0  0  0  0  0  0  0  0
  -30.9640  -25.2023   20.0755 C   0  0  0  0  0  0  0  0  0  0  0  0
  -29.2416  -13.3844   19.2344 C   0  0  0  0  0  0  0  0  0  0  0  0
  -18.4745  -31.0584   22.1562 C   0  0  0  0  0  0  0  0  0  0  0  0
  -25.0340  -28.2064   20.5070 C   0  0  0  0  0  0  0  0  0  0  0  0
  -19.8800  -31.0566   22.0728 C   0  0  0  0  0  0  0  0  0  0  0  0
  -25.6792  -27.5946   21.5912 C   0  0  0  0  0  0  0  0  0  0  0  0
  -31.0814  -22.5065   20.7832 C   0  0  0  0  0  0  0  0  0  0  0  0
  -24.3605  -12.4454   20.7732 C   0  0  0  0  0  0  0  0  0  0  0  0
  -27.7178  -28.7999   21.0422 C   0  0  0  0  0  0  0  0  0  0  0  0
  -22.9779  -10.6071   21.2542 C   0  0  0  0  0  0  0  0  0  0  0  0
  -22.7141   -7.8761   21.7585 C   0  0  0  0  0  0  0  0  0  0  0  0
  -31.9367  -24.7582   20.9712 C   0  0  0  0  0  0  0  0  0  0  0  0
  -22.4327  -10.1703   22.4615 C   0  0  0  0  0  0  0  0  0  0  0  0
  -28.2508  -13.9475   20.0608 C   0  0  0  0  0  0  0  0  0  0  0  0
  -30.3081  -14.2431   19.3431 C   0  0  0  0  0  0  0  0  0  0  0  0
  -30.8993  -26.6366   19.6935 C   0  0  0  0  0  0  0  0  0  0  0  0
  -29.2015  -12.1918   18.4395 C   0  0  0  0  0  0  0  0  0  0  0  0
  -22.4666  -28.4345   22.3671 C   0  0  0  0  0  0  0  0  0  0  0  0
  -22.8674  -25.2280   22.6500 C   0  0  0  0  0  0  0  0  0  0  0  0
  -24.9720  -22.5461   22.4913 C   0  0  0  0  0  0  0  0  0  0  0  0
  -30.3136  -20.1006   20.7016 C   0  0  0  0  0  0  0  0  0  0  0  0
  -17.7374  -30.1911   23.1458 C   0  0  0  0  0  0  0  0  0  0  0  0
  -23.6022  -27.8750   20.1869 C   0  0  0  0  0  0  0  0  0  0  0  0
  -24.9669  -26.6178   22.4895 C   0  0  0  0  0  0  0  0  0  0  0  0
  -18.5812  -29.0452   23.6982 C   0  0  0  0  0  0  0  0  0  0  0  0
  -31.6498  -17.2469   22.8914 C   0  0  0  0  0  0  0  0  0  0  0  0
  -19.9594  -29.5494   24.1143 C   0  0  0  0  0  0  0  0  0  0  0  0
  -31.5805  -16.1010   21.8847 C   0  0  0  0  0  0  0  0  0  0  0  0
  -31.7251  -18.6086   22.2123 C   0  0  0  0  0  0  0  0  0  0  0  0
  -29.8294  -17.6674   20.8795 C   0  0  0  0  0  0  0  0  0  0  0  0
  -20.7226  -30.1226   22.9141 C   0  0  1  0  0  0  0  0  0  0  0  0
  -22.8268  -27.3502   21.3913 C   0  0  1  0  0  0  0  0  0  0  0  0
  -30.7134  -16.4310   20.6536 C   0  0  2  0  0  0  0  0  0  0  0  0
  -25.0190  -20.0574   22.8103 C   0  0  0  0  0  0  0  0  0  0  0  0
  -22.8418  -25.6178   25.6761 C   0  0  0  0  0  0  0  0  0  0  0  0
  -23.8229  -23.3263   25.9096 C   0  0  0  0  0  0  0  0  0  0  0  0
  -21.5737  -23.6182   24.8710 C   0  0  0  0  0  0  0  0  0  0  0  0
  -31.8382  -29.6653   21.7001 C   0  0  0  0  0  0  0  0  0  0  0  0
  -32.1968  -29.3056   19.2452 C   0  0  0  0  0  0  0  0  0  0  0  0
  -25.7612  -22.0837   19.6767 C   0  0  0  0  0  0  0  0  0  0  0  0
  -29.8516  -29.4230   20.1969 C   0  0  0  0  0  0  0  0  0  1  0  0
  -23.6333  -24.3248   23.5862 C   0  0  1  0  0  0  0  0  0  0  0  0
  -24.8308  -21.1934   21.8169 C   0  0  2  0  0  0  0  0  0  0  0  0
  -22.9811  -24.2416   24.9951 C   0  0  0  0  0  0  0  0  0  0  0  0
  -31.3008  -28.9673   20.4436 C   0  0  0  0  0  0  0  0  0  0  0  0
  -28.6521  -15.0764   20.6511 N   0  0  0  0  0  0  0  0  0  0  0  0
  -29.9069  -15.2296   20.1951 N   0  0  0  0  0  0  0  0  0  0  0  0
  -23.5660  -26.3311   22.1391 N   0  0  0  0  0  0  0  0  0  0  0  0
  -30.6356  -18.8357   21.2517 N   0  0  0  0  0  0  0  0  0  0  0  0
  -31.5405  -14.2428   18.7921 N   0  0  0  0  0  0  0  0  0  0  0  0
  -28.0275  -11.4262   18.4421 N   0  0  0  0  0  0  0  0  0  0  0  0
  -31.1410  -21.1367   21.1427 N   0  0  0  0  0  0  0  0  0  0  0  0
  -31.3264  -27.5296   20.6569 N   0  0  0  0  0  0  0  0  0  0  0  0
  -21.2606  -29.0539   22.1000 N   0  0  0  0  0  0  0  0  0  0  0  0
  -23.7531  -23.0395   22.9064 N   0  0  0  0  0  0  0  0  0  0  0  0
  -25.8457  -21.0453   20.7357 N   0  3  0  0  0  0  0  0  0  0  0  0
  -30.4648  -26.9437   18.5865 O   0  0  0  0  0  0  0  0  0  0  0  0
  -30.1835  -11.8075   17.7602 O   0  0  0  0  0  0  0  0  0  0  0  0
  -23.2260  -28.6893   23.2946 O   0  0  0  0  0  0  0  0  0  0  0  0
  -21.6947  -24.9605   22.3762 O   0  0  0  0  0  0  0  0  0  0  0  0
  -26.0555  -23.1071   22.6387 O   0  0  0  0  0  0  0  0  0  0  0  0
  -29.3892  -20.2412   19.8982 O   0  0  0  0  0  0  0  0  0  0  0  0
  -23.1087  -11.9624   21.0020 O   0  0  0  0  0  0  0  0  0  0  0  0
  -29.0207  -29.0894   21.3080 O   0  0  0  0  0  0  0  0  0  1  0  0
  -22.5862   -6.5648   21.9999 F   0  0  0  0  0  0  0  0  0  0  0  0
  -32.8205  -25.6178   21.4978 F   0  0  0  0  0  0  0  0  0  0  0  0
  -22.0329  -11.0578   23.3825 F   0  0  0  0  0  0  0  0  0  0  0  0
  1  2  1  0  0  0  0
  1  6  2  0  0  0  0
  2  7  2  0  0  0  0
  3 10  2  0  0  0  0
  3 18  1  0  0  0  0
  4 11  1  0  0  0  0
  4 18  2  0  0  0  0
  5  9  2  0  0  0  0
  5 19  1  0  0  0  0
  6 21  1  0  0  0  0
  7 23  1  0  0  0  0
  8 12  2  0  0  0  0
  8 22  1  0  0  0  0
  9 25  1  0  0  0  0
 10 26  1  0  0  0  0
 11 26  2  0  0  0  0
 12 27  1  0  0  0  0
 13 14  2  0  0  0  0
 13 28  1  0  0  0  0
 14 29  1  0  0  0  0
 15 24  1  0  0  0  0
 15 27  2  0  0  0  0
 16 25  2  0  0  0  0
 16 30  1  0  0  0  0
 17 29  2  0  0  0  0
 17 31  1  0  0  0  0
 18 32  1  0  0  0  0
 19 30  2  0  0  0  0
 19 34  1  0  0  0  0
 20 32  1  0  0  0  0
 20 33  2  0  0  0  0
 20 35  1  0  0  0  0
 21 23  2  0  0  0  0
 21 40  1  0  0  0  0
 22 24  2  0  0  0  0
 22 41  1  0  0  0  0
 23 49  1  0  0  0  0
 24 42  1  0  0  0  0
 25 70  1  0  0  0  0
 26 81  1  0  0  0  0
 27 82  1  0  0  0  0
 28 31  2  0  0  0  0
 28 81  1  0  0  0  0
 29 83  1  0  0  0  0
 30 84  1  0  0  0  0
 31 85  1  0  0  0  0
 32 64  2  0  0  0  0
 33 65  1  0  0  0  0
 33 68  1  0  0  0  0
 34 71  1  0  0  0  0
 34 75  2  0  0  0  0
 35 69  1  0  0  0  0
 35 76  2  0  0  0  0
 36 50  1  0  0  0  0
 36 72  1  0  0  0  0
 36 77  2  0  0  0  0
 37 60  1  0  0  0  0
 37 66  1  0  0  0  0
 37 78  2  0  0  0  0
 38 61  1  0  0  0  0
 38 73  1  0  0  0  0
 38 79  2  0  0  0  0
 39 67  1  0  0  0  0
 39 70  1  0  0  0  0
 39 80  2  0  0  0  0
 40 43  1  0  0  0  0
 41 50  1  0  0  0  0
 42 66  1  0  0  0  0
 43 45  1  0  0  0  0
 44 46  1  0  0  0  0
 44 47  1  0  0  0  0
 45 49  1  0  0  0  0
 46 51  1  0  0  0  0
 47 67  1  0  0  0  0
 48 51  1  0  0  0  0
 48 67  1  0  0  0  0
 49 72  1  0  0  0  0
 50 66  1  0  0  0  0
 51 65  1  0  0  0  0
 52 61  1  0  0  0  0
 53 62  1  0  0  0  0
 54 62  1  0  0  0  0
 55 62  1  0  0  0  0
 56 63  1  0  0  0  0
 57 63  1  0  0  0  0
 58 74  1  0  0  0  0
 59 63  1  0  0  0  0
 59 82  1  0  0  0  0
 60 62  1  0  0  0  0
 60 73  1  0  0  0  0
 61 74  1  0  0  0  0
 63 71  1  0  0  0  0
 64 65  1  0  0  0  0
M  CHG  1  74   1
M  ISO  4  39 100  59 101  70 100  82 101
M  END
> <Batch ID>
0073

> <Smiles>
CNC(C)C(=O)NC(C(=O)N1Cc2cc([101O:1][101CH2:1]C(C)(C)NC(=O)c3ccc([100NH:0][100C:0](=O)N4CCCC(n5nc(-c6ccc(Oc7ccc(F)cc7F)cc6)c(C(N)=O)c5N)C4)cc3F)ccc2CC1C(=O)NC1CCCc2ccccc21)C(C)(C)C

> <Shape>
0.266

> <Color>
0.101

> <Negative vol penalty>
0.000

$$$$

  -OEChem-04042323413D

 88 97  0     1  0  0  0  0  0999 V2000
  -32.4010  -12.8998   21.3527 C   0  0  0  0  0  0  0  0  0  0  0  0
  -31.9592  -14.2086   21.5174 C   0  0  0  0  0  0  0  0  0  0  0  0
  -29.1971  -26.7927   20.2820 C   0  0  0  0  0  0  0  0  0  0  0  0
  -27.5160  -25.2650   19.4591 C   0  0  0  0  0  0  0  0  0  0  0  0
  -31.6160  -11.9830   20.6547 C   0  0  0  0  0  0  0  0  0  0  0  0
  -30.7327  -14.6018   20.9832 C   0  0  0  0  0  0  0  0  0  0  0  0
  -25.2400  -19.0164   22.2709 C   0  0  0  0  0  0  0  0  0  0  0  0
  -30.1494  -25.7751   20.2260 C   0  0  0  0  0  0  0  0  0  0  0  0
  -28.4683  -24.2474   19.4030 C   0  0  0  0  0  0  0  0  0  0  0  0
  -24.4905  -20.0133   21.6480 C   0  0  0  0  0  0  0  0  0  0  0  0
  -29.9802  -22.1286   21.5607 C   0  0  0  0  0  0  0  0  0  0  0  0
  -29.6207  -20.8764   22.0591 C   0  0  0  0  0  0  0  0  0  0  0  0
  -23.1828  -18.3228   20.5293 C   0  0  0  0  0  0  0  0  0  0  0  0
  -18.2897  -25.3094   21.8401 C   0  0  0  0  0  0  0  0  0  0  0  0
  -18.8797  -27.2506   23.7548 C   0  0  0  0  0  0  0  0  0  0  0  0
  -30.0141  -19.8981   19.8853 C   0  0  0  0  0  0  0  0  0  0  0  0
  -27.8804  -26.5377   19.8986 C   0  0  0  0  0  0  0  0  0  0  0  0
  -26.5656  -28.5010   18.9373 C   0  0  0  0  0  0  0  0  0  0  0  0
  -30.3747  -12.3625   20.1200 C   0  0  0  0  0  0  0  0  0  0  0  0
  -24.9732  -17.6630   22.0190 C   0  0  0  0  0  0  0  0  0  0  0  0
  -29.9310  -13.6896   20.2762 C   0  0  0  0  0  0  0  0  0  0  0  0
  -23.9287  -17.3106   21.1523 C   0  0  0  0  0  0  0  0  0  0  0  0
  -19.5687  -25.8626   21.9012 C   0  0  0  0  0  0  0  0  0  0  0  0
  -17.3057  -25.7268   22.7363 C   0  0  0  0  0  0  0  0  0  0  0  0
  -19.8637  -26.8332   22.8585 C   0  0  0  0  0  0  0  0  0  0  0  0
  -29.7850  -24.5024   19.7864 C   0  0  0  0  0  0  0  0  0  0  0  0
  -23.4636  -19.6667   20.7748 C   0  0  0  0  0  0  0  0  0  0  0  0
  -30.3566  -22.2656   20.2245 C   0  0  0  0  0  0  0  0  0  0  0  0
  -29.6377  -19.7612   21.2215 C   0  0  0  0  0  0  0  0  0  0  0  0
  -17.6007  -26.6974   23.6936 C   0  0  0  0  0  0  0  0  0  0  0  0
  -30.3736  -21.1503   19.3869 C   0  0  0  0  0  0  0  0  0  0  0  0
  -26.8961  -27.5884   19.9569 C   0  0  0  0  0  0  0  0  0  0  0  0
  -25.5817  -29.2870   19.4857 C   0  0  0  0  0  0  0  0  0  0  0  0
  -21.7919  -24.8098   21.2853 C   0  0  0  0  0  0  0  0  0  0  0  0
  -27.1000  -28.6270   17.6128 C   0  0  0  0  0  0  0  0  0  0  0  0
  -26.6167  -15.2483   20.7652 C   0  0  0  0  0  0  0  0  0  0  0  0
  -24.0248  -13.5229   21.6748 C   0  0  0  0  0  0  0  0  0  0  0  0
  -20.6994  -13.4752   22.4404 C   0  0  0  0  0  0  0  0  0  0  0  0
  -21.5890  -28.3851   23.8389 C   0  0  0  0  0  0  0  0  0  0  0  0
  -29.5830  -11.3488   19.3324 C   0  0  0  0  0  0  0  0  0  0  0  0
  -25.7734  -16.5993   22.7195 C   0  0  0  0  0  0  0  0  0  0  0  0
  -23.5889  -15.8719   20.8638 C   0  0  0  0  0  0  0  0  0  0  0  0
  -28.1245  -11.7465   19.1203 C   0  0  0  0  0  0  0  0  0  0  0  0
  -24.0412  -30.9628   23.6991 C   0  0  0  0  0  0  0  0  0  0  0  0
  -28.0279  -13.2002   18.6685 C   0  0  0  0  0  0  0  0  0  0  0  0
  -25.0182  -30.4759   22.6265 C   0  0  0  0  0  0  0  0  0  0  0  0
  -21.7457  -25.3035   18.9540 C   0  0  0  0  0  0  0  0  0  0  0  0
  -23.5016  -29.8079   24.5409 C   0  0  0  0  0  0  0  0  0  0  0  0
  -20.3618  -25.5113   19.5388 C   0  0  0  0  0  0  0  0  0  0  0  0
  -23.8897  -28.2159   22.7013 C   0  0  0  0  0  0  0  0  0  0  0  0
  -28.5949  -14.1476   19.7327 C   0  0  1  0  0  0  0  0  0  0  0  0
  -25.7502  -15.2582   21.9927 C   0  0  1  0  0  0  0  0  0  0  0  0
  -24.4102  -29.3361   21.7859 C   0  0  2  0  0  0  0  0  0  0  0  0
  -22.4412  -24.3909   19.9673 C   0  0  1  0  0  0  0  0  0  0  0  0
  -23.9507  -24.6189   19.9881 C   0  0  0  0  0  0  0  0  0  0  0  0
  -18.8541  -11.9115   23.1091 C   0  0  0  0  0  0  0  0  0  0  0  0
  -23.8536  -12.5014   18.8047 C   0  0  0  0  0  0  0  0  0  0  0  0
  -21.5181  -11.7402   19.2887 C   0  0  0  0  0  0  0  0  0  0  0  0
  -23.4333  -10.7666   20.5564 C   0  0  0  0  0  0  0  0  0  0  0  0
  -20.2608  -14.9005   24.9968 C   0  0  0  0  0  0  0  0  0  0  0  0
  -22.1274  -22.9132   19.7050 C   0  0  0  0  0  0  0  0  0  0  0  0
  -23.0686  -21.9913   20.4653 C   0  0  0  0  0  0  0  0  0  1  0  0
  -22.7134  -13.1433   21.0304 C   0  0  1  0  0  0  0  0  0  0  0  0
  -19.9415  -12.8545   23.6001 C   0  0  2  0  0  0  0  0  0  0  0  0
  -22.8870  -12.0651   19.9238 C   0  0  0  0  0  0  0  0  0  0  0  0
  -26.1804  -27.7761   21.0689 N   0  0  0  0  0  0  0  0  0  0  0  0
  -25.3904  -28.8159   20.7512 N   0  0  0  0  0  0  0  0  0  0  0  0
  -20.5589  -25.4191   20.9730 N   0  0  0  0  0  0  0  0  0  0  0  0
  -24.4040  -14.8685   21.5683 N   0  0  0  0  0  0  0  0  0  0  0  0
  -22.9374  -28.7680   23.6777 N   0  0  0  0  0  0  0  0  0  0  0  0
  -16.0132  -25.1658   22.6729 N   0  0  0  0  0  0  0  0  0  0  0  0
  -24.8702  -30.3282   19.0040 N   0  0  0  0  0  0  0  0  0  0  0  0
  -28.1060  -27.7378   17.2109 N   0  0  0  0  0  0  0  0  0  0  0  0
  -21.1548  -27.4111   22.9403 N   0  0  0  0  0  0  0  0  0  0  0  0
  -27.6442  -14.3253   20.8093 N   0  0  0  0  0  0  0  0  0  0  0  0
  -21.8244  -12.7466   22.1171 N   0  0  0  0  0  0  0  0  0  0  0  0
  -19.3039  -13.9159   24.4295 N   0  3  0  0  0  0  0  0  0  0  0  0
  -22.2862  -24.5678   22.3778 O   0  0  0  0  0  0  0  0  0  0  0  0
  -26.7090  -29.5127   16.8152 O   0  0  0  0  0  0  0  0  0  0  0  0
  -26.3704  -16.0198   19.8455 O   0  0  0  0  0  0  0  0  0  0  0  0
  -24.6847  -12.6589   22.2575 O   0  0  0  0  0  0  0  0  0  0  0  0
  -20.3282  -14.5016   21.8753 O   0  0  0  0  0  0  0  0  0  0  0  0
  -20.8646  -28.9040   24.6921 O   0  0  0  0  0  0  0  0  0  0  0  0
  -30.7140  -23.5092   19.7314 O   0  0  0  0  0  0  0  0  0  0  0  0
  -22.7310  -20.6378   20.1648 O   0  0  0  0  0  0  0  0  0  1  0  0
  -29.2939  -18.5586   21.7007 F   0  0  0  0  0  0  0  0  0  0  0  0
  -16.6625  -27.1068   24.5592 F   0  0  0  0  0  0  0  0  0  0  0  0
  -30.7354  -21.2755   18.1027 F   0  0  0  0  0  0  0  0  0  0  0  0
  1  2  1  0  0  0  0
  1  5  2  0  0  0  0
  2  6  2  0  0  0  0
  3  8  2  0  0  0  0
  3 17  1  0  0  0  0
  4  9  1  0  0  0  0
  4 17  2  0  0  0  0
  5 19  1  0  0  0  0
  6 21  1  0  0  0  0
  7 10  2  0  0  0  0
  7 20  1  0  0  0  0
  8 26  1  0  0  0  0
  9 26  2  0  0  0  0
 10 27  1  0  0  0  0
 11 12  2  0  0  0  0
 11 28  1  0  0  0  0
 12 29  1  0  0  0  0
 13 22  1  0  0  0  0
 13 27  2  0  0  0  0
 14 23  1  0  0  0  0
 14 24  2  0  0  0  0
 15 25  1  0  0  0  0
 15 30  2  0  0  0  0
 16 29  2  0  0  0  0
 16 31  1  0  0  0  0
 17 32  1  0  0  0  0
 18 32  1  0  0  0  0
 18 33  2  0  0  0  0
 18 35  1  0  0  0  0
 19 21  2  0  0  0  0
 19 40  1  0  0  0  0
 20 22  2  0  0  0  0
 20 41  1  0  0  0  0
 21 51  1  0  0  0  0
 22 42  1  0  0  0  0
 23 25  2  0  0  0  0
 23 68  1  0  0  0  0
 24 30  1  0  0  0  0
 24 71  1  0  0  0  0
 25 74  1  0  0  0  0
 26 84  1  0  0  0  0
 27 85  1  0  0  0  0
 28 31  2  0  0  0  0
 28 84  1  0  0  0  0
 29 86  1  0  0  0  0
 30 87  1  0  0  0  0
 31 88  1  0  0  0  0
 32 66  2  0  0  0  0
 33 67  1  0  0  0  0
 33 72  1  0  0  0  0
 34 54  1  0  0  0  0
 34 68  1  0  0  0  0
 34 78  2  0  0  0  0
 35 73  1  0  0  0  0
 35 79  2  0  0  0  0
 36 52  1  0  0  0  0
 36 75  1  0  0  0  0
 36 80  2  0  0  0  0
 37 63  1  0  0  0  0
 37 69  1  0  0  0  0
 37 81  2  0  0  0  0
 38 64  1  0  0  0  0
 38 76  1  0  0  0  0
 38 82  2  0  0  0  0
 39 70  1  0  0  0  0
 39 74  1  0  0  0  0
 39 83  2  0  0  0  0
 40 43  1  0  0  0  0
 41 52  1  0  0  0  0
 42 69  1  0  0  0  0
 43 45  1  0  0  0  0
 44 46  1  0  0  0  0
 44 48  1  0  0  0  0
 45 51  1  0  0  0  0
 46 53  1  0  0  0  0
 47 49  1  0  0  0  0
 47 54  1  0  0  0  0
 48 70  1  0  0  0  0
 49 68  1  0  0  0  0
 50 53  1  0  0  0  0
 50 70  1  0  0  0  0
 51 75  1  0  0  0  0
 52 69  1  0  0  0  0
 53 67  1  0  0  0  0
 54 55  1  0  0  0  0
 54 61  1  0  0  0  0
 56 64  1  0  0  0  0
 57 65  1  0  0  0  0
 58 65  1  0  0  0  0
 59 65  1  0  0  0  0
 60 77  1  0  0  0  0
 61 62  1  0  0  0  0
 62 85  1  0  0  0  0
 63 65  1  0  0  0  0
 63 76  1  0  0  0  0
 64 77  1  0  0  0  0
 66 67  1  0  0  0  0
M  CHG  1  77   1
M  ISO  4  39 100  62 101  74 100  85 101
M  END
> <Batch ID>
0073

> <Smiles>
CNC(C)C(=O)NC(C(=O)N1Cc2cc([101O:1][101CH2:1]CC3(C)CCN(c4cc(N)c(F)cc4[100NH:0][100C:0](=O)N4CCCC(n5nc(-c6ccc(Oc7ccc(F)cc7F)cc6)c(C(N)=O)c5N)C4)C3=O)ccc2CC1C(=O)NC1CCCc2ccccc21)C(C)(C)C

> <Shape>
0.260

> <Color>
0.058

> <Negative vol penalty>
0.000

$$$$

  -OEChem-04042323413D

 88 96  0     1  0  0  0  0  0999 V2000
  -29.8646  -34.0036   26.5917 C   0  0  0  0  0  0  0  0  0  0  0  0
  -29.4512  -32.8666   25.9048 C   0  0  0  0  0  0  0  0  0  0  0  0
  -24.0684   -9.8446   22.1391 C   0  0  0  0  0  0  0  0  0  0  0  0
  -24.5232  -11.3682   23.9581 C   0  0  0  0  0  0  0  0  0  0  0  0
  -30.7857  -20.4549   20.0288 C   0  0  0  0  0  0  0  0  0  0  0  0
  -28.9299  -34.9664   26.9702 C   0  0  0  0  0  0  0  0  0  0  0  0
  -28.1025  -32.6913   25.5971 C   0  0  0  0  0  0  0  0  0  0  0  0
  -27.3845  -31.1171   20.8377 C   0  0  0  0  0  0  0  0  0  0  0  0
  -30.5627  -19.0915   19.8367 C   0  0  0  0  0  0  0  0  0  0  0  0
  -23.6347   -8.8837   23.0524 C   0  0  0  0  0  0  0  0  0  0  0  0
  -24.0895  -10.4072   24.8714 C   0  0  0  0  0  0  0  0  0  0  0  0
  -27.6132  -29.7677   20.5721 C   0  0  0  0  0  0  0  0  0  0  0  0
  -20.8557   -8.2514   24.8718 C   0  0  0  0  0  0  0  0  0  0  0  0
  -19.6750   -7.5677   24.5817 C   0  0  0  0  0  0  0  0  0  0  0  0
  -28.4018  -20.8275   20.1524 C   0  0  0  0  0  0  0  0  0  0  0  0
  -25.2393  -29.3512   20.6759 C   0  0  0  0  0  0  0  0  0  0  0  0
  -20.8841   -5.4760   24.5907 C   0  0  0  0  0  0  0  0  0  0  0  0
  -24.5128  -11.0869   22.5920 C   0  0  0  0  0  0  0  0  0  0  0  0
  -29.7053  -21.3229   20.1868 C   0  0  0  0  0  0  0  0  0  0  0  0
  -24.1809  -13.0667   21.0179 C   0  0  0  0  0  0  0  0  0  0  0  0
  -27.5704  -34.8074   26.6585 C   0  0  0  0  0  0  0  0  0  0  0  0
  -26.0802  -31.5925   21.0356 C   0  0  0  0  0  0  0  0  0  0  0  0
  -27.1485  -33.6522   25.9730 C   0  0  0  0  0  0  0  0  0  0  0  0
  -24.9966  -30.7076   20.9413 C   0  0  0  0  0  0  0  0  0  0  0  0
  -29.2593  -18.5960   19.8023 C   0  0  0  0  0  0  0  0  0  0  0  0
  -23.6452   -9.1650   24.4185 C   0  0  0  0  0  0  0  0  0  0  0  0
  -26.5407  -28.8840   20.4940 C   0  0  0  0  0  0  0  0  0  0  0  0
  -22.0506   -7.5475   25.0212 C   0  0  0  0  0  0  0  0  0  0  0  0
  -19.6892   -6.1800   24.4412 C   0  0  0  0  0  0  0  0  0  0  0  0
  -28.1788  -19.4640   19.9601 C   0  0  0  0  0  0  0  0  0  0  0  0
  -22.0648   -6.1598   24.8807 C   0  0  0  0  0  0  0  0  0  0  0  0
  -24.9615  -12.0797   21.6491 C   0  0  0  0  0  0  0  0  0  0  0  0
  -25.0688  -13.7508   20.2240 C   0  0  0  0  0  0  0  0  0  0  0  0
  -29.9405  -22.7665   20.3904 C   0  0  0  0  0  0  0  0  0  0  0  0
  -22.7788  -13.3406   21.1384 C   0  0  0  0  0  0  0  0  0  0  0  0
  -24.5381  -32.9745   23.4472 C   0  0  0  0  0  0  0  0  0  0  0  0
  -28.1933  -25.6630   19.8056 C   0  0  0  0  0  0  0  0  0  0  0  0
  -22.1645  -33.2589   21.2547 C   0  0  0  0  0  0  0  0  0  0  0  0
  -20.7322  -32.1254   18.3718 C   0  0  0  0  0  0  0  0  0  0  0  0
  -29.9985  -16.2160   19.4344 C   0  0  0  0  0  0  0  0  0  0  0  0
  -26.5905  -35.8524   27.1300 C   0  0  0  0  0  0  0  0  0  0  0  0
  -25.8483  -33.0559   21.2948 C   0  0  0  0  0  0  0  0  0  0  0  0
  -23.5756  -31.1714   21.1258 C   0  0  0  0  0  0  0  0  0  0  0  0
  -25.2329  -35.7712   26.4368 C   0  0  0  0  0  0  0  0  0  0  0  0
  -29.8548  -12.6898   18.9632 C   0  0  0  0  0  0  0  0  0  0  0  0
  -24.7386  -34.3286   26.3982 C   0  0  0  0  0  0  0  0  0  0  0  0
  -28.5047  -12.2979   19.5680 C   0  0  0  0  0  0  0  0  0  0  0  0
  -30.5276  -13.8094   19.7554 C   0  0  0  0  0  0  0  0  0  0  0  0
  -28.3476  -14.6092   20.5781 C   0  0  0  0  0  0  0  0  0  0  0  0
  -25.6978  -33.4380   25.5992 C   0  0  1  0  0  0  0  0  0  0  0  0
  -24.5191  -33.3364   21.9890 C   0  0  1  0  0  0  0  0  0  0  0  0
  -27.6020  -13.5295   19.7768 C   0  0  2  0  0  0  0  0  0  0  0  0
  -18.7792  -32.5333   16.8498 C   0  0  0  0  0  0  0  0  0  0  0  0
  -29.5302  -25.3763   17.0609 C   0  0  0  0  0  0  0  0  0  0  0  0
  -31.7142  -25.0564   18.2499 C   0  0  0  0  0  0  0  0  0  0  0  0
  -20.3187  -31.8862   23.2593 C   0  0  0  0  0  0  0  0  0  0  0  0
  -18.7092  -31.4706   21.3872 C   0  0  0  0  0  0  0  0  0  0  0  0
  -19.2864  -33.8087   22.0375 C   0  0  0  0  0  0  0  0  0  0  0  0
  -22.4991  -32.7589   16.0837 C   0  0  0  0  0  0  0  0  0  0  0  0
  -28.1164  -27.1576   20.0548 C   0  0  0  0  0  0  0  0  0  1  0  0
  -29.5816  -25.0792   19.6034 C   0  0  2  0  0  0  0  0  0  0  0  0
  -20.9997  -32.4012   20.8227 C   0  0  1  0  0  0  0  0  0  0  0  0
  -20.2368  -32.8575   17.1377 C   0  0  2  0  0  0  0  0  0  0  0  0
  -30.2987  -25.6304   18.3613 C   0  0  0  0  0  0  0  0  0  0  0  0
  -19.8553  -32.3822   21.8751 C   0  0  0  0  0  0  0  0  0  0  0  0
  -26.2463  -12.1289   21.2873 N   0  0  0  0  0  0  0  0  0  0  0  0
  -26.2799  -13.1550   20.4201 N   0  0  0  0  0  0  0  0  0  0  0  0
  -23.4009  -32.6104   21.3834 N   0  0  0  0  0  0  0  0  0  0  0  0
  -29.6148  -14.9442   19.9097 N   0  0  0  0  0  0  0  0  0  0  0  0
  -24.9238  -14.7978   19.3843 N   0  0  0  0  0  0  0  0  0  0  0  0
  -22.0133  -12.5413   21.9983 N   0  0  0  0  0  0  0  0  0  0  0  0
  -29.0363  -17.2104   19.6070 N   0  0  0  0  0  0  0  0  0  0  0  0
  -29.4318  -23.6285   19.4996 N   0  0  0  0  0  0  0  0  0  0  0  0
  -25.5062  -33.6360   24.1785 N   0  0  0  0  0  0  0  0  0  0  0  0
  -20.5959  -32.8923   19.5096 N   0  0  0  0  0  0  0  0  0  0  0  0
  -30.6520  -23.1433   21.4529 N   0  3  0  0  0  0  0  0  0  0  0  0
  -21.0475  -32.4738   15.9475 N   0  3  0  0  0  0  0  0  0  0  0  0
  -22.2180  -14.2564   20.4899 O   0  0  0  0  0  0  0  0  0  0  0  0
  -23.7331  -32.1568   23.8773 O   0  0  0  0  0  0  0  0  0  0  0  0
  -27.1797  -24.9644   19.7759 O   0  0  0  0  0  0  0  0  0  0  0  0
  -21.9854  -34.4614   21.4630 O   0  0  0  0  0  0  0  0  0  0  0  0
  -21.1905  -30.9858   18.3312 O   0  0  0  0  0  0  0  0  0  0  0  0
  -31.0887  -16.4029   18.8881 O   0  0  0  0  0  0  0  0  0  0  0  0
  -23.2218   -8.2276   25.3099 O   0  0  0  0  0  0  0  0  0  0  0  0
  -26.7612  -27.5662   20.2355 O   0  0  0  0  0  0  0  0  0  1  0  0
  -18.5550   -5.5234   24.1642 F   0  0  0  0  0  0  0  0  0  0  0  0
  -26.9218  -18.9991   19.9274 F   0  0  0  0  0  0  0  0  0  0  0  0
  -23.2094   -5.4779   25.0243 F   0  0  0  0  0  0  0  0  0  0  0  0
  1  2  1  0  0  0  0
  1  6  2  0  0  0  0
  2  7  2  0  0  0  0
  3 10  2  0  0  0  0
  3 18  1  0  0  0  0
  4 11  1  0  0  0  0
  4 18  2  0  0  0  0
  5  9  2  0  0  0  0
  5 19  1  0  0  0  0
  6 21  1  0  0  0  0
  7 23  1  0  0  0  0
  8 12  2  0  0  0  0
  8 22  1  0  0  0  0
  9 25  1  0  0  0  0
 10 26  1  0  0  0  0
 11 26  2  0  0  0  0
 12 27  1  0  0  0  0
 13 14  2  0  0  0  0
 13 28  1  0  0  0  0
 14 29  1  0  0  0  0
 15 19  2  0  0  0  0
 15 30  1  0  0  0  0
 16 24  1  0  0  0  0
 16 27  2  0  0  0  0
 17 29  2  0  0  0  0
 17 31  1  0  0  0  0
 18 32  1  0  0  0  0
 19 34  1  0  0  0  0
 20 32  1  0  0  0  0
 20 33  2  0  0  0  0
 20 35  1  0  0  0  0
 21 23  2  0  0  0  0
 21 41  1  0  0  0  0
 22 24  2  0  0  0  0
 22 42  1  0  0  0  0
 23 50  1  0  0  0  0
 24 43  1  0  0  0  0
 25 30  2  0  0  0  0
 25 72  1  0  0  0  0
 26 84  1  0  0  0  0
 27 85  1  0  0  0  0
 28 31  2  0  0  0  0
 28 84  1  0  0  0  0
 29 86  1  0  0  0  0
 30 87  1  0  0  0  0
 31 88  1  0  0  0  0
 32 66  2  0  0  0  0
 33 67  1  0  0  0  0
 33 70  1  0  0  0  0
 34 73  1  0  0  0  0
 34 76  2  0  0  0  0
 35 71  1  0  0  0  0
 35 78  2  0  0  0  0
 36 51  1  0  0  0  0
 36 74  1  0  0  0  0
 36 79  2  0  0  0  0
 37 60  1  0  0  0  0
 37 61  1  0  0  0  0
 37 80  2  0  0  0  0
 38 62  1  0  0  0  0
 38 68  1  0  0  0  0
 38 81  2  0  0  0  0
 39 63  1  0  0  0  0
 39 75  1  0  0  0  0
 39 82  2  0  0  0  0
 40 69  1  0  0  0  0
 40 72  1  0  0  0  0
 40 83  2  0  0  0  0
 41 44  1  0  0  0  0
 42 51  1  0  0  0  0
 43 68  1  0  0  0  0
 44 46  1  0  0  0  0
 45 47  1  0  0  0  0
 45 48  1  0  0  0  0
 46 50  1  0  0  0  0
 47 52  1  0  0  0  0
 48 69  1  0  0  0  0
 49 52  1  0  0  0  0
 49 69  1  0  0  0  0
 50 74  1  0  0  0  0
 51 68  1  0  0  0  0
 52 67  1  0  0  0  0
 53 63  1  0  0  0  0
 54 64  1  0  0  0  0
 55 64  1  0  0  0  0
 56 65  1  0  0  0  0
 57 65  1  0  0  0  0
 58 65  1  0  0  0  0
 59 77  1  0  0  0  0
 60 85  1  0  0  0  0
 61 64  1  0  0  0  0
 61 73  1  0  0  0  0
 62 65  1  0  0  0  0
 62 75  1  0  0  0  0
 63 77  1  0  0  0  0
 66 67  1  0  0  0  0
M  CHG  2  76   1  77   1
M  ISO  4  40 100  60 101  72 100  85 101
M  END
> <Batch ID>
0073

> <Smiles>
CNC(C)C(=O)NC(C(=O)N1Cc2cc([101O:1][101CH2:1]C(=O)C(NC(=N)c3ccc([100NH:0][100C:0](=O)N4CCCC(n5nc(-c6ccc(Oc7ccc(F)cc7F)cc6)c(C(N)=O)c5N)C4)c(F)c3)C(C)C)ccc2CC1C(=O)NC1CCCc2ccccc21)C(C)(C)C

> <Shape>
0.299

> <Color>
0.116

> <Negative vol penalty>
0.000

$$$$

  -OEChem-04042323413D

 87 96  0     1  0  0  0  0  0999 V2000
  -26.8373  -35.1564   22.9383 C   0  0  0  0  0  0  0  0  0  0  0  0
  -27.2390  -33.8409   22.7296 C   0  0  0  0  0  0  0  0  0  0  0  0
  -25.1815  -17.4401   20.5243 C   0  0  0  0  0  0  0  0  0  0  0  0
  -23.8150  -17.7606   22.4907 C   0  0  0  0  0  0  0  0  0  0  0  0
  -25.5831  -35.4226   23.4860 C   0  0  0  0  0  0  0  0  0  0  0  0
  -26.3870  -32.7907   23.0697 C   0  0  0  0  0  0  0  0  0  0  0  0
  -26.1730  -29.2232   19.4820 C   0  0  0  0  0  0  0  0  0  0  0  0
  -31.1056  -22.2822   21.7120 C   0  0  0  0  0  0  0  0  0  0  0  0
  -31.7234  -21.3166   22.5067 C   0  0  0  0  0  0  0  0  0  0  0  0
  -24.3549  -16.3915   20.1207 C   0  0  0  0  0  0  0  0  0  0  0  0
  -22.9883  -16.7120   22.0872 C   0  0  0  0  0  0  0  0  0  0  0  0
  -27.2383  -28.3266   19.4113 C   0  0  0  0  0  0  0  0  0  0  0  0
  -22.8116  -13.3948   18.7563 C   0  0  0  0  0  0  0  0  0  0  0  0
  -23.4204  -12.2271   18.2966 C   0  0  0  0  0  0  0  0  0  0  0  0
  -25.9287  -26.6863   20.6004 C   0  0  0  0  0  0  0  0  0  0  0  0
  -30.5471  -20.5857   20.0850 C   0  0  0  0  0  0  0  0  0  0  0  0
  -24.5205  -11.9604   20.4310 C   0  0  0  0  0  0  0  0  0  0  0  0
  -24.9116  -18.1246   21.7093 C   0  0  0  0  0  0  0  0  0  0  0  0
  -25.6259  -20.5715   21.8081 C   0  0  0  0  0  0  0  0  0  0  0  0
  -24.7115  -34.3754   23.8240 C   0  0  0  0  0  0  0  0  0  0  0  0
  -24.9794  -28.8614   20.1230 C   0  0  0  0  0  0  0  0  0  0  0  0
  -25.1205  -33.0431   23.6237 C   0  0  0  0  0  0  0  0  0  0  0  0
  -24.8489  -27.5793   20.6756 C   0  0  0  0  0  0  0  0  0  0  0  0
  -30.5174  -21.9167   20.5011 C   0  0  0  0  0  0  0  0  0  0  0  0
  -31.7532  -19.9856   22.0905 C   0  0  0  0  0  0  0  0  0  0  0  0
  -31.1650  -19.6202   20.8797 C   0  0  0  0  0  0  0  0  0  0  0  0
  -23.2584  -16.0275   20.9022 C   0  0  0  0  0  0  0  0  0  0  0  0
  -27.1173  -27.0589   19.9731 C   0  0  0  0  0  0  0  0  0  0  0  0
  -23.0572  -13.8454   20.0534 C   0  0  0  0  0  0  0  0  0  0  0  0
  -24.2748  -11.5099   19.1339 C   0  0  0  0  0  0  0  0  0  0  0  0
  -23.9117  -13.1282   20.8907 C   0  0  0  0  0  0  0  0  0  0  0  0
  -25.7654  -19.2075   22.1270 C   0  0  0  0  0  0  0  0  0  0  0  0
  -26.6803  -21.1820   22.4423 C   0  0  0  0  0  0  0  0  0  0  0  0
  -28.5405  -23.9100   18.1618 C   0  0  0  0  0  0  0  0  0  0  0  0
  -28.8309  -22.6210   18.8689 C   0  0  0  0  0  0  0  0  0  0  0  0
  -24.6322  -21.2282   21.0099 C   0  0  0  0  0  0  0  0  0  0  0  0
  -23.3712  -29.9394   22.6440 C   0  0  0  0  0  0  0  0  0  0  0  0
  -21.1609  -27.7739   21.6704 C   0  0  0  0  0  0  0  0  0  0  0  0
  -20.4769  -24.9014   19.9593 C   0  0  0  0  0  0  0  0  0  0  0  0
  -31.9909  -18.7314   24.2496 C   0  0  0  0  0  0  0  0  0  0  0  0
  -23.3844  -34.7112   24.4572 C   0  0  0  0  0  0  0  0  0  0  0  0
  -23.8301  -29.8306   20.1674 C   0  0  0  0  0  0  0  0  0  0  0  0
  -23.5814  -27.1348   21.3571 C   0  0  0  0  0  0  0  0  0  0  0  0
  -22.3918  -33.5515   24.4426 C   0  0  0  0  0  0  0  0  0  0  0  0
  -29.5788  -20.7328   26.2166 C   0  0  0  0  0  0  0  0  0  0  0  0
  -23.0689  -32.2635   24.9000 C   0  0  0  0  0  0  0  0  0  0  0  0
  -28.2926  -20.6112   25.4014 C   0  0  0  0  0  0  0  0  0  0  0  0
  -30.4766  -19.5114   26.0436 C   0  0  0  0  0  0  0  0  0  0  0  0
  -30.3063  -24.2789   19.6660 C   0  0  0  0  0  0  0  0  0  0  0  0
  -29.5146  -19.0873   23.7995 C   0  0  0  0  0  0  0  0  0  0  0  0
  -24.2146  -31.8775   23.9567 C   0  0  1  0  0  0  0  0  0  0  0  0
  -29.6005  -24.9232   18.4698 C   0  0  2  0  0  0  0  0  0  0  0  0
  -22.8450  -29.5381   21.2950 C   0  0  1  0  0  0  0  0  0  0  0  0
  -28.6114  -20.3234   23.9250 C   0  0  1  0  0  0  0  0  0  0  0  0
  -18.5848  -23.3606   19.3734 C   0  0  0  0  0  0  0  0  0  0  0  0
  -21.2244  -26.6253   24.4964 C   0  0  0  0  0  0  0  0  0  0  0  0
  -20.0888  -24.5759   23.6141 C   0  0  0  0  0  0  0  0  0  0  0  0
  -18.9419  -26.7876   23.4874 C   0  0  0  0  0  0  0  0  0  0  0  0
  -33.6800  -18.4622   22.4872 C   0  0  0  0  0  0  0  0  0  0  0  0
  -20.8331  -25.3781   17.0602 C   0  0  0  0  0  0  0  0  0  0  0  0
  -29.0238  -26.2883   18.7784 C   0  0  0  0  0  0  0  0  0  1  0  0
  -20.8961  -26.3151   21.9544 C   0  0  1  0  0  0  0  0  0  0  0  0
  -19.4024  -24.5676   18.9403 C   0  0  2  0  0  0  0  0  0  0  0  0
  -20.3125  -26.0847   23.3770 C   0  0  0  0  0  0  0  0  0  0  0  0
  -26.8249  -18.9652   22.9034 N   0  0  0  0  0  0  0  0  0  0  0  0
  -27.3608  -20.1852   23.0775 N   0  0  0  0  0  0  0  0  0  0  0  0
  -29.9016  -22.8792   19.7095 N   0  0  0  0  0  0  0  0  0  0  0  0
  -22.4882  -28.1205   21.3802 N   0  0  0  0  0  0  0  0  0  0  0  0
  -30.7223  -19.2139   24.6316 N   0  0  0  0  0  0  0  0  0  0  0  0
  -31.1834  -18.2776   20.4391 N   0  0  0  0  0  0  0  0  0  0  0  0
  -27.0824  -22.4687   22.5130 N   0  0  0  0  0  0  0  0  0  0  0  0
  -23.6192  -20.4511   20.4317 N   0  0  0  0  0  0  0  0  0  0  0  0
  -23.6932  -31.2793   22.7465 N   0  0  0  0  0  0  0  0  0  0  0  0
  -20.0410  -25.8374   20.8732 N   0  0  0  0  0  0  0  0  0  0  0  0
  -32.3978  -19.0054   22.9299 N   0  0  0  0  0  0  0  0  0  0  0  0
  -20.0188  -24.2674   17.6171 N   0  3  0  0  0  0  0  0  0  0  0  0
  -27.5768  -24.0267   17.4320 O   0  0  0  0  0  0  0  0  0  0  0  0
  -28.1842  -21.6143   18.6672 O   0  0  0  0  0  0  0  0  0  0  0  0
  -24.6516  -22.4650   20.8018 O   0  0  0  0  0  0  0  0  0  0  0  0
  -23.4758  -29.0961   23.5270 O   0  0  0  0  0  0  0  0  0  0  0  0
  -20.2235  -28.5752   21.6977 O   0  0  0  0  0  0  0  0  0  0  0  0
  -21.5903  -24.3810   19.9482 O   0  0  0  0  0  0  0  0  0  0  0  0
  -32.6906  -18.0545   25.0130 O   0  0  0  0  0  0  0  0  0  0  0  0
  -22.4514  -15.0045   20.5086 O   0  0  0  0  0  0  0  0  0  0  0  0
  -28.1558  -26.1820   19.9061 O   0  0  0  0  0  0  0  0  0  1  0  0
  -24.8582  -10.3877   18.6929 F   0  0  0  0  0  0  0  0  0  0  0  0
  -24.1506  -13.5554   22.1382 F   0  0  0  0  0  0  0  0  0  0  0  0
  1  2  1  0  0  0  0
  1  5  2  0  0  0  0
  2  6  2  0  0  0  0
  3 10  2  0  0  0  0
  3 18  1  0  0  0  0
  4 11  1  0  0  0  0
  4 18  2  0  0  0  0
  5 20  1  0  0  0  0
  6 22  1  0  0  0  0
  7 12  2  0  0  0  0
  7 21  1  0  0  0  0
  8  9  2  0  0  0  0
  8 24  1  0  0  0  0
  9 25  1  0  0  0  0
 10 27  1  0  0  0  0
 11 27  2  0  0  0  0
 12 28  1  0  0  0  0
 13 14  2  0  0  0  0
 13 29  1  0  0  0  0
 14 30  1  0  0  0  0
 15 23  1  0  0  0  0
 15 28  2  0  0  0  0
 16 24  2  0  0  0  0
 16 26  1  0  0  0  0
 17 30  2  0  0  0  0
 17 31  1  0  0  0  0
 18 32  1  0  0  0  0
 19 32  1  0  0  0  0
 19 33  2  0  0  0  0
 19 36  1  0  0  0  0
 20 22  2  0  0  0  0
 20 41  1  0  0  0  0
 21 23  2  0  0  0  0
 21 42  1  0  0  0  0
 22 51  1  0  0  0  0
 23 43  1  0  0  0  0
 24 67  1  0  0  0  0
 25 26  2  0  0  0  0
 25 75  1  0  0  0  0
 26 70  1  0  0  0  0
 27 84  1  0  0  0  0
 28 85  1  0  0  0  0
 29 31  2  0  0  0  0
 29 84  1  0  0  0  0
 30 86  1  0  0  0  0
 31 87  1  0  0  0  0
 32 65  2  0  0  0  0
 33 66  1  0  0  0  0
 33 71  1  0  0  0  0
 34 35  1  0  0  0  0
 34 52  1  0  0  0  0
 34 77  2  0  0  0  0
 35 67  1  0  0  0  0
 35 78  2  0  0  0  0
 36 72  1  0  0  0  0
 36 79  2  0  0  0  0
 37 53  1  0  0  0  0
 37 73  1  0  0  0  0
 37 80  2  0  0  0  0
 38 62  1  0  0  0  0
 38 68  1  0  0  0  0
 38 81  2  0  0  0  0
 39 63  1  0  0  0  0
 39 74  1  0  0  0  0
 39 82  2  0  0  0  0
 40 69  1  0  0  0  0
 40 75  1  0  0  0  0
 40 83  2  0  0  0  0
 41 44  1  0  0  0  0
 42 53  1  0  0  0  0
 43 68  1  0  0  0  0
 44 46  1  0  0  0  0
 45 47  1  0  0  0  0
 45 48  1  0  0  0  0
 46 51  1  0  0  0  0
 47 54  1  0  0  0  0
 48 69  1  0  0  0  0
 49 52  1  0  0  0  0
 49 67  1  0  0  0  0
 50 54  1  0  0  0  0
 50 69  1  0  0  0  0
 51 73  1  0  0  0  0
 52 61  1  0  0  0  0
 53 68  1  0  0  0  0
 54 66  1  0  0  0  0
 55 63  1  0  0  0  0
 56 64  1  0  0  0  0
 57 64  1  0  0  0  0
 58 64  1  0  0  0  0
 59 75  1  0  0  0  0
 60 76  1  0  0  0  0
 61 85  1  0  0  0  0
 62 64  1  0  0  0  0
 62 74  1  0  0  0  0
 63 76  1  0  0  0  0
 65 66  1  0  0  0  0
M  CHG  1  76   1
M  ISO  4  40 100  61 101  75 100  85 101
M  END
> <Batch ID>
0073

> <Smiles>
CNC(C)C(=O)NC(C(=O)N1Cc2cc([101O:1][101CH2:1]C3CN(c4ccc([100N:0](C)[100C:0](=O)N5CCCC(n6nc(-c7ccc(Oc8ccc(F)cc8F)cc7)c(C(N)=O)c6N)C5)c(N)c4)C(=O)C3=O)ccc2CC1C(=O)NC1CCCc2ccccc21)C(C)(C)C

> <Shape>
0.211

> <Color>
0.068

> <Negative vol penalty>
0.000

$$$$

  -OEChem-04042323413D

 86 95  0     1  0  0  0  0  0999 V2000
  -20.0188  -33.7882   19.5884 C   0  0  0  0  0  0  0  0  0  0  0  0
  -21.0322  -32.9148   19.2068 C   0  0  0  0  0  0  0  0  0  0  0  0
  -23.0311   -9.9126   19.8836 C   0  0  0  0  0  0  0  0  0  0  0  0
  -24.0311   -9.5495   22.0528 C   0  0  0  0  0  0  0  0  0  0  0  0
  -19.6300  -33.8615   20.9253 C   0  0  0  0  0  0  0  0  0  0  0  0
  -21.6582  -32.1150   20.1622 C   0  0  0  0  0  0  0  0  0  0  0  0
  -23.7788  -26.4231   19.3807 C   0  0  0  0  0  0  0  0  0  0  0  0
  -31.4051  -18.5031   20.5670 C   0  0  0  0  0  0  0  0  0  0  0  0
  -31.0518  -19.6830   19.9124 C   0  0  0  0  0  0  0  0  0  0  0  0
  -22.3218   -8.7184   20.0106 C   0  0  0  0  0  0  0  0  0  0  0  0
  -23.3217   -8.3552   22.1798 C   0  0  0  0  0  0  0  0  0  0  0  0
  -25.0561  -25.9243   19.1290 C   0  0  0  0  0  0  0  0  0  0  0  0
  -20.1787   -7.3990   22.9722 C   0  0  0  0  0  0  0  0  0  0  0  0
  -19.5510   -7.1465   24.1919 C   0  0  0  0  0  0  0  0  0  0  0  0
  -25.3556  -25.5171   21.4877 C   0  0  0  0  0  0  0  0  0  0  0  0
  -29.3044  -18.5358   21.7599 C   0  0  0  0  0  0  0  0  0  0  0  0
  -20.8700   -5.1395   24.4552 C   0  0  0  0  0  0  0  0  0  0  0  0
  -23.8858  -10.3282   20.9047 C   0  0  0  0  0  0  0  0  0  0  0  0
  -24.2048  -12.8442   21.1798 C   0  0  0  0  0  0  0  0  0  0  0  0
  -20.2449  -33.0552   21.8961 C   0  0  0  0  0  0  0  0  0  0  0  0
  -23.2836  -26.4828   20.6913 C   0  0  0  0  0  0  0  0  0  0  0  0
  -21.2781  -32.1785   21.5136 C   0  0  0  0  0  0  0  0  0  0  0  0
  -24.0706  -26.0147   21.7532 C   0  0  0  0  0  0  0  0  0  0  0  0
  -30.5314  -17.9294   21.4907 C   0  0  0  0  0  0  0  0  0  0  0  0
  -29.8248  -20.2894   20.1816 C   0  0  0  0  0  0  0  0  0  0  0  0
  -22.4671   -7.9397   21.1587 C   0  0  0  0  0  0  0  0  0  0  0  0
  -25.8459  -25.4739   20.1828 C   0  0  0  0  0  0  0  0  0  0  0  0
  -21.1520   -6.5218   22.4939 C   0  0  0  0  0  0  0  0  0  0  0  0
  -19.8966   -6.0167   24.9334 C   0  0  0  0  0  0  0  0  0  0  0  0
  -28.9510  -19.7157   21.1053 C   0  0  0  0  0  0  0  0  0  0  0  0
  -21.4977   -5.3920   23.2354 C   0  0  0  0  0  0  0  0  0  0  0  0
  -24.6192  -11.5615   20.7738 C   0  0  0  0  0  0  0  0  0  0  0  0
  -25.2497  -13.6671   20.8369 C   0  0  0  0  0  0  0  0  0  0  0  0
  -29.5408  -23.3171   18.1429 C   0  0  0  0  0  0  0  0  0  0  0  0
  -28.3804  -23.3332   18.8024 C   0  0  0  0  0  0  0  0  0  0  0  0
  -30.2803  -22.1187   18.5870 C   0  0  0  0  0  0  0  0  0  0  0  0
  -22.9846  -13.2550   21.8106 C   0  0  0  0  0  0  0  0  0  0  0  0
  -22.3405  -28.8198   22.6285 C   0  0  0  0  0  0  0  0  0  0  0  0
  -21.4869  -26.3519   24.5530 C   0  0  0  0  0  0  0  0  0  0  0  0
  -21.9297  -23.0886   25.4481 C   0  0  0  0  0  0  0  0  0  0  0  0
  -30.7190  -14.7560   20.6214 C   0  0  0  0  0  0  0  0  0  0  0  0
  -19.8231  -33.2038   23.3364 C   0  0  0  0  0  0  0  0  0  0  0  0
  -21.8934  -26.9987   20.9433 C   0  0  0  0  0  0  0  0  0  0  0  0
  -23.5777  -26.0385   23.1762 C   0  0  0  0  0  0  0  0  0  0  0  0
  -28.2308  -22.1774   19.7307 C   0  0  0  0  0  0  0  0  0  0  0  0
  -20.2796  -32.0509   24.2268 C   0  0  0  0  0  0  0  0  0  0  0  0
  -29.3411  -12.7838   17.9968 C   0  0  0  0  0  0  0  0  0  0  0  0
  -21.7469  -31.7246   23.9672 C   0  0  0  0  0  0  0  0  0  0  0  0
  -27.9589  -12.3910   18.5214 C   0  0  0  0  0  0  0  0  0  0  0  0
  -30.3803  -12.8187   19.1153 C   0  0  0  0  0  0  0  0  0  0  0  0
  -28.6348  -13.2654   20.7968 C   0  0  0  0  0  0  0  0  0  0  0  0
  -21.9642  -31.2767   22.5167 C   0  0  1  0  0  0  0  0  0  0  0  0
  -21.6885  -27.4904   22.3729 C   0  0  1  0  0  0  0  0  0  0  0  0
  -27.5413  -13.2709   19.7149 C   0  0  2  0  0  0  0  0  0  0  0  0
  -21.1148  -21.3657   27.0806 C   0  0  0  0  0  0  0  0  0  0  0  0
  -23.1370  -27.6647   26.7583 C   0  0  0  0  0  0  0  0  0  0  0  0
  -23.0744  -25.4928   28.0021 C   0  0  0  0  0  0  0  0  0  0  0  0
  -20.9528  -26.7117   27.5167 C   0  0  0  0  0  0  0  0  0  0  0  0
  -20.9401  -21.3338   23.2800 C   0  0  0  0  0  0  0  0  0  0  0  0
  -30.9094  -16.6685   22.1915 C   0  0  0  0  0  0  0  0  0  0  0  0
  -27.3096  -24.3550   18.6790 C   0  0  0  0  0  0  0  0  0  1  0  0
  -22.1741  -25.5505   25.6320 C   0  0  1  0  0  0  0  0  0  0  0  0
  -20.9357  -21.9683   25.6958 C   0  0  2  0  0  0  0  0  0  0  0  0
  -22.3449  -26.3561   26.9508 C   0  0  0  0  0  0  0  0  0  0  0  0
  -25.8326  -11.5643   20.2155 N   0  0  0  0  0  0  0  0  0  0  0  0
  -26.1896  -12.8589   20.2682 N   0  0  0  0  0  0  0  0  0  0  0  0
  -29.4755  -21.4650   19.5284 N   0  0  0  0  0  0  0  0  0  0  0  0
  -22.2141  -26.5579   23.3721 N   0  0  0  0  0  0  0  0  0  0  0  0
  -29.9240  -13.6714   20.2155 N   0  0  0  0  0  0  0  0  0  0  0  0
  -25.4468  -14.9960   20.9693 N   0  0  0  0  0  0  0  0  0  0  0  0
  -22.0173  -12.2808   22.0926 N   0  0  0  0  0  0  0  0  0  0  0  0
  -21.5355  -29.9056   22.3415 N   0  0  0  0  0  0  0  0  0  0  0  0
  -21.4045  -24.3198   25.7791 N   0  0  0  0  0  0  0  0  0  0  0  0
  -30.2100  -15.5169   21.6668 N   0  0  0  0  0  0  0  0  0  0  0  0
  -21.1122  -20.8865   24.6862 N   0  3  0  0  0  0  0  0  0  0  0  0
  -31.3855  -21.8091   18.1725 O   0  0  0  0  0  0  0  0  0  0  0  0
  -22.7519  -14.4531   22.1003 O   0  0  0  0  0  0  0  0  0  0  0  0
  -23.4883  -28.8575   23.0560 O   0  0  0  0  0  0  0  0  0  0  0  0
  -20.3441  -26.7735   24.7478 O   0  0  0  0  0  0  0  0  0  0  0  0
  -23.0603  -22.8909   25.0086 O   0  0  0  0  0  0  0  0  0  0  0  0
  -31.7995  -15.0294   20.0880 O   0  0  0  0  0  0  0  0  0  0  0  0
  -21.7749   -6.7743   21.2831 O   0  0  0  0  0  0  0  0  0  0  0  0
  -27.0933  -24.9872   19.9399 O   0  0  0  0  0  0  0  0  0  1  0  0
  -19.2948   -5.7752   26.1054 F   0  0  0  0  0  0  0  0  0  0  0  0
  -27.7698  -20.2907   21.3728 F   0  0  0  0  0  0  0  0  0  0  0  0
  -22.4328   -4.5463   22.7816 F   0  0  0  0  0  0  0  0  0  0  0  0
  1  2  1  0  0  0  0
  1  5  2  0  0  0  0
  2  6  2  0  0  0  0
  3 10  2  0  0  0  0
  3 18  1  0  0  0  0
  4 11  1  0  0  0  0
  4 18  2  0  0  0  0
  5 20  1  0  0  0  0
  6 22  1  0  0  0  0
  7 12  2  0  0  0  0
  7 21  1  0  0  0  0
  8  9  2  0  0  0  0
  8 24  1  0  0  0  0
  9 25  1  0  0  0  0
 10 26  1  0  0  0  0
 11 26  2  0  0  0  0
 12 27  1  0  0  0  0
 13 14  2  0  0  0  0
 13 28  1  0  0  0  0
 14 29  1  0  0  0  0
 15 23  1  0  0  0  0
 15 27  2  0  0  0  0
 16 24  2  0  0  0  0
 16 30  1  0  0  0  0
 17 29  2  0  0  0  0
 17 31  1  0  0  0  0
 18 32  1  0  0  0  0
 19 32  1  0  0  0  0
 19 33  2  0  0  0  0
 19 37  1  0  0  0  0
 20 22  2  0  0  0  0
 20 42  1  0  0  0  0
 21 23  2  0  0  0  0
 21 43  1  0  0  0  0
 22 52  1  0  0  0  0
 23 44  1  0  0  0  0
 24 60  1  0  0  0  0
 25 30  2  0  0  0  0
 25 67  1  0  0  0  0
 26 82  1  0  0  0  0
 27 83  1  0  0  0  0
 28 31  2  0  0  0  0
 28 82  1  0  0  0  0
 29 84  1  0  0  0  0
 30 85  1  0  0  0  0
 31 86  1  0  0  0  0
 32 65  2  0  0  0  0
 33 66  1  0  0  0  0
 33 70  1  0  0  0  0
 34 35  2  0  0  0  0
 34 36  1  0  0  0  0
 35 45  1  0  0  0  0
 35 61  1  0  0  0  0
 36 67  1  0  0  0  0
 36 76  2  0  0  0  0
 37 71  1  0  0  0  0
 37 77  2  0  0  0  0
 38 53  1  0  0  0  0
 38 72  1  0  0  0  0
 38 78  2  0  0  0  0
 39 62  1  0  0  0  0
 39 68  1  0  0  0  0
 39 79  2  0  0  0  0
 40 63  1  0  0  0  0
 40 73  1  0  0  0  0
 40 80  2  0  0  0  0
 41 69  1  0  0  0  0
 41 74  1  0  0  0  0
 41 81  2  0  0  0  0
 42 46  1  0  0  0  0
 43 53  1  0  0  0  0
 44 68  1  0  0  0  0
 45 67  1  0  0  0  0
 46 48  1  0  0  0  0
 47 49  1  0  0  0  0
 47 50  1  0  0  0  0
 48 52  1  0  0  0  0
 49 54  1  0  0  0  0
 50 69  1  0  0  0  0
 51 54  1  0  0  0  0
 51 69  1  0  0  0  0
 52 72  1  0  0  0  0
 53 68  1  0  0  0  0
 54 66  1  0  0  0  0
 55 63  1  0  0  0  0
 56 64  1  0  0  0  0
 57 64  1  0  0  0  0
 58 64  1  0  0  0  0
 59 75  1  0  0  0  0
 60 74  1  0  0  0  0
 61 83  1  0  0  0  0
 62 64  1  0  0  0  0
 62 73  1  0  0  0  0
 63 75  1  0  0  0  0
 65 66  1  0  0  0  0
M  CHG  1  75   1
M  ISO  4  41 100  61 101  74 100  83 101
M  END
> <Batch ID>
0073

> <Smiles>
CNC(C)C(=O)NC(C(=O)N1Cc2cc([101O:1][101CH2:1]C3=CC(=O)N(c4ccc(C[100NH:0][100C:0](=O)N5CCCC(n6nc(-c7ccc(Oc8ccc(F)cc8F)cc7)c(C(N)=O)c6N)C5)cc4F)C3)ccc2CC1C(=O)NC1CCCc2ccccc21)C(C)(C)C

> <Shape>
0.282

> <Color>
0.206

> <Negative vol penalty>
0.000

$$$$

  -OEChem-04042323413D

 84 93  0     1  0  0  0  0  0999 V2000
  -27.3341  -37.7069   23.9876 C   0  0  0  0  0  0  0  0  0  0  0  0
  -27.9373  -36.7668   23.1584 C   0  0  0  0  0  0  0  0  0  0  0  0
  -24.1630   -9.2402   22.0647 C   0  0  0  0  0  0  0  0  0  0  0  0
  -22.8923  -11.2091   21.4768 C   0  0  0  0  0  0  0  0  0  0  0  0
  -26.4219  -37.2953   24.9583 C   0  0  0  0  0  0  0  0  0  0  0  0
  -27.6294  -35.4142   23.3001 C   0  0  0  0  0  0  0  0  0  0  0  0
  -26.9360  -29.4132   19.4500 C   0  0  0  0  0  0  0  0  0  0  0  0
  -28.5332  -19.7600   19.8523 C   0  0  0  0  0  0  0  0  0  0  0  0
  -28.7962  -18.3984   19.7020 C   0  0  0  0  0  0  0  0  0  0  0  0
  -23.2690   -8.9728   23.1014 C   0  0  0  0  0  0  0  0  0  0  0  0
  -21.9982  -10.9417   22.5135 C   0  0  0  0  0  0  0  0  0  0  0  0
  -27.3835  -28.0930   19.4231 C   0  0  0  0  0  0  0  0  0  0  0  0
  -20.1833   -7.6341   23.4465 C   0  0  0  0  0  0  0  0  0  0  0  0
  -19.7373   -6.3209   23.5952 C   0  0  0  0  0  0  0  0  0  0  0  0
  -25.7331  -27.5063   21.0818 C   0  0  0  0  0  0  0  0  0  0  0  0
  -26.2709  -19.4082   19.0805 C   0  0  0  0  0  0  0  0  0  0  0  0
  -20.6693   -6.2567   25.8233 C   0  0  0  0  0  0  0  0  0  0  0  0
  -23.9747  -10.3585   21.2524 C   0  0  0  0  0  0  0  0  0  0  0  0
  -24.8162  -10.1853   18.8504 C   0  0  0  0  0  0  0  0  0  0  0  0
  -26.0953  -35.9380   25.1056 C   0  0  0  0  0  0  0  0  0  0  0  0
  -25.8893  -29.7927   20.3024 C   0  0  0  0  0  0  0  0  0  0  0  0
  -26.7129  -34.9838   24.2746 C   0  0  0  0  0  0  0  0  0  0  0  0
  -25.2725  -28.8313   21.1158 C   0  0  0  0  0  0  0  0  0  0  0  0
  -27.2705  -20.2649   19.5415 C   0  0  0  0  0  0  0  0  0  0  0  0
  -27.7966  -17.5417   19.2410 C   0  0  0  0  0  0  0  0  0  0  0  0
  -26.5339  -18.0466   18.9302 C   0  0  0  0  0  0  0  0  0  0  0  0
  -22.1866   -9.8235   23.3258 C   0  0  0  0  0  0  0  0  0  0  0  0
  -26.7839  -27.1399   20.2412 C   0  0  0  0  0  0  0  0  0  0  0  0
  -20.8724   -8.2586   24.4861 C   0  0  0  0  0  0  0  0  0  0  0  0
  -19.9802   -5.6322   24.7836 C   0  0  0  0  0  0  0  0  0  0  0  0
  -21.1153   -7.5699   25.6745 C   0  0  0  0  0  0  0  0  0  0  0  0
  -24.8983  -10.6356   20.1817 C   0  0  0  0  0  0  0  0  0  0  0  0
  -25.9242  -10.7188   18.2387 C   0  0  0  0  0  0  0  0  0  0  0  0
  -26.6461  -23.5712   19.8078 C   0  0  0  0  0  0  0  0  0  0  0  0
  -25.9028  -22.3568   19.4696 C   0  0  0  0  0  0  0  0  0  0  0  0
  -26.3272  -24.8770   19.8653 C   0  0  0  0  0  0  0  0  0  1  0  0
  -23.8269   -9.3589   18.2229 C   0  0  0  0  0  0  0  0  0  0  0  0
  -25.6022  -31.8107   22.7415 C   0  0  0  0  0  0  0  0  0  0  0  0
  -22.4654  -31.0126   22.5266 C   0  0  0  0  0  0  0  0  0  0  0  0
  -20.1139  -28.7452   21.5388 C   0  0  0  0  0  0  0  0  0  0  0  0
  -29.2958  -15.5212   19.3676 C   0  0  0  0  0  0  0  0  0  0  0  0
  -25.1391  -35.5361   26.2005 C   0  0  0  0  0  0  0  0  0  0  0  0
  -25.4005  -31.2152   20.3000 C   0  0  0  0  0  0  0  0  0  0  0  0
  -24.1316  -29.1833   22.0338 C   0  0  0  0  0  0  0  0  0  0  0  0
  -27.8728  -22.7211   20.0467 C   0  0  0  0  0  0  0  0  0  0  0  0
  -24.5849  -34.1231   26.0368 C   0  0  0  0  0  0  0  0  0  0  0  0
  -30.3996  -12.1414   19.1773 C   0  0  0  0  0  0  0  0  0  0  0  0
  -25.7073  -33.1444   25.7067 C   0  0  0  0  0  0  0  0  0  0  0  0
  -29.1060  -11.3309   19.2860 C   0  0  0  0  0  0  0  0  0  0  0  0
  -30.3642  -13.3873   20.0606 C   0  0  0  0  0  0  0  0  0  0  0  0
  -27.9029  -13.4450   19.9716 C   0  0  0  0  0  0  0  0  0  0  0  0
  -26.3861  -33.5101   24.3811 C   0  0  1  0  0  0  0  0  0  0  0  0
  -24.6692  -31.5979   21.5830 C   0  0  1  0  0  0  0  0  0  0  0  0
  -27.8656  -12.2149   19.0502 C   0  0  2  0  0  0  0  0  0  0  0  0
  -17.6351  -28.3542   21.5315 C   0  0  0  0  0  0  0  0  0  0  0  0
  -22.5704  -30.3078   25.4934 C   0  0  0  0  0  0  0  0  0  0  0  0
  -20.4186  -29.0617   25.2022 C   0  0  0  0  0  0  0  0  0  0  0  0
  -20.5015  -31.5191   24.7816 C   0  0  0  0  0  0  0  0  0  0  0  0
  -20.0198  -28.6545   18.5821 C   0  0  0  0  0  0  0  0  0  0  0  0
  -21.5907  -29.9420   23.1328 C   0  0  1  0  0  0  0  0  0  0  0  0
  -18.8218  -28.9089   20.7590 C   0  0  2  0  0  0  0  0  0  0  0  0
  -21.2931  -30.2011   24.6367 C   0  0  0  0  0  0  0  0  0  0  0  0
  -25.9735  -11.3963   20.4034 N   0  0  0  0  0  0  0  0  0  0  0  0
  -26.5773  -11.4282   19.2032 N   0  0  0  0  0  0  0  0  0  0  0  0
  -27.0114  -21.6077   19.6900 N   0  0  0  0  0  0  0  0  0  0  0  0
  -23.6938  -30.5886   22.0002 N   0  0  0  0  0  0  0  0  0  0  0  0
  -29.1640  -14.1779   19.7789 N   0  0  0  0  0  0  0  0  0  0  0  0
  -25.5068  -17.1966   18.4620 N   0  0  0  0  0  0  0  0  0  0  0  0
  -26.3939  -10.6454   16.9751 N   0  0  0  0  0  0  0  0  0  0  0  0
  -22.7538   -8.8966   18.9969 N   0  0  0  0  0  0  0  0  0  0  0  0
  -28.0875  -16.1625   19.0969 N   0  0  0  0  0  0  0  0  0  0  0  0
  -25.5695  -33.0901   23.2625 N   0  0  0  0  0  0  0  0  0  0  0  0
  -20.4004  -29.8633   22.2930 N   0  0  0  0  0  0  0  0  0  0  0  0
  -18.9096  -28.1931   19.4548 N   0  3  0  0  0  0  0  0  0  0  0  0
  -24.7664  -22.1133   19.1208 O   0  0  0  0  0  0  0  0  0  0  0  0
  -23.9012   -9.0263   17.0157 O   0  0  0  0  0  0  0  0  0  0  0  0
  -26.2990  -30.8824   23.1345 O   0  0  0  0  0  0  0  0  0  0  0  0
  -22.0701  -32.1811   22.5139 O   0  0  0  0  0  0  0  0  0  0  0  0
  -20.7986  -27.7258   21.4870 O   0  0  0  0  0  0  0  0  0  0  0  0
  -30.4006  -16.0545   19.2370 O   0  0  0  0  0  0  0  0  0  0  0  0
  -21.3139   -9.5626   24.3372 O   0  0  0  0  0  0  0  0  0  0  0  0
  -27.2191  -25.8508   20.2175 O   0  0  0  0  0  0  0  0  0  1  0  0
  -19.5505   -4.3716   24.9269 F   0  0  0  0  0  0  0  0  0  0  0  0
  -21.7758   -8.1650   26.6773 F   0  0  0  0  0  0  0  0  0  0  0  0
  1  2  1  0  0  0  0
  1  5  2  0  0  0  0
  2  6  2  0  0  0  0
  3 10  2  0  0  0  0
  3 18  1  0  0  0  0
  4 11  1  0  0  0  0
  4 18  2  0  0  0  0
  5 20  1  0  0  0  0
  6 22  1  0  0  0  0
  7 12  2  0  0  0  0
  7 21  1  0  0  0  0
  8  9  2  0  0  0  0
  8 24  1  0  0  0  0
  9 25  1  0  0  0  0
 10 27  1  0  0  0  0
 11 27  2  0  0  0  0
 12 28  1  0  0  0  0
 13 14  2  0  0  0  0
 13 29  1  0  0  0  0
 14 30  1  0  0  0  0
 15 23  1  0  0  0  0
 15 28  2  0  0  0  0
 16 24  2  0  0  0  0
 16 26  1  0  0  0  0
 17 30  2  0  0  0  0
 17 31  1  0  0  0  0
 18 32  1  0  0  0  0
 19 32  1  0  0  0  0
 19 33  2  0  0  0  0
 19 37  1  0  0  0  0
 20 22  2  0  0  0  0
 20 42  1  0  0  0  0
 21 23  2  0  0  0  0
 21 43  1  0  0  0  0
 22 52  1  0  0  0  0
 23 44  1  0  0  0  0
 24 65  1  0  0  0  0
 25 26  2  0  0  0  0
 25 71  1  0  0  0  0
 26 68  1  0  0  0  0
 27 81  1  0  0  0  0
 28 82  1  0  0  0  0
 29 31  2  0  0  0  0
 29 81  1  0  0  0  0
 30 83  1  0  0  0  0
 31 84  1  0  0  0  0
 32 63  2  0  0  0  0
 33 64  1  0  0  0  0
 33 69  1  0  0  0  0
 34 35  1  0  0  0  0
 34 36  2  0  0  0  0
 34 45  1  0  0  0  0
 35 65  1  0  0  0  0
 35 75  2  0  0  0  0
 36 82  1  0  0  0  0
 37 70  1  0  0  0  0
 37 76  2  0  0  0  0
 38 53  1  0  0  0  0
 38 72  1  0  0  0  0
 38 77  2  0  0  0  0
 39 60  1  0  0  0  0
 39 66  1  0  0  0  0
 39 78  2  0  0  0  0
 40 61  1  0  0  0  0
 40 73  1  0  0  0  0
 40 79  2  0  0  0  0
 41 67  1  0  0  0  0
 41 71  1  0  0  0  0
 41 80  2  0  0  0  0
 42 46  1  0  0  0  0
 43 53  1  0  0  0  0
 44 66  1  0  0  0  0
 45 65  1  0  0  0  0
 46 48  1  0  0  0  0
 47 49  1  0  0  0  0
 47 50  1  0  0  0  0
 48 52  1  0  0  0  0
 49 54  1  0  0  0  0
 50 67  1  0  0  0  0
 51 54  1  0  0  0  0
 51 67  1  0  0  0  0
 52 72  1  0  0  0  0
 53 66  1  0  0  0  0
 54 64  1  0  0  0  0
 55 61  1  0  0  0  0
 56 62  1  0  0  0  0
 57 62  1  0  0  0  0
 58 62  1  0  0  0  0
 59 74  1  0  0  0  0
 60 62  1  0  0  0  0
 60 73  1  0  0  0  0
 61 74  1  0  0  0  0
 63 64  1  0  0  0  0
M  CHG  1  74   1
M  ISO  4  36 101  41 100  71 100  82 101
M  END
> <Batch ID>
0073

> <Smiles>
CNC(C)C(=O)NC(C(=O)N1Cc2cc([101O:1][101CH:1]=C3CN(c4ccc([100NH:0][100C:0](=O)N5CCCC(n6nc(-c7ccc(Oc8ccc(F)cc8F)cc7)c(C(N)=O)c6N)C5)c(N)c4)C3=O)ccc2CC1C(=O)NC1CCCc2ccccc21)C(C)(C)C

> <Shape>
0.290

> <Color>
0.084

> <Negative vol penalty>
0.000

$$$$

  -OEChem-04042323413D

 85 94  0     1  0  0  0  0  0999 V2000
  -21.5099  -14.4324   17.4005 C   0  0  0  0  0  0  0  0  0  0  0  0
  -22.2321  -15.2902   18.2239 C   0  0  0  0  0  0  0  0  0  0  0  0
  -23.0737   -9.8707   19.9406 C   0  0  0  0  0  0  0  0  0  0  0  0
  -23.8341   -9.8752   22.2337 C   0  0  0  0  0  0  0  0  0  0  0  0
  -20.4312  -14.9193   16.6635 C   0  0  0  0  0  0  0  0  0  0  0  0
  -21.8766  -16.6358   18.3100 C   0  0  0  0  0  0  0  0  0  0  0  0
  -21.8362  -18.3332   23.0810 C   0  0  0  0  0  0  0  0  0  0  0  0
  -31.3258  -19.0769   20.6094 C   0  0  0  0  0  0  0  0  0  0  0  0
  -31.1558  -17.6925   20.6011 C   0  0  0  0  0  0  0  0  0  0  0  0
  -22.3288   -8.7180   20.1898 C   0  0  0  0  0  0  0  0  0  0  0  0
  -23.0892   -8.7225   22.4830 C   0  0  0  0  0  0  0  0  0  0  0  0
  -23.0686  -18.6291   23.6620 C   0  0  0  0  0  0  0  0  0  0  0  0
  -19.8605   -7.9271   23.0857 C   0  0  0  0  0  0  0  0  0  0  0  0
  -19.1038   -7.8870   24.2567 C   0  0  0  0  0  0  0  0  0  0  0  0
  -22.7092  -20.9725   23.2163 C   0  0  0  0  0  0  0  0  0  0  0  0
  -29.5258  -17.8820   22.3744 C   0  0  0  0  0  0  0  0  0  0  0  0
  -20.3437   -5.9478   24.9914 C   0  0  0  0  0  0  0  0  0  0  0  0
  -23.8264  -10.4493   20.9625 C   0  0  0  0  0  0  0  0  0  0  0  0
  -24.1704  -12.9742   20.8444 C   0  0  0  0  0  0  0  0  0  0  0  0
  -20.0563  -16.2695   16.7480 C   0  0  0  0  0  0  0  0  0  0  0  0
  -21.0347  -19.3553   22.5526 C   0  0  0  0  0  0  0  0  0  0  0  0
  -20.7926  -17.1416   17.5724 C   0  0  0  0  0  0  0  0  0  0  0  0
  -21.4660  -20.6872   22.6314 C   0  0  0  0  0  0  0  0  0  0  0  0
  -30.5958  -19.8639   21.5002 C   0  0  0  0  0  0  0  0  0  0  0  0
  -29.6958  -19.2665   22.3827 C   0  0  0  0  0  0  0  0  0  0  0  0
  -30.2558  -17.0950   21.4836 C   0  0  0  0  0  0  0  0  0  0  0  0
  -22.3366   -8.1439   21.4610 C   0  0  0  0  0  0  0  0  0  0  0  0
  -23.5065  -19.9486   23.7271 C   0  0  0  0  0  0  0  0  0  0  0  0
  -20.8588   -6.9776   22.8674 C   0  0  0  0  0  0  0  0  0  0  0  0
  -19.3454   -6.8973   25.2096 C   0  0  0  0  0  0  0  0  0  0  0  0
  -21.1004   -5.9880   23.8203 C   0  0  0  0  0  0  0  0  0  0  0  0
  -24.5965  -11.6397   20.7055 C   0  0  0  0  0  0  0  0  0  0  0  0
  -25.2632  -13.7230   20.4814 C   0  0  0  0  0  0  0  0  0  0  0  0
  -27.6174  -22.0380   24.7096 C   0  0  0  0  0  0  0  0  0  0  0  0
  -26.8825  -21.1973   23.9627 C   0  0  0  0  0  0  0  0  0  0  0  0
  -22.9005  -13.4908   21.2640 C   0  0  0  0  0  0  0  0  0  0  0  0
  -19.9089  -20.0566   19.6639 C   0  0  0  0  0  0  0  0  0  0  0  0
  -18.3130  -22.3753   21.2760 C   0  0  0  0  0  0  0  0  0  0  0  0
  -18.1307  -24.3941   24.0215 C   0  0  0  0  0  0  0  0  0  0  0  0
  -30.7303  -14.7636   20.6556 C   0  0  0  0  0  0  0  0  0  0  0  0
  -18.9124  -16.7599   15.8961 C   0  0  0  0  0  0  0  0  0  0  0  0
  -19.6959  -19.0224   21.9532 C   0  0  0  0  0  0  0  0  0  0  0  0
  -20.6338  -21.8232   22.0971 C   0  0  0  0  0  0  0  0  0  0  0  0
  -29.0882  -21.8582   24.9189 C   0  0  0  0  0  0  0  0  0  0  0  0
  -27.4890  -20.0217   23.2308 C   0  0  0  0  0  0  0  0  0  0  0  0
  -18.3678  -18.1181   16.3309 C   0  0  0  0  0  0  0  0  0  0  0  0
  -29.6132  -12.3526   18.2857 C   0  0  0  0  0  0  0  0  0  0  0  0
  -19.5111  -19.0964   16.5814 C   0  0  0  0  0  0  0  0  0  0  0  0
  -28.1734  -12.0620   18.7154 C   0  0  0  0  0  0  0  0  0  0  0  0
  -29.5668  -20.4555   24.5483 C   0  0  0  0  0  0  0  0  0  0  0  0
  -30.5288  -12.5797   19.4873 C   0  0  0  0  0  0  0  0  0  0  0  0
  -28.6228  -13.3048   20.8696 C   0  0  0  0  0  0  0  0  0  0  0  0
  -20.4223  -18.6023   17.7114 C   0  0  1  0  0  0  0  0  0  0  0  0
  -19.1931  -20.0884   20.9846 C   0  0  1  0  0  0  0  0  0  0  0  0
  -27.6495  -13.1333   19.6919 C   0  0  2  0  0  0  0  0  0  0  0  0
  -30.7975  -21.3442   21.4873 C   0  0  0  0  0  0  0  0  0  0  0  0
  -16.7329  -26.2121   25.0406 C   0  0  0  0  0  0  0  0  0  0  0  0
  -19.4898  -24.3830   19.3026 C   0  0  0  0  0  0  0  0  0  0  0  0
  -18.8607  -26.2105   20.8940 C   0  0  0  0  0  0  0  0  0  0  0  0
  -17.0889  -24.7750   19.8827 C   0  0  0  0  0  0  0  0  0  0  0  0
  -17.5272  -22.7517   26.4084 C   0  0  0  0  0  0  0  0  0  0  0  0
  -25.4028  -21.3823   23.7925 C   0  0  0  0  0  0  0  0  0  1  0  0
  -18.6052  -23.8061   21.6586 C   0  0  1  0  0  0  0  0  0  0  0  0
  -16.9829  -24.7141   24.9621 C   0  0  2  0  0  0  0  0  0  0  0  0
  -18.5280  -24.7723   20.4429 C   0  0  0  0  0  0  0  0  0  0  0  0
  -25.8611  -11.5430   20.2869 N   0  0  0  0  0  0  0  0  0  0  0  0
  -26.2391  -12.8264   20.1594 N   0  0  0  0  0  0  0  0  0  0  0  0
  -28.9576  -20.0396   23.2818 N   0  0  1  0  0  0  0  0  0  0  0  0
  -19.3353  -21.4460   21.5147 N   0  0  0  0  0  0  0  0  0  0  0  0
  -29.9709  -13.6103   20.3657 N   0  0  0  0  0  0  0  0  0  0  0  0
  -25.4747  -15.0543   20.4094 N   0  0  0  0  0  0  0  0  0  0  0  0
  -21.8879  -12.5823   21.6008 N   0  0  0  0  0  0  0  0  0  0  0  0
  -30.0840  -15.6886   21.4749 N   0  0  0  0  0  0  0  0  0  0  0  0
  -19.8098  -18.8492   18.9992 N   0  0  0  0  0  0  0  0  0  0  0  0
  -17.6857  -24.1348   22.7425 N   0  0  0  0  0  0  0  0  0  0  0  0
  -17.2831  -24.2153   26.3340 N   0  3  0  0  0  0  0  0  0  0  0  0
  -22.6654  -14.7216   21.3224 O   0  0  0  0  0  0  0  0  0  0  0  0
  -20.5057  -21.0542   19.2759 O   0  0  0  0  0  0  0  0  0  0  0  0
  -17.2153  -22.0915   20.7900 O   0  0  0  0  0  0  0  0  0  0  0  0
  -19.3049  -24.3796   24.3842 O   0  0  0  0  0  0  0  0  0  0  0  0
  -31.8594  -14.9317   20.1879 O   0  0  0  0  0  0  0  0  0  0  0  0
  -21.6097   -7.0193   21.7047 O   0  0  0  0  0  0  0  0  0  0  0  0
  -24.7093  -20.2401   24.2931 O   0  0  0  0  0  0  0  0  0  1  0  0
  -18.6197   -6.8598   26.3348 F   0  0  0  0  0  0  0  0  0  0  0  0
  -22.0588   -5.0738   23.6167 F   0  0  0  0  0  0  0  0  0  0  0  0
  1  2  1  0  0  0  0
  1  5  2  0  0  0  0
  2  6  2  0  0  0  0
  3 10  2  0  0  0  0
  3 18  1  0  0  0  0
  4 11  1  0  0  0  0
  4 18  2  0  0  0  0
  5 20  1  0  0  0  0
  6 22  1  0  0  0  0
  7 12  2  0  0  0  0
  7 21  1  0  0  0  0
  8  9  2  0  0  0  0
  8 24  1  0  0  0  0
  9 26  1  0  0  0  0
 10 27  1  0  0  0  0
 11 27  2  0  0  0  0
 12 28  1  0  0  0  0
 13 14  2  0  0  0  0
 13 29  1  0  0  0  0
 14 30  1  0  0  0  0
 15 23  1  0  0  0  0
 15 28  2  0  0  0  0
 16 25  1  0  0  0  0
 16 26  2  0  0  0  0
 17 30  2  0  0  0  0
 17 31  1  0  0  0  0
 18 32  1  0  0  0  0
 19 32  1  0  0  0  0
 19 33  2  0  0  0  0
 19 36  1  0  0  0  0
 20 22  2  0  0  0  0
 20 41  1  0  0  0  0
 21 23  2  0  0  0  0
 21 42  1  0  0  0  0
 22 53  1  0  0  0  0
 23 43  1  0  0  0  0
 24 25  2  0  0  0  0
 24 56  1  0  0  0  0
 25 68  1  0  0  0  0
 26 73  1  0  0  0  0
 27 82  1  0  0  0  0
 28 83  1  0  0  0  0
 29 31  2  0  0  0  0
 29 82  1  0  0  0  0
 30 84  1  0  0  0  0
 31 85  1  0  0  0  0
 32 66  2  0  0  0  0
 33 67  1  0  0  0  0
 33 71  1  0  0  0  0
 34 35  2  0  0  0  0
 34 44  1  0  0  0  0
 35 45  1  0  0  0  0
 35 62  1  0  0  0  0
 36 72  1  0  0  0  0
 36 77  2  0  0  0  0
 37 54  1  0  0  0  0
 37 74  1  0  0  0  0
 37 78  2  0  0  0  0
 38 63  1  0  0  0  0
 38 69  1  0  0  0  0
 38 79  2  0  0  0  0
 39 64  1  0  0  0  0
 39 75  1  0  0  0  0
 39 80  2  0  0  0  0
 40 70  1  0  0  0  0
 40 73  1  0  0  0  0
 40 81  2  0  0  0  0
 41 46  1  0  0  0  0
 42 54  1  0  0  0  0
 43 69  1  0  0  0  0
 44 50  1  0  0  0  0
 45 68  1  0  0  0  0
 46 48  1  0  0  0  0
 47 49  1  0  0  0  0
 47 51  1  0  0  0  0
 48 53  1  0  0  0  0
 49 55  1  0  0  0  0
 50 68  1  0  0  0  0
 51 70  1  0  0  0  0
 52 55  1  0  0  0  0
 52 70  1  0  0  0  0
 53 74  1  0  0  0  0
 54 69  1  0  0  0  0
 55 67  1  0  0  0  0
 57 64  1  0  0  0  0
 58 65  1  0  0  0  0
 59 65  1  0  0  0  0
 60 65  1  0  0  0  0
 61 76  1  0  0  0  0
 62 83  1  0  0  0  0
 63 65  1  0  0  0  0
 63 75  1  0  0  0  0
 64 76  1  0  0  0  0
 66 67  1  0  0  0  0
M  CHG  1  76   1
M  ISO  4  40 100  62 101  73 100  83 101
M  END
> <Batch ID>
0073

> <Smiles>
CNC(C)C(=O)NC(C(=O)N1Cc2cc([101O:1][101CH2:1]C3=CCCN(c4cc([100NH:0][100C:0](=O)N5CCCC(n6nc(-c7ccc(Oc8ccc(F)cc8F)cc7)c(C(N)=O)c6N)C5)ccc4C)C3)ccc2CC1C(=O)NC1CCCc2ccccc21)C(C)(C)C

> <Shape>
0.187

> <Color>
0.196

> <Negative vol penalty>
0.000

$$$$

  -OEChem-04042323413D

 87 96  0     1  0  0  0  0  0999 V2000
  -17.9573  -30.8380   19.4524 C   0  0  0  0  0  0  0  0  0  0  0  0
  -19.0081  -30.1060   18.9090 C   0  0  0  0  0  0  0  0  0  0  0  0
  -22.9268  -10.1650   19.9133 C   0  0  0  0  0  0  0  0  0  0  0  0
  -23.9330   -9.7432   22.0689 C   0  0  0  0  0  0  0  0  0  0  0  0
  -18.0297  -31.2860   20.7707 C   0  0  0  0  0  0  0  0  0  0  0  0
  -20.1325  -29.8224   19.6834 C   0  0  0  0  0  0  0  0  0  0  0  0
  -23.5544  -24.7473   19.4857 C   0  0  0  0  0  0  0  0  0  0  0  0
  -31.7952  -18.2916   20.5306 C   0  0  0  0  0  0  0  0  0  0  0  0
  -31.5542  -19.4744   19.8317 C   0  0  0  0  0  0  0  0  0  0  0  0
  -22.1655   -9.0033   20.0413 C   0  0  0  0  0  0  0  0  0  0  0  0
  -23.1716   -8.5815   22.1970 C   0  0  0  0  0  0  0  0  0  0  0  0
  -24.7650  -24.4560   18.8583 C   0  0  0  0  0  0  0  0  0  0  0  0
  -19.9973   -7.7639   23.0191 C   0  0  0  0  0  0  0  0  0  0  0  0
  -19.3722   -7.5323   24.2443 C   0  0  0  0  0  0  0  0  0  0  0  0
  -25.9385  -24.9489   20.9075 C   0  0  0  0  0  0  0  0  0  0  0  0
  -29.4203  -19.6961   20.9429 C   0  0  0  0  0  0  0  0  0  0  0  0
  -20.6015   -5.4659   24.4810 C   0  0  0  0  0  0  0  0  0  0  0  0
  -23.8107  -10.5349   20.9270 C   0  0  0  0  0  0  0  0  0  0  0  0
  -24.2467  -13.0320   21.2132 C   0  0  0  0  0  0  0  0  0  0  0  0
  -19.1513  -30.9995   21.5647 C   0  0  0  0  0  0  0  0  0  0  0  0
  -23.5277  -25.1527   20.8278 C   0  0  0  0  0  0  0  0  0  0  0  0
  -20.2206  -30.2682   21.0132 C   0  0  0  0  0  0  0  0  0  0  0  0
  -24.7261  -25.2422   21.5503 C   0  0  0  0  0  0  0  0  0  0  0  0
  -30.8487  -17.8109   21.4356 C   0  0  0  0  0  0  0  0  0  0  0  0
  -29.6613  -18.5133   21.6417 C   0  0  0  0  0  0  0  0  0  0  0  0
  -30.3668  -20.1767   20.0379 C   0  0  0  0  0  0  0  0  0  0  0  0
  -22.2878   -8.2116   21.1832 C   0  0  0  0  0  0  0  0  0  0  0  0
  -25.9575  -24.5596   19.5684 C   0  0  0  0  0  0  0  0  0  0  0  0
  -20.9245   -6.8464   22.5248 C   0  0  0  0  0  0  0  0  0  0  0  0
  -19.6743   -6.3834   24.9753 C   0  0  0  0  0  0  0  0  0  0  0  0
  -21.2266   -5.6975   23.2558 C   0  0  0  0  0  0  0  0  0  0  0  0
  -24.5979  -11.7345   20.7951 C   0  0  0  0  0  0  0  0  0  0  0  0
  -25.3239  -13.8089   20.8633 C   0  0  0  0  0  0  0  0  0  0  0  0
  -30.8002  -23.4205   18.0931 C   0  0  0  0  0  0  0  0  0  0  0  0
  -29.5755  -23.5653   17.5819 C   0  0  0  0  0  0  0  0  0  0  0  0
  -31.1721  -22.2376   18.9156 C   0  0  0  0  0  0  0  0  0  0  0  0
  -23.0533  -13.4938   21.8600 C   0  0  0  0  0  0  0  0  0  0  0  0
  -22.5920  -27.7754   22.3606 C   0  0  0  0  0  0  0  0  0  0  0  0
  -23.2453  -25.9985   24.9946 C   0  0  0  0  0  0  0  0  0  0  0  0
  -24.9629  -23.3954   26.3805 C   0  0  0  0  0  0  0  0  0  0  0  0
  -30.8344  -14.6499   20.5926 C   0  0  0  0  0  0  0  0  0  0  0  0
  -19.2048  -31.5455   22.9696 C   0  0  0  0  0  0  0  0  0  0  0  0
  -22.2114  -25.4374   21.4976 C   0  0  0  0  0  0  0  0  0  0  0  0
  -24.7499  -25.6535   22.9990 C   0  0  0  0  0  0  0  0  0  0  0  0
  -20.2682  -30.8819   23.8409 C   0  0  0  0  0  0  0  0  0  0  0  0
  -29.3396  -12.7589   17.9722 C   0  0  0  0  0  0  0  0  0  0  0  0
  -21.5909  -30.7840   23.0873 C   0  0  0  0  0  0  0  0  0  0  0  0
  -27.9469  -12.4258   18.5101 C   0  0  0  0  0  0  0  0  0  0  0  0
  -30.3915  -12.7395   19.0791 C   0  0  0  0  0  0  0  0  0  0  0  0
  -28.7260  -21.8541   19.1722 C   0  0  0  0  0  0  0  0  0  0  0  0
  -28.6867  -13.2543   20.7827 C   0  0  0  0  0  0  0  0  0  0  0  0
  -21.4463  -29.9192   21.8293 C   0  0  1  0  0  0  0  0  0  0  0  0
  -28.4697  -22.5978   17.8575 C   0  0  1  0  0  0  0  0  0  0  0  0
  -22.3463  -26.3377   22.7217 C   0  0  1  0  0  0  0  0  0  0  0  0
  -27.5827  -13.3162   19.7133 C   0  0  2  0  0  0  0  0  0  0  0  0
  -28.6345  -18.0189   22.6071 C   0  0  0  0  0  0  0  0  0  0  0  0
  -25.3196  -22.2105   28.5637 C   0  0  0  0  0  0  0  0  0  0  0  0
  -25.0283  -28.2862   25.9421 C   0  0  0  0  0  0  0  0  0  0  0  0
  -26.0674  -26.7047   27.5815 C   0  0  0  0  0  0  0  0  0  0  0  0
  -23.6354  -27.2377   27.7352 C   0  0  0  0  0  0  0  0  0  0  0  0
  -23.9192  -20.8455   25.3000 C   0  0  0  0  0  0  0  0  0  0  0  0
  -31.1287  -16.5419   22.1715 C   0  0  0  0  0  0  0  0  0  0  0  0
  -27.1159  -23.3071   17.9116 C   0  0  0  0  0  0  0  0  0  1  0  0
  -24.4656  -25.7679   25.8530 C   0  0  1  0  0  0  0  0  0  0  0  0
  -24.5132  -22.2544   27.2751 C   0  0  2  0  0  0  0  0  0  0  0  0
  -24.7992  -26.9932   26.7501 C   0  0  0  0  0  0  0  0  0  0  0  0
  -25.8039  -11.6858   20.2232 N   0  0  0  0  0  0  0  0  0  0  0  0
  -26.2199  -12.9625   20.2793 N   0  0  0  0  0  0  0  0  0  0  0  0
  -30.1179  -21.4016   19.3166 N   0  0  0  0  0  0  0  0  0  0  0  0
  -23.4376  -25.9275   23.6076 N   0  0  0  0  0  0  0  0  0  0  0  0
  -29.9865  -13.6051   20.1893 N   0  0  0  0  0  0  0  0  0  0  0  0
  -25.5827  -15.1266   21.0012 N   0  0  0  0  0  0  0  0  0  0  0  0
  -22.0459  -12.5627   22.1472 N   0  0  0  0  0  0  0  0  0  0  0  0
  -21.4389  -28.5150   22.1793 N   0  0  0  0  0  0  0  0  0  0  0  0
  -24.2170  -24.5355   26.5931 N   0  0  0  0  0  0  0  0  0  0  0  0
  -30.3720  -15.4265   21.6480 N   0  0  0  0  0  0  0  0  0  0  0  0
  -24.6776  -20.9501   26.5731 N   0  3  0  0  0  0  0  0  0  0  0  0
  -32.3629  -22.1031   19.1968 O   0  0  0  0  0  0  0  0  0  0  0  0
  -22.8784  -14.6994   22.1593 O   0  0  0  0  0  0  0  0  0  0  0  0
  -23.7426  -28.1838   22.2557 O   0  0  0  0  0  0  0  0  0  0  0  0
  -22.1600  -26.2260   25.5350 O   0  0  0  0  0  0  0  0  0  0  0  0
  -25.8861  -23.2874   25.5764 O   0  0  0  0  0  0  0  0  0  0  0  0
  -31.9203  -14.8774   20.0486 O   0  0  0  0  0  0  0  0  0  0  0  0
  -21.5448   -7.0781   21.3086 O   0  0  0  0  0  0  0  0  0  0  0  0
  -27.1406  -24.2766   18.9584 O   0  0  0  0  0  0  0  0  0  1  0  0
  -19.0751   -6.1620   26.1526 F   0  0  0  0  0  0  0  0  0  0  0  0
  -22.1173   -4.8130   22.7866 F   0  0  0  0  0  0  0  0  0  0  0  0
  1  2  1  0  0  0  0
  1  5  2  0  0  0  0
  2  6  2  0  0  0  0
  3 10  2  0  0  0  0
  3 18  1  0  0  0  0
  4 11  1  0  0  0  0
  4 18  2  0  0  0  0
  5 20  1  0  0  0  0
  6 22  1  0  0  0  0
  7 12  2  0  0  0  0
  7 21  1  0  0  0  0
  8  9  2  0  0  0  0
  8 24  1  0  0  0  0
  9 26  1  0  0  0  0
 10 27  1  0  0  0  0
 11 27  2  0  0  0  0
 12 28  1  0  0  0  0
 13 14  2  0  0  0  0
 13 29  1  0  0  0  0
 14 30  1  0  0  0  0
 15 23  1  0  0  0  0
 15 28  2  0  0  0  0
 16 25  1  0  0  0  0
 16 26  2  0  0  0  0
 17 30  2  0  0  0  0
 17 31  1  0  0  0  0
 18 32  1  0  0  0  0
 19 32  1  0  0  0  0
 19 33  2  0  0  0  0
 19 37  1  0  0  0  0
 20 22  2  0  0  0  0
 20 42  1  0  0  0  0
 21 23  2  0  0  0  0
 21 43  1  0  0  0  0
 22 52  1  0  0  0  0
 23 44  1  0  0  0  0
 24 25  2  0  0  0  0
 24 62  1  0  0  0  0
 25 56  1  0  0  0  0
 26 69  1  0  0  0  0
 27 84  1  0  0  0  0
 28 85  1  0  0  0  0
 29 31  2  0  0  0  0
 29 84  1  0  0  0  0
 30 86  1  0  0  0  0
 31 87  1  0  0  0  0
 32 67  2  0  0  0  0
 33 68  1  0  0  0  0
 33 72  1  0  0  0  0
 34 35  2  0  0  0  0
 34 36  1  0  0  0  0
 35 53  1  0  0  0  0
 36 69  1  0  0  0  0
 36 78  2  0  0  0  0
 37 73  1  0  0  0  0
 37 79  2  0  0  0  0
 38 54  1  0  0  0  0
 38 74  1  0  0  0  0
 38 80  2  0  0  0  0
 39 64  1  0  0  0  0
 39 70  1  0  0  0  0
 39 81  2  0  0  0  0
 40 65  1  0  0  0  0
 40 75  1  0  0  0  0
 40 82  2  0  0  0  0
 41 71  1  0  0  0  0
 41 76  1  0  0  0  0
 41 83  2  0  0  0  0
 42 45  1  0  0  0  0
 43 54  1  0  0  0  0
 44 70  1  0  0  0  0
 45 47  1  0  0  0  0
 46 48  1  0  0  0  0
 46 49  1  0  0  0  0
 47 52  1  0  0  0  0
 48 55  1  0  0  0  0
 49 71  1  0  0  0  0
 50 53  1  0  0  0  0
 50 69  1  0  0  0  0
 51 55  1  0  0  0  0
 51 71  1  0  0  0  0
 52 74  1  0  0  0  0
 53 63  1  0  0  0  0
 54 70  1  0  0  0  0
 55 68  1  0  0  0  0
 57 65  1  0  0  0  0
 58 66  1  0  0  0  0
 59 66  1  0  0  0  0
 60 66  1  0  0  0  0
 61 77  1  0  0  0  0
 62 76  1  0  0  0  0
 63 85  1  0  0  0  0
 64 66  1  0  0  0  0
 64 75  1  0  0  0  0
 65 77  1  0  0  0  0
 67 68  1  0  0  0  0
M  CHG  1  77   1
M  ISO  4  41 100  63 101  76 100  85 101
M  END
> <Batch ID>
0073

> <Smiles>
CNC(C)C(=O)NC(C(=O)N1Cc2cc([101O:1][101CH2:1]C3=CCC(=O)N(c4ccc(C[100NH:0][100C:0](=O)N5CCCC(n6nc(-c7ccc(Oc8ccc(F)cc8F)cc7)c(C(N)=O)c6N)C5)c(C)c4)C3)ccc2CC1C(=O)NC1CCCc2ccccc21)C(C)(C)C

> <Shape>
0.258

> <Color>
0.183

> <Negative vol penalty>
0.000

$$$$

  -OEChem-04042323413D

 86 94  0     1  0  0  0  0  0999 V2000
  -43.0317  -17.7520   31.8831 C   0  0  0  0  0  0  0  0  0  0  0  0
  -41.9354  -18.3386   31.2592 C   0  0  0  0  0  0  0  0  0  0  0  0
  -23.0001   -9.8947   19.9813 C   0  0  0  0  0  0  0  0  0  0  0  0
  -23.7255   -9.9453   22.2852 C   0  0  0  0  0  0  0  0  0  0  0  0
  -32.6510  -17.4417   23.4533 C   0  0  0  0  0  0  0  0  0  0  0  0
  -44.0784  -17.2419   31.1161 C   0  0  0  0  0  0  0  0  0  0  0  0
  -41.8855  -18.4165   29.8678 C   0  0  0  0  0  0  0  0  0  0  0  0
  -37.3593  -17.1106   28.0097 C   0  0  0  0  0  0  0  0  0  0  0  0
  -32.0594  -16.5468   22.5619 C   0  0  0  0  0  0  0  0  0  0  0  0
  -22.2333   -8.7604   20.2476 C   0  0  0  0  0  0  0  0  0  0  0  0
  -22.9586   -8.8110   22.5516 C   0  0  0  0  0  0  0  0  0  0  0  0
  -36.3398  -18.0580   28.0921 C   0  0  0  0  0  0  0  0  0  0  0  0
  -23.2019   -5.4720   22.0794 C   0  0  0  0  0  0  0  0  0  0  0  0
  -23.7892   -4.4546   22.8314 C   0  0  0  0  0  0  0  0  0  0  0  0
  -30.4754  -18.3436   23.9918 C   0  0  0  0  0  0  0  0  0  0  0  0
  -36.7068  -18.6450   25.7813 C   0  0  0  0  0  0  0  0  0  0  0  0
  -22.0655   -4.6979   24.5068 C   0  0  0  0  0  0  0  0  0  0  0  0
  -23.7463  -10.4871   21.0001 C   0  0  0  0  0  0  0  0  0  0  0  0
  -31.8590  -18.3401   24.1683 C   0  0  0  0  0  0  0  0  0  0  0  0
  -24.1323  -13.0026   20.8242 C   0  0  0  0  0  0  0  0  0  0  0  0
  -44.0369  -17.3049   29.7144 C   0  0  0  0  0  0  0  0  0  0  0  0
  -38.0688  -16.9306   26.8136 C   0  0  0  0  0  0  0  0  0  0  0  0
  -42.9333  -17.9080   29.0814 C   0  0  0  0  0  0  0  0  0  0  0  0
  -37.7332  -17.6929   25.6856 C   0  0  0  0  0  0  0  0  0  0  0  0
  -30.6758  -16.5503   22.3853 C   0  0  0  0  0  0  0  0  0  0  0  0
  -22.2125   -8.2185   21.5327 C   0  0  0  0  0  0  0  0  0  0  0  0
  -36.0153  -18.8274   26.9786 C   0  0  0  0  0  0  0  0  0  0  0  0
  -22.0464   -6.1025   22.5412 C   0  0  0  0  0  0  0  0  0  0  0  0
  -23.2210   -4.0675   24.0451 C   0  0  0  0  0  0  0  0  0  0  0  0
  -29.8837  -17.4487   23.1003 C   0  0  0  0  0  0  0  0  0  0  0  0
  -21.4783   -5.7154   23.7548 C   0  0  0  0  0  0  0  0  0  0  0  0
  -24.5390  -11.6585   20.7255 C   0  0  0  0  0  0  0  0  0  0  0  0
  -25.2422  -13.7249   20.4598 C   0  0  0  0  0  0  0  0  0  0  0  0
  -32.4845  -19.2878   25.1124 C   0  0  0  0  0  0  0  0  0  0  0  0
  -22.8645  -13.5493   21.2109 C   0  0  0  0  0  0  0  0  0  0  0  0
  -41.1062  -17.2588   25.9361 C   0  0  0  0  0  0  0  0  0  0  0  0
  -40.0336  -15.9833   23.1531 C   0  0  0  0  0  0  0  0  0  0  0  0
  -37.4086  -15.4186   21.0466 C   0  0  0  0  0  0  0  0  0  0  0  0
  -30.7220  -14.6844   20.6934 C   0  0  0  0  0  0  0  0  0  0  0  0
  -45.2138  -16.7826   28.9291 C   0  0  0  0  0  0  0  0  0  0  0  0
  -39.1478  -15.8858   26.7335 C   0  0  0  0  0  0  0  0  0  0  0  0
  -38.4509  -17.5240   24.3723 C   0  0  0  0  0  0  0  0  0  0  0  0
  -44.9111  -16.5679   27.4483 C   0  0  0  0  0  0  0  0  0  0  0  0
  -29.6028  -12.2320   18.3674 C   0  0  0  0  0  0  0  0  0  0  0  0
  -44.1783  -17.7756   26.8728 C   0  0  0  0  0  0  0  0  0  0  0  0
  -28.1522  -11.9747   18.7816 C   0  0  0  0  0  0  0  0  0  0  0  0
  -30.5035  -12.4750   19.5771 C   0  0  0  0  0  0  0  0  0  0  0  0
  -28.5885  -13.2644   20.9108 C   0  0  0  0  0  0  0  0  0  0  0  0
  -42.8312  -17.9890   27.5737 C   0  0  1  0  0  0  0  0  0  0  0  0
  -40.1495  -16.1462   25.6127 C   0  0  1  0  0  0  0  0  0  0  0  0
  -27.6307  -13.0784   19.7227 C   0  0  2  0  0  0  0  0  0  0  0  0
  -36.8489  -14.3833   18.8303 C   0  0  0  0  0  0  0  0  0  0  0  0
  -31.1973  -19.0970   29.2698 C   0  0  0  0  0  0  0  0  0  0  0  0
  -30.3661  -21.0385   27.9201 C   0  0  0  0  0  0  0  0  0  0  0  0
  -41.2660  -18.3813   21.7244 C   0  0  0  0  0  0  0  0  0  0  0  0
  -39.8894  -17.8030   19.7147 C   0  0  0  0  0  0  0  0  0  0  0  0
  -41.5952  -16.1918   20.5615 C   0  0  0  0  0  0  0  0  0  0  0  0
  -35.5522  -13.4784   22.2909 C   0  0  0  0  0  0  0  0  0  0  0  0
  -33.9551  -19.4867   27.9670 C   0  0  0  0  0  0  0  0  0  1  0  0
  -39.4615  -16.5406   21.8721 C   0  0  1  0  0  0  0  0  0  0  0  0
  -36.9426  -14.1630   20.3321 C   0  0  2  0  0  0  0  0  0  0  0  0
  -31.6068  -20.3643   28.5145 C   0  0  0  0  0  0  0  0  0  0  0  0
  -32.6741  -20.1186   27.4298 C   0  0  2  0  0  0  0  0  0  0  0  0
  -40.5406  -17.2340   20.9933 C   0  0  0  0  0  0  0  0  0  0  0  0
  -25.8082  -11.5317   20.3292 N   0  0  0  0  0  0  0  0  0  0  0  0
  -26.2086  -12.8053   20.1756 N   0  0  0  0  0  0  0  0  0  0  0  0
  -39.5026  -16.4941   24.3459 N   0  0  0  0  0  0  0  0  0  0  0  0
  -29.9488  -13.5361   20.4205 N   0  0  0  0  0  0  0  0  0  0  0  0
  -25.4760  -15.0505   20.3578 N   0  0  0  0  0  0  0  0  0  0  0  0
  -33.3775  -20.1540   24.6337 N   0  0  0  0  0  0  0  0  0  0  0  0
  -21.8325  -12.6655   21.5544 N   0  0  0  0  0  0  0  0  0  0  0  0
  -30.0780  -15.6397   21.4791 N   0  0  0  0  0  0  0  0  0  0  0  0
  -41.8501  -17.0461   27.0810 N   0  0  0  0  0  0  0  0  0  0  0  0
  -38.7771  -15.4325   21.2146 N   0  0  0  0  0  0  0  0  0  0  0  0
  -32.1248  -19.2261   26.3961 N   0  3  0  0  0  0  0  0  0  0  0  0
  -35.6002  -13.7509   20.8313 N   0  3  0  0  0  0  0  0  0  0  0  0
  -22.6481  -14.7847   21.2347 O   0  0  0  0  0  0  0  0  0  0  0  0
  -41.1661  -18.2370   25.2005 O   0  0  0  0  0  0  0  0  0  0  0  0
  -40.9142  -15.1212   23.0974 O   0  0  0  0  0  0  0  0  0  0  0  0
  -36.6363  -16.3008   21.4153 O   0  0  0  0  0  0  0  0  0  0  0  0
  -31.8606  -14.8230   20.2393 O   0  0  0  0  0  0  0  0  0  0  0  0
  -21.4641   -7.1118   21.7930 O   0  0  0  0  0  0  0  0  0  0  0  0
  -35.0211  -19.7533   27.0564 O   0  0  0  0  0  0  0  0  0  1  0  0
  -23.7843   -3.0894   24.7664 F   0  0  0  0  0  0  0  0  0  0  0  0
  -28.5530  -17.4619   22.9375 F   0  0  0  0  0  0  0  0  0  0  0  0
  -20.3676   -6.3165   24.2030 F   0  0  0  0  0  0  0  0  0  0  0  0
  1  2  1  0  0  0  0
  1  6  2  0  0  0  0
  2  7  2  0  0  0  0
  3 10  2  0  0  0  0
  3 18  1  0  0  0  0
  4 11  1  0  0  0  0
  4 18  2  0  0  0  0
  5  9  2  0  0  0  0
  5 19  1  0  0  0  0
  6 21  1  0  0  0  0
  7 23  1  0  0  0  0
  8 12  2  0  0  0  0
  8 22  1  0  0  0  0
  9 25  1  0  0  0  0
 10 26  1  0  0  0  0
 11 26  2  0  0  0  0
 12 27  1  0  0  0  0
 13 14  2  0  0  0  0
 13 28  1  0  0  0  0
 14 29  1  0  0  0  0
 15 19  2  0  0  0  0
 15 30  1  0  0  0  0
 16 24  1  0  0  0  0
 16 27  2  0  0  0  0
 17 29  2  0  0  0  0
 17 31  1  0  0  0  0
 18 32  1  0  0  0  0
 19 34  1  0  0  0  0
 20 32  1  0  0  0  0
 20 33  2  0  0  0  0
 20 35  1  0  0  0  0
 21 23  2  0  0  0  0
 21 40  1  0  0  0  0
 22 24  2  0  0  0  0
 22 41  1  0  0  0  0
 23 49  1  0  0  0  0
 24 42  1  0  0  0  0
 25 30  2  0  0  0  0
 25 72  1  0  0  0  0
 26 82  1  0  0  0  0
 27 83  1  0  0  0  0
 28 31  2  0  0  0  0
 28 82  1  0  0  0  0
 29 84  1  0  0  0  0
 30 85  1  0  0  0  0
 31 86  1  0  0  0  0
 32 65  2  0  0  0  0
 33 66  1  0  0  0  0
 33 69  1  0  0  0  0
 34 70  1  0  0  0  0
 34 75  2  0  0  0  0
 35 71  1  0  0  0  0
 35 77  2  0  0  0  0
 36 50  1  0  0  0  0
 36 73  1  0  0  0  0
 36 78  2  0  0  0  0
 37 60  1  0  0  0  0
 37 67  1  0  0  0  0
 37 79  2  0  0  0  0
 38 61  1  0  0  0  0
 38 74  1  0  0  0  0
 38 80  2  0  0  0  0
 39 68  1  0  0  0  0
 39 72  1  0  0  0  0
 39 81  2  0  0  0  0
 40 43  1  0  0  0  0
 41 50  1  0  0  0  0
 42 67  1  0  0  0  0
 43 45  1  0  0  0  0
 44 46  1  0  0  0  0
 44 47  1  0  0  0  0
 45 49  1  0  0  0  0
 46 51  1  0  0  0  0
 47 68  1  0  0  0  0
 48 51  1  0  0  0  0
 48 68  1  0  0  0  0
 49 73  1  0  0  0  0
 50 67  1  0  0  0  0
 51 66  1  0  0  0  0
 52 61  1  0  0  0  0
 53 62  1  0  0  0  0
 54 62  1  0  0  0  0
 55 64  1  0  0  0  0
 56 64  1  0  0  0  0
 57 64  1  0  0  0  0
 58 76  1  0  0  0  0
 59 63  1  0  0  0  0
 59 83  1  0  0  0  0
 60 64  1  0  0  0  0
 60 74  1  0  0  0  0
 61 76  1  0  0  0  0
 62 63  1  0  0  0  0
 63 75  1  0  0  0  0
 65 66  1  0  0  0  0
M  CHG  2  75   1  76   1
M  ISO  4  39 100  59 101  72 100  83 101
M  END
> <Batch ID>
0073

> <Smiles>
CNC(C)C(=O)NC(C(=O)N1Cc2cc([101O:1][101CH2:1]C(NC(=N)c3ccc([100NH:0][100C:0](=O)N4CCCC(n5nc(-c6ccc(Oc7ccc(F)cc7F)cc6)c(C(N)=O)c5N)C4)c(F)c3)C(C)C)ccc2CC1C(=O)NC1CCCc2ccccc21)C(C)(C)C

> <Shape>
0.172

> <Color>
0.189

> <Negative vol penalty>
0.000

$$$$

  -OEChem-04042323413D

 87 96  0     1  0  0  0  0  0999 V2000
  -19.6972  -34.2364   17.6726 C   0  0  0  0  0  0  0  0  0  0  0  0
  -20.5613  -33.2216   17.2738 C   0  0  0  0  0  0  0  0  0  0  0  0
  -24.5421   -9.1544   21.6164 C   0  0  0  0  0  0  0  0  0  0  0  0
  -23.5419  -10.9030   22.9501 C   0  0  0  0  0  0  0  0  0  0  0  0
  -19.9859  -34.9893   18.8100 C   0  0  0  0  0  0  0  0  0  0  0  0
  -21.7152  -32.9599   18.0116 C   0  0  0  0  0  0  0  0  0  0  0  0
  -24.3229  -27.4994   18.9543 C   0  0  0  0  0  0  0  0  0  0  0  0
  -30.5680  -18.9332   19.9275 C   0  0  0  0  0  0  0  0  0  0  0  0
  -30.1946  -19.9351   19.0317 C   0  0  0  0  0  0  0  0  0  0  0  0
  -24.0349   -8.1955   22.4933 C   0  0  0  0  0  0  0  0  0  0  0  0
  -23.0346   -9.9441   23.8270 C   0  0  0  0  0  0  0  0  0  0  0  0
  -25.3978  -26.8552   18.3432 C   0  0  0  0  0  0  0  0  0  0  0  0
  -21.0725   -6.6739   23.0782 C   0  0  0  0  0  0  0  0  0  0  0  0
  -20.4677   -5.5452   22.5253 C   0  0  0  0  0  0  0  0  0  0  0  0
  -26.8598  -27.6516   20.0888 C   0  0  0  0  0  0  0  0  0  0  0  0
  -29.5287  -21.3403   20.8808 C   0  0  0  0  0  0  0  0  0  0  0  0
  -22.0916   -4.1355   23.6265 C   0  0  0  0  0  0  0  0  0  0  0  0
  -24.2956  -10.5082   21.8449 C   0  0  0  0  0  0  0  0  0  0  0  0
  -24.1929  -12.0173   19.7907 C   0  0  0  0  0  0  0  0  0  0  0  0
  -21.1390  -34.7304   19.5676 C   0  0  0  0  0  0  0  0  0  0  0  0
  -24.5109  -28.2349   20.1334 C   0  0  0  0  0  0  0  0  0  0  0  0
  -22.0203  -33.7110   19.1594 C   0  0  0  0  0  0  0  0  0  0  0  0
  -25.7853  -28.3021   20.7143 C   0  0  0  0  0  0  0  0  0  0  0  0
  -30.4216  -19.1349   21.3000 C   0  0  0  0  0  0  0  0  0  0  0  0
  -29.9020  -20.3384   21.7766 C   0  0  0  0  0  0  0  0  0  0  0  0
  -29.6750  -21.1386   19.5083 C   0  0  0  0  0  0  0  0  0  0  0  0
  -23.2811   -8.5903   23.5985 C   0  0  0  0  0  0  0  0  0  0  0  0
  -26.6670  -26.9336   18.9088 C   0  0  0  0  0  0  0  0  0  0  0  0
  -22.1870   -6.5334   23.9053 C   0  0  0  0  0  0  0  0  0  0  0  0
  -20.9772   -4.2760   22.7994 C   0  0  0  0  0  0  0  0  0  0  0  0
  -22.6964   -5.2642   24.1795 C   0  0  0  0  0  0  0  0  0  0  0  0
  -24.8198  -11.4992   20.9398 C   0  0  0  0  0  0  0  0  0  0  0  0
  -25.0955  -12.9205   19.2848 C   0  0  0  0  0  0  0  0  0  0  0  0
  -28.7578  -23.4274   18.9175 C   0  0  0  0  0  0  0  0  0  0  0  0
  -22.9093  -11.7096   19.2307 C   0  0  0  0  0  0  0  0  0  0  0  0
  -24.1475  -31.2832   20.9577 C   0  0  0  0  0  0  0  0  0  0  0  0
  -24.8388  -30.1594   23.9210 C   0  0  0  0  0  0  0  0  0  0  0  0
  -26.3119  -27.7477   25.8342 C   0  0  0  0  0  0  0  0  0  0  0  0
  -29.3667  -16.0773   21.8631 C   0  0  0  0  0  0  0  0  0  0  0  0
  -21.4334  -35.6021   20.7626 C   0  0  0  0  0  0  0  0  0  0  0  0
  -23.3361  -28.9018   20.7948 C   0  0  0  0  0  0  0  0  0  0  0  0
  -26.0360  -29.0620   21.9903 C   0  0  0  0  0  0  0  0  0  0  0  0
  -22.4837  -35.0142   21.7014 C   0  0  0  0  0  0  0  0  0  0  0  0
  -29.7950  -13.8039   19.0800 C   0  0  0  0  0  0  0  0  0  0  0  0
  -23.6820  -34.5023   20.9083 C   0  0  0  0  0  0  0  0  0  0  0  0
  -28.4937  -13.0019   19.1393 C   0  0  0  0  0  0  0  0  0  0  0  0
  -28.6046  -23.1106   16.5637 C   0  0  0  0  0  0  0  0  0  0  0  0
  -30.3078  -14.1298   20.4796 C   0  0  0  0  0  0  0  0  0  0  0  0
  -29.4808  -22.0270   17.1597 C   0  0  0  0  0  0  0  0  0  0  0  0
  -28.0254  -14.0441   21.4053 C   0  0  0  0  0  0  0  0  0  0  0  0
  -23.2692  -33.3806   19.9476 C   0  0  1  0  0  0  0  0  0  0  0  0
  -28.6445  -24.2076   17.6177 C   0  0  1  0  0  0  0  0  0  0  0  0
  -23.7405  -30.0503   21.7139 C   0  0  1  0  0  0  0  0  0  0  0  0
  -27.4434  -13.7025   20.0215 C   0  0  2  0  0  0  0  0  0  0  0  0
  -29.7383  -20.5774   23.2417 C   0  0  0  0  0  0  0  0  0  0  0  0
  -32.2927  -18.1605   22.6825 C   0  0  0  0  0  0  0  0  0  0  0  0
  -26.7449  -27.1215   28.2254 C   0  0  0  0  0  0  0  0  0  0  0  0
  -27.0309  -32.2762   24.0760 C   0  0  0  0  0  0  0  0  0  0  0  0
  -28.0141  -31.0168   26.0035 C   0  0  0  0  0  0  0  0  0  0  0  0
  -25.7188  -31.9769   26.1839 C   0  0  0  0  0  0  0  0  0  0  0  0
  -24.7931  -25.2215   25.5690 C   0  0  0  0  0  0  0  0  0  0  0  0
  -27.4324  -25.1190   17.5758 C   0  0  0  0  0  0  0  0  0  1  0  0
  -30.8276  -18.0473   22.2397 C   0  0  2  0  0  0  0  0  0  0  0  0
  -26.1043  -29.9534   24.7180 C   0  0  1  0  0  0  0  0  0  0  0  0
  -25.8092  -26.9688   27.0363 C   0  0  2  0  0  0  0  0  0  0  0  0
  -26.7130  -31.2930   25.2202 C   0  0  0  0  0  0  0  0  0  0  0  0
  -26.0274  -12.0291   21.1515 N   0  0  0  0  0  0  0  0  0  0  0  0
  -26.1666  -12.8895   20.1286 N   0  0  0  0  0  0  0  0  0  0  0  0
  -29.2947  -22.1647   18.5922 N   0  0  0  0  0  0  0  0  0  0  0  0
  -24.8566  -29.7023   22.5957 N   0  0  0  0  0  0  0  0  0  0  0  0
  -29.2667  -14.8120   21.2612 N   0  0  0  0  0  0  0  0  0  0  0  0
  -25.0696  -13.7303   18.2050 N   0  0  0  0  0  0  0  0  0  0  0  0
  -22.1091  -10.7578   19.8772 N   0  0  0  0  0  0  0  0  0  0  0  0
  -23.1000  -32.1361   20.6667 N   0  0  0  0  0  0  0  0  0  0  0  0
  -25.7681  -29.0137   25.7821 N   0  0  0  0  0  0  0  0  0  0  0  0
  -30.5773  -16.7355   21.6850 N   0  0  0  0  0  0  0  0  0  0  0  0
  -25.7012  -25.5195   26.7063 N   0  3  0  0  0  0  0  0  0  0  0  0
  -28.4757  -23.9004   20.0089 O   0  0  0  0  0  0  0  0  0  0  0  0
  -22.4916  -12.2504   18.1787 O   0  0  0  0  0  0  0  0  0  0  0  0
  -25.3250  -31.4491   20.6614 O   0  0  0  0  0  0  0  0  0  0  0  0
  -23.8678  -30.6993   24.4570 O   0  0  0  0  0  0  0  0  0  0  0  0
  -27.1103  -27.2811   25.0246 O   0  0  0  0  0  0  0  0  0  0  0  0
  -28.4428  -16.5858   22.5073 O   0  0  0  0  0  0  0  0  0  0  0  0
  -22.7858   -7.6549   24.4542 O   0  0  0  0  0  0  0  0  0  0  0  0
  -27.7180  -26.3063   18.3140 O   0  0  0  0  0  0  0  0  0  1  0  0
  -20.3953   -3.1921   22.2696 F   0  0  0  0  0  0  0  0  0  0  0  0
  -23.7661   -5.1228   24.9743 F   0  0  0  0  0  0  0  0  0  0  0  0
  1  2  1  0  0  0  0
  1  5  2  0  0  0  0
  2  6  2  0  0  0  0
  3 10  2  0  0  0  0
  3 18  1  0  0  0  0
  4 11  1  0  0  0  0
  4 18  2  0  0  0  0
  5 20  1  0  0  0  0
  6 22  1  0  0  0  0
  7 12  2  0  0  0  0
  7 21  1  0  0  0  0
  8  9  2  0  0  0  0
  8 24  1  0  0  0  0
  9 26  1  0  0  0  0
 10 27  1  0  0  0  0
 11 27  2  0  0  0  0
 12 28  1  0  0  0  0
 13 14  2  0  0  0  0
 13 29  1  0  0  0  0
 14 30  1  0  0  0  0
 15 23  1  0  0  0  0
 15 28  2  0  0  0  0
 16 25  1  0  0  0  0
 16 26  2  0  0  0  0
 17 30  2  0  0  0  0
 17 31  1  0  0  0  0
 18 32  1  0  0  0  0
 19 32  1  0  0  0  0
 19 33  2  0  0  0  0
 19 35  1  0  0  0  0
 20 22  2  0  0  0  0
 20 40  1  0  0  0  0
 21 23  2  0  0  0  0
 21 41  1  0  0  0  0
 22 51  1  0  0  0  0
 23 42  1  0  0  0  0
 24 25  2  0  0  0  0
 24 63  1  0  0  0  0
 25 55  1  0  0  0  0
 26 69  1  0  0  0  0
 27 84  1  0  0  0  0
 28 85  1  0  0  0  0
 29 31  2  0  0  0  0
 29 84  1  0  0  0  0
 30 86  1  0  0  0  0
 31 87  1  0  0  0  0
 32 67  2  0  0  0  0
 33 68  1  0  0  0  0
 33 72  1  0  0  0  0
 34 52  1  0  0  0  0
 34 69  1  0  0  0  0
 34 78  2  0  0  0  0
 35 73  1  0  0  0  0
 35 79  2  0  0  0  0
 36 53  1  0  0  0  0
 36 74  1  0  0  0  0
 36 80  2  0  0  0  0
 37 64  1  0  0  0  0
 37 70  1  0  0  0  0
 37 81  2  0  0  0  0
 38 65  1  0  0  0  0
 38 75  1  0  0  0  0
 38 82  2  0  0  0  0
 39 71  1  0  0  0  0
 39 76  1  0  0  0  0
 39 83  2  0  0  0  0
 40 43  1  0  0  0  0
 41 53  1  0  0  0  0
 42 70  1  0  0  0  0
 43 45  1  0  0  0  0
 44 46  1  0  0  0  0
 44 48  1  0  0  0  0
 45 51  1  0  0  0  0
 46 54  1  0  0  0  0
 47 49  1  0  0  0  0
 47 52  1  0  0  0  0
 48 71  1  0  0  0  0
 49 69  1  0  0  0  0
 50 54  1  0  0  0  0
 50 71  1  0  0  0  0
 51 74  1  0  0  0  0
 52 62  1  0  0  0  0
 53 70  1  0  0  0  0
 54 68  1  0  0  0  0
 56 63  1  0  0  0  0
 57 65  1  0  0  0  0
 58 66  1  0  0  0  0
 59 66  1  0  0  0  0
 60 66  1  0  0  0  0
 61 77  1  0  0  0  0
 62 85  1  0  0  0  0
 63 76  1  0  0  0  0
 64 66  1  0  0  0  0
 64 75  1  0  0  0  0
 65 77  1  0  0  0  0
 67 68  1  0  0  0  0
M  CHG  1  77   1
M  ISO  4  39 100  62 101  76 100  85 101
M  END
> <Batch ID>
0073

> <Smiles>
CNC(C)C(=O)NC(C(=O)N1Cc2cc([101O:1][101CH2:1]C3CCN(c4ccc(C(C)[100NH:0][100C:0](=O)N5CCCC(n6nc(-c7ccc(Oc8ccc(F)cc8F)cc7)c(C(N)=O)c6N)C5)c(C)c4)C3=O)ccc2CC1C(=O)NC1CCCc2ccccc21)C(C)(C)C

> <Shape>
0.293

> <Color>
0.082

> <Negative vol penalty>
0.000

$$$$

  -OEChem-04042323413D

 89 98  0     1  0  0  0  0  0999 V2000
  -27.5226  -36.0289   21.4893 C   0  0  0  0  0  0  0  0  0  0  0  0
  -27.8477  -34.6766   21.5215 C   0  0  0  0  0  0  0  0  0  0  0  0
  -23.0143  -16.7244   19.8552 C   0  0  0  0  0  0  0  0  0  0  0  0
  -24.3739  -17.2846   21.7722 C   0  0  0  0  0  0  0  0  0  0  0  0
  -26.3116  -36.4665   22.0241 C   0  0  0  0  0  0  0  0  0  0  0  0
  -26.9624  -33.7612   22.0896 C   0  0  0  0  0  0  0  0  0  0  0  0
  -26.3950  -29.5971   19.2640 C   0  0  0  0  0  0  0  0  0  0  0  0
  -29.3565  -20.7470   21.9009 C   0  0  0  0  0  0  0  0  0  0  0  0
  -29.4259  -19.4075   21.5185 C   0  0  0  0  0  0  0  0  0  0  0  0
  -22.3301  -17.9327   19.9873 C   0  0  0  0  0  0  0  0  0  0  0  0
  -23.6898  -18.4930   21.9043 C   0  0  0  0  0  0  0  0  0  0  0  0
  -27.4097  -28.6429   19.3254 C   0  0  0  0  0  0  0  0  0  0  0  0
  -23.7098  -21.5379   20.4386 C   0  0  0  0  0  0  0  0  0  0  0  0
  -24.4660  -22.6875   20.6668 C   0  0  0  0  0  0  0  0  0  0  0  0
  -26.0804  -27.3366   20.8570 C   0  0  0  0  0  0  0  0  0  0  0  0
  -30.9277  -19.9985   19.7206 C   0  0  0  0  0  0  0  0  0  0  0  0
  -23.3031  -23.0377   22.7554 C   0  0  0  0  0  0  0  0  0  0  0  0
  -24.0362  -16.4003   20.7477 C   0  0  0  0  0  0  0  0  0  0  0  0
  -24.1975  -13.8556   20.6713 C   0  0  0  0  0  0  0  0  0  0  0  0
  -25.4068  -35.5547   22.5903 C   0  0  0  0  0  0  0  0  0  0  0  0
  -25.2180  -29.4333   20.0085 C   0  0  0  0  0  0  0  0  0  0  0  0
  -25.7388  -34.1871   22.6336 C   0  0  0  0  0  0  0  0  0  0  0  0
  -25.0513  -28.2889   20.8014 C   0  0  0  0  0  0  0  0  0  0  0  0
  -30.0727  -21.7124   21.1931 C   0  0  0  0  0  0  0  0  0  0  0  0
  -30.2115  -19.0331   20.4283 C   0  0  0  0  0  0  0  0  0  0  0  0
  -22.6679  -18.8170   21.0118 C   0  0  0  0  0  0  0  0  0  0  0  0
  -27.2537  -27.5139   20.1242 C   0  0  0  0  0  0  0  0  0  0  0  0
  -22.7501  -21.1383   21.3686 C   0  0  0  0  0  0  0  0  0  0  0  0
  -24.2628  -23.4374   21.8253 C   0  0  0  0  0  0  0  0  0  0  0  0
  -30.8583  -21.3381   20.1030 C   0  0  0  0  0  0  0  0  0  0  0  0
  -22.5468  -21.8882   22.5271 C   0  0  0  0  0  0  0  0  0  0  0  0
  -24.7429  -15.1520   20.6120 C   0  0  0  0  0  0  0  0  0  0  0  0
  -25.2731  -13.0218   20.4862 C   0  0  0  0  0  0  0  0  0  0  0  0
  -30.1235  -24.2078   20.7452 C   0  0  0  0  0  0  0  0  0  0  0  0
  -22.8399  -13.4420   20.8754 C   0  0  0  0  0  0  0  0  0  0  0  0
  -23.7913  -31.0611   22.3363 C   0  0  0  0  0  0  0  0  0  0  0  0
  -21.4310  -28.8827   21.8829 C   0  0  0  0  0  0  0  0  0  0  0  0
  -31.4230  -17.1033   19.4252 C   0  0  0  0  0  0  0  0  0  0  0  0
  -20.5217  -25.7828   20.7826 C   0  0  0  0  0  0  0  0  0  0  0  0
  -29.2879  -16.7783   20.5332 C   0  0  0  0  0  0  0  0  0  0  0  0
  -24.1309  -36.0810   23.1984 C   0  0  0  0  0  0  0  0  0  0  0  0
  -24.1218  -30.4586   19.9107 C   0  0  0  0  0  0  0  0  0  0  0  0
  -23.7984  -28.0561   21.6042 C   0  0  0  0  0  0  0  0  0  0  0  0
  -23.0823  -34.9993   23.4451 C   0  0  0  0  0  0  0  0  0  0  0  0
  -28.3722  -14.4307   17.8333 C   0  0  0  0  0  0  0  0  0  0  0  0
  -23.7163  -33.7841   24.1145 C   0  0  0  0  0  0  0  0  0  0  0  0
  -28.0893  -13.1526   18.6138 C   0  0  0  0  0  0  0  0  0  0  0  0
  -30.1066  -24.9411   23.0130 C   0  0  0  0  0  0  0  0  0  0  0  0
  -29.4695  -15.2635   18.4878 C   0  0  0  0  0  0  0  0  0  0  0  0
  -29.7268  -23.4739   22.9569 C   0  0  0  0  0  0  0  0  0  0  0  0
  -28.8597  -14.3437   20.7222 C   0  0  0  0  0  0  0  0  0  0  0  0
  -24.7937  -33.1604   23.2190 C   0  0  1  0  0  0  0  0  0  0  0  0
  -23.1801  -30.4428   21.1108 C   0  0  1  0  0  0  0  0  0  0  0  0
  -27.7996  -13.4176   20.0991 C   0  0  1  0  0  0  0  0  0  0  0  0
  -29.8381  -25.4464   21.5931 C   0  0  1  0  0  0  0  0  0  0  0  0
  -31.2660  -15.7482   18.7698 C   0  0  0  0  0  0  0  0  0  0  0  0
  -30.7613  -26.6047   21.2230 C   0  0  0  0  0  0  0  0  0  0  0  0
  -18.5289  -24.2716   20.5772 C   0  0  0  0  0  0  0  0  0  0  0  0
  -21.5765  -28.2886   24.8722 C   0  0  0  0  0  0  0  0  0  0  0  0
  -20.2983  -26.1787   24.4442 C   0  0  0  0  0  0  0  0  0  0  0  0
  -19.2579  -28.3892   23.9402 C   0  0  0  0  0  0  0  0  0  0  0  0
  -20.7580  -25.6800   17.8343 C   0  0  0  0  0  0  0  0  0  0  0  0
  -28.3712  -25.8511   21.4056 C   0  0  0  0  0  0  0  0  0  1  0  0
  -21.1083  -27.5220   22.4516 C   0  0  1  0  0  0  0  0  0  0  0  0
  -19.3831  -25.3250   19.8891 C   0  0  2  0  0  0  0  0  0  0  0  0
  -20.5848  -27.5997   23.9135 C   0  0  0  0  0  0  0  0  0  0  0  0
  -26.0625  -15.1473   20.4055 N   0  0  0  0  0  0  0  0  0  0  0  0
  -26.3553  -13.8377   20.3335 N   0  0  0  0  0  0  0  0  0  0  0  0
  -29.9997  -23.0829   21.5868 N   0  0  0  0  0  0  0  0  0  0  0  0
  -22.7579  -29.0903   21.4803 N   0  0  0  0  0  0  0  0  0  0  0  0
  -29.1987  -15.5154   19.9091 N   0  0  0  0  0  0  0  0  0  0  0  0
  -25.3893  -11.6776   20.4408 N   0  0  0  0  0  0  0  0  0  0  0  0
  -22.3977  -13.2248   22.1875 N   0  0  0  0  0  0  0  0  0  0  0  0
  -24.1842  -32.3751   22.1672 N   0  0  0  0  0  0  0  0  0  0  0  0
  -20.1784  -26.8987   21.5162 N   0  0  0  0  0  0  0  0  0  0  0  0
  -30.2831  -17.6473   20.0329 N   0  0  0  0  0  0  0  0  0  0  0  0
  -19.9179  -24.7442   18.6252 N   0  3  0  0  0  0  0  0  0  0  0  0
  -30.3488  -24.2605   19.5440 O   0  0  0  0  0  0  0  0  0  0  0  0
  -22.0473  -13.2542   19.9215 O   0  0  0  0  0  0  0  0  0  0  0  0
  -23.8973  -30.3958   23.3599 O   0  0  0  0  0  0  0  0  0  0  0  0
  -20.5370  -29.7278   21.7924 O   0  0  0  0  0  0  0  0  0  0  0  0
  -32.5300  -17.6490   19.4396 O   0  0  0  0  0  0  0  0  0  0  0  0
  -21.6059  -25.2058   20.8283 O   0  0  0  0  0  0  0  0  0  0  0  0
  -28.5862  -17.0920   21.5027 O   0  0  0  0  0  0  0  0  0  0  0  0
  -22.0006  -19.9963   21.1409 O   0  0  0  0  0  0  0  0  0  0  0  0
  -28.2428  -26.5813   20.1864 O   0  0  0  0  0  0  0  0  0  1  0  0
  -24.9901  -24.5404   22.0451 F   0  0  0  0  0  0  0  0  0  0  0  0
  -31.5505  -22.2575   19.4149 F   0  0  0  0  0  0  0  0  0  0  0  0
  -21.6272  -21.5086   23.4248 F   0  0  0  0  0  0  0  0  0  0  0  0
  1  2  1  0  0  0  0
  1  5  2  0  0  0  0
  2  6  2  0  0  0  0
  3 10  2  0  0  0  0
  3 18  1  0  0  0  0
  4 11  1  0  0  0  0
  4 18  2  0  0  0  0
  5 20  1  0  0  0  0
  6 22  1  0  0  0  0
  7 12  2  0  0  0  0
  7 21  1  0  0  0  0
  8  9  2  0  0  0  0
  8 24  1  0  0  0  0
  9 25  1  0  0  0  0
 10 26  1  0  0  0  0
 11 26  2  0  0  0  0
 12 27  1  0  0  0  0
 13 14  2  0  0  0  0
 13 28  1  0  0  0  0
 14 29  1  0  0  0  0
 15 23  1  0  0  0  0
 15 27  2  0  0  0  0
 16 25  2  0  0  0  0
 16 30  1  0  0  0  0
 17 29  2  0  0  0  0
 17 31  1  0  0  0  0
 18 32  1  0  0  0  0
 19 32  1  0  0  0  0
 19 33  2  0  0  0  0
 19 35  1  0  0  0  0
 20 22  2  0  0  0  0
 20 41  1  0  0  0  0
 21 23  2  0  0  0  0
 21 42  1  0  0  0  0
 22 52  1  0  0  0  0
 23 43  1  0  0  0  0
 24 30  2  0  0  0  0
 24 69  1  0  0  0  0
 25 76  1  0  0  0  0
 26 85  1  0  0  0  0
 27 86  1  0  0  0  0
 28 31  2  0  0  0  0
 28 85  1  0  0  0  0
 29 87  1  0  0  0  0
 30 88  1  0  0  0  0
 31 89  1  0  0  0  0
 32 67  2  0  0  0  0
 33 68  1  0  0  0  0
 33 72  1  0  0  0  0
 34 55  1  0  0  0  0
 34 69  1  0  0  0  0
 34 78  2  0  0  0  0
 35 73  1  0  0  0  0
 35 79  2  0  0  0  0
 36 53  1  0  0  0  0
 36 74  1  0  0  0  0
 36 80  2  0  0  0  0
 37 64  1  0  0  0  0
 37 70  1  0  0  0  0
 37 81  2  0  0  0  0
 38 56  1  0  0  0  0
 38 76  1  0  0  0  0
 38 82  2  0  0  0  0
 39 65  1  0  0  0  0
 39 75  1  0  0  0  0
 39 83  2  0  0  0  0
 40 71  1  0  0  0  0
 40 76  1  0  0  0  0
 40 84  2  0  0  0  0
 41 44  1  0  0  0  0
 42 53  1  0  0  0  0
 43 70  1  0  0  0  0
 44 46  1  0  0  0  0
 45 47  1  0  0  0  0
 45 49  1  0  0  0  0
 46 52  1  0  0  0  0
 47 54  1  0  0  0  0
 48 50  1  0  0  0  0
 48 55  1  0  0  0  0
 49 71  1  0  0  0  0
 50 69  1  0  0  0  0
 51 54  1  0  0  0  0
 51 71  1  0  0  0  0
 52 74  1  0  0  0  0
 53 70  1  0  0  0  0
 54 68  1  0  0  0  0
 55 57  1  0  0  0  0
 55 63  1  0  0  0  0
 58 65  1  0  0  0  0
 59 66  1  0  0  0  0
 60 66  1  0  0  0  0
 61 66  1  0  0  0  0
 62 77  1  0  0  0  0
 63 86  1  0  0  0  0
 64 66  1  0  0  0  0
 64 75  1  0  0  0  0
 65 77  1  0  0  0  0
 67 68  1  0  0  0  0
M  CHG  1  77   1
M  ISO  4  40 100  63 101  76 100  86 101
M  END
> <Batch ID>
0073

> <Smiles>
CNC(C)C(=O)NC(C(=O)N1Cc2cc([101O:1][101CH2:1]C3(C)CCN(c4ccc([100N:0](C(C)=O)[100C:0](=O)N5CCCC(n6nc(-c7ccc(Oc8ccc(F)cc8F)cc7)c(C(N)=O)c6N)C5)cc4F)C3=O)ccc2CC1C(=O)NC1CCCc2ccccc21)C(C)(C)C

> <Shape>
0.283

> <Color>
0.096

> <Negative vol penalty>
0.000

$$$$

  -OEChem-04042323413D

 91100  0     1  0  0  0  0  0999 V2000
  -30.1168  -33.0475   24.5981 C   0  0  0  0  0  0  0  0  0  0  0  0
  -29.8085  -31.7774   24.1212 C   0  0  0  0  0  0  0  0  0  0  0  0
  -23.2716  -10.0390   22.0146 C   0  0  0  0  0  0  0  0  0  0  0  0
  -23.9153  -11.3806   23.9180 C   0  0  0  0  0  0  0  0  0  0  0  0
  -29.1201  -33.8367   25.1706 C   0  0  0  0  0  0  0  0  0  0  0  0
  -28.5035  -31.2955   24.2175 C   0  0  0  0  0  0  0  0  0  0  0  0
  -26.9382  -29.0605   19.9515 C   0  0  0  0  0  0  0  0  0  0  0  0
  -22.5715   -9.1772   22.8588 C   0  0  0  0  0  0  0  0  0  0  0  0
  -23.2151  -10.5188   24.7622 C   0  0  0  0  0  0  0  0  0  0  0  0
  -27.3911  -27.7646   19.7084 C   0  0  0  0  0  0  0  0  0  0  0  0
  -19.5956   -9.1350   24.4636 C   0  0  0  0  0  0  0  0  0  0  0  0
  -18.3182   -8.7373   24.0692 C   0  0  0  0  0  0  0  0  0  0  0  0
  -31.4131  -20.0262   20.8878 C   0  0  0  0  0  0  0  0  0  0  0  0
  -31.7892  -17.6694   20.5123 C   0  0  0  0  0  0  0  0  0  0  0  0
  -25.2888  -26.8873   20.5020 C   0  0  0  0  0  0  0  0  0  0  0  0
  -29.5406  -18.5526   20.4888 C   0  0  0  0  0  0  0  0  0  0  0  0
  -19.0341   -6.4298   24.0768 C   0  0  0  0  0  0  0  0  0  0  0  0
  -23.9435  -11.1407   22.5442 C   0  0  0  0  0  0  0  0  0  0  0  0
  -32.2880  -18.9462   20.7705 C   0  0  0  0  0  0  0  0  0  0  0  0
  -24.1713  -13.1811   21.0301 C   0  0  0  0  0  0  0  0  0  0  0  0
  -27.8003  -33.3680   25.2652 C   0  0  0  0  0  0  0  0  0  0  0  0
  -25.6590  -29.2795   20.4828 C   0  0  0  0  0  0  0  0  0  0  0  0
  -27.4886  -32.0787   24.7930 C   0  0  0  0  0  0  0  0  0  0  0  0
  -24.8210  -28.1871   20.7486 C   0  0  0  0  0  0  0  0  0  0  0  0
  -30.0394  -19.8294   20.7470 C   0  0  0  0  0  0  0  0  0  0  0  0
  -30.4155  -17.4726   20.3714 C   0  0  0  0  0  0  0  0  0  0  0  0
  -22.5433   -9.4171   24.2326 C   0  0  0  0  0  0  0  0  0  0  0  0
  -26.5675  -26.6776   19.9864 C   0  0  0  0  0  0  0  0  0  0  0  0
  -20.5924   -8.1801   24.6644 C   0  0  0  0  0  0  0  0  0  0  0  0
  -18.0374   -7.3848   23.8759 C   0  0  0  0  0  0  0  0  0  0  0  0
  -20.3117   -6.8275   24.4710 C   0  0  0  0  0  0  0  0  0  0  0  0
  -24.6674  -12.0311   21.6727 C   0  0  0  0  0  0  0  0  0  0  0  0
  -25.2435  -13.6696   20.3243 C   0  0  0  0  0  0  0  0  0  0  0  0
  -27.5023  -23.2606   20.7046 C   0  0  0  0  0  0  0  0  0  0  0  0
  -28.4537  -23.1981   21.6613 C   0  0  0  0  0  0  0  0  0  0  0  0
  -27.3725  -22.1714   19.7421 C   0  0  0  0  0  0  0  0  0  0  0  0
  -29.4356  -22.0439   21.6911 C   0  0  0  0  0  0  0  0  0  0  0  0
  -26.8918  -22.3142   18.4960 C   0  0  0  0  0  0  0  0  0  0  0  0
  -34.5880  -18.8679   19.9416 C   0  0  0  0  0  0  0  0  0  0  0  0
  -33.7206  -19.1521   20.9173 C   0  0  0  0  0  0  0  0  0  0  0  0
  -22.8586  -13.7565   21.0678 C   0  0  0  0  0  0  0  0  0  0  0  0
  -24.5323  -30.5907   23.1502 C   0  0  0  0  0  0  0  0  0  0  0  0
  -21.6656  -30.1252   21.7054 C   0  0  0  0  0  0  0  0  0  0  0  0
  -19.8237  -28.3929   19.4134 C   0  0  0  0  0  0  0  0  0  0  0  0
  -30.6387  -14.9971   19.9607 C   0  0  0  0  0  0  0  0  0  0  0  0
  -26.7670  -34.2389   25.9349 C   0  0  0  0  0  0  0  0  0  0  0  0
  -25.1752  -30.6847   20.7142 C   0  0  0  0  0  0  0  0  0  0  0  0
  -23.4316  -28.3694   21.3007 C   0  0  0  0  0  0  0  0  0  0  0  0
  -27.8037  -20.8329   20.2656 C   0  0  0  0  0  0  0  0  0  0  0  0
  -25.3307  -33.8014   25.6593 C   0  0  0  0  0  0  0  0  0  0  0  0
  -29.7589  -11.6027   19.3436 C   0  0  0  0  0  0  0  0  0  0  0  0
  -25.1872  -32.2939   25.8432 C   0  0  0  0  0  0  0  0  0  0  0  0
  -28.3150  -11.5062   19.8417 C   0  0  0  0  0  0  0  0  0  0  0  0
  -30.6012  -12.5262   20.2219 C   0  0  0  0  0  0  0  0  0  0  0  0
  -28.5958  -13.7704   20.9286 C   0  0  0  0  0  0  0  0  0  0  0  0
  -26.0796  -31.5305   24.8571 C   0  0  1  0  0  0  0  0  0  0  0  0
  -24.0480  -30.7674   21.7389 C   0  0  1  0  0  0  0  0  0  0  0  0
  -27.6920  -12.9022   20.0380 C   0  0  2  0  0  0  0  0  0  0  0  0
  -28.7072  -24.2519   22.7074 C   0  0  0  0  0  0  0  0  0  0  0  0
  -34.4671  -18.6458   23.2787 C   0  0  0  0  0  0  0  0  0  0  0  0
  -17.4994  -28.2119   18.4849 C   0  0  0  0  0  0  0  0  0  0  0  0
  -20.7770  -28.6494   24.2239 C   0  0  0  0  0  0  0  0  0  0  0  0
  -18.8709  -27.6972   22.9094 C   0  0  0  0  0  0  0  0  0  0  0  0
  -19.0484  -30.1637   23.2375 C   0  0  0  0  0  0  0  0  0  0  0  0
  -20.7327  -29.1008   16.6873 C   0  0  0  0  0  0  0  0  0  0  0  0
  -26.4951  -24.3788   20.5916 C   0  0  0  0  0  0  0  0  0  1  0  0
  -34.1505  -19.7207   22.2452 C   0  0  0  0  0  0  0  0  0  0  0  0
  -20.6563  -29.0031   21.6692 C   0  0  1  0  0  0  0  0  0  0  0  0
  -18.8672  -28.8584   18.3304 C   0  0  2  0  0  0  0  0  0  0  0  0
  -19.8650  -28.8745   23.0014 C   0  0  0  0  0  0  0  0  0  0  0  0
  -25.9546  -11.8024   21.3993 N   0  0  0  0  0  0  0  0  0  0  0  0
  -26.2764  -12.8154   20.5769 N   0  0  0  0  0  0  0  0  0  0  0  0
  -29.1338  -20.9460   20.8682 N   0  0  0  0  0  0  0  0  0  0  0  0
  -23.0066  -29.7625   21.5158 N   0  0  0  0  0  0  0  0  0  0  0  0
  -29.9512  -13.8314   20.3595 N   0  0  0  0  0  0  0  0  0  0  0  0
  -25.3942  -14.7420   19.5183 N   0  0  0  0  0  0  0  0  0  0  0  0
  -21.8752  -13.1270   21.8431 N   0  0  0  0  0  0  0  0  0  0  0  0
  -29.9085  -16.1760   20.1078 N   0  0  0  0  0  0  0  0  0  0  0  0
  -25.4808  -31.5171   23.5397 N   0  0  0  0  0  0  0  0  0  0  0  0
  -19.8200  -29.2438   20.4983 N   0  0  0  0  0  0  0  0  0  0  0  0
  -19.4016  -28.5113   16.9832 N   0  3  0  0  0  0  0  0  0  0  0  0
  -30.4052  -22.1191   22.4474 O   0  0  0  0  0  0  0  0  0  0  0  0
  -22.5619  -14.7888   20.4198 O   0  0  0  0  0  0  0  0  0  0  0  0
  -24.0780  -29.6821   23.8356 O   0  0  0  0  0  0  0  0  0  0  0  0
  -21.2776  -31.2818   21.8879 O   0  0  0  0  0  0  0  0  0  0  0  0
  -20.5032  -27.3741   19.3090 O   0  0  0  0  0  0  0  0  0  0  0  0
  -31.7805  -14.9501   19.4957 O   0  0  0  0  0  0  0  0  0  0  0  0
  -21.8600   -8.5764   25.0566 O   0  0  0  0  0  0  0  0  0  0  0  0
  -27.0074  -25.4116   19.7507 O   0  0  0  0  0  0  0  0  0  1  0  0
  -16.8102   -7.0029   23.4987 F   0  0  0  0  0  0  0  0  0  0  0  0
  -21.2648   -5.9055   24.6636 F   0  0  0  0  0  0  0  0  0  0  0  0
  1  2  1  0  0  0  0
  1  5  2  0  0  0  0
  2  6  2  0  0  0  0
  3  8  2  0  0  0  0
  3 18  1  0  0  0  0
  4  9  1  0  0  0  0
  4 18  2  0  0  0  0
  5 21  1  0  0  0  0
  6 23  1  0  0  0  0
  7 10  2  0  0  0  0
  7 22  1  0  0  0  0
  8 27  1  0  0  0  0
  9 27  2  0  0  0  0
 10 28  1  0  0  0  0
 11 12  2  0  0  0  0
 11 29  1  0  0  0  0
 12 30  1  0  0  0  0
 13 19  1  0  0  0  0
 13 25  2  0  0  0  0
 14 19  2  0  0  0  0
 14 26  1  0  0  0  0
 15 24  1  0  0  0  0
 15 28  2  0  0  0  0
 16 25  1  0  0  0  0
 16 26  2  0  0  0  0
 17 30  2  0  0  0  0
 17 31  1  0  0  0  0
 18 32  1  0  0  0  0
 19 40  1  0  0  0  0
 20 32  1  0  0  0  0
 20 33  2  0  0  0  0
 20 41  1  0  0  0  0
 21 23  2  0  0  0  0
 21 46  1  0  0  0  0
 22 24  2  0  0  0  0
 22 47  1  0  0  0  0
 23 56  1  0  0  0  0
 24 48  1  0  0  0  0
 25 73  1  0  0  0  0
 26 78  1  0  0  0  0
 27 88  1  0  0  0  0
 28 89  1  0  0  0  0
 29 31  2  0  0  0  0
 29 88  1  0  0  0  0
 30 90  1  0  0  0  0
 31 91  1  0  0  0  0
 32 71  2  0  0  0  0
 33 72  1  0  0  0  0
 33 76  1  0  0  0  0
 34 35  2  0  0  0  0
 34 36  1  0  0  0  0
 34 66  1  0  0  0  0
 35 37  1  0  0  0  0
 35 59  1  0  0  0  0
 36 38  2  0  0  0  0
 36 49  1  0  0  0  0
 37 73  1  0  0  0  0
 37 82  2  0  0  0  0
 39 40  2  0  0  0  0
 40 67  1  0  0  0  0
 41 77  1  0  0  0  0
 41 83  2  0  0  0  0
 42 57  1  0  0  0  0
 42 79  1  0  0  0  0
 42 84  2  0  0  0  0
 43 68  1  0  0  0  0
 43 74  1  0  0  0  0
 43 85  2  0  0  0  0
 44 69  1  0  0  0  0
 44 80  1  0  0  0  0
 44 86  2  0  0  0  0
 45 75  1  0  0  0  0
 45 78  1  0  0  0  0
 45 87  2  0  0  0  0
 46 50  1  0  0  0  0
 47 57  1  0  0  0  0
 48 74  1  0  0  0  0
 49 73  1  0  0  0  0
 50 52  1  0  0  0  0
 51 53  1  0  0  0  0
 51 54  1  0  0  0  0
 52 56  1  0  0  0  0
 53 58  1  0  0  0  0
 54 75  1  0  0  0  0
 55 58  1  0  0  0  0
 55 75  1  0  0  0  0
 56 79  1  0  0  0  0
 57 74  1  0  0  0  0
 58 72  1  0  0  0  0
 60 67  1  0  0  0  0
 61 69  1  0  0  0  0
 62 70  1  0  0  0  0
 63 70  1  0  0  0  0
 64 70  1  0  0  0  0
 65 81  1  0  0  0  0
 66 89  1  0  0  0  0
 68 70  1  0  0  0  0
 68 80  1  0  0  0  0
 69 81  1  0  0  0  0
 71 72  1  0  0  0  0
M  CHG  1  81   1
M  ISO  4  45 100  66 101  78 100  89 101
M  END
> <Batch ID>
0073

> <Smiles>
C=C1CN(c2cc([100NH:0][100C:0](=O)N3CCCC(n4nc(-c5ccc(Oc6ccc(F)cc6F)cc5)c(C(N)=O)c4N)C3)cc(C(=C)CC)c2)C(=O)C(C)=C1[101CH2:1][101O:1]c1ccc2c(c1)CN(C(=O)C(NC(=O)C(C)NC)C(C)(C)C)C(C(=O)NC1CCCc3ccccc31)C2

> <Shape>
0.320

> <Color>
0.138

> <Negative vol penalty>
0.000

$$$$

  -OEChem-04042323413D

 84 93  0     1  0  0  0  0  0999 V2000
  -27.3760  -37.7449   23.8602 C   0  0  0  0  0  0  0  0  0  0  0  0
  -27.9646  -36.8012   23.0246 C   0  0  0  0  0  0  0  0  0  0  0  0
  -24.1838   -9.2870   22.1900 C   0  0  0  0  0  0  0  0  0  0  0  0
  -22.9184  -11.2676   21.6306 C   0  0  0  0  0  0  0  0  0  0  0  0
  -26.4881  -37.3366   24.8546 C   0  0  0  0  0  0  0  0  0  0  0  0
  -27.6666  -35.4483   23.1837 C   0  0  0  0  0  0  0  0  0  0  0  0
  -26.9147  -29.4144   19.3965 C   0  0  0  0  0  0  0  0  0  0  0  0
  -28.5675  -19.7717   19.8358 C   0  0  0  0  0  0  0  0  0  0  0  0
  -28.8333  -18.4103   19.6890 C   0  0  0  0  0  0  0  0  0  0  0  0
  -23.3139   -9.0306   23.2498 C   0  0  0  0  0  0  0  0  0  0  0  0
  -22.0485  -11.0112   22.6904 C   0  0  0  0  0  0  0  0  0  0  0  0
  -27.3679  -28.0962   19.3695 C   0  0  0  0  0  0  0  0  0  0  0  0
  -20.2247   -7.7239   23.6765 C   0  0  0  0  0  0  0  0  0  0  0  0
  -19.7694   -6.4156   23.8394 C   0  0  0  0  0  0  0  0  0  0  0  0
  -25.7587  -27.5146   21.0700 C   0  0  0  0  0  0  0  0  0  0  0  0
  -26.2900  -19.4044   19.1180 C   0  0  0  0  0  0  0  0  0  0  0  0
  -20.7574   -6.3460   26.0430 C   0  0  0  0  0  0  0  0  0  0  0  0
  -23.9860  -10.4056   21.3804 C   0  0  0  0  0  0  0  0  0  0  0  0
  -24.7639  -10.2195   18.9581 C   0  0  0  0  0  0  0  0  0  0  0  0
  -26.1716  -35.9789   25.0197 C   0  0  0  0  0  0  0  0  0  0  0  0
  -25.8859  -29.7956   20.2697 C   0  0  0  0  0  0  0  0  0  0  0  0
  -26.7747  -35.0213   24.1821 C   0  0  0  0  0  0  0  0  0  0  0  0
  -25.2926  -28.8377   21.1043 C   0  0  0  0  0  0  0  0  0  0  0  0
  -27.2958  -20.2688   19.5503 C   0  0  0  0  0  0  0  0  0  0  0  0
  -27.8275  -17.5460   19.2567 C   0  0  0  0  0  0  0  0  0  0  0  0
  -22.2463   -9.8926   23.5000 C   0  0  0  0  0  0  0  0  0  0  0  0
  -26.7918  -27.1467   20.2083 C   0  0  0  0  0  0  0  0  0  0  0  0
  -20.9465   -8.3433   24.6969 C   0  0  0  0  0  0  0  0  0  0  0  0
  -20.0357   -5.7266   25.0226 C   0  0  0  0  0  0  0  0  0  0  0  0
  -26.5558  -18.0430   18.9712 C   0  0  0  0  0  0  0  0  0  0  0  0
  -21.2128   -7.6544   25.8801 C   0  0  0  0  0  0  0  0  0  0  0  0
  -24.8846  -10.6713   20.2859 C   0  0  0  0  0  0  0  0  0  0  0  0
  -25.8612  -10.7405   18.3170 C   0  0  0  0  0  0  0  0  0  0  0  0
  -26.6615  -23.5741   19.8055 C   0  0  0  0  0  0  0  0  0  0  0  0
  -25.9167  -22.3537   19.4937 C   0  0  0  0  0  0  0  0  0  0  0  0
  -26.3377  -24.8788   19.8603 C   0  0  0  0  0  0  0  0  0  1  0  0
  -23.7505   -9.4020   18.3578 C   0  0  0  0  0  0  0  0  0  0  0  0
  -25.6448  -31.8311   22.6991 C   0  0  0  0  0  0  0  0  0  0  0  0
  -22.5079  -31.0167   22.5622 C   0  0  0  0  0  0  0  0  0  0  0  0
  -20.1455  -28.7306   21.6459 C   0  0  0  0  0  0  0  0  0  0  0  0
  -29.3089  -15.5105   19.3492 C   0  0  0  0  0  0  0  0  0  0  0  0
  -25.2427  -35.5810   26.1393 C   0  0  0  0  0  0  0  0  0  0  0  0
  -25.3902  -31.2158   20.2676 C   0  0  0  0  0  0  0  0  0  0  0  0
  -24.1713  -29.1915   22.0455 C   0  0  0  0  0  0  0  0  0  0  0  0
  -27.8975  -22.7317   20.0228 C   0  0  0  0  0  0  0  0  0  0  0  0
  -24.6918  -34.1643   25.9992 C   0  0  0  0  0  0  0  0  0  0  0  0
  -30.3733  -12.1194   19.1378 C   0  0  0  0  0  0  0  0  0  0  0  0
  -25.8111  -33.1882   25.6509 C   0  0  0  0  0  0  0  0  0  0  0  0
  -29.0748  -11.3223   19.2813 C   0  0  0  0  0  0  0  0  0  0  0  0
  -30.3731  -13.3672   20.0192 C   0  0  0  0  0  0  0  0  0  0  0  0
  -27.9110  -13.4497   19.9930 C   0  0  0  0  0  0  0  0  0  0  0  0
  -26.4576  -33.5469   24.3074 C   0  0  1  0  0  0  0  0  0  0  0  0
  -24.6866  -31.6050   21.5640 C   0  0  1  0  0  0  0  0  0  0  0  0
  -27.8378  -12.2183   19.0754 C   0  0  2  0  0  0  0  0  0  0  0  0
  -17.6691  -28.3279   21.6984 C   0  0  0  0  0  0  0  0  0  0  0  0
  -22.6841  -30.3354   25.5312 C   0  0  0  0  0  0  0  0  0  0  0  0
  -20.5322  -29.0770   25.2988 C   0  0  0  0  0  0  0  0  0  0  0  0
  -20.5935  -31.5314   24.8576 C   0  0  0  0  0  0  0  0  0  0  0  0
  -19.9842  -28.6165   18.6929 C   0  0  0  0  0  0  0  0  0  0  0  0
  -21.6525  -29.9466   23.1965 C   0  0  1  0  0  0  0  0  0  0  0  0
  -18.8351  -28.8822   20.8946 C   0  0  2  0  0  0  0  0  0  0  0  0
  -21.3880  -30.2160   24.7048 C   0  0  0  0  0  0  0  0  0  0  0  0
  -25.9728  -11.4216   20.4784 N   0  0  0  0  0  0  0  0  0  0  0  0
  -26.5459  -11.4450   19.2630 N   0  0  0  0  0  0  0  0  0  0  0  0
  -27.0337  -21.6114   19.6944 N   0  0  0  0  0  0  0  0  0  0  0  0
  -23.7259  -30.5943   22.0111 N   0  0  0  0  0  0  0  0  0  0  0  0
  -29.1742  -14.1695   19.7665 N   0  0  0  0  0  0  0  0  0  0  0  0
  -26.2976  -10.6601   17.0420 N   0  0  0  0  0  0  0  0  0  0  0  0
  -22.6930   -8.9520   19.1600 N   0  0  0  0  0  0  0  0  0  0  0  0
  -28.1006  -16.1636   19.1081 N   0  0  0  0  0  0  0  0  0  0  0  0
  -25.6178  -33.1144   23.2110 N   0  0  0  0  0  0  0  0  0  0  0  0
  -20.4436  -29.8559   22.3848 N   0  0  0  0  0  0  0  0  0  0  0  0
  -18.8966  -28.1567   19.5943 N   0  3  0  0  0  0  0  0  0  0  0  0
  -24.7738  -22.1021   19.1729 O   0  0  0  0  0  0  0  0  0  0  0  0
  -23.7905   -9.0664   17.1497 O   0  0  0  0  0  0  0  0  0  0  0  0
  -26.3549  -30.9092   23.0832 O   0  0  0  0  0  0  0  0  0  0  0  0
  -22.1067  -32.1831   22.5497 O   0  0  0  0  0  0  0  0  0  0  0  0
  -20.8337  -27.7141   21.5863 O   0  0  0  0  0  0  0  0  0  0  0  0
  -30.4153  -16.0323   19.1893 O   0  0  0  0  0  0  0  0  0  0  0  0
  -21.3971   -9.6425   24.5339 O   0  0  0  0  0  0  0  0  0  0  0  0
  -27.2326  -25.8594   20.1845 O   0  0  0  0  0  0  0  0  0  1  0  0
  -19.5971   -4.4708   25.1795 F   0  0  0  0  0  0  0  0  0  0  0  0
  -25.5817  -17.2218   18.5536 F   0  0  0  0  0  0  0  0  0  0  0  0
  -21.9047   -8.2446   26.8644 F   0  0  0  0  0  0  0  0  0  0  0  0
  1  2  1  0  0  0  0
  1  5  2  0  0  0  0
  2  6  2  0  0  0  0
  3 10  2  0  0  0  0
  3 18  1  0  0  0  0
  4 11  1  0  0  0  0
  4 18  2  0  0  0  0
  5 20  1  0  0  0  0
  6 22  1  0  0  0  0
  7 12  2  0  0  0  0
  7 21  1  0  0  0  0
  8  9  2  0  0  0  0
  8 24  1  0  0  0  0
  9 25  1  0  0  0  0
 10 26  1  0  0  0  0
 11 26  2  0  0  0  0
 12 27  1  0  0  0  0
 13 14  2  0  0  0  0
 13 28  1  0  0  0  0
 14 29  1  0  0  0  0
 15 23  1  0  0  0  0
 15 27  2  0  0  0  0
 16 24  2  0  0  0  0
 16 30  1  0  0  0  0
 17 29  2  0  0  0  0
 17 31  1  0  0  0  0
 18 32  1  0  0  0  0
 19 32  1  0  0  0  0
 19 33  2  0  0  0  0
 19 37  1  0  0  0  0
 20 22  2  0  0  0  0
 20 42  1  0  0  0  0
 21 23  2  0  0  0  0
 21 43  1  0  0  0  0
 22 52  1  0  0  0  0
 23 44  1  0  0  0  0
 24 65  1  0  0  0  0
 25 30  2  0  0  0  0
 25 70  1  0  0  0  0
 26 80  1  0  0  0  0
 27 81  1  0  0  0  0
 28 31  2  0  0  0  0
 28 80  1  0  0  0  0
 29 82  1  0  0  0  0
 30 83  1  0  0  0  0
 31 84  1  0  0  0  0
 32 63  2  0  0  0  0
 33 64  1  0  0  0  0
 33 68  1  0  0  0  0
 34 35  1  0  0  0  0
 34 36  2  0  0  0  0
 34 45  1  0  0  0  0
 35 65  1  0  0  0  0
 35 74  2  0  0  0  0
 36 81  1  0  0  0  0
 37 69  1  0  0  0  0
 37 75  2  0  0  0  0
 38 53  1  0  0  0  0
 38 71  1  0  0  0  0
 38 76  2  0  0  0  0
 39 60  1  0  0  0  0
 39 66  1  0  0  0  0
 39 77  2  0  0  0  0
 40 61  1  0  0  0  0
 40 72  1  0  0  0  0
 40 78  2  0  0  0  0
 41 67  1  0  0  0  0
 41 70  1  0  0  0  0
 41 79  2  0  0  0  0
 42 46  1  0  0  0  0
 43 53  1  0  0  0  0
 44 66  1  0  0  0  0
 45 65  1  0  0  0  0
 46 48  1  0  0  0  0
 47 49  1  0  0  0  0
 47 50  1  0  0  0  0
 48 52  1  0  0  0  0
 49 54  1  0  0  0  0
 50 67  1  0  0  0  0
 51 54  1  0  0  0  0
 51 67  1  0  0  0  0
 52 71  1  0  0  0  0
 53 66  1  0  0  0  0
 54 64  1  0  0  0  0
 55 61  1  0  0  0  0
 56 62  1  0  0  0  0
 57 62  1  0  0  0  0
 58 62  1  0  0  0  0
 59 73  1  0  0  0  0
 60 62  1  0  0  0  0
 60 72  1  0  0  0  0
 61 73  1  0  0  0  0
 63 64  1  0  0  0  0
M  CHG  1  73   1
M  ISO  4  36 101  41 100  70 100  81 101
M  END
> <Batch ID>
0073

> <Smiles>
CNC(C)C(=O)NC(C(=O)N1Cc2cc([101O:1][101CH:1]=C3CN(c4ccc([100NH:0][100C:0](=O)N5CCCC(n6nc(-c7ccc(Oc8ccc(F)cc8F)cc7)c(C(N)=O)c6N)C5)c(F)c4)C3=O)ccc2CC1C(=O)NC1CCCc2ccccc21)C(C)(C)C

> <Shape>
0.291

> <Color>
0.088

> <Negative vol penalty>
0.000

$$$$

  -OEChem-04042323413D

 88 97  0     1  0  0  0  0  0999 V2000
  -19.8998  -10.4210   19.6369 C   0  0  0  0  0  0  0  0  0  0  0  0
  -20.3551  -11.7029   19.9286 C   0  0  0  0  0  0  0  0  0  0  0  0
  -19.7347  -28.7316   23.1884 C   0  0  0  0  0  0  0  0  0  0  0  0
  -20.7402  -26.5805   22.7425 C   0  0  0  0  0  0  0  0  0  0  0  0
  -20.6944   -9.3153   19.9369 C   0  0  0  0  0  0  0  0  0  0  0  0
  -21.6047  -11.8796   20.5215 C   0  0  0  0  0  0  0  0  0  0  0  0
  -25.5132  -16.4965   19.5655 C   0  0  0  0  0  0  0  0  0  0  0  0
  -29.6450  -27.7627   19.7273 C   0  0  0  0  0  0  0  0  0  0  0  0
  -18.5623  -28.3142   22.5584 C   0  0  0  0  0  0  0  0  0  0  0  0
  -19.5678  -26.1630   22.1125 C   0  0  0  0  0  0  0  0  0  0  0  0
  -25.7763  -17.6656   20.2782 C   0  0  0  0  0  0  0  0  0  0  0  0
  -15.8773  -26.4005   23.3078 C   0  0  0  0  0  0  0  0  0  0  0  0
  -30.3625  -26.8960   18.9030 C   0  0  0  0  0  0  0  0  0  0  0  0
  -14.6661  -26.6826   23.9395 C   0  0  0  0  0  0  0  0  0  0  0  0
  -27.6223  -16.5712   21.3800 C   0  0  0  0  0  0  0  0  0  0  0  0
  -28.6112  -25.8705   20.8172 C   0  0  0  0  0  0  0  0  0  0  0  0
  -13.9649  -27.9710   22.0197 C   0  0  0  0  0  0  0  0  0  0  0  0
  -20.8237  -27.8647   23.2804 C   0  0  0  0  0  0  0  0  0  0  0  0
  -22.3610  -28.1650   25.2939 C   0  0  0  0  0  0  0  0  0  0  0  0
  -21.9585   -9.4791   20.5249 C   0  0  0  0  0  0  0  0  0  0  0  0
  -26.2972  -15.3508   19.7631 C   0  0  0  0  0  0  0  0  0  0  0  0
  -22.4163  -10.7749   20.8309 C   0  0  0  0  0  0  0  0  0  0  0  0
  -27.3687  -15.3897   20.6668 C   0  0  0  0  0  0  0  0  0  0  0  0
  -29.3287  -25.0037   19.9928 C   0  0  0  0  0  0  0  0  0  0  0  0
  -28.7694  -27.2500   20.6845 C   0  0  0  0  0  0  0  0  0  0  0  0
  -18.4788  -27.0299   22.0205 C   0  0  0  0  0  0  0  0  0  0  0  0
  -26.8292  -17.7022   21.1877 C   0  0  0  0  0  0  0  0  0  0  0  0
  -16.1323  -26.9037   22.0320 C   0  0  0  0  0  0  0  0  0  0  0  0
  -13.7099  -27.4678   23.2955 C   0  0  0  0  0  0  0  0  0  0  0  0
  -30.2043  -25.5165   19.0357 C   0  0  0  0  0  0  0  0  0  0  0  0
  -15.1761  -27.6889   21.3880 C   0  0  0  0  0  0  0  0  0  0  0  0
  -22.0352  -28.2955   23.9306 C   0  0  0  0  0  0  0  0  0  0  0  0
  -23.6102  -28.7253   25.4035 C   0  0  0  0  0  0  0  0  0  0  0  0
  -28.7863  -21.5255   20.9804 C   0  0  0  0  0  0  0  0  0  0  0  0
  -29.0714  -21.3454   19.5790 C   0  0  0  0  0  0  0  0  0  0  0  0
  -28.8479  -22.9726   21.3280 C   0  0  0  0  0  0  0  0  0  0  0  0
  -29.1139  -20.2060   18.8801 C   0  0  0  0  0  0  0  0  0  0  0  0
  -21.6023  -27.5888   26.3653 C   0  0  0  0  0  0  0  0  0  0  0  0
  -28.4988  -20.6081   21.9104 C   0  0  0  0  0  0  0  0  0  0  0  0
  -25.7348  -12.3996   20.8014 C   0  0  0  0  0  0  0  0  0  0  0  0
  -28.8291  -11.9284   19.9493 C   0  0  0  0  0  0  0  0  0  0  0  0
  -31.9105  -13.2740   19.3657 C   0  0  0  0  0  0  0  0  0  0  0  0
  -28.0808  -29.5246   21.5202 C   0  0  0  0  0  0  0  0  0  0  0  0
  -22.7613   -8.2510   20.8742 C   0  0  0  0  0  0  0  0  0  0  0  0
  -26.0171  -14.1058   18.9669 C   0  0  0  0  0  0  0  0  0  0  0  0
  -28.2528  -14.1930   20.9005 C   0  0  0  0  0  0  0  0  0  0  0  0
  -29.3245  -22.7061   19.0038 C   0  0  0  0  0  0  0  0  0  0  0  0
  -24.2319   -8.5454   21.1590 C   0  0  0  0  0  0  0  0  0  0  0  0
  -26.4128  -32.0496   23.3961 C   0  0  0  0  0  0  0  0  0  0  0  0
  -24.3653   -9.7456   22.0909 C   0  0  0  0  0  0  0  0  0  0  0  0
  -25.1334  -31.3597   23.8752 C   0  0  0  0  0  0  0  0  0  0  0  0
  -26.8040  -31.6044   21.9881 C   0  0  0  0  0  0  0  0  0  0  0  0
  -25.6246  -29.4613   22.2808 C   0  0  0  0  0  0  0  0  0  0  0  0
  -23.7767  -11.0089   21.4512 C   0  0  1  0  0  0  0  0  0  0  0  0
  -26.5593  -12.8409   19.6253 C   0  0  1  0  0  0  0  0  0  0  0  0
  -25.2263  -29.8291   23.7195 C   0  0  2  0  0  0  0  0  0  0  0  0
  -28.2215  -20.9389   23.3415 C   0  0  0  0  0  0  0  0  0  0  0  0
  -34.2497  -12.6336   18.7209 C   0  0  0  0  0  0  0  0  0  0  0  0
  -29.3135  -10.8683   22.7692 C   0  0  0  0  0  0  0  0  0  0  0  0
  -31.7705  -11.1453   22.3761 C   0  0  0  0  0  0  0  0  0  0  0  0
  -30.4518   -9.5729   20.9579 C   0  0  0  0  0  0  0  0  0  0  0  0
  -31.8107  -14.9263   16.9123 C   0  0  0  0  0  0  0  0  0  0  0  0
  -30.1621  -12.0649   20.6446 C   0  0  1  0  0  0  0  0  0  0  0  0
  -32.8889  -13.0911   18.2194 C   0  0  2  0  0  0  0  0  0  0  0  0
  -30.4068  -10.9350   21.6842 C   0  0  0  0  0  0  0  0  0  0  0  0
  -22.9996  -28.8921   23.2248 N   0  0  0  0  0  0  0  0  0  0  0  0
  -23.9436  -29.1415   24.1482 N   0  0  0  0  0  0  0  0  0  0  0  0
  -29.1695  -23.6281   20.1272 N   0  0  0  0  0  0  0  0  0  0  0  0
  -27.9348  -12.9972   20.1027 N   0  0  0  0  0  0  0  0  0  0  0  0
  -26.8766  -30.1434   21.9172 N   0  0  0  0  0  0  0  0  0  0  0  0
  -24.4450  -28.8978   26.4503 N   0  0  0  0  0  0  0  0  0  0  0  0
  -20.3374  -27.0579   26.0782 N   0  0  0  0  0  0  0  0  0  0  0  0
  -28.0406  -28.1306   21.5217 N   0  0  0  0  0  0  0  0  0  0  0  0
  -24.6929  -11.5537   20.4724 N   0  0  0  0  0  0  0  0  0  0  0  0
  -31.1675  -12.1343   19.5896 N   0  0  0  0  0  0  0  0  0  0  0  0
  -33.0669  -14.3732   17.4808 N   0  3  0  0  0  0  0  0  0  0  0  0
  -28.6547  -23.4533   22.4321 O   0  0  0  0  0  0  0  0  0  0  0  0
  -22.0264  -27.5608   27.5455 O   0  0  0  0  0  0  0  0  0  0  0  0
  -26.0236  -12.7960   21.9244 O   0  0  0  0  0  0  0  0  0  0  0  0
  -28.5928  -10.9139   19.2884 O   0  0  0  0  0  0  0  0  0  0  0  0
  -31.8176  -14.3217   20.0014 O   0  0  0  0  0  0  0  0  0  0  0  0
  -29.0830  -30.1823   21.2286 O   0  0  0  0  0  0  0  0  0  0  0  0
  -17.3349  -26.6221   21.4058 O   0  0  0  0  0  0  0  0  0  0  0  0
  -27.0877  -18.8418   21.8851 O   0  0  0  0  0  0  0  0  0  1  0  0
  -28.4454  -19.2925   21.5774 O   0  0  0  0  0  0  0  0  0  1  0  0
  -12.5462  -27.7373   23.9016 F   0  0  0  0  0  0  0  0  0  0  0  0
  -30.8989  -24.6933   18.2376 F   0  0  0  0  0  0  0  0  0  0  0  0
  -15.4149  -28.1742   20.1619 F   0  0  0  0  0  0  0  0  0  0  0  0
  1  2  1  0  0  0  0
  1  5  2  0  0  0  0
  2  6  2  0  0  0  0
  3  9  2  0  0  0  0
  3 18  1  0  0  0  0
  4 10  1  0  0  0  0
  4 18  2  0  0  0  0
  5 20  1  0  0  0  0
  6 22  1  0  0  0  0
  7 11  2  0  0  0  0
  7 21  1  0  0  0  0
  8 13  2  0  0  0  0
  8 25  1  0  0  0  0
  9 26  1  0  0  0  0
 10 26  2  0  0  0  0
 11 27  1  0  0  0  0
 12 14  2  0  0  0  0
 12 28  1  0  0  0  0
 13 30  1  0  0  0  0
 14 29  1  0  0  0  0
 15 23  1  0  0  0  0
 15 27  2  0  0  0  0
 16 24  1  0  0  0  0
 16 25  2  0  0  0  0
 17 29  2  0  0  0  0
 17 31  1  0  0  0  0
 18 32  1  0  0  0  0
 19 32  1  0  0  0  0
 19 33  2  0  0  0  0
 19 38  1  0  0  0  0
 20 22  2  0  0  0  0
 20 44  1  0  0  0  0
 21 23  2  0  0  0  0
 21 45  1  0  0  0  0
 22 54  1  0  0  0  0
 23 46  1  0  0  0  0
 24 30  2  0  0  0  0
 24 68  1  0  0  0  0
 25 73  1  0  0  0  0
 26 83  1  0  0  0  0
 27 84  1  0  0  0  0
 28 31  2  0  0  0  0
 28 83  1  0  0  0  0
 29 86  1  0  0  0  0
 30 87  1  0  0  0  0
 31 88  1  0  0  0  0
 32 66  2  0  0  0  0
 33 67  1  0  0  0  0
 33 71  1  0  0  0  0
 34 35  1  0  0  0  0
 34 36  1  0  0  0  0
 34 39  2  0  0  0  0
 35 37  2  0  0  0  0
 35 47  1  0  0  0  0
 36 68  1  0  0  0  0
 36 77  2  0  0  0  0
 38 72  1  0  0  0  0
 38 78  2  0  0  0  0
 39 57  1  0  0  0  0
 39 85  1  0  0  0  0
 40 55  1  0  0  0  0
 40 74  1  0  0  0  0
 40 79  2  0  0  0  0
 41 63  1  0  0  0  0
 41 69  1  0  0  0  0
 41 80  2  0  0  0  0
 42 64  1  0  0  0  0
 42 75  1  0  0  0  0
 42 81  2  0  0  0  0
 43 70  1  0  0  0  0
 43 73  1  0  0  0  0
 43 82  2  0  0  0  0
 44 48  1  0  0  0  0
 45 55  1  0  0  0  0
 46 69  1  0  0  0  0
 47 68  1  0  0  0  0
 48 50  1  0  0  0  0
 49 51  1  0  0  0  0
 49 52  1  0  0  0  0
 50 54  1  0  0  0  0
 51 56  1  0  0  0  0
 52 70  1  0  0  0  0
 53 56  1  0  0  0  0
 53 70  1  0  0  0  0
 54 74  1  0  0  0  0
 55 69  1  0  0  0  0
 56 67  1  0  0  0  0
 58 64  1  0  0  0  0
 59 65  1  0  0  0  0
 60 65  1  0  0  0  0
 61 65  1  0  0  0  0
 62 76  1  0  0  0  0
 63 65  1  0  0  0  0
 63 75  1  0  0  0  0
 64 76  1  0  0  0  0
 66 67  1  0  0  0  0
 84 85  1  0  0  0  0
M  CHG  1  76   1
M  ISO  4  43 100  73 100  84 101  85 101
M  END
> <Batch ID>
0073

> <Smiles>
C=C1CN(c2cc([100NH:0][100C:0](=O)N3CCCC(n4nc(-c5ccc(Oc6ccc(F)cc6F)cc5)c(C(N)=O)c4N)C3)ccc2F)C(=O)C1=C(C)[101O:1][101O:1]c1ccc2c(c1)CN(C(=O)C(NC(=O)C(C)NC)C(C)(C)C)C(C(=O)NC1CCCc3ccccc31)C2

> <Shape>
0.312

> <Color>
0.068

> <Negative vol penalty>
0.000

$$$$

  -OEChem-04042323413D

 87 96  0     1  0  0  0  0  0999 V2000
  -28.4694  -38.0586   22.4591 C   0  0  0  0  0  0  0  0  0  0  0  0
  -28.9095  -36.8385   21.9559 C   0  0  0  0  0  0  0  0  0  0  0  0
  -24.2309   -8.5345   23.2652 C   0  0  0  0  0  0  0  0  0  0  0  0
  -24.6086   -8.6538   20.8819 C   0  0  0  0  0  0  0  0  0  0  0  0
  -30.2679  -19.8865   21.7790 C   0  0  0  0  0  0  0  0  0  0  0  0
  -27.4956  -38.0896   23.4564 C   0  0  0  0  0  0  0  0  0  0  0  0
  -28.3768  -35.6486   22.4506 C   0  0  0  0  0  0  0  0  0  0  0  0
  -27.3476  -30.4908   19.3131 C   0  0  0  0  0  0  0  0  0  0  0  0
  -30.1807  -21.2749   21.8799 C   0  0  0  0  0  0  0  0  0  0  0  0
  -23.1068   -7.7380   23.0473 C   0  0  0  0  0  0  0  0  0  0  0  0
  -23.4844   -7.8572   20.6639 C   0  0  0  0  0  0  0  0  0  0  0  0
  -28.0751  -29.3080   19.1880 C   0  0  0  0  0  0  0  0  0  0  0  0
  -22.4497   -4.5004   22.3270 C   0  0  0  0  0  0  0  0  0  0  0  0
  -22.2906   -3.3703   23.1289 C   0  0  0  0  0  0  0  0  0  0  0  0
  -30.2752  -20.0620   19.3694 C   0  0  0  0  0  0  0  0  0  0  0  0
  -26.7320  -28.3055   20.9231 C   0  0  0  0  0  0  0  0  0  0  0  0
  -20.1876   -4.2412   23.9389 C   0  0  0  0  0  0  0  0  0  0  0  0
  -24.9818   -8.9925   22.1825 C   0  0  0  0  0  0  0  0  0  0  0  0
  -30.3152  -19.2800   20.5238 C   0  0  0  0  0  0  0  0  0  0  0  0
  -27.4688   -9.3823   22.5952 C   0  0  0  0  0  0  0  0  0  0  0  0
  -26.9437  -36.8997   23.9567 C   0  0  0  0  0  0  0  0  0  0  0  0
  -26.3123  -30.5936   20.2534 C   0  0  0  0  0  0  0  0  0  0  0  0
  -27.3957  -35.6637   23.4565 C   0  0  0  0  0  0  0  0  0  0  0  0
  -25.9913  -29.4899   21.0564 C   0  0  0  0  0  0  0  0  0  0  0  0
  -30.1406  -22.0569   20.7256 C   0  0  0  0  0  0  0  0  0  0  0  0
  -22.7336   -7.3993   21.7467 C   0  0  0  0  0  0  0  0  0  0  0  0
  -27.7692  -28.2161   19.9950 C   0  0  0  0  0  0  0  0  0  0  0  0
  -21.4778   -5.5009   22.3310 C   0  0  0  0  0  0  0  0  0  0  0  0
  -21.1595   -3.2407   23.9349 C   0  0  0  0  0  0  0  0  0  0  0  0
  -30.1879  -21.4505   19.4703 C   0  0  0  0  0  0  0  0  0  0  0  0
  -20.3468   -5.3713   23.1369 C   0  0  0  0  0  0  0  0  0  0  0  0
  -26.1428   -9.8158   22.4070 C   0  0  0  0  0  0  0  0  0  0  0  0
  -28.1876  -10.5401   22.7662 C   0  0  0  0  0  0  0  0  0  0  0  0
  -29.9950  -24.2587   21.8999 C   0  0  0  0  0  0  0  0  0  0  0  0
  -30.4078  -17.8089   20.4159 C   0  0  0  0  0  0  0  0  0  0  0  0
  -28.0031   -8.0519   22.6138 C   0  0  0  0  0  0  0  0  0  0  0  0
  -25.7731  -32.4082   22.8068 C   0  0  0  0  0  0  0  0  0  0  0  0
  -22.8868  -30.9283   22.7657 C   0  0  0  0  0  0  0  0  0  0  0  0
  -21.0313  -28.2228   21.8253 C   0  0  0  0  0  0  0  0  0  0  0  0
  -29.3369  -15.6301   20.9476 C   0  0  0  0  0  0  0  0  0  0  0  0
  -25.9276  -36.9820   25.0682 C   0  0  0  0  0  0  0  0  0  0  0  0
  -25.5196  -31.8676   20.3574 C   0  0  0  0  0  0  0  0  0  0  0  0
  -24.8758  -29.5422   22.0670 C   0  0  0  0  0  0  0  0  0  0  0  0
  -25.1436  -35.6884   25.2737 C   0  0  0  0  0  0  0  0  0  0  0  0
  -26.6898  -15.2863   23.5230 C   0  0  0  0  0  0  0  0  0  0  0  0
  -26.0863  -34.4893   25.2874 C   0  0  0  0  0  0  0  0  0  0  0  0
  -26.3746  -13.7987   23.4112 C   0  0  0  0  0  0  0  0  0  0  0  0
  -27.1196  -15.8879   22.1857 C   0  0  0  0  0  0  0  0  0  0  0  0
  -27.9409  -13.6644   21.4391 C   0  0  0  0  0  0  0  0  0  0  0  0
  -29.9996  -24.4611   19.8027 C   0  0  0  0  0  0  0  0  0  0  0  0
  -26.8241  -34.3523   23.9500 C   0  0  1  0  0  0  0  0  0  0  0  0
  -24.8237  -32.0299   21.7053 C   0  0  1  0  0  0  0  0  0  0  0  0
  -27.5599  -13.0449   22.7915 C   0  0  2  0  0  0  0  0  0  0  0  0
  -29.9264  -25.4989   20.9628 C   0  0  2  0  0  0  0  0  0  0  0  0
  -31.1368  -26.4200   21.0690 C   0  0  0  0  0  0  0  0  0  0  0  0
  -18.7097  -27.2809   21.9671 C   0  0  0  0  0  0  0  0  0  0  0  0
  -23.3778  -30.1630   25.6783 C   0  0  0  0  0  0  0  0  0  0  0  0
  -21.5426  -28.4728   25.4708 C   0  0  0  0  0  0  0  0  0  0  0  0
  -21.0416  -30.8982   25.1724 C   0  0  0  0  0  0  0  0  0  0  0  0
  -20.7294  -28.2158   18.8812 C   0  0  0  0  0  0  0  0  0  0  0  0
  -28.6175  -26.2598   21.0482 C   0  0  0  0  0  0  0  0  0  1  0  0
  -22.3234  -29.6669   23.3744 C   0  0  1  0  0  0  0  0  0  0  0  0
  -19.6785  -28.1165   21.1450 C   0  0  2  0  0  0  0  0  0  0  0  0
  -22.0937  -29.7996   24.9064 C   0  0  0  0  0  0  0  0  0  0  0  0
  -26.0233  -11.1453   22.4541 N   0  0  0  0  0  0  0  0  0  0  0  0
  -27.2835  -11.5571   22.6740 N   0  0  0  0  0  0  0  0  0  0  0  0
  -30.0548  -23.4257   20.8286 N   0  0  0  0  0  0  0  0  0  0  0  0
  -24.1340  -30.8120   22.1356 N   0  0  0  0  0  0  0  0  0  0  0  0
  -28.1869  -15.1065   21.5459 N   0  0  0  0  0  0  0  0  0  0  0  0
  -29.4984  -10.7773   22.9851 N   0  0  0  0  0  0  0  0  0  0  0  0
  -27.1251   -6.9765   22.4216 N   0  0  0  0  0  0  0  0  0  0  0  0
  -29.4211  -17.0748   20.9532 N   0  0  0  0  0  0  0  0  0  0  0  0
  -25.9543  -33.7706   22.9503 N   0  0  0  0  0  0  0  0  0  0  0  0
  -21.1189  -29.3499   22.6148 N   0  0  0  0  0  0  0  0  0  0  0  0
  -31.4722  -17.3019   19.7944 N   0  3  0  0  0  0  0  0  0  0  0  0
  -19.8219  -27.4849   19.8028 N   0  3  0  0  0  0  0  0  0  0  0  0
  -29.9975  -24.0654   23.0943 O   0  0  0  0  0  0  0  0  0  0  0  0
  -29.2204   -7.8228   22.8117 O   0  0  0  0  0  0  0  0  0  0  0  0
  -26.3010  -31.5292   23.4779 O   0  0  0  0  0  0  0  0  0  0  0  0
  -22.2408  -31.9765   22.8401 O   0  0  0  0  0  0  0  0  0  0  0  0
  -21.9202  -27.3874   21.6747 O   0  0  0  0  0  0  0  0  0  0  0  0
  -30.2255  -14.9743   20.4146 O   0  0  0  0  0  0  0  0  0  0  0  0
  -21.6369   -6.6219   21.5336 O   0  0  0  0  0  0  0  0  0  0  0  0
  -28.4781  -27.0607   19.8754 O   0  0  0  0  0  0  0  0  0  1  0  0
  -21.0061   -2.1547   24.7038 F   0  0  0  0  0  0  0  0  0  0  0  0
  -30.1487  -22.1921   18.3542 F   0  0  0  0  0  0  0  0  0  0  0  0
  -19.4091   -6.3287   23.1441 F   0  0  0  0  0  0  0  0  0  0  0  0
  1  2  1  0  0  0  0
  1  6  2  0  0  0  0
  2  7  2  0  0  0  0
  3 10  2  0  0  0  0
  3 18  1  0  0  0  0
  4 11  1  0  0  0  0
  4 18  2  0  0  0  0
  5  9  2  0  0  0  0
  5 19  1  0  0  0  0
  6 21  1  0  0  0  0
  7 23  1  0  0  0  0
  8 12  2  0  0  0  0
  8 22  1  0  0  0  0
  9 25  1  0  0  0  0
 10 26  1  0  0  0  0
 11 26  2  0  0  0  0
 12 27  1  0  0  0  0
 13 14  2  0  0  0  0
 13 28  1  0  0  0  0
 14 29  1  0  0  0  0
 15 19  2  0  0  0  0
 15 30  1  0  0  0  0
 16 24  1  0  0  0  0
 16 27  2  0  0  0  0
 17 29  2  0  0  0  0
 17 31  1  0  0  0  0
 18 32  1  0  0  0  0
 19 35  1  0  0  0  0
 20 32  1  0  0  0  0
 20 33  2  0  0  0  0
 20 36  1  0  0  0  0
 21 23  2  0  0  0  0
 21 41  1  0  0  0  0
 22 24  2  0  0  0  0
 22 42  1  0  0  0  0
 23 51  1  0  0  0  0
 24 43  1  0  0  0  0
 25 30  2  0  0  0  0
 25 67  1  0  0  0  0
 26 83  1  0  0  0  0
 27 84  1  0  0  0  0
 28 31  2  0  0  0  0
 28 83  1  0  0  0  0
 29 85  1  0  0  0  0
 30 86  1  0  0  0  0
 31 87  1  0  0  0  0
 32 65  2  0  0  0  0
 33 66  1  0  0  0  0
 33 70  1  0  0  0  0
 34 54  1  0  0  0  0
 34 67  1  0  0  0  0
 34 77  2  0  0  0  0
 35 72  1  0  0  0  0
 35 75  2  0  0  0  0
 36 71  1  0  0  0  0
 36 78  2  0  0  0  0
 37 52  1  0  0  0  0
 37 73  1  0  0  0  0
 37 79  2  0  0  0  0
 38 62  1  0  0  0  0
 38 68  1  0  0  0  0
 38 80  2  0  0  0  0
 39 63  1  0  0  0  0
 39 74  1  0  0  0  0
 39 81  2  0  0  0  0
 40 69  1  0  0  0  0
 40 72  1  0  0  0  0
 40 82  2  0  0  0  0
 41 44  1  0  0  0  0
 42 52  1  0  0  0  0
 43 68  1  0  0  0  0
 44 46  1  0  0  0  0
 45 47  1  0  0  0  0
 45 48  1  0  0  0  0
 46 51  1  0  0  0  0
 47 53  1  0  0  0  0
 48 69  1  0  0  0  0
 49 53  1  0  0  0  0
 49 69  1  0  0  0  0
 50 54  1  0  0  0  0
 50 67  1  0  0  0  0
 51 73  1  0  0  0  0
 52 68  1  0  0  0  0
 53 66  1  0  0  0  0
 54 55  1  0  0  0  0
 54 61  1  0  0  0  0
 56 63  1  0  0  0  0
 57 64  1  0  0  0  0
 58 64  1  0  0  0  0
 59 64  1  0  0  0  0
 60 76  1  0  0  0  0
 61 84  1  0  0  0  0
 62 64  1  0  0  0  0
 62 74  1  0  0  0  0
 63 76  1  0  0  0  0
 65 66  1  0  0  0  0
M  CHG  2  75   1  76   1
M  ISO  4  40 100  61 101  72 100  84 101
M  END
> <Batch ID>
0073

> <Smiles>
CNC(C)C(=O)NC(C(=O)N1Cc2cc([101O:1][101CH2:1]C3(C)CN(c4ccc(C(=N)[100NH:0][100C:0](=O)N5CCCC(n6nc(-c7ccc(Oc8ccc(F)cc8F)cc7)c(C(N)=O)c6N)C5)cc4F)C3=O)ccc2CC1C(=O)NC1CCCc2ccccc21)C(C)(C)C

> <Shape>
0.299

> <Color>
0.077

> <Negative vol penalty>
0.000

$$$$

  -OEChem-04042323413D

 88 97  0     1  0  0  0  0  0999 V2000
  -28.4619  -37.4831   22.8149 C   0  0  0  0  0  0  0  0  0  0  0  0
  -28.9712  -36.2834   22.3284 C   0  0  0  0  0  0  0  0  0  0  0  0
  -24.7758   -8.5950   21.5304 C   0  0  0  0  0  0  0  0  0  0  0  0
  -23.1219  -10.1118   20.6355 C   0  0  0  0  0  0  0  0  0  0  0  0
  -27.2968  -37.4849   23.5808 C   0  0  0  0  0  0  0  0  0  0  0  0
  -28.3163  -35.0846   22.6085 C   0  0  0  0  0  0  0  0  0  0  0  0
  -26.9685  -28.6581   19.7449 C   0  0  0  0  0  0  0  0  0  0  0  0
  -23.8254   -8.0783   22.4110 C   0  0  0  0  0  0  0  0  0  0  0  0
  -22.1715   -9.5951   21.5161 C   0  0  0  0  0  0  0  0  0  0  0  0
  -27.0715  -27.3011   20.0475 C   0  0  0  0  0  0  0  0  0  0  0  0
  -21.2405   -5.9020   22.2900 C   0  0  0  0  0  0  0  0  0  0  0  0
  -21.1689   -4.5157   22.4261 C   0  0  0  0  0  0  0  0  0  0  0  0
  -25.0229  -27.4341   21.3142 C   0  0  0  0  0  0  0  0  0  0  0  0
  -24.9665  -20.0307   18.9984 C   0  0  0  0  0  0  0  0  0  0  0  0
  -25.0537  -17.6911   18.4022 C   0  0  0  0  0  0  0  0  0  0  0  0
  -26.9253  -18.7206   19.5309 C   0  0  0  0  0  0  0  0  0  0  0  0
  -21.6676   -4.7211   24.7811 C   0  0  0  0  0  0  0  0  0  0  0  0
  -24.4240   -9.6118   20.6426 C   0  0  0  0  0  0  0  0  0  0  0  0
  -25.6940   -9.6936   18.4318 C   0  0  0  0  0  0  0  0  0  0  0  0
  -26.6220  -36.2865   23.8623 C   0  0  0  0  0  0  0  0  0  0  0  0
  -25.8958  -29.4171   20.2346 C   0  0  0  0  0  0  0  0  0  0  0  0
  -27.1419  -35.0702   23.3800 C   0  0  0  0  0  0  0  0  0  0  0  0
  -24.9072  -28.8000   21.0143 C   0  0  0  0  0  0  0  0  0  0  0  0
  -24.3717  -18.9076   18.4234 C   0  0  0  0  0  0  0  0  0  0  0  0
  -26.2433  -19.9372   19.5521 C   0  0  0  0  0  0  0  0  0  0  0  0
  -26.3305  -17.5975   18.9560 C   0  0  0  0  0  0  0  0  0  0  0  0
  -22.5233   -8.5783   22.4039 C   0  0  0  0  0  0  0  0  0  0  0  0
  -26.1002  -26.6895   20.8346 C   0  0  0  0  0  0  0  0  0  0  0  0
  -21.5257   -6.6980   23.3994 C   0  0  0  0  0  0  0  0  0  0  0  0
  -21.3824   -3.9252   23.6717 C   0  0  0  0  0  0  0  0  0  0  0  0
  -21.7392   -6.1075   24.6450 C   0  0  0  0  0  0  0  0  0  0  0  0
  -25.4054  -10.1463   19.7331 C   0  0  0  0  0  0  0  0  0  0  0  0
  -26.6941  -10.5263   17.9925 C   0  0  0  0  0  0  0  0  0  0  0  0
  -26.2931  -22.3778   20.2376 C   0  0  0  0  0  0  0  0  0  0  0  0
  -25.1102   -8.6168   17.6866 C   0  0  0  0  0  0  0  0  0  0  0  0
  -25.6213  -31.9315   22.1596 C   0  0  0  0  0  0  0  0  0  0  0  0
  -22.4979  -31.7565   21.3017 C   0  0  0  0  0  0  0  0  0  0  0  0
  -19.9139  -29.8518   20.1432 C   0  0  0  0  0  0  0  0  0  0  0  0
  -28.2966  -16.0982   19.4385 C   0  0  0  0  0  0  0  0  0  0  0  0
  -25.3922  -36.3335   24.7341 C   0  0  0  0  0  0  0  0  0  0  0  0
  -25.7849  -30.8738   19.8769 C   0  0  0  0  0  0  0  0  0  0  0  0
  -23.7250  -29.5659   21.5476 C   0  0  0  0  0  0  0  0  0  0  0  0
  -24.5520  -35.0605   24.6711 C   0  0  0  0  0  0  0  0  0  0  0  0
  -30.3349  -13.1838   19.6101 C   0  0  0  0  0  0  0  0  0  0  0  0
  -25.4409  -33.8274   24.7969 C   0  0  0  0  0  0  0  0  0  0  0  0
  -29.3288  -12.0329   19.5365 C   0  0  0  0  0  0  0  0  0  0  0  0
  -28.5800  -22.4785   20.8889 C   0  0  0  0  0  0  0  0  0  0  0  0
  -29.7883  -14.3646   20.4105 C   0  0  0  0  0  0  0  0  0  0  0  0
  -28.1532  -21.0284   20.7787 C   0  0  0  0  0  0  0  0  0  0  0  0
  -27.4700  -13.7064   19.8990 C   0  0  0  0  0  0  0  0  0  0  0  0
  -26.4464  -33.7519   23.6416 C   0  0  1  0  0  0  0  0  0  0  0  0
  -27.2599  -23.2166   21.0577 C   0  0  1  0  0  0  0  0  0  0  0  0
  -24.9232  -31.6655   20.8559 C   0  0  1  0  0  0  0  0  0  0  0  0
  -27.9504  -12.5197   19.0479 C   0  0  2  0  0  0  0  0  0  0  0  0
  -17.4714  -29.9777   19.5810 C   0  0  0  0  0  0  0  0  0  0  0  0
  -21.8135  -31.7059   24.2747 C   0  0  0  0  0  0  0  0  0  0  0  0
  -19.5278  -30.8874   23.6634 C   0  0  0  0  0  0  0  0  0  0  0  0
  -20.2999  -33.1263   22.8799 C   0  0  0  0  0  0  0  0  0  0  0  0
  -20.4099  -29.1427   17.3130 C   0  0  0  0  0  0  0  0  0  0  0  0
  -27.3234  -24.6630   20.6044 C   0  0  0  0  0  0  0  0  0  1  0  0
  -21.2805  -31.0423   21.8372 C   0  0  1  0  0  0  0  0  0  0  0  0
  -18.8910  -30.1001   19.0493 C   0  0  2  0  0  0  0  0  0  0  0  0
  -23.0068  -19.0084   17.8303 C   0  0  0  0  0  0  0  0  0  0  0  0
  -20.7536  -31.6762   23.1555 C   0  0  0  0  0  0  0  0  0  0  0  0
  -26.1612  -11.1858   20.0969 N   0  0  0  0  0  0  0  0  0  0  0  0
  -26.9346  -11.3931   19.0176 N   0  0  0  0  0  0  0  0  0  0  0  0
  -26.8515  -21.0866   20.1401 N   0  0  0  0  0  0  0  0  0  0  0  0
  -23.6645  -30.9891   21.1758 N   0  0  0  0  0  0  0  0  0  0  0  0
  -28.4827  -14.7738   19.8882 N   0  0  0  0  0  0  0  0  0  0  0  0
  -27.3825  -10.5941   16.8332 N   0  0  0  0  0  0  0  0  0  0  0  0
  -24.0938   -7.8621   18.2880 N   0  0  0  0  0  0  0  0  0  0  0  0
  -21.9611  -18.7197   18.8138 N   0  0  0  0  0  0  0  0  0  0  0  0
  -27.0239  -16.3620   18.9332 N   0  0  0  0  0  0  0  0  0  0  0  0
  -25.7993  -33.2731   22.4389 N   0  0  0  0  0  0  0  0  0  0  0  0
  -20.3064  -31.0255   20.7512 N   0  0  0  0  0  0  0  0  0  0  0  0
  -19.0653  -29.1158   17.9440 N   0  3  0  0  0  0  0  0  0  0  0  0
  -25.2208  -22.7997   19.8293 O   0  0  0  0  0  0  0  0  0  0  0  0
  -25.4903   -8.3218   16.5281 O   0  0  0  0  0  0  0  0  0  0  0  0
  -25.9710  -30.9895   22.8609 O   0  0  0  0  0  0  0  0  0  0  0  0
  -22.4148  -32.9495   20.9992 O   0  0  0  0  0  0  0  0  0  0  0  0
  -20.3210  -28.7288   20.4320 O   0  0  0  0  0  0  0  0  0  0  0  0
  -29.2079  -16.9290   19.4722 O   0  0  0  0  0  0  0  0  0  0  0  0
  -21.5956   -8.0742   23.2629 O   0  0  0  0  0  0  0  0  0  0  0  0
  -26.1988  -25.3652   21.1320 O   0  0  0  0  0  0  0  0  0  1  0  0
  -21.3121   -2.5940   23.8025 F   0  0  0  0  0  0  0  0  0  0  0  0
  -22.0124   -6.8670   25.7147 F   0  0  0  0  0  0  0  0  0  0  0  0
  -22.7457  -20.2511   17.3126 F   0  0  0  0  0  0  0  0  0  0  0  0
  -22.8181  -18.1571   16.7724 F   0  0  0  0  0  0  0  0  0  0  0  0
  1  2  1  0  0  0  0
  1  5  2  0  0  0  0
  2  6  2  0  0  0  0
  3  8  2  0  0  0  0
  3 18  1  0  0  0  0
  4  9  1  0  0  0  0
  4 18  2  0  0  0  0
  5 20  1  0  0  0  0
  6 22  1  0  0  0  0
  7 10  2  0  0  0  0
  7 21  1  0  0  0  0
  8 27  1  0  0  0  0
  9 27  2  0  0  0  0
 10 28  1  0  0  0  0
 11 12  2  0  0  0  0
 11 29  1  0  0  0  0
 12 30  1  0  0  0  0
 13 23  1  0  0  0  0
 13 28  2  0  0  0  0
 14 24  1  0  0  0  0
 14 25  2  0  0  0  0
 15 24  2  0  0  0  0
 15 26  1  0  0  0  0
 16 25  1  0  0  0  0
 16 26  2  0  0  0  0
 17 30  2  0  0  0  0
 17 31  1  0  0  0  0
 18 32  1  0  0  0  0
 19 32  1  0  0  0  0
 19 33  2  0  0  0  0
 19 35  1  0  0  0  0
 20 22  2  0  0  0  0
 20 40  1  0  0  0  0
 21 23  2  0  0  0  0
 21 41  1  0  0  0  0
 22 51  1  0  0  0  0
 23 42  1  0  0  0  0
 24 63  1  0  0  0  0
 25 67  1  0  0  0  0
 26 73  1  0  0  0  0
 27 83  1  0  0  0  0
 28 84  1  0  0  0  0
 29 31  2  0  0  0  0
 29 83  1  0  0  0  0
 30 85  1  0  0  0  0
 31 86  1  0  0  0  0
 32 65  2  0  0  0  0
 33 66  1  0  0  0  0
 33 70  1  0  0  0  0
 34 52  1  0  0  0  0
 34 67  1  0  0  0  0
 34 77  2  0  0  0  0
 35 71  1  0  0  0  0
 35 78  2  0  0  0  0
 36 53  1  0  0  0  0
 36 74  1  0  0  0  0
 36 79  2  0  0  0  0
 37 61  1  0  0  0  0
 37 68  1  0  0  0  0
 37 80  2  0  0  0  0
 38 62  1  0  0  0  0
 38 75  1  0  0  0  0
 38 81  2  0  0  0  0
 39 69  1  0  0  0  0
 39 73  1  0  0  0  0
 39 82  2  0  0  0  0
 40 43  1  0  0  0  0
 41 53  1  0  0  0  0
 42 68  1  0  0  0  0
 43 45  1  0  0  0  0
 44 46  1  0  0  0  0
 44 48  1  0  0  0  0
 45 51  1  0  0  0  0
 46 54  1  0  0  0  0
 47 49  1  0  0  0  0
 47 52  1  0  0  0  0
 48 69  1  0  0  0  0
 49 67  1  0  0  0  0
 50 54  1  0  0  0  0
 50 69  1  0  0  0  0
 51 74  1  0  0  0  0
 52 60  1  0  0  0  0
 53 68  1  0  0  0  0
 54 66  1  0  0  0  0
 55 62  1  0  0  0  0
 56 64  1  0  0  0  0
 57 64  1  0  0  0  0
 58 64  1  0  0  0  0
 59 76  1  0  0  0  0
 60 84  1  0  0  0  0
 61 64  1  0  0  0  0
 61 75  1  0  0  0  0
 62 76  1  0  0  0  0
 63 72  1  0  0  0  0
 63 87  1  0  0  0  0
 63 88  1  0  0  0  0
 65 66  1  0  0  0  0
M  CHG  1  76   1
M  ISO  4  39 100  60 101  73 100  84 101
M  END
> <Batch ID>
0073

> <Smiles>
CNC(C)C(=O)NC(C(=O)N1Cc2cc([101O:1][101CH2:1]C3CCN(c4cc([100NH:0][100C:0](=O)N5CCCC(n6nc(-c7ccc(Oc8ccc(F)cc8F)cc7)c(C(N)=O)c6N)C5)cc(C(N)(F)F)c4)C3=O)ccc2CC1C(=O)NC1CCCc2ccccc21)C(C)(C)C

> <Shape>
0.272

> <Color>
0.092

> <Negative vol penalty>
0.000

$$$$

  -OEChem-04042323413D

 90 99  0     1  0  0  0  0  0999 V2000
  -18.7652  -24.5474   24.7342 C   0  0  0  0  0  0  0  0  0  0  0  0
  -20.1389  -24.3400   24.6600 C   0  0  0  0  0  0  0  0  0  0  0  0
  -23.5803  -10.5761   23.3457 C   0  0  0  0  0  0  0  0  0  0  0  0
  -23.5592  -12.3721   24.9616 C   0  0  0  0  0  0  0  0  0  0  0  0
  -18.1970  -25.6682   24.1303 C   0  0  0  0  0  0  0  0  0  0  0  0
  -20.9450  -25.2530   23.9810 C   0  0  0  0  0  0  0  0  0  0  0  0
  -26.6698  -26.8881   25.4156 C   0  0  0  0  0  0  0  0  0  0  0  0
  -22.8568   -9.7738   24.2279 C   0  0  0  0  0  0  0  0  0  0  0  0
  -22.8356  -11.5698   25.8438 C   0  0  0  0  0  0  0  0  0  0  0  0
  -27.9114  -26.4801   24.9302 C   0  0  0  0  0  0  0  0  0  0  0  0
  -19.6439   -9.4396   25.2273 C   0  0  0  0  0  0  0  0  0  0  0  0
  -18.5674   -8.7174   24.7125 C   0  0  0  0  0  0  0  0  0  0  0  0
  -27.9405  -28.3708   23.4323 C   0  0  0  0  0  0  0  0  0  0  0  0
  -28.8064  -21.1009   21.0549 C   0  0  0  0  0  0  0  0  0  0  0  0
  -30.8841  -19.3391   21.6565 C   0  0  0  0  0  0  0  0  0  0  0  0
  -19.6238   -6.6551   25.3966 C   0  0  0  0  0  0  0  0  0  0  0  0
  -23.9316  -11.8753   23.7125 C   0  0  0  0  0  0  0  0  0  0  0  0
  -24.1617  -13.5767   21.8258 C   0  0  0  0  0  0  0  0  0  0  0  0
  -18.9977  -26.6004   23.4518 C   0  0  0  0  0  0  0  0  0  0  0  0
  -26.0482  -28.0365   24.9044 C   0  0  0  0  0  0  0  0  0  0  0  0
  -20.3867  -26.3867   23.3663 C   0  0  0  0  0  0  0  0  0  0  0  0
  -26.6922  -28.7927   23.9148 C   0  0  0  0  0  0  0  0  0  0  0  0
  -30.0654  -21.5969   21.3933 C   0  0  0  0  0  0  0  0  0  0  0  0
  -29.6250  -18.8431   21.3181 C   0  0  0  0  0  0  0  0  0  0  0  0
  -22.4844  -10.2706   25.4770 C   0  0  0  0  0  0  0  0  0  0  0  0
  -28.5457  -27.2198   23.9364 C   0  0  0  0  0  0  0  0  0  0  0  0
  -20.7105   -8.7696   25.8267 C   0  0  0  0  0  0  0  0  0  0  0  0
  -18.5573   -7.3251   24.7972 C   0  0  0  0  0  0  0  0  0  0  0  0
  -28.5862  -19.7240   21.0173 C   0  0  0  0  0  0  0  0  0  0  0  0
  -31.1042  -20.7160   21.6941 C   0  0  0  0  0  0  0  0  0  0  0  0
  -20.7004   -7.3773   25.9114 C   0  0  0  0  0  0  0  0  0  0  0  0
  -24.6795  -12.7043   22.8018 C   0  0  0  0  0  0  0  0  0  0  0  0
  -25.2720  -14.1253   21.2318 C   0  0  0  0  0  0  0  0  0  0  0  0
  -29.6359  -23.9788   20.6497 C   0  0  0  0  0  0  0  0  0  0  0  0
  -22.7989  -13.8654   21.4864 C   0  0  0  0  0  0  0  0  0  0  0  0
  -23.3325  -28.6172   23.3579 C   0  0  0  0  0  0  0  0  0  0  0  0
  -24.2254  -31.7110   23.7497 C   0  0  0  0  0  0  0  0  0  0  0  0
  -26.7446  -33.9583   24.2501 C   0  0  0  0  0  0  0  0  0  0  0  0
  -30.3280  -16.4354   21.5532 C   0  0  0  0  0  0  0  0  0  0  0  0
  -18.3322  -27.7721   22.7743 C   0  0  0  0  0  0  0  0  0  0  0  0
  -24.7210  -28.4782   25.4576 C   0  0  0  0  0  0  0  0  0  0  0  0
  -26.0764  -30.0445   23.3470 C   0  0  0  0  0  0  0  0  0  0  0  0
  -19.3026  -28.8877   22.3945 C   0  0  0  0  0  0  0  0  0  0  0  0
  -30.1636  -12.8792   21.6079 C   0  0  0  0  0  0  0  0  0  0  0  0
  -20.5409  -28.3101   21.7164 C   0  0  0  0  0  0  0  0  0  0  0  0
  -28.6796  -12.5884   21.8431 C   0  0  0  0  0  0  0  0  0  0  0  0
  -30.6294  -14.1118   22.3807 C   0  0  0  0  0  0  0  0  0  0  0  0
  -31.3055  -23.6025   22.2773 C   0  0  0  0  0  0  0  0  0  0  0  0
  -28.3441  -15.0317   22.3953 C   0  0  0  0  0  0  0  0  0  0  0  0
  -21.2975  -27.3673   22.6599 C   0  0  1  0  0  0  0  0  0  0  0  0
  -30.2775  -25.3219   20.9570 C   0  0  1  0  0  0  0  0  0  0  0  0
  -23.9442  -29.3772   24.5006 C   0  0  1  0  0  0  0  0  0  0  0  0
  -30.9660  -25.0885   22.3065 C   0  0  1  0  0  0  0  0  0  0  0  0
  -27.8131  -13.8370   21.5864 C   0  0  2  0  0  0  0  0  0  0  0  0
  -27.1698  -36.4198   24.4892 C   0  0  0  0  0  0  0  0  0  0  0  0
  -31.9079  -27.0490   20.1383 C   0  0  0  0  0  0  0  0  0  0  0  0
  -30.5392  -25.7415   18.4941 C   0  0  0  0  0  0  0  0  0  0  0  0
  -32.3768  -24.6131   19.7732 C   0  0  0  0  0  0  0  0  0  0  0  0
  -23.8856  -32.0598   20.7376 C   0  0  0  0  0  0  0  0  0  0  0  0
  -25.2041  -34.1815   20.9048 C   0  0  0  0  0  0  0  0  0  0  0  0
  -23.0314  -33.9669   22.1115 C   0  0  0  0  0  0  0  0  0  0  0  0
  -27.8294  -33.6232   26.9832 C   0  0  0  0  0  0  0  0  0  0  0  0
  -30.0339  -25.4234   23.4734 C   0  0  0  0  0  0  0  0  0  1  0  0
  -25.0479  -32.6953   22.9537 C   0  0  1  0  0  0  0  0  0  0  0  0
  -26.8821  -35.1177   25.2203 C   0  0  2  0  0  0  0  0  0  0  0  0
  -31.2656  -25.6779   19.8514 C   0  0  0  0  0  0  0  0  0  0  0  0
  -24.3032  -33.2013   21.6860 C   0  0  0  0  0  0  0  0  0  0  0  0
  -26.0149  -12.6958   22.8295 N   0  0  0  0  0  0  0  0  0  0  0  0
  -26.3455  -13.5695   21.8634 N   0  0  0  0  0  0  0  0  0  0  0  0
  -30.2875  -23.0065   21.4315 N   0  0  0  0  0  0  0  0  0  0  0  0
  -24.7749  -30.4318   23.9160 N   0  0  0  0  0  0  0  0  0  0  0  0
  -29.7646  -15.2560   22.0846 N   0  0  0  0  0  0  0  0  0  0  0  0
  -25.4250  -15.0239   20.2361 N   0  0  0  0  0  0  0  0  0  0  0  0
  -21.7812  -13.2138   22.1963 N   0  0  0  0  0  0  0  0  0  0  0  0
  -29.4041  -17.4440   21.2813 N   0  0  0  0  0  0  0  0  0  0  0  0
  -22.0681  -28.1261   23.6216 N   0  0  0  0  0  0  0  0  0  0  0  0
  -25.4315  -33.7524   23.8831 N   0  0  0  0  0  0  0  0  0  0  0  0
  -27.9938  -34.8616   26.1792 N   0  3  0  0  0  0  0  0  0  0  0  0
  -28.7558  -23.8495   19.8104 O   0  0  0  0  0  0  0  0  0  0  0  0
  -22.4930  -14.6649   20.5695 O   0  0  0  0  0  0  0  0  0  0  0  0
  -23.9606  -28.4872   22.3137 O   0  0  0  0  0  0  0  0  0  0  0  0
  -23.1388  -32.0662   24.2131 O   0  0  0  0  0  0  0  0  0  0  0  0
  -27.7062  -33.3032   23.8543 O   0  0  0  0  0  0  0  0  0  0  0  0
  -31.5371  -16.5330   21.3285 O   0  0  0  0  0  0  0  0  0  0  0  0
  -21.7782   -9.4881   26.3380 O   0  0  0  0  0  0  0  0  0  0  0  0
  -29.7573  -26.8233   23.4603 O   0  0  0  0  0  0  0  0  0  1  0  0
  -17.5227   -6.6318   24.3042 F   0  0  0  0  0  0  0  0  0  0  0  0
  -27.3720  -19.2586   20.6903 F   0  0  0  0  0  0  0  0  0  0  0  0
  -32.3186  -21.1815   22.0200 F   0  0  0  0  0  0  0  0  0  0  0  0
  -21.7216   -6.7282   26.4872 F   0  0  0  0  0  0  0  0  0  0  0  0
  1  2  1  0  0  0  0
  1  5  2  0  0  0  0
  2  6  2  0  0  0  0
  3  8  2  0  0  0  0
  3 17  1  0  0  0  0
  4  9  1  0  0  0  0
  4 17  2  0  0  0  0
  5 19  1  0  0  0  0
  6 21  1  0  0  0  0
  7 10  2  0  0  0  0
  7 20  1  0  0  0  0
  8 25  1  0  0  0  0
  9 25  2  0  0  0  0
 10 26  1  0  0  0  0
 11 12  2  0  0  0  0
 11 27  1  0  0  0  0
 12 28  1  0  0  0  0
 13 22  1  0  0  0  0
 13 26  2  0  0  0  0
 14 23  1  0  0  0  0
 14 29  2  0  0  0  0
 15 24  2  0  0  0  0
 15 30  1  0  0  0  0
 16 28  2  0  0  0  0
 16 31  1  0  0  0  0
 17 32  1  0  0  0  0
 18 32  1  0  0  0  0
 18 33  2  0  0  0  0
 18 35  1  0  0  0  0
 19 21  2  0  0  0  0
 19 40  1  0  0  0  0
 20 22  2  0  0  0  0
 20 41  1  0  0  0  0
 21 50  1  0  0  0  0
 22 42  1  0  0  0  0
 23 30  2  0  0  0  0
 23 70  1  0  0  0  0
 24 29  1  0  0  0  0
 24 75  1  0  0  0  0
 25 85  1  0  0  0  0
 26 86  1  0  0  0  0
 27 31  2  0  0  0  0
 27 85  1  0  0  0  0
 28 87  1  0  0  0  0
 29 88  1  0  0  0  0
 30 89  1  0  0  0  0
 31 90  1  0  0  0  0
 32 68  2  0  0  0  0
 33 69  1  0  0  0  0
 33 73  1  0  0  0  0
 34 51  1  0  0  0  0
 34 70  1  0  0  0  0
 34 79  2  0  0  0  0
 35 74  1  0  0  0  0
 35 80  2  0  0  0  0
 36 52  1  0  0  0  0
 36 76  1  0  0  0  0
 36 81  2  0  0  0  0
 37 64  1  0  0  0  0
 37 71  1  0  0  0  0
 37 82  2  0  0  0  0
 38 65  1  0  0  0  0
 38 77  1  0  0  0  0
 38 83  2  0  0  0  0
 39 72  1  0  0  0  0
 39 75  1  0  0  0  0
 39 84  2  0  0  0  0
 40 43  1  0  0  0  0
 41 52  1  0  0  0  0
 42 71  1  0  0  0  0
 43 45  1  0  0  0  0
 44 46  1  0  0  0  0
 44 47  1  0  0  0  0
 45 50  1  0  0  0  0
 46 54  1  0  0  0  0
 47 72  1  0  0  0  0
 48 53  1  0  0  0  0
 48 70  1  0  0  0  0
 49 54  1  0  0  0  0
 49 72  1  0  0  0  0
 50 76  1  0  0  0  0
 51 53  1  0  0  0  0
 51 66  1  0  0  0  0
 52 71  1  0  0  0  0
 53 63  1  0  0  0  0
 54 69  1  0  0  0  0
 55 65  1  0  0  0  0
 56 66  1  0  0  0  0
 57 66  1  0  0  0  0
 58 66  1  0  0  0  0
 59 67  1  0  0  0  0
 60 67  1  0  0  0  0
 61 67  1  0  0  0  0
 62 78  1  0  0  0  0
 63 86  1  0  0  0  0
 64 67  1  0  0  0  0
 64 77  1  0  0  0  0
 65 78  1  0  0  0  0
 68 69  1  0  0  0  0
M  CHG  1  78   1
M  ISO  4  39 100  63 101  75 100  86 101
M  END
> <Batch ID>
0073

> <Smiles>
CNC(C)C(=O)NC(C(=O)N1Cc2cc([101O:1][101CH2:1]C3CN(c4cc(F)c([100NH:0][100C:0](=O)N5CCCC(n6nc(-c7ccc(Oc8ccc(F)cc8F)cc7)c(C(N)=O)c6N)C5)cc4F)C(=O)C3C(C)(C)C)ccc2CC1C(=O)NC1CCCc2ccccc21)C(C)(C)C

> <Shape>
0.251

> <Color>
0.129

> <Negative vol penalty>
0.000

$$$$

  -OEChem-04042323413D

 86 95  0     1  0  0  0  0  0999 V2000
  -26.3453  -36.0766   16.1768 C   0  0  0  0  0  0  0  0  0  0  0  0
  -26.5157  -34.6974   16.1128 C   0  0  0  0  0  0  0  0  0  0  0  0
  -24.7856   -8.7037   21.6436 C   0  0  0  0  0  0  0  0  0  0  0  0
  -23.2358   -9.9009   20.2287 C   0  0  0  0  0  0  0  0  0  0  0  0
  -26.4543  -36.7353   17.4008 C   0  0  0  0  0  0  0  0  0  0  0  0
  -26.7962  -33.9761   17.2727 C   0  0  0  0  0  0  0  0  0  0  0  0
  -24.9246  -28.3035   18.6237 C   0  0  0  0  0  0  0  0  0  0  0  0
  -24.9234  -19.4294   16.9340 C   0  0  0  0  0  0  0  0  0  0  0  0
  -23.7288   -8.2998   22.4595 C   0  0  0  0  0  0  0  0  0  0  0  0
  -22.1790   -9.4970   21.0445 C   0  0  0  0  0  0  0  0  0  0  0  0
  -25.5498  -27.0613   18.5259 C   0  0  0  0  0  0  0  0  0  0  0  0
  -21.3955   -6.6552   24.7102 C   0  0  0  0  0  0  0  0  0  0  0  0
  -24.4713  -18.1792   16.5118 C   0  0  0  0  0  0  0  0  0  0  0  0
  -21.3601   -5.3200   25.1121 C   0  0  0  0  0  0  0  0  0  0  0  0
  -26.1898  -27.2074   20.8472 C   0  0  0  0  0  0  0  0  0  0  0  0
  -26.8224  -18.3828   17.9997 C   0  0  0  0  0  0  0  0  0  0  0  0
  -21.2500   -4.6269   22.8003 C   0  0  0  0  0  0  0  0  0  0  0  0
  -24.5391   -9.5042   20.5282 C   0  0  0  0  0  0  0  0  0  0  0  0
  -26.1398   -9.2499   18.5582 C   0  0  0  0  0  0  0  0  0  0  0  0
  -26.7267  -36.0205   18.5778 C   0  0  0  0  0  0  0  0  0  0  0  0
  -24.9366  -29.0132   19.8331 C   0  0  0  0  0  0  0  0  0  0  0  0
  -26.9102  -34.6260   18.5135 C   0  0  0  0  0  0  0  0  0  0  0  0
  -25.5617  -28.4573   20.9584 C   0  0  0  0  0  0  0  0  0  0  0  0
  -26.0990  -19.5312   17.6779 C   0  0  0  0  0  0  0  0  0  0  0  0
  -26.3703  -17.1326   17.5775 C   0  0  0  0  0  0  0  0  0  0  0  0
  -22.4255   -8.6964   22.1600 C   0  0  0  0  0  0  0  0  0  0  0  0
  -26.1851  -26.5143   19.6369 C   0  0  0  0  0  0  0  0  0  0  0  0
  -21.3581   -6.9763   23.3532 C   0  0  0  0  0  0  0  0  0  0  0  0
  -21.2874   -4.3059   24.1572 C   0  0  0  0  0  0  0  0  0  0  0  0
  -25.1947  -17.0308   16.8336 C   0  0  0  0  0  0  0  0  0  0  0  0
  -21.2854   -5.9622   22.3983 C   0  0  0  0  0  0  0  0  0  0  0  0
  -25.6304   -9.9222   19.6853 C   0  0  0  0  0  0  0  0  0  0  0  0
  -27.1631  -10.0512   18.1139 C   0  0  0  0  0  0  0  0  0  0  0  0
  -27.9057  -22.4996   18.8085 C   0  0  0  0  0  0  0  0  0  0  0  0
  -27.8846  -21.0950   18.2865 C   0  0  0  0  0  0  0  0  0  0  0  0
  -25.7250   -8.0119   17.9658 C   0  0  0  0  0  0  0  0  0  0  0  0
  -26.0913  -31.8209   20.7749 C   0  0  0  0  0  0  0  0  0  0  0  0
  -24.5352  -31.0980   23.5277 C   0  0  0  0  0  0  0  0  0  0  0  0
  -23.2349  -28.6981   25.5764 C   0  0  0  0  0  0  0  0  0  0  0  0
  -28.2928  -15.8955   18.6357 C   0  0  0  0  0  0  0  0  0  0  0  0
  -26.8820  -36.7822   19.8702 C   0  0  0  0  0  0  0  0  0  0  0  0
  -24.2345  -30.3399   19.9294 C   0  0  0  0  0  0  0  0  0  0  0  0
  -25.5855  -29.1696   22.2852 C   0  0  0  0  0  0  0  0  0  0  0  0
  -26.8104  -35.8966   21.1116 C   0  0  0  0  0  0  0  0  0  0  0  0
  -30.3922  -13.2187   19.6867 C   0  0  0  0  0  0  0  0  0  0  0  0
  -27.6792  -34.6557   20.9328 C   0  0  0  0  0  0  0  0  0  0  0  0
  -29.4571  -12.0072   19.6971 C   0  0  0  0  0  0  0  0  0  0  0  0
  -29.6790  -14.4896   20.1447 C   0  0  0  0  0  0  0  0  0  0  0  0
  -25.6720  -21.9032   18.3940 C   0  0  0  0  0  0  0  0  0  0  0  0
  -27.4993  -13.5843   19.4384 C   0  0  0  0  0  0  0  0  0  0  0  0
  -27.1910  -33.8055   19.7537 C   0  0  1  0  0  0  0  0  0  0  0  0
  -26.5132  -22.9646   19.1081 C   0  0  2  0  0  0  0  0  0  0  0  0
  -24.7519  -31.2082   21.0720 C   0  0  1  0  0  0  0  0  0  0  0  0
  -28.1556  -12.2932   18.9226 C   0  0  2  0  0  0  0  0  0  0  0  0
  -22.0592  -28.4104   27.7746 C   0  0  0  0  0  0  0  0  0  0  0  0
  -27.1657  -31.5838   24.9954 C   0  0  0  0  0  0  0  0  0  0  0  0
  -26.2027  -30.3879   26.9730 C   0  0  0  0  0  0  0  0  0  0  0  0
  -25.1427  -32.4915   26.1521 C   0  0  0  0  0  0  0  0  0  0  0  0
  -20.8672  -27.4818   24.2828 C   0  0  0  0  0  0  0  0  0  0  0  0
  -26.2530  -24.3702   18.6102 C   0  0  0  0  0  0  0  0  0  1  0  0
  -24.8956  -30.3695   24.7999 C   0  0  1  0  0  0  0  0  0  0  0  0
  -21.8910  -28.5892   26.2738 C   0  0  2  0  0  0  0  0  0  0  0  0
  -25.8531  -31.1954   25.7047 C   0  0  0  0  0  0  0  0  0  0  0  0
  -26.2769  -11.0626   19.9413 N   0  0  0  0  0  0  0  0  0  0  0  0
  -27.2031  -11.1131   18.9688 N   0  0  0  0  0  0  0  0  0  0  0  0
  -26.5492  -20.7773   18.0986 N   0  0  0  0  0  0  0  0  0  0  0  0
  -24.8905  -30.4669   22.3272 N   0  0  0  0  0  0  0  0  0  0  0  0
  -28.4576  -14.6983   19.3639 N   0  0  0  0  0  0  0  0  0  0  0  0
  -28.0236   -9.9438   17.0793 N   0  0  0  0  0  0  0  0  0  0  0  0
  -24.6568   -7.3169   18.5491 N   0  0  0  0  0  0  0  0  0  0  0  0
  -27.1071  -15.9675   17.9054 N   0  0  0  0  0  0  0  0  0  0  0  0
  -26.0212  -33.0418   20.1314 N   0  0  0  0  0  0  0  0  0  0  0  0
  -23.6329  -30.0109   25.4367 N   0  0  0  0  0  0  0  0  0  0  0  0
  -21.1256  -27.4251   25.7446 N   0  3  0  0  0  0  0  0  0  0  0  0
  -28.9502  -23.0982   18.9687 O   0  0  0  0  0  0  0  0  0  0  0  0
  -28.9019  -20.4605   18.0999 O   0  0  0  0  0  0  0  0  0  0  0  0
  -26.2957   -7.5279   16.9590 O   0  0  0  0  0  0  0  0  0  0  0  0
  -27.1127  -31.2305   21.1063 O   0  0  0  0  0  0  0  0  0  0  0  0
  -23.9532  -32.1834   23.5965 O   0  0  0  0  0  0  0  0  0  0  0  0
  -23.8700  -27.7166   25.1970 O   0  0  0  0  0  0  0  0  0  0  0  0
  -29.1535  -16.7794   18.6367 O   0  0  0  0  0  0  0  0  0  0  0  0
  -21.3940   -8.3023   22.9557 O   0  0  0  0  0  0  0  0  0  0  0  0
  -26.7967  -25.3022   19.5440 O   0  0  0  0  0  0  0  0  0  1  0  0
  -21.2550   -3.0237   24.5433 F   0  0  0  0  0  0  0  0  0  0  0  0
  -24.7503  -15.8347   16.4227 F   0  0  0  0  0  0  0  0  0  0  0  0
  -21.2504   -6.2644   21.0932 F   0  0  0  0  0  0  0  0  0  0  0  0
  1  2  1  0  0  0  0
  1  5  2  0  0  0  0
  2  6  2  0  0  0  0
  3  9  2  0  0  0  0
  3 18  1  0  0  0  0
  4 10  1  0  0  0  0
  4 18  2  0  0  0  0
  5 20  1  0  0  0  0
  6 22  1  0  0  0  0
  7 11  2  0  0  0  0
  7 21  1  0  0  0  0
  8 13  2  0  0  0  0
  8 24  1  0  0  0  0
  9 26  1  0  0  0  0
 10 26  2  0  0  0  0
 11 27  1  0  0  0  0
 12 14  2  0  0  0  0
 12 28  1  0  0  0  0
 13 30  1  0  0  0  0
 14 29  1  0  0  0  0
 15 23  1  0  0  0  0
 15 27  2  0  0  0  0
 16 24  2  0  0  0  0
 16 25  1  0  0  0  0
 17 29  2  0  0  0  0
 17 31  1  0  0  0  0
 18 32  1  0  0  0  0
 19 32  1  0  0  0  0
 19 33  2  0  0  0  0
 19 36  1  0  0  0  0
 20 22  2  0  0  0  0
 20 41  1  0  0  0  0
 21 23  2  0  0  0  0
 21 42  1  0  0  0  0
 22 51  1  0  0  0  0
 23 43  1  0  0  0  0
 24 66  1  0  0  0  0
 25 30  2  0  0  0  0
 25 71  1  0  0  0  0
 26 82  1  0  0  0  0
 27 83  1  0  0  0  0
 28 31  2  0  0  0  0
 28 82  1  0  0  0  0
 29 84  1  0  0  0  0
 30 85  1  0  0  0  0
 31 86  1  0  0  0  0
 32 64  2  0  0  0  0
 33 65  1  0  0  0  0
 33 69  1  0  0  0  0
 34 35  1  0  0  0  0
 34 52  1  0  0  0  0
 34 75  2  0  0  0  0
 35 66  1  0  0  0  0
 35 76  2  0  0  0  0
 36 70  1  0  0  0  0
 36 77  2  0  0  0  0
 37 53  1  0  0  0  0
 37 72  1  0  0  0  0
 37 78  2  0  0  0  0
 38 61  1  0  0  0  0
 38 67  1  0  0  0  0
 38 79  2  0  0  0  0
 39 62  1  0  0  0  0
 39 73  1  0  0  0  0
 39 80  2  0  0  0  0
 40 68  1  0  0  0  0
 40 71  1  0  0  0  0
 40 81  2  0  0  0  0
 41 44  1  0  0  0  0
 42 53  1  0  0  0  0
 43 67  1  0  0  0  0
 44 46  1  0  0  0  0
 45 47  1  0  0  0  0
 45 48  1  0  0  0  0
 46 51  1  0  0  0  0
 47 54  1  0  0  0  0
 48 68  1  0  0  0  0
 49 52  1  0  0  0  0
 49 66  1  0  0  0  0
 50 54  1  0  0  0  0
 50 68  1  0  0  0  0
 51 72  1  0  0  0  0
 52 60  1  0  0  0  0
 53 67  1  0  0  0  0
 54 65  1  0  0  0  0
 55 62  1  0  0  0  0
 56 63  1  0  0  0  0
 57 63  1  0  0  0  0
 58 63  1  0  0  0  0
 59 74  1  0  0  0  0
 60 83  1  0  0  0  0
 61 63  1  0  0  0  0
 61 73  1  0  0  0  0
 62 74  1  0  0  0  0
 64 65  1  0  0  0  0
M  CHG  1  74   1
M  ISO  4  40 100  60 101  71 100  83 101
M  END
> <Batch ID>
0073

> <Smiles>
CNC(C)C(=O)NC(C(=O)N1Cc2cc([101O:1][101CH2:1]C3CN(c4ccc(F)c([100NH:0][100C:0](=O)N5CCCC(n6nc(-c7ccc(Oc8ccc(F)cc8F)cc7)c(C(N)=O)c6N)C5)c4)C(=O)C3=O)ccc2CC1C(=O)NC1CCCc2ccccc21)C(C)(C)C

> <Shape>
0.241

> <Color>
0.128

> <Negative vol penalty>
0.000

$$$$

  -OEChem-04042323413D

 91100  0     1  0  0  0  0  0999 V2000
  -27.3338  -15.1873   25.5502 C   0  0  0  0  0  0  0  0  0  0  0  0
  -28.1659  -15.7263   26.5250 C   0  0  0  0  0  0  0  0  0  0  0  0
  -30.4660  -18.3409   24.0440 C   0  0  0  0  0  0  0  0  0  0  0  0
  -23.0735   -9.8698   19.9416 C   0  0  0  0  0  0  0  0  0  0  0  0
  -23.8315   -9.8778   22.2356 C   0  0  0  0  0  0  0  0  0  0  0  0
  -26.4942  -16.0226   24.8164 C   0  0  0  0  0  0  0  0  0  0  0  0
  -28.1500  -17.0990   26.7744 C   0  0  0  0  0  0  0  0  0  0  0  0
  -30.7797  -18.7043   30.6099 C   0  0  0  0  0  0  0  0  0  0  0  0
  -31.8515  -18.3583   24.2038 C   0  0  0  0  0  0  0  0  0  0  0  0
  -29.8793  -17.4562   23.1390 C   0  0  0  0  0  0  0  0  0  0  0  0
  -22.3285   -8.7175   20.1917 C   0  0  0  0  0  0  0  0  0  0  0  0
  -23.0864   -8.7255   22.4858 C   0  0  0  0  0  0  0  0  0  0  0  0
  -32.1733  -18.7419   30.6054 C   0  0  0  0  0  0  0  0  0  0  0  0
  -19.3784   -7.9243   21.6411 C   0  0  0  0  0  0  0  0  0  0  0  0
  -18.0719   -7.8788   21.1547 C   0  0  0  0  0  0  0  0  0  0  0  0
  -32.1018  -21.1273   30.2537 C   0  0  0  0  0  0  0  0  0  0  0  0
  -32.0638  -16.6065   22.5536 C   0  0  0  0  0  0  0  0  0  0  0  0
  -18.6311   -5.9343   19.8344 C   0  0  0  0  0  0  0  0  0  0  0  0
  -23.8251  -10.4500   20.9635 C   0  0  0  0  0  0  0  0  0  0  0  0
  -24.1691  -12.9748   20.8419 C   0  0  0  0  0  0  0  0  0  0  0  0
  -26.4778  -17.4077   25.0489 C   0  0  0  0  0  0  0  0  0  0  0  0
  -30.0354  -19.8783   30.4251 C   0  0  0  0  0  0  0  0  0  0  0  0
  -27.2923  -17.9556   26.0607 C   0  0  0  0  0  0  0  0  0  0  0  0
  -30.6988  -21.1023   30.2588 C   0  0  0  0  0  0  0  0  0  0  0  0
  -32.6505  -17.4911   23.4586 C   0  0  0  0  0  0  0  0  0  0  0  0
  -30.6782  -16.5890   22.3938 C   0  0  0  0  0  0  0  0  0  0  0  0
  -22.3349   -8.1453   21.4638 C   0  0  0  0  0  0  0  0  0  0  0  0
  -32.8347  -19.9530   30.4244 C   0  0  0  0  0  0  0  0  0  0  0  0
  -20.3113   -6.9749   21.2240 C   0  0  0  0  0  0  0  0  0  0  0  0
  -17.6982   -6.8838   20.2514 C   0  0  0  0  0  0  0  0  0  0  0  0
  -19.9377   -5.9799   20.3207 C   0  0  0  0  0  0  0  0  0  0  0  0
  -24.5953  -11.6401   20.7055 C   0  0  0  0  0  0  0  0  0  0  0  0
  -25.2621  -13.7231   20.4790 C   0  0  0  0  0  0  0  0  0  0  0  0
  -34.8710  -17.1704   22.5335 C   0  0  0  0  0  0  0  0  0  0  0  0
  -22.8986  -13.4919   21.2593 C   0  0  0  0  0  0  0  0  0  0  0  0
  -27.9502  -20.8935   28.2513 C   0  0  0  0  0  0  0  0  0  0  0  0
  -27.6423  -23.4012   30.2857 C   0  0  0  0  0  0  0  0  0  0  0  0
  -36.2340  -17.2845   27.7173 C   0  0  0  0  0  0  0  0  0  0  0  0
  -29.0108  -25.3056   32.7650 C   0  0  0  0  0  0  0  0  0  0  0  0
  -30.7290  -14.7644   20.6576 C   0  0  0  0  0  0  0  0  0  0  0  0
  -25.5439  -18.2644   24.2309 C   0  0  0  0  0  0  0  0  0  0  0  0
  -28.5326  -19.8249   30.4593 C   0  0  0  0  0  0  0  0  0  0  0  0
  -29.9460  -22.3940   30.0766 C   0  0  0  0  0  0  0  0  0  0  0  0
  -25.9173  -19.7430   24.2567 C   0  0  0  0  0  0  0  0  0  0  0  0
  -29.6147  -12.3498   18.2901 C   0  0  0  0  0  0  0  0  0  0  0  0
  -26.1368  -20.1986   25.6916 C   0  0  0  0  0  0  0  0  0  0  0  0
  -28.1744  -12.0597   18.7187 C   0  0  0  0  0  0  0  0  0  0  0  0
  -36.8841  -17.3315   24.0767 C   0  0  0  0  0  0  0  0  0  0  0  0
  -30.5289  -12.5787   19.4924 C   0  0  0  0  0  0  0  0  0  0  0  0
  -28.6214  -13.3057   20.8715 C   0  0  0  0  0  0  0  0  0  0  0  0
  -34.6185  -17.8823   24.9276 C   0  0  0  0  0  0  0  0  0  0  0  0
  -27.3143  -19.4496   26.3284 C   0  0  1  0  0  0  0  0  0  0  0  0
  -36.2552  -16.6550   22.8794 C   0  0  2  0  0  0  0  0  0  0  0  0
  -27.8765  -21.0043   29.7480 C   0  0  1  0  0  0  0  0  0  0  0  0
  -27.6494  -13.1324   19.6930 C   0  0  2  0  0  0  0  0  0  0  0  0
  -35.9420  -17.2010   25.2564 C   0  0  2  0  0  0  0  0  0  0  0  0
  -28.5362  -27.3090   34.1997 C   0  0  0  0  0  0  0  0  0  0  0  0
  -28.2294  -25.2333   27.9174 C   0  0  0  0  0  0  0  0  0  0  0  0
  -28.6800  -27.0798   29.5469 C   0  0  0  0  0  0  0  0  0  0  0  0
  -26.4146  -26.0413   29.4365 C   0  0  0  0  0  0  0  0  0  0  0  0
  -29.1746  -23.7086   35.2514 C   0  0  0  0  0  0  0  0  0  0  0  0
  -36.9779  -18.0547   28.7937 C   0  0  0  0  0  0  0  0  0  0  0  0
  -36.1872  -19.2538   29.3045 C   0  0  0  0  0  0  0  0  0  0  0  0
  -34.8765  -18.8294   29.9508 C   0  0  0  0  0  0  0  0  0  1  0  0
  -28.3285  -24.7359   30.4489 C   0  0  1  0  0  0  0  0  0  0  0  0
  -28.4470  -25.7951   34.0868 C   0  0  2  0  0  0  0  0  0  0  0  0
  -27.9276  -25.7481   29.3389 C   0  0  0  0  0  0  0  0  0  0  0  0
  -25.8605  -11.5429   20.2884 N   0  0  0  0  0  0  0  0  0  0  0  0
  -26.2385  -12.8261   20.1594 N   0  0  0  0  0  0  0  0  0  0  0  0
  -34.0454  -17.5088   23.6203 N   0  0  0  0  0  0  0  0  0  0  0  0
  -28.4779  -22.2890   30.1112 N   0  0  0  0  0  0  0  0  0  0  0  0
  -29.9700  -13.6106   20.3685 N   0  0  0  0  0  0  0  0  0  0  0  0
  -25.4737  -15.0544   20.4052 N   0  0  0  0  0  0  0  0  0  0  0  0
  -21.8857  -12.5838   21.5964 N   0  0  0  0  0  0  0  0  0  0  0  0
  -30.0817  -15.6906   21.4748 N   0  0  0  0  0  0  0  0  0  0  0  0
  -27.3583  -19.7536   27.7417 N   0  0  0  0  0  0  0  0  0  0  0  0
  -36.5245  -17.7675   26.4498 N   0  0  0  0  0  0  0  0  0  0  0  0
  -28.0292  -25.1857   31.8041 N   0  0  0  0  0  0  0  0  0  0  0  0
  -29.1983  -25.1938   35.2248 N   0  3  0  0  0  0  0  0  0  0  0  0
  -34.4958  -17.1746   21.3580 O   0  0  0  0  0  0  0  0  0  0  0  0
  -22.6633  -14.7228   21.3156 O   0  0  0  0  0  0  0  0  0  0  0  0
  -28.5020  -21.7775   27.6065 O   0  0  0  0  0  0  0  0  0  0  0  0
  -26.4104  -23.3465   30.3191 O   0  0  0  0  0  0  0  0  0  0  0  0
  -35.4734  -16.3511   27.9591 O   0  0  0  0  0  0  0  0  0  0  0  0
  -30.2034  -25.0581   32.6003 O   0  0  0  0  0  0  0  0  0  0  0  0
  -31.8586  -14.9319   20.1908 O   0  0  0  0  0  0  0  0  0  0  0  0
  -21.6079   -7.0210   21.7083 O   0  0  0  0  0  0  0  0  0  0  0  0
  -34.1949  -19.9925   30.4189 O   0  0  0  0  0  0  0  0  0  1  0  0
  -16.4431   -6.8392   19.7857 F   0  0  0  0  0  0  0  0  0  0  0  0
  -20.8292   -5.0643   19.9173 F   0  0  0  0  0  0  0  0  0  0  0  0
  -37.0967  -16.8166   21.8180 F   0  0  0  0  0  0  0  0  0  0  0  0
  1  2  1  0  0  0  0
  1  6  2  0  0  0  0
  2  7  2  0  0  0  0
  3  9  2  0  0  0  0
  3 10  1  0  0  0  0
  4 11  2  0  0  0  0
  4 19  1  0  0  0  0
  5 12  1  0  0  0  0
  5 19  2  0  0  0  0
  6 21  1  0  0  0  0
  7 23  1  0  0  0  0
  8 13  2  0  0  0  0
  8 22  1  0  0  0  0
  9 25  1  0  0  0  0
 10 26  2  0  0  0  0
 11 27  1  0  0  0  0
 12 27  2  0  0  0  0
 13 28  1  0  0  0  0
 14 15  2  0  0  0  0
 14 29  1  0  0  0  0
 15 30  1  0  0  0  0
 16 24  1  0  0  0  0
 16 28  2  0  0  0  0
 17 25  2  0  0  0  0
 17 26  1  0  0  0  0
 18 30  2  0  0  0  0
 18 31  1  0  0  0  0
 19 32  1  0  0  0  0
 20 32  1  0  0  0  0
 20 33  2  0  0  0  0
 20 35  1  0  0  0  0
 21 23  2  0  0  0  0
 21 41  1  0  0  0  0
 22 24  2  0  0  0  0
 22 42  1  0  0  0  0
 23 52  1  0  0  0  0
 24 43  1  0  0  0  0
 25 70  1  0  0  0  0
 26 75  1  0  0  0  0
 27 87  1  0  0  0  0
 28 88  1  0  0  0  0
 29 31  2  0  0  0  0
 29 87  1  0  0  0  0
 30 89  1  0  0  0  0
 31 90  1  0  0  0  0
 32 68  2  0  0  0  0
 33 69  1  0  0  0  0
 33 73  1  0  0  0  0
 34 53  1  0  0  0  0
 34 70  1  0  0  0  0
 34 80  2  0  0  0  0
 35 74  1  0  0  0  0
 35 81  2  0  0  0  0
 36 54  1  0  0  0  0
 36 76  1  0  0  0  0
 36 82  2  0  0  0  0
 37 65  1  0  0  0  0
 37 71  1  0  0  0  0
 37 83  2  0  0  0  0
 38 62  1  0  0  0  0
 38 77  1  0  0  0  0
 38 84  2  0  0  0  0
 39 66  1  0  0  0  0
 39 78  1  0  0  0  0
 39 85  2  0  0  0  0
 40 72  1  0  0  0  0
 40 75  1  0  0  0  0
 40 86  2  0  0  0  0
 41 44  1  0  0  0  0
 42 54  1  0  0  0  0
 43 71  1  0  0  0  0
 44 46  1  0  0  0  0
 45 47  1  0  0  0  0
 45 49  1  0  0  0  0
 46 52  1  0  0  0  0
 47 55  1  0  0  0  0
 48 53  1  0  0  0  0
 48 56  1  0  0  0  0
 49 72  1  0  0  0  0
 50 55  1  0  0  0  0
 50 72  1  0  0  0  0
 51 56  1  0  0  0  0
 51 70  1  0  0  0  0
 52 76  1  0  0  0  0
 53 91  1  0  0  0  0
 54 71  1  0  0  0  0
 55 69  1  0  0  0  0
 56 77  1  0  0  0  0
 57 66  1  0  0  0  0
 58 67  1  0  0  0  0
 59 67  1  0  0  0  0
 60 67  1  0  0  0  0
 61 79  1  0  0  0  0
 62 63  1  0  0  0  0
 63 64  1  0  0  0  0
 64 88  1  0  0  0  0
 65 67  1  0  0  0  0
 65 78  1  0  0  0  0
 66 79  1  0  0  0  0
 68 69  1  0  0  0  0
M  CHG  1  79   1
M  ISO  4  40 100  64 101  75 100  88 101
M  END
> <Batch ID>
0073

> <Smiles>
CNC(C)C(=O)NC(C(=O)N1Cc2cc([101O:1][101CH2:1]CCC(=O)NC3CC(F)C(=O)N(c4cccc([100NH:0][100C:0](=O)N5CCCC(n6nc(-c7ccc(Oc8ccc(F)cc8F)cc7)c(C(N)=O)c6N)C5)c4)C3)ccc2CC1C(=O)NC1CCCc2ccccc21)C(C)(C)C

> <Shape>
0.142

> <Color>
0.184

> <Negative vol penalty>
0.000

$$$$

  -OEChem-04042323413D

 87 95  0     1  0  0  0  0  0999 V2000
  -31.1014  -30.9322   25.1918 C   0  0  0  0  0  0  0  0  0  0  0  0
  -30.7238  -30.2782   24.0235 C   0  0  0  0  0  0  0  0  0  0  0  0
  -26.6065  -12.7721   21.6437 C   0  0  0  0  0  0  0  0  0  0  0  0
  -26.1514  -13.8698   19.5402 C   0  0  0  0  0  0  0  0  0  0  0  0
  -28.9327  -23.8438   19.0580 C   0  0  0  0  0  0  0  0  0  0  0  0
  -30.6449  -30.4713   26.4260 C   0  0  0  0  0  0  0  0  0  0  0  0
  -29.8903  -29.1622   24.0887 C   0  0  0  0  0  0  0  0  0  0  0  0
  -26.1968  -29.2909   20.6265 C   0  0  0  0  0  0  0  0  0  0  0  0
  -29.4182  -22.7601   19.7898 C   0  0  0  0  0  0  0  0  0  0  0  0
  -25.3222  -12.2280   21.6377 C   0  0  0  0  0  0  0  0  0  0  0  0
  -24.8670  -13.3257   19.5341 C   0  0  0  0  0  0  0  0  0  0  0  0
  -26.5382  -28.9505   19.3183 C   0  0  0  0  0  0  0  0  0  0  0  0
  -23.7102   -9.6641   20.1340 C   0  0  0  0  0  0  0  0  0  0  0  0
  -23.5764   -8.3145   20.4599 C   0  0  0  0  0  0  0  0  0  0  0  0
  -28.5332  -22.3901   17.1701 C   0  0  0  0  0  0  0  0  0  0  0  0
  -25.6327  -26.7414   19.6633 C   0  0  0  0  0  0  0  0  0  0  0  0
  -22.1544   -8.9051   22.3217 C   0  0  0  0  0  0  0  0  0  0  0  0
  -27.0211  -13.5931   20.5950 C   0  0  0  0  0  0  0  0  0  0  0  0
  -28.4901  -23.6588   17.7482 C   0  0  0  0  0  0  0  0  0  0  0  0
  -29.5138  -13.5894   20.0527 C   0  0  0  0  0  0  0  0  0  0  0  0
  -29.7975  -29.3549   26.5057 C   0  0  0  0  0  0  0  0  0  0  0  0
  -25.5796  -28.3541   21.4678 C   0  0  0  0  0  0  0  0  0  0  0  0
  -29.4231  -28.6851   25.3252 C   0  0  0  0  0  0  0  0  0  0  0  0
  -25.2822  -27.0732   20.9809 C   0  0  0  0  0  0  0  0  0  0  0  0
  -29.4612  -21.4914   19.2117 C   0  0  0  0  0  0  0  0  0  0  0  0
  -24.4525  -12.5047   20.5829 C   0  0  0  0  0  0  0  0  0  0  0  0
  -26.2588  -27.6746   18.8374 C   0  0  0  0  0  0  0  0  0  0  0  0
  -23.0661  -10.6343   20.9019 C   0  0  0  0  0  0  0  0  0  0  0  0
  -22.7985   -7.9350   21.5537 C   0  0  0  0  0  0  0  0  0  0  0  0
  -29.0187  -21.3064   17.9019 C   0  0  0  0  0  0  0  0  0  0  0  0
  -22.2882  -10.2548   21.9957 C   0  0  0  0  0  0  0  0  0  0  0  0
  -28.3475  -14.1559   20.6009 C   0  0  0  0  0  0  0  0  0  0  0  0
  -30.4994  -14.5085   20.3181 C   0  0  0  0  0  0  0  0  0  0  0  0
  -27.9758  -24.8055   16.9728 C   0  0  0  0  0  0  0  0  0  0  0  0
  -29.6905  -12.3438   19.3650 C   0  0  0  0  0  0  0  0  0  0  0  0
  -26.3506  -26.9575   24.2171 C   0  0  0  0  0  0  0  0  0  0  0  0
  -23.3418  -25.7638   24.0056 C   0  0  0  0  0  0  0  0  0  0  0  0
  -20.6903  -24.9246   22.0277 C   0  0  0  0  0  0  0  0  0  0  0  0
  -30.4315  -20.4074   21.2684 C   0  0  0  0  0  0  0  0  0  0  0  0
  -29.3679  -28.8653   27.8659 C   0  0  0  0  0  0  0  0  0  0  0  0
  -25.1935  -28.7454   22.8678 C   0  0  0  0  0  0  0  0  0  0  0  0
  -24.6024  -26.0374   21.8373 C   0  0  0  0  0  0  0  0  0  0  0  0
  -28.1849  -27.9016   27.8207 C   0  0  0  0  0  0  0  0  0  0  0  0
  -31.6972  -17.9106   23.4686 C   0  0  0  0  0  0  0  0  0  0  0  0
  -28.3985  -26.8444   26.7421 C   0  0  0  0  0  0  0  0  0  0  0  0
  -31.0929  -16.6120   22.9293 C   0  0  0  0  0  0  0  0  0  0  0  0
  -30.7234  -19.0816   23.3497 C   0  0  0  0  0  0  0  0  0  0  0  0
  -29.5633  -17.9945   21.4678 C   0  0  0  0  0  0  0  0  0  0  0  0
  -28.5002  -27.4861   25.3531 C   0  0  1  0  0  0  0  0  0  0  0  0
  -25.0335  -27.5485   23.8002 C   0  0  1  0  0  0  0  0  0  0  0  0
  -30.5307  -16.8003   21.5066 C   0  0  2  0  0  0  0  0  0  0  0  0
  -18.3865  -23.9357   22.1369 C   0  0  0  0  0  0  0  0  0  0  0  0
  -24.5536  -22.9858   24.3584 C   0  0  0  0  0  0  0  0  0  0  0  0
  -22.4019  -22.0172   23.5215 C   0  0  0  0  0  0  0  0  0  0  0  0
  -22.4280  -23.3648   25.6205 C   0  0  0  0  0  0  0  0  0  0  0  0
  -29.2158  -28.7995   14.3774 C   0  0  0  0  0  0  0  0  0  0  0  0
  -30.6819  -28.1157   16.2715 C   0  0  0  0  0  0  0  0  0  0  0  0
  -30.3104  -26.5481   14.3578 C   0  0  0  0  0  0  0  0  0  0  0  0
  -19.4561  -27.3869   20.9449 C   0  0  0  0  0  0  0  0  0  0  0  0
  -27.7298  -27.9880   16.9951 C   0  0  0  0  0  0  0  0  0  1  0  0
  -22.7217  -24.5298   23.3960 C   0  0  1  0  0  0  0  0  0  0  0  0
  -19.2061  -25.2166   22.1555 C   0  0  2  0  0  0  0  0  0  0  0  0
  -28.3977  -27.0361   16.0018 C   0  0  1  0  0  0  0  0  0  0  0  0
  -23.0409  -23.2431   24.2083 C   0  0  0  0  0  0  0  0  0  0  0  0
  -29.6406  -27.6035   15.2564 C   0  0  0  0  0  0  0  0  0  0  0  0
  -28.5699  -15.3429   21.1717 N   0  0  0  0  0  0  0  0  0  0  0  0
  -29.8874  -15.5297   20.9836 N   0  0  0  0  0  0  0  0  0  0  0  0
  -24.2503  -26.4660   23.2011 N   0  0  0  0  0  0  0  0  0  0  0  0
  -30.2358  -19.2013   21.9740 N   0  0  0  0  0  0  0  0  0  0  0  0
  -31.8212  -14.5346   20.0449 N   0  0  0  0  0  0  0  0  0  0  0  0
  -26.7204  -24.7505   16.5279 N   0  0  0  0  0  0  0  0  0  0  0  0
  -28.5725  -11.5196   19.1776 N   0  0  0  0  0  0  0  0  0  0  0  0
  -29.9549  -20.3927   19.9580 N   0  0  0  0  0  0  0  0  0  0  0  0
  -27.1862  -27.8468   24.8655 N   0  0  0  0  0  0  0  0  0  0  0  0
  -21.2969  -24.8131   23.2610 N   0  0  0  0  0  0  0  0  0  0  0  0
  -28.7964  -25.8329   16.7579 N   0  3  0  0  0  0  0  0  0  0  0  0
  -18.7500  -26.0828   21.0319 N   0  3  0  0  0  0  0  0  0  0  0  0
  -30.8098  -11.9652   18.9439 O   0  0  0  0  0  0  0  0  0  0  0  0
  -26.5902  -25.7814   23.9703 O   0  0  0  0  0  0  0  0  0  0  0  0
  -23.0262  -26.0965   25.1507 O   0  0  0  0  0  0  0  0  0  0  0  0
  -21.2543  -24.8035   20.9425 O   0  0  0  0  0  0  0  0  0  0  0  0
  -31.0058  -21.3723   21.7794 O   0  0  0  0  0  0  0  0  0  0  0  0
  -23.1993  -11.9737   20.5765 O   0  0  0  0  0  0  0  0  0  0  0  0
  -26.5916  -27.3395   17.5612 O   0  0  0  0  0  0  0  0  0  1  0  0
  -22.6689   -6.6388   21.8657 F   0  0  0  0  0  0  0  0  0  0  0  0
  -29.0568  -20.0917   17.3358 F   0  0  0  0  0  0  0  0  0  0  0  0
  -21.6660  -11.1821   22.7365 F   0  0  0  0  0  0  0  0  0  0  0  0
  1  2  1  0  0  0  0
  1  6  2  0  0  0  0
  2  7  2  0  0  0  0
  3 10  2  0  0  0  0
  3 18  1  0  0  0  0
  4 11  1  0  0  0  0
  4 18  2  0  0  0  0
  5  9  2  0  0  0  0
  5 19  1  0  0  0  0
  6 21  1  0  0  0  0
  7 23  1  0  0  0  0
  8 12  2  0  0  0  0
  8 22  1  0  0  0  0
  9 25  1  0  0  0  0
 10 26  1  0  0  0  0
 11 26  2  0  0  0  0
 12 27  1  0  0  0  0
 13 14  2  0  0  0  0
 13 28  1  0  0  0  0
 14 29  1  0  0  0  0
 15 19  2  0  0  0  0
 15 30  1  0  0  0  0
 16 24  1  0  0  0  0
 16 27  2  0  0  0  0
 17 29  2  0  0  0  0
 17 31  1  0  0  0  0
 18 32  1  0  0  0  0
 19 34  1  0  0  0  0
 20 32  1  0  0  0  0
 20 33  2  0  0  0  0
 20 35  1  0  0  0  0
 21 23  2  0  0  0  0
 21 40  1  0  0  0  0
 22 24  2  0  0  0  0
 22 41  1  0  0  0  0
 23 49  1  0  0  0  0
 24 42  1  0  0  0  0
 25 30  2  0  0  0  0
 25 73  1  0  0  0  0
 26 83  1  0  0  0  0
 27 84  1  0  0  0  0
 28 31  2  0  0  0  0
 28 83  1  0  0  0  0
 29 85  1  0  0  0  0
 30 86  1  0  0  0  0
 31 87  1  0  0  0  0
 32 66  2  0  0  0  0
 33 67  1  0  0  0  0
 33 70  1  0  0  0  0
 34 71  1  0  0  0  0
 34 76  2  0  0  0  0
 35 72  1  0  0  0  0
 35 78  2  0  0  0  0
 36 50  1  0  0  0  0
 36 74  1  0  0  0  0
 36 79  2  0  0  0  0
 37 61  1  0  0  0  0
 37 68  1  0  0  0  0
 37 80  2  0  0  0  0
 38 62  1  0  0  0  0
 38 75  1  0  0  0  0
 38 81  2  0  0  0  0
 39 69  1  0  0  0  0
 39 73  1  0  0  0  0
 39 82  2  0  0  0  0
 40 43  1  0  0  0  0
 41 50  1  0  0  0  0
 42 68  1  0  0  0  0
 43 45  1  0  0  0  0
 44 46  1  0  0  0  0
 44 47  1  0  0  0  0
 45 49  1  0  0  0  0
 46 51  1  0  0  0  0
 47 69  1  0  0  0  0
 48 51  1  0  0  0  0
 48 69  1  0  0  0  0
 49 74  1  0  0  0  0
 50 68  1  0  0  0  0
 51 67  1  0  0  0  0
 52 62  1  0  0  0  0
 53 64  1  0  0  0  0
 54 64  1  0  0  0  0
 55 64  1  0  0  0  0
 56 65  1  0  0  0  0
 57 65  1  0  0  0  0
 58 65  1  0  0  0  0
 59 77  1  0  0  0  0
 60 63  1  0  0  0  0
 60 84  1  0  0  0  0
 61 64  1  0  0  0  0
 61 75  1  0  0  0  0
 62 77  1  0  0  0  0
 63 65  1  0  0  0  0
 63 76  1  0  0  0  0
 66 67  1  0  0  0  0
M  CHG  2  76   1  77   1
M  ISO  4  39 100  60 101  73 100  84 101
M  END
> <Batch ID>
0073

> <Smiles>
CNC(C)C(=O)NC(C(=O)N1Cc2cc([101O:1][101CH2:1]C(NC(=N)c3ccc([100NH:0][100C:0](=O)N4CCCC(n5nc(-c6ccc(Oc7ccc(F)cc7F)cc6)c(C(N)=O)c5N)C4)c(F)c3)C(C)(C)C)ccc2CC1C(=O)NC1CCCc2ccccc21)C(C)(C)C

> <Shape>
0.216

> <Color>
0.065

> <Negative vol penalty>
0.000

$$$$

  -OEChem-04042323413D

 85 94  0     1  0  0  0  0  0999 V2000
  -28.0537  -24.5561   17.2361 C   0  0  0  0  0  0  0  0  0  0  0  0
  -26.8603  -24.8248   17.8988 C   0  0  0  0  0  0  0  0  0  0  0  0
  -25.2392  -13.9609   18.8637 C   0  0  0  0  0  0  0  0  0  0  0  0
  -23.3342  -13.8782   20.3472 C   0  0  0  0  0  0  0  0  0  0  0  0
  -29.2562  -25.0497   17.7403 C   0  0  0  0  0  0  0  0  0  0  0  0
  -26.8690  -25.5865   19.0668 C   0  0  0  0  0  0  0  0  0  0  0  0
  -23.2053  -29.0819   19.1337 C   0  0  0  0  0  0  0  0  0  0  0  0
  -18.6550  -21.3660   23.5570 C   0  0  0  0  0  0  0  0  0  0  0  0
  -19.8869  -20.8250   23.1890 C   0  0  0  0  0  0  0  0  0  0  0  0
  -25.6793  -12.7340   19.3603 C   0  0  0  0  0  0  0  0  0  0  0  0
  -23.7742  -12.6512   20.8438 C   0  0  0  0  0  0  0  0  0  0  0  0
  -21.9156  -28.6469   19.4355 C   0  0  0  0  0  0  0  0  0  0  0  0
  -23.7274   -9.4133   19.8772 C   0  0  0  0  0  0  0  0  0  0  0  0
  -22.7810   -8.3997   20.0276 C   0  0  0  0  0  0  0  0  0  0  0  0
  -22.1901  -29.4249   21.7024 C   0  0  0  0  0  0  0  0  0  0  0  0
  -20.6214  -23.0032   22.4454 C   0  0  0  0  0  0  0  0  0  0  0  0
  -23.2540   -8.3093   22.3951 C   0  0  0  0  0  0  0  0  0  0  0  0
  -24.0667  -14.5330   19.3572 C   0  0  0  0  0  0  0  0  0  0  0  0
  -22.7512  -16.0166   17.7521 C   0  0  0  0  0  0  0  0  0  0  0  0
  -29.2784  -25.8259   18.9098 C   0  0  0  0  0  0  0  0  0  0  0  0
  -24.0025  -29.6829   20.1185 C   0  0  0  0  0  0  0  0  0  0  0  0
  -28.0730  -26.0898   19.5879 C   0  0  0  0  0  0  0  0  0  0  0  0
  -23.4887  -29.8691   21.4098 C   0  0  0  0  0  0  0  0  0  0  0  0
  -18.4063  -22.7256   23.3692 C   0  0  0  0  0  0  0  0  0  0  0  0
  -19.3895  -23.5442   22.8134 C   0  0  0  0  0  0  0  0  0  0  0  0
  -20.8701  -21.6436   22.6332 C   0  0  0  0  0  0  0  0  0  0  0  0
  -24.9468  -12.0791   20.3503 C   0  0  0  0  0  0  0  0  0  0  0  0
  -21.4089  -28.8157   20.7208 C   0  0  0  0  0  0  0  0  0  0  0  0
  -24.4371   -9.8749   20.9858 C   0  0  0  0  0  0  0  0  0  0  0  0
  -22.5443   -7.8477   21.2865 C   0  0  0  0  0  0  0  0  0  0  0  0
  -24.2004   -9.3229   22.2447 C   0  0  0  0  0  0  0  0  0  0  0  0
  -23.6119  -15.8007   18.8450 C   0  0  0  0  0  0  0  0  0  0  0  0
  -22.6305  -17.3825   17.6747 C   0  0  0  0  0  0  0  0  0  0  0  0
  -19.1631  -25.6619   21.5049 C   0  0  0  0  0  0  0  0  0  0  0  0
  -22.1173  -15.0672   16.8846 C   0  0  0  0  0  0  0  0  0  0  0  0
  -26.7789  -28.9773   21.4959 C   0  0  0  0  0  0  0  0  0  0  0  0
  -26.3879  -31.8858   22.8780 C   0  0  0  0  0  0  0  0  0  0  0  0
  -24.2567  -34.3630   23.8619 C   0  0  0  0  0  0  0  0  0  0  0  0
  -23.2049  -21.7657   21.6951 C   0  0  0  0  0  0  0  0  0  0  0  0
  -30.6081  -26.2980   19.4426 C   0  0  0  0  0  0  0  0  0  0  0  0
  -25.3818  -30.1710   19.7698 C   0  0  0  0  0  0  0  0  0  0  0  0
  -24.2966  -30.5268   22.4975 C   0  0  0  0  0  0  0  0  0  0  0  0
  -30.4880  -27.4116   20.4797 C   0  0  0  0  0  0  0  0  0  0  0  0
  -25.0219  -21.4146   18.6534 C   0  0  0  0  0  0  0  0  0  0  0  0
  -29.4141  -27.0701   21.5078 C   0  0  0  0  0  0  0  0  0  0  0  0
  -24.7832  -19.9565   18.2547 C   0  0  0  0  0  0  0  0  0  0  0  0
  -25.1549  -21.5743   20.1668 C   0  0  0  0  0  0  0  0  0  0  0  0
  -23.8143  -19.5436   20.5520 C   0  0  0  0  0  0  0  0  0  0  0  0
  -18.8378  -25.9484   23.5667 C   0  0  0  0  0  0  0  0  0  0  0  0
  -28.0386  -26.9330   20.8440 C   0  0  1  0  0  0  0  0  0  0  0  0
  -26.2935  -30.3046   20.9858 C   0  0  1  0  0  0  0  0  0  0  0  0
  -23.6091  -19.3420   19.0418 C   0  0  2  0  0  0  0  0  0  0  0  0
  -18.8145  -26.9212   22.3496 C   0  0  2  0  0  0  0  0  0  0  0  0
  -17.0777  -23.2777   23.7727 C   0  0  0  0  0  0  0  0  0  0  0  0
  -17.4453  -27.5145   22.0362 C   0  0  0  0  0  0  0  0  0  0  0  0
  -24.2274  -36.6003   24.9981 C   0  0  0  0  0  0  0  0  0  0  0  0
  -26.7848  -30.5178   25.5764 C   0  0  0  0  0  0  0  0  0  0  0  0
  -25.8196  -32.5521   26.6711 C   0  0  0  0  0  0  0  0  0  0  0  0
  -27.9283  -32.7305   25.3503 C   0  0  0  0  0  0  0  0  0  0  0  0
  -23.1271  -35.6921   21.4710 C   0  0  0  0  0  0  0  0  0  0  0  0
  -19.9065  -27.9732   22.3606 C   0  0  0  0  0  0  0  0  0  1  0  0
  -25.7338  -32.3896   24.1418 C   0  0  1  0  0  0  0  0  0  0  0  0
  -24.3032  -35.8678   23.6675 C   0  0  2  0  0  0  0  0  0  0  0  0
  -26.5518  -32.0333   25.4151 C   0  0  0  0  0  0  0  0  0  0  0  0
  -24.0099  -16.9384   19.4204 N   0  0  0  0  0  0  0  0  0  0  0  0
  -23.3967  -17.8824   18.6863 N   0  0  0  0  0  0  0  0  0  0  0  0
  -19.1626  -24.8869   22.6205 N   0  0  0  0  0  0  0  0  0  0  0  0
  -25.6419  -30.9814   22.1090 N   0  0  0  0  0  0  0  0  0  0  0  0
  -24.0052  -20.9726   20.8458 N   0  0  0  0  0  0  0  0  0  0  0  0
  -21.9448  -18.1929   16.8407 N   0  0  0  0  0  0  0  0  0  0  0  0
  -22.3489  -13.7025   17.1045 N   0  0  0  0  0  0  0  0  0  0  0  0
  -22.1212  -21.0935   22.2595 N   0  0  0  0  0  0  0  0  0  0  0  0
  -27.4809  -28.2385   20.5627 N   0  0  0  0  0  0  0  0  0  0  0  0
  -25.5212  -33.8200   23.9491 N   0  0  0  0  0  0  0  0  0  0  0  0
  -23.1631  -36.3159   22.8188 N   0  3  0  0  0  0  0  0  0  0  0  0
  -19.3619  -25.4218   20.3357 O   0  0  0  0  0  0  0  0  0  0  0  0
  -21.3809  -15.4192   15.9320 O   0  0  0  0  0  0  0  0  0  0  0  0
  -26.5359  -28.6485   22.6511 O   0  0  0  0  0  0  0  0  0  0  0  0
  -27.5163  -32.2856   22.5802 O   0  0  0  0  0  0  0  0  0  0  0  0
  -23.2040  -33.7327   23.9332 O   0  0  0  0  0  0  0  0  0  0  0  0
  -23.4461  -22.9606   21.8848 O   0  0  0  0  0  0  0  0  0  0  0  0
  -25.3758  -10.8818   20.8350 O   0  0  0  0  0  0  0  0  0  0  0  0
  -20.1506  -28.3913   21.0182 O   0  0  0  0  0  0  0  0  0  1  0  0
  -21.6344   -6.8755   21.4310 F   0  0  0  0  0  0  0  0  0  0  0  0
  -24.8783   -9.7631   23.3136 F   0  0  0  0  0  0  0  0  0  0  0  0
  1  2  1  0  0  0  0
  1  5  2  0  0  0  0
  2  6  2  0  0  0  0
  3 10  2  0  0  0  0
  3 18  1  0  0  0  0
  4 11  1  0  0  0  0
  4 18  2  0  0  0  0
  5 20  1  0  0  0  0
  6 22  1  0  0  0  0
  7 12  2  0  0  0  0
  7 21  1  0  0  0  0
  8  9  2  0  0  0  0
  8 24  1  0  0  0  0
  9 26  1  0  0  0  0
 10 27  1  0  0  0  0
 11 27  2  0  0  0  0
 12 28  1  0  0  0  0
 13 14  2  0  0  0  0
 13 29  1  0  0  0  0
 14 30  1  0  0  0  0
 15 23  1  0  0  0  0
 15 28  2  0  0  0  0
 16 25  1  0  0  0  0
 16 26  2  0  0  0  0
 17 30  2  0  0  0  0
 17 31  1  0  0  0  0
 18 32  1  0  0  0  0
 19 32  1  0  0  0  0
 19 33  2  0  0  0  0
 19 35  1  0  0  0  0
 20 22  2  0  0  0  0
 20 40  1  0  0  0  0
 21 23  2  0  0  0  0
 21 41  1  0  0  0  0
 22 50  1  0  0  0  0
 23 42  1  0  0  0  0
 24 25  2  0  0  0  0
 24 54  1  0  0  0  0
 25 67  1  0  0  0  0
 26 72  1  0  0  0  0
 27 82  1  0  0  0  0
 28 83  1  0  0  0  0
 29 31  2  0  0  0  0
 29 82  1  0  0  0  0
 30 84  1  0  0  0  0
 31 85  1  0  0  0  0
 32 65  2  0  0  0  0
 33 66  1  0  0  0  0
 33 70  1  0  0  0  0
 34 53  1  0  0  0  0
 34 67  1  0  0  0  0
 34 76  2  0  0  0  0
 35 71  1  0  0  0  0
 35 77  2  0  0  0  0
 36 51  1  0  0  0  0
 36 73  1  0  0  0  0
 36 78  2  0  0  0  0
 37 62  1  0  0  0  0
 37 68  1  0  0  0  0
 37 79  2  0  0  0  0
 38 63  1  0  0  0  0
 38 74  1  0  0  0  0
 38 80  2  0  0  0  0
 39 69  1  0  0  0  0
 39 72  1  0  0  0  0
 39 81  2  0  0  0  0
 40 43  1  0  0  0  0
 41 51  1  0  0  0  0
 42 68  1  0  0  0  0
 43 45  1  0  0  0  0
 44 46  1  0  0  0  0
 44 47  1  0  0  0  0
 45 50  1  0  0  0  0
 46 52  1  0  0  0  0
 47 69  1  0  0  0  0
 48 52  1  0  0  0  0
 48 69  1  0  0  0  0
 49 53  1  0  0  0  0
 49 67  1  0  0  0  0
 50 73  1  0  0  0  0
 51 68  1  0  0  0  0
 52 66  1  0  0  0  0
 53 55  1  0  0  0  0
 53 61  1  0  0  0  0
 56 63  1  0  0  0  0
 57 64  1  0  0  0  0
 58 64  1  0  0  0  0
 59 64  1  0  0  0  0
 60 75  1  0  0  0  0
 61 83  1  0  0  0  0
 62 64  1  0  0  0  0
 62 74  1  0  0  0  0
 63 75  1  0  0  0  0
 65 66  1  0  0  0  0
M  CHG  1  75   1
M  ISO  4  39 100  61 101  72 100  83 101
M  END
> <Batch ID>
0073

> <Smiles>
CNC(C)C(=O)NC(C(=O)N1Cc2cc([101O:1][101CH2:1]C3(C)CN(c4cc([100NH:0][100C:0](=O)N5CCCC(n6nc(-c7ccc(Oc8ccc(F)cc8F)cc7)c(C(N)=O)c6N)C5)ccc4C)C3=O)ccc2CC1C(=O)NC1CCCc2ccccc21)C(C)(C)C

> <Shape>
0.288

> <Color>
0.077

> <Negative vol penalty>
0.000

$$$$

  -OEChem-04042323413D

 88 97  0     1  0  0  0  0  0999 V2000
  -32.4974  -35.9316   14.8901 C   0  0  0  0  0  0  0  0  0  0  0  0
  -32.4595  -34.6035   15.3025 C   0  0  0  0  0  0  0  0  0  0  0  0
  -23.1268   -9.8439   19.8985 C   0  0  0  0  0  0  0  0  0  0  0  0
  -23.8967   -9.8156   22.1884 C   0  0  0  0  0  0  0  0  0  0  0  0
  -31.7633  -36.8957   15.5797 C   0  0  0  0  0  0  0  0  0  0  0  0
  -31.6882  -34.2389   16.4055 C   0  0  0  0  0  0  0  0  0  0  0  0
  -28.6422  -28.9846   17.1928 C   0  0  0  0  0  0  0  0  0  0  0  0
  -22.4233   -8.6601   20.1204 C   0  0  0  0  0  0  0  0  0  0  0  0
  -23.1931   -8.6318   22.4103 C   0  0  0  0  0  0  0  0  0  0  0  0
  -28.9499  -27.8175   17.8907 C   0  0  0  0  0  0  0  0  0  0  0  0
  -19.5102   -7.7265   21.5609 C   0  0  0  0  0  0  0  0  0  0  0  0
  -18.2033   -7.6492   21.0795 C   0  0  0  0  0  0  0  0  0  0  0  0
  -29.4332  -19.3988   22.5568 C   0  0  0  0  0  0  0  0  0  0  0  0
  -27.6864  -28.6222   19.7815 C   0  0  0  0  0  0  0  0  0  0  0  0
  -30.9380  -17.9188   20.7325 C   0  0  0  0  0  0  0  0  0  0  0  0
  -18.8218   -5.7618   19.7038 C   0  0  0  0  0  0  0  0  0  0  0  0
  -23.8636  -10.4216   20.9325 C   0  0  0  0  0  0  0  0  0  0  0  0
  -30.3088  -20.0476   21.6862 C   0  0  0  0  0  0  0  0  0  0  0  0
  -24.1199  -12.9592   20.8786 C   0  0  0  0  0  0  0  0  0  0  0  0
  -30.9750  -36.5411   16.6858 C   0  0  0  0  0  0  0  0  0  0  0  0
  -27.8620  -29.9857   17.7891 C   0  0  0  0  0  0  0  0  0  0  0  0
  -30.9439  -35.1994   17.1114 C   0  0  0  0  0  0  0  0  0  0  0  0
  -27.3681  -29.7999   19.0882 C   0  0  0  0  0  0  0  0  0  0  0  0
  -30.0624  -17.2700   21.6032 C   0  0  0  0  0  0  0  0  0  0  0  0
  -22.4563   -8.0541   21.3763 C   0  0  0  0  0  0  0  0  0  0  0  0
  -28.4744  -27.6374   19.1863 C   0  0  0  0  0  0  0  0  0  0  0  0
  -20.4729   -6.8215   21.1137 C   0  0  0  0  0  0  0  0  0  0  0  0
  -17.8591   -6.6668   20.1510 C   0  0  0  0  0  0  0  0  0  0  0  0
  -29.3100  -18.0100   22.5153 C   0  0  0  0  0  0  0  0  0  0  0  0
  -31.0612  -19.3077   20.7741 C   0  0  0  0  0  0  0  0  0  0  0  0
  -20.1287   -5.8392   20.1852 C   0  0  0  0  0  0  0  0  0  0  0  0
  -24.5911  -11.6442   20.7038 C   0  0  0  0  0  0  0  0  0  0  0  0
  -25.1846  -13.7544   20.5314 C   0  0  0  0  0  0  0  0  0  0  0  0
  -29.6512  -23.6961   20.9089 C   0  0  0  0  0  0  0  0  0  0  0  0
  -30.4370  -21.5151   21.7323 C   0  0  0  0  0  0  0  0  0  0  0  0
  -22.8348  -13.4206   21.3159 C   0  0  0  0  0  0  0  0  0  0  0  0
  -28.3358  -33.0291   18.5745 C   0  0  0  0  0  0  0  0  0  0  0  0
  -25.1767  -32.9272   19.3039 C   0  0  0  0  0  0  0  0  0  0  0  0
  -22.4647  -31.0499   20.1800 C   0  0  0  0  0  0  0  0  0  0  0  0
  -30.6134  -14.9785   20.7135 C   0  0  0  0  0  0  0  0  0  0  0  0
  -30.2361  -37.6262   17.4283 C   0  0  0  0  0  0  0  0  0  0  0  0
  -27.5167  -31.2271   17.0131 C   0  0  0  0  0  0  0  0  0  0  0  0
  -26.5096  -30.8354   19.7658 C   0  0  0  0  0  0  0  0  0  0  0  0
  -29.1484  -37.0954   18.3587 C   0  0  0  0  0  0  0  0  0  0  0  0
  -29.5697  -12.5921   18.2859 C   0  0  0  0  0  0  0  0  0  0  0  0
  -29.6770  -35.9288   19.1871 C   0  0  0  0  0  0  0  0  0  0  0  0
  -28.1426  -12.2410   18.7129 C   0  0  0  0  0  0  0  0  0  0  0  0
  -28.3846  -22.8382   19.1072 C   0  0  0  0  0  0  0  0  0  0  0  0
  -30.4821  -12.8197   19.4898 C   0  0  0  0  0  0  0  0  0  0  0  0
  -28.6306  -21.6918   20.0812 C   0  0  0  0  0  0  0  0  0  0  0  0
  -28.5584  -13.4426   20.8970 C   0  0  0  0  0  0  0  0  0  0  0  0
  -30.0996  -34.7606   18.2881 C   0  0  1  0  0  0  0  0  0  0  0  0
  -28.5713  -24.1127   19.9393 C   0  0  2  0  0  0  0  0  0  0  0  0
  -27.1429  -32.4057   17.9068 C   0  0  1  0  0  0  0  0  0  0  0  0
  -27.5865  -13.2680   19.7186 C   0  0  2  0  0  0  0  0  0  0  0  0
  -20.0278  -31.2524   20.7440 C   0  0  0  0  0  0  0  0  0  0  0  0
  -25.9075  -34.0014   22.0647 C   0  0  0  0  0  0  0  0  0  0  0  0
  -23.6436  -33.2909   22.8636 C   0  0  0  0  0  0  0  0  0  0  0  0
  -23.8476  -35.0077   21.0654 C   0  0  0  0  0  0  0  0  0  0  0  0
  -21.6750  -29.3415   17.8960 C   0  0  0  0  0  0  0  0  0  0  0  0
  -28.9675  -25.3124   19.1020 C   0  0  0  0  0  0  0  0  0  1  0  0
  -24.3748  -32.5919   20.5381 C   0  0  1  0  0  0  0  0  0  0  0  0
  -21.0464  -31.0156   19.6398 C   0  0  2  0  0  0  0  0  0  0  0  0
  -24.4611  -33.7041   21.6212 C   0  0  0  0  0  0  0  0  0  0  0  0
  -25.8565  -11.6021   20.2783 N   0  0  0  0  0  0  0  0  0  0  0  0
  -26.1895  -12.9006   20.1829 N   0  0  0  0  0  0  0  0  0  0  0  0
  -29.6494  -22.2595   20.9767 N   0  0  0  0  0  0  0  0  0  0  0  0
  -26.2048  -32.0348   18.9683 N   0  0  0  0  0  0  0  0  0  0  0  0
  -29.8929  -13.8075   20.3964 N   0  0  0  0  0  0  0  0  0  0  0  0
  -25.3499  -15.0936   20.4931 N   0  0  0  0  0  0  0  0  0  0  0  0
  -21.8555  -12.4692   21.6325 N   0  0  0  0  0  0  0  0  0  0  0  0
  -29.9391  -15.8591   21.5587 N   0  0  0  0  0  0  0  0  0  0  0  0
  -28.9379  -34.0274   17.8326 N   0  0  0  0  0  0  0  0  0  0  0  0
  -23.0191  -32.3084   20.0796 N   0  0  0  0  0  0  0  0  0  0  0  0
  -31.3422  -22.0670   22.5350 N   0  3  0  0  0  0  0  0  0  0  0  0
  -20.7623  -29.6932   19.0141 N   0  3  0  0  0  0  0  0  0  0  0  0
  -30.3912  -24.4011   21.5711 O   0  0  0  0  0  0  0  0  0  0  0  0
  -22.5576  -14.6406   21.4069 O   0  0  0  0  0  0  0  0  0  0  0  0
  -28.6834  -32.6347   19.6815 O   0  0  0  0  0  0  0  0  0  0  0  0
  -24.8965  -33.9395   18.6572 O   0  0  0  0  0  0  0  0  0  0  0  0
  -23.0234  -30.0602   20.6479 O   0  0  0  0  0  0  0  0  0  0  0  0
  -31.7340  -15.1974   20.2463 O   0  0  0  0  0  0  0  0  0  0  0  0
  -21.7697   -6.8991   21.5933 O   0  0  0  0  0  0  0  0  0  0  0  0
  -28.7738  -26.4995   19.8699 O   0  0  0  0  0  0  0  0  0  1  0  0
  -16.6038   -6.5917   19.6899 F   0  0  0  0  0  0  0  0  0  0  0  0
  -28.4655  -17.3968   23.3570 F   0  0  0  0  0  0  0  0  0  0  0  0
  -31.9055  -19.9221   19.9335 F   0  0  0  0  0  0  0  0  0  0  0  0
  -21.0489   -4.9662   19.7528 F   0  0  0  0  0  0  0  0  0  0  0  0
  1  2  1  0  0  0  0
  1  5  2  0  0  0  0
  2  6  2  0  0  0  0
  3  8  2  0  0  0  0
  3 17  1  0  0  0  0
  4  9  1  0  0  0  0
  4 17  2  0  0  0  0
  5 20  1  0  0  0  0
  6 22  1  0  0  0  0
  7 10  2  0  0  0  0
  7 21  1  0  0  0  0
  8 25  1  0  0  0  0
  9 25  2  0  0  0  0
 10 26  1  0  0  0  0
 11 12  2  0  0  0  0
 11 27  1  0  0  0  0
 12 28  1  0  0  0  0
 13 18  1  0  0  0  0
 13 29  2  0  0  0  0
 14 23  1  0  0  0  0
 14 26  2  0  0  0  0
 15 24  2  0  0  0  0
 15 30  1  0  0  0  0
 16 28  2  0  0  0  0
 16 31  1  0  0  0  0
 17 32  1  0  0  0  0
 18 30  2  0  0  0  0
 18 35  1  0  0  0  0
 19 32  1  0  0  0  0
 19 33  2  0  0  0  0
 19 36  1  0  0  0  0
 20 22  2  0  0  0  0
 20 41  1  0  0  0  0
 21 23  2  0  0  0  0
 21 42  1  0  0  0  0
 22 52  1  0  0  0  0
 23 43  1  0  0  0  0
 24 29  1  0  0  0  0
 24 72  1  0  0  0  0
 25 83  1  0  0  0  0
 26 84  1  0  0  0  0
 27 31  2  0  0  0  0
 27 83  1  0  0  0  0
 28 85  1  0  0  0  0
 29 86  1  0  0  0  0
 30 87  1  0  0  0  0
 31 88  1  0  0  0  0
 32 65  2  0  0  0  0
 33 66  1  0  0  0  0
 33 70  1  0  0  0  0
 34 53  1  0  0  0  0
 34 67  1  0  0  0  0
 34 77  2  0  0  0  0
 35 67  1  0  0  0  0
 35 75  2  0  0  0  0
 36 71  1  0  0  0  0
 36 78  2  0  0  0  0
 37 54  1  0  0  0  0
 37 73  1  0  0  0  0
 37 79  2  0  0  0  0
 38 62  1  0  0  0  0
 38 68  1  0  0  0  0
 38 80  2  0  0  0  0
 39 63  1  0  0  0  0
 39 74  1  0  0  0  0
 39 81  2  0  0  0  0
 40 69  1  0  0  0  0
 40 72  1  0  0  0  0
 40 82  2  0  0  0  0
 41 44  1  0  0  0  0
 42 54  1  0  0  0  0
 43 68  1  0  0  0  0
 44 46  1  0  0  0  0
 45 47  1  0  0  0  0
 45 49  1  0  0  0  0
 46 52  1  0  0  0  0
 47 55  1  0  0  0  0
 48 50  1  0  0  0  0
 48 53  1  0  0  0  0
 49 69  1  0  0  0  0
 50 67  1  0  0  0  0
 51 55  1  0  0  0  0
 51 69  1  0  0  0  0
 52 73  1  0  0  0  0
 53 61  1  0  0  0  0
 54 68  1  0  0  0  0
 55 66  1  0  0  0  0
 56 63  1  0  0  0  0
 57 64  1  0  0  0  0
 58 64  1  0  0  0  0
 59 64  1  0  0  0  0
 60 76  1  0  0  0  0
 61 84  1  0  0  0  0
 62 64  1  0  0  0  0
 62 74  1  0  0  0  0
 63 76  1  0  0  0  0
 65 66  1  0  0  0  0
M  CHG  2  75   1  76   1
M  ISO  4  40 100  61 101  72 100  84 101
M  END
> <Batch ID>
0073

> <Smiles>
CNC(C)C(=O)NC(C(=O)N1Cc2cc([101O:1][101CH2:1]C3CCN(C(=N)c4cc(F)c([100NH:0][100C:0](=O)N5CCCC(n6nc(-c7ccc(Oc8ccc(F)cc8F)cc7)c(C(N)=O)c6N)C5)cc4F)C3=O)ccc2CC1C(=O)NC1CCCc2ccccc21)C(C)(C)C

> <Shape>
0.239

> <Color>
0.202

> <Negative vol penalty>
0.000

$$$$

  -OEChem-04042323413D

 88 96  0     1  0  0  0  0  0999 V2000
  -30.3969  -25.6903   29.0027 C   0  0  0  0  0  0  0  0  0  0  0  0
  -30.1539  -25.3974   27.6646 C   0  0  0  0  0  0  0  0  0  0  0  0
  -24.1349   -9.7322   21.8537 C   0  0  0  0  0  0  0  0  0  0  0  0
  -22.2484  -10.6546   20.6591 C   0  0  0  0  0  0  0  0  0  0  0  0
  -29.3290  -25.8776   29.8792 C   0  0  0  0  0  0  0  0  0  0  0  0
  -28.8426  -25.2905   27.2024 C   0  0  0  0  0  0  0  0  0  0  0  0
  -28.1311  -27.6952   22.8029 C   0  0  0  0  0  0  0  0  0  0  0  0
  -23.5173   -8.4816   21.8635 C   0  0  0  0  0  0  0  0  0  0  0  0
  -21.6307   -9.4039   20.6689 C   0  0  0  0  0  0  0  0  0  0  0  0
  -28.5824  -27.0572   21.6483 C   0  0  0  0  0  0  0  0  0  0  0  0
  -21.0783   -6.9222   23.6082 C   0  0  0  0  0  0  0  0  0  0  0  0
  -21.0881   -6.2049   24.8044 C   0  0  0  0  0  0  0  0  0  0  0  0
  -26.3332  -26.3190   21.1844 C   0  0  0  0  0  0  0  0  0  0  0  0
  -25.0328  -20.0115   19.5637 C   0  0  0  0  0  0  0  0  0  0  0  0
  -25.5911  -20.9037   21.7383 C   0  0  0  0  0  0  0  0  0  0  0  0
  -22.2857   -4.4097   23.7180 C   0  0  0  0  0  0  0  0  0  0  0  0
  -23.5004  -10.8187   21.2515 C   0  0  0  0  0  0  0  0  0  0  0  0
  -26.4863  -21.9329   19.7443 C   0  0  0  0  0  0  0  0  0  0  0  0
  -25.0084  -12.6219   20.2604 C   0  0  0  0  0  0  0  0  0  0  0  0
  -28.0039  -25.7825   29.4255 C   0  0  0  0  0  0  0  0  0  0  0  0
  -26.7770  -27.6406   23.1633 C   0  0  0  0  0  0  0  0  0  0  0  0
  -27.7559  -25.4754   28.0740 C   0  0  0  0  0  0  0  0  0  0  0  0
  -25.8668  -26.9593   22.3427 C   0  0  0  0  0  0  0  0  0  0  0  0
  -24.9205  -19.9658   20.9532 C   0  0  0  0  0  0  0  0  0  0  0  0
  -22.2652   -8.3174   21.2711 C   0  0  0  0  0  0  0  0  0  0  0  0
  -27.6839  -26.3665   20.8404 C   0  0  0  0  0  0  0  0  0  0  0  0
  -21.6722   -6.3834   22.4669 C   0  0  0  0  0  0  0  0  0  0  0  0
  -21.6917   -4.9486   24.8593 C   0  0  0  0  0  0  0  0  0  0  0  0
  -25.8157  -20.9951   18.9592 C   0  0  0  0  0  0  0  0  0  0  0  0
  -26.3740  -21.8873   21.1339 C   0  0  0  0  0  0  0  0  0  0  0  0
  -22.2759   -5.1271   22.5218 C   0  0  0  0  0  0  0  0  0  0  0  0
  -24.1377  -12.1110   21.2415 C   0  0  0  0  0  0  0  0  0  0  0  0
  -25.3354  -13.8772   20.7116 C   0  0  0  0  0  0  0  0  0  0  0  0
  -27.3145  -22.9744   19.1041 C   0  0  0  0  0  0  0  0  0  0  0  0
  -25.4795  -12.0159   19.0494 C   0  0  0  0  0  0  0  0  0  0  0  0
  -25.1612  -26.4860   25.6452 C   0  0  0  0  0  0  0  0  0  0  0  0
  -22.6460  -27.9104   24.1731 C   0  0  0  0  0  0  0  0  0  0  0  0
  -21.2683  -29.0860   21.2806 C   0  0  0  0  0  0  0  0  0  0  0  0
  -23.9084  -18.7799   22.9321 C   0  0  0  0  0  0  0  0  0  0  0  0
  -26.8824  -25.9464   30.4205 C   0  0  0  0  0  0  0  0  0  0  0  0
  -26.3017  -28.3566   24.3977 C   0  0  0  0  0  0  0  0  0  0  0  0
  -24.3994  -26.8879   22.6746 C   0  0  0  0  0  0  0  0  0  0  0  0
  -25.5219  -26.1858   29.7709 C   0  0  0  0  0  0  0  0  0  0  0  0
  -24.5017  -16.0895   25.1874 C   0  0  0  0  0  0  0  0  0  0  0  0
  -25.2941  -25.1993   28.6300 C   0  0  0  0  0  0  0  0  0  0  0  0
  -24.5315  -14.8566   24.2812 C   0  0  0  0  0  0  0  0  0  0  0  0
  -23.4671  -17.1118   24.7203 C   0  0  0  0  0  0  0  0  0  0  0  0
  -23.6120  -16.2797   22.4060 C   0  0  0  0  0  0  0  0  0  0  0  0
  -26.3475  -25.3757   27.5296 C   0  0  1  0  0  0  0  0  0  0  0  0
  -24.9885  -27.8023   24.9416 C   0  0  1  0  0  0  0  0  0  0  0  0
  -24.6842  -15.2503   22.7989 C   0  0  2  0  0  0  0  0  0  0  0  0
  -19.1846  -30.1607   20.3857 C   0  0  0  0  0  0  0  0  0  0  0  0
  -21.2032  -25.2256   24.3151 C   0  0  0  0  0  0  0  0  0  0  0  0
  -19.5838  -26.0845   22.6099 C   0  0  0  0  0  0  0  0  0  0  0  0
  -19.7692  -27.2090   24.8289 C   0  0  0  0  0  0  0  0  0  0  0  0
  -31.9063  -24.3626   18.0020 C   0  0  0  0  0  0  0  0  0  0  0  0
  -31.5330  -23.0555   20.0893 C   0  0  0  0  0  0  0  0  0  0  0  0
  -30.9187  -22.0657   17.8755 C   0  0  0  0  0  0  0  0  0  0  0  0
  -22.7494  -31.4903   20.3949 C   0  0  0  0  0  0  0  0  0  0  0  0
  -29.4626  -25.2538   19.7205 C   0  0  0  0  0  0  0  0  0  1  0  0
  -21.6306  -27.4846   23.1403 C   0  0  1  0  0  0  0  0  0  0  0  0
  -20.5749  -30.3966   20.9551 C   0  0  2  0  0  0  0  0  0  0  0  0
  -29.5400  -24.0095   18.8347 C   0  0  1  0  0  0  0  0  0  0  0  0
  -20.5746  -26.5004   23.7181 C   0  0  0  0  0  0  0  0  0  0  0  0
  -30.9512  -23.3679   18.6961 C   0  0  0  0  0  0  0  0  0  0  0  0
  -23.9250  -12.9714   22.2407 N   0  0  0  0  0  0  0  0  0  0  0  0
  -24.6669  -14.0357   21.8899 N   0  0  0  0  0  0  0  0  0  0  0  0
  -23.9845  -27.5987   23.8953 N   0  0  0  0  0  0  0  0  0  0  0  0
  -23.6764  -17.4401   23.3084 N   0  0  0  0  0  0  0  0  0  0  0  0
  -26.1267  -14.8500   20.2116 N   0  0  0  0  0  0  0  0  0  0  0  0
  -26.7214  -23.8166   18.2579 N   0  0  0  0  0  0  0  0  0  0  0  0
  -25.0447  -10.7205   18.7374 N   0  0  0  0  0  0  0  0  0  0  0  0
  -24.1261  -18.9661   21.5673 N   0  0  0  0  0  0  0  0  0  0  0  0
  -26.0371  -26.5296   26.7131 N   0  0  0  0  0  0  0  0  0  0  0  0
  -21.0657  -28.7131   22.5925 N   0  0  0  0  0  0  0  0  0  0  0  0
  -28.6117  -23.0143   19.4058 N   0  3  0  0  0  0  0  0  0  0  0  0
  -21.3673  -31.1677   19.9559 N   0  3  0  0  0  0  0  0  0  0  0  0
  -26.2758  -12.5993   18.2754 O   0  0  0  0  0  0  0  0  0  0  0  0
  -24.5444  -25.5039   25.2495 O   0  0  0  0  0  0  0  0  0  0  0  0
  -22.2664  -28.5042   25.1855 O   0  0  0  0  0  0  0  0  0  0  0  0
  -21.9210  -28.4542   20.4527 O   0  0  0  0  0  0  0  0  0  0  0  0
  -23.9408  -19.6912   23.7631 O   0  0  0  0  0  0  0  0  0  0  0  0
  -21.6624   -7.0972   21.2803 O   0  0  0  0  0  0  0  0  0  0  0  0
  -28.1218  -25.7423   19.7132 O   0  0  0  0  0  0  0  0  0  1  0  0
  -21.7024   -4.2605   26.0085 F   0  0  0  0  0  0  0  0  0  0  0  0
  -25.9180  -21.0308   17.6231 F   0  0  0  0  0  0  0  0  0  0  0  0
  -27.0152  -22.7834   21.8972 F   0  0  0  0  0  0  0  0  0  0  0  0
  -22.8491   -4.6047   21.4289 F   0  0  0  0  0  0  0  0  0  0  0  0
  1  2  1  0  0  0  0
  1  5  2  0  0  0  0
  2  6  2  0  0  0  0
  3  8  2  0  0  0  0
  3 17  1  0  0  0  0
  4  9  1  0  0  0  0
  4 17  2  0  0  0  0
  5 20  1  0  0  0  0
  6 22  1  0  0  0  0
  7 10  2  0  0  0  0
  7 21  1  0  0  0  0
  8 25  1  0  0  0  0
  9 25  2  0  0  0  0
 10 26  1  0  0  0  0
 11 12  2  0  0  0  0
 11 27  1  0  0  0  0
 12 28  1  0  0  0  0
 13 23  1  0  0  0  0
 13 26  2  0  0  0  0
 14 24  1  0  0  0  0
 14 29  2  0  0  0  0
 15 24  2  0  0  0  0
 15 30  1  0  0  0  0
 16 28  2  0  0  0  0
 16 31  1  0  0  0  0
 17 32  1  0  0  0  0
 18 29  1  0  0  0  0
 18 30  2  0  0  0  0
 18 34  1  0  0  0  0
 19 32  1  0  0  0  0
 19 33  2  0  0  0  0
 19 35  1  0  0  0  0
 20 22  2  0  0  0  0
 20 40  1  0  0  0  0
 21 23  2  0  0  0  0
 21 41  1  0  0  0  0
 22 49  1  0  0  0  0
 23 42  1  0  0  0  0
 24 73  1  0  0  0  0
 25 83  1  0  0  0  0
 26 84  1  0  0  0  0
 27 31  2  0  0  0  0
 27 83  1  0  0  0  0
 28 85  1  0  0  0  0
 29 86  1  0  0  0  0
 30 87  1  0  0  0  0
 31 88  1  0  0  0  0
 32 66  2  0  0  0  0
 33 67  1  0  0  0  0
 33 70  1  0  0  0  0
 34 71  1  0  0  0  0
 34 76  2  0  0  0  0
 35 72  1  0  0  0  0
 35 78  2  0  0  0  0
 36 50  1  0  0  0  0
 36 74  1  0  0  0  0
 36 79  2  0  0  0  0
 37 61  1  0  0  0  0
 37 68  1  0  0  0  0
 37 80  2  0  0  0  0
 38 62  1  0  0  0  0
 38 75  1  0  0  0  0
 38 81  2  0  0  0  0
 39 69  1  0  0  0  0
 39 73  1  0  0  0  0
 39 82  2  0  0  0  0
 40 43  1  0  0  0  0
 41 50  1  0  0  0  0
 42 68  1  0  0  0  0
 43 45  1  0  0  0  0
 44 46  1  0  0  0  0
 44 47  1  0  0  0  0
 45 49  1  0  0  0  0
 46 51  1  0  0  0  0
 47 69  1  0  0  0  0
 48 51  1  0  0  0  0
 48 69  1  0  0  0  0
 49 74  1  0  0  0  0
 50 68  1  0  0  0  0
 51 67  1  0  0  0  0
 52 62  1  0  0  0  0
 53 64  1  0  0  0  0
 54 64  1  0  0  0  0
 55 64  1  0  0  0  0
 56 65  1  0  0  0  0
 57 65  1  0  0  0  0
 58 65  1  0  0  0  0
 59 77  1  0  0  0  0
 60 63  1  0  0  0  0
 60 84  1  0  0  0  0
 61 64  1  0  0  0  0
 61 75  1  0  0  0  0
 62 77  1  0  0  0  0
 63 65  1  0  0  0  0
 63 76  1  0  0  0  0
 66 67  1  0  0  0  0
M  CHG  2  76   1  77   1
M  ISO  4  39 100  60 101  73 100  84 101
M  END
> <Batch ID>
0073

> <Smiles>
CNC(C)C(=O)NC(C(=O)N1Cc2cc([101O:1][101CH2:1]C(NC(=N)c3c(F)cc([100NH:0][100C:0](=O)N4CCCC(n5nc(-c6ccc(Oc7ccc(F)cc7F)cc6)c(C(N)=O)c5N)C4)cc3F)C(C)(C)C)ccc2CC1C(=O)NC1CCCc2ccccc21)C(C)(C)C

> <Shape>
0.200

> <Color>
0.091

> <Negative vol penalty>
0.000

$$$$

  -OEChem-04042323413D

 91100  0     1  0  0  0  0  0999 V2000
  -19.2280  -12.2372   18.9124 C   0  0  0  0  0  0  0  0  0  0  0  0
  -19.5287  -13.5918   19.0130 C   0  0  0  0  0  0  0  0  0  0  0  0
  -30.1594  -26.3337   20.0421 C   0  0  0  0  0  0  0  0  0  0  0  0
  -29.0242  -25.9042   22.1311 C   0  0  0  0  0  0  0  0  0  0  0  0
  -20.1579  -11.2852   19.3282 C   0  0  0  0  0  0  0  0  0  0  0  0
  -20.7591  -13.9952   19.5306 C   0  0  0  0  0  0  0  0  0  0  0  0
  -24.0526  -18.8677   17.8225 C   0  0  0  0  0  0  0  0  0  0  0  0
  -31.3493  -25.8551   20.5903 C   0  0  0  0  0  0  0  0  0  0  0  0
  -30.2141  -25.4256   22.6793 C   0  0  0  0  0  0  0  0  0  0  0  0
  -24.1849  -20.1463   18.3621 C   0  0  0  0  0  0  0  0  0  0  0  0
  -34.6031  -24.4103   21.3256 C   0  0  0  0  0  0  0  0  0  0  0  0
  -35.3693  -23.5388   20.5516 C   0  0  0  0  0  0  0  0  0  0  0  0
  -19.3399  -29.2196   22.7077 C   0  0  0  0  0  0  0  0  0  0  0  0
  -26.1730  -19.4403   19.5319 C   0  0  0  0  0  0  0  0  0  0  0  0
  -18.6633  -26.5158   22.5886 C   0  0  0  0  0  0  0  0  0  0  0  0
  -33.5240  -21.9810   20.4789 C   0  0  0  0  0  0  0  0  0  0  0  0
  -28.9968  -26.3583   20.8125 C   0  0  0  0  0  0  0  0  0  0  0  0
  -18.0224  -28.8200   22.9311 C   0  0  0  0  0  0  0  0  0  0  0  0
  -27.0848  -26.3489   19.1237 C   0  0  0  0  0  0  0  0  0  0  0  0
  -21.4041  -11.6769   19.8422 C   0  0  0  0  0  0  0  0  0  0  0  0
  -24.9748  -17.8610   18.1426 C   0  0  0  0  0  0  0  0  0  0  0  0
  -21.7059  -13.0475   19.9550 C   0  0  0  0  0  0  0  0  0  0  0  0
  -26.0515  -18.1504   18.9929 C   0  0  0  0  0  0  0  0  0  0  0  0
  -19.9808  -26.9155   22.3651 C   0  0  0  0  0  0  0  0  0  0  0  0
  -20.3191  -28.2674   22.4246 C   0  0  0  0  0  0  0  0  0  0  0  0
  -17.6841  -27.4680   22.8717 C   0  0  0  0  0  0  0  0  0  0  0  0
  -31.3767  -25.4010   21.9089 C   0  0  0  0  0  0  0  0  0  0  0  0
  -25.2436  -20.4320   19.2193 C   0  0  0  0  0  0  0  0  0  0  0  0
  -33.2973  -24.0671   21.6763 C   0  0  0  0  0  0  0  0  0  0  0  0
  -34.8298  -22.3242   20.1283 C   0  0  0  0  0  0  0  0  0  0  0  0
  -32.7578  -22.8525   21.2529 C   0  0  0  0  0  0  0  0  0  0  0  0
  -27.7674  -26.8531   20.2469 C   0  0  0  0  0  0  0  0  0  0  0  0
  -25.9832  -27.1596   18.9988 C   0  0  0  0  0  0  0  0  0  0  0  0
  -22.1079  -24.4966   20.4932 C   0  0  0  0  0  0  0  0  0  0  0  0
  -16.7046  -30.8145   22.3829 C   0  0  0  0  0  0  0  0  0  0  0  0
  -17.0255  -29.8431   23.2234 C   0  0  0  0  0  0  0  0  0  0  0  0
  -27.4168  -25.2461   18.2697 C   0  0  0  0  0  0  0  0  0  0  0  0
  -24.7992  -15.0346   19.5864 C   0  0  0  0  0  0  0  0  0  0  0  0
  -27.9099  -14.8211   18.6919 C   0  0  0  0  0  0  0  0  0  0  0  0
  -30.7772  -17.0088   18.5913 C   0  0  0  0  0  0  0  0  0  0  0  0
  -22.1318  -30.0058   22.2278 C   0  0  0  0  0  0  0  0  0  0  0  0
  -22.3582  -10.6123   20.3229 C   0  0  0  0  0  0  0  0  0  0  0  0
  -24.8332  -16.4942   17.5310 C   0  0  0  0  0  0  0  0  0  0  0  0
  -27.0802  -17.1104   19.3520 C   0  0  0  0  0  0  0  0  0  0  0  0
  -20.7790  -25.0951   20.9013 C   0  0  0  0  0  0  0  0  0  0  0  0
  -23.7871  -11.1152   20.5115 C   0  0  0  0  0  0  0  0  0  0  0  0
  -24.7975  -31.6958   20.5801 C   0  0  0  0  0  0  0  0  0  0  0  0
  -23.7915  -12.4393   21.2689 C   0  0  0  0  0  0  0  0  0  0  0  0
  -25.7694  -30.5713   20.2156 C   0  0  0  0  0  0  0  0  0  0  0  0
  -23.0810  -24.9115   22.7263 C   0  0  0  0  0  0  0  0  0  0  0  0
  -24.1304  -31.4527   21.9328 C   0  0  0  0  0  0  0  0  0  0  0  0
  -21.7127  -25.3894   23.2055 C   0  0  0  0  0  0  0  0  0  0  0  0
  -24.4510  -29.0199   21.7130 C   0  0  0  0  0  0  0  0  0  0  0  0
  -23.0397  -13.5240   20.4880 C   0  0  1  0  0  0  0  0  0  0  0  0
  -22.9504  -23.8861   21.6024 C   0  0  2  0  0  0  0  0  0  0  0  0
  -25.5394  -15.4049   18.3323 C   0  0  1  0  0  0  0  0  0  0  0  0
  -25.0989  -29.1881   20.3290 C   0  0  2  0  0  0  0  0  0  0  0  0
  -32.8055  -16.9732   17.1142 C   0  0  0  0  0  0  0  0  0  0  0  0
  -25.1022  -22.8031   22.2574 C   0  0  0  0  0  0  0  0  0  0  0  0
  -25.0912  -24.6947   20.6172 C   0  0  0  0  0  0  0  0  0  0  0  0
  -29.1768  -13.2215   20.9604 C   0  0  0  0  0  0  0  0  0  0  0  0
  -31.3166  -14.4512   20.5391 C   0  0  0  0  0  0  0  0  0  0  0  0
  -30.3388  -13.0060   18.7564 C   0  0  0  0  0  0  0  0  0  0  0  0
  -30.3274  -19.7981   17.7101 C   0  0  0  0  0  0  0  0  0  0  0  0
  -24.1761  -22.4233   19.9617 C   0  0  0  0  0  0  0  0  0  1  0  0
  -29.2300  -15.2089   19.3131 C   0  0  1  0  0  0  0  0  0  0  0  0
  -31.4352  -17.5882   17.3521 C   0  0  2  0  0  0  0  0  0  0  0  0
  -24.3240  -23.4529   21.1014 C   0  0  0  0  0  0  0  0  0  0  0  0
  -29.9916  -13.9861   19.8981 C   0  0  0  0  0  0  0  0  0  0  0  0
  -27.1511  -27.9031   20.7963 N   0  0  0  0  0  0  0  0  0  0  0  0
  -26.0697  -28.0652   20.0150 N   0  0  0  0  0  0  0  0  0  0  0  0
  -20.9483  -25.9428   22.0816 N   0  0  2  0  0  0  0  0  0  0  0  0
  -26.8948  -15.7873   18.7336 N   0  0  0  0  0  0  0  0  0  0  0  0
  -23.5130  -30.1251   21.9652 N   0  0  0  0  0  0  0  0  0  0  0  0
  -16.3564  -27.0355   23.0934 N   0  0  0  0  0  0  0  0  0  0  0  0
  -24.9587  -27.1792   18.1199 N   0  0  0  0  0  0  0  0  0  0  0  0
  -28.5844  -24.5195   18.5401 N   0  0  0  0  0  0  0  0  0  0  0  0
  -21.6507  -28.6972   22.2008 N   0  0  0  0  0  0  0  0  0  0  0  0
  -23.8623  -14.0340   19.4121 N   0  0  0  0  0  0  0  0  0  0  0  0
  -29.9670  -15.9359   18.2852 N   0  0  0  0  0  0  0  0  0  0  0  0
  -31.6000  -19.0625   17.4944 N   0  3  0  0  0  0  0  0  0  0  0  0
  -22.4264  -24.4257   19.3061 O   0  0  0  0  0  0  0  0  0  0  0  0
  -26.7080  -24.9251   17.2858 O   0  0  0  0  0  0  0  0  0  0  0  0
  -25.0600  -15.6129   20.6349 O   0  0  0  0  0  0  0  0  0  0  0  0
  -27.7863  -13.7048   18.1818 O   0  0  0  0  0  0  0  0  0  0  0  0
  -30.9662  -17.4603   19.7187 O   0  0  0  0  0  0  0  0  0  0  0  0
  -21.4224  -30.9941   22.4326 O   0  0  0  0  0  0  0  0  0  0  0  0
  -32.5376  -24.9337   22.4441 O   0  0  0  0  0  0  0  0  0  0  0  0
  -25.3748  -21.6791   19.7479 O   0  0  0  0  0  0  0  0  0  1  0  0
  -35.5652  -21.4881   19.3837 F   0  0  0  0  0  0  0  0  0  0  0  0
  -31.5036  -22.5178   21.5857 F   0  0  0  0  0  0  0  0  0  0  0  0
  1  2  1  0  0  0  0
  1  5  2  0  0  0  0
  2  6  2  0  0  0  0
  3  8  2  0  0  0  0
  3 17  1  0  0  0  0
  4  9  1  0  0  0  0
  4 17  2  0  0  0  0
  5 20  1  0  0  0  0
  6 22  1  0  0  0  0
  7 10  2  0  0  0  0
  7 21  1  0  0  0  0
  8 27  1  0  0  0  0
  9 27  2  0  0  0  0
 10 28  1  0  0  0  0
 11 12  2  0  0  0  0
 11 29  1  0  0  0  0
 12 30  1  0  0  0  0
 13 18  1  0  0  0  0
 13 25  2  0  0  0  0
 14 23  1  0  0  0  0
 14 28  2  0  0  0  0
 15 24  2  0  0  0  0
 15 26  1  0  0  0  0
 16 30  2  0  0  0  0
 16 31  1  0  0  0  0
 17 32  1  0  0  0  0
 18 26  2  0  0  0  0
 18 36  1  0  0  0  0
 19 32  1  0  0  0  0
 19 33  2  0  0  0  0
 19 37  1  0  0  0  0
 20 22  2  0  0  0  0
 20 42  1  0  0  0  0
 21 23  2  0  0  0  0
 21 43  1  0  0  0  0
 22 54  1  0  0  0  0
 23 44  1  0  0  0  0
 24 25  1  0  0  0  0
 24 72  1  0  0  0  0
 25 78  1  0  0  0  0
 26 75  1  0  0  0  0
 27 88  1  0  0  0  0
 28 89  1  0  0  0  0
 29 31  2  0  0  0  0
 29 88  1  0  0  0  0
 30 90  1  0  0  0  0
 31 91  1  0  0  0  0
 32 70  2  0  0  0  0
 33 71  1  0  0  0  0
 33 76  1  0  0  0  0
 34 45  1  0  0  0  0
 34 55  1  0  0  0  0
 34 82  2  0  0  0  0
 35 36  2  0  0  0  0
 37 77  1  0  0  0  0
 37 83  2  0  0  0  0
 38 56  1  0  0  0  0
 38 79  1  0  0  0  0
 38 84  2  0  0  0  0
 39 66  1  0  0  0  0
 39 73  1  0  0  0  0
 39 85  2  0  0  0  0
 40 67  1  0  0  0  0
 40 80  1  0  0  0  0
 40 86  2  0  0  0  0
 41 74  1  0  0  0  0
 41 78  1  0  0  0  0
 41 87  2  0  0  0  0
 42 46  1  0  0  0  0
 43 56  1  0  0  0  0
 44 73  1  0  0  0  0
 45 72  1  0  0  0  0
 46 48  1  0  0  0  0
 47 49  1  0  0  0  0
 47 51  1  0  0  0  0
 48 54  1  0  0  0  0
 49 57  1  0  0  0  0
 50 52  1  0  0  0  0
 50 55  1  0  0  0  0
 51 74  1  0  0  0  0
 52 72  1  0  0  0  0
 53 57  1  0  0  0  0
 53 74  1  0  0  0  0
 54 79  1  0  0  0  0
 55 68  1  0  0  0  0
 56 73  1  0  0  0  0
 57 71  1  0  0  0  0
 58 67  1  0  0  0  0
 59 68  1  0  0  0  0
 60 68  1  0  0  0  0
 61 69  1  0  0  0  0
 62 69  1  0  0  0  0
 63 69  1  0  0  0  0
 64 81  1  0  0  0  0
 65 68  1  0  0  0  0
 65 89  1  0  0  0  0
 66 69  1  0  0  0  0
 66 80  1  0  0  0  0
 67 81  1  0  0  0  0
 70 71  1  0  0  0  0
M  CHG  1  81   1
M  ISO  4  41 100  65 101  78 100  89 101
M  END
> <Batch ID>
0073

> <Smiles>
C=Cc1cc([100NH:0][100C:0](=O)N2CCCC(n3nc(-c4ccc(Oc5ccc(F)cc5F)cc4)c(C(N)=O)c3N)C2)c(N2CCC(C(C)(C)[101CH2:1][101O:1]c3ccc4c(c3)CN(C(=O)C(NC(=O)C(C)NC)C(C)(C)C)C(C(=O)NC3CCCc5ccccc53)C4)C(=O)C2)cc1N

> <Shape>
0.240

> <Color>
0.070

> <Negative vol penalty>
0.000

$$$$

  -OEChem-04042323413D

 92101  0     1  0  0  0  0  0999 V2000
  -23.2590  -31.5251   13.8208 C   0  0  0  0  0  0  0  0  0  0  0  0
  -24.1689  -30.7648   14.5484 C   0  0  0  0  0  0  0  0  0  0  0  0
  -22.6004  -13.9958   22.0136 C   0  0  0  0  0  0  0  0  0  0  0  0
  -24.0046  -12.8122   23.5834 C   0  0  0  0  0  0  0  0  0  0  0  0
  -22.8723  -32.7812   14.2862 C   0  0  0  0  0  0  0  0  0  0  0  0
  -24.6935  -31.2607   15.7415 C   0  0  0  0  0  0  0  0  0  0  0  0
  -24.7311  -27.7968   19.4354 C   0  0  0  0  0  0  0  0  0  0  0  0
  -30.7333  -19.6564   18.3878 C   0  0  0  0  0  0  0  0  0  0  0  0
  -30.6452  -18.3317   18.8157 C   0  0  0  0  0  0  0  0  0  0  0  0
  -21.7720  -14.4010   23.0601 C   0  0  0  0  0  0  0  0  0  0  0  0
  -23.1763  -13.2175   24.6300 C   0  0  0  0  0  0  0  0  0  0  0  0
  -25.7418  -26.8373   19.3982 C   0  0  0  0  0  0  0  0  0  0  0  0
  -19.3058  -13.0637   24.9451 C   0  0  0  0  0  0  0  0  0  0  0  0
  -17.9276  -12.9607   24.7568 C   0  0  0  0  0  0  0  0  0  0  0  0
  -26.9751  -28.0809   21.0570 C   0  0  0  0  0  0  0  0  0  0  0  0
  -28.8788  -20.2428   19.8210 C   0  0  0  0  0  0  0  0  0  0  0  0
  -17.7046  -15.3438   25.0857 C   0  0  0  0  0  0  0  0  0  0  0  0
  -23.7167  -13.2013   22.2753 C   0  0  0  0  0  0  0  0  0  0  0  0
  -24.2106  -12.0104   20.0740 C   0  0  0  0  0  0  0  0  0  0  0  0
  -23.3850  -33.2886   15.4905 C   0  0  0  0  0  0  0  0  0  0  0  0
  -24.8400  -28.9131   20.2770 C   0  0  0  0  0  0  0  0  0  0  0  0
  -24.3142  -32.5253   16.2228 C   0  0  0  0  0  0  0  0  0  0  0  0
  -25.9632  -29.0518   21.1048 C   0  0  0  0  0  0  0  0  0  0  0  0
  -29.8502  -20.6119   18.8905 C   0  0  0  0  0  0  0  0  0  0  0  0
  -29.6738  -17.9626   19.7462 C   0  0  0  0  0  0  0  0  0  0  0  0
  -28.7906  -18.9181   20.2489 C   0  0  0  0  0  0  0  0  0  0  0  0
  -22.0600  -14.0119   24.3683 C   0  0  0  0  0  0  0  0  0  0  0  0
  -26.8654  -26.9807   20.2069 C   0  0  0  0  0  0  0  0  0  0  0  0
  -19.8834  -14.3067   25.2038 C   0  0  0  0  0  0  0  0  0  0  0  0
  -17.1269  -14.1008   24.8271 C   0  0  0  0  0  0  0  0  0  0  0  0
  -19.0828  -15.4468   25.2740 C   0  0  0  0  0  0  0  0  0  0  0  0
  -24.5725  -12.7819   21.1946 C   0  0  0  0  0  0  0  0  0  0  0  0
  -25.3722  -11.8888   19.3513 C   0  0  0  0  0  0  0  0  0  0  0  0
  -31.1627  -22.5568   18.0495 C   0  0  0  0  0  0  0  0  0  0  0  0
  -22.9382  -11.4535   19.7182 C   0  0  0  0  0  0  0  0  0  0  0  0
  -24.9799  -32.0566   19.8269 C   0  0  0  0  0  0  0  0  0  0  0  0
  -24.8326  -32.1344   23.0665 C   0  0  0  0  0  0  0  0  0  0  0  0
  -25.3633  -30.5278   26.0302 C   0  0  0  0  0  0  0  0  0  0  0  0
  -26.8471  -19.4002   21.7802 C   0  0  0  0  0  0  0  0  0  0  0  0
  -30.4104  -15.5465   19.7542 C   0  0  0  0  0  0  0  0  0  0  0  0
  -22.9733  -34.6716   15.9292 C   0  0  0  0  0  0  0  0  0  0  0  0
  -23.7285  -29.9254   20.3251 C   0  0  0  0  0  0  0  0  0  0  0  0
  -26.1188  -30.2215   22.0409 C   0  0  0  0  0  0  0  0  0  0  0  0
  -31.0572  -24.0079   17.6302 C   0  0  0  0  0  0  0  0  0  0  0  0
  -23.2898  -34.9656   17.3933 C   0  0  0  0  0  0  0  0  0  0  0  0
  -30.1358  -11.8936   20.2439 C   0  0  0  0  0  0  0  0  0  0  0  0
  -24.7121  -34.5292   17.7301 C   0  0  0  0  0  0  0  0  0  0  0  0
  -28.6413  -11.5714   20.2009 C   0  0  0  0  0  0  0  0  0  0  0  0
  -30.5080  -13.0932   19.3834 C   0  0  0  0  0  0  0  0  0  0  0  0
  -28.3466  -14.0979   20.1514 C   0  0  0  0  0  0  0  0  0  0  0  0
  -28.7359  -22.8191   18.4511 C   0  0  0  0  0  0  0  0  0  0  0  0
  -24.8865  -33.0183   17.5341 C   0  0  1  0  0  0  0  0  0  0  0  0
  -24.1826  -31.2872   20.8418 C   0  0  1  0  0  0  0  0  0  0  0  0
  -27.7857  -12.7432   19.6912 C   0  0  2  0  0  0  0  0  0  0  0  0
  -28.8882  -24.0248   19.3805 C   0  0  2  0  0  0  0  0  0  0  0  0
  -25.1843  -30.8607   28.5111 C   0  0  0  0  0  0  0  0  0  0  0  0
  -26.7618  -18.0435   23.9037 C   0  0  0  0  0  0  0  0  0  0  0  0
  -25.1692  -17.5254   22.0535 C   0  0  0  0  0  0  0  0  0  0  0  0
  -24.9151  -19.6435   23.3967 C   0  0  0  0  0  0  0  0  0  0  0  0
  -27.3520  -33.8548   23.0149 C   0  0  0  0  0  0  0  0  0  0  0  0
  -27.6552  -33.3606   25.4505 C   0  0  0  0  0  0  0  0  0  0  0  0
  -25.6252  -34.5830   24.6710 C   0  0  0  0  0  0  0  0  0  0  0  0
  -23.4232  -28.3098   26.3048 C   0  0  0  0  0  0  0  0  0  0  0  0
  -27.6743  -24.9437   19.2837 C   0  0  0  0  0  0  0  0  0  1  0  0
  -25.8476  -32.1121   24.1837 C   0  0  1  0  0  0  0  0  0  0  0  0
  -24.4846  -30.3606   27.2568 C   0  0  2  0  0  0  0  0  0  0  0  0
  -25.9168  -18.6593   22.7726 C   0  0  0  0  0  0  0  0  0  0  0  0
  -26.6183  -33.4564   24.3111 C   0  0  0  0  0  0  0  0  0  0  0  0
  -25.8630  -13.1260   21.1887 N   0  0  0  0  0  0  0  0  0  0  0  0
  -26.3223  -12.5681   20.0556 N   0  0  0  0  0  0  0  0  0  0  0  0
  -29.9413  -21.9782   18.4486 N   0  0  0  0  0  0  0  0  0  0  0  0
  -25.0081  -31.1878   22.0472 N   0  0  0  0  0  0  0  0  0  0  0  0
  -29.7581  -14.2897   19.7764 N   0  0  0  0  0  0  0  0  0  0  0  0
  -25.6634  -11.2681   18.1884 N   0  0  0  0  0  0  0  0  0  0  0  0
  -22.6225  -10.1653   20.1712 N   0  0  0  0  0  0  0  0  0  0  0  0
  -27.8077  -18.5719   21.1808 N   0  0  0  0  0  0  0  0  0  0  0  0
  -29.6032  -16.6105   20.1646 N   0  0  0  0  0  0  0  0  0  0  0  0
  -24.3057  -32.2942   18.6444 N   0  0  0  0  0  0  0  0  0  0  0  0
  -25.1210  -31.7235   25.3876 N   0  0  0  0  0  0  0  0  0  0  0  0
  -24.1372  -28.9247   27.4533 N   0  3  0  0  0  0  0  0  0  0  0  0
  -32.2652  -22.0085   18.0412 O   0  0  0  0  0  0  0  0  0  0  0  0
  -22.1126  -12.0732   19.0056 O   0  0  0  0  0  0  0  0  0  0  0  0
  -26.1218  -32.4098   20.0973 O   0  0  0  0  0  0  0  0  0  0  0  0
  -23.9136  -32.9566   23.1007 O   0  0  0  0  0  0  0  0  0  0  0  0
  -26.1851  -29.6839   25.6795 O   0  0  0  0  0  0  0  0  0  0  0  0
  -26.7155  -20.6046   21.5694 O   0  0  0  0  0  0  0  0  0  0  0  0
  -31.5901  -15.6579   19.4134 O   0  0  0  0  0  0  0  0  0  0  0  0
  -21.2520  -14.4074   25.3897 O   0  0  0  0  0  0  0  0  0  0  0  0
  -27.8538  -26.0459   20.1721 O   0  0  0  0  0  0  0  0  0  1  0  0
  -15.8036  -14.0019   24.6447 F   0  0  0  0  0  0  0  0  0  0  0  0
  -19.6322  -16.6439   25.5210 F   0  0  0  0  0  0  0  0  0  0  0  0
  -30.3989  -24.9932   19.0014 S   0  0  0  0  0  0  0  0  0  0  0  0
  1  2  1  0  0  0  0
  1  5  2  0  0  0  0
  2  6  2  0  0  0  0
  3 10  2  0  0  0  0
  3 18  1  0  0  0  0
  4 11  1  0  0  0  0
  4 18  2  0  0  0  0
  5 20  1  0  0  0  0
  6 22  1  0  0  0  0
  7 12  2  0  0  0  0
  7 21  1  0  0  0  0
  8  9  2  0  0  0  0
  8 24  1  0  0  0  0
  9 25  1  0  0  0  0
 10 27  1  0  0  0  0
 11 27  2  0  0  0  0
 12 28  1  0  0  0  0
 13 14  2  0  0  0  0
 13 29  1  0  0  0  0
 14 30  1  0  0  0  0
 15 23  1  0  0  0  0
 15 28  2  0  0  0  0
 16 24  2  0  0  0  0
 16 26  1  0  0  0  0
 17 30  2  0  0  0  0
 17 31  1  0  0  0  0
 18 32  1  0  0  0  0
 19 32  1  0  0  0  0
 19 33  2  0  0  0  0
 19 35  1  0  0  0  0
 20 22  2  0  0  0  0
 20 41  1  0  0  0  0
 21 23  2  0  0  0  0
 21 42  1  0  0  0  0
 22 52  1  0  0  0  0
 23 43  1  0  0  0  0
 24 71  1  0  0  0  0
 25 26  2  0  0  0  0
 25 77  1  0  0  0  0
 26 76  1  0  0  0  0
 27 88  1  0  0  0  0
 28 89  1  0  0  0  0
 29 31  2  0  0  0  0
 29 88  1  0  0  0  0
 30 90  1  0  0  0  0
 31 91  1  0  0  0  0
 32 69  2  0  0  0  0
 33 70  1  0  0  0  0
 33 74  1  0  0  0  0
 34 44  1  0  0  0  0
 34 71  1  0  0  0  0
 34 81  2  0  0  0  0
 35 75  1  0  0  0  0
 35 82  2  0  0  0  0
 36 53  1  0  0  0  0
 36 78  1  0  0  0  0
 36 83  2  0  0  0  0
 37 65  1  0  0  0  0
 37 72  1  0  0  0  0
 37 84  2  0  0  0  0
 38 66  1  0  0  0  0
 38 79  1  0  0  0  0
 38 85  2  0  0  0  0
 39 67  1  0  0  0  0
 39 76  1  0  0  0  0
 39 86  2  0  0  0  0
 40 73  1  0  0  0  0
 40 77  1  0  0  0  0
 40 87  2  0  0  0  0
 41 45  1  0  0  0  0
 42 53  1  0  0  0  0
 43 72  1  0  0  0  0
 44 92  1  0  0  0  0
 45 47  1  0  0  0  0
 46 48  1  0  0  0  0
 46 49  1  0  0  0  0
 47 52  1  0  0  0  0
 48 54  1  0  0  0  0
 49 73  1  0  0  0  0
 50 54  1  0  0  0  0
 50 73  1  0  0  0  0
 51 55  1  0  0  0  0
 51 71  1  0  0  0  0
 52 78  1  0  0  0  0
 53 72  1  0  0  0  0
 54 70  1  0  0  0  0
 55 64  1  0  0  0  0
 55 92  1  0  0  0  0
 56 66  1  0  0  0  0
 57 67  1  0  0  0  0
 58 67  1  0  0  0  0
 59 67  1  0  0  0  0
 60 68  1  0  0  0  0
 61 68  1  0  0  0  0
 62 68  1  0  0  0  0
 63 80  1  0  0  0  0
 64 89  1  0  0  0  0
 65 68  1  0  0  0  0
 65 79  1  0  0  0  0
 66 80  1  0  0  0  0
 69 70  1  0  0  0  0
M  CHG  1  80   1
M  ISO  4  40 100  64 101  77 100  89 101
M  END
> <Batch ID>
0073

> <Smiles>
CNC(C)C(=O)NC(C(=O)N1Cc2cc([101O:1][101CH2:1]C3CN(c4ccc([100NH:0][100C:0](=O)N5CCCC(n6nc(-c7ccc(Oc8ccc(F)cc8F)cc7)c(C(N)=O)c6N)C5)c(NC(=O)C(C)(C)C)c4)C(=O)CS3)ccc2CC1C(=O)NC1CCCc2ccccc21)C(C)(C)C

> <Shape>
0.278

> <Color>
0.085

> <Negative vol penalty>
0.000

$$$$

  -OEChem-04042323413D

 86 94  0     1  0  0  0  0  0999 V2000
  -18.5062  -25.8788   19.7437 C   0  0  0  0  0  0  0  0  0  0  0  0
  -19.6291  -26.5124   19.2212 C   0  0  0  0  0  0  0  0  0  0  0  0
  -29.9693  -23.7779   14.2105 C   0  0  0  0  0  0  0  0  0  0  0  0
  -26.8503  -15.4455   20.2911 C   0  0  0  0  0  0  0  0  0  0  0  0
  -27.3535  -15.8492   17.9628 C   0  0  0  0  0  0  0  0  0  0  0  0
  -29.5736  -25.1142   14.2678 C   0  0  0  0  0  0  0  0  0  0  0  0
  -18.1519  -26.0784   21.0773 C   0  0  0  0  0  0  0  0  0  0  0  0
  -20.3978  -27.3469   20.0318 C   0  0  0  0  0  0  0  0  0  0  0  0
  -25.3680  -26.5426   19.4882 C   0  0  0  0  0  0  0  0  0  0  0  0
  -30.1302  -23.0470   15.3877 C   0  0  0  0  0  0  0  0  0  0  0  0
  -25.7584  -14.6613   19.9191 C   0  0  0  0  0  0  0  0  0  0  0  0
  -26.2616  -15.0650   17.5908 C   0  0  0  0  0  0  0  0  0  0  0  0
  -25.9812  -27.0856   18.3601 C   0  0  0  0  0  0  0  0  0  0  0  0
  -25.2163  -11.5198   18.7923 C   0  0  0  0  0  0  0  0  0  0  0  0
  -25.0402  -10.3011   19.4476 C   0  0  0  0  0  0  0  0  0  0  0  0
  -29.4998  -24.9889   16.6795 C   0  0  0  0  0  0  0  0  0  0  0  0
  -26.7996  -28.9203   19.6954 C   0  0  0  0  0  0  0  0  0  0  0  0
  -22.8769  -11.0360   20.2330 C   0  0  0  0  0  0  0  0  0  0  0  0
  -27.6479  -16.0395   19.3129 C   0  0  0  0  0  0  0  0  0  0  0  0
  -29.3389  -25.7197   15.5023 C   0  0  0  0  0  0  0  0  0  0  0  0
  -30.0992  -16.4197   19.9078 C   0  0  0  0  0  0  0  0  0  0  0  0
  -18.9222  -26.9081   21.9073 C   0  0  0  0  0  0  0  0  0  0  0  0
  -25.4569  -27.1911   20.7284 C   0  0  0  0  0  0  0  0  0  0  0  0
  -20.0528  -27.5588   21.3774 C   0  0  0  0  0  0  0  0  0  0  0  0
  -26.1887  -28.3821   20.8384 C   0  0  0  0  0  0  0  0  0  0  0  0
  -29.8955  -23.6526   16.6221 C   0  0  0  0  0  0  0  0  0  0  0  0
  -25.4640  -14.4711   18.5690 C   0  0  0  0  0  0  0  0  0  0  0  0
  -26.6947  -28.2762   18.4629 C   0  0  0  0  0  0  0  0  0  0  0  0
  -24.2227  -12.4967   18.8575 C   0  0  0  0  0  0  0  0  0  0  0  0
  -23.8705  -10.0592   20.1679 C   0  0  0  0  0  0  0  0  0  0  0  0
  -23.0530  -12.2548   19.5778 C   0  0  0  0  0  0  0  0  0  0  0  0
  -28.7756  -16.8501   19.6965 C   0  0  0  0  0  0  0  0  0  0  0  0
  -30.7807  -17.5614   20.2521 C   0  0  0  0  0  0  0  0  0  0  0  0
  -28.9194  -27.1342   15.5639 C   0  0  0  0  0  0  0  0  0  0  0  0
  -30.6624  -15.1054   19.8020 C   0  0  0  0  0  0  0  0  0  0  0  0
  -23.3612  -28.4783   22.7420 C   0  0  0  0  0  0  0  0  0  0  0  0
  -25.9753  -28.8191   24.6320 C   0  0  0  0  0  0  0  0  0  0  0  0
  -29.3699  -29.0855   24.8612 C   0  0  0  0  0  0  0  0  0  0  0  0
  -29.8675  -23.3577   19.1239 C   0  0  0  0  0  0  0  0  0  0  0  0
  -18.4728  -27.1307   23.3297 C   0  0  0  0  0  0  0  0  0  0  0  0
  -24.8122  -26.5784   21.9413 C   0  0  0  0  0  0  0  0  0  0  0  0
  -26.3313  -29.1069   22.1509 C   0  0  0  0  0  0  0  0  0  0  0  0
  -19.5538  -27.7344   24.2226 C   0  0  0  0  0  0  0  0  0  0  0  0
  -30.1312  -21.8279   22.3281 C   0  0  0  0  0  0  0  0  0  0  0  0
  -20.2321  -28.9069   23.5213 C   0  0  0  0  0  0  0  0  0  0  0  0
  -29.9401  -20.3379   22.0353 C   0  0  0  0  0  0  0  0  0  0  0  0
  -29.2464  -22.6989   21.4380 C   0  0  0  0  0  0  0  0  0  0  0  0
  -29.1766  -20.9493   19.7050 C   0  0  0  0  0  0  0  0  0  0  0  0
  -20.9260  -28.4519   22.2318 C   0  0  1  0  0  0  0  0  0  0  0  0
  -24.5356  -27.5922   23.0473 C   0  0  1  0  0  0  0  0  0  0  0  0
  -30.0947  -20.0346   20.5321 C   0  0  2  0  0  0  0  0  0  0  0  0
  -31.2132  -29.3925   26.5362 C   0  0  0  0  0  0  0  0  0  0  0  0
  -25.2618  -31.7761   24.8717 C   0  0  0  0  0  0  0  0  0  0  0  0
  -27.5794  -32.1948   25.7213 C   0  0  0  0  0  0  0  0  0  0  0  0
  -26.0328  -30.7131   27.0001 C   0  0  0  0  0  0  0  0  0  0  0  0
  -30.4028  -31.7458   16.4349 C   0  0  0  0  0  0  0  0  0  0  0  0
  -31.5033  -29.8921   17.6828 C   0  0  0  0  0  0  0  0  0  0  0  0
  -31.6150  -29.9475   15.1843 C   0  0  0  0  0  0  0  0  0  0  0  0
  -30.6077  -26.4937   24.1473 C   0  0  0  0  0  0  0  0  0  0  0  0
  -28.4798  -29.5733   17.5757 C   0  0  0  0  0  0  0  0  0  1  0  0
  -27.0231  -29.8888   24.8248 C   0  0  1  0  0  0  0  0  0  0  0  0
  -30.3767  -28.3884   25.7584 C   0  0  2  0  0  0  0  0  0  0  0  0
  -29.3882  -29.4260   16.3542 C   0  0  1  0  0  0  0  0  0  0  0  0
  -26.4701  -31.1308   25.5792 C   0  0  0  0  0  0  0  0  0  0  0  0
  -30.7172  -30.2347   16.4015 C   0  0  0  0  0  0  0  0  0  0  0  0
  -28.6231  -18.1627   19.8906 N   0  0  0  0  0  0  0  0  0  0  0  0
  -29.8597  -18.5670   20.2275 N   0  0  0  0  0  0  0  0  0  0  0  0
  -25.6776  -28.4712   23.3068 N   0  0  0  0  0  0  0  0  0  0  0  0
  -29.4497  -22.3585   20.0281 N   0  0  0  0  0  0  0  0  0  0  0  0
  -32.0719  -17.7931   20.5707 N   0  0  0  0  0  0  0  0  0  0  0  0
  -27.7828  -27.4792   14.9588 N   0  0  0  0  0  0  0  0  0  0  0  0
  -29.8212  -14.0454   19.4372 N   0  0  0  0  0  0  0  0  0  0  0  0
  -30.0592  -22.9094   17.8174 N   0  0  0  0  0  0  0  0  0  0  0  0
  -22.1784  -27.7939   22.5369 N   0  0  0  0  0  0  0  0  0  0  0  0
  -28.1507  -29.2411   25.4861 N   0  0  0  0  0  0  0  0  0  0  0  0
  -29.7020  -27.9900   16.2199 N   0  3  0  0  0  0  0  0  0  0  0  0
  -31.2949  -27.5410   24.9461 N   0  3  0  0  0  0  0  0  0  0  0  0
  -31.8722  -14.8749   20.0405 O   0  0  0  0  0  0  0  0  0  0  0  0
  -23.5163  -29.6930   22.6974 O   0  0  0  0  0  0  0  0  0  0  0  0
  -25.4459  -28.3060   25.6210 O   0  0  0  0  0  0  0  0  0  0  0  0
  -29.6393  -29.4583   23.7214 O   0  0  0  0  0  0  0  0  0  0  0  0
  -30.0685  -24.5193   19.4877 O   0  0  0  0  0  0  0  0  0  0  0  0
  -24.3987  -13.7057   18.2057 O   0  0  0  0  0  0  0  0  0  0  0  0
  -27.2937  -28.8087   17.3632 O   0  0  0  0  0  0  0  0  0  1  0  0
  -23.7009   -8.8883   20.7959 F   0  0  0  0  0  0  0  0  0  0  0  0
  -22.0944  -13.1889   19.6430 F   0  0  0  0  0  0  0  0  0  0  0  0
  1  2  1  0  0  0  0
  1  7  2  0  0  0  0
  2  8  2  0  0  0  0
  3  6  2  0  0  0  0
  3 10  1  0  0  0  0
  4 11  2  0  0  0  0
  4 19  1  0  0  0  0
  5 12  1  0  0  0  0
  5 19  2  0  0  0  0
  6 20  1  0  0  0  0
  7 22  1  0  0  0  0
  8 24  1  0  0  0  0
  9 13  2  0  0  0  0
  9 23  1  0  0  0  0
 10 26  2  0  0  0  0
 11 27  1  0  0  0  0
 12 27  2  0  0  0  0
 13 28  1  0  0  0  0
 14 15  2  0  0  0  0
 14 29  1  0  0  0  0
 15 30  1  0  0  0  0
 16 20  2  0  0  0  0
 16 26  1  0  0  0  0
 17 25  1  0  0  0  0
 17 28  2  0  0  0  0
 18 30  2  0  0  0  0
 18 31  1  0  0  0  0
 19 32  1  0  0  0  0
 20 34  1  0  0  0  0
 21 32  1  0  0  0  0
 21 33  2  0  0  0  0
 21 35  1  0  0  0  0
 22 24  2  0  0  0  0
 22 40  1  0  0  0  0
 23 25  2  0  0  0  0
 23 41  1  0  0  0  0
 24 49  1  0  0  0  0
 25 42  1  0  0  0  0
 26 73  1  0  0  0  0
 27 83  1  0  0  0  0
 28 84  1  0  0  0  0
 29 31  2  0  0  0  0
 29 83  1  0  0  0  0
 30 85  1  0  0  0  0
 31 86  1  0  0  0  0
 32 66  2  0  0  0  0
 33 67  1  0  0  0  0
 33 70  1  0  0  0  0
 34 71  1  0  0  0  0
 34 76  2  0  0  0  0
 35 72  1  0  0  0  0
 35 78  2  0  0  0  0
 36 50  1  0  0  0  0
 36 74  1  0  0  0  0
 36 79  2  0  0  0  0
 37 61  1  0  0  0  0
 37 68  1  0  0  0  0
 37 80  2  0  0  0  0
 38 62  1  0  0  0  0
 38 75  1  0  0  0  0
 38 81  2  0  0  0  0
 39 69  1  0  0  0  0
 39 73  1  0  0  0  0
 39 82  2  0  0  0  0
 40 43  1  0  0  0  0
 41 50  1  0  0  0  0
 42 68  1  0  0  0  0
 43 45  1  0  0  0  0
 44 46  1  0  0  0  0
 44 47  1  0  0  0  0
 45 49  1  0  0  0  0
 46 51  1  0  0  0  0
 47 69  1  0  0  0  0
 48 51  1  0  0  0  0
 48 69  1  0  0  0  0
 49 74  1  0  0  0  0
 50 68  1  0  0  0  0
 51 67  1  0  0  0  0
 52 62  1  0  0  0  0
 53 64  1  0  0  0  0
 54 64  1  0  0  0  0
 55 64  1  0  0  0  0
 56 65  1  0  0  0  0
 57 65  1  0  0  0  0
 58 65  1  0  0  0  0
 59 77  1  0  0  0  0
 60 63  1  0  0  0  0
 60 84  1  0  0  0  0
 61 64  1  0  0  0  0
 61 75  1  0  0  0  0
 62 77  1  0  0  0  0
 63 65  1  0  0  0  0
 63 76  1  0  0  0  0
 66 67  1  0  0  0  0
M  CHG  2  76   1  77   1
M  ISO  4  39 100  60 101  73 100  84 101
M  END
> <Batch ID>
0073

> <Smiles>
CNC(C)C(=O)NC(C(=O)N1Cc2cc([101O:1][101CH2:1]C(NC(=N)c3cccc([100NH:0][100C:0](=O)N4CCCC(n5nc(-c6ccc(Oc7ccc(F)cc7F)cc6)c(C(N)=O)c5N)C4)c3)C(C)(C)C)ccc2CC1C(=O)NC1CCCc2ccccc21)C(C)(C)C

> <Shape>
0.255

> <Color>
0.074

> <Negative vol penalty>
0.000

$$$$

  -OEChem-04042323413D

 96106  0     1  0  0  0  0  0999 V2000
  -28.0732  -36.7612   18.6374 C   0  0  0  0  0  0  0  0  0  0  0  0
  -28.6277  -35.4969   18.4659 C   0  0  0  0  0  0  0  0  0  0  0  0
  -24.6078   -8.3754   21.4033 C   0  0  0  0  0  0  0  0  0  0  0  0
  -23.7278  -10.4277   22.3257 C   0  0  0  0  0  0  0  0  0  0  0  0
  -27.2472  -37.0163   19.7314 C   0  0  0  0  0  0  0  0  0  0  0  0
  -28.3575  -34.4872   19.3889 C   0  0  0  0  0  0  0  0  0  0  0  0
  -27.4808  -27.3895   19.8020 C   0  0  0  0  0  0  0  0  0  0  0  0
  -24.0045   -7.6538   22.4332 C   0  0  0  0  0  0  0  0  0  0  0  0
  -23.1244   -9.7060   23.3557 C   0  0  0  0  0  0  0  0  0  0  0  0
  -27.9498  -26.2860   20.5132 C   0  0  0  0  0  0  0  0  0  0  0  0
  -20.9146   -6.5129   23.1972 C   0  0  0  0  0  0  0  0  0  0  0  0
  -20.2302   -5.3461   22.8567 C   0  0  0  0  0  0  0  0  0  0  0  0
  -30.2706  -17.6784   21.0583 C   0  0  0  0  0  0  0  0  0  0  0  0
  -26.4451  -26.8195   22.3216 C   0  0  0  0  0  0  0  0  0  0  0  0
  -28.0061  -18.9365   22.0936 C   0  0  0  0  0  0  0  0  0  0  0  0
  -21.7081   -4.0653   24.2753 C   0  0  0  0  0  0  0  0  0  0  0  0
  -24.4695   -9.7624   21.3496 C   0  0  0  0  0  0  0  0  0  0  0  0
  -30.3193  -19.0292   21.4024 C   0  0  0  0  0  0  0  0  0  0  0  0
  -24.5357  -10.8323   19.0347 C   0  0  0  0  0  0  0  0  0  0  0  0
  -26.9590  -36.0065   20.6630 C   0  0  0  0  0  0  0  0  0  0  0  0
  -26.4965  -28.2241   20.3507 C   0  0  0  0  0  0  0  0  0  0  0  0
  -27.5281  -34.7294   20.4970 C   0  0  0  0  0  0  0  0  0  0  0  0
  -25.9634  -27.9316   21.6142 C   0  0  0  0  0  0  0  0  0  0  0  0
  -29.1871  -19.6582   21.9201 C   0  0  0  0  0  0  0  0  0  0  0  0
  -27.9575  -17.5856   21.7494 C   0  0  0  0  0  0  0  0  0  0  0  0
  -29.0897  -16.9566   21.2317 C   0  0  0  0  0  0  0  0  0  0  0  0
  -23.2627   -8.3190   23.4094 C   0  0  0  0  0  0  0  0  0  0  0  0
  -27.4340  -26.0025   21.7745 C   0  0  0  0  0  0  0  0  0  0  0  0
  -21.9957   -6.4558   24.0767 C   0  0  0  0  0  0  0  0  0  0  0  0
  -20.6269   -4.1223   23.3957 C   0  0  0  0  0  0  0  0  0  0  0  0
  -22.3924   -5.2320   24.6158 C   0  0  0  0  0  0  0  0  0  0  0  0
  -25.0930  -10.5085   20.2862 C   0  0  0  0  0  0  0  0  0  0  0  0
  -25.5205  -11.5436   18.3939 C   0  0  0  0  0  0  0  0  0  0  0  0
  -28.2679  -21.8162   22.7841 C   0  0  0  0  0  0  0  0  0  0  0  0
  -25.9817  -16.2176   20.9389 C   0  0  0  0  0  0  0  0  0  0  0  0
  -31.5684  -19.7550   21.2079 C   0  0  0  0  0  0  0  0  0  0  0  0
  -23.2433  -10.5182   18.4992 C   0  0  0  0  0  0  0  0  0  0  0  0
  -26.3619  -31.2901   21.1785 C   0  0  0  0  0  0  0  0  0  0  0  0
  -23.2337  -30.6092   21.7010 C   0  0  0  0  0  0  0  0  0  0  0  0
  -20.8560  -28.2604   22.3912 C   0  0  0  0  0  0  0  0  0  0  0  0
  -30.1120  -14.8301   20.3490 C   0  0  0  0  0  0  0  0  0  0  0  0
  -26.0988  -36.3429   21.8553 C   0  0  0  0  0  0  0  0  0  0  0  0
  -25.9821  -29.3953   19.5594 C   0  0  0  0  0  0  0  0  0  0  0  0
  -24.8910  -28.7846   22.2393 C   0  0  0  0  0  0  0  0  0  0  0  0
  -25.5605  -35.1143   22.5840 C   0  0  0  0  0  0  0  0  0  0  0  0
  -30.2835  -12.0004   18.1947 C   0  0  0  0  0  0  0  0  0  0  0  0
  -26.6722  -34.0925   22.8009 C   0  0  0  0  0  0  0  0  0  0  0  0
  -28.9189  -11.3296   18.3681 C   0  0  0  0  0  0  0  0  0  0  0  0
  -30.7943  -12.5941   19.5063 C   0  0  0  0  0  0  0  0  0  0  0  0
  -26.0941  -16.7731   23.2342 C   0  0  0  0  0  0  0  0  0  0  0  0
  -28.4942  -12.8305   20.3565 C   0  0  0  0  0  0  0  0  0  0  0  0
  -30.2863  -21.9744   22.2011 C   0  0  0  0  0  0  0  0  0  0  0  0
  -27.2386  -33.6012   21.4632 C   0  0  1  0  0  0  0  0  0  0  0  0
  -25.3458  -30.4728   20.4321 C   0  0  1  0  0  0  0  0  0  0  0  0
  -25.1010  -15.6285   23.0749 C   0  0  2  0  0  0  0  0  0  0  0  0
  -27.9088  -12.2744   19.0482 C   0  0  2  0  0  0  0  0  0  0  0  0
  -29.2746  -23.0024   22.7909 C   0  0  2  0  0  0  0  0  0  0  0  0
  -24.6889  -15.7204   21.5921 C   0  0  0  0  0  0  0  0  0  0  0  0
  -23.9718  -15.6924   24.0937 C   0  0  0  0  0  0  0  0  0  0  0  0
  -29.6229  -23.5080   24.1866 C   0  0  0  0  0  0  0  0  0  0  0  0
  -23.5865  -16.7503   21.3080 C   0  0  0  0  0  0  0  0  0  0  0  0
  -24.2837  -14.3555   21.0329 C   0  0  0  0  0  0  0  0  0  0  0  0
  -18.3921  -28.0117   22.7968 C   0  0  0  0  0  0  0  0  0  0  0  0
  -23.5828  -31.7531   24.5080 C   0  0  0  0  0  0  0  0  0  0  0  0
  -21.4389  -30.6339   25.1553 C   0  0  0  0  0  0  0  0  0  0  0  0
  -21.4421  -32.3879   23.3816 C   0  0  0  0  0  0  0  0  0  0  0  0
  -20.5336  -26.4745   20.0534 C   0  0  0  0  0  0  0  0  0  0  0  0
  -28.8989  -24.1304   21.8497 C   0  0  0  0  0  0  0  0  0  1  0  0
  -22.4294  -30.1153   22.8792 C   0  0  1  0  0  0  0  0  0  0  0  0
  -19.5042  -27.9799   21.7600 C   0  0  2  0  0  0  0  0  0  0  0  0
  -22.2449  -31.2074   23.9704 C   0  0  0  0  0  0  0  0  0  0  0  0
  -26.3356  -10.9757   20.4337 N   0  0  0  0  0  0  0  0  0  0  0  0
  -26.5672  -11.6001   19.2664 N   0  0  0  0  0  0  0  0  0  0  0  0
  -29.2135  -20.9885   22.2685 N   0  0  0  0  0  0  0  0  0  0  0  0
  -26.7372  -16.8682   21.9367 N   0  0  0  0  0  0  0  0  0  0  0  0
  -24.4252  -29.9221   21.4289 N   0  0  0  0  0  0  0  0  0  0  0  0
  -29.7865  -13.4817   20.0907 N   0  0  0  0  0  0  0  0  0  0  0  0
  -25.5846  -12.1198   17.1748 N   0  0  0  0  0  0  0  0  0  0  0  0
  -31.7665  -20.3791   19.9814 N   0  0  0  0  0  0  0  0  0  0  0  0
  -22.3534   -9.7798   19.2912 N   0  0  0  0  0  0  0  0  0  0  0  0
  -29.0643  -15.5856   20.8745 N   0  0  0  0  0  0  0  0  0  0  0  0
  -26.3456  -32.6348   20.8607 N   0  0  0  0  0  0  0  0  0  0  0  0
  -21.1790  -29.5996   22.3324 N   0  0  0  0  0  0  0  0  0  0  0  0
  -19.5038  -26.6381   21.1115 N   0  3  0  0  0  0  0  0  0  0  0  0
  -27.1112  -21.6502   23.0983 O   0  0  0  0  0  0  0  0  0  0  0  0
  -26.2163  -16.0919   19.7448 O   0  0  0  0  0  0  0  0  0  0  0  0
  -32.4329  -19.8011   22.0982 O   0  0  0  0  0  0  0  0  0  0  0  0
  -22.8941  -10.8675   17.3462 O   0  0  0  0  0  0  0  0  0  0  0  0
  -27.1047  -30.7417   21.9841 O   0  0  0  0  0  0  0  0  0  0  0  0
  -22.8165  -31.5648   21.0419 O   0  0  0  0  0  0  0  0  0  0  0  0
  -21.5538  -27.3802   22.8900 O   0  0  0  0  0  0  0  0  0  0  0  0
  -31.2291  -15.2881   20.0954 O   0  0  0  0  0  0  0  0  0  0  0  0
  -22.6737   -7.6152   24.4144 O   0  0  0  0  0  0  0  0  0  0  0  0
  -27.8905  -24.9263   22.4711 O   0  0  0  0  0  0  0  0  0  1  0  0
  -19.9687   -3.0022   23.0699 F   0  0  0  0  0  0  0  0  0  0  0  0
  -23.4296   -5.1711   25.4622 F   0  0  0  0  0  0  0  0  0  0  0  0
  1  2  1  0  0  0  0
  1  5  2  0  0  0  0
  2  6  2  0  0  0  0
  3  8  2  0  0  0  0
  3 17  1  0  0  0  0
  4  9  1  0  0  0  0
  4 17  2  0  0  0  0
  5 20  1  0  0  0  0
  6 22  1  0  0  0  0
  7 10  2  0  0  0  0
  7 21  1  0  0  0  0
  8 27  1  0  0  0  0
  9 27  2  0  0  0  0
 10 28  1  0  0  0  0
 11 12  2  0  0  0  0
 11 29  1  0  0  0  0
 12 30  1  0  0  0  0
 13 18  1  0  0  0  0
 13 26  2  0  0  0  0
 14 23  1  0  0  0  0
 14 28  2  0  0  0  0
 15 24  1  0  0  0  0
 15 25  2  0  0  0  0
 16 30  2  0  0  0  0
 16 31  1  0  0  0  0
 17 32  1  0  0  0  0
 18 24  2  0  0  0  0
 18 36  1  0  0  0  0
 19 32  1  0  0  0  0
 19 33  2  0  0  0  0
 19 37  1  0  0  0  0
 20 22  2  0  0  0  0
 20 42  1  0  0  0  0
 21 23  2  0  0  0  0
 21 43  1  0  0  0  0
 22 53  1  0  0  0  0
 23 44  1  0  0  0  0
 24 74  1  0  0  0  0
 25 26  1  0  0  0  0
 25 75  1  0  0  0  0
 26 81  1  0  0  0  0
 27 93  1  0  0  0  0
 28 94  1  0  0  0  0
 29 31  2  0  0  0  0
 29 93  1  0  0  0  0
 30 95  1  0  0  0  0
 31 96  1  0  0  0  0
 32 72  2  0  0  0  0
 33 73  1  0  0  0  0
 33 78  1  0  0  0  0
 34 57  1  0  0  0  0
 34 74  1  0  0  0  0
 34 85  2  0  0  0  0
 35 58  1  0  0  0  0
 35 75  1  0  0  0  0
 35 86  2  0  0  0  0
 36 79  1  0  0  0  0
 36 87  2  0  0  0  0
 37 80  1  0  0  0  0
 37 88  2  0  0  0  0
 38 54  1  0  0  0  0
 38 82  1  0  0  0  0
 38 89  2  0  0  0  0
 39 69  1  0  0  0  0
 39 76  1  0  0  0  0
 39 90  2  0  0  0  0
 40 70  1  0  0  0  0
 40 83  1  0  0  0  0
 40 91  2  0  0  0  0
 41 77  1  0  0  0  0
 41 81  1  0  0  0  0
 41 92  2  0  0  0  0
 42 45  1  0  0  0  0
 43 54  1  0  0  0  0
 44 76  1  0  0  0  0
 45 47  1  0  0  0  0
 46 48  1  0  0  0  0
 46 49  1  0  0  0  0
 47 53  1  0  0  0  0
 48 56  1  0  0  0  0
 49 77  1  0  0  0  0
 50 55  1  0  0  0  0
 50 75  1  0  0  0  0
 51 56  1  0  0  0  0
 51 77  1  0  0  0  0
 52 57  1  0  0  0  0
 52 74  1  0  0  0  0
 53 82  1  0  0  0  0
 54 76  1  0  0  0  0
 55 58  1  0  0  0  0
 55 59  1  0  0  0  0
 56 73  1  0  0  0  0
 57 60  1  0  0  0  0
 57 68  1  0  0  0  0
 58 61  1  0  0  0  0
 58 62  1  0  0  0  0
 63 70  1  0  0  0  0
 64 71  1  0  0  0  0
 65 71  1  0  0  0  0
 66 71  1  0  0  0  0
 67 84  1  0  0  0  0
 68 94  1  0  0  0  0
 69 71  1  0  0  0  0
 69 83  1  0  0  0  0
 70 84  1  0  0  0  0
 72 73  1  0  0  0  0
M  CHG  1  84   1
M  ISO  4  41 100  68 101  81 100  94 101
M  END
> <Batch ID>
0073

> <Smiles>
CNC(C)C(=O)NC(C(=O)N1Cc2cc([101O:1][101CH2:1]C3(C)CN(c4cc(N5CC(C)C(C)(C)C5=O)c([100NH:0][100C:0](=O)N5CCCC(n6nc(-c7ccc(Oc8ccc(F)cc8F)cc7)c(C(N)=O)c6N)C5)cc4C(N)=O)C3=O)ccc2CC1C(=O)NC1CCCc2ccccc21)C(C)(C)C

> <Shape>
0.300

> <Color>
0.075

> <Negative vol penalty>
0.000

$$$$

  -OEChem-04042323413D

 87 95  0     1  0  0  0  0  0999 V2000
  -26.7533  -33.6445   26.0965 C   0  0  0  0  0  0  0  0  0  0  0  0
  -27.1839  -32.4900   25.4506 C   0  0  0  0  0  0  0  0  0  0  0  0
  -24.4386  -11.9915   24.2047 C   0  0  0  0  0  0  0  0  0  0  0  0
  -23.6368  -14.2345   23.8007 C   0  0  0  0  0  0  0  0  0  0  0  0
  -27.9187  -20.8302   19.1166 C   0  0  0  0  0  0  0  0  0  0  0  0
  -30.3118  -20.5284   18.9786 C   0  0  0  0  0  0  0  0  0  0  0  0
  -25.3992  -33.8209   26.3778 C   0  0  0  0  0  0  0  0  0  0  0  0
  -26.2605  -31.5106   25.0866 C   0  0  0  0  0  0  0  0  0  0  0  0
  -27.0134  -29.7818   20.3867 C   0  0  0  0  0  0  0  0  0  0  0  0
  -27.7430  -19.4466   19.0974 C   0  0  0  0  0  0  0  0  0  0  0  0
  -30.1361  -19.1447   18.9595 C   0  0  0  0  0  0  0  0  0  0  0  0
  -23.9738  -12.0619   25.5179 C   0  0  0  0  0  0  0  0  0  0  0  0
  -23.1719  -14.3048   25.1139 C   0  0  0  0  0  0  0  0  0  0  0  0
  -28.0474  -28.8647   20.2036 C   0  0  0  0  0  0  0  0  0  0  0  0
  -21.0163  -11.7780   27.1320 C   0  0  0  0  0  0  0  0  0  0  0  0
  -20.3176  -10.6792   27.6321 C   0  0  0  0  0  0  0  0  0  0  0  0
  -26.4432  -27.0632   20.2123 C   0  0  0  0  0  0  0  0  0  0  0  0
  -21.9749  -10.4164   29.3703 C   0  0  0  0  0  0  0  0  0  0  0  0
  -24.2702  -13.0778   23.3461 C   0  0  0  0  0  0  0  0  0  0  0  0
  -29.2030  -21.3711   19.0571 C   0  0  0  0  0  0  0  0  0  0  0  0
  -24.0441  -12.5502   20.8605 C   0  0  0  0  0  0  0  0  0  0  0  0
  -24.4576  -32.8475   26.0084 C   0  0  0  0  0  0  0  0  0  0  0  0
  -25.6853  -29.3447   20.4950 C   0  0  0  0  0  0  0  0  0  0  0  0
  -24.8926  -31.6734   25.3644 C   0  0  0  0  0  0  0  0  0  0  0  0
  -25.3938  -27.9769   20.3941 C   0  0  0  0  0  0  0  0  0  0  0  0
  -28.8517  -18.6039   19.0189 C   0  0  0  0  0  0  0  0  0  0  0  0
  -23.3405  -13.2185   25.9725 C   0  0  0  0  0  0  0  0  0  0  0  0
  -27.7627  -27.5050   20.1192 C   0  0  0  0  0  0  0  0  0  0  0  0
  -22.1944  -12.1959   27.7511 C   0  0  0  0  0  0  0  0  0  0  0  0
  -20.7968   -9.9984   28.7513 C   0  0  0  0  0  0  0  0  0  0  0  0
  -22.6737  -11.5152   28.8702 C   0  0  0  0  0  0  0  0  0  0  0  0
  -24.7506  -13.0060   21.9896 C   0  0  0  0  0  0  0  0  0  0  0  0
  -24.9337  -12.6822   19.8224 C   0  0  0  0  0  0  0  0  0  0  0  0
  -29.3690  -26.0837   21.0524 C   0  0  0  0  0  0  0  0  0  1  0  0
  -29.3901  -22.8448   19.0773 C   0  0  0  0  0  0  0  0  0  0  0  0
  -22.7034  -12.0522   20.7591 C   0  0  0  0  0  0  0  0  0  0  0  0
  -30.3727  -25.1910   21.0274 C   0  0  0  0  0  0  0  0  0  0  0  0
  -23.4523  -29.4927   22.7524 C   0  0  0  0  0  0  0  0  0  0  0  0
  -21.5768  -28.2159   20.4340 C   0  0  0  0  0  0  0  0  0  0  0  0
  -21.3650  -26.4075   17.5476 C   0  0  0  0  0  0  0  0  0  0  0  0
  -29.6640  -16.2211   18.9249 C   0  0  0  0  0  0  0  0  0  0  0  0
  -23.0105  -33.0610   26.3758 C   0  0  0  0  0  0  0  0  0  0  0  0
  -24.5785  -30.3489   20.6656 C   0  0  0  0  0  0  0  0  0  0  0  0
  -23.9827  -27.4580   20.4840 C   0  0  0  0  0  0  0  0  0  0  0  0
  -22.0492  -32.1456   25.6220 C   0  0  0  0  0  0  0  0  0  0  0  0
  -29.6311  -12.6609   18.8907 C   0  0  0  0  0  0  0  0  0  0  0  0
  -22.5600  -30.7084   25.6347 C   0  0  0  0  0  0  0  0  0  0  0  0
  -28.3087  -12.3040   19.5732 C   0  0  0  0  0  0  0  0  0  0  0  0
  -30.2822  -13.8897   19.5230 C   0  0  0  0  0  0  0  0  0  0  0  0
  -28.0943  -14.7156   20.2979 C   0  0  0  0  0  0  0  0  0  0  0  0
  -23.9183  -30.5994   24.9315 C   0  0  1  0  0  0  0  0  0  0  0  0
  -23.3166  -29.7490   21.2780 C   0  0  1  0  0  0  0  0  0  0  0  0
  -27.3689  -13.5230   19.6536 C   0  0  2  0  0  0  0  0  0  0  0  0
  -30.9940  -24.6480   22.2882 C   0  0  0  0  0  0  0  0  0  0  0  0
  -19.6940  -25.4960   15.9122 C   0  0  0  0  0  0  0  0  0  0  0  0
  -32.7744  -26.4492   19.5337 C   0  0  0  0  0  0  0  0  0  0  0  0
  -32.9050  -24.3856   18.1353 C   0  0  0  0  0  0  0  0  0  0  0  0
  -20.8430  -26.0140   22.4147 C   0  0  0  0  0  0  0  0  0  0  0  0
  -19.9758  -24.6679   20.4900 C   0  0  0  0  0  0  0  0  0  0  0  0
  -18.9313  -26.8643   21.0446 C   0  0  0  0  0  0  0  0  0  0  0  0
  -22.5155  -27.9786   15.3190 C   0  0  0  0  0  0  0  0  0  0  0  0
  -30.9190  -24.6985   19.6958 C   0  0  1  0  0  0  0  0  0  0  0  0
  -21.2290  -26.8153   19.9908 C   0  0  1  0  0  0  0  0  0  0  0  0
  -20.6117  -26.6596   16.2540 C   0  0  2  0  0  0  0  0  0  0  0  0
  -32.4333  -24.9553   19.4807 C   0  0  0  0  0  0  0  0  0  0  0  0
  -20.2717  -26.0997   20.9852 C   0  0  0  0  0  0  0  0  0  0  0  0
  -25.9934  -13.3980   21.6965 N   0  0  0  0  0  0  0  0  0  0  0  0
  -26.0747  -13.1889   20.3715 N   0  0  0  0  0  0  0  0  0  0  0  0
  -22.9359  -28.4786   20.6571 N   0  0  0  0  0  0  0  0  0  0  0  0
  -29.3345  -15.0057   19.5613 N   0  0  0  0  0  0  0  0  0  0  0  0
  -24.8434  -12.4129   18.5026 N   0  0  0  0  0  0  0  0  0  0  0  0
  -21.9264  -11.9834   21.9235 N   0  0  0  0  0  0  0  0  0  0  0  0
  -28.6722  -17.1985   18.9997 N   0  0  0  0  0  0  0  0  0  0  0  0
  -30.5976  -23.2916   19.5871 N   0  0  0  0  0  0  0  0  0  0  0  0
  -23.7468  -30.6204   23.4947 N   0  0  0  0  0  0  0  0  0  0  0  0
  -20.7023  -26.9350   18.6356 N   0  0  0  0  0  0  0  0  0  0  0  0
  -21.5676  -26.8510   15.1268 N   0  3  0  0  0  0  0  0  0  0  0  0
  -28.4852  -23.5701   18.6730 O   0  0  0  0  0  0  0  0  0  0  0  0
  -22.2146  -11.6639   19.6710 O   0  0  0  0  0  0  0  0  0  0  0  0
  -23.2996  -28.3562   23.1846 O   0  0  0  0  0  0  0  0  0  0  0  0
  -20.6766  -29.0483   20.5701 O   0  0  0  0  0  0  0  0  0  0  0  0
  -22.4325  -25.7999   17.5892 O   0  0  0  0  0  0  0  0  0  0  0  0
  -30.7351  -16.3736   18.3320 O   0  0  0  0  0  0  0  0  0  0  0  0
  -22.8865  -13.2874   27.2538 O   0  0  0  0  0  0  0  0  0  0  0  0
  -28.7702  -26.6077   19.9412 O   0  0  0  0  0  0  0  0  0  1  0  0
  -20.1249   -8.9443   29.2323 F   0  0  0  0  0  0  0  0  0  0  0  0
  -23.8042  -11.9127   29.4699 F   0  0  0  0  0  0  0  0  0  0  0  0
  1  2  1  0  0  0  0
  1  7  2  0  0  0  0
  2  8  2  0  0  0  0
  3 12  2  0  0  0  0
  3 19  1  0  0  0  0
  4 13  1  0  0  0  0
  4 19  2  0  0  0  0
  5 10  2  0  0  0  0
  5 20  1  0  0  0  0
  6 11  1  0  0  0  0
  6 20  2  0  0  0  0
  7 22  1  0  0  0  0
  8 24  1  0  0  0  0
  9 14  2  0  0  0  0
  9 23  1  0  0  0  0
 10 26  1  0  0  0  0
 11 26  2  0  0  0  0
 12 27  1  0  0  0  0
 13 27  2  0  0  0  0
 14 28  1  0  0  0  0
 15 16  2  0  0  0  0
 15 29  1  0  0  0  0
 16 30  1  0  0  0  0
 17 25  1  0  0  0  0
 17 28  2  0  0  0  0
 18 30  2  0  0  0  0
 18 31  1  0  0  0  0
 19 32  1  0  0  0  0
 20 35  1  0  0  0  0
 21 32  1  0  0  0  0
 21 33  2  0  0  0  0
 21 36  1  0  0  0  0
 22 24  2  0  0  0  0
 22 42  1  0  0  0  0
 23 25  2  0  0  0  0
 23 43  1  0  0  0  0
 24 51  1  0  0  0  0
 25 44  1  0  0  0  0
 26 73  1  0  0  0  0
 27 84  1  0  0  0  0
 28 85  1  0  0  0  0
 29 31  2  0  0  0  0
 29 84  1  0  0  0  0
 30 86  1  0  0  0  0
 31 87  1  0  0  0  0
 32 67  2  0  0  0  0
 33 68  1  0  0  0  0
 33 71  1  0  0  0  0
 34 37  2  0  0  0  0
 34 85  1  0  0  0  0
 35 74  1  0  0  0  0
 35 78  2  0  0  0  0
 36 72  1  0  0  0  0
 36 79  2  0  0  0  0
 37 54  1  0  0  0  0
 37 62  1  0  0  0  0
 38 52  1  0  0  0  0
 38 75  1  0  0  0  0
 38 80  2  0  0  0  0
 39 63  1  0  0  0  0
 39 69  1  0  0  0  0
 39 81  2  0  0  0  0
 40 64  1  0  0  0  0
 40 76  1  0  0  0  0
 40 82  2  0  0  0  0
 41 70  1  0  0  0  0
 41 73  1  0  0  0  0
 41 83  2  0  0  0  0
 42 45  1  0  0  0  0
 43 52  1  0  0  0  0
 44 69  1  0  0  0  0
 45 47  1  0  0  0  0
 46 48  1  0  0  0  0
 46 49  1  0  0  0  0
 47 51  1  0  0  0  0
 48 53  1  0  0  0  0
 49 70  1  0  0  0  0
 50 53  1  0  0  0  0
 50 70  1  0  0  0  0
 51 75  1  0  0  0  0
 52 69  1  0  0  0  0
 53 68  1  0  0  0  0
 55 64  1  0  0  0  0
 56 65  1  0  0  0  0
 57 65  1  0  0  0  0
 58 66  1  0  0  0  0
 59 66  1  0  0  0  0
 60 66  1  0  0  0  0
 61 77  1  0  0  0  0
 62 65  1  0  0  0  0
 62 74  1  0  0  0  0
 63 66  1  0  0  0  0
 63 76  1  0  0  0  0
 64 77  1  0  0  0  0
 67 68  1  0  0  0  0
M  CHG  1  77   1
M  ISO  4  34 101  41 100  73 100  85 101
M  END
> <Batch ID>
0073

> <Smiles>
CNC(C)C(=O)NC(C(=O)N1Cc2cc([101O:1][101CH:1]=C(C)C(NC(=O)c3ccc([100NH:0][100C:0](=O)N4CCCC(n5nc(-c6ccc(Oc7ccc(F)cc7F)cc6)c(C(N)=O)c5N)C4)cc3)C(C)C)ccc2CC1C(=O)NC1CCCc2ccccc21)C(C)(C)C

> <Shape>
0.273

> <Color>
0.089

> <Negative vol penalty>
0.000

$$$$

  -OEChem-04042323413D

 81 88  0     1  0  0  0  0  0999 V2000
  -28.3511  -19.8823   25.5335 C   0  0  0  0  0  0  0  0  0  0  0  0
  -28.6619  -20.9311   24.6739 C   0  0  0  0  0  0  0  0  0  0  0  0
  -24.2646  -13.5699   21.1654 C   0  0  0  0  0  0  0  0  0  0  0  0
  -26.3654  -13.0999   20.0685 C   0  0  0  0  0  0  0  0  0  0  0  0
  -27.0293  -19.4588   25.6652 C   0  0  0  0  0  0  0  0  0  0  0  0
  -27.6511  -21.5564   23.9447 C   0  0  0  0  0  0  0  0  0  0  0  0
  -28.0426  -26.6048   24.0157 C   0  0  0  0  0  0  0  0  0  0  0  0
  -23.7865  -12.3152   20.7873 C   0  0  0  0  0  0  0  0  0  0  0  0
  -25.8873  -11.8452   19.6905 C   0  0  0  0  0  0  0  0  0  0  0  0
  -28.9948  -27.1814   23.1764 C   0  0  0  0  0  0  0  0  0  0  0  0
  -22.1426   -9.0937   20.4205 C   0  0  0  0  0  0  0  0  0  0  0  0
  -21.4702   -8.3393   21.3819 C   0  0  0  0  0  0  0  0  0  0  0  0
  -27.2623  -27.7078   21.5825 C   0  0  0  0  0  0  0  0  0  0  0  0
  -23.4443   -8.3550   22.7748 C   0  0  0  0  0  0  0  0  0  0  0  0
  -25.5540  -13.9622   20.8059 C   0  0  0  0  0  0  0  0  0  0  0  0
  -26.7389  -15.5844   22.3782 C   0  0  0  0  0  0  0  0  0  0  0  0
  -26.0004  -20.0855   24.9446 C   0  0  0  0  0  0  0  0  0  0  0  0
  -26.6924  -26.5655   23.6392 C   0  0  0  0  0  0  0  0  0  0  0  0
  -26.3144  -21.1400   24.0660 C   0  0  0  0  0  0  0  0  0  0  0  0
  -26.2946  -27.1324   22.4200 C   0  0  0  0  0  0  0  0  0  0  0  0
  -24.5978  -11.4529   20.0499 C   0  0  0  0  0  0  0  0  0  0  0  0
  -28.6052  -27.7304   21.9582 C   0  0  0  0  0  0  0  0  0  0  0  0
  -23.4658   -9.4788   20.6362 C   0  0  0  0  0  0  0  0  0  0  0  0
  -22.1210   -7.9699   22.5591 C   0  0  0  0  0  0  0  0  0  0  0  0
  -24.1166   -9.1094   21.8133 C   0  0  0  0  0  0  0  0  0  0  0  0
  -26.0483  -15.2583   21.1956 C   0  0  0  0  0  0  0  0  0  0  0  0
  -26.9855  -16.9314   22.2715 C   0  0  0  0  0  0  0  0  0  0  0  0
  -27.1232  -14.7448   23.4751 C   0  0  0  0  0  0  0  0  0  0  0  0
  -24.5892  -24.2515   23.0685 C   0  0  0  0  0  0  0  0  0  0  0  0
  -28.7474  -21.1957   19.2733 C   0  0  0  0  0  0  0  0  0  0  0  0
  -22.5127  -26.7318   22.8266 C   0  0  0  0  0  0  0  0  0  0  0  0
  -29.8684  -24.7577   18.2897 C   0  0  0  0  0  0  0  0  0  0  0  0
  -22.0256  -30.0531   22.2114 C   0  0  0  0  0  0  0  0  0  0  0  0
  -30.7188  -27.0361   18.7610 C   0  0  0  0  0  0  0  0  0  0  0  0
  -24.5931  -19.5617   25.0842 C   0  0  0  0  0  0  0  0  0  0  0  0
  -25.6736  -25.9638   24.5679 C   0  0  0  0  0  0  0  0  0  0  0  0
  -24.8546  -27.1338   21.9785 C   0  0  0  0  0  0  0  0  0  0  0  0
  -23.5303  -20.5234   24.5591 C   0  0  0  0  0  0  0  0  0  0  0  0
  -25.2158  -20.3652   19.0184 C   0  0  0  0  0  0  0  0  0  0  0  0
  -23.9318  -21.0680   23.1919 C   0  0  0  0  0  0  0  0  0  0  0  0
  -25.1849  -18.9683   19.6372 C   0  0  0  0  0  0  0  0  0  0  0  0
  -26.5039  -20.6037   18.2349 C   0  0  0  0  0  0  0  0  0  0  0  0
  -27.7172  -18.9786   19.6532 C   0  0  0  0  0  0  0  0  0  0  0  0
  -25.2424  -21.8597   23.2767 C   0  0  1  0  0  0  0  0  0  0  0  0
  -24.4016  -25.5196   23.8524 C   0  0  1  0  0  0  0  0  0  0  0  0
  -26.4473  -18.7090   20.4777 C   0  0  2  0  0  0  0  0  0  0  0  0
  -20.2134  -31.7814   22.0488 C   0  0  0  0  0  0  0  0  0  0  0  0
  -31.6441  -29.3024   19.3632 C   0  0  0  0  0  0  0  0  0  0  0  0
  -32.9547  -27.2458   19.8950 C   0  0  0  0  0  0  0  0  0  0  0  0
  -21.7130  -25.6329   20.0948 C   0  0  0  0  0  0  0  0  0  0  0  0
  -20.6547  -27.8455   19.5921 C   0  0  0  0  0  0  0  0  0  0  0  0
  -19.8061  -26.4604   21.4853 C   0  0  0  0  0  0  0  0  0  0  0  0
  -23.1810  -31.6407   24.4258 C   0  0  0  0  0  0  0  0  0  0  0  0
  -28.6628  -22.5389   18.5932 C   0  0  0  0  0  0  0  0  0  0  0  0
  -29.8934  -23.3739   18.9210 C   0  0  0  0  0  0  0  0  0  0  0  0
  -30.8561  -27.7616   21.1910 C   0  0  0  0  0  0  0  0  0  1  0  0
  -22.0396  -27.6246   21.7049 C   0  0  1  0  0  0  0  0  0  0  0  0
  -21.2313  -31.1099   22.9575 C   0  0  2  0  0  0  0  0  0  0  0  0
  -31.5321  -27.8338   19.8070 C   0  0  0  0  0  0  0  0  0  0  0  0
  -21.0809  -26.8892   20.7264 C   0  0  0  0  0  0  0  0  0  0  0  0
  -25.8676  -16.3132   20.3965 N   0  0  0  0  0  0  0  0  0  0  0  0
  -26.4482  -17.3153   21.0782 N   0  0  0  0  0  0  0  0  0  0  0  0
  -23.8969  -26.5281   22.9184 N   0  0  0  0  0  0  0  0  0  0  0  0
  -27.6827  -20.3193   19.0620 N   0  0  0  0  0  0  0  0  0  0  0  0
  -27.6073  -17.8130   23.0831 N   0  0  0  0  0  0  0  0  0  0  0  0
  -26.7910  -13.3842   23.4234 N   0  0  0  0  0  0  0  0  0  0  0  0
  -25.0032  -23.1754   23.8301 N   0  0  0  0  0  0  0  0  0  0  0  0
  -30.5605  -25.6847   19.0736 N   0  0  0  0  0  0  0  0  0  0  0  0
  -21.4581  -28.8029   22.3387 N   0  0  0  0  0  0  0  0  0  0  0  0
  -22.1429  -32.1579   23.4974 N   0  3  0  0  0  0  0  0  0  0  0  0
  -27.7285  -15.1913   24.4790 O   0  0  0  0  0  0  0  0  0  0  0  0
  -24.3729  -24.2492   21.8623 O   0  0  0  0  0  0  0  0  0  0  0  0
  -29.7297  -20.9361   19.9731 O   0  0  0  0  0  0  0  0  0  0  0  0
  -21.6851  -26.2392   23.5975 O   0  0  0  0  0  0  0  0  0  0  0  0
  -29.3087  -25.0046   17.2253 O   0  0  0  0  0  0  0  0  0  0  0  0
  -23.0453  -30.3115   21.5758 O   0  0  0  0  0  0  0  0  0  0  0  0
  -30.2600  -27.5641   17.7479 O   0  0  0  0  0  0  0  0  0  0  0  0
  -24.1317  -10.2285   19.6811 O   0  0  0  0  0  0  0  0  0  0  0  0
  -29.5388  -28.2970   21.1313 O   0  0  0  0  0  0  0  0  0  1  0  0
  -21.4748   -7.2467   23.4829 F   0  0  0  0  0  0  0  0  0  0  0  0
  -25.3874   -9.4774   22.0267 F   0  0  0  0  0  0  0  0  0  0  0  0
  1  2  1  0  0  0  0
  1  5  2  0  0  0  0
  2  6  2  0  0  0  0
  3  8  2  0  0  0  0
  3 15  1  0  0  0  0
  4  9  1  0  0  0  0
  4 15  2  0  0  0  0
  5 17  1  0  0  0  0
  6 19  1  0  0  0  0
  7 10  2  0  0  0  0
  7 18  1  0  0  0  0
  8 21  1  0  0  0  0
  9 21  2  0  0  0  0
 10 22  1  0  0  0  0
 11 12  2  0  0  0  0
 11 23  1  0  0  0  0
 12 24  1  0  0  0  0
 13 20  1  0  0  0  0
 13 22  2  0  0  0  0
 14 24  2  0  0  0  0
 14 25  1  0  0  0  0
 15 26  1  0  0  0  0
 16 26  1  0  0  0  0
 16 27  2  0  0  0  0
 16 28  1  0  0  0  0
 17 19  2  0  0  0  0
 17 35  1  0  0  0  0
 18 20  2  0  0  0  0
 18 36  1  0  0  0  0
 19 44  1  0  0  0  0
 20 37  1  0  0  0  0
 21 78  1  0  0  0  0
 22 79  1  0  0  0  0
 23 25  2  0  0  0  0
 23 78  1  0  0  0  0
 24 80  1  0  0  0  0
 25 81  1  0  0  0  0
 26 61  2  0  0  0  0
 27 62  1  0  0  0  0
 27 65  1  0  0  0  0
 28 66  1  0  0  0  0
 28 71  2  0  0  0  0
 29 45  1  0  0  0  0
 29 67  1  0  0  0  0
 29 72  2  0  0  0  0
 30 54  1  0  0  0  0
 30 64  1  0  0  0  0
 30 73  2  0  0  0  0
 31 57  1  0  0  0  0
 31 63  1  0  0  0  0
 31 74  2  0  0  0  0
 32 55  1  0  0  0  0
 32 68  1  0  0  0  0
 32 75  2  0  0  0  0
 33 58  1  0  0  0  0
 33 69  1  0  0  0  0
 33 76  2  0  0  0  0
 34 59  1  0  0  0  0
 34 68  1  0  0  0  0
 34 77  2  0  0  0  0
 35 38  1  0  0  0  0
 36 45  1  0  0  0  0
 37 63  1  0  0  0  0
 38 40  1  0  0  0  0
 39 41  1  0  0  0  0
 39 42  1  0  0  0  0
 40 44  1  0  0  0  0
 41 46  1  0  0  0  0
 42 64  1  0  0  0  0
 43 46  1  0  0  0  0
 43 64  1  0  0  0  0
 44 67  1  0  0  0  0
 45 63  1  0  0  0  0
 46 62  1  0  0  0  0
 47 58  1  0  0  0  0
 48 59  1  0  0  0  0
 49 59  1  0  0  0  0
 50 60  1  0  0  0  0
 51 60  1  0  0  0  0
 52 60  1  0  0  0  0
 53 70  1  0  0  0  0
 54 55  1  0  0  0  0
 56 59  1  0  0  0  0
 56 79  1  0  0  0  0
 57 60  1  0  0  0  0
 57 69  1  0  0  0  0
 58 70  1  0  0  0  0
 61 62  1  0  0  0  0
M  CHG  1  70   1
M  ISO  4  30 100  54 100  56 101  79 101
M  END
> <Batch ID>
0073

> <Smiles>
CNC(C)C(=O)NC(C(=O)N1Cc2cc([101O:1][101CH2:1]C(C)(C)C(=O)NC(=O)C[100CH2:0][100C:0](=O)N3CCCC(n4nc(-c5ccc(Oc6ccc(F)cc6F)cc5)c(C(N)=O)c4N)C3)ccc2CC1C(=O)NC1CCCc2ccccc21)C(C)(C)C

> <Shape>
0.214

> <Color>
0.059

> <Negative vol penalty>
0.000

$$$$

  -OEChem-04042323413D

 86 95  0     1  0  0  0  0  0999 V2000
  -30.4463  -32.9754   24.9553 C   0  0  0  0  0  0  0  0  0  0  0  0
  -30.9877  -31.7944   25.4530 C   0  0  0  0  0  0  0  0  0  0  0  0
  -22.6401  -10.2650   20.2089 C   0  0  0  0  0  0  0  0  0  0  0  0
  -24.2901   -9.4714   21.7852 C   0  0  0  0  0  0  0  0  0  0  0  0
  -29.3076  -32.9346   24.1518 C   0  0  0  0  0  0  0  0  0  0  0  0
  -30.3900  -30.5720   25.1483 C   0  0  0  0  0  0  0  0  0  0  0  0
  -33.2162  -25.2118   24.2613 C   0  0  0  0  0  0  0  0  0  0  0  0
  -32.7914  -17.2510   23.5869 C   0  0  0  0  0  0  0  0  0  0  0  0
  -32.1539  -16.4397   22.6482 C   0  0  0  0  0  0  0  0  0  0  0  0
  -21.8967   -9.1006   20.4007 C   0  0  0  0  0  0  0  0  0  0  0  0
  -23.5466   -8.3069   21.9771 C   0  0  0  0  0  0  0  0  0  0  0  0
  -33.4309  -24.1154   25.0952 C   0  0  0  0  0  0  0  0  0  0  0  0
  -23.0330   -5.3838   20.3576 C   0  0  0  0  0  0  0  0  0  0  0  0
  -23.7201   -4.1699   20.3640 C   0  0  0  0  0  0  0  0  0  0  0  0
  -31.4839  -23.0355   24.1666 C   0  0  0  0  0  0  0  0  0  0  0  0
  -30.6468  -18.0880   24.3199 C   0  0  0  0  0  0  0  0  0  0  0  0
  -22.9546   -3.7485   22.6165 C   0  0  0  0  0  0  0  0  0  0  0  0
  -23.8369  -10.4504   20.9011 C   0  0  0  0  0  0  0  0  0  0  0  0
  -24.1909  -12.9764   20.9438 C   0  0  0  0  0  0  0  0  0  0  0  0
  -28.7013  -31.7102   23.8292 C   0  0  0  0  0  0  0  0  0  0  0  0
  -32.1256  -25.2331   23.3800 C   0  0  0  0  0  0  0  0  0  0  0  0
  -29.2413  -30.5149   24.3409 C   0  0  0  0  0  0  0  0  0  0  0  0
  -31.2590  -24.1323   23.3208 C   0  0  0  0  0  0  0  0  0  0  0  0
  -30.0094  -17.2768   23.3812 C   0  0  0  0  0  0  0  0  0  0  0  0
  -32.0378  -18.0751   24.4228 C   0  0  0  0  0  0  0  0  0  0  0  0
  -30.7629  -16.4526   22.5454 C   0  0  0  0  0  0  0  0  0  0  0  0
  -22.3499   -8.1215   21.2849 C   0  0  0  0  0  0  0  0  0  0  0  0
  -32.5631  -23.0282   25.0500 C   0  0  0  0  0  0  0  0  0  0  0  0
  -22.3068   -5.7801   21.4807 C   0  0  0  0  0  0  0  0  0  0  0  0
  -23.6809   -3.3523   21.4934 C   0  0  0  0  0  0  0  0  0  0  0  0
  -22.2676   -4.9624   22.6101 C   0  0  0  0  0  0  0  0  0  0  0  0
  -24.6056  -11.6529   20.7029 C   0  0  0  0  0  0  0  0  0  0  0  0
  -25.2767  -13.7443   20.6008 C   0  0  0  0  0  0  0  0  0  0  0  0
  -33.8938  -19.4039   25.2192 C   0  0  0  0  0  0  0  0  0  0  0  0
  -22.9363  -13.4677   21.4340 C   0  0  0  0  0  0  0  0  0  0  0  0
  -29.5570  -27.0733   23.0338 C   0  0  0  0  0  0  0  0  0  0  0  0
  -29.1077  -25.2746   20.3719 C   0  0  0  0  0  0  0  0  0  0  0  0
  -29.3962  -21.7942   19.4660 C   0  0  0  0  0  0  0  0  0  0  0  0
  -30.7521  -14.7523   20.6866 C   0  0  0  0  0  0  0  0  0  0  0  0
  -27.4442  -31.7200   22.9959 C   0  0  0  0  0  0  0  0  0  0  0  0
  -31.9231  -26.4119   22.4680 C   0  0  0  0  0  0  0  0  0  0  0  0
  -30.0850  -24.0971   22.3779 C   0  0  0  0  0  0  0  0  0  0  0  0
  -27.0899  -30.3548   22.4120 C   0  0  0  0  0  0  0  0  0  0  0  0
  -29.5547  -12.5110   18.1926 C   0  0  0  0  0  0  0  0  0  0  0  0
  -27.2015  -29.2719   23.4806 C   0  0  0  0  0  0  0  0  0  0  0  0
  -28.1263  -12.1968   18.6432 C   0  0  0  0  0  0  0  0  0  0  0  0
  -33.2070  -19.6593   27.4758 C   0  0  0  0  0  0  0  0  0  0  0  0
  -30.5056  -12.6531   19.3798 C   0  0  0  0  0  0  0  0  0  0  0  0
  -32.0166  -19.2938   26.6009 C   0  0  0  0  0  0  0  0  0  0  0  0
  -28.6439  -13.2894   20.8625 C   0  0  0  0  0  0  0  0  0  0  0  0
  -28.6361  -29.1674   24.0122 C   0  0  1  0  0  0  0  0  0  0  0  0
  -30.4853  -26.5468   21.9761 C   0  0  1  0  0  0  0  0  0  0  0  0
  -27.6364  -13.2013   19.7045 C   0  0  2  0  0  0  0  0  0  0  0  0
  -34.2598  -20.1601   26.4666 C   0  0  1  0  0  0  0  0  0  0  0  0
  -28.5178  -17.3101   23.2932 C   0  0  0  0  0  0  0  0  0  0  0  0
  -35.6666  -19.8275   26.9693 C   0  0  0  0  0  0  0  0  0  0  0  0
  -29.8550  -20.7189   17.2454 C   0  0  0  0  0  0  0  0  0  0  0  0
  -26.0691  -25.1075   20.1512 C   0  0  0  0  0  0  0  0  0  0  0  0
  -26.3402  -22.8609   19.0799 C   0  0  0  0  0  0  0  0  0  0  0  0
  -27.2865  -24.8887   17.9776 C   0  0  0  0  0  0  0  0  0  0  0  0
  -31.7142  -20.2990   20.5383 C   0  0  0  0  0  0  0  0  0  0  0  0
  -34.1196  -21.6677   26.2258 C   0  0  0  0  0  0  0  0  0  1  0  0
  -28.3912  -23.9822   20.0633 C   0  0  1  0  0  0  0  0  0  0  0  0
  -30.4514  -21.1732   18.5686 C   0  0  2  0  0  0  0  0  0  0  0  0
  -27.0327  -24.2150   19.3438 C   0  0  0  0  0  0  0  0  0  0  0  0
  -25.8573  -11.5805   20.2422 N   0  0  0  0  0  0  0  0  0  0  0  0
  -26.2383  -12.8683   20.1909 N   0  0  0  0  0  0  0  0  0  0  0  0
  -32.6663  -18.8745   25.3475 N   0  0  0  0  0  0  0  0  0  0  0  0
  -29.9256  -25.2762   21.5107 N   0  0  0  0  0  0  0  0  0  0  0  0
  -29.9786  -13.6238   20.3415 N   0  0  0  0  0  0  0  0  0  0  0  0
  -25.4933  -15.0768   20.6128 N   0  0  0  0  0  0  0  0  0  0  0  0
  -22.7722  -13.6182   22.8177 N   0  0  0  0  0  0  0  0  0  0  0  0
  -30.1344  -15.6219   21.5848 N   0  0  0  0  0  0  0  0  0  0  0  0
  -29.4725  -28.4520   23.0725 N   0  0  0  0  0  0  0  0  0  0  0  0
  -29.3339  -23.1627   19.3095 N   0  0  0  0  0  0  0  0  0  0  0  0
  -34.7537  -19.4005   24.2063 N   0  3  0  0  0  0  0  0  0  0  0  0
  -31.0690  -19.9923   19.2357 N   0  3  0  0  0  0  0  0  0  0  0  0
  -21.9831  -13.7490   20.6686 O   0  0  0  0  0  0  0  0  0  0  0  0
  -28.9604  -26.2868   23.7599 O   0  0  0  0  0  0  0  0  0  0  0  0
  -28.9533  -26.2448   19.6259 O   0  0  0  0  0  0  0  0  0  0  0  0
  -28.6946  -21.1311   20.2267 O   0  0  0  0  0  0  0  0  0  0  0  0
  -31.8683  -14.9478   20.1988 O   0  0  0  0  0  0  0  0  0  0  0  0
  -21.6246   -6.9852   21.4725 O   0  0  0  0  0  0  0  0  0  0  0  0
  -32.7700  -21.9570   25.8633 O   0  0  0  0  0  0  0  0  0  1  0  0
  -24.3394   -2.1859   21.4988 F   0  0  0  0  0  0  0  0  0  0  0  0
  -21.5706   -5.3373   23.6916 F   0  0  0  0  0  0  0  0  0  0  0  0
  1  2  1  0  0  0  0
  1  5  2  0  0  0  0
  2  6  2  0  0  0  0
  3 10  2  0  0  0  0
  3 18  1  0  0  0  0
  4 11  1  0  0  0  0
  4 18  2  0  0  0  0
  5 20  1  0  0  0  0
  6 22  1  0  0  0  0
  7 12  2  0  0  0  0
  7 21  1  0  0  0  0
  8  9  2  0  0  0  0
  8 25  1  0  0  0  0
  9 26  1  0  0  0  0
 10 27  1  0  0  0  0
 11 27  2  0  0  0  0
 12 28  1  0  0  0  0
 13 14  2  0  0  0  0
 13 29  1  0  0  0  0
 14 30  1  0  0  0  0
 15 23  1  0  0  0  0
 15 28  2  0  0  0  0
 16 24  1  0  0  0  0
 16 25  2  0  0  0  0
 17 30  2  0  0  0  0
 17 31  1  0  0  0  0
 18 32  1  0  0  0  0
 19 32  1  0  0  0  0
 19 33  2  0  0  0  0
 19 35  1  0  0  0  0
 20 22  2  0  0  0  0
 20 40  1  0  0  0  0
 21 23  2  0  0  0  0
 21 41  1  0  0  0  0
 22 51  1  0  0  0  0
 23 42  1  0  0  0  0
 24 26  2  0  0  0  0
 24 55  1  0  0  0  0
 25 68  1  0  0  0  0
 26 73  1  0  0  0  0
 27 83  1  0  0  0  0
 28 84  1  0  0  0  0
 29 31  2  0  0  0  0
 29 83  1  0  0  0  0
 30 85  1  0  0  0  0
 31 86  1  0  0  0  0
 32 66  2  0  0  0  0
 33 67  1  0  0  0  0
 33 71  1  0  0  0  0
 34 54  1  0  0  0  0
 34 68  1  0  0  0  0
 34 76  2  0  0  0  0
 35 72  1  0  0  0  0
 35 78  2  0  0  0  0
 36 52  1  0  0  0  0
 36 74  1  0  0  0  0
 36 79  2  0  0  0  0
 37 63  1  0  0  0  0
 37 69  1  0  0  0  0
 37 80  2  0  0  0  0
 38 64  1  0  0  0  0
 38 75  1  0  0  0  0
 38 81  2  0  0  0  0
 39 70  1  0  0  0  0
 39 73  1  0  0  0  0
 39 82  2  0  0  0  0
 40 43  1  0  0  0  0
 41 52  1  0  0  0  0
 42 69  1  0  0  0  0
 43 45  1  0  0  0  0
 44 46  1  0  0  0  0
 44 48  1  0  0  0  0
 45 51  1  0  0  0  0
 46 53  1  0  0  0  0
 47 49  1  0  0  0  0
 47 54  1  0  0  0  0
 48 70  1  0  0  0  0
 49 68  1  0  0  0  0
 50 53  1  0  0  0  0
 50 70  1  0  0  0  0
 51 74  1  0  0  0  0
 52 69  1  0  0  0  0
 53 67  1  0  0  0  0
 54 56  1  0  0  0  0
 54 62  1  0  0  0  0
 57 64  1  0  0  0  0
 58 65  1  0  0  0  0
 59 65  1  0  0  0  0
 60 65  1  0  0  0  0
 61 77  1  0  0  0  0
 62 84  1  0  0  0  0
 63 65  1  0  0  0  0
 63 75  1  0  0  0  0
 64 77  1  0  0  0  0
 66 67  1  0  0  0  0
M  CHG  2  76   1  77   1
M  ISO  4  39 100  62 101  73 100  84 101
M  END
> <Batch ID>
0073

> <Smiles>
CNC(C)C(=O)NC(C(=O)N1Cc2cc([101O:1][101CH2:1]C3(C)CCN(c4ccc([100NH:0][100C:0](=O)N5CCCC(n6nc(-c7ccc(Oc8ccc(F)cc8F)cc7)c(C(N)=O)c6N)C5)c(C)c4)C3=N)ccc2CC1C(=O)NC1CCCc2ccccc21)C(C)(C)C

> <Shape>
0.246

> <Color>
0.189

> <Negative vol penalty>
0.000

$$$$

  -OEChem-04042323413D

 87 96  0     1  0  0  0  0  0999 V2000
  -22.3550   -7.9862   20.5481 C   0  0  0  0  0  0  0  0  0  0  0  0
  -21.8118   -9.2457   20.7804 C   0  0  0  0  0  0  0  0  0  0  0  0
  -28.9756  -24.2239   15.9708 C   0  0  0  0  0  0  0  0  0  0  0  0
  -21.5848  -28.3697   20.9447 C   0  0  0  0  0  0  0  0  0  0  0  0
  -22.1372  -28.9866   23.2144 C   0  0  0  0  0  0  0  0  0  0  0  0
  -29.7501  -24.8514   16.9464 C   0  0  0  0  0  0  0  0  0  0  0  0
  -23.6633   -7.7090   20.9424 C   0  0  0  0  0  0  0  0  0  0  0  0
  -22.5763  -10.2285   21.4082 C   0  0  0  0  0  0  0  0  0  0  0  0
  -23.9096  -16.5226   18.1683 C   0  0  0  0  0  0  0  0  0  0  0  0
  -27.6404  -23.9157   16.2318 C   0  0  0  0  0  0  0  0  0  0  0  0
  -20.3977  -27.7894   21.3913 C   0  0  0  0  0  0  0  0  0  0  0  0
  -20.9500  -28.4063   23.6611 C   0  0  0  0  0  0  0  0  0  0  0  0
  -24.0322  -17.8318   17.7024 C   0  0  0  0  0  0  0  0  0  0  0  0
  -19.4396  -24.9112   22.8821 C   0  0  0  0  0  0  0  0  0  0  0  0
  -19.1023  -23.6559   22.3762 C   0  0  0  0  0  0  0  0  0  0  0  0
  -27.8545  -24.8624   18.4443 C   0  0  0  0  0  0  0  0  0  0  0  0
  -25.3921  -18.3983   19.6201 C   0  0  0  0  0  0  0  0  0  0  0  0
  -17.0565  -24.5697   21.4724 C   0  0  0  0  0  0  0  0  0  0  0  0
  -22.4546  -28.9683   21.8563 C   0  0  0  0  0  0  0  0  0  0  0  0
  -29.1896  -25.1706   18.1832 C   0  0  0  0  0  0  0  0  0  0  0  0
  -23.8181  -30.6260   20.4777 C   0  0  0  0  0  0  0  0  0  0  0  0
  -24.4474   -8.6918   21.5667 C   0  0  0  0  0  0  0  0  0  0  0  0
  -24.5413  -16.1418   19.3554 C   0  0  0  0  0  0  0  0  0  0  0  0
  -23.8958   -9.9637   21.8125 C   0  0  0  0  0  0  0  0  0  0  0  0
  -25.2831  -17.0851   20.0853 C   0  0  0  0  0  0  0  0  0  0  0  0
  -27.0799  -24.2349   17.4686 C   0  0  0  0  0  0  0  0  0  0  0  0
  -20.0803  -27.8076   22.7495 C   0  0  0  0  0  0  0  0  0  0  0  0
  -24.7714  -18.7674   18.4266 C   0  0  0  0  0  0  0  0  0  0  0  0
  -18.5852  -25.9958   22.6833 C   0  0  0  0  0  0  0  0  0  0  0  0
  -17.9109  -23.4851   21.6713 C   0  0  0  0  0  0  0  0  0  0  0  0
  -17.3937  -25.8250   21.9785 C   0  0  0  0  0  0  0  0  0  0  0  0
  -23.6813  -29.5675   21.3956 C   0  0  0  0  0  0  0  0  0  0  0  0
  -25.1740  -30.8206   20.3775 C   0  0  0  0  0  0  0  0  0  0  0  0
  -22.9807  -23.2398   18.3637 C   0  0  0  0  0  0  0  0  0  0  0  0
  -23.9720  -22.2429   17.9595 C   0  0  0  0  0  0  0  0  0  0  0  0
  -21.7345  -22.9584   18.7783 C   0  0  0  0  0  0  0  0  0  0  0  0
  -23.9540  -20.9581   18.3536 C   0  0  0  0  0  0  0  0  0  1  0  0
  -30.0143  -25.8391   19.2223 C   0  0  0  0  0  0  0  0  0  0  0  0
  -22.8096  -31.3672   19.7782 C   0  0  0  0  0  0  0  0  0  0  0  0
  -25.2592  -13.3980   21.8114 C   0  0  0  0  0  0  0  0  0  0  0  0
  -27.8550  -14.9987   21.4798 C   0  0  0  0  0  0  0  0  0  0  0  0
  -30.6142  -16.7579   20.5159 C   0  0  0  0  0  0  0  0  0  0  0  0
  -29.8909  -27.3017   21.2146 C   0  0  0  0  0  0  0  0  0  0  0  0
  -25.8406   -8.3307   22.0177 C   0  0  0  0  0  0  0  0  0  0  0  0
  -24.3855  -14.7587   19.9268 C   0  0  0  0  0  0  0  0  0  0  0  0
  -25.9167  -16.6395   21.3749 C   0  0  0  0  0  0  0  0  0  0  0  0
  -23.4490  -24.6709   18.2668 C   0  0  0  0  0  0  0  0  0  0  0  0
  -25.1001  -22.7693   17.0949 C   0  0  0  0  0  0  0  0  0  0  0  0
  -26.7101   -9.5434   22.3395 C   0  0  0  0  0  0  0  0  0  0  0  0
  -29.2238  -30.3387   22.8964 C   0  0  0  0  0  0  0  0  0  0  0  0
  -25.9408  -10.5378   23.2032 C   0  0  0  0  0  0  0  0  0  0  0  0
  -27.7420  -30.5936   22.6075 C   0  0  0  0  0  0  0  0  0  0  0  0
  -24.9407  -24.8117   18.5815 C   0  0  0  0  0  0  0  0  0  0  0  0
  -29.5129  -28.8537   23.1105 C   0  0  0  0  0  0  0  0  0  0  0  0
  -27.5551  -28.2207   21.7598 C   0  0  0  0  0  0  0  0  0  0  0  0
  -24.7019  -11.0638   22.4685 C   0  0  1  0  0  0  0  0  0  0  0  0
  -25.6509  -14.2562   20.6446 C   0  0  1  0  0  0  0  0  0  0  0  0
  -27.2250  -29.6933   21.4674 C   0  0  1  0  0  0  0  0  0  0  0  0
  -33.0774  -16.9538   20.9535 C   0  0  0  0  0  0  0  0  0  0  0  0
  -27.2706  -16.4482   24.0992 C   0  0  0  0  0  0  0  0  0  0  0  0
  -29.5762  -17.4185   23.9944 C   0  0  0  0  0  0  0  0  0  0  0  0
  -29.2708  -14.9483   24.1602 C   0  0  0  0  0  0  0  0  0  0  0  0
  -31.2838  -16.0769   17.7147 C   0  0  0  0  0  0  0  0  0  0  0  0
  -28.7223  -16.1219   21.9892 C   0  0  1  0  0  0  0  0  0  0  0  0
  -32.0013  -16.3060   20.0962 C   0  0  2  0  0  0  0  0  0  0  0  0
  -28.6916  -16.2381   23.5393 C   0  0  0  0  0  0  0  0  0  0  0  0
  -24.8566  -29.1208   21.8463 N   0  0  0  0  0  0  0  0  0  0  0  0
  -25.7448  -29.9023   21.2088 N   0  0  0  0  0  0  0  0  0  0  0  0
  -25.7444  -23.9265   17.7295 N   0  0  3  0  0  0  0  0  0  0  0  0
  -26.5170  -15.3070   21.2056 N   0  0  0  0  0  0  0  0  0  0  0  0
  -29.0010  -28.0717   21.9837 N   0  0  0  0  0  0  0  0  0  0  0  0
  -25.9219  -31.6858   19.6601 N   0  0  0  0  0  0  0  0  0  0  0  0
  -22.2920  -32.5227   20.3793 N   0  0  0  0  0  0  0  0  0  0  0  0
  -29.3112  -26.6255   20.1353 N   0  0  0  0  0  0  0  0  0  0  0  0
  -25.0792  -12.0652   21.4941 N   0  0  0  0  0  0  0  0  0  0  0  0
  -30.0519  -15.8954   21.4331 N   0  0  0  0  0  0  0  0  0  0  0  0
  -32.2547  -16.6661   18.6724 N   0  3  0  0  0  0  0  0  0  0  0  0
  -31.2255  -25.6383   19.2452 O   0  0  0  0  0  0  0  0  0  0  0  0
  -22.3684  -31.0062   18.6608 O   0  0  0  0  0  0  0  0  0  0  0  0
  -25.1308  -13.9062   22.9191 O   0  0  0  0  0  0  0  0  0  0  0  0
  -28.3464  -13.8760   21.3334 O   0  0  0  0  0  0  0  0  0  0  0  0
  -30.0842  -17.7762   20.0771 O   0  0  0  0  0  0  0  0  0  0  0  0
  -31.1031  -27.2509   21.4453 O   0  0  0  0  0  0  0  0  0  0  0  0
  -18.9218  -27.2416   23.1856 O   0  0  0  0  0  0  0  0  0  0  0  0
  -24.8908  -20.0426   17.9637 O   0  0  0  0  0  0  0  0  0  1  0  0
  -17.5879  -22.2799   21.1841 F   0  0  0  0  0  0  0  0  0  0  0  0
  -16.5695  -26.8635   21.7833 F   0  0  0  0  0  0  0  0  0  0  0  0
  1  2  1  0  0  0  0
  1  7  2  0  0  0  0
  2  8  2  0  0  0  0
  3  6  1  0  0  0  0
  3 10  2  0  0  0  0
  4 11  2  0  0  0  0
  4 19  1  0  0  0  0
  5 12  1  0  0  0  0
  5 19  2  0  0  0  0
  6 20  2  0  0  0  0
  7 22  1  0  0  0  0
  8 24  1  0  0  0  0
  9 13  2  0  0  0  0
  9 23  1  0  0  0  0
 10 26  1  0  0  0  0
 11 27  1  0  0  0  0
 12 27  2  0  0  0  0
 13 28  1  0  0  0  0
 14 15  2  0  0  0  0
 14 29  1  0  0  0  0
 15 30  1  0  0  0  0
 16 20  1  0  0  0  0
 16 26  2  0  0  0  0
 17 25  1  0  0  0  0
 17 28  2  0  0  0  0
 18 30  2  0  0  0  0
 18 31  1  0  0  0  0
 19 32  1  0  0  0  0
 20 38  1  0  0  0  0
 21 32  1  0  0  0  0
 21 33  2  0  0  0  0
 21 39  1  0  0  0  0
 22 24  2  0  0  0  0
 22 44  1  0  0  0  0
 23 25  2  0  0  0  0
 23 45  1  0  0  0  0
 24 56  1  0  0  0  0
 25 46  1  0  0  0  0
 26 69  1  0  0  0  0
 27 84  1  0  0  0  0
 28 85  1  0  0  0  0
 29 31  2  0  0  0  0
 29 84  1  0  0  0  0
 30 86  1  0  0  0  0
 31 87  1  0  0  0  0
 32 67  2  0  0  0  0
 33 68  1  0  0  0  0
 33 72  1  0  0  0  0
 34 35  1  0  0  0  0
 34 36  2  0  0  0  0
 34 47  1  0  0  0  0
 35 37  2  0  0  0  0
 35 48  1  0  0  0  0
 37 85  1  0  0  0  0
 38 74  1  0  0  0  0
 38 78  2  0  0  0  0
 39 73  1  0  0  0  0
 39 79  2  0  0  0  0
 40 57  1  0  0  0  0
 40 75  1  0  0  0  0
 40 80  2  0  0  0  0
 41 64  1  0  0  0  0
 41 70  1  0  0  0  0
 41 81  2  0  0  0  0
 42 65  1  0  0  0  0
 42 76  1  0  0  0  0
 42 82  2  0  0  0  0
 43 71  1  0  0  0  0
 43 74  1  0  0  0  0
 43 83  2  0  0  0  0
 44 49  1  0  0  0  0
 45 57  1  0  0  0  0
 46 70  1  0  0  0  0
 47 53  1  0  0  0  0
 48 69  1  0  0  0  0
 49 51  1  0  0  0  0
 50 52  1  0  0  0  0
 50 54  1  0  0  0  0
 51 56  1  0  0  0  0
 52 58  1  0  0  0  0
 53 69  1  0  0  0  0
 54 71  1  0  0  0  0
 55 58  1  0  0  0  0
 55 71  1  0  0  0  0
 56 75  1  0  0  0  0
 57 70  1  0  0  0  0
 58 68  1  0  0  0  0
 59 65  1  0  0  0  0
 60 66  1  0  0  0  0
 61 66  1  0  0  0  0
 62 66  1  0  0  0  0
 63 77  1  0  0  0  0
 64 66  1  0  0  0  0
 64 76  1  0  0  0  0
 65 77  1  0  0  0  0
 67 68  1  0  0  0  0
M  CHG  1  77   1
M  ISO  4  37 101  43 100  74 100  85 101
M  END
> <Batch ID>
0073

> <Smiles>
C=C1CCN(c2cccc(C(=O)[100NH:0][100C:0](=O)N3CCCC(n4nc(-c5ccc(Oc6ccc(F)cc6F)cc5)c(C(N)=O)c4N)C3)c2)CC1=[101CH:1][101O:1]c1ccc2c(c1)CN(C(=O)C(NC(=O)C(C)NC)C(C)(C)C)C(C(=O)NC1CCCc3ccccc31)C2

> <Shape>
0.249

> <Color>
0.068

> <Negative vol penalty>
0.000

$$$$

  -OEChem-04042323413D

 88 96  0     1  0  0  0  0  0999 V2000
  -24.7182  -28.6595   14.9181 C   0  0  0  0  0  0  0  0  0  0  0  0
  -24.8896  -27.5104   15.6835 C   0  0  0  0  0  0  0  0  0  0  0  0
  -23.6030   -9.8240   21.3734 C   0  0  0  0  0  0  0  0  0  0  0  0
  -24.2499  -10.7601   23.5046 C   0  0  0  0  0  0  0  0  0  0  0  0
  -25.0540  -29.9048   15.4474 C   0  0  0  0  0  0  0  0  0  0  0  0
  -25.3981  -27.6061   16.9784 C   0  0  0  0  0  0  0  0  0  0  0  0
  -23.8922  -24.1305   21.7907 C   0  0  0  0  0  0  0  0  0  0  0  0
  -31.6341  -18.9958   22.4772 C   0  0  0  0  0  0  0  0  0  0  0  0
  -23.0149   -8.7414   22.0273 C   0  0  0  0  0  0  0  0  0  0  0  0
  -23.6618   -9.6774   24.1586 C   0  0  0  0  0  0  0  0  0  0  0  0
  -24.5017  -23.0201   22.3732 C   0  0  0  0  0  0  0  0  0  0  0  0
  -20.1422   -8.0970   23.6902 C   0  0  0  0  0  0  0  0  0  0  0  0
  -32.7722  -18.3237   22.0316 C   0  0  0  0  0  0  0  0  0  0  0  0
  -18.8775   -7.6913   23.2640 C   0  0  0  0  0  0  0  0  0  0  0  0
  -25.5772  -24.4614   23.9811 C   0  0  0  0  0  0  0  0  0  0  0  0
  -30.6946  -16.9027   23.2345 C   0  0  0  0  0  0  0  0  0  0  0  0
  -19.7595   -5.5074   22.7258 C   0  0  0  0  0  0  0  0  0  0  0  0
  -24.2205  -10.8333   22.1120 C   0  0  0  0  0  0  0  0  0  0  0  0
  -24.2155  -13.1699   21.0883 C   0  0  0  0  0  0  0  0  0  0  0  0
  -25.5578  -30.0167   16.7529 C   0  0  0  0  0  0  0  0  0  0  0  0
  -24.1296  -25.4180   22.2932 C   0  0  0  0  0  0  0  0  0  0  0  0
  -25.7423  -28.8540   17.5252 C   0  0  0  0  0  0  0  0  0  0  0  0
  -24.9674  -25.5862   23.4048 C   0  0  0  0  0  0  0  0  0  0  0  0
  -31.8327  -16.2306   22.7888 C   0  0  0  0  0  0  0  0  0  0  0  0
  -30.5953  -18.2853   23.0788 C   0  0  0  0  0  0  0  0  0  0  0  0
  -23.0443   -8.6681   23.4199 C   0  0  0  0  0  0  0  0  0  0  0  0
  -25.3466  -23.1857   23.4667 C   0  0  0  0  0  0  0  0  0  0  0  0
  -21.2156   -7.2079   23.6342 C   0  0  0  0  0  0  0  0  0  0  0  0
  -18.6862   -6.3965   22.7818 C   0  0  0  0  0  0  0  0  0  0  0  0
  -32.8715  -16.9412   22.1873 C   0  0  0  0  0  0  0  0  0  0  0  0
  -21.0242   -5.9131   23.1520 C   0  0  0  0  0  0  0  0  0  0  0  0
  -24.8287  -11.9517   21.4370 C   0  0  0  0  0  0  0  0  0  0  0  0
  -25.2090  -13.8902   20.4714 C   0  0  0  0  0  0  0  0  0  0  0  0
  -27.1651  -21.7178   23.5612 C   0  0  0  0  0  0  0  0  0  1  0  0
  -22.8683  -13.6111   21.3030 C   0  0  0  0  0  0  0  0  0  0  0  0
  -27.8414  -20.6698   24.0470 C   0  0  0  0  0  0  0  0  0  0  0  0
  -29.1768  -20.3288   23.4565 C   0  0  0  0  0  0  0  0  0  0  0  0
  -25.4107  -28.0815   21.1233 C   0  0  0  0  0  0  0  0  0  0  0  0
  -24.4259  -29.3331   23.9492 C   0  0  0  0  0  0  0  0  0  0  0  0
  -23.5760  -28.8059   27.2121 C   0  0  0  0  0  0  0  0  0  0  0  0
  -31.1839  -13.7278   20.8263 C   0  0  0  0  0  0  0  0  0  0  0  0
  -25.9512  -31.3797   17.2649 C   0  0  0  0  0  0  0  0  0  0  0  0
  -23.4434  -26.6028   21.6703 C   0  0  0  0  0  0  0  0  0  0  0  0
  -25.2390  -26.9452   23.9948 C   0  0  0  0  0  0  0  0  0  0  0  0
  -26.1320  -31.4325   18.7798 C   0  0  0  0  0  0  0  0  0  0  0  0
  -29.2014  -13.3186   17.8973 C   0  0  0  0  0  0  0  0  0  0  0  0
  -26.9648  -30.2479   19.2595 C   0  0  0  0  0  0  0  0  0  0  0  0
  -27.8006  -13.0318   18.4409 C   0  0  0  0  0  0  0  0  0  0  0  0
  -30.2849  -12.6849   18.7670 C   0  0  0  0  0  0  0  0  0  0  0  0
  -28.8119  -12.7465   20.7419 C   0  0  0  0  0  0  0  0  0  0  0  0
  -26.2678  -28.9193   18.9428 C   0  0  1  0  0  0  0  0  0  0  0  0
  -24.1617  -27.9208   21.9430 C   0  0  1  0  0  0  0  0  0  0  0  0
  -27.6880  -13.4123   19.9295 C   0  0  2  0  0  0  0  0  0  0  0  0
  -22.8518  -30.0273   29.2812 C   0  0  0  0  0  0  0  0  0  0  0  0
  -31.9411  -12.7263   24.5436 C   0  0  0  0  0  0  0  0  0  0  0  0
  -32.9751  -14.8684   25.2930 C   0  0  0  0  0  0  0  0  0  0  0  0
  -27.2848  -30.3135   24.3682 C   0  0  0  0  0  0  0  0  0  0  0  0
  -26.7374  -30.6601   26.7866 C   0  0  0  0  0  0  0  0  0  0  0  0
  -25.5131  -31.9477   25.0355 C   0  0  0  0  0  0  0  0  0  0  0  0
  -21.0175  -27.3231   27.3321 C   0  0  0  0  0  0  0  0  0  0  0  0
  -31.9373  -14.7523   22.9575 C   0  0  1  0  0  0  0  0  0  0  0  0
  -25.0346  -29.4818   25.3227 C   0  0  1  0  0  0  0  0  0  0  0  0
  -22.3939  -29.2852   28.0352 C   0  0  2  0  0  0  0  0  0  0  0  0
  -31.8576  -14.2558   24.4384 C   0  0  0  0  0  0  0  0  0  0  0  0
  -26.1391  -30.5753   25.3661 C   0  0  0  0  0  0  0  0  0  0  0  0
  -26.1123  -11.8974   21.0718 N   0  0  0  0  0  0  0  0  0  0  0  0
  -26.3138  -13.0905   20.4871 N   0  0  0  0  0  0  0  0  0  0  0  0
  -24.5497  -28.0731   23.3467 N   0  0  0  0  0  0  0  0  0  0  0  0
  -30.1224  -13.0869   20.1663 N   0  0  0  0  0  0  0  0  0  0  0  0
  -25.2367  -15.1231   19.9223 N   0  0  0  0  0  0  0  0  0  0  0  0
  -21.9774  -12.7459   21.9526 N   0  0  0  0  0  0  0  0  0  0  0  0
  -29.4407  -18.9680   23.5318 N   0  0  0  0  0  0  0  0  0  0  0  0
  -25.2026  -28.6690   19.8900 N   0  0  0  0  0  0  0  0  0  0  0  0
  -23.9235  -29.7180   26.2382 N   0  0  0  0  0  0  0  0  0  0  0  0
  -30.9444  -14.0810   22.1487 N   0  0  0  0  0  0  0  0  0  0  0  0
  -21.5547  -28.1288   28.4587 N   0  3  0  0  0  0  0  0  0  0  0  0
  -22.4620  -14.7328   20.9152 O   0  0  0  0  0  0  0  0  0  0  0  0
  -29.8967  -21.2004   22.9813 O   0  0  0  0  0  0  0  0  0  0  0  0
  -26.4840  -27.7020   21.5768 O   0  0  0  0  0  0  0  0  0  0  0  0
  -23.8551  -30.2972   23.4331 O   0  0  0  0  0  0  0  0  0  0  0  0
  -24.1374  -27.7317   27.4154 O   0  0  0  0  0  0  0  0  0  0  0  0
  -32.2630  -13.9724   20.2761 O   0  0  0  0  0  0  0  0  0  0  0  0
  -27.3582  -19.8869   25.0756 O   0  0  0  0  0  0  0  0  0  0  0  0
  -22.4703   -7.6119   24.0584 O   0  0  0  0  0  0  0  0  0  0  0  0
  -25.9434  -22.1037   24.0367 O   0  0  0  0  0  0  0  0  0  1  0  0
  -17.4714   -6.0066   22.3740 F   0  0  0  0  0  0  0  0  0  0  0  0
  -33.9685  -16.3041   21.7547 F   0  0  0  0  0  0  0  0  0  0  0  0
  -22.0513   -5.0541   23.0969 F   0  0  0  0  0  0  0  0  0  0  0  0
  1  2  1  0  0  0  0
  1  5  2  0  0  0  0
  2  6  2  0  0  0  0
  3  9  2  0  0  0  0
  3 18  1  0  0  0  0
  4 10  1  0  0  0  0
  4 18  2  0  0  0  0
  5 20  1  0  0  0  0
  6 22  1  0  0  0  0
  7 11  2  0  0  0  0
  7 21  1  0  0  0  0
  8 13  2  0  0  0  0
  8 25  1  0  0  0  0
  9 26  1  0  0  0  0
 10 26  2  0  0  0  0
 11 27  1  0  0  0  0
 12 14  2  0  0  0  0
 12 28  1  0  0  0  0
 13 30  1  0  0  0  0
 14 29  1  0  0  0  0
 15 23  1  0  0  0  0
 15 27  2  0  0  0  0
 16 24  1  0  0  0  0
 16 25  2  0  0  0  0
 17 29  2  0  0  0  0
 17 31  1  0  0  0  0
 18 32  1  0  0  0  0
 19 32  1  0  0  0  0
 19 33  2  0  0  0  0
 19 35  1  0  0  0  0
 20 22  2  0  0  0  0
 20 42  1  0  0  0  0
 21 23  2  0  0  0  0
 21 43  1  0  0  0  0
 22 51  1  0  0  0  0
 23 44  1  0  0  0  0
 24 30  2  0  0  0  0
 24 61  1  0  0  0  0
 25 72  1  0  0  0  0
 26 84  1  0  0  0  0
 27 85  1  0  0  0  0
 28 31  2  0  0  0  0
 28 84  1  0  0  0  0
 29 86  1  0  0  0  0
 30 87  1  0  0  0  0
 31 88  1  0  0  0  0
 32 66  2  0  0  0  0
 33 67  1  0  0  0  0
 33 70  1  0  0  0  0
 34 36  2  0  0  0  0
 34 85  1  0  0  0  0
 35 71  1  0  0  0  0
 35 77  2  0  0  0  0
 36 37  1  0  0  0  0
 36 83  1  0  0  0  0
 37 72  1  0  0  0  0
 37 78  2  0  0  0  0
 38 52  1  0  0  0  0
 38 73  1  0  0  0  0
 38 79  2  0  0  0  0
 39 62  1  0  0  0  0
 39 68  1  0  0  0  0
 39 80  2  0  0  0  0
 40 63  1  0  0  0  0
 40 74  1  0  0  0  0
 40 81  2  0  0  0  0
 41 69  1  0  0  0  0
 41 75  1  0  0  0  0
 41 82  2  0  0  0  0
 42 45  1  0  0  0  0
 43 52  1  0  0  0  0
 44 68  1  0  0  0  0
 45 47  1  0  0  0  0
 46 48  1  0  0  0  0
 46 49  1  0  0  0  0
 47 51  1  0  0  0  0
 48 53  1  0  0  0  0
 49 69  1  0  0  0  0
 50 53  1  0  0  0  0
 50 69  1  0  0  0  0
 51 73  1  0  0  0  0
 52 68  1  0  0  0  0
 53 67  1  0  0  0  0
 54 63  1  0  0  0  0
 55 64  1  0  0  0  0
 56 64  1  0  0  0  0
 57 65  1  0  0  0  0
 58 65  1  0  0  0  0
 59 65  1  0  0  0  0
 60 76  1  0  0  0  0
 61 64  1  0  0  0  0
 61 75  1  0  0  0  0
 62 65  1  0  0  0  0
 62 74  1  0  0  0  0
 63 76  1  0  0  0  0
 66 67  1  0  0  0  0
M  CHG  1  76   1
M  ISO  4  34 101  41 100  75 100  85 101
M  END
> <Batch ID>
0073

> <Smiles>
CNC(C)C(=O)NC(C(=O)N1Cc2cc([101O:1][101CH2:1]C(=O)C(=O)Nc3ccc(F)c(C([100NH:0][100C:0](=O)N4CCCC(n5nc(-c6ccc(Oc7ccc(F)cc7F)cc6)c(C(N)=O)c5N)C4)C(C)C)c3)ccc2CC1C(=O)NC1CCCc2ccccc21)C(C)(C)C

> <Shape>
0.207

> <Color>
0.143

> <Negative vol penalty>
0.000

$$$$

  -OEChem-04042323413D

 90 99  0     1  0  0  0  0  0999 V2000
  -27.4571  -23.8324   17.2730 C   0  0  0  0  0  0  0  0  0  0  0  0
  -26.2877  -24.1934   17.9345 C   0  0  0  0  0  0  0  0  0  0  0  0
  -28.6537  -11.9203   20.9197 C   0  0  0  0  0  0  0  0  0  0  0  0
  -26.9566  -12.6608   19.3678 C   0  0  0  0  0  0  0  0  0  0  0  0
  -28.6923  -24.2556   17.7620 C   0  0  0  0  0  0  0  0  0  0  0  0
  -26.3529  -24.9770   19.0861 C   0  0  0  0  0  0  0  0  0  0  0  0
  -22.9292  -28.7084   19.0934 C   0  0  0  0  0  0  0  0  0  0  0  0
  -23.9584  -22.5235   20.4521 C   0  0  0  0  0  0  0  0  0  0  0  0
  -25.1544  -21.8626   20.7321 C   0  0  0  0  0  0  0  0  0  0  0  0
  -27.9218  -10.7588   21.1660 C   0  0  0  0  0  0  0  0  0  0  0  0
  -26.2247  -11.4992   19.6139 C   0  0  0  0  0  0  0  0  0  0  0  0
  -21.6151  -28.3662   19.4094 C   0  0  0  0  0  0  0  0  0  0  0  0
  -23.7341   -8.8978   20.1036 C   0  0  0  0  0  0  0  0  0  0  0  0
  -22.3602   -9.0279   20.3064 C   0  0  0  0  0  0  0  0  0  0  0  0
  -21.9525  -29.1713   21.6582 C   0  0  0  0  0  0  0  0  0  0  0  0
  -24.8618  -20.4977   18.7602 C   0  0  0  0  0  0  0  0  0  0  0  0
  -22.7766  -10.4511   22.2138 C   0  0  0  0  0  0  0  0  0  0  0  0
  -28.1711  -12.8714   20.0207 C   0  0  0  0  0  0  0  0  0  0  0  0
  -29.9120  -14.2629   18.7795 C   0  0  0  0  0  0  0  0  0  0  0  0
  -28.7720  -25.0528   18.9147 C   0  0  0  0  0  0  0  0  0  0  0  0
  -23.7696  -29.2756   20.0622 C   0  0  0  0  0  0  0  0  0  0  0  0
  -27.5904  -25.4101   19.5917 C   0  0  0  0  0  0  0  0  0  0  0  0
  -23.2760  -29.5222   21.3513 C   0  0  0  0  0  0  0  0  0  0  0  0
  -23.6658  -21.1586   18.4802 C   0  0  0  0  0  0  0  0  0  0  0  0
  -23.2141  -22.1715   19.3262 C   0  0  0  0  0  0  0  0  0  0  0  0
  -25.6061  -20.8498   19.8861 C   0  0  0  0  0  0  0  0  0  0  0  0
  -26.7073  -10.5481   20.5130 C   0  0  0  0  0  0  0  0  0  0  0  0
  -21.1274  -28.5949   20.6927 C   0  0  0  0  0  0  0  0  0  0  0  0
  -24.6293   -9.5442   20.9560 C   0  0  0  0  0  0  0  0  0  0  0  0
  -21.8815   -9.8046   21.3615 C   0  0  0  0  0  0  0  0  0  0  0  0
  -24.1505  -10.3209   22.0111 C   0  0  0  0  0  0  0  0  0  0  0  0
  -28.9264  -14.0718   19.7664 C   0  0  0  0  0  0  0  0  0  0  0  0
  -30.3216  -15.5627   18.9505 C   0  0  0  0  0  0  0  0  0  0  0  0
  -20.7533  -22.4065   18.9552 C   0  0  0  0  0  0  0  0  0  0  0  0
  -30.4125  -13.3474   17.7961 C   0  0  0  0  0  0  0  0  0  0  0  0
  -26.5004  -28.4161   21.4434 C   0  0  0  0  0  0  0  0  0  0  0  0
  -19.3082  -24.3217   19.7390 C   0  0  0  0  0  0  0  0  0  0  0  0
  -26.3102  -31.3723   22.7653 C   0  0  0  0  0  0  0  0  0  0  0  0
  -24.3529  -34.0053   23.7049 C   0  0  0  0  0  0  0  0  0  0  0  0
  -27.6804  -20.4066   21.2454 C   0  0  0  0  0  0  0  0  0  0  0  0
  -30.1328  -25.4466   19.4322 C   0  0  0  0  0  0  0  0  0  0  0  0
  -25.1764  -29.6637   19.6980 C   0  0  0  0  0  0  0  0  0  0  0  0
  -24.1314  -30.1474   22.4217 C   0  0  0  0  0  0  0  0  0  0  0  0
  -30.0923  -26.5871   20.4461 C   0  0  0  0  0  0  0  0  0  0  0  0
  -30.7449  -18.9436   22.3157 C   0  0  0  0  0  0  0  0  0  0  0  0
  -29.0036  -26.3390   21.4854 C   0  0  0  0  0  0  0  0  0  0  0  0
  -30.7188  -17.5479   21.6886 C   0  0  0  0  0  0  0  0  0  0  0  0
  -29.3557  -19.3868   22.7713 C   0  0  0  0  0  0  0  0  0  0  0  0
  -28.2840  -17.9097   21.1163 C   0  0  0  0  0  0  0  0  0  0  0  0
  -21.7736  -24.2390   18.7800 C   0  0  0  0  0  0  0  0  0  0  0  0
  -27.6185  -26.2797   20.8299 C   0  0  1  0  0  0  0  0  0  0  0  0
  -26.1012  -29.7618   20.9073 C   0  0  1  0  0  0  0  0  0  0  0  0
  -29.6496  -17.4466   20.5831 C   0  0  2  0  0  0  0  0  0  0  0  0
  -20.2405  -23.8645   18.6665 C   0  0  1  0  0  0  0  0  0  0  0  0
  -22.8884  -20.7608   17.2676 C   0  0  0  0  0  0  0  0  0  0  0  0
  -19.7041  -24.0218   17.2288 C   0  0  0  0  0  0  0  0  0  0  0  0
  -24.4778  -36.2628   24.7938 C   0  0  0  0  0  0  0  0  0  0  0  0
  -18.8755  -27.9516   23.1899 C   0  0  0  0  0  0  0  0  0  0  0  0
  -26.6298  -30.0375   25.4904 C   0  0  0  0  0  0  0  0  0  0  0  0
  -25.8073  -32.1536   26.5457 C   0  0  0  0  0  0  0  0  0  0  0  0
  -27.9161  -32.1642   25.2132 C   0  0  0  0  0  0  0  0  0  0  0  0
  -23.3012  -35.3564   21.2909 C   0  0  0  0  0  0  0  0  0  0  0  0
  -18.9792  -26.0685   21.4777 C   0  0  0  0  0  0  0  0  0  0  0  0
  -25.6976  -31.9446   24.0207 C   0  0  1  0  0  0  0  0  0  0  0  0
  -24.4979  -35.4994   23.4787 C   0  0  2  0  0  0  0  0  0  0  0  0
  -19.6577  -27.3103   22.0513 C   0  0  1  0  0  0  0  0  0  1  0  0
  -26.4969  -31.5614   25.2981 C   0  0  0  0  0  0  0  0  0  0  0  0
  -28.7223  -15.1628   20.5094 N   0  0  0  0  0  0  0  0  0  0  0  0
  -29.5853  -16.0519   19.9892 N   0  0  0  0  0  0  0  0  0  0  0  0
  -22.0373  -22.8349   19.0672 N   0  0  0  0  0  0  0  0  0  0  0  0
  -25.5019  -30.5035   22.0185 N   0  0  0  0  0  0  0  0  0  0  0  0
  -28.3965  -19.2678   21.6710 N   0  0  0  0  0  0  0  0  0  0  0  0
  -31.2361  -16.3235   18.3123 N   0  0  0  0  0  0  0  0  0  0  0  0
  -29.8818  -12.0508   17.7590 N   0  0  0  0  0  0  0  0  0  0  0  0
  -26.8216  -20.1792   20.1705 N   0  0  0  0  0  0  0  0  0  0  0  0
  -27.1470  -27.6131   20.5233 N   0  0  0  0  0  0  0  0  0  0  0  0
  -19.7274  -25.4585   20.4107 N   0  0  0  0  0  0  0  0  0  0  0  0
  -25.5791  -33.3816   23.7987 N   0  0  0  0  0  0  0  0  0  0  0  0
  -23.3855  -36.0044   22.6251 N   0  3  0  0  0  0  0  0  0  0  0  0
  -20.2381  -21.3169   19.0656 O   0  0  0  0  0  0  0  0  0  0  0  0
  -31.3156  -13.6646   16.9854 O   0  0  0  0  0  0  0  0  0  0  0  0
  -26.2423  -28.1282   22.6062 O   0  0  0  0  0  0  0  0  0  0  0  0
  -18.2764  -23.6952   19.9501 O   0  0  0  0  0  0  0  0  0  0  0  0
  -27.4610  -31.6901   22.4548 O   0  0  0  0  0  0  0  0  0  0  0  0
  -23.2612  -33.4479   23.7937 O   0  0  0  0  0  0  0  0  0  0  0  0
  -27.8390  -21.5088   21.7764 O   0  0  0  0  0  0  0  0  0  0  0  0
  -25.9929   -9.4147   20.7528 O   0  0  0  0  0  0  0  0  0  0  0  0
  -19.8454  -28.2613   21.0040 O   0  0  0  0  0  0  0  0  0  1  0  0
  -20.5621   -9.9307   21.5552 F   0  0  0  0  0  0  0  0  0  0  0  0
  -25.0056  -10.9453   22.8325 F   0  0  0  0  0  0  0  0  0  0  0  0
  1  2  1  0  0  0  0
  1  5  2  0  0  0  0
  2  6  2  0  0  0  0
  3 10  2  0  0  0  0
  3 18  1  0  0  0  0
  4 11  1  0  0  0  0
  4 18  2  0  0  0  0
  5 20  1  0  0  0  0
  6 22  1  0  0  0  0
  7 12  2  0  0  0  0
  7 21  1  0  0  0  0
  8  9  2  0  0  0  0
  8 25  1  0  0  0  0
  9 26  1  0  0  0  0
 10 27  1  0  0  0  0
 11 27  2  0  0  0  0
 12 28  1  0  0  0  0
 13 14  2  0  0  0  0
 13 29  1  0  0  0  0
 14 30  1  0  0  0  0
 15 23  1  0  0  0  0
 15 28  2  0  0  0  0
 16 24  1  0  0  0  0
 16 26  2  0  0  0  0
 17 30  2  0  0  0  0
 17 31  1  0  0  0  0
 18 32  1  0  0  0  0
 19 32  1  0  0  0  0
 19 33  2  0  0  0  0
 19 35  1  0  0  0  0
 20 22  2  0  0  0  0
 20 41  1  0  0  0  0
 21 23  2  0  0  0  0
 21 42  1  0  0  0  0
 22 51  1  0  0  0  0
 23 43  1  0  0  0  0
 24 25  2  0  0  0  0
 24 55  1  0  0  0  0
 25 70  1  0  0  0  0
 26 75  1  0  0  0  0
 27 87  1  0  0  0  0
 28 88  1  0  0  0  0
 29 31  2  0  0  0  0
 29 87  1  0  0  0  0
 30 89  1  0  0  0  0
 31 90  1  0  0  0  0
 32 68  2  0  0  0  0
 33 69  1  0  0  0  0
 33 73  1  0  0  0  0
 34 54  1  0  0  0  0
 34 70  1  0  0  0  0
 34 80  2  0  0  0  0
 35 74  1  0  0  0  0
 35 81  2  0  0  0  0
 36 52  1  0  0  0  0
 36 76  1  0  0  0  0
 36 82  2  0  0  0  0
 37 54  1  0  0  0  0
 37 77  1  0  0  0  0
 37 83  2  0  0  0  0
 38 64  1  0  0  0  0
 38 71  1  0  0  0  0
 38 84  2  0  0  0  0
 39 65  1  0  0  0  0
 39 78  1  0  0  0  0
 39 85  2  0  0  0  0
 40 72  1  0  0  0  0
 40 75  1  0  0  0  0
 40 86  2  0  0  0  0
 41 44  1  0  0  0  0
 42 52  1  0  0  0  0
 43 71  1  0  0  0  0
 44 46  1  0  0  0  0
 45 47  1  0  0  0  0
 45 48  1  0  0  0  0
 46 51  1  0  0  0  0
 47 53  1  0  0  0  0
 48 72  1  0  0  0  0
 49 53  1  0  0  0  0
 49 72  1  0  0  0  0
 50 54  1  0  0  0  0
 50 70  1  0  0  0  0
 51 76  1  0  0  0  0
 52 71  1  0  0  0  0
 53 69  1  0  0  0  0
 54 56  1  0  0  0  0
 57 65  1  0  0  0  0
 58 66  1  0  0  0  0
 59 67  1  0  0  0  0
 60 67  1  0  0  0  0
 61 67  1  0  0  0  0
 62 79  1  0  0  0  0
 63 66  1  0  0  0  0
 63 77  1  0  0  0  0
 64 67  1  0  0  0  0
 64 78  1  0  0  0  0
 65 79  1  0  0  0  0
 66 88  1  0  0  0  0
 68 69  1  0  0  0  0
M  CHG  1  79   1
M  ISO  4  40 100  66 101  75 100  88 101
M  END
> <Batch ID>
0073

> <Smiles>
CNC(C)C(=O)NC(C(=O)N1Cc2cc([101O:1][101CH:1](C)CNC(=O)C3(C)CN(c4ccc([100NH:0][100C:0](=O)N5CCCC(n6nc(-c7ccc(Oc8ccc(F)cc8F)cc7)c(C(N)=O)c6N)C5)cc4C)C3=O)ccc2CC1C(=O)NC1CCCc2ccccc21)C(C)(C)C

> <Shape>
0.322

> <Color>
0.064

> <Negative vol penalty>
0.000

$$$$

  -OEChem-04042323413D

 86 95  0     1  0  0  0  0  0999 V2000
  -41.3669  -29.0285   16.6699 C   0  0  0  0  0  0  0  0  0  0  0  0
  -41.3493  -27.7651   17.2520 C   0  0  0  0  0  0  0  0  0  0  0  0
  -23.0772   -9.8645   19.9446 C   0  0  0  0  0  0  0  0  0  0  0  0
  -23.8346   -9.8783   22.2388 C   0  0  0  0  0  0  0  0  0  0  0  0
  -40.5702  -30.0465   17.1923 C   0  0  0  0  0  0  0  0  0  0  0  0
  -40.5358  -27.5192   18.3576 C   0  0  0  0  0  0  0  0  0  0  0  0
  -36.6676  -22.3107   21.3946 C   0  0  0  0  0  0  0  0  0  0  0  0
  -32.6483  -17.5007   23.4435 C   0  0  0  0  0  0  0  0  0  0  0  0
  -32.0594  -16.6144   22.5417 C   0  0  0  0  0  0  0  0  0  0  0  0
  -22.3334   -8.7118   20.1970 C   0  0  0  0  0  0  0  0  0  0  0  0
  -23.0908   -8.7256   22.4912 C   0  0  0  0  0  0  0  0  0  0  0  0
  -36.5058  -21.6633   22.6188 C   0  0  0  0  0  0  0  0  0  0  0  0
  -19.8622   -7.9284   23.0925 C   0  0  0  0  0  0  0  0  0  0  0  0
  -19.1040   -7.8915   24.2627 C   0  0  0  0  0  0  0  0  0  0  0  0
  -35.1122  -23.4764   23.3866 C   0  0  0  0  0  0  0  0  0  0  0  0
  -30.4655  -18.3536   24.0308 C   0  0  0  0  0  0  0  0  0  0  0  0
  -20.3453   -5.9566   25.0060 C   0  0  0  0  0  0  0  0  0  0  0  0
  -23.8278  -10.4477   20.9655 C   0  0  0  0  0  0  0  0  0  0  0  0
  -24.1689  -12.9727   20.8386 C   0  0  0  0  0  0  0  0  0  0  0  0
  -39.7393  -29.8104   18.2988 C   0  0  0  0  0  0  0  0  0  0  0  0
  -36.0608  -23.5531   21.1608 C   0  0  0  0  0  0  0  0  0  0  0  0
  -39.7283  -28.5355   18.8960 C   0  0  0  0  0  0  0  0  0  0  0  0
  -35.2657  -24.1363   22.1578 C   0  0  0  0  0  0  0  0  0  0  0  0
  -31.8513  -18.3702   24.1882 C   0  0  0  0  0  0  0  0  0  0  0  0
  -30.6735  -16.5977   22.3844 C   0  0  0  0  0  0  0  0  0  0  0  0
  -22.3402   -8.1424   21.4703 C   0  0  0  0  0  0  0  0  0  0  0  0
  -35.7304  -22.2475   23.6160 C   0  0  0  0  0  0  0  0  0  0  0  0
  -20.8620   -6.9793   22.8790 C   0  0  0  0  0  0  0  0  0  0  0  0
  -19.3456   -6.9057   25.2195 C   0  0  0  0  0  0  0  0  0  0  0  0
  -29.8766  -17.4673   23.1290 C   0  0  0  0  0  0  0  0  0  0  0  0
  -21.1035   -5.9935   23.8358 C   0  0  0  0  0  0  0  0  0  0  0  0
  -24.5968  -11.6381   20.7052 C   0  0  0  0  0  0  0  0  0  0  0  0
  -25.2612  -13.7215   20.4744 C   0  0  0  0  0  0  0  0  0  0  0  0
  -33.8319  -19.4137   25.3794 C   0  0  0  0  0  0  0  0  0  0  0  0
  -22.8978  -13.4892   21.2547 C   0  0  0  0  0  0  0  0  0  0  0  0
  -37.1187  -26.4798   20.5137 C   0  0  0  0  0  0  0  0  0  0  0  0
  -33.9592  -27.1206   20.1540 C   0  0  0  0  0  0  0  0  0  0  0  0
  -30.7325  -26.2956   20.8987 C   0  0  0  0  0  0  0  0  0  0  0  0
  -30.7268  -14.7695   20.6521 C   0  0  0  0  0  0  0  0  0  0  0  0
  -38.9314  -30.9550   18.8573 C   0  0  0  0  0  0  0  0  0  0  0  0
  -36.2232  -24.2259   19.8254 C   0  0  0  0  0  0  0  0  0  0  0  0
  -34.5764  -25.4591   21.9495 C   0  0  0  0  0  0  0  0  0  0  0  0
  -37.8157  -30.5104   19.7995 C   0  0  0  0  0  0  0  0  0  0  0  0
  -29.6158  -12.3485   18.2895 C   0  0  0  0  0  0  0  0  0  0  0  0
  -38.3381  -29.4822   20.7978 C   0  0  0  0  0  0  0  0  0  0  0  0
  -28.1758  -12.0577   18.7183 C   0  0  0  0  0  0  0  0  0  0  0  0
  -32.6080  -20.7114   26.9602 C   0  0  0  0  0  0  0  0  0  0  0  0
  -30.5295  -12.5811   19.4915 C   0  0  0  0  0  0  0  0  0  0  0  0
  -31.6701  -20.2360   25.8673 C   0  0  0  0  0  0  0  0  0  0  0  0
  -28.6208  -13.3088   20.8686 C   0  0  0  0  0  0  0  0  0  0  0  0
  -38.8405  -28.2231   20.0811 C   0  0  1  0  0  0  0  0  0  0  0  0
  -35.9800  -25.7309   19.8811 C   0  0  1  0  0  0  0  0  0  0  0  0
  -27.6494  -13.1319   19.6902 C   0  0  2  0  0  0  0  0  0  0  0  0
  -33.9977  -20.5997   26.3282 C   0  0  1  0  0  0  0  0  0  0  0  0
  -35.0743  -20.3326   27.3774 C   0  0  0  0  0  0  0  0  0  0  0  0
  -28.3674  -27.0274   20.4891 C   0  0  0  0  0  0  0  0  0  0  0  0
  -34.3239  -29.4049   22.1437 C   0  0  0  0  0  0  0  0  0  0  0  0
  -31.8359  -29.4733   22.4148 C   0  0  0  0  0  0  0  0  0  0  0  0
  -32.8599  -29.9470   20.1900 C   0  0  0  0  0  0  0  0  0  0  0  0
  -30.0457  -23.7355   19.5823 C   0  0  0  0  0  0  0  0  0  0  0  0
  -34.3476  -21.8477   25.5092 C   0  0  0  0  0  0  0  0  0  1  0  0
  -32.8498  -27.5770   21.0704 C   0  0  1  0  0  0  0  0  0  0  0  0
  -29.5054  -26.1345   20.0197 C   0  0  2  0  0  0  0  0  0  0  0  0
  -32.9818  -29.0765   21.4597 C   0  0  0  0  0  0  0  0  0  0  0  0
  -25.8621  -11.5416   20.2885 N   0  0  0  0  0  0  0  0  0  0  0  0
  -26.2387  -12.8249   20.1570 N   0  0  0  0  0  0  0  0  0  0  0  0
  -32.4540  -19.2780   25.1109 N   0  0  0  0  0  0  0  0  0  0  0  0
  -34.7708  -26.0808   20.6292 N   0  0  0  0  0  0  0  0  0  0  0  0
  -29.9693  -13.6142   20.3653 N   0  0  0  0  0  0  0  0  0  0  0  0
  -25.4712  -15.0528   20.3978 N   0  0  0  0  0  0  0  0  0  0  0  0
  -21.8858  -12.5807   21.5935 N   0  0  0  0  0  0  0  0  0  0  0  0
  -30.0782  -15.6966   21.4671 N   0  0  0  0  0  0  0  0  0  0  0  0
  -37.7259  -27.3943   19.6745 N   0  0  0  0  0  0  0  0  0  0  0  0
  -31.5999  -27.2425   20.3964 N   0  0  0  0  0  0  0  0  0  0  0  0
  -29.0338  -24.7210   20.0424 N   0  3  0  0  0  0  0  0  0  0  0  0
  -34.7788  -18.7846   24.9278 O   0  0  0  0  0  0  0  0  0  0  0  0
  -22.6610  -14.7199   21.3083 O   0  0  0  0  0  0  0  0  0  0  0  0
  -37.4228  -26.2463   21.6777 O   0  0  0  0  0  0  0  0  0  0  0  0
  -34.0960  -27.6618   19.0540 O   0  0  0  0  0  0  0  0  0  0  0  0
  -30.9026  -25.6490   21.9300 O   0  0  0  0  0  0  0  0  0  0  0  0
  -31.8564  -14.9372   20.1852 O   0  0  0  0  0  0  0  0  0  0  0  0
  -21.6144   -7.0177   21.7171 O   0  0  0  0  0  0  0  0  0  0  0  0
  -35.5714  -21.6180   24.8120 O   0  0  0  0  0  0  0  0  0  1  0  0
  -18.6184   -6.8713   26.3439 F   0  0  0  0  0  0  0  0  0  0  0  0
  -28.5435  -17.4611   22.9849 F   0  0  0  0  0  0  0  0  0  0  0  0
  -22.0634   -5.0797   23.6368 F   0  0  0  0  0  0  0  0  0  0  0  0
  1  2  1  0  0  0  0
  1  5  2  0  0  0  0
  2  6  2  0  0  0  0
  3 10  2  0  0  0  0
  3 18  1  0  0  0  0
  4 11  1  0  0  0  0
  4 18  2  0  0  0  0
  5 20  1  0  0  0  0
  6 22  1  0  0  0  0
  7 12  2  0  0  0  0
  7 21  1  0  0  0  0
  8  9  2  0  0  0  0
  8 24  1  0  0  0  0
  9 25  1  0  0  0  0
 10 26  1  0  0  0  0
 11 26  2  0  0  0  0
 12 27  1  0  0  0  0
 13 14  2  0  0  0  0
 13 28  1  0  0  0  0
 14 29  1  0  0  0  0
 15 23  1  0  0  0  0
 15 27  2  0  0  0  0
 16 24  2  0  0  0  0
 16 30  1  0  0  0  0
 17 29  2  0  0  0  0
 17 31  1  0  0  0  0
 18 32  1  0  0  0  0
 19 32  1  0  0  0  0
 19 33  2  0  0  0  0
 19 35  1  0  0  0  0
 20 22  2  0  0  0  0
 20 40  1  0  0  0  0
 21 23  2  0  0  0  0
 21 41  1  0  0  0  0
 22 51  1  0  0  0  0
 23 42  1  0  0  0  0
 24 67  1  0  0  0  0
 25 30  2  0  0  0  0
 25 72  1  0  0  0  0
 26 82  1  0  0  0  0
 27 83  1  0  0  0  0
 28 31  2  0  0  0  0
 28 82  1  0  0  0  0
 29 84  1  0  0  0  0
 30 85  1  0  0  0  0
 31 86  1  0  0  0  0
 32 65  2  0  0  0  0
 33 66  1  0  0  0  0
 33 70  1  0  0  0  0
 34 54  1  0  0  0  0
 34 67  1  0  0  0  0
 34 76  2  0  0  0  0
 35 71  1  0  0  0  0
 35 77  2  0  0  0  0
 36 52  1  0  0  0  0
 36 73  1  0  0  0  0
 36 78  2  0  0  0  0
 37 62  1  0  0  0  0
 37 68  1  0  0  0  0
 37 79  2  0  0  0  0
 38 63  1  0  0  0  0
 38 74  1  0  0  0  0
 38 80  2  0  0  0  0
 39 69  1  0  0  0  0
 39 72  1  0  0  0  0
 39 81  2  0  0  0  0
 40 43  1  0  0  0  0
 41 52  1  0  0  0  0
 42 68  1  0  0  0  0
 43 45  1  0  0  0  0
 44 46  1  0  0  0  0
 44 48  1  0  0  0  0
 45 51  1  0  0  0  0
 46 53  1  0  0  0  0
 47 49  1  0  0  0  0
 47 54  1  0  0  0  0
 48 69  1  0  0  0  0
 49 67  1  0  0  0  0
 50 53  1  0  0  0  0
 50 69  1  0  0  0  0
 51 73  1  0  0  0  0
 52 68  1  0  0  0  0
 53 66  1  0  0  0  0
 54 55  1  0  0  0  0
 54 61  1  0  0  0  0
 56 63  1  0  0  0  0
 57 64  1  0  0  0  0
 58 64  1  0  0  0  0
 59 64  1  0  0  0  0
 60 75  1  0  0  0  0
 61 83  1  0  0  0  0
 62 64  1  0  0  0  0
 62 74  1  0  0  0  0
 63 75  1  0  0  0  0
 65 66  1  0  0  0  0
M  CHG  1  75   1
M  ISO  4  39 100  61 101  72 100  83 101
M  END
> <Batch ID>
0073

> <Smiles>
CNC(C)C(=O)NC(C(=O)N1Cc2cc([101O:1][101CH2:1]C3(C)CCN(c4ccc([100NH:0][100C:0](=O)N5CCCC(n6nc(-c7ccc(Oc8ccc(F)cc8F)cc7)c(C(N)=O)c6N)C5)c(F)c4)C3=O)ccc2CC1C(=O)NC1CCCc2ccccc21)C(C)(C)C

> <Shape>
0.203

> <Color>
0.192

> <Negative vol penalty>
0.000

$$$$

  -OEChem-04042323413D

 86 94  0     1  0  0  0  0  0999 V2000
  -31.4807  -35.5603   22.3220 C   0  0  0  0  0  0  0  0  0  0  0  0
  -31.2814  -34.1980   22.1225 C   0  0  0  0  0  0  0  0  0  0  0  0
  -24.4317   -8.4362   20.6038 C   0  0  0  0  0  0  0  0  0  0  0  0
  -22.9673  -10.3044   21.0536 C   0  0  0  0  0  0  0  0  0  0  0  0
  -29.1770  -20.2357   21.2422 C   0  0  0  0  0  0  0  0  0  0  0  0
  -30.6111  -36.2781   23.1421 C   0  0  0  0  0  0  0  0  0  0  0  0
  -30.2130  -33.5525   22.7438 C   0  0  0  0  0  0  0  0  0  0  0  0
  -27.7330  -30.4432   19.6090 C   0  0  0  0  0  0  0  0  0  0  0  0
  -29.2509  -18.8720   21.5259 C   0  0  0  0  0  0  0  0  0  0  0  0
  -23.4134   -7.5521   20.9601 C   0  0  0  0  0  0  0  0  0  0  0  0
  -21.9489   -9.4203   21.4099 C   0  0  0  0  0  0  0  0  0  0  0  0
  -28.3180  -29.2055   19.3452 C   0  0  0  0  0  0  0  0  0  0  0  0
  -22.0316   -6.3614   23.8057 C   0  0  0  0  0  0  0  0  0  0  0  0
  -22.3640   -5.2926   24.6380 C   0  0  0  0  0  0  0  0  0  0  0  0
  -28.0972  -19.7395   19.1386 C   0  0  0  0  0  0  0  0  0  0  0  0
  -26.8385  -28.1719   20.9457 C   0  0  0  0  0  0  0  0  0  0  0  0
  -21.6467   -3.7403   22.9313 C   0  0  0  0  0  0  0  0  0  0  0  0
  -24.2087   -9.8123   20.6506 C   0  0  0  0  0  0  0  0  0  0  0  0
  -28.6001  -20.6695   20.0485 C   0  0  0  0  0  0  0  0  0  0  0  0
  -25.5274  -11.2441   19.0018 C   0  0  0  0  0  0  0  0  0  0  0  0
  -29.5259  -35.6430   23.7661 C   0  0  0  0  0  0  0  0  0  0  0  0
  -26.7020  -30.5565   20.5527 C   0  0  0  0  0  0  0  0  0  0  0  0
  -29.3288  -34.2622   23.5741 C   0  0  0  0  0  0  0  0  0  0  0  0
  -26.2403  -29.4117   21.2178 C   0  0  0  0  0  0  0  0  0  0  0  0
  -28.7481  -17.9421   20.6159 C   0  0  0  0  0  0  0  0  0  0  0  0
  -22.1720   -8.0441   21.3631 C   0  0  0  0  0  0  0  0  0  0  0  0
  -27.8728  -28.0701   20.0157 C   0  0  0  0  0  0  0  0  0  0  0  0
  -21.5067   -6.1196   22.5361 C   0  0  0  0  0  0  0  0  0  0  0  0
  -22.1716   -3.9821   24.2009 C   0  0  0  0  0  0  0  0  0  0  0  0
  -28.1712  -18.3758   19.4223 C   0  0  0  0  0  0  0  0  0  0  0  0
  -21.3143   -4.8091   22.0989 C   0  0  0  0  0  0  0  0  0  0  0  0
  -25.2605  -10.7261   20.2833 C   0  0  0  0  0  0  0  0  0  0  0  0
  -26.6192  -12.0579   19.1810 C   0  0  0  0  0  0  0  0  0  0  0  0
  -29.0439  -26.2018   20.7958 C   0  0  0  0  0  0  0  0  0  1  0  0
  -28.5213  -22.1130   19.7474 C   0  0  0  0  0  0  0  0  0  0  0  0
  -24.8490  -11.0106   17.7604 C   0  0  0  0  0  0  0  0  0  0  0  0
  -29.6441  -25.0051   20.6901 C   0  0  0  0  0  0  0  0  0  0  0  0
  -26.3391  -32.1080   23.3031 C   0  0  0  0  0  0  0  0  0  0  0  0
  -23.2996  -30.9968   23.0802 C   0  0  0  0  0  0  0  0  0  0  0  0
  -21.1539  -28.6612   21.8203 C   0  0  0  0  0  0  0  0  0  0  0  0
  -29.3659  -15.9627   22.0466 C   0  0  0  0  0  0  0  0  0  0  0  0
  -28.6404  -36.4510   24.6815 C   0  0  0  0  0  0  0  0  0  0  0  0
  -26.0632  -31.8944   20.8063 C   0  0  0  0  0  0  0  0  0  0  0  0
  -25.1226  -29.4765   22.2253 C   0  0  0  0  0  0  0  0  0  0  0  0
  -27.3135  -35.7685   25.0039 C   0  0  0  0  0  0  0  0  0  0  0  0
  -29.7097  -12.5962   23.1535 C   0  0  0  0  0  0  0  0  0  0  0  0
  -27.5416  -34.3071   25.3767 C   0  0  0  0  0  0  0  0  0  0  0  0
  -28.6048  -11.8521   22.4000 C   0  0  0  0  0  0  0  0  0  0  0  0
  -29.2688  -13.9992   23.5666 C   0  0  0  0  0  0  0  0  0  0  0  0
  -27.6366  -14.0863   21.7233 C   0  0  0  0  0  0  0  0  0  0  0  0
  -28.1667  -33.5314   24.2110 C   0  0  1  0  0  0  0  0  0  0  0  0
  -25.3696  -31.9780   22.1625 C   0  0  1  0  0  0  0  0  0  0  0  0
  -28.0566  -12.6921   21.2298 C   0  0  2  0  0  0  0  0  0  0  0  0
  -30.2748  -24.3736   21.9028 C   0  0  0  0  0  0  0  0  0  0  0  0
  -30.9717  -24.5330   18.5769 C   0  0  0  0  0  0  0  0  0  0  0  0
  -18.7355  -27.9918   21.8443 C   0  0  0  0  0  0  0  0  0  0  0  0
  -23.6501  -29.8400   25.8818 C   0  0  0  0  0  0  0  0  0  0  0  0
  -21.6321  -28.4163   25.4707 C   0  0  0  0  0  0  0  0  0  0  0  0
  -21.4251  -30.9022   25.4625 C   0  0  0  0  0  0  0  0  0  0  0  0
  -20.9007  -29.0379   18.8958 C   0  0  0  0  0  0  0  0  0  0  0  0
  -29.7117  -24.2453   19.3837 C   0  0  1  0  0  0  0  0  0  0  0  0
  -22.5818  -29.7484   23.5330 C   0  0  1  0  0  0  0  0  0  0  0  0
  -19.8091  -28.7975   21.1295 C   0  0  2  0  0  0  0  0  0  0  0  0
  -22.3447  -29.7255   25.0695 C   0  0  0  0  0  0  0  0  0  0  0  0
  -26.1141  -11.1731   21.2082 N   0  0  0  0  0  0  0  0  0  0  0  0
  -26.9281  -11.9806   20.5072 N   0  0  0  0  0  0  0  0  0  0  0  0
  -24.5344  -30.8084   22.4432 N   0  0  0  0  0  0  0  0  0  0  0  0
  -28.7654  -14.7376   22.4063 N   0  0  0  0  0  0  0  0  0  0  0  0
  -27.3357  -12.8248   18.3319 N   0  0  0  0  0  0  0  0  0  0  0  0
  -27.3157  -22.6513   19.5636 N   0  0  0  0  0  0  0  0  0  0  0  0
  -23.7457  -10.1463   17.7542 N   0  0  0  0  0  0  0  0  0  0  0  0
  -28.8247  -16.5575   20.9073 N   0  0  0  0  0  0  0  0  0  0  0  0
  -27.1624  -33.2145   23.2184 N   0  0  0  0  0  0  0  0  0  0  0  0
  -21.3608  -29.6687   22.7387 N   0  0  0  0  0  0  0  0  0  0  0  0
  -29.6612  -22.8056   19.6723 N   0  3  0  0  0  0  0  0  0  0  0  0
  -19.8987  -28.3163   19.7218 N   0  3  0  0  0  0  0  0  0  0  0  0
  -25.2206  -11.5396   16.6854 O   0  0  0  0  0  0  0  0  0  0  0  0
  -26.3390  -31.2674   24.1949 O   0  0  0  0  0  0  0  0  0  0  0  0
  -22.7805  -32.0982   23.2777 O   0  0  0  0  0  0  0  0  0  0  0  0
  -21.9405  -27.7498   21.5730 O   0  0  0  0  0  0  0  0  0  0  0  0
  -30.3100  -16.4348   22.6851 O   0  0  0  0  0  0  0  0  0  0  0  0
  -21.1779   -7.1818   21.7106 O   0  0  0  0  0  0  0  0  0  0  0  0
  -28.4425  -26.8608   19.7606 O   0  0  0  0  0  0  0  0  0  1  0  0
  -22.4923   -2.9559   24.9997 F   0  0  0  0  0  0  0  0  0  0  0  0
  -27.6859  -17.4908   18.5398 F   0  0  0  0  0  0  0  0  0  0  0  0
  -20.8115   -4.5706   20.8799 F   0  0  0  0  0  0  0  0  0  0  0  0
  1  2  1  0  0  0  0
  1  6  2  0  0  0  0
  2  7  2  0  0  0  0
  3 10  2  0  0  0  0
  3 18  1  0  0  0  0
  4 11  1  0  0  0  0
  4 18  2  0  0  0  0
  5  9  2  0  0  0  0
  5 19  1  0  0  0  0
  6 21  1  0  0  0  0
  7 23  1  0  0  0  0
  8 12  2  0  0  0  0
  8 22  1  0  0  0  0
  9 25  1  0  0  0  0
 10 26  1  0  0  0  0
 11 26  2  0  0  0  0
 12 27  1  0  0  0  0
 13 14  2  0  0  0  0
 13 28  1  0  0  0  0
 14 29  1  0  0  0  0
 15 19  2  0  0  0  0
 15 30  1  0  0  0  0
 16 24  1  0  0  0  0
 16 27  2  0  0  0  0
 17 29  2  0  0  0  0
 17 31  1  0  0  0  0
 18 32  1  0  0  0  0
 19 35  1  0  0  0  0
 20 32  1  0  0  0  0
 20 33  2  0  0  0  0
 20 36  1  0  0  0  0
 21 23  2  0  0  0  0
 21 42  1  0  0  0  0
 22 24  2  0  0  0  0
 22 43  1  0  0  0  0
 23 51  1  0  0  0  0
 24 44  1  0  0  0  0
 25 30  2  0  0  0  0
 25 72  1  0  0  0  0
 26 82  1  0  0  0  0
 27 83  1  0  0  0  0
 28 31  2  0  0  0  0
 28 82  1  0  0  0  0
 29 84  1  0  0  0  0
 30 85  1  0  0  0  0
 31 86  1  0  0  0  0
 32 65  2  0  0  0  0
 33 66  1  0  0  0  0
 33 69  1  0  0  0  0
 34 37  2  0  0  0  0
 34 83  1  0  0  0  0
 35 70  1  0  0  0  0
 35 75  2  0  0  0  0
 36 71  1  0  0  0  0
 36 77  2  0  0  0  0
 37 54  1  0  0  0  0
 37 61  1  0  0  0  0
 38 52  1  0  0  0  0
 38 73  1  0  0  0  0
 38 78  2  0  0  0  0
 39 62  1  0  0  0  0
 39 67  1  0  0  0  0
 39 79  2  0  0  0  0
 40 63  1  0  0  0  0
 40 74  1  0  0  0  0
 40 80  2  0  0  0  0
 41 68  1  0  0  0  0
 41 72  1  0  0  0  0
 41 81  2  0  0  0  0
 42 45  1  0  0  0  0
 43 52  1  0  0  0  0
 44 67  1  0  0  0  0
 45 47  1  0  0  0  0
 46 48  1  0  0  0  0
 46 49  1  0  0  0  0
 47 51  1  0  0  0  0
 48 53  1  0  0  0  0
 49 68  1  0  0  0  0
 50 53  1  0  0  0  0
 50 68  1  0  0  0  0
 51 73  1  0  0  0  0
 52 67  1  0  0  0  0
 53 66  1  0  0  0  0
 55 61  1  0  0  0  0
 56 63  1  0  0  0  0
 57 64  1  0  0  0  0
 58 64  1  0  0  0  0
 59 64  1  0  0  0  0
 60 76  1  0  0  0  0
 61 75  1  0  0  0  0
 62 64  1  0  0  0  0
 62 74  1  0  0  0  0
 63 76  1  0  0  0  0
 65 66  1  0  0  0  0
M  CHG  2  75   1  76   1
M  ISO  4  34 101  41 100  72 100  83 101
M  END
> <Batch ID>
0073

> <Smiles>
CNC(C)C(=O)NC(C(=O)N1Cc2cc([101O:1][101CH:1]=C(C)C(C)NC(=N)c3ccc([100NH:0][100C:0](=O)N4CCCC(n5nc(-c6ccc(Oc7ccc(F)cc7F)cc6)c(C(N)=O)c5N)C4)c(F)c3)ccc2CC1C(=O)NC1CCCc2ccccc21)C(C)(C)C

> <Shape>
0.336

> <Color>
0.104

> <Negative vol penalty>
0.000

$$$$

  -OEChem-04042323413D

 88 97  0     1  0  0  0  0  0999 V2000
  -28.4679  -22.6289   15.1316 C   0  0  0  0  0  0  0  0  0  0  0  0
  -28.0900  -22.6157   16.4704 C   0  0  0  0  0  0  0  0  0  0  0  0
  -23.2335   -9.6602   20.1839 C   0  0  0  0  0  0  0  0  0  0  0  0
  -23.8455  -10.0374   22.4905 C   0  0  0  0  0  0  0  0  0  0  0  0
  -29.1957  -23.7045   14.6244 C   0  0  0  0  0  0  0  0  0  0  0  0
  -28.4406  -23.6778   17.3031 C   0  0  0  0  0  0  0  0  0  0  0  0
  -24.6011  -25.1976   20.2345 C   0  0  0  0  0  0  0  0  0  0  0  0
  -22.5423   -8.5072   20.5559 C   0  0  0  0  0  0  0  0  0  0  0  0
  -23.1542   -8.8844   22.8625 C   0  0  0  0  0  0  0  0  0  0  0  0
  -24.3114  -24.4227   21.3567 C   0  0  0  0  0  0  0  0  0  0  0  0
  -19.9451   -7.9695   23.3966 C   0  0  0  0  0  0  0  0  0  0  0  0
  -19.1192   -8.0443   24.5182 C   0  0  0  0  0  0  0  0  0  0  0  0
  -25.5059  -25.9946   22.7429 C   0  0  0  0  0  0  0  0  0  0  0  0
  -29.3778  -18.0510   22.6252 C   0  0  0  0  0  0  0  0  0  0  0  0
  -31.2256  -19.2192   23.6536 C   0  0  0  0  0  0  0  0  0  0  0  0
  -31.6393  -17.2727   22.2836 C   0  0  0  0  0  0  0  0  0  0  0  0
  -20.4200   -6.3141   25.5914 C   0  0  0  0  0  0  0  0  0  0  0  0
  -23.8852  -10.4253   21.1512 C   0  0  0  0  0  0  0  0  0  0  0  0
  -24.0895  -12.9257   20.6890 C   0  0  0  0  0  0  0  0  0  0  0  0
  -29.5471  -24.7849   15.4490 C   0  0  0  0  0  0  0  0  0  0  0  0
  -25.3559  -26.3730   20.3567 C   0  0  0  0  0  0  0  0  0  0  0  0
  -29.1749  -24.7683   16.8068 C   0  0  0  0  0  0  0  0  0  0  0  0
  -25.8016  -26.7840   21.6210 C   0  0  0  0  0  0  0  0  0  0  0  0
  -29.8558  -19.0892   23.4246 C   0  0  0  0  0  0  0  0  0  0  0  0
  -30.2695  -17.1427   22.0547 C   0  0  0  0  0  0  0  0  0  0  0  0
  -22.5025   -8.1193   21.8951 C   0  0  0  0  0  0  0  0  0  0  0  0
  -24.7663  -24.8197   22.6108 C   0  0  0  0  0  0  0  0  0  0  0  0
  -21.0084   -7.0669   23.3724 C   0  0  0  0  0  0  0  0  0  0  0  0
  -19.3567   -7.2166   25.6156 C   0  0  0  0  0  0  0  0  0  0  0  0
  -32.1174  -18.3110   23.0830 C   0  0  0  0  0  0  0  0  0  0  0  0
  -21.2459   -6.2393   24.4698 C   0  0  0  0  0  0  0  0  0  0  0  0
  -24.5999  -11.6161   20.7676 C   0  0  0  0  0  0  0  0  0  0  0  0
  -25.1579  -13.6868   20.2819 C   0  0  0  0  0  0  0  0  0  0  0  0
  -27.0549  -21.1704   24.6646 C   0  0  0  0  0  0  0  0  0  0  0  0
  -27.5485  -20.0148   23.8692 C   0  0  0  0  0  0  0  0  0  0  0  0
  -22.7678  -13.4109   20.9598 C   0  0  0  0  0  0  0  0  0  0  0  0
  -25.7753  -21.5518   24.6646 C   0  0  0  0  0  0  0  0  0  0  0  0
  -28.1518  -27.3716   19.2211 C   0  0  0  0  0  0  0  0  0  0  0  0
  -27.2800  -30.1660   20.6189 C   0  0  0  0  0  0  0  0  0  0  0  0
  -25.4177  -31.7608   22.9927 C   0  0  0  0  0  0  0  0  0  0  0  0
  -30.5337  -15.1015   20.6020 C   0  0  0  0  0  0  0  0  0  0  0  0
  -30.3751  -25.9031   14.8670 C   0  0  0  0  0  0  0  0  0  0  0  0
  -25.6371  -27.2118   19.1402 C   0  0  0  0  0  0  0  0  0  0  0  0
  -26.5984  -28.0482   21.8087 C   0  0  0  0  0  0  0  0  0  0  0  0
  -28.1801  -21.8081   25.4017 C   0  0  0  0  0  0  0  0  0  0  0  0
  -30.3838  -27.1651   15.7258 C   0  0  0  0  0  0  0  0  0  0  0  0
  -29.7104  -12.3126   18.5474 C   0  0  0  0  0  0  0  0  0  0  0  0
  -30.6302  -26.8132   17.1894 C   0  0  0  0  0  0  0  0  0  0  0  0
  -28.2654  -11.9905   18.9354 C   0  0  0  0  0  0  0  0  0  0  0  0
  -29.4087  -21.1570   24.7883 C   0  0  0  0  0  0  0  0  0  0  0  0
  -30.5333  -12.7666   19.7518 C   0  0  0  0  0  0  0  0  0  0  0  0
  -28.5047  -13.5509   20.9090 C   0  0  0  0  0  0  0  0  0  0  0  0
  -29.5151  -25.9135   17.7358 C   0  0  1  0  0  0  0  0  0  0  0  0
  -26.8516  -28.1196   19.3081 C   0  0  1  0  0  0  0  0  0  0  0  0
  -27.6197  -13.1514   19.7171 C   0  0  2  0  0  0  0  0  0  0  0  0
  -24.9443  -34.0444   23.9192 C   0  0  0  0  0  0  0  0  0  0  0  0
  -29.9575  -30.1250   22.0816 C   0  0  0  0  0  0  0  0  0  0  0  0
  -29.0469  -31.8492   23.6520 C   0  0  0  0  0  0  0  0  0  0  0  0
  -29.2721  -32.3717   21.2232 C   0  0  0  0  0  0  0  0  0  0  0  0
  -22.5524  -31.5861   22.2724 C   0  0  0  0  0  0  0  0  0  0  0  0
  -25.4006  -22.7584   25.5283 C   0  0  0  0  0  0  0  0  0  0  0  0
  -25.4338  -24.0904   24.7738 C   0  0  0  0  0  0  0  0  0  1  0  0
  -27.4619  -30.7800   21.9860 C   0  0  1  0  0  0  0  0  0  0  0  0
  -24.5205  -32.9830   22.9159 C   0  0  2  0  0  0  0  0  0  0  0  0
  -28.9212  -31.2566   22.2322 C   0  0  0  0  0  0  0  0  0  0  0  0
  -25.8920  -11.5456   20.4368 N   0  0  0  0  0  0  0  0  0  0  0  0
  -26.2026  -12.8205   20.1464 N   0  0  0  0  0  0  0  0  0  0  0  0
  -28.9422  -20.0203   24.0099 N   0  0  0  0  0  0  0  0  0  0  0  0
  -26.8529  -28.8309   20.5880 N   0  0  0  0  0  0  0  0  0  0  0  0
  -29.8622  -13.8712   20.4405 N   0  0  0  0  0  0  0  0  0  0  0  0
  -25.2963  -15.0058   20.0302 N   0  0  0  0  0  0  0  0  0  0  0  0
  -21.7900  -12.4937   21.3685 N   0  0  0  0  0  0  0  0  0  0  0  0
  -29.7843  -16.0876   21.2428 N   0  0  0  0  0  0  0  0  0  0  0  0
  -28.3333  -26.6954   18.0298 N   0  0  0  0  0  0  0  0  0  0  0  0
  -26.4618  -31.8365   22.0953 N   0  0  0  0  0  0  0  0  0  0  0  0
  -23.1067  -32.6063   23.1992 N   0  3  0  0  0  0  0  0  0  0  0  0
  -24.7880  -21.0897   24.0287 O   0  5  0  0  0  0  0  0  0  0  0  0
  -26.8129  -19.2694   23.2437 O   0  0  0  0  0  0  0  0  0  0  0  0
  -22.4586  -14.6193   20.8271 O   0  0  0  0  0  0  0  0  0  0  0  0
  -28.9332  -27.4067   20.1644 O   0  0  0  0  0  0  0  0  0  0  0  0
  -27.5016  -30.8482   19.6153 O   0  0  0  0  0  0  0  0  0  0  0  0
  -25.2148  -30.8336   23.7735 O   0  0  0  0  0  0  0  0  0  0  0  0
  -31.6786  -15.2766   20.1771 O   0  0  0  0  0  0  0  0  0  0  0  0
  -21.8279   -6.9944   22.2585 O   0  0  0  0  0  0  0  0  0  0  0  0
  -24.4855  -24.0649   23.7077 O   0  0  0  0  0  0  0  0  0  1  0  0
  -18.5645   -7.2897   26.6932 F   0  0  0  0  0  0  0  0  0  0  0  0
  -33.4328  -18.4352   23.3033 F   0  0  0  0  0  0  0  0  0  0  0  0
  -22.2666   -5.3711   24.4528 F   0  0  0  0  0  0  0  0  0  0  0  0
  1  2  1  0  0  0  0
  1  5  2  0  0  0  0
  2  6  2  0  0  0  0
  3  8  2  0  0  0  0
  3 18  1  0  0  0  0
  4  9  1  0  0  0  0
  4 18  2  0  0  0  0
  5 20  1  0  0  0  0
  6 22  1  0  0  0  0
  7 10  2  0  0  0  0
  7 21  1  0  0  0  0
  8 26  1  0  0  0  0
  9 26  2  0  0  0  0
 10 27  1  0  0  0  0
 11 12  2  0  0  0  0
 11 28  1  0  0  0  0
 12 29  1  0  0  0  0
 13 23  1  0  0  0  0
 13 27  2  0  0  0  0
 14 24  2  0  0  0  0
 14 25  1  0  0  0  0
 15 24  1  0  0  0  0
 15 30  2  0  0  0  0
 16 25  2  0  0  0  0
 16 30  1  0  0  0  0
 17 29  2  0  0  0  0
 17 31  1  0  0  0  0
 18 32  1  0  0  0  0
 19 32  1  0  0  0  0
 19 33  2  0  0  0  0
 19 36  1  0  0  0  0
 20 22  2  0  0  0  0
 20 42  1  0  0  0  0
 21 23  2  0  0  0  0
 21 43  1  0  0  0  0
 22 53  1  0  0  0  0
 23 44  1  0  0  0  0
 24 68  1  0  0  0  0
 25 73  1  0  0  0  0
 26 84  1  0  0  0  0
 27 85  1  0  0  0  0
 28 31  2  0  0  0  0
 28 84  1  0  0  0  0
 29 86  1  0  0  0  0
 30 87  1  0  0  0  0
 31 88  1  0  0  0  0
 32 66  2  0  0  0  0
 33 67  1  0  0  0  0
 33 71  1  0  0  0  0
 34 35  1  0  0  0  0
 34 37  2  0  0  0  0
 34 45  1  0  0  0  0
 35 68  1  0  0  0  0
 35 78  2  0  0  0  0
 36 72  1  0  0  0  0
 36 79  2  0  0  0  0
 37 61  1  0  0  0  0
 37 77  1  0  0  0  0
 38 54  1  0  0  0  0
 38 74  1  0  0  0  0
 38 80  2  0  0  0  0
 39 63  1  0  0  0  0
 39 69  1  0  0  0  0
 39 81  2  0  0  0  0
 40 64  1  0  0  0  0
 40 75  1  0  0  0  0
 40 82  2  0  0  0  0
 41 70  1  0  0  0  0
 41 73  1  0  0  0  0
 41 83  2  0  0  0  0
 42 46  1  0  0  0  0
 43 54  1  0  0  0  0
 44 69  1  0  0  0  0
 45 50  1  0  0  0  0
 46 48  1  0  0  0  0
 47 49  1  0  0  0  0
 47 51  1  0  0  0  0
 48 53  1  0  0  0  0
 49 55  1  0  0  0  0
 50 68  1  0  0  0  0
 51 70  1  0  0  0  0
 52 55  1  0  0  0  0
 52 70  1  0  0  0  0
 53 74  1  0  0  0  0
 54 69  1  0  0  0  0
 55 67  1  0  0  0  0
 56 64  1  0  0  0  0
 57 65  1  0  0  0  0
 58 65  1  0  0  0  0
 59 65  1  0  0  0  0
 60 76  1  0  0  0  0
 61 62  1  0  0  0  0
 62 85  1  0  0  0  0
 63 65  1  0  0  0  0
 63 75  1  0  0  0  0
 64 76  1  0  0  0  0
 66 67  1  0  0  0  0
M  CHG  2  76   1  77  -1
M  ISO  4  41 100  62 101  73 100  85 101
M  END
> <Batch ID>
0073

> <Smiles>
CNC(C)C(=O)NC(C(=O)N1Cc2cc([101O:1][101CH2:1]CC(=O)C3CCN(c4cc(F)cc([100NH:0][100C:0](=O)N5CCCC(n6nc(-c7ccc(Oc8ccc(F)cc8F)cc7)c(C(N)=O)c6N)C5)c4)C3=O)ccc2CC1C(=O)NC1CCCc2ccccc21)C(C)(C)C

> <Shape>
0.273

> <Color>
0.195

> <Negative vol penalty>
0.000

$$$$

  -OEChem-04042323413D

 78 85  0     1  0  0  0  0  0999 V2000
  -18.8227  -28.7663   21.8193 C   0  0  0  0  0  0  0  0  0  0  0  0
  -20.0230  -28.1837   21.4252 C   0  0  0  0  0  0  0  0  0  0  0  0
  -23.5722   -9.6359   21.1087 C   0  0  0  0  0  0  0  0  0  0  0  0
  -24.2315  -10.4910   23.2700 C   0  0  0  0  0  0  0  0  0  0  0  0
  -18.2350  -28.3991   23.0291 C   0  0  0  0  0  0  0  0  0  0  0  0
  -20.6368  -27.2342   22.2414 C   0  0  0  0  0  0  0  0  0  0  0  0
  -23.8493  -22.3456   20.4282 C   0  0  0  0  0  0  0  0  0  0  0  0
  -22.9978   -8.5237   21.7240 C   0  0  0  0  0  0  0  0  0  0  0  0
  -23.6570   -9.3788   23.8853 C   0  0  0  0  0  0  0  0  0  0  0  0
  -25.2190  -22.1163   20.3050 C   0  0  0  0  0  0  0  0  0  0  0  0
  -20.1448   -7.7919   23.3846 C   0  0  0  0  0  0  0  0  0  0  0  0
  -18.8793   -7.3941   22.9535 C   0  0  0  0  0  0  0  0  0  0  0  0
  -25.2377  -21.0917   22.4888 C   0  0  0  0  0  0  0  0  0  0  0  0
  -19.7720   -5.2400   22.3209 C   0  0  0  0  0  0  0  0  0  0  0  0
  -24.1891  -10.6196   21.8818 C   0  0  0  0  0  0  0  0  0  0  0  0
  -24.1582  -12.9950   20.9523 C   0  0  0  0  0  0  0  0  0  0  0  0
  -18.8370  -27.4376   23.8559 C   0  0  0  0  0  0  0  0  0  0  0  0
  -23.1644  -21.9589   21.5892 C   0  0  0  0  0  0  0  0  0  0  0  0
  -20.0573  -26.8548   23.4641 C   0  0  0  0  0  0  0  0  0  0  0  0
  -23.8589  -21.3150   22.6232 C   0  0  0  0  0  0  0  0  0  0  0  0
  -23.0401   -8.3951   23.1123 C   0  0  0  0  0  0  0  0  0  0  0  0
  -25.9139  -21.4919   21.3366 C   0  0  0  0  0  0  0  0  0  0  0  0
  -21.2239   -6.9139   23.2838 C   0  0  0  0  0  0  0  0  0  0  0  0
  -18.6929   -6.1181   22.4217 C   0  0  0  0  0  0  0  0  0  0  0  0
  -21.0375   -5.6379   22.7520 C   0  0  0  0  0  0  0  0  0  0  0  0
  -24.7832  -11.7685   21.2467 C   0  0  0  0  0  0  0  0  0  0  0  0
  -25.1410  -13.7468   20.3560 C   0  0  0  0  0  0  0  0  0  0  0  0
  -22.8098  -13.4172   21.1961 C   0  0  0  0  0  0  0  0  0  0  0  0
  -21.5376  -23.4913   23.8494 C   0  0  0  0  0  0  0  0  0  0  0  0
  -20.8741  -20.4830   24.8655 C   0  0  0  0  0  0  0  0  0  0  0  0
  -30.6561  -17.7896   21.3799 C   0  0  0  0  0  0  0  0  0  0  0  0
  -28.9875  -19.6034   21.1673 C   0  0  0  0  0  0  0  0  0  0  0  0
  -21.7671  -17.1902   24.9489 C   0  0  0  0  0  0  0  0  0  0  0  0
  -30.8425  -14.7023   20.6630 C   0  0  0  0  0  0  0  0  0  0  0  0
  -18.1883  -27.1076   25.1769 C   0  0  0  0  0  0  0  0  0  0  0  0
  -21.6819  -22.1893   21.6954 C   0  0  0  0  0  0  0  0  0  0  0  0
  -23.1663  -20.8621   23.8817 C   0  0  0  0  0  0  0  0  0  0  0  0
  -18.7112  -25.8194   25.8073 C   0  0  0  0  0  0  0  0  0  0  0  0
  -29.4058  -12.7262   18.0731 C   0  0  0  0  0  0  0  0  0  0  0  0
  -20.2353  -25.7813   25.7579 C   0  0  0  0  0  0  0  0  0  0  0  0
  -28.0092  -12.3918   18.6001 C   0  0  0  0  0  0  0  0  0  0  0  0
  -30.4420  -12.7478   19.1946 C   0  0  0  0  0  0  0  0  0  0  0  0
  -28.7076  -13.2881   20.8601 C   0  0  0  0  0  0  0  0  0  0  0  0
  -20.7411  -25.8030   24.3104 C   0  0  1  0  0  0  0  0  0  0  0  0
  -21.1832  -22.2168   23.1369 C   0  0  1  0  0  0  0  0  0  0  0  0
  -27.6184  -13.3095   19.7741 C   0  0  2  0  0  0  0  0  0  0  0  0
  -21.5716  -14.7363   25.4361 C   0  0  0  0  0  0  0  0  0  0  0  0
  -21.9157  -21.3147   27.6102 C   0  0  0  0  0  0  0  0  0  0  0  0
  -22.0674  -18.8888   28.2105 C   0  0  0  0  0  0  0  0  0  0  0  0
  -19.8541  -19.9000   27.6615 C   0  0  0  0  0  0  0  0  0  0  0  0
  -20.3439  -16.6802   22.4046 C   0  0  0  0  0  0  0  0  0  0  0  0
  -31.0938  -16.6384   22.1952 C   0  0  0  0  0  0  0  0  0  0  0  0
  -27.7804  -20.1289   21.8972 C   0  0  0  0  0  0  0  0  0  1  0  0
  -21.5296  -19.5046   25.8100 C   0  0  1  0  0  0  0  0  0  0  0  0
  -20.9681  -15.9233   24.7016 C   0  0  2  0  0  0  0  0  0  0  0  0
  -21.3554  -19.9122   27.3003 C   0  0  0  0  0  0  0  0  0  0  0  0
  -26.0638  -11.7384   20.8685 N   0  0  0  0  0  0  0  0  0  0  0  0
  -26.2515  -12.9554   20.3303 N   0  0  0  0  0  0  0  0  0  0  0  0
  -21.7172  -21.1155   23.9408 N   0  0  0  0  0  0  0  0  0  0  0  0
  -30.0119  -13.6378   20.2758 N   0  0  0  0  0  0  0  0  0  0  0  0
  -25.1549  -15.0008   19.8564 N   0  0  0  0  0  0  0  0  0  0  0  0
  -21.9310  -12.5201   21.8183 N   0  0  0  0  0  0  0  0  0  0  0  0
  -20.5995  -24.4957   23.7059 N   0  0  0  0  0  0  0  0  0  0  0  0
  -29.5810  -18.4555   21.8082 N   0  0  0  0  0  0  0  0  0  0  0  0
  -20.9838  -18.1921   25.4817 N   0  0  0  0  0  0  0  0  0  0  0  0
  -30.3567  -15.5011   21.6909 N   0  0  0  0  0  0  0  0  0  0  0  0
  -31.3778  -18.0579   20.2972 N   0  3  0  0  0  0  0  0  0  0  0  0
  -20.9352  -15.6077   23.2455 N   0  3  0  0  0  0  0  0  0  0  0  0
  -22.3921  -14.5503   20.8569 O   0  0  0  0  0  0  0  0  0  0  0  0
  -22.5840  -23.5580   24.4838 O   0  0  0  0  0  0  0  0  0  0  0  0
  -19.6577  -20.6735   24.9405 O   0  0  0  0  0  0  0  0  0  0  0  0
  -29.4472  -20.0727   20.1362 O   0  0  0  0  0  0  0  0  0  0  0  0
  -22.9669  -17.2807   24.6982 O   0  0  0  0  0  0  0  0  0  0  0  0
  -31.9335  -14.9275   20.1283 O   0  0  0  0  0  0  0  0  0  0  0  0
  -22.4795   -7.3101   23.7130 O   0  0  0  0  0  0  0  0  0  0  0  0
  -27.2510  -21.2674   21.2192 O   0  0  0  0  0  0  0  0  0  1  0  0
  -17.4773   -5.7357   22.0092 F   0  0  0  0  0  0  0  0  0  0  0  0
  -22.0702   -4.7895   22.6537 F   0  0  0  0  0  0  0  0  0  0  0  0
  1  2  1  0  0  0  0
  1  5  2  0  0  0  0
  2  6  2  0  0  0  0
  3  8  2  0  0  0  0
  3 15  1  0  0  0  0
  4  9  1  0  0  0  0
  4 15  2  0  0  0  0
  5 17  1  0  0  0  0
  6 19  1  0  0  0  0
  7 10  2  0  0  0  0
  7 18  1  0  0  0  0
  8 21  1  0  0  0  0
  9 21  2  0  0  0  0
 10 22  1  0  0  0  0
 11 12  2  0  0  0  0
 11 23  1  0  0  0  0
 12 24  1  0  0  0  0
 13 20  1  0  0  0  0
 13 22  2  0  0  0  0
 14 24  2  0  0  0  0
 14 25  1  0  0  0  0
 15 26  1  0  0  0  0
 16 26  1  0  0  0  0
 16 27  2  0  0  0  0
 16 28  1  0  0  0  0
 17 19  2  0  0  0  0
 17 35  1  0  0  0  0
 18 20  2  0  0  0  0
 18 36  1  0  0  0  0
 19 44  1  0  0  0  0
 20 37  1  0  0  0  0
 21 75  1  0  0  0  0
 22 76  1  0  0  0  0
 23 25  2  0  0  0  0
 23 75  1  0  0  0  0
 24 77  1  0  0  0  0
 25 78  1  0  0  0  0
 26 57  2  0  0  0  0
 27 58  1  0  0  0  0
 27 61  1  0  0  0  0
 28 62  1  0  0  0  0
 28 69  2  0  0  0  0
 29 45  1  0  0  0  0
 29 63  1  0  0  0  0
 29 70  2  0  0  0  0
 30 54  1  0  0  0  0
 30 59  1  0  0  0  0
 30 71  2  0  0  0  0
 31 52  1  0  0  0  0
 31 64  1  0  0  0  0
 31 67  2  0  0  0  0
 32 53  1  0  0  0  0
 32 64  1  0  0  0  0
 32 72  2  0  0  0  0
 33 55  1  0  0  0  0
 33 65  1  0  0  0  0
 33 73  2  0  0  0  0
 34 60  1  0  0  0  0
 34 66  1  0  0  0  0
 34 74  2  0  0  0  0
 35 38  1  0  0  0  0
 36 45  1  0  0  0  0
 37 59  1  0  0  0  0
 38 40  1  0  0  0  0
 39 41  1  0  0  0  0
 39 42  1  0  0  0  0
 40 44  1  0  0  0  0
 41 46  1  0  0  0  0
 42 60  1  0  0  0  0
 43 46  1  0  0  0  0
 43 60  1  0  0  0  0
 44 63  1  0  0  0  0
 45 59  1  0  0  0  0
 46 58  1  0  0  0  0
 47 55  1  0  0  0  0
 48 56  1  0  0  0  0
 49 56  1  0  0  0  0
 50 56  1  0  0  0  0
 51 68  1  0  0  0  0
 52 66  1  0  0  0  0
 53 76  1  0  0  0  0
 54 56  1  0  0  0  0
 54 65  1  0  0  0  0
 55 68  1  0  0  0  0
 57 58  1  0  0  0  0
M  CHG  2  67   1  68   1
M  ISO  4  34 100  53 101  66 100  76 101
M  END
> <Batch ID>
0073

> <Smiles>
CNC(C)C(=O)NC(C(=O)N1Cc2cc([101O:1][101CH2:1]C(=O)NC(=N)C[100NH:0][100C:0](=O)N3CCCC(n4nc(-c5ccc(Oc6ccc(F)cc6F)cc5)c(C(N)=O)c4N)C3)ccc2CC1C(=O)NC1CCCc2ccccc21)C(C)(C)C

> <Shape>
0.221

> <Color>
0.188

> <Negative vol penalty>
0.000

$$$$

  -OEChem-04042323413D

 85 94  0     1  0  0  0  0  0999 V2000
  -29.2206  -34.8696   22.4961 C   0  0  0  0  0  0  0  0  0  0  0  0
  -29.1615  -33.4799   22.4724 C   0  0  0  0  0  0  0  0  0  0  0  0
  -23.2698  -16.7457   21.7635 C   0  0  0  0  0  0  0  0  0  0  0  0
  -22.3990  -16.0021   19.6361 C   0  0  0  0  0  0  0  0  0  0  0  0
  -28.1041  -35.6071   22.8878 C   0  0  0  0  0  0  0  0  0  0  0  0
  -27.9861  -32.8268   22.8415 C   0  0  0  0  0  0  0  0  0  0  0  0
  -26.7654  -29.0792   19.6618 C   0  0  0  0  0  0  0  0  0  0  0  0
  -28.9751  -19.5577   21.4019 C   0  0  0  0  0  0  0  0  0  0  0  0
  -29.7841  -19.3697   19.1331 C   0  0  0  0  0  0  0  0  0  0  0  0
  -29.5007  -18.2991   21.6936 C   0  0  0  0  0  0  0  0  0  0  0  0
  -30.3098  -18.1110   19.4249 C   0  0  0  0  0  0  0  0  0  0  0  0
  -22.2770  -17.7233   21.8282 C   0  0  0  0  0  0  0  0  0  0  0  0
  -21.4061  -16.9797   19.7008 C   0  0  0  0  0  0  0  0  0  0  0  0
  -27.4643  -27.8800   19.7928 C   0  0  0  0  0  0  0  0  0  0  0  0
  -21.6945  -20.7734   20.4933 C   0  0  0  0  0  0  0  0  0  0  0  0
  -22.0755  -22.0584   20.8795 C   0  0  0  0  0  0  0  0  0  0  0  0
  -25.6127  -26.9422   21.0222 C   0  0  0  0  0  0  0  0  0  0  0  0
  -20.5730  -21.9364   22.7675 C   0  0  0  0  0  0  0  0  0  0  0  0
  -23.3308  -15.8851   20.6674 C   0  0  0  0  0  0  0  0  0  0  0  0
  -24.2856  -13.5574   21.0893 C   0  0  0  0  0  0  0  0  0  0  0  0
  -26.9114  -34.9630   23.2525 C   0  0  0  0  0  0  0  0  0  0  0  0
  -25.4872  -29.2228   20.2203 C   0  0  0  0  0  0  0  0  0  0  0  0
  -26.8530  -33.5563   23.2397 C   0  0  0  0  0  0  0  0  0  0  0  0
  -24.8986  -28.1434   20.8946 C   0  0  0  0  0  0  0  0  0  0  0  0
  -29.1167  -20.0930   20.1216 C   0  0  0  0  0  0  0  0  0  0  0  0
  -30.1681  -17.5757   20.7052 C   0  0  0  0  0  0  0  0  0  0  0  0
  -21.3451  -17.8403   20.7969 C   0  0  0  0  0  0  0  0  0  0  0  0
  -26.8892  -26.8122   20.4755 C   0  0  0  0  0  0  0  0  0  0  0  0
  -20.7527  -20.0699   21.2441 C   0  0  0  0  0  0  0  0  0  0  0  0
  -21.5148  -22.6399   22.0166 C   0  0  0  0  0  0  0  0  0  0  0  0
  -20.1919  -20.6514   22.3812 C   0  0  0  0  0  0  0  0  0  0  0  0
  -24.3565  -14.8754   20.5998 C   0  0  0  0  0  0  0  0  0  0  0  0
  -25.5066  -13.0100   20.7798 C   0  0  0  0  0  0  0  0  0  0  0  0
  -27.9134  -22.1761   20.6794 C   0  0  0  0  0  0  0  0  0  0  0  0
  -27.5416  -23.3151   20.0792 C   0  0  0  0  0  0  0  0  0  0  0  0
  -27.9990  -23.2727   18.6985 C   0  0  0  0  0  0  0  0  0  0  0  0
  -27.8364  -24.2069   17.7563 C   0  0  0  0  0  0  0  0  0  0  0  0
  -23.2118  -12.8878   21.7634 C   0  0  0  0  0  0  0  0  0  0  0  0
  -24.2079  -31.1031   22.4411 C   0  0  0  0  0  0  0  0  0  0  0  0
  -21.4488  -29.6793   21.5014 C   0  0  0  0  0  0  0  0  0  0  0  0
  -19.9220  -26.9907   20.0569 C   0  0  0  0  0  0  0  0  0  0  0  0
  -30.8171  -15.2751   20.0143 C   0  0  0  0  0  0  0  0  0  0  0  0
  -25.7456  -35.8012   23.7142 C   0  0  0  0  0  0  0  0  0  0  0  0
  -24.7354  -30.5140   20.0472 C   0  0  0  0  0  0  0  0  0  0  0  0
  -23.5207  -28.2396   21.4951 C   0  0  0  0  0  0  0  0  0  0  0  0
  -28.7152  -21.9469   18.4996 C   0  0  0  0  0  0  0  0  0  0  0  0
  -24.4200  -35.0443   23.7307 C   0  0  0  0  0  0  0  0  0  0  0  0
  -29.0660  -13.3267   17.6100 C   0  0  0  0  0  0  0  0  0  0  0  0
  -24.5928  -33.6794   24.3895 C   0  0  0  0  0  0  0  0  0  0  0  0
  -27.6387  -13.3857   18.1530 C   0  0  0  0  0  0  0  0  0  0  0  0
  -29.7928  -14.6631   17.7642 C   0  0  0  0  0  0  0  0  0  0  0  0
  -28.3551  -15.2558   19.6893 C   0  0  0  0  0  0  0  0  0  0  0  0
  -25.5881  -32.8123   23.6092 C   0  0  1  0  0  0  0  0  0  0  0  0
  -23.6502  -30.7194   21.0996 C   0  0  1  0  0  0  0  0  0  0  0  0
  -27.6195  -13.9096   19.5998 C   0  0  1  0  0  0  0  0  0  0  0  0
  -17.6532  -26.0977   19.4632 C   0  0  0  0  0  0  0  0  0  0  0  0
  -20.9651  -28.9685   24.4290 C   0  0  0  0  0  0  0  0  0  0  0  0
  -19.2495  -27.3103   23.6707 C   0  0  0  0  0  0  0  0  0  0  0  0
  -18.9320  -29.7380   23.1927 C   0  0  0  0  0  0  0  0  0  0  0  0
  -31.3801  -16.0756   22.2985 C   0  0  0  0  0  0  0  0  0  0  0  0
  -20.5751  -26.9251   17.1711 C   0  0  0  0  0  0  0  0  0  0  0  0
  -26.7945  -24.4454   20.6877 C   0  0  0  0  0  0  0  0  0  1  0  0
  -20.6886  -28.4428   21.9164 C   0  0  1  0  0  0  0  0  0  0  0  0
  -18.8546  -26.8960   18.9816 C   0  0  2  0  0  0  0  0  0  0  0  0
  -19.9856  -28.6134   23.2927 C   0  0  0  0  0  0  0  0  0  0  0  0
  -25.5299  -15.1489   20.0233 N   0  0  0  0  0  0  0  0  0  0  0  0
  -26.2076  -13.9951   20.1487 N   0  0  0  0  0  0  0  0  0  0  0  0
  -28.5981  -21.3302   19.8339 N   0  0  0  0  0  0  0  0  0  0  0  0
  -22.8284  -29.5249   21.3046 N   0  0  0  0  0  0  0  0  0  0  0  0
  -29.7129  -15.1427   19.1512 N   0  0  0  0  0  0  0  0  0  0  0  0
  -26.0385  -11.7869   20.9889 N   0  0  0  0  0  0  0  0  0  0  0  0
  -22.0267  -13.5971   22.0014 N   0  0  0  0  0  0  0  0  0  0  0  0
  -24.9604  -32.2619   22.4270 N   0  0  0  0  0  0  0  0  0  0  0  0
  -19.7817  -28.1329   20.8165 N   0  0  0  0  0  0  0  0  0  0  0  0
  -30.7124  -16.2727   21.0073 N   0  0  0  0  0  0  0  0  0  0  0  0
  -19.4026  -26.2325   17.7648 N   0  3  0  0  0  0  0  0  0  0  0  0
  -23.3067  -11.7008   22.1580 O   0  0  0  0  0  0  0  0  0  0  0  0
  -23.9716  -30.4006   23.4170 O   0  0  0  0  0  0  0  0  0  0  0  0
  -20.8398  -30.7413   21.3503 O   0  0  0  0  0  0  0  0  0  0  0  0
  -20.7908  -26.1350   20.2103 O   0  0  0  0  0  0  0  0  0  0  0  0
  -31.8087  -14.5416   19.9219 O   0  0  0  0  0  0  0  0  0  0  0  0
  -20.3760  -18.7939   20.8598 O   0  0  0  0  0  0  0  0  0  0  0  0
  -27.5695  -25.6408   20.6054 O   0  0  0  0  0  0  0  0  0  1  0  0
  -21.8819  -23.8733   22.3883 F   0  0  0  0  0  0  0  0  0  0  0  0
  -19.2875  -19.9800   23.1072 F   0  0  0  0  0  0  0  0  0  0  0  0
  1  2  1  0  0  0  0
  1  5  2  0  0  0  0
  2  6  2  0  0  0  0
  3 12  2  0  0  0  0
  3 19  1  0  0  0  0
  4 13  1  0  0  0  0
  4 19  2  0  0  0  0
  5 21  1  0  0  0  0
  6 23  1  0  0  0  0
  7 14  2  0  0  0  0
  7 22  1  0  0  0  0
  8 10  2  0  0  0  0
  8 25  1  0  0  0  0
  9 11  1  0  0  0  0
  9 25  2  0  0  0  0
 10 26  1  0  0  0  0
 11 26  2  0  0  0  0
 12 27  1  0  0  0  0
 13 27  2  0  0  0  0
 14 28  1  0  0  0  0
 15 16  2  0  0  0  0
 15 29  1  0  0  0  0
 16 30  1  0  0  0  0
 17 24  1  0  0  0  0
 17 28  2  0  0  0  0
 18 30  2  0  0  0  0
 18 31  1  0  0  0  0
 19 32  1  0  0  0  0
 20 32  1  0  0  0  0
 20 33  2  0  0  0  0
 20 38  1  0  0  0  0
 21 23  2  0  0  0  0
 21 43  1  0  0  0  0
 22 24  2  0  0  0  0
 22 44  1  0  0  0  0
 23 53  1  0  0  0  0
 24 45  1  0  0  0  0
 25 68  1  0  0  0  0
 26 75  1  0  0  0  0
 27 82  1  0  0  0  0
 28 83  1  0  0  0  0
 29 31  2  0  0  0  0
 29 82  1  0  0  0  0
 30 84  1  0  0  0  0
 31 85  1  0  0  0  0
 32 66  2  0  0  0  0
 33 67  1  0  0  0  0
 33 71  1  0  0  0  0
 34 35  2  0  0  0  0
 34 68  1  0  0  0  0
 35 36  1  0  0  0  0
 35 62  1  0  0  0  0
 36 37  2  0  0  0  0
 36 46  1  0  0  0  0
 38 72  1  0  0  0  0
 38 77  2  0  0  0  0
 39 54  1  0  0  0  0
 39 73  1  0  0  0  0
 39 78  2  0  0  0  0
 40 63  1  0  0  0  0
 40 69  1  0  0  0  0
 40 79  2  0  0  0  0
 41 64  1  0  0  0  0
 41 74  1  0  0  0  0
 41 80  2  0  0  0  0
 42 70  1  0  0  0  0
 42 75  1  0  0  0  0
 42 81  2  0  0  0  0
 43 47  1  0  0  0  0
 44 54  1  0  0  0  0
 45 69  1  0  0  0  0
 46 68  1  0  0  0  0
 47 49  1  0  0  0  0
 48 50  1  0  0  0  0
 48 51  1  0  0  0  0
 49 53  1  0  0  0  0
 50 55  1  0  0  0  0
 51 70  1  0  0  0  0
 52 55  1  0  0  0  0
 52 70  1  0  0  0  0
 53 73  1  0  0  0  0
 54 69  1  0  0  0  0
 55 67  1  0  0  0  0
 56 64  1  0  0  0  0
 57 65  1  0  0  0  0
 58 65  1  0  0  0  0
 59 65  1  0  0  0  0
 60 75  1  0  0  0  0
 61 76  1  0  0  0  0
 62 83  1  0  0  0  0
 63 65  1  0  0  0  0
 63 74  1  0  0  0  0
 64 76  1  0  0  0  0
 66 67  1  0  0  0  0
M  CHG  1  76   1
M  ISO  4  42 100  62 101  75 100  83 101
M  END
> <Batch ID>
0073

> <Smiles>
C=C1CN(c2ccc([100N:0](C)[100C:0](=O)N3CCCC(n4nc(-c5ccc(Oc6ccc(F)cc6F)cc5)c(C(N)=O)c4N)C3)cc2)C=C1[101CH2:1][101O:1]c1ccc2c(c1)CN(C(=O)C(NC(=O)C(C)NC)C(C)(C)C)C(C(=O)NC1CCCc3ccccc31)C2

> <Shape>
0.305

> <Color>
0.098

> <Negative vol penalty>
0.000

$$$$

  -OEChem-04042323413D

 84 92  0     1  0  0  0  0  0999 V2000
  -28.2892  -24.7083   16.5442 C   0  0  0  0  0  0  0  0  0  0  0  0
  -27.1039  -24.8581   17.2571 C   0  0  0  0  0  0  0  0  0  0  0  0
  -28.7763  -15.8970   21.6202 C   0  0  0  0  0  0  0  0  0  0  0  0
  -27.0484  -16.1070   19.9446 C   0  0  0  0  0  0  0  0  0  0  0  0
  -29.4756  -25.2412   17.0467 C   0  0  0  0  0  0  0  0  0  0  0  0
  -27.1046  -25.5398   18.4735 C   0  0  0  0  0  0  0  0  0  0  0  0
  -23.2420  -28.7892   18.8814 C   0  0  0  0  0  0  0  0  0  0  0  0
  -20.2219  -20.5093   21.4432 C   0  0  0  0  0  0  0  0  0  0  0  0
  -19.9477  -21.7694   23.4862 C   0  0  0  0  0  0  0  0  0  0  0  0
  -29.1215  -14.6466   21.1075 C   0  0  0  0  0  0  0  0  0  0  0  0
  -27.3936  -14.8566   19.4319 C   0  0  0  0  0  0  0  0  0  0  0  0
  -21.9911  -28.2560   19.1893 C   0  0  0  0  0  0  0  0  0  0  0  0
  -29.7938  -13.5606   17.4369 C   0  0  0  0  0  0  0  0  0  0  0  0
  -29.9010  -13.4369   16.0517 C   0  0  0  0  0  0  0  0  0  0  0  0
  -19.2851  -21.3279   20.8125 C   0  0  0  0  0  0  0  0  0  0  0  0
  -19.0109  -22.5881   22.8555 C   0  0  0  0  0  0  0  0  0  0  0  0
  -22.2916  -28.8979   21.4951 C   0  0  0  0  0  0  0  0  0  0  0  0
  -28.1657  -11.7559   16.0675 C   0  0  0  0  0  0  0  0  0  0  0  0
  -27.7397  -16.6272   21.0388 C   0  0  0  0  0  0  0  0  0  0  0  0
  -27.9048  -19.1686   21.1857 C   0  0  0  0  0  0  0  0  0  0  0  0
  -29.4890  -25.9382   18.2652 C   0  0  0  0  0  0  0  0  0  0  0  0
  -24.0331  -29.3721   19.8819 C   0  0  0  0  0  0  0  0  0  0  0  0
  -28.2925  -26.0813   18.9934 C   0  0  0  0  0  0  0  0  0  0  0  0
  -23.5511  -29.4401   21.1969 C   0  0  0  0  0  0  0  0  0  0  0  0
  -20.5532  -20.7300   22.7801 C   0  0  0  0  0  0  0  0  0  0  0  0
  -28.4302  -14.1264   20.0133 C   0  0  0  0  0  0  0  0  0  0  0  0
  -21.5170  -28.3076   20.4968 C   0  0  0  0  0  0  0  0  0  0  0  0
  -28.8726  -12.7819   18.1375 C   0  0  0  0  0  0  0  0  0  0  0  0
  -29.0869  -12.5346   15.3670 C   0  0  0  0  0  0  0  0  0  0  0  0
  -28.0586  -11.8796   17.4528 C   0  0  0  0  0  0  0  0  0  0  0  0
  -18.6796  -22.3673   21.5186 C   0  0  0  0  0  0  0  0  0  0  0  0
  -27.3822  -17.9187   21.5683 C   0  0  0  0  0  0  0  0  0  0  0  0
  -27.2443  -20.0744   21.9793 C   0  0  0  0  0  0  0  0  0  0  0  0
  -28.8985  -19.4828   20.2011 C   0  0  0  0  0  0  0  0  0  0  0  0
  -26.8899  -28.7504   21.1292 C   0  0  0  0  0  0  0  0  0  0  0  0
  -26.3701  -31.5312   22.7164 C   0  0  0  0  0  0  0  0  0  0  0  0
  -18.9699  -25.7697   20.8337 C   0  0  0  0  0  0  0  0  0  0  0  0
  -24.1270  -33.8009   23.9263 C   0  0  0  0  0  0  0  0  0  0  0  0
  -21.9462  -19.9812   24.7410 C   0  0  0  0  0  0  0  0  0  0  0  0
  -30.8045  -26.4555   18.7910 C   0  0  0  0  0  0  0  0  0  0  0  0
  -25.3687  -29.9667   19.5285 C   0  0  0  0  0  0  0  0  0  0  0  0
  -24.3528  -30.0733   22.3036 C   0  0  0  0  0  0  0  0  0  0  0  0
  -30.6515  -27.4884   19.9045 C   0  0  0  0  0  0  0  0  0  0  0  0
  -25.1308  -20.4620   26.2591 C   0  0  0  0  0  0  0  0  0  0  0  0
  -29.6338  -27.0137   20.9369 C   0  0  0  0  0  0  0  0  0  0  0  0
  -26.1173  -19.9838   25.1914 C   0  0  0  0  0  0  0  0  0  0  0  0
  -23.8618  -19.6118   26.2803 C   0  0  0  0  0  0  0  0  0  0  0  0
  -24.1732  -18.9935   23.9160 C   0  0  0  0  0  0  0  0  0  0  0  0
  -28.2483  -26.8358   20.3044 C   0  0  1  0  0  0  0  0  0  0  0  0
  -26.3095  -30.0759   20.7244 C   0  0  1  0  0  0  0  0  0  0  0  0
  -25.4393  -19.8596   23.8128 C   0  0  2  0  0  0  0  0  0  0  0  0
  -24.0003  -35.9519   25.2125 C   0  0  0  0  0  0  0  0  0  0  0  0
  -26.9353  -30.0149   25.3032 C   0  0  0  0  0  0  0  0  0  0  0  0
  -25.8858  -31.9085   26.5606 C   0  0  0  0  0  0  0  0  0  0  0  0
  -27.9361  -32.3043   25.1960 C   0  0  0  0  0  0  0  0  0  0  0  0
  -22.8430  -35.2127   21.6642 C   0  0  0  0  0  0  0  0  0  0  0  0
  -19.8463  -26.6859   20.0125 C   0  0  0  0  0  0  0  0  0  1  0  0
  -25.7281  -31.9087   24.0295 C   0  0  1  0  0  0  0  0  0  0  0  0
  -24.0768  -35.3153   23.8335 C   0  0  2  0  0  0  0  0  0  0  0  0
  -26.6068  -31.5204   25.2521 C   0  0  0  0  0  0  0  0  0  0  0  0
  -26.4608  -18.0176   22.5302 N   0  0  0  0  0  0  0  0  0  0  0  0
  -26.3993  -19.3405   22.7588 N   0  0  0  0  0  0  0  0  0  0  0  0
  -25.6552  -30.6351   21.9091 N   0  0  0  0  0  0  0  0  0  0  0  0
  -23.2722  -19.5426   24.9414 N   0  0  0  0  0  0  0  0  0  0  0  0
  -27.3097  -21.4191   22.0794 N   0  0  0  0  0  0  0  0  0  0  0  0
  -29.4756  -18.4319   19.4753 N   0  0  0  0  0  0  0  0  0  0  0  0
  -21.5049  -19.8984   23.4208 N   0  0  0  0  0  0  0  0  0  0  0  0
  -27.6044  -28.1199   20.1284 N   0  0  0  0  0  0  0  0  0  0  0  0
  -25.4239  -33.3328   23.9406 N   0  0  0  0  0  0  0  0  0  0  0  0
  -18.5018  -24.6358   20.0952 N   0  0  0  0  0  0  0  0  0  0  0  0
  -22.8850  -35.7469   23.0498 N   0  3  0  0  0  0  0  0  0  0  0  0
  -29.2756  -20.6592   19.9831 O   0  0  0  0  0  0  0  0  0  0  0  0
  -26.7046  -28.3314   22.2657 O   0  0  0  0  0  0  0  0  0  0  0  0
  -27.4622  -32.0190   22.4148 O   0  0  0  0  0  0  0  0  0  0  0  0
  -18.6934  -25.9782   22.0094 O   0  0  0  0  0  0  0  0  0  0  0  0
  -23.1169  -33.1032   23.9843 O   0  0  0  0  0  0  0  0  0  0  0  0
  -21.2625  -20.4250   25.6671 O   0  0  0  0  0  0  0  0  0  0  0  0
  -16.6243  -23.9642   21.7375 O   0  0  0  0  0  0  0  0  0  0  0  0
  -16.9376  -22.6380   19.6203 O   0  0  0  0  0  0  0  0  0  0  0  0
  -28.7669  -12.9064   19.5126 O   0  0  0  0  0  0  0  0  0  0  0  0
  -20.2967  -27.7873   20.8001 O   0  0  0  0  0  0  0  0  0  1  0  0
  -29.1888  -12.4171   14.0366 F   0  0  0  0  0  0  0  0  0  0  0  0
  -27.1709  -11.1296   18.1202 F   0  0  0  0  0  0  0  0  0  0  0  0
  -17.4922  -23.4044   20.7195 S   0  0  0  0  0  0  0  0  0  0  0  0
  1  2  1  0  0  0  0
  1  5  2  0  0  0  0
  2  6  2  0  0  0  0
  3 10  2  0  0  0  0
  3 19  1  0  0  0  0
  4 11  1  0  0  0  0
  4 19  2  0  0  0  0
  5 21  1  0  0  0  0
  6 23  1  0  0  0  0
  7 12  2  0  0  0  0
  7 22  1  0  0  0  0
  8 15  2  0  0  0  0
  8 25  1  0  0  0  0
  9 16  1  0  0  0  0
  9 25  2  0  0  0  0
 10 26  1  0  0  0  0
 11 26  2  0  0  0  0
 12 27  1  0  0  0  0
 13 14  2  0  0  0  0
 13 28  1  0  0  0  0
 14 29  1  0  0  0  0
 15 31  1  0  0  0  0
 16 31  2  0  0  0  0
 17 24  1  0  0  0  0
 17 27  2  0  0  0  0
 18 29  2  0  0  0  0
 18 30  1  0  0  0  0
 19 32  1  0  0  0  0
 20 32  1  0  0  0  0
 20 33  2  0  0  0  0
 20 34  1  0  0  0  0
 21 23  2  0  0  0  0
 21 40  1  0  0  0  0
 22 24  2  0  0  0  0
 22 41  1  0  0  0  0
 23 49  1  0  0  0  0
 24 42  1  0  0  0  0
 25 67  1  0  0  0  0
 26 80  1  0  0  0  0
 27 81  1  0  0  0  0
 28 30  2  0  0  0  0
 28 80  1  0  0  0  0
 29 82  1  0  0  0  0
 30 83  1  0  0  0  0
 31 84  1  0  0  0  0
 32 61  2  0  0  0  0
 33 62  1  0  0  0  0
 33 65  1  0  0  0  0
 34 66  1  0  0  0  0
 34 72  2  0  0  0  0
 35 50  1  0  0  0  0
 35 68  1  0  0  0  0
 35 73  2  0  0  0  0
 36 58  1  0  0  0  0
 36 63  1  0  0  0  0
 36 74  2  0  0  0  0
 37 57  1  0  0  0  0
 37 70  1  0  0  0  0
 37 75  2  0  0  0  0
 38 59  1  0  0  0  0
 38 69  1  0  0  0  0
 38 76  2  0  0  0  0
 39 64  1  0  0  0  0
 39 67  1  0  0  0  0
 39 77  2  0  0  0  0
 40 43  1  0  0  0  0
 41 50  1  0  0  0  0
 42 63  1  0  0  0  0
 43 45  1  0  0  0  0
 44 46  1  0  0  0  0
 44 47  1  0  0  0  0
 45 49  1  0  0  0  0
 46 51  1  0  0  0  0
 47 64  1  0  0  0  0
 48 51  1  0  0  0  0
 48 64  1  0  0  0  0
 49 68  1  0  0  0  0
 50 63  1  0  0  0  0
 51 62  1  0  0  0  0
 52 59  1  0  0  0  0
 53 60  1  0  0  0  0
 54 60  1  0  0  0  0
 55 60  1  0  0  0  0
 56 71  1  0  0  0  0
 57 81  1  0  0  0  0
 58 60  1  0  0  0  0
 58 69  1  0  0  0  0
 59 71  1  0  0  0  0
 61 62  1  0  0  0  0
 70 84  1  0  0  0  0
 78 84  2  0  0  0  0
 79 84  2  0  0  0  0
M  CHG  1  71   1
M  ISO  4  39 100  57 101  67 100  81 101
M  END
> <Batch ID>
0073

> <Smiles>
CNC(C)C(=O)NC(C(=O)N1Cc2cc([101O:1][101CH2:1]C(=O)NS(=O)(=O)c3ccc([100NH:0][100C:0](=O)N4CCCC(n5nc(-c6ccc(Oc7ccc(F)cc7F)cc6)c(C(N)=O)c5N)C4)cc3)ccc2CC1C(=O)NC1CCCc2ccccc21)C(C)(C)C

> <Shape>
0.268

> <Color>
0.070

> <Negative vol penalty>
0.000

$$$$

  -OEChem-04042323413D

 84 93  0     1  0  0  0  0  0999 V2000
  -27.5852  -35.8745   13.6414 C   0  0  0  0  0  0  0  0  0  0  0  0
  -27.7391  -34.5354   13.9856 C   0  0  0  0  0  0  0  0  0  0  0  0
  -24.7208   -9.0201   21.3893 C   0  0  0  0  0  0  0  0  0  0  0  0
  -23.2042  -10.8938   21.5506 C   0  0  0  0  0  0  0  0  0  0  0  0
  -27.8466  -36.8694   14.5825 C   0  0  0  0  0  0  0  0  0  0  0  0
  -28.1555  -34.1904   15.2709 C   0  0  0  0  0  0  0  0  0  0  0  0
  -26.4330  -29.2843   18.5064 C   0  0  0  0  0  0  0  0  0  0  0  0
  -24.0100   -8.3586   22.3908 C   0  0  0  0  0  0  0  0  0  0  0  0
  -22.4934  -10.2323   22.5520 C   0  0  0  0  0  0  0  0  0  0  0  0
  -27.0349  -28.0458   18.7243 C   0  0  0  0  0  0  0  0  0  0  0  0
  -22.3806   -6.0248   24.6521 C   0  0  0  0  0  0  0  0  0  0  0  0
  -22.0858   -4.6758   24.4550 C   0  0  0  0  0  0  0  0  0  0  0  0
  -27.9548  -28.8646   20.7986 C   0  0  0  0  0  0  0  0  0  0  0  0
  -28.0863  -19.4016   20.1487 C   0  0  0  0  0  0  0  0  0  0  0  0
  -20.8463   -5.2382   22.4589 C   0  0  0  0  0  0  0  0  0  0  0  0
  -25.8612  -18.7409   20.2689 C   0  0  0  0  0  0  0  0  0  0  0  0
  -24.3179  -10.2877   20.9693 C   0  0  0  0  0  0  0  0  0  0  0  0
  -24.8252  -10.9079   18.5473 C   0  0  0  0  0  0  0  0  0  0  0  0
  -28.2571  -36.5362   15.8829 C   0  0  0  0  0  0  0  0  0  0  0  0
  -26.5967  -30.3275   19.4292 C   0  0  0  0  0  0  0  0  0  0  0  0
  -28.4239  -35.1819   16.2299 C   0  0  0  0  0  0  0  0  0  0  0  0
  -27.3518  -30.1146   20.5913 C   0  0  0  0  0  0  0  0  0  0  0  0
  -27.1689  -18.3129   20.2041 C   0  0  0  0  0  0  0  0  0  0  0  0
  -22.8963   -8.9647   22.9721 C   0  0  0  0  0  0  0  0  0  0  0  0
  -27.7984  -27.8367   19.8691 C   0  0  0  0  0  0  0  0  0  0  0  0
  -21.9082   -6.9806   23.7526 C   0  0  0  0  0  0  0  0  0  0  0  0
  -21.3187   -4.2825   23.3585 C   0  0  0  0  0  0  0  0  0  0  0  0
  -21.1411   -6.5873   22.6560 C   0  0  0  0  0  0  0  0  0  0  0  0
  -25.0520  -10.9718   19.9352 C   0  0  0  0  0  0  0  0  0  0  0  0
  -25.7822  -11.7302   18.0048 C   0  0  0  0  0  0  0  0  0  0  0  0
  -27.4447  -20.6205   20.1730 C   0  0  0  0  0  0  0  0  0  0  0  0
  -29.3833  -23.6912   20.1234 C   0  0  0  0  0  0  0  0  0  0  0  0
  -29.2912  -22.1966   20.0637 C   0  0  0  0  0  0  0  0  0  0  0  0
  -23.8377  -10.1711   17.8141 C   0  0  0  0  0  0  0  0  0  0  0  0
  -27.8729  -33.2367   19.3227 C   0  0  0  0  0  0  0  0  0  0  0  0
  -26.6615  -33.4538   22.3240 C   0  0  0  0  0  0  0  0  0  0  0  0
  -25.6088  -31.8498   25.1464 C   0  0  0  0  0  0  0  0  0  0  0  0
  -28.8225  -16.4137   20.1322 C   0  0  0  0  0  0  0  0  0  0  0  0
  -28.5735  -37.6481   16.8516 C   0  0  0  0  0  0  0  0  0  0  0  0
  -25.9187  -31.6492   19.1927 C   0  0  0  0  0  0  0  0  0  0  0  0
  -27.5415  -31.1956   21.6228 C   0  0  0  0  0  0  0  0  0  0  0  0
  -28.6496  -37.1867   18.3047 C   0  0  0  0  0  0  0  0  0  0  0  0
  -30.1950  -13.3960   18.8335 C   0  0  0  0  0  0  0  0  0  0  0  0
  -29.4834  -35.9143   18.4178 C   0  0  0  0  0  0  0  0  0  0  0  0
  -29.0098  -12.4278   18.8366 C   0  0  0  0  0  0  0  0  0  0  0  0
  -30.1696  -14.3275   20.0441 C   0  0  0  0  0  0  0  0  0  0  0  0
  -27.1126  -23.0925   20.1713 C   0  0  0  0  0  0  0  0  0  0  0  0
  -27.7256  -14.0899   20.2421 C   0  0  0  0  0  0  0  0  0  0  0  0
  -28.8500  -34.7671   17.6215 C   0  0  1  0  0  0  0  0  0  0  0  0
  -28.0404  -24.2840   20.4237 C   0  0  2  0  0  0  0  0  0  0  0  0
  -26.5767  -32.8014   19.9456 C   0  0  1  0  0  0  0  0  0  0  0  0
  -27.6725  -13.1747   19.0079 C   0  0  2  0  0  0  0  0  0  0  0  0
  -24.7094  -32.2959   27.4463 C   0  0  0  0  0  0  0  0  0  0  0  0
  -29.4544  -34.2508   23.2590 C   0  0  0  0  0  0  0  0  0  0  0  0
  -28.7342  -33.7564   25.6053 C   0  0  0  0  0  0  0  0  0  0  0  0
  -27.5930  -35.5532   24.3046 C   0  0  0  0  0  0  0  0  0  0  0  0
  -23.0941  -30.3995   24.5704 C   0  0  0  0  0  0  0  0  0  0  0  0
  -27.7287  -25.4809   19.5509 C   0  0  0  0  0  0  0  0  0  1  0  0
  -27.1710  -33.1328   23.7083 C   0  0  1  0  0  0  0  0  0  0  0  0
  -24.3598  -32.0161   25.9930 C   0  0  2  0  0  0  0  0  0  0  0  0
  -28.2364  -34.1534   24.1991 C   0  0  0  0  0  0  0  0  0  0  0  0
  -26.0731  -11.7714   20.2545 N   0  0  0  0  0  0  0  0  0  0  0  0
  -26.4965  -12.2175   19.0596 N   0  0  0  0  0  0  0  0  0  0  0  0
  -27.9412  -21.8938   20.1370 N   0  0  0  0  0  0  0  0  0  0  0  0
  -26.8639  -32.4724   21.3433 N   0  0  0  0  0  0  0  0  0  0  0  0
  -28.8741  -15.0038   20.1397 N   0  0  0  0  0  0  0  0  0  0  0  0
  -26.0740  -12.0768   16.7331 N   0  0  0  0  0  0  0  0  0  0  0  0
  -22.9314   -9.3752   18.5279 N   0  0  0  0  0  0  0  0  0  0  0  0
  -27.5343  -16.9439   20.1951 N   0  0  0  0  0  0  0  0  0  0  0  0
  -27.7311  -34.2053   18.3475 N   0  0  0  0  0  0  0  0  0  0  0  0
  -25.9938  -33.0394   24.5650 N   0  0  0  0  0  0  0  0  0  0  0  0
  -23.5292  -30.7799   25.9390 N   0  3  0  0  0  0  0  0  0  0  0  0
  -30.4423  -24.2658   19.9701 O   0  0  0  0  0  0  0  0  0  0  0  0
  -30.2790  -21.4979   19.9673 O   0  0  0  0  0  0  0  0  0  0  0  0
  -23.7716  -10.2043   16.5619 O   0  0  0  0  0  0  0  0  0  0  0  0
  -28.9240  -32.7323   19.7000 O   0  0  0  0  0  0  0  0  0  0  0  0
  -26.0981  -34.5324   22.1219 O   0  0  0  0  0  0  0  0  0  0  0  0
  -26.1874  -30.7733   25.0170 O   0  0  0  0  0  0  0  0  0  0  0  0
  -29.8441  -17.1001   20.0467 O   0  0  0  0  0  0  0  0  0  0  0  0
  -22.2024   -8.3194   23.9491 O   0  0  0  0  0  0  0  0  0  0  0  0
  -28.3876  -26.6290   20.0839 O   0  0  0  0  0  0  0  0  0  1  0  0
  -21.0369   -2.9868   23.1685 F   0  0  0  0  0  0  0  0  0  0  0  0
  -20.6854   -7.5008   21.7878 F   0  0  0  0  0  0  0  0  0  0  0  0
  -25.7433  -20.4493   20.2626 S   0  0  0  0  0  0  0  0  0  0  0  0
  1  2  1  0  0  0  0
  1  5  2  0  0  0  0
  2  6  2  0  0  0  0
  3  8  2  0  0  0  0
  3 17  1  0  0  0  0
  4  9  1  0  0  0  0
  4 17  2  0  0  0  0
  5 19  1  0  0  0  0
  6 21  1  0  0  0  0
  7 10  2  0  0  0  0
  7 20  1  0  0  0  0
  8 24  1  0  0  0  0
  9 24  2  0  0  0  0
 10 25  1  0  0  0  0
 11 12  2  0  0  0  0
 11 26  1  0  0  0  0
 12 27  1  0  0  0  0
 13 22  1  0  0  0  0
 13 25  2  0  0  0  0
 14 23  1  0  0  0  0
 14 31  2  0  0  0  0
 15 27  2  0  0  0  0
 15 28  1  0  0  0  0
 16 23  2  0  0  0  0
 16 84  1  0  0  0  0
 17 29  1  0  0  0  0
 18 29  1  0  0  0  0
 18 30  2  0  0  0  0
 18 34  1  0  0  0  0
 19 21  2  0  0  0  0
 19 39  1  0  0  0  0
 20 22  2  0  0  0  0
 20 40  1  0  0  0  0
 21 49  1  0  0  0  0
 22 41  1  0  0  0  0
 23 69  1  0  0  0  0
 24 80  1  0  0  0  0
 25 81  1  0  0  0  0
 26 28  2  0  0  0  0
 26 80  1  0  0  0  0
 27 82  1  0  0  0  0
 28 83  1  0  0  0  0
 29 62  2  0  0  0  0
 30 63  1  0  0  0  0
 30 67  1  0  0  0  0
 31 64  1  0  0  0  0
 31 84  1  0  0  0  0
 32 33  1  0  0  0  0
 32 50  1  0  0  0  0
 32 73  2  0  0  0  0
 33 64  1  0  0  0  0
 33 74  2  0  0  0  0
 34 68  1  0  0  0  0
 34 75  2  0  0  0  0
 35 51  1  0  0  0  0
 35 70  1  0  0  0  0
 35 76  2  0  0  0  0
 36 59  1  0  0  0  0
 36 65  1  0  0  0  0
 36 77  2  0  0  0  0
 37 60  1  0  0  0  0
 37 71  1  0  0  0  0
 37 78  2  0  0  0  0
 38 66  1  0  0  0  0
 38 69  1  0  0  0  0
 38 79  2  0  0  0  0
 39 42  1  0  0  0  0
 40 51  1  0  0  0  0
 41 65  1  0  0  0  0
 42 44  1  0  0  0  0
 43 45  1  0  0  0  0
 43 46  1  0  0  0  0
 44 49  1  0  0  0  0
 45 52  1  0  0  0  0
 46 66  1  0  0  0  0
 47 50  1  0  0  0  0
 47 64  1  0  0  0  0
 48 52  1  0  0  0  0
 48 66  1  0  0  0  0
 49 70  1  0  0  0  0
 50 58  1  0  0  0  0
 51 65  1  0  0  0  0
 52 63  1  0  0  0  0
 53 60  1  0  0  0  0
 54 61  1  0  0  0  0
 55 61  1  0  0  0  0
 56 61  1  0  0  0  0
 57 72  1  0  0  0  0
 58 81  1  0  0  0  0
 59 61  1  0  0  0  0
 59 71  1  0  0  0  0
 60 72  1  0  0  0  0
 62 63  1  0  0  0  0
M  CHG  1  72   1
M  ISO  4  38 100  58 101  69 100  81 101
M  END
> <Batch ID>
0073

> <Smiles>
CNC(C)C(=O)NC(C(=O)N1Cc2cc([101O:1][101CH2:1]C3CN(c4cc([100NH:0][100C:0](=O)N5CCCC(n6nc(-c7ccc(Oc8ccc(F)cc8F)cc7)c(C(N)=O)c6N)C5)cs4)C(=O)C3=O)ccc2CC1C(=O)NC1CCCc2ccccc21)C(C)(C)C

> <Shape>
0.264

> <Color>
0.106

> <Negative vol penalty>
0.000

$$$$

  -OEChem-04042323413D

 85 94  0     1  0  0  0  0  0999 V2000
  -32.5862  -28.4720   16.1443 C   0  0  0  0  0  0  0  0  0  0  0  0
  -31.7048  -27.8375   17.0139 C   0  0  0  0  0  0  0  0  0  0  0  0
  -22.3605  -12.3448   18.2151 C   0  0  0  0  0  0  0  0  0  0  0  0
  -23.1421  -10.2482   19.1264 C   0  0  0  0  0  0  0  0  0  0  0  0
  -30.1648  -19.3288   21.9496 C   0  0  0  0  0  0  0  0  0  0  0  0
  -28.5946  -18.5209   20.3007 C   0  0  0  0  0  0  0  0  0  0  0  0
  -33.0687  -29.7443   16.4483 C   0  0  0  0  0  0  0  0  0  0  0  0
  -31.3064  -28.4746   18.1885 C   0  0  0  0  0  0  0  0  0  0  0  0
  -26.3254  -28.0862   19.0157 C   0  0  0  0  0  0  0  0  0  0  0  0
  -29.3426  -20.4288   22.1935 C   0  0  0  0  0  0  0  0  0  0  0  0
  -27.7724  -19.6209   20.5447 C   0  0  0  0  0  0  0  0  0  0  0  0
  -21.3634  -11.6680   17.5129 C   0  0  0  0  0  0  0  0  0  0  0  0
  -22.1449   -9.5713   18.4242 C   0  0  0  0  0  0  0  0  0  0  0  0
  -25.8566  -26.8748   19.5222 C   0  0  0  0  0  0  0  0  0  0  0  0
  -19.5794   -7.3297   17.1547 C   0  0  0  0  0  0  0  0  0  0  0  0
  -18.8573   -6.3495   17.8353 C   0  0  0  0  0  0  0  0  0  0  0  0
  -25.7740  -27.8379   21.7324 C   0  0  0  0  0  0  0  0  0  0  0  0
  -18.1076   -8.0063   19.4260 C   0  0  0  0  0  0  0  0  0  0  0  0
  -23.2499  -11.6350   19.0219 C   0  0  0  0  0  0  0  0  0  0  0  0
  -29.7908  -18.3748   21.0031 C   0  0  0  0  0  0  0  0  0  0  0  0
  -24.1051  -13.3368   20.7189 C   0  0  0  0  0  0  0  0  0  0  0  0
  -32.6684  -30.4013   17.6225 C   0  0  0  0  0  0  0  0  0  0  0  0
  -26.5327  -29.1811   19.8669 C   0  0  0  0  0  0  0  0  0  0  0  0
  -31.7850  -29.7563   18.5091 C   0  0  0  0  0  0  0  0  0  0  0  0
  -26.2430  -29.0629   21.2337 C   0  0  0  0  0  0  0  0  0  0  0  0
  -28.1464  -20.5749   21.4911 C   0  0  0  0  0  0  0  0  0  0  0  0
  -21.2556  -10.2812   17.6174 C   0  0  0  0  0  0  0  0  0  0  0  0
  -25.5836  -26.7496   20.8812 C   0  0  0  0  0  0  0  0  0  0  0  0
  -19.5657   -8.6482   17.6098 C   0  0  0  0  0  0  0  0  0  0  0  0
  -18.1214   -6.6877   18.9710 C   0  0  0  0  0  0  0  0  0  0  0  0
  -18.8298   -8.9865   18.7454 C   0  0  0  0  0  0  0  0  0  0  0  0
  -24.2805  -12.3336   19.7471 C   0  0  0  0  0  0  0  0  0  0  0  0
  -25.3812  -13.6723   21.1003 C   0  0  0  0  0  0  0  0  0  0  0  0
  -27.6153  -22.5908   22.5932 C   0  0  0  0  0  0  0  0  0  0  0  0
  -30.6667  -17.2036   20.7429 C   0  0  0  0  0  0  0  0  0  0  0  0
  -22.8967  -13.9138   21.2312 C   0  0  0  0  0  0  0  0  0  0  0  0
  -29.0567  -30.9178   20.7136 C   0  0  0  0  0  0  0  0  0  0  0  0
  -26.8242  -32.7057   22.2440 C   0  0  0  0  0  0  0  0  0  0  0  0
  -23.7286  -32.8756   23.6706 C   0  0  0  0  0  0  0  0  0  0  0  0
  -30.6635  -14.8663   19.9298 C   0  0  0  0  0  0  0  0  0  0  0  0
  -33.2536  -31.7565   17.9316 C   0  0  0  0  0  0  0  0  0  0  0  0
  -27.0134  -30.4890   19.3005 C   0  0  0  0  0  0  0  0  0  0  0  0
  -26.4294  -30.2144   22.1864 C   0  0  0  0  0  0  0  0  0  0  0  0
  -32.4900  -32.5176   19.0122 C   0  0  0  0  0  0  0  0  0  0  0  0
  -29.8158  -11.4386   20.1009 C   0  0  0  0  0  0  0  0  0  0  0  0
  -32.1941  -31.6063   20.1991 C   0  0  0  0  0  0  0  0  0  0  0  0
  -28.2848  -11.4454   20.1123 C   0  0  0  0  0  0  0  0  0  0  0  0
  -30.3812  -12.5199   19.1811 C   0  0  0  0  0  0  0  0  0  0  0  0
  -28.3447  -13.8787   19.4345 C   0  0  0  0  0  0  0  0  0  0  0  0
  -26.0534  -21.9067   21.0871 C   0  0  0  0  0  0  0  0  0  0  0  0
  -31.3101  -30.4251   19.7808 C   0  0  1  0  0  0  0  0  0  0  0  0
  -27.6771  -31.3836   20.3429 C   0  0  1  0  0  0  0  0  0  0  0  0
  -27.7274  -12.8540   20.3999 C   0  0  1  0  0  0  0  0  0  0  0  0
  -25.6205  -23.2493   21.7153 C   0  0  2  0  0  0  0  0  0  0  0  0
  -22.1977  -34.4598   24.8724 C   0  0  0  0  0  0  0  0  0  0  0  0
  -28.4864  -32.3826   24.7822 C   0  0  0  0  0  0  0  0  0  0  0  0
  -26.4943  -33.1345   26.0991 C   0  0  0  0  0  0  0  0  0  0  0  0
  -27.5421  -34.6726   24.4380 C   0  0  0  0  0  0  0  0  0  0  0  0
  -21.6634  -32.6632   21.5614 C   0  0  0  0  0  0  0  0  0  0  0  0
  -25.5422  -24.3780   20.7097 C   0  0  0  0  0  0  0  0  0  1  0  0
  -26.2020  -32.6912   23.6193 C   0  0  1  0  0  0  0  0  0  0  0  0
  -22.6061  -33.8871   23.5241 C   0  0  2  0  0  0  0  0  0  0  0  0
  -27.1794  -33.1978   24.7173 C   0  0  0  0  0  0  0  0  0  0  0  0
  -25.5667  -12.0503   19.5247 N   0  0  0  0  0  0  0  0  0  0  0  0
  -26.2111  -12.8807   20.3622 N   0  0  0  0  0  0  0  0  0  0  0  0
  -27.3552  -21.6352   21.7249 N   0  0  0  0  0  0  0  0  0  0  0  0
  -26.9074  -31.4706   21.5855 N   0  0  0  0  0  0  0  0  0  0  0  0
  -29.8115  -13.8241   19.5247 N   0  0  0  0  0  0  0  0  0  0  0  0
  -26.6993  -23.5362   22.6702 N   0  3  0  0  0  0  0  0  0  0  0  0
  -25.8632  -14.5644   21.9916 N   0  0  0  0  0  0  0  0  0  0  0  0
  -22.2964  -13.3226   22.3512 N   0  0  0  0  0  0  0  0  0  0  0  0
  -30.0191  -16.0589   20.2773 N   0  0  0  0  0  0  0  0  0  0  0  0
  -29.9324  -30.8475   19.6470 N   0  0  0  0  0  0  0  0  0  0  0  0
  -24.9673  -33.4615   23.5169 N   0  0  0  0  0  0  0  0  0  0  0  0
  -21.4112  -33.2485   22.9033 N   0  3  0  0  0  0  0  0  0  0  0  0
  -31.8785  -17.3146   20.9079 O   0  0  0  0  0  0  0  0  0  0  0  0
  -22.3560  -14.9140   20.7012 O   0  0  0  0  0  0  0  0  0  0  0  0
  -29.3085  -30.6440   21.8813 O   0  0  0  0  0  0  0  0  0  0  0  0
  -27.2152  -33.7745   21.7683 O   0  0  0  0  0  0  0  0  0  0  0  0
  -23.5269  -31.6856   23.9022 O   0  0  0  0  0  0  0  0  0  0  0  0
  -31.8888  -14.7352   20.0120 O   0  0  0  0  0  0  0  0  0  0  0  0
  -20.2826   -9.6204   16.9325 O   0  0  0  0  0  0  0  0  0  0  0  0
  -25.1266  -25.5682   21.3783 O   0  0  0  0  0  0  0  0  0  1  0  0
  -17.4267   -5.7466   19.6236 F   0  0  0  0  0  0  0  0  0  0  0  0
  -18.8119  -10.2517   19.1866 F   0  0  0  0  0  0  0  0  0  0  0  0
  1  2  1  0  0  0  0
  1  7  2  0  0  0  0
  2  8  2  0  0  0  0
  3 12  2  0  0  0  0
  3 19  1  0  0  0  0
  4 13  1  0  0  0  0
  4 19  2  0  0  0  0
  5 10  2  0  0  0  0
  5 20  1  0  0  0  0
  6 11  1  0  0  0  0
  6 20  2  0  0  0  0
  7 22  1  0  0  0  0
  8 24  1  0  0  0  0
  9 14  2  0  0  0  0
  9 23  1  0  0  0  0
 10 26  1  0  0  0  0
 11 26  2  0  0  0  0
 12 27  1  0  0  0  0
 13 27  2  0  0  0  0
 14 28  1  0  0  0  0
 15 16  2  0  0  0  0
 15 29  1  0  0  0  0
 16 30  1  0  0  0  0
 17 25  1  0  0  0  0
 17 28  2  0  0  0  0
 18 30  2  0  0  0  0
 18 31  1  0  0  0  0
 19 32  1  0  0  0  0
 20 35  1  0  0  0  0
 21 32  1  0  0  0  0
 21 33  2  0  0  0  0
 21 36  1  0  0  0  0
 22 24  2  0  0  0  0
 22 41  1  0  0  0  0
 23 25  2  0  0  0  0
 23 42  1  0  0  0  0
 24 51  1  0  0  0  0
 25 43  1  0  0  0  0
 26 66  1  0  0  0  0
 27 82  1  0  0  0  0
 28 83  1  0  0  0  0
 29 31  2  0  0  0  0
 29 82  1  0  0  0  0
 30 84  1  0  0  0  0
 31 85  1  0  0  0  0
 32 64  2  0  0  0  0
 33 65  1  0  0  0  0
 33 70  1  0  0  0  0
 34 66  1  0  0  0  0
 34 69  2  0  0  0  0
 35 72  1  0  0  0  0
 35 76  2  0  0  0  0
 36 71  1  0  0  0  0
 36 77  2  0  0  0  0
 37 52  1  0  0  0  0
 37 73  1  0  0  0  0
 37 78  2  0  0  0  0
 38 61  1  0  0  0  0
 38 67  1  0  0  0  0
 38 79  2  0  0  0  0
 39 62  1  0  0  0  0
 39 74  1  0  0  0  0
 39 80  2  0  0  0  0
 40 68  1  0  0  0  0
 40 72  1  0  0  0  0
 40 81  2  0  0  0  0
 41 44  1  0  0  0  0
 42 52  1  0  0  0  0
 43 67  1  0  0  0  0
 44 46  1  0  0  0  0
 45 47  1  0  0  0  0
 45 48  1  0  0  0  0
 46 51  1  0  0  0  0
 47 53  1  0  0  0  0
 48 68  1  0  0  0  0
 49 53  1  0  0  0  0
 49 68  1  0  0  0  0
 50 54  1  0  0  0  0
 50 66  1  0  0  0  0
 51 73  1  0  0  0  0
 52 67  1  0  0  0  0
 53 65  1  0  0  0  0
 54 60  1  0  0  0  0
 54 69  1  0  0  0  0
 55 62  1  0  0  0  0
 56 63  1  0  0  0  0
 57 63  1  0  0  0  0
 58 63  1  0  0  0  0
 59 75  1  0  0  0  0
 60 83  1  0  0  0  0
 61 63  1  0  0  0  0
 61 74  1  0  0  0  0
 62 75  1  0  0  0  0
 64 65  1  0  0  0  0
M  CHG  2  69   1  75   1
M  ISO  4  40 100  60 101  72 100  83 101
M  END
> <Batch ID>
0073

> <Smiles>
CNC(C)C(=O)NC(C(=O)N1Cc2cc([101O:1][101CH2:1]C3CN(c4ccc(C(=O)[100NH:0][100C:0](=O)N5CCCC(n6nc(-c7ccc(Oc8ccc(F)cc8F)cc7)c(C(N)=O)c6N)C5)cc4)C=N3)ccc2CC1C(=O)NC1CCCc2ccccc21)C(C)(C)C

> <Shape>
0.217

> <Color>
0.133

> <Negative vol penalty>
0.000

$$$$

  -OEChem-04042323413D

 86 95  0     1  0  0  0  0  0999 V2000
  -27.5978  -24.6918   16.2820 C   0  0  0  0  0  0  0  0  0  0  0  0
  -26.4402  -24.9035   17.0242 C   0  0  0  0  0  0  0  0  0  0  0  0
  -26.5608  -12.9409   21.8638 C   0  0  0  0  0  0  0  0  0  0  0  0
  -25.5736  -14.5355   20.3408 C   0  0  0  0  0  0  0  0  0  0  0  0
  -28.8286  -25.1242   16.7739 C   0  0  0  0  0  0  0  0  0  0  0  0
  -26.5131  -25.5467   18.2592 C   0  0  0  0  0  0  0  0  0  0  0  0
  -22.9003  -29.0471   18.8427 C   0  0  0  0  0  0  0  0  0  0  0  0
  -21.8574  -23.1413   24.7757 C   0  0  0  0  0  0  0  0  0  0  0  0
  -22.8873  -22.2633   25.1129 C   0  0  0  0  0  0  0  0  0  0  0  0
  -25.8562  -11.9104   21.2417 C   0  0  0  0  0  0  0  0  0  0  0  0
  -24.8689  -13.5050   19.7186 C   0  0  0  0  0  0  0  0  0  0  0  0
  -21.6209  -28.5945   19.1619 C   0  0  0  0  0  0  0  0  0  0  0  0
  -22.7120  -10.6705   21.2732 C   0  0  0  0  0  0  0  0  0  0  0  0
  -22.0770   -9.7353   22.0903 C   0  0  0  0  0  0  0  0  0  0  0  0
  -22.0110  -29.1441   21.4782 C   0  0  0  0  0  0  0  0  0  0  0  0
  -22.4125  -22.8944   22.4373 C   0  0  0  0  0  0  0  0  0  0  0  0
  -23.4035   -7.9732   21.1041 C   0  0  0  0  0  0  0  0  0  0  0  0
  -26.4195  -14.2535   21.4134 C   0  0  0  0  0  0  0  0  0  0  0  0
  -28.4290  -15.7943   21.7226 C   0  0  0  0  0  0  0  0  0  0  0  0
  -28.9153  -25.7817   18.0112 C   0  0  0  0  0  0  0  0  0  0  0  0
  -23.7502  -29.5423   19.8422 C   0  0  0  0  0  0  0  0  0  0  0  0
  -27.7464  -25.9871   18.7688 C   0  0  0  0  0  0  0  0  0  0  0  0
  -23.2998  -29.6047   21.1686 C   0  0  0  0  0  0  0  0  0  0  0  0
  -23.4426  -22.0164   22.7746 C   0  0  0  0  0  0  0  0  0  0  0  0
  -21.6199  -23.4569   23.4378 C   0  0  0  0  0  0  0  0  0  0  0  0
  -23.6799  -21.7008   24.1124 C   0  0  0  0  0  0  0  0  0  0  0  0
  -25.0103  -12.1924   20.1690 C   0  0  0  0  0  0  0  0  0  0  0  0
  -21.1771  -28.6402   20.4803 C   0  0  0  0  0  0  0  0  0  0  0  0
  -23.6927  -10.2572   20.3715 C   0  0  0  0  0  0  0  0  0  0  0  0
  -22.4228   -8.3866   22.0058 C   0  0  0  0  0  0  0  0  0  0  0  0
  -24.0385   -8.9085   20.2870 C   0  0  0  0  0  0  0  0  0  0  0  0
  -27.1467  -15.3186   22.0561 C   0  0  0  0  0  0  0  0  0  0  0  0
  -28.6660  -16.8032   22.6240 C   0  0  0  0  0  0  0  0  0  0  0  0
  -18.7997  -25.7846   23.2579 C   0  0  0  0  0  0  0  0  0  0  0  0
  -19.1110  -25.6466   21.9671 C   0  0  0  0  0  0  0  0  0  0  0  0
  -19.7395  -24.9446   24.0270 C   0  0  0  0  0  0  0  0  0  0  0  0
  -29.3257  -15.3628   20.6904 C   0  0  0  0  0  0  0  0  0  0  0  0
  -26.5791  -28.6832   21.0095 C   0  0  0  0  0  0  0  0  0  0  0  0
  -26.2896  -31.4449   22.6863 C   0  0  0  0  0  0  0  0  0  0  0  0
  -24.2378  -33.8301   24.0084 C   0  0  0  0  0  0  0  0  0  0  0  0
  -25.0727  -20.4018   25.7614 C   0  0  0  0  0  0  0  0  0  0  0  0
  -30.2743  -26.1888   18.5233 C   0  0  0  0  0  0  0  0  0  0  0  0
  -25.1176  -30.0515   19.4772 C   0  0  0  0  0  0  0  0  0  0  0  0
  -24.1659  -30.1462   22.2755 C   0  0  0  0  0  0  0  0  0  0  0  0
  -20.2602  -24.7240   21.7484 C   0  0  0  0  0  0  0  0  0  0  0  0
  -30.2168  -27.1961   19.6689 C   0  0  0  0  0  0  0  0  0  0  0  0
  -27.5441  -18.1959   27.0665 C   0  0  0  0  0  0  0  0  0  0  0  0
  -29.1881  -26.7637   20.7089 C   0  0  0  0  0  0  0  0  0  0  0  0
  -27.8438  -17.2548   25.8974 C   0  0  0  0  0  0  0  0  0  0  0  0
  -26.0656  -18.5762   27.1238 C   0  0  0  0  0  0  0  0  0  0  0  0
  -25.8147  -18.1768   24.7058 C   0  0  0  0  0  0  0  0  0  0  0  0
  -27.7814  -26.7031   20.1015 C   0  0  1  0  0  0  0  0  0  0  0  0
  -26.0868  -30.0580   20.6554 C   0  0  1  0  0  0  0  0  0  0  0  0
  -27.3032  -17.8174   24.5682 C   0  0  2  0  0  0  0  0  0  0  0  0
  -24.2746  -21.4269   21.6823 C   0  0  0  0  0  0  0  0  0  0  0  0
  -24.2895  -35.9451   25.3579 C   0  0  0  0  0  0  0  0  0  0  0  0
  -26.7954  -29.8156   25.2160 C   0  0  0  0  0  0  0  0  0  0  0  0
  -25.9080  -31.7400   26.5492 C   0  0  0  0  0  0  0  0  0  0  0  0
  -27.9545  -32.0308   25.1527 C   0  0  0  0  0  0  0  0  0  0  0  0
  -23.0139  -35.3962   21.8156 C   0  0  0  0  0  0  0  0  0  0  0  0
  -18.4300  -26.3087   20.8149 C   0  0  0  0  0  0  0  0  0  0  0  0
  -19.3861  -27.1557   19.9859 C   0  0  0  0  0  0  0  0  0  1  0  0
  -25.7017  -31.8273   24.0232 C   0  0  1  0  0  0  0  0  0  0  0  0
  -24.2937  -35.3463   23.9600 C   0  0  2  0  0  0  0  0  0  0  0  0
  -26.5741  -31.3414   25.2149 C   0  0  0  0  0  0  0  0  0  0  0  0
  -26.6069  -15.9714   23.0887 N   0  0  0  0  0  0  0  0  0  0  0  0
  -27.5547  -16.8677   23.4120 N   0  0  0  0  0  0  0  0  0  0  0  0
  -20.5921  -24.3295   23.1019 N   0  0  0  0  0  0  0  0  0  0  0  0
  -25.4971  -30.6262   21.8693 N   0  0  0  0  0  0  0  0  0  0  0  0
  -25.6250  -19.1053   25.8312 N   0  0  0  0  0  0  0  0  0  0  0  0
  -29.7146  -17.6325   22.8114 N   0  0  0  0  0  0  0  0  0  0  0  0
  -28.9246  -14.3132   19.8526 N   0  0  0  0  0  0  0  0  0  0  0  0
  -24.7202  -20.8098   24.4753 N   0  0  0  0  0  0  0  0  0  0  0  0
  -27.2274  -28.0342   19.9761 N   0  0  0  0  0  0  0  0  0  0  0  0
  -25.4981  -33.2714   23.9815 N   0  0  0  0  0  0  0  0  0  0  0  0
  -23.1207  -35.8844   23.2147 N   0  3  0  0  0  0  0  0  0  0  0  0
  -19.7249  -24.8465   25.2433 O   0  0  0  0  0  0  0  0  0  0  0  0
  -30.4560  -15.8814   20.5265 O   0  0  0  0  0  0  0  0  0  0  0  0
  -26.3865  -28.2445   22.1374 O   0  0  0  0  0  0  0  0  0  0  0  0
  -27.4076  -31.8633   22.3753 O   0  0  0  0  0  0  0  0  0  0  0  0
  -23.1818  -33.2041   24.0681 O   0  0  0  0  0  0  0  0  0  0  0  0
  -24.9487  -21.1093   26.7644 O   0  0  0  0  0  0  0  0  0  0  0  0
  -24.3227  -11.1871   19.5615 O   0  0  0  0  0  0  0  0  0  0  0  0
  -19.9289  -28.1985   20.7948 O   0  0  0  0  0  0  0  0  0  1  0  0
  -21.8141   -7.4887   22.7916 F   0  0  0  0  0  0  0  0  0  0  0  0
  -24.9807   -8.5055   19.4235 F   0  0  0  0  0  0  0  0  0  0  0  0
  1  2  1  0  0  0  0
  1  5  2  0  0  0  0
  2  6  2  0  0  0  0
  3 10  2  0  0  0  0
  3 18  1  0  0  0  0
  4 11  1  0  0  0  0
  4 18  2  0  0  0  0
  5 20  1  0  0  0  0
  6 22  1  0  0  0  0
  7 12  2  0  0  0  0
  7 21  1  0  0  0  0
  8  9  2  0  0  0  0
  8 25  1  0  0  0  0
  9 26  1  0  0  0  0
 10 27  1  0  0  0  0
 11 27  2  0  0  0  0
 12 28  1  0  0  0  0
 13 14  2  0  0  0  0
 13 29  1  0  0  0  0
 14 30  1  0  0  0  0
 15 23  1  0  0  0  0
 15 28  2  0  0  0  0
 16 24  1  0  0  0  0
 16 25  2  0  0  0  0
 17 30  2  0  0  0  0
 17 31  1  0  0  0  0
 18 32  1  0  0  0  0
 19 32  1  0  0  0  0
 19 33  2  0  0  0  0
 19 37  1  0  0  0  0
 20 22  2  0  0  0  0
 20 42  1  0  0  0  0
 21 23  2  0  0  0  0
 21 43  1  0  0  0  0
 22 52  1  0  0  0  0
 23 44  1  0  0  0  0
 24 26  2  0  0  0  0
 24 55  1  0  0  0  0
 25 68  1  0  0  0  0
 26 73  1  0  0  0  0
 27 83  1  0  0  0  0
 28 84  1  0  0  0  0
 29 31  2  0  0  0  0
 29 83  1  0  0  0  0
 30 85  1  0  0  0  0
 31 86  1  0  0  0  0
 32 66  2  0  0  0  0
 33 67  1  0  0  0  0
 33 71  1  0  0  0  0
 34 35  2  0  0  0  0
 34 36  1  0  0  0  0
 35 45  1  0  0  0  0
 35 61  1  0  0  0  0
 36 68  1  0  0  0  0
 36 77  2  0  0  0  0
 37 72  1  0  0  0  0
 37 78  2  0  0  0  0
 38 53  1  0  0  0  0
 38 74  1  0  0  0  0
 38 79  2  0  0  0  0
 39 63  1  0  0  0  0
 39 69  1  0  0  0  0
 39 80  2  0  0  0  0
 40 64  1  0  0  0  0
 40 75  1  0  0  0  0
 40 81  2  0  0  0  0
 41 70  1  0  0  0  0
 41 73  1  0  0  0  0
 41 82  2  0  0  0  0
 42 46  1  0  0  0  0
 43 53  1  0  0  0  0
 44 69  1  0  0  0  0
 45 68  1  0  0  0  0
 46 48  1  0  0  0  0
 47 49  1  0  0  0  0
 47 50  1  0  0  0  0
 48 52  1  0  0  0  0
 49 54  1  0  0  0  0
 50 70  1  0  0  0  0
 51 54  1  0  0  0  0
 51 70  1  0  0  0  0
 52 74  1  0  0  0  0
 53 69  1  0  0  0  0
 54 67  1  0  0  0  0
 56 64  1  0  0  0  0
 57 65  1  0  0  0  0
 58 65  1  0  0  0  0
 59 65  1  0  0  0  0
 60 76  1  0  0  0  0
 61 62  1  0  0  0  0
 62 84  1  0  0  0  0
 63 65  1  0  0  0  0
 63 75  1  0  0  0  0
 64 76  1  0  0  0  0
 66 67  1  0  0  0  0
M  CHG  1  76   1
M  ISO  4  41 100  62 101  73 100  84 101
M  END
> <Batch ID>
0073

> <Smiles>
CNC(C)C(=O)NC(C(=O)N1Cc2cc([101O:1][101CH2:1]C=C3CC(=O)N(c4ccc([100NH:0][100C:0](=O)N5CCCC(n6nc(-c7ccc(Oc8ccc(F)cc8F)cc7)c(C(N)=O)c6N)C5)c(C)c4)C3)ccc2CC1C(=O)NC1CCCc2ccccc21)C(C)(C)C

> <Shape>
0.279

> <Color>
0.085

> <Negative vol penalty>
0.000

$$$$

  -OEChem-04042323413D

 87 96  0     1  0  0  0  0  0999 V2000
  -34.2310  -36.2733   28.7367 C   0  0  0  0  0  0  0  0  0  0  0  0
  -34.1279  -35.3045   27.7436 C   0  0  0  0  0  0  0  0  0  0  0  0
  -23.7615   -9.7533   21.1171 C   0  0  0  0  0  0  0  0  0  0  0  0
  -24.3657  -10.6245   23.2880 C   0  0  0  0  0  0  0  0  0  0  0  0
  -33.2262  -36.3969   29.6954 C   0  0  0  0  0  0  0  0  0  0  0  0
  -33.0202  -34.4581   27.7092 C   0  0  0  0  0  0  0  0  0  0  0  0
  -30.2651  -32.2010   22.7271 C   0  0  0  0  0  0  0  0  0  0  0  0
  -28.4335  -19.2309   20.8609 C   0  0  0  0  0  0  0  0  0  0  0  0
  -30.1759  -18.8234   19.2375 C   0  0  0  0  0  0  0  0  0  0  0  0
  -23.2324   -8.6132   21.7218 C   0  0  0  0  0  0  0  0  0  0  0  0
  -23.8366   -9.4843   23.8928 C   0  0  0  0  0  0  0  0  0  0  0  0
  -30.3608  -30.9705   22.0787 C   0  0  0  0  0  0  0  0  0  0  0  0
  -28.3391  -20.5534   20.4276 C   0  0  0  0  0  0  0  0  0  0  0  0
  -30.0814  -20.1459   18.8042 C   0  0  0  0  0  0  0  0  0  0  0  0
  -20.4022   -7.7460   23.3560 C   0  0  0  0  0  0  0  0  0  0  0  0
  -19.1590   -7.2949   22.9128 C   0  0  0  0  0  0  0  0  0  0  0  0
  -28.4200  -30.1926   23.2818 C   0  0  0  0  0  0  0  0  0  0  0  0
  -20.1513   -5.1862   22.2757 C   0  0  0  0  0  0  0  0  0  0  0  0
  -24.3283  -10.7589   21.9002 C   0  0  0  0  0  0  0  0  0  0  0  0
  -24.1989  -13.1360   20.9833 C   0  0  0  0  0  0  0  0  0  0  0  0
  -32.1010  -35.5580   29.6670 C   0  0  0  0  0  0  0  0  0  0  0  0
  -29.2510  -32.4332   23.6674 C   0  0  0  0  0  0  0  0  0  0  0  0
  -32.0001  -34.5698   28.6691 C   0  0  0  0  0  0  0  0  0  0  0  0
  -28.3121  -31.4278   23.9389 C   0  0  0  0  0  0  0  0  0  0  0  0
  -29.3520  -18.3659   20.2659 C   0  0  0  0  0  0  0  0  0  0  0  0
  -23.2699   -8.4787   23.1097 C   0  0  0  0  0  0  0  0  0  0  0  0
  -29.1630  -21.0109   19.3992 C   0  0  0  0  0  0  0  0  0  0  0  0
  -29.4398  -29.9651   22.3581 C   0  0  0  0  0  0  0  0  0  0  0  0
  -21.5200   -6.9173   23.2590 C   0  0  0  0  0  0  0  0  0  0  0  0
  -19.0335   -6.0150   22.3727 C   0  0  0  0  0  0  0  0  0  0  0  0
  -21.3946   -5.6374   22.7189 C   0  0  0  0  0  0  0  0  0  0  0  0
  -24.8755  -11.9367   21.2760 C   0  0  0  0  0  0  0  0  0  0  0  0
  -25.1518  -13.9340   20.3988 C   0  0  0  0  0  0  0  0  0  0  0  0
  -30.5395  -25.6459   22.8315 C   0  0  0  0  0  0  0  0  0  0  0  0
  -29.8115  -26.3982   21.9894 C   0  0  0  0  0  0  0  0  0  0  0  0
  -22.8313  -13.4965   21.2188 C   0  0  0  0  0  0  0  0  0  0  0  0
  -29.1832  -33.1150   26.7713 C   0  0  0  0  0  0  0  0  0  0  0  0
  -25.9996  -33.4298   26.2350 C   0  0  0  0  0  0  0  0  0  0  0  0
  -23.2913  -32.6301   24.3186 C   0  0  0  0  0  0  0  0  0  0  0  0
  -30.3054  -16.0345   20.2229 C   0  0  0  0  0  0  0  0  0  0  0  0
  -31.0634  -35.6981   30.7525 C   0  0  0  0  0  0  0  0  0  0  0  0
  -29.1455  -33.7752   24.3385 C   0  0  0  0  0  0  0  0  0  0  0  0
  -27.1924  -31.6337   24.9250 C   0  0  0  0  0  0  0  0  0  0  0  0
  -31.3129  -24.4377   22.3906 C   0  0  0  0  0  0  0  0  0  0  0  0
  -29.7000  -26.0445   20.5322 C   0  0  0  0  0  0  0  0  0  0  0  0
  -29.7412  -35.0096   30.4238 C   0  0  0  0  0  0  0  0  0  0  0  0
  -29.8079  -12.8330   18.7464 C   0  0  0  0  0  0  0  0  0  0  0  0
  -29.9906  -33.6048   29.8842 C   0  0  0  0  0  0  0  0  0  0  0  0
  -28.4247  -12.4131   19.2488 C   0  0  0  0  0  0  0  0  0  0  0  0
  -30.5893  -13.6004   19.8115 C   0  0  0  0  0  0  0  0  0  0  0  0
  -28.5001  -14.3299   20.8941 C   0  0  0  0  0  0  0  0  0  0  0  0
  -31.4940  -24.3406   20.8778 C   0  0  0  0  0  0  0  0  0  0  0  0
  -30.8019  -33.6493   28.5838 C   0  0  1  0  0  0  0  0  0  0  0  0
  -28.3804  -33.7252   25.6574 C   0  0  1  0  0  0  0  0  0  0  0  0
  -27.6503  -13.6103   19.8341 C   0  0  2  0  0  0  0  0  0  0  0  0
  -20.8161  -33.0077   24.1509 C   0  0  0  0  0  0  0  0  0  0  0  0
  -25.5467  -31.4604   28.5211 C   0  0  0  0  0  0  0  0  0  0  0  0
  -23.2026  -31.1513   27.6978 C   0  0  0  0  0  0  0  0  0  0  0  0
  -23.9619  -33.3946   28.4811 C   0  0  0  0  0  0  0  0  0  0  0  0
  -23.5505  -33.9196   21.6674 C   0  0  0  0  0  0  0  0  0  0  0  0
  -29.0670  -27.6177   22.4409 C   0  0  0  0  0  0  0  0  0  1  0  0
  -30.2293  -24.3970   18.7212 C   0  0  0  0  0  0  0  0  0  0  0  0
  -30.2567  -22.9036   18.4625 C   0  0  0  0  0  0  0  0  0  0  0  0
  -24.8116  -32.4992   26.2746 C   0  0  1  0  0  0  0  0  0  0  0  0
  -22.1926  -33.4890   23.7191 C   0  0  2  0  0  0  0  0  0  0  0  0
  -24.4028  -32.1215   27.7264 C   0  0  0  0  0  0  0  0  0  0  0  0
  -26.1591  -11.9657   20.9077 N   0  0  0  0  0  0  0  0  0  0  0  0
  -26.2966  -13.1929   20.3775 N   0  0  0  0  0  0  0  0  0  0  0  0
  -27.1353  -32.9607   25.5599 N   0  0  0  0  0  0  0  0  0  0  0  0
  -29.7952  -14.7224   20.3167 N   0  0  0  0  0  0  0  0  0  0  0  0
  -25.1138  -15.1902   19.9061 N   0  0  0  0  0  0  0  0  0  0  0  0
  -21.9885  -12.5577   21.8292 N   0  0  0  0  0  0  0  0  0  0  0  0
  -29.4480  -17.0225   20.7060 N   0  0  0  0  0  0  0  0  0  0  0  0
  -29.9544  -34.0228   27.4718 N   0  0  0  0  0  0  0  0  0  0  0  0
  -23.7561  -33.1517   25.5073 N   0  0  0  0  0  0  0  0  0  0  0  0
  -30.1807  -24.6429   20.2020 N   0  3  2  0  0  0  0  0  0  0  0  0
  -22.2585  -33.4501   22.2308 N   0  3  0  0  0  0  0  0  0  0  0  0
  -22.3662  -14.6119   20.8824 O   0  0  0  0  0  0  0  0  0  0  0  0
  -29.1074  -31.9100   26.9808 O   0  0  0  0  0  0  0  0  0  0  0  0
  -25.9202  -34.5352   26.7767 O   0  0  0  0  0  0  0  0  0  0  0  0
  -23.6942  -31.5975   23.7875 O   0  0  0  0  0  0  0  0  0  0  0  0
  -31.4095  -16.2674   19.7240 O   0  0  0  0  0  0  0  0  0  0  0  0
  -22.7535   -7.3664   23.7001 O   0  0  0  0  0  0  0  0  0  0  0  0
  -29.5313  -28.7628   21.7271 O   0  0  0  0  0  0  0  0  0  1  0  0
  -29.0703  -22.3103   18.9734 O   0  0  0  0  0  0  0  0  0  0  0  0
  -17.8392   -5.5813   21.9486 F   0  0  0  0  0  0  0  0  0  0  0  0
  -22.4646   -4.8363   22.6241 F   0  0  0  0  0  0  0  0  0  0  0  0
  1  2  1  0  0  0  0
  1  5  2  0  0  0  0
  2  6  2  0  0  0  0
  3 10  2  0  0  0  0
  3 19  1  0  0  0  0
  4 11  1  0  0  0  0
  4 19  2  0  0  0  0
  5 21  1  0  0  0  0
  6 23  1  0  0  0  0
  7 12  2  0  0  0  0
  7 22  1  0  0  0  0
  8 13  2  0  0  0  0
  8 25  1  0  0  0  0
  9 14  1  0  0  0  0
  9 25  2  0  0  0  0
 10 26  1  0  0  0  0
 11 26  2  0  0  0  0
 12 28  1  0  0  0  0
 13 27  1  0  0  0  0
 14 27  2  0  0  0  0
 15 16  2  0  0  0  0
 15 29  1  0  0  0  0
 16 30  1  0  0  0  0
 17 24  1  0  0  0  0
 17 28  2  0  0  0  0
 18 30  2  0  0  0  0
 18 31  1  0  0  0  0
 19 32  1  0  0  0  0
 20 32  1  0  0  0  0
 20 33  2  0  0  0  0
 20 36  1  0  0  0  0
 21 23  2  0  0  0  0
 21 41  1  0  0  0  0
 22 24  2  0  0  0  0
 22 42  1  0  0  0  0
 23 53  1  0  0  0  0
 24 43  1  0  0  0  0
 25 73  1  0  0  0  0
 26 83  1  0  0  0  0
 27 85  1  0  0  0  0
 28 84  1  0  0  0  0
 29 31  2  0  0  0  0
 29 83  1  0  0  0  0
 30 86  1  0  0  0  0
 31 87  1  0  0  0  0
 32 67  2  0  0  0  0
 33 68  1  0  0  0  0
 33 71  1  0  0  0  0
 34 35  2  0  0  0  0
 34 44  1  0  0  0  0
 35 45  1  0  0  0  0
 35 61  1  0  0  0  0
 36 72  1  0  0  0  0
 36 78  2  0  0  0  0
 37 54  1  0  0  0  0
 37 74  1  0  0  0  0
 37 79  2  0  0  0  0
 38 64  1  0  0  0  0
 38 69  1  0  0  0  0
 38 80  2  0  0  0  0
 39 65  1  0  0  0  0
 39 75  1  0  0  0  0
 39 81  2  0  0  0  0
 40 70  1  0  0  0  0
 40 73  1  0  0  0  0
 40 82  2  0  0  0  0
 41 46  1  0  0  0  0
 42 54  1  0  0  0  0
 43 69  1  0  0  0  0
 44 52  1  0  0  0  0
 45 76  1  0  0  0  0
 46 48  1  0  0  0  0
 47 49  1  0  0  0  0
 47 50  1  0  0  0  0
 48 53  1  0  0  0  0
 49 55  1  0  0  0  0
 50 70  1  0  0  0  0
 51 55  1  0  0  0  0
 51 70  1  0  0  0  0
 52 76  1  0  0  0  0
 53 74  1  0  0  0  0
 54 69  1  0  0  0  0
 55 68  1  0  0  0  0
 56 65  1  0  0  0  0
 57 66  1  0  0  0  0
 58 66  1  0  0  0  0
 59 66  1  0  0  0  0
 60 77  1  0  0  0  0
 61 84  1  0  0  0  0
 62 63  1  0  0  0  0
 62 76  1  0  0  0  0
 63 85  1  0  0  0  0
 64 66  1  0  0  0  0
 64 75  1  0  0  0  0
 65 77  1  0  0  0  0
 67 68  1  0  0  0  0
M  CHG  2  76   1  77   1
M  ISO  4  40 100  61 101  73 100  84 101
M  END
> <Batch ID>
0073

> <Smiles>
CNC(C)C(=O)NC(C(=O)N1Cc2cc([101O:1][101CH2:1]C3=CCCN(CCOc4ccc([100NH:0][100C:0](=O)N5CCCC(n6nc(-c7ccc(Oc8ccc(F)cc8F)cc7)c(C(N)=O)c6N)C5)cc4)C3)ccc2CC1C(=O)NC1CCCc2ccccc21)C(C)(C)C

> <Shape>
0.273

> <Color>
0.139

> <Negative vol penalty>
0.000

$$$$

  -OEChem-04042323413D

 91100  0     1  0  0  0  0  0999 V2000
  -23.3020  -16.0995   17.0647 C   0  0  0  0  0  0  0  0  0  0  0  0
  -23.7191  -17.3368   16.5845 C   0  0  0  0  0  0  0  0  0  0  0  0
  -19.7063  -21.0944   21.9483 C   0  0  0  0  0  0  0  0  0  0  0  0
  -17.9943  -21.3174   20.2583 C   0  0  0  0  0  0  0  0  0  0  0  0
  -24.6461  -30.4819   20.6395 C   0  0  0  0  0  0  0  0  0  0  0  0
  -23.6301  -15.7102   18.3627 C   0  0  0  0  0  0  0  0  0  0  0  0
  -24.4636  -18.1860   17.4024 C   0  0  0  0  0  0  0  0  0  0  0  0
  -29.6526  -23.1142   17.0803 C   0  0  0  0  0  0  0  0  0  0  0  0
  -25.8785  -30.0808   20.1239 C   0  0  0  0  0  0  0  0  0  0  0  0
  -19.2869  -19.7883   22.2009 C   0  0  0  0  0  0  0  0  0  0  0  0
  -17.5749  -20.0113   20.5109 C   0  0  0  0  0  0  0  0  0  0  0  0
  -29.9250  -24.4196   17.4871 C   0  0  0  0  0  0  0  0  0  0  0  0
  -18.8998  -16.2722   23.0387 C   0  0  0  0  0  0  0  0  0  0  0  0
  -19.8810  -15.2889   23.1649 C   0  0  0  0  0  0  0  0  0  0  0  0
  -30.5004  -23.6081   19.6848 C   0  0  0  0  0  0  0  0  0  0  0  0
  -26.1749  -28.5837   21.9969 C   0  0  0  0  0  0  0  0  0  0  0  0
  -20.6349  -15.7529   20.9169 C   0  0  0  0  0  0  0  0  0  0  0  0
  -19.0600  -21.8590   20.9770 C   0  0  0  0  0  0  0  0  0  0  0  0
  -24.1781  -29.9340   21.8338 C   0  0  0  0  0  0  0  0  0  0  0  0
  -20.4640  -23.6250   19.7864 C   0  0  0  0  0  0  0  0  0  0  0  0
  -24.3872  -16.5510   19.1936 C   0  0  0  0  0  0  0  0  0  0  0  0
  -29.7918  -22.0454   17.9773 C   0  0  0  0  0  0  0  0  0  0  0  0
  -24.8010  -17.8081   18.7132 C   0  0  0  0  0  0  0  0  0  0  0  0
  -30.2316  -22.2898   19.2861 C   0  0  0  0  0  0  0  0  0  0  0  0
  -24.9424  -28.9849   22.5125 C   0  0  0  0  0  0  0  0  0  0  0  0
  -26.6429  -29.1317   20.8025 C   0  0  0  0  0  0  0  0  0  0  0  0
  -18.2212  -19.2467   21.4822 C   0  0  0  0  0  0  0  0  0  0  0  0
  -30.3462  -24.6670   18.7903 C   0  0  0  0  0  0  0  0  0  0  0  0
  -18.7860  -16.9958   21.8516 C   0  0  0  0  0  0  0  0  0  0  0  0
  -20.7486  -15.0293   22.1040 C   0  0  0  0  0  0  0  0  0  0  0  0
  -19.6536  -16.7362   20.7907 C   0  0  0  0  0  0  0  0  0  0  0  0
  -19.4924  -23.2084   20.7160 C   0  0  0  0  0  0  0  0  0  0  0  0
  -20.5062  -24.9910   19.9227 C   0  0  0  0  0  0  0  0  0  0  0  0
  -28.5406  -29.0981   19.1759 C   0  0  0  0  0  0  0  0  0  0  0  0
  -22.8624  -30.3801   22.3600 C   0  0  0  0  0  0  0  0  0  0  0  0
  -21.2574  -22.8467   18.8806 C   0  0  0  0  0  0  0  0  0  0  0  0
  -27.8174  -19.8827   19.2134 C   0  0  0  0  0  0  0  0  0  0  0  0
  -30.5555  -18.6617   20.4522 C   0  0  0  0  0  0  0  0  0  0  0  0
  -23.4478  -26.2810   24.6471 C   0  0  0  0  0  0  0  0  0  0  0  0
  -33.7823  -19.1915   21.4286 C   0  0  0  0  0  0  0  0  0  0  0  0
  -20.6181  -29.5789   23.0270 C   0  0  0  0  0  0  0  0  0  0  0  0
  -24.6770  -16.1067   20.6054 C   0  0  0  0  0  0  0  0  0  0  0  0
  -29.5197  -20.6401   17.5151 C   0  0  0  0  0  0  0  0  0  0  0  0
  -30.4164  -21.1750   20.2818 C   0  0  0  0  0  0  0  0  0  0  0  0
  -25.7884  -16.9069   21.2798 C   0  0  0  0  0  0  0  0  0  0  0  0
  -17.4404  -28.1511   22.4265 C   0  0  0  0  0  0  0  0  0  0  0  0
  -25.5820  -18.4015   21.0549 C   0  0  0  0  0  0  0  0  0  0  0  0
  -17.7678  -26.7737   21.8434 C   0  0  0  0  0  0  0  0  0  0  0  0
  -18.4205  -28.5477   23.5297 C   0  0  0  0  0  0  0  0  0  0  0  0
  -20.1631  -27.0903   22.5825 C   0  0  0  0  0  0  0  0  0  0  0  0
  -28.8399  -27.7808   20.7928 C   0  0  0  0  0  0  0  0  0  0  0  0
  -25.6313  -18.7466   19.5616 C   0  0  1  0  0  0  0  0  0  0  0  0
  -29.2009  -19.6853   18.6615 C   0  0  1  0  0  0  0  0  0  0  0  0
  -19.2471  -26.6759   21.4196 C   0  0  1  0  0  0  0  0  0  0  0  0
  -29.7001  -28.1268   19.5404 C   0  0  2  0  0  0  0  0  0  0  0  0
  -23.0151  -24.9119   24.2387 C   0  0  0  0  0  0  0  0  0  0  0  0
  -31.0184  -28.8282   19.8487 C   0  0  0  0  0  0  0  0  0  0  0  0
  -35.7542  -18.0117   22.4371 C   0  0  0  0  0  0  0  0  0  0  0  0
  -29.2183  -18.7744   23.1925 C   0  0  0  0  0  0  0  0  0  0  0  0
  -31.4810  -18.5074   24.2303 C   0  0  0  0  0  0  0  0  0  0  0  0
  -30.5599  -16.7064   22.7707 C   0  0  0  0  0  0  0  0  0  0  0  0
  -35.4571  -19.7057   19.0433 C   0  0  0  0  0  0  0  0  0  0  0  0
  -24.4652  -28.3833   23.7940 C   0  0  0  0  0  0  0  0  0  0  0  0
  -29.8740  -26.9865   18.5601 C   0  0  0  0  0  0  0  0  0  1  0  0
  -31.3401  -18.8719   21.7247 C   0  0  1  0  0  0  0  0  0  0  0  0
  -35.0593  -18.4202   21.1476 C   0  0  2  0  0  0  0  0  0  0  0  0
  -30.6446  -18.2365   22.9616 C   0  0  0  0  0  0  0  0  0  0  0  0
  -18.9562  -24.2274   21.3930 N   0  0  0  0  0  0  0  0  0  0  0  0
  -19.5932  -25.2977   20.8883 N   0  0  0  0  0  0  0  0  0  0  0  0
  -27.8579  -28.7368   20.2934 N   0  0  0  0  0  0  0  0  0  0  0  0
  -30.1316  -19.8191   19.7840 N   0  0  0  0  0  0  0  0  0  0  0  0
  -19.7977  -28.4374   23.0458 N   0  0  0  0  0  0  0  0  0  0  0  0
  -21.2350  -25.9478   19.3096 N   0  0  0  0  0  0  0  0  0  0  0  0
  -21.0878  -21.4555   18.8699 N   0  0  0  0  0  0  0  0  0  0  0  0
  -21.9019  -29.3790   22.5074 N   0  0  0  0  0  0  0  0  0  0  0  0
  -27.0007  -18.7744   19.0943 N   0  0  0  0  0  0  0  0  0  0  0  0
  -23.9870  -27.0364   23.6193 N   0  0  0  0  0  0  0  0  0  0  0  0
  -32.6820  -18.3613   21.4658 N   0  0  0  0  0  0  0  0  0  0  0  0
  -36.0024  -19.2532   20.3490 N   0  3  0  0  0  0  0  0  0  0  0  0
  -28.3005  -29.8745   18.2795 O   0  0  0  0  0  0  0  0  0  0  0  0
  -22.7089  -31.5597   22.6645 O   0  0  0  0  0  0  0  0  0  0  0  0
  -22.1037  -23.3679   18.1154 O   0  0  0  0  0  0  0  0  0  0  0  0
  -27.5138  -20.9602   19.7120 O   0  0  0  0  0  0  0  0  0  0  0  0
  -30.3332  -17.5129   20.0616 O   0  0  0  0  0  0  0  0  0  0  0  0
  -23.3053  -26.6377   25.8107 O   0  0  0  0  0  0  0  0  0  0  0  0
  -33.7634  -20.4081   21.6017 O   0  0  0  0  0  0  0  0  0  0  0  0
  -20.2291  -30.6886   23.4045 O   0  0  0  0  0  0  0  0  0  0  0  0
  -17.8118  -17.9722   21.7282 O   0  0  0  0  0  0  0  0  0  0  0  0
  -30.6121  -25.9403   19.1903 O   0  0  0  0  0  0  0  0  0  1  0  0
  -21.6918  -14.0861   22.2258 F   0  0  0  0  0  0  0  0  0  0  0  0
  -19.5500  -17.4289   19.6483 F   0  0  0  0  0  0  0  0  0  0  0  0
  1  2  1  0  0  0  0
  1  6  2  0  0  0  0
  2  7  2  0  0  0  0
  3 10  2  0  0  0  0
  3 18  1  0  0  0  0
  4 11  1  0  0  0  0
  4 18  2  0  0  0  0
  5  9  2  0  0  0  0
  5 19  1  0  0  0  0
  6 21  1  0  0  0  0
  7 23  1  0  0  0  0
  8 12  2  0  0  0  0
  8 22  1  0  0  0  0
  9 26  1  0  0  0  0
 10 27  1  0  0  0  0
 11 27  2  0  0  0  0
 12 28  1  0  0  0  0
 13 14  2  0  0  0  0
 13 29  1  0  0  0  0
 14 30  1  0  0  0  0
 15 24  1  0  0  0  0
 15 28  2  0  0  0  0
 16 25  1  0  0  0  0
 16 26  2  0  0  0  0
 17 30  2  0  0  0  0
 17 31  1  0  0  0  0
 18 32  1  0  0  0  0
 19 25  2  0  0  0  0
 19 35  1  0  0  0  0
 20 32  1  0  0  0  0
 20 33  2  0  0  0  0
 20 36  1  0  0  0  0
 21 23  2  0  0  0  0
 21 42  1  0  0  0  0
 22 24  2  0  0  0  0
 22 43  1  0  0  0  0
 23 52  1  0  0  0  0
 24 44  1  0  0  0  0
 25 63  1  0  0  0  0
 26 70  1  0  0  0  0
 27 88  1  0  0  0  0
 28 89  1  0  0  0  0
 29 31  2  0  0  0  0
 29 88  1  0  0  0  0
 30 90  1  0  0  0  0
 31 91  1  0  0  0  0
 32 68  2  0  0  0  0
 33 69  1  0  0  0  0
 33 73  1  0  0  0  0
 34 55  1  0  0  0  0
 34 70  1  0  0  0  0
 34 80  2  0  0  0  0
 35 75  1  0  0  0  0
 35 81  2  0  0  0  0
 36 74  1  0  0  0  0
 36 82  2  0  0  0  0
 37 53  1  0  0  0  0
 37 76  1  0  0  0  0
 37 83  2  0  0  0  0
 38 65  1  0  0  0  0
 38 71  1  0  0  0  0
 38 84  2  0  0  0  0
 39 56  1  0  0  0  0
 39 77  1  0  0  0  0
 39 85  2  0  0  0  0
 40 66  1  0  0  0  0
 40 78  1  0  0  0  0
 40 86  2  0  0  0  0
 41 72  1  0  0  0  0
 41 75  1  0  0  0  0
 41 87  2  0  0  0  0
 42 45  1  0  0  0  0
 43 53  1  0  0  0  0
 44 71  1  0  0  0  0
 45 47  1  0  0  0  0
 46 48  1  0  0  0  0
 46 49  1  0  0  0  0
 47 52  1  0  0  0  0
 48 54  1  0  0  0  0
 49 72  1  0  0  0  0
 50 54  1  0  0  0  0
 50 72  1  0  0  0  0
 51 55  1  0  0  0  0
 51 70  1  0  0  0  0
 52 76  1  0  0  0  0
 53 71  1  0  0  0  0
 54 69  1  0  0  0  0
 55 57  1  0  0  0  0
 55 64  1  0  0  0  0
 58 66  1  0  0  0  0
 59 67  1  0  0  0  0
 60 67  1  0  0  0  0
 61 67  1  0  0  0  0
 62 79  1  0  0  0  0
 63 77  1  0  0  0  0
 64 89  1  0  0  0  0
 65 67  1  0  0  0  0
 65 78  1  0  0  0  0
 66 79  1  0  0  0  0
 68 69  1  0  0  0  0
M  CHG  1  79   1
M  ISO  4  41 100  64 101  75 100  89 101
M  END
> <Batch ID>
0073

> <Smiles>
CNC(C)C(=O)NC(C(=O)N1Cc2cc([101O:1][101CH2:1]C3(C)CN(c4ccc(C(=O)[100NH:0][100C:0](=O)N5CCCC(n6nc(-c7ccc(Oc8ccc(F)cc8F)cc7)c(C(N)=O)c6N)C5)c(CNC(C)=O)c4)C3=O)ccc2CC1C(=O)NC1CCCc2ccccc21)C(C)(C)C

> <Shape>
0.211

> <Color>
0.066

> <Negative vol penalty>
0.000

$$$$

  -OEChem-04042323413D

 87 96  0     1  0  0  0  0  0999 V2000
  -31.1246  -23.3134   17.4558 C   0  0  0  0  0  0  0  0  0  0  0  0
  -29.7625  -23.3973   17.7264 C   0  0  0  0  0  0  0  0  0  0  0  0
  -24.5845   -8.6714   21.0522 C   0  0  0  0  0  0  0  0  0  0  0  0
  -23.1153  -10.5614   20.7253 C   0  0  0  0  0  0  0  0  0  0  0  0
  -32.0424  -23.9267   18.3075 C   0  0  0  0  0  0  0  0  0  0  0  0
  -29.3176  -24.0937   18.8496 C   0  0  0  0  0  0  0  0  0  0  0  0
  -25.3690  -27.0976   17.8349 C   0  0  0  0  0  0  0  0  0  0  0  0
  -24.4463  -20.4891   19.8692 C   0  0  0  0  0  0  0  0  0  0  0  0
  -25.3213  -19.4219   20.0716 C   0  0  0  0  0  0  0  0  0  0  0  0
  -23.5354   -7.9555   21.6287 C   0  0  0  0  0  0  0  0  0  0  0  0
  -22.0661   -9.8454   21.3018 C   0  0  0  0  0  0  0  0  0  0  0  0
  -24.1187  -26.4905   17.7250 C   0  0  0  0  0  0  0  0  0  0  0  0
  -20.8201   -6.2358   20.5785 C   0  0  0  0  0  0  0  0  0  0  0  0
  -20.6406   -4.9123   20.1766 C   0  0  0  0  0  0  0  0  0  0  0  0
  -23.5926  -27.1803   19.9759 C   0  0  0  0  0  0  0  0  0  0  0  0
  -23.2110  -19.1719   18.2642 C   0  0  0  0  0  0  0  0  0  0  0  0
  -20.9705   -4.1760   22.4540 C   0  0  0  0  0  0  0  0  0  0  0  0
  -24.3745   -9.9744   20.6005 C   0  0  0  0  0  0  0  0  0  0  0  0
  -26.1924  -10.3696   18.8551 C   0  0  0  0  0  0  0  0  0  0  0  0
  -31.6079  -24.6391   19.4364 C   0  0  0  0  0  0  0  0  0  0  0  0
  -25.7452  -27.7423   19.0220 C   0  0  0  0  0  0  0  0  0  0  0  0
  -30.2306  -24.7159   19.7180 C   0  0  0  0  0  0  0  0  0  0  0  0
  -24.8471  -27.7970   20.0975 C   0  0  0  0  0  0  0  0  0  0  0  0
  -23.3911  -20.3641   18.9655 C   0  0  0  0  0  0  0  0  0  0  0  0
  -25.1412  -18.2297   19.3703 C   0  0  0  0  0  0  0  0  0  0  0  0
  -22.2762   -8.5425   21.7535 C   0  0  0  0  0  0  0  0  0  0  0  0
  -23.2314  -26.5292   18.7966 C   0  0  0  0  0  0  0  0  0  0  0  0
  -21.0749   -6.5295   21.9182 C   0  0  0  0  0  0  0  0  0  0  0  0
  -20.7157   -3.8824   21.1143 C   0  0  0  0  0  0  0  0  0  0  0  0
  -24.0861  -18.1046   18.4666 C   0  0  0  0  0  0  0  0  0  0  0  0
  -21.1501   -5.4996   22.8558 C   0  0  0  0  0  0  0  0  0  0  0  0
  -25.4580  -10.7146   20.0055 C   0  0  0  0  0  0  0  0  0  0  0  0
  -27.1005  -11.3896   18.7086 C   0  0  0  0  0  0  0  0  0  0  0  0
  -21.8523  -21.6583   17.5135 C   0  0  0  0  0  0  0  0  0  0  0  0
  -26.0650   -9.2291   17.9956 C   0  0  0  0  0  0  0  0  0  0  0  0
  -28.0479  -27.3188   21.1719 C   0  0  0  0  0  0  0  0  0  0  0  0
  -26.8734  -30.0817   22.4002 C   0  0  0  0  0  0  0  0  0  0  0  0
  -23.6213  -31.5284   22.9907 C   0  0  0  0  0  0  0  0  0  0  0  0
  -27.1290  -17.1092   20.4379 C   0  0  0  0  0  0  0  0  0  0  0  0
  -32.6402  -25.2453   20.3538 C   0  0  0  0  0  0  0  0  0  0  0  0
  -27.0871  -28.4155   19.1152 C   0  0  0  0  0  0  0  0  0  0  0  0
  -25.1950  -28.4940   21.3865 C   0  0  0  0  0  0  0  0  0  0  0  0
  -20.6791  -22.6236   17.4881 C   0  0  0  0  0  0  0  0  0  0  0  0
  -32.0659  -26.2810   21.3170 C   0  0  0  0  0  0  0  0  0  0  0  0
  -29.5427  -14.6241   21.2598 C   0  0  0  0  0  0  0  0  0  0  0  0
  -30.7887  -25.7565   21.9655 C   0  0  0  0  0  0  0  0  0  0  0  0
  -28.8382  -13.3084   20.9210 C   0  0  0  0  0  0  0  0  0  0  0  0
  -21.1589  -23.3567   19.7905 C   0  0  0  0  0  0  0  0  0  0  0  0
  -28.5740  -15.6530   21.8401 C   0  0  0  0  0  0  0  0  0  0  0  0
  -22.4126  -22.4950   19.8110 C   0  0  0  0  0  0  0  0  0  0  0  0
  -26.6726  -14.5905   20.6891 C   0  0  0  0  0  0  0  0  0  0  0  0
  -29.7076  -25.4832   20.9129 C   0  0  1  0  0  0  0  0  0  0  0  0
  -27.5647  -28.5995   20.5524 C   0  0  1  0  0  0  0  0  0  0  0  0
  -27.5951  -13.5451   20.0410 C   0  0  2  0  0  0  0  0  0  0  0  0
  -20.8265  -23.8542   18.3826 C   0  0  2  0  0  0  0  0  0  0  0  0
  -19.4928  -24.6215   18.4198 C   0  0  0  0  0  0  0  0  0  0  0  0
  -22.9031  -33.9293   23.1221 C   0  0  0  0  0  0  0  0  0  0  0  0
  -27.2967  -29.7424   25.4028 C   0  0  0  0  0  0  0  0  0  0  0  0
  -25.2708  -31.1645   25.7787 C   0  0  0  0  0  0  0  0  0  0  0  0
  -27.2621  -32.1160   24.6159 C   0  0  0  0  0  0  0  0  0  0  0  0
  -21.5651  -31.1487   20.8962 C   0  0  0  0  0  0  0  0  0  0  0  0
  -21.9121  -24.7989   17.8368 C   0  0  0  0  0  0  0  0  0  1  0  0
  -25.8084  -30.4352   23.4101 C   0  0  1  0  0  0  0  0  0  0  0  0
  -22.9948  -32.6916   22.2431 C   0  0  2  0  0  0  0  0  0  0  0  0
  -26.4079  -30.8408   24.7862 C   0  0  0  0  0  0  0  0  0  0  0  0
  -25.8645  -11.8639   20.5512 N   0  0  0  0  0  0  0  0  0  0  0  0
  -26.8643  -12.2499   19.7403 N   0  0  0  0  0  0  0  0  0  0  0  0
  -22.4829  -21.4721   18.7547 N   0  0  0  0  0  0  0  0  0  0  0  0
  -26.5212  -29.1318   21.4310 N   0  0  0  0  0  0  0  0  0  0  0  0
  -27.4236  -15.8283   20.9509 N   0  0  0  0  0  0  0  0  0  0  0  0
  -28.0701  -11.6255   17.7994 N   0  0  0  0  0  0  0  0  0  0  0  0
  -25.2003   -9.3144   16.8959 N   0  0  0  0  0  0  0  0  0  0  0  0
  -26.0321  -17.1475   19.5777 N   0  0  0  0  0  0  0  0  0  0  0  0
  -29.0903  -26.7216   20.4890 N   0  0  0  0  0  0  0  0  0  0  0  0
  -24.9841  -31.4668   22.7900 N   0  0  0  0  0  0  0  0  0  0  0  0
  -21.6211  -32.3354   21.7882 N   0  3  0  0  0  0  0  0  0  0  0  0
  -22.1349  -21.0626   16.4702 O   0  0  0  0  0  0  0  0  0  0  0  0
  -26.6868   -8.1602   18.2062 O   0  0  0  0  0  0  0  0  0  0  0  0
  -27.5155  -26.9038   22.1947 O   0  0  0  0  0  0  0  0  0  0  0  0
  -27.9747  -30.6336   22.4645 O   0  0  0  0  0  0  0  0  0  0  0  0
  -22.9677  -30.7541   23.6863 O   0  0  0  0  0  0  0  0  0  0  0  0
  -27.8168  -18.0944   20.7179 O   0  0  0  0  0  0  0  0  0  0  0  0
  -21.2521   -7.8441   22.3157 O   0  0  0  0  0  0  0  0  0  0  0  0
  -22.0108  -25.9369   18.6922 O   0  0  0  0  0  0  0  0  0  1  0  0
  -20.5418   -2.6115   20.7285 F   0  0  0  0  0  0  0  0  0  0  0  0
  -23.9042  -16.9639   17.7858 F   0  0  0  0  0  0  0  0  0  0  0  0
  -21.3934   -5.7757   24.1444 F   0  0  0  0  0  0  0  0  0  0  0  0
  1  2  1  0  0  0  0
  1  5  2  0  0  0  0
  2  6  2  0  0  0  0
  3 10  2  0  0  0  0
  3 18  1  0  0  0  0
  4 11  1  0  0  0  0
  4 18  2  0  0  0  0
  5 20  1  0  0  0  0
  6 22  1  0  0  0  0
  7 12  2  0  0  0  0
  7 21  1  0  0  0  0
  8  9  2  0  0  0  0
  8 24  1  0  0  0  0
  9 25  1  0  0  0  0
 10 26  1  0  0  0  0
 11 26  2  0  0  0  0
 12 27  1  0  0  0  0
 13 14  2  0  0  0  0
 13 28  1  0  0  0  0
 14 29  1  0  0  0  0
 15 23  1  0  0  0  0
 15 27  2  0  0  0  0
 16 24  2  0  0  0  0
 16 30  1  0  0  0  0
 17 29  2  0  0  0  0
 17 31  1  0  0  0  0
 18 32  1  0  0  0  0
 19 32  1  0  0  0  0
 19 33  2  0  0  0  0
 19 35  1  0  0  0  0
 20 22  2  0  0  0  0
 20 40  1  0  0  0  0
 21 23  2  0  0  0  0
 21 41  1  0  0  0  0
 22 52  1  0  0  0  0
 23 42  1  0  0  0  0
 24 68  1  0  0  0  0
 25 30  2  0  0  0  0
 25 73  1  0  0  0  0
 26 83  1  0  0  0  0
 27 84  1  0  0  0  0
 28 31  2  0  0  0  0
 28 83  1  0  0  0  0
 29 85  1  0  0  0  0
 30 86  1  0  0  0  0
 31 87  1  0  0  0  0
 32 66  2  0  0  0  0
 33 67  1  0  0  0  0
 33 71  1  0  0  0  0
 34 43  1  0  0  0  0
 34 68  1  0  0  0  0
 34 77  2  0  0  0  0
 35 72  1  0  0  0  0
 35 78  2  0  0  0  0
 36 53  1  0  0  0  0
 36 74  1  0  0  0  0
 36 79  2  0  0  0  0
 37 63  1  0  0  0  0
 37 69  1  0  0  0  0
 37 80  2  0  0  0  0
 38 64  1  0  0  0  0
 38 75  1  0  0  0  0
 38 81  2  0  0  0  0
 39 70  1  0  0  0  0
 39 73  1  0  0  0  0
 39 82  2  0  0  0  0
 40 44  1  0  0  0  0
 41 53  1  0  0  0  0
 42 69  1  0  0  0  0
 43 55  1  0  0  0  0
 44 46  1  0  0  0  0
 45 47  1  0  0  0  0
 45 49  1  0  0  0  0
 46 52  1  0  0  0  0
 47 54  1  0  0  0  0
 48 50  1  0  0  0  0
 48 55  1  0  0  0  0
 49 70  1  0  0  0  0
 50 68  1  0  0  0  0
 51 54  1  0  0  0  0
 51 70  1  0  0  0  0
 52 74  1  0  0  0  0
 53 69  1  0  0  0  0
 54 67  1  0  0  0  0
 55 56  1  0  0  0  0
 55 62  1  0  0  0  0
 57 64  1  0  0  0  0
 58 65  1  0  0  0  0
 59 65  1  0  0  0  0
 60 65  1  0  0  0  0
 61 76  1  0  0  0  0
 62 84  1  0  0  0  0
 63 65  1  0  0  0  0
 63 75  1  0  0  0  0
 64 76  1  0  0  0  0
 66 67  1  0  0  0  0
M  CHG  1  76   1
M  ISO  4  39 100  62 101  73 100  84 101
M  END
> <Batch ID>
0073

> <Smiles>
CNC(C)C(=O)NC(C(=O)N1Cc2cc([101O:1][101CH2:1]C3(C)CCN(c4ccc([100NH:0][100C:0](=O)N5CCCC(n6nc(-c7ccc(Oc8ccc(F)cc8F)cc7)c(C(N)=O)c6N)C5)c(F)c4)C(=O)C3)ccc2CC1C(=O)NC1CCCc2ccccc21)C(C)(C)C

> <Shape>
0.260

> <Color>
0.077

> <Negative vol penalty>
0.000

$$$$

  -OEChem-04042323413D

 91100  0     1  0  0  0  0  0999 V2000
  -32.4484  -13.5740   20.7780 C   0  0  0  0  0  0  0  0  0  0  0  0
  -31.7340  -14.6619   21.2697 C   0  0  0  0  0  0  0  0  0  0  0  0
  -25.5804  -24.5910   19.6041 C   0  0  0  0  0  0  0  0  0  0  0  0
  -26.4513  -24.9190   21.8336 C   0  0  0  0  0  0  0  0  0  0  0  0
  -20.9228  -27.2172   24.0645 C   0  0  0  0  0  0  0  0  0  0  0  0
  -31.8137  -12.6334   19.9679 C   0  0  0  0  0  0  0  0  0  0  0  0
  -30.3847  -14.8102   20.9506 C   0  0  0  0  0  0  0  0  0  0  0  0
  -25.9878  -17.1243   24.5308 C   0  0  0  0  0  0  0  0  0  0  0  0
  -21.3114  -26.0779   24.7692 C   0  0  0  0  0  0  0  0  0  0  0  0
  -25.4919  -23.2192   19.8404 C   0  0  0  0  0  0  0  0  0  0  0  0
  -26.3628  -23.5472   22.0700 C   0  0  0  0  0  0  0  0  0  0  0  0
  -25.4007  -18.3871   24.5982 C   0  0  0  0  0  0  0  0  0  0  0  0
  -25.3750  -19.5862   19.7324 C   0  0  0  0  0  0  0  0  0  0  0  0
  -25.8303  -18.7240   18.7350 C   0  0  0  0  0  0  0  0  0  0  0  0
  -23.5983  -17.6175   23.1917 C   0  0  0  0  0  0  0  0  0  0  0  0
  -21.6390  -24.9005   22.6850 C   0  0  0  0  0  0  0  0  0  0  0  0
  -28.0355  -19.6971   18.9004 C   0  0  0  0  0  0  0  0  0  0  0  0
  -26.0602  -25.4409   20.6006 C   0  0  0  0  0  0  0  0  0  0  0  0
  -20.8921  -27.1981   22.6701 C   0  0  0  0  0  0  0  0  0  0  0  0
  -26.9090  -27.5015   19.3593 C   0  0  0  0  0  0  0  0  0  0  0  0
  -30.4535  -12.7651   19.6466 C   0  0  0  0  0  0  0  0  0  0  0  0
  -25.3891  -16.1000   23.7832 C   0  0  0  0  0  0  0  0  0  0  0  0
  -29.7316  -13.8712   20.1343 C   0  0  0  0  0  0  0  0  0  0  0  0
  -24.1784  -16.3419   23.1186 C   0  0  0  0  0  0  0  0  0  0  0  0
  -21.2503  -26.0398   21.9804 C   0  0  0  0  0  0  0  0  0  0  0  0
  -21.6696  -24.9196   24.0795 C   0  0  0  0  0  0  0  0  0  0  0  0
  -25.8831  -22.6973   21.0734 C   0  0  0  0  0  0  0  0  0  0  0  0
  -24.2073  -18.6347   23.9262 C   0  0  0  0  0  0  0  0  0  0  0  0
  -26.2500  -20.5039   20.3138 C   0  0  0  0  0  0  0  0  0  0  0  0
  -27.1605  -18.7794   18.3189 C   0  0  0  0  0  0  0  0  0  0  0  0
  -27.5802  -20.5593   19.8978 C   0  0  0  0  0  0  0  0  0  0  0  0
  -26.1524  -26.8580   20.3569 C   0  0  0  0  0  0  0  0  0  0  0  0
  -26.6587  -28.8388   19.5475 C   0  0  0  0  0  0  0  0  0  0  0  0
  -22.4554  -22.5147   24.2513 C   0  0  0  0  0  0  0  0  0  0  0  0
  -20.4817  -28.4019   21.9595 C   0  0  0  0  0  0  0  0  0  0  0  0
  -27.7618  -26.9406   18.3524 C   0  0  0  0  0  0  0  0  0  0  0  0
  -26.2473  -14.3703   21.2583 C   0  0  0  0  0  0  0  0  0  0  0  0
  -23.4918  -12.7828   21.8980 C   0  0  0  0  0  0  0  0  0  0  0  0
  -22.0408  -31.7403   22.0712 C   0  0  0  0  0  0  0  0  0  0  0  0
  -20.3873  -12.8223   23.3149 C   0  0  0  0  0  0  0  0  0  0  0  0
  -29.8227  -11.7483   18.7286 C   0  0  0  0  0  0  0  0  0  0  0  0
  -26.0211  -14.7357   23.7425 C   0  0  0  0  0  0  0  0  0  0  0  0
  -23.4848  -15.2704   22.3190 C   0  0  0  0  0  0  0  0  0  0  0  0
  -28.2965  -11.7776   18.7443 C   0  0  0  0  0  0  0  0  0  0  0  0
  -25.5077  -31.9997   22.9390 C   0  0  0  0  0  0  0  0  0  0  0  0
  -27.7890  -13.2122   18.6384 C   0  0  0  0  0  0  0  0  0  0  0  0
  -26.1297  -30.7543   22.3088 C   0  0  0  0  0  0  0  0  0  0  0  0
  -22.8859  -22.4845   26.5954 C   0  0  0  0  0  0  0  0  0  0  0  0
  -24.0959  -31.7231   23.4462 C   0  0  0  0  0  0  0  0  0  0  0  0
  -22.0633  -23.7115   26.2517 C   0  0  0  0  0  0  0  0  0  0  0  0
  -23.7954  -29.9220   21.7766 C   0  0  0  0  0  0  0  0  0  0  0  0
  -28.2603  -14.0535   19.8306 C   0  0  1  0  0  0  0  0  0  0  0  0
  -25.5916  -13.9141   22.5309 C   0  0  1  0  0  0  0  0  0  0  0  0
  -25.2106  -30.1662   21.2235 C   0  0  2  0  0  0  0  0  0  0  0  0
  -22.6537  -21.5413   25.4123 C   0  0  1  0  0  0  0  0  0  0  0  0
  -21.2250  -25.9922   20.4874 C   0  0  0  0  0  0  0  0  0  0  0  0
  -21.3757  -20.7137   25.5917 C   0  0  0  0  0  0  0  0  0  0  0  0
  -18.3531  -11.3899   23.6424 C   0  0  0  0  0  0  0  0  0  0  0  0
  -21.0450  -30.7302   20.0347 C   0  0  0  0  0  0  0  0  0  0  0  0
  -19.5892  -31.3345   21.9985 C   0  0  0  0  0  0  0  0  0  0  0  0
  -22.6829  -13.2724   18.9970 C   0  0  0  0  0  0  0  0  0  0  0  0
  -20.3306  -12.6917   19.6280 C   0  0  0  0  0  0  0  0  0  0  0  0
  -22.1390  -10.9892   19.8606 C   0  0  0  0  0  0  0  0  0  0  0  0
  -20.6547  -12.9138   26.2609 C   0  0  0  0  0  0  0  0  0  0  0  0
  -23.8526  -20.6254   25.1780 C   0  0  0  0  0  0  0  0  0  1  0  0
  -22.0498  -12.9314   21.4768 C   0  0  1  0  0  0  0  0  0  0  0  0
  -19.6842  -11.8344   24.2282 C   0  0  2  0  0  0  0  0  0  0  0  0
  -20.9572  -30.8274   21.5549 C   0  0  0  0  0  0  0  0  0  0  0  0
  -21.8144  -12.4921   20.0040 C   0  0  0  0  0  0  0  0  0  0  0  0
  -25.4725  -27.7159   21.1222 N   0  0  0  0  0  0  0  0  0  0  0  0
  -25.8010  -28.9122   20.6055 N   0  0  0  0  0  0  0  0  0  0  0  0
  -22.0673  -23.7538   24.8017 N   0  0  0  0  0  0  0  0  0  0  0  0
  -24.1454  -13.9547   22.3044 N   0  0  0  0  0  0  0  0  0  0  0  0
  -23.2606  -31.1445   22.3923 N   0  0  0  0  0  0  0  0  0  0  0  0
  -27.0908  -29.9474   18.9097 N   0  0  0  0  0  0  0  0  0  0  0  0
  -29.1169  -26.7497   18.6550 N   0  0  0  0  0  0  0  0  0  0  0  0
  -21.2495  -29.5520   22.1685 N   0  0  0  0  0  0  0  0  0  0  0  0
  -27.4615  -13.7625   21.0018 N   0  0  0  0  0  0  0  0  0  0  0  0
  -21.2604  -12.1906   22.4547 N   0  0  0  0  0  0  0  0  0  0  0  0
  -19.4288  -12.4518   25.5603 N   0  3  0  0  0  0  0  0  0  0  0  0
  -22.5700  -22.1852   23.0788 O   0  0  0  0  0  0  0  0  0  0  0  0
  -19.4804  -28.3873   21.2241 O   0  0  0  0  0  0  0  0  0  0  0  0
  -27.3382  -26.6335   17.2123 O   0  0  0  0  0  0  0  0  0  0  0  0
  -25.6920  -15.2104   20.5599 O   0  0  0  0  0  0  0  0  0  0  0  0
  -24.0168  -11.6667   21.8745 O   0  0  0  0  0  0  0  0  0  0  0  0
  -21.8091  -32.9470   22.1823 O   0  0  0  0  0  0  0  0  0  0  0  0
  -20.1798  -14.0330   23.3575 O   0  0  0  0  0  0  0  0  0  0  0  0
  -25.7966  -21.3587   21.3045 O   0  0  0  0  0  0  0  0  0  0  0  0
  -23.6325  -19.8665   23.9897 O   0  0  0  0  0  0  0  0  0  1  0  0
  -27.5980  -17.9503   17.3622 F   0  0  0  0  0  0  0  0  0  0  0  0
  -28.4257  -21.4380   20.4535 F   0  0  0  0  0  0  0  0  0  0  0  0
  1  2  1  0  0  0  0
  1  6  2  0  0  0  0
  2  7  2  0  0  0  0
  3 10  2  0  0  0  0
  3 18  1  0  0  0  0
  4 11  1  0  0  0  0
  4 18  2  0  0  0  0
  5  9  2  0  0  0  0
  5 19  1  0  0  0  0
  6 21  1  0  0  0  0
  7 23  1  0  0  0  0
  8 12  2  0  0  0  0
  8 22  1  0  0  0  0
  9 26  1  0  0  0  0
 10 27  1  0  0  0  0
 11 27  2  0  0  0  0
 12 28  1  0  0  0  0
 13 14  2  0  0  0  0
 13 29  1  0  0  0  0
 14 30  1  0  0  0  0
 15 24  1  0  0  0  0
 15 28  2  0  0  0  0
 16 25  1  0  0  0  0
 16 26  2  0  0  0  0
 17 30  2  0  0  0  0
 17 31  1  0  0  0  0
 18 32  1  0  0  0  0
 19 25  2  0  0  0  0
 19 35  1  0  0  0  0
 20 32  1  0  0  0  0
 20 33  2  0  0  0  0
 20 36  1  0  0  0  0
 21 23  2  0  0  0  0
 21 41  1  0  0  0  0
 22 24  2  0  0  0  0
 22 42  1  0  0  0  0
 23 52  1  0  0  0  0
 24 43  1  0  0  0  0
 25 56  1  0  0  0  0
 26 72  1  0  0  0  0
 27 88  1  0  0  0  0
 28 89  1  0  0  0  0
 29 31  2  0  0  0  0
 29 88  1  0  0  0  0
 30 90  1  0  0  0  0
 31 91  1  0  0  0  0
 32 70  2  0  0  0  0
 33 71  1  0  0  0  0
 33 75  1  0  0  0  0
 34 55  1  0  0  0  0
 34 72  1  0  0  0  0
 34 81  2  0  0  0  0
 35 77  1  0  0  0  0
 35 82  2  0  0  0  0
 36 76  1  0  0  0  0
 36 83  2  0  0  0  0
 37 53  1  0  0  0  0
 37 78  1  0  0  0  0
 37 84  2  0  0  0  0
 38 66  1  0  0  0  0
 38 73  1  0  0  0  0
 38 85  2  0  0  0  0
 39 68  1  0  0  0  0
 39 74  1  0  0  0  0
 39 86  2  0  0  0  0
 40 67  1  0  0  0  0
 40 79  1  0  0  0  0
 40 87  2  0  0  0  0
 41 44  1  0  0  0  0
 42 53  1  0  0  0  0
 43 73  1  0  0  0  0
 44 46  1  0  0  0  0
 45 47  1  0  0  0  0
 45 49  1  0  0  0  0
 46 52  1  0  0  0  0
 47 54  1  0  0  0  0
 48 50  1  0  0  0  0
 48 55  1  0  0  0  0
 49 74  1  0  0  0  0
 50 72  1  0  0  0  0
 51 54  1  0  0  0  0
 51 74  1  0  0  0  0
 52 78  1  0  0  0  0
 53 73  1  0  0  0  0
 54 71  1  0  0  0  0
 55 57  1  0  0  0  0
 55 65  1  0  0  0  0
 58 67  1  0  0  0  0
 59 68  1  0  0  0  0
 60 68  1  0  0  0  0
 61 69  1  0  0  0  0
 62 69  1  0  0  0  0
 63 69  1  0  0  0  0
 64 80  1  0  0  0  0
 65 89  1  0  0  0  0
 66 69  1  0  0  0  0
 66 79  1  0  0  0  0
 67 80  1  0  0  0  0
 68 77  1  0  0  0  0
 70 71  1  0  0  0  0
M  CHG  1  80   1
M  ISO  4  39 100  65 101  68 100  89 101
M  END
> <Batch ID>
0073

> <Smiles>
CNC(C)C(=O)NC(C(=O)N1Cc2cc([101O:1][101CH2:1]C3(C)CCN(c4ccc(C(=O)N[100C:0](C)(C)[100C:0](=O)N5CCCC(n6nc(-c7ccc(Oc8ccc(F)cc8F)cc7)c(C(N)=O)c6N)C5)c(C)c4)C3=O)ccc2CC1C(=O)NC1CCCc2ccccc21)C(C)(C)C

> <Shape>
0.230

> <Color>
0.074

> <Negative vol penalty>
0.000

$$$$

  -OEChem-04042323413D

 86 95  0     1  0  0  0  0  0999 V2000
  -29.5436  -32.8724   25.7105 C   0  0  0  0  0  0  0  0  0  0  0  0
  -29.3772  -31.7825   24.8621 C   0  0  0  0  0  0  0  0  0  0  0  0
  -26.2495  -12.5175   21.3480 C   0  0  0  0  0  0  0  0  0  0  0  0
  -26.2551  -12.8458   18.9544 C   0  0  0  0  0  0  0  0  0  0  0  0
  -28.4628  -33.3490   26.4513 C   0  0  0  0  0  0  0  0  0  0  0  0
  -28.1302  -31.1678   24.7547 C   0  0  0  0  0  0  0  0  0  0  0  0
  -26.8548  -30.1865   19.9531 C   0  0  0  0  0  0  0  0  0  0  0  0
  -25.0205  -11.8644   21.2555 C   0  0  0  0  0  0  0  0  0  0  0  0
  -25.0261  -12.1927   18.8619 C   0  0  0  0  0  0  0  0  0  0  0  0
  -27.4457  -29.0763   19.3516 C   0  0  0  0  0  0  0  0  0  0  0  0
  -23.8871   -8.8013   20.3805 C   0  0  0  0  0  0  0  0  0  0  0  0
  -23.7276   -7.6155   21.0974 C   0  0  0  0  0  0  0  0  0  0  0  0
  -25.4410  -27.7972   19.7569 C   0  0  0  0  0  0  0  0  0  0  0  0
  -29.0722  -21.6637   16.9331 C   0  0  0  0  0  0  0  0  0  0  0  0
  -28.6100  -21.7714   14.5643 C   0  0  0  0  0  0  0  0  0  0  0  0
  -21.8950   -8.6032   22.3235 C   0  0  0  0  0  0  0  0  0  0  0  0
  -26.8668  -13.0083   20.1974 C   0  0  0  0  0  0  0  0  0  0  0  0
  -29.4160  -13.1024   20.2154 C   0  0  0  0  0  0  0  0  0  0  0  0
  -27.1996  -32.7460   26.3457 C   0  0  0  0  0  0  0  0  0  0  0  0
  -25.5543  -30.1072   20.4717 C   0  0  0  0  0  0  0  0  0  0  0  0
  -27.0318  -31.6360   25.4958 C   0  0  0  0  0  0  0  0  0  0  0  0
  -24.8348  -28.9086   20.3623 C   0  0  0  0  0  0  0  0  0  0  0  0
  -28.7319  -22.4044   15.8013 C   0  0  0  0  0  0  0  0  0  0  0  0
  -29.2907  -20.2900   16.8280 C   0  0  0  0  0  0  0  0  0  0  0  0
  -24.4088  -11.7020   20.0125 C   0  0  0  0  0  0  0  0  0  0  0  0
  -26.7399  -27.8805   19.2559 C   0  0  0  0  0  0  0  0  0  0  0  0
  -23.0506   -9.8882   20.6351 C   0  0  0  0  0  0  0  0  0  0  0  0
  -22.7316   -7.5164   22.0689 C   0  0  0  0  0  0  0  0  0  0  0  0
  -28.8284  -20.3978   14.4591 C   0  0  0  0  0  0  0  0  0  0  0  0
  -22.0546   -9.7891   21.6066 C   0  0  0  0  0  0  0  0  0  0  0  0
  -29.1688  -19.6571   15.5910 C   0  0  0  0  0  0  0  0  0  0  0  0
  -28.1361  -13.6835   20.2923 C   0  0  0  0  0  0  0  0  0  0  0  0
  -30.2820  -14.1585   20.3614 C   0  0  0  0  0  0  0  0  0  0  0  0
  -28.0326  -25.9725   15.3730 C   0  0  0  0  0  0  0  0  0  0  0  0
  -28.2882  -25.9088   16.6816 C   0  0  0  0  0  0  0  0  0  0  0  0
  -28.1690  -24.6050   14.8332 C   0  0  0  0  0  0  0  0  0  0  0  0
  -29.7889  -11.7306   20.0285 C   0  0  0  0  0  0  0  0  0  0  0  0
  -24.2676  -30.4315   23.3601 C   0  0  0  0  0  0  0  0  0  0  0  0
  -21.4814  -30.1451   21.7238 C   0  0  0  0  0  0  0  0  0  0  0  0
  -19.8577  -29.0154   18.9428 C   0  0  0  0  0  0  0  0  0  0  0  0
  -29.7964  -20.0152   19.2806 C   0  0  0  0  0  0  0  0  0  0  0  0
  -26.0726  -33.2669   27.2020 C   0  0  0  0  0  0  0  0  0  0  0  0
  -24.9212  -31.3216   21.0937 C   0  0  0  0  0  0  0  0  0  0  0  0
  -23.4285  -28.7773   20.8851 C   0  0  0  0  0  0  0  0  0  0  0  0
  -28.6135  -24.5280   17.1372 C   0  0  0  0  0  0  0  0  0  0  0  0
  -24.6940  -32.7941   26.7481 C   0  0  0  0  0  0  0  0  0  0  0  0
  -30.6041  -18.4838   22.3918 C   0  0  0  0  0  0  0  0  0  0  0  0
  -24.7101  -31.2953   26.4650 C   0  0  0  0  0  0  0  0  0  0  0  0
  -30.1850  -17.0248   22.1973 C   0  0  0  0  0  0  0  0  0  0  0  0
  -29.6449  -19.4471   21.6950 C   0  0  0  0  0  0  0  0  0  0  0  0
  -28.9880  -17.7076   20.0789 C   0  0  0  0  0  0  0  0  0  0  0  0
  -25.6886  -30.9581   25.3335 C   0  0  1  0  0  0  0  0  0  0  0  0
  -23.7813  -30.9786   22.0479 C   0  0  1  0  0  0  0  0  0  0  0  0
  -29.9604  -16.6967   20.7082 C   0  0  2  0  0  0  0  0  0  0  0  0
  -17.5754  -28.8959   17.9065 C   0  0  0  0  0  0  0  0  0  0  0  0
  -20.7300  -27.8961   23.6441 C   0  0  0  0  0  0  0  0  0  0  0  0
  -18.9494  -27.2036   22.0259 C   0  0  0  0  0  0  0  0  0  0  0  0
  -18.8598  -29.4599   23.0861 C   0  0  0  0  0  0  0  0  0  0  0  0
  -20.7135  -30.6014   16.5952 C   0  0  0  0  0  0  0  0  0  0  0  0
  -28.2709  -27.0432   17.6402 C   0  0  0  0  0  0  0  0  0  1  0  0
  -20.5979  -28.9929   21.3105 C   0  0  1  0  0  0  0  0  0  0  0  0
  -18.8680  -29.6903   18.0104 C   0  0  2  0  0  0  0  0  0  0  0  0
  -19.8115  -28.3897   22.5084 C   0  0  0  0  0  0  0  0  0  0  0  0
  -28.1804  -15.0061   20.4734 N   0  0  0  0  0  0  0  0  0  0  0  0
  -29.4986  -15.2648   20.5115 N   0  0  0  0  0  0  0  0  0  0  0  0
  -28.5140  -23.7727   15.9054 N   0  0  0  0  0  0  0  0  0  0  0  0
  -22.8553  -29.9909   21.4903 N   0  0  0  0  0  0  0  0  0  0  0  0
  -29.4841  -19.0770   20.2871 N   0  0  0  0  0  0  0  0  0  0  0  0
  -31.6294  -14.2394   20.3750 N   0  0  0  0  0  0  0  0  0  0  0  0
  -28.7730  -10.7743   19.8957 N   0  0  0  0  0  0  0  0  0  0  0  0
  -29.6358  -19.5398   17.9795 N   0  0  0  0  0  0  0  0  0  0  0  0
  -25.1080  -31.2852   24.0489 N   0  0  0  0  0  0  0  0  0  0  0  0
  -19.7525  -29.4933   20.2319 N   0  0  0  0  0  0  0  0  0  0  0  0
  -19.4498  -29.8219   16.6447 N   0  3  0  0  0  0  0  0  0  0  0  0
  -27.9994  -24.3171   13.6595 O   0  0  0  0  0  0  0  0  0  0  0  0
  -30.9873  -11.3616   19.9972 O   0  0  0  0  0  0  0  0  0  0  0  0
  -23.9058  -29.3179   23.7217 O   0  0  0  0  0  0  0  0  0  0  0  0
  -20.9706  -31.1481   22.2286 O   0  0  0  0  0  0  0  0  0  0  0  0
  -20.6430  -28.1482   18.5660 O   0  0  0  0  0  0  0  0  0  0  0  0
  -30.2041  -21.1473   19.5526 O   0  0  0  0  0  0  0  0  0  0  0  0
  -23.2096  -11.0645   19.9219 O   0  0  0  0  0  0  0  0  0  0  0  0
  -27.3145  -26.7951   18.6698 O   0  0  0  0  0  0  0  0  0  1  0  0
  -22.5775   -6.3771   22.7562 F   0  0  0  0  0  0  0  0  0  0  0  0
  -28.7118  -19.7902   13.2713 F   0  0  0  0  0  0  0  0  0  0  0  0
  -21.2471  -10.8294   21.8548 F   0  0  0  0  0  0  0  0  0  0  0  0
  -29.3768  -18.3376   15.4781 F   0  0  0  0  0  0  0  0  0  0  0  0
  1  2  1  0  0  0  0
  1  5  2  0  0  0  0
  2  6  2  0  0  0  0
  3  8  2  0  0  0  0
  3 17  1  0  0  0  0
  4  9  1  0  0  0  0
  4 17  2  0  0  0  0
  5 19  1  0  0  0  0
  6 21  1  0  0  0  0
  7 10  2  0  0  0  0
  7 20  1  0  0  0  0
  8 25  1  0  0  0  0
  9 25  2  0  0  0  0
 10 26  1  0  0  0  0
 11 12  2  0  0  0  0
 11 27  1  0  0  0  0
 12 28  1  0  0  0  0
 13 22  1  0  0  0  0
 13 26  2  0  0  0  0
 14 23  2  0  0  0  0
 14 24  1  0  0  0  0
 15 23  1  0  0  0  0
 15 29  2  0  0  0  0
 16 28  2  0  0  0  0
 16 30  1  0  0  0  0
 17 32  1  0  0  0  0
 18 32  1  0  0  0  0
 18 33  2  0  0  0  0
 18 37  1  0  0  0  0
 19 21  2  0  0  0  0
 19 42  1  0  0  0  0
 20 22  2  0  0  0  0
 20 43  1  0  0  0  0
 21 52  1  0  0  0  0
 22 44  1  0  0  0  0
 23 66  1  0  0  0  0
 24 31  2  0  0  0  0
 24 71  1  0  0  0  0
 25 81  1  0  0  0  0
 26 82  1  0  0  0  0
 27 30  2  0  0  0  0
 27 81  1  0  0  0  0
 28 83  1  0  0  0  0
 29 31  1  0  0  0  0
 29 84  1  0  0  0  0
 30 85  1  0  0  0  0
 31 86  1  0  0  0  0
 32 64  2  0  0  0  0
 33 65  1  0  0  0  0
 33 69  1  0  0  0  0
 34 35  2  0  0  0  0
 34 36  1  0  0  0  0
 35 45  1  0  0  0  0
 35 60  1  0  0  0  0
 36 66  1  0  0  0  0
 36 75  2  0  0  0  0
 37 70  1  0  0  0  0
 37 76  2  0  0  0  0
 38 53  1  0  0  0  0
 38 72  1  0  0  0  0
 38 77  2  0  0  0  0
 39 61  1  0  0  0  0
 39 67  1  0  0  0  0
 39 78  2  0  0  0  0
 40 62  1  0  0  0  0
 40 73  1  0  0  0  0
 40 79  2  0  0  0  0
 41 68  1  0  0  0  0
 41 71  1  0  0  0  0
 41 80  2  0  0  0  0
 42 46  1  0  0  0  0
 43 53  1  0  0  0  0
 44 67  1  0  0  0  0
 45 66  1  0  0  0  0
 46 48  1  0  0  0  0
 47 49  1  0  0  0  0
 47 50  1  0  0  0  0
 48 52  1  0  0  0  0
 49 54  1  0  0  0  0
 50 68  1  0  0  0  0
 51 54  1  0  0  0  0
 51 68  1  0  0  0  0
 52 72  1  0  0  0  0
 53 67  1  0  0  0  0
 54 65  1  0  0  0  0
 55 62  1  0  0  0  0
 56 63  1  0  0  0  0
 57 63  1  0  0  0  0
 58 63  1  0  0  0  0
 59 74  1  0  0  0  0
 60 82  1  0  0  0  0
 61 63  1  0  0  0  0
 61 73  1  0  0  0  0
 62 74  1  0  0  0  0
 64 65  1  0  0  0  0
M  CHG  1  74   1
M  ISO  4  41 100  60 101  71 100  82 101
M  END
> <Batch ID>
0073

> <Smiles>
CNC(C)C(=O)NC(C(=O)N1Cc2cc([101O:1][101CH2:1]C3=CC(=O)N(c4cc(F)c(F)c([100NH:0][100C:0](=O)N5CCCC(n6nc(-c7ccc(Oc8ccc(F)cc8F)cc7)c(C(N)=O)c6N)C5)c4)C3)ccc2CC1C(=O)NC1CCCc2ccccc21)C(C)(C)C

> <Shape>
0.323

> <Color>
0.081

> <Negative vol penalty>
0.000

$$$$

  -OEChem-04042323413D

 85 94  0     1  0  0  0  0  0999 V2000
  -29.2573  -37.2412   22.4479 C   0  0  0  0  0  0  0  0  0  0  0  0
  -29.3251  -36.2547   21.4693 C   0  0  0  0  0  0  0  0  0  0  0  0
  -24.1162   -8.7406   20.9962 C   0  0  0  0  0  0  0  0  0  0  0  0
  -22.9961  -10.8812   21.0025 C   0  0  0  0  0  0  0  0  0  0  0  0
  -28.8516  -36.9125   23.7407 C   0  0  0  0  0  0  0  0  0  0  0  0
  -28.9883  -34.9385   21.7833 C   0  0  0  0  0  0  0  0  0  0  0  0
  -26.0535  -29.0829   18.8823 C   0  0  0  0  0  0  0  0  0  0  0  0
  -29.4669  -19.4654   19.5453 C   0  0  0  0  0  0  0  0  0  0  0  0
  -29.5297  -18.0723   19.5756 C   0  0  0  0  0  0  0  0  0  0  0  0
  -23.1842   -8.2502   21.9108 C   0  0  0  0  0  0  0  0  0  0  0  0
  -22.0640  -10.3908   21.9171 C   0  0  0  0  0  0  0  0  0  0  0  0
  -26.3121  -27.7248   18.7025 C   0  0  0  0  0  0  0  0  0  0  0  0
  -20.0074   -7.0937   21.8523 C   0  0  0  0  0  0  0  0  0  0  0  0
  -19.4694   -5.8290   21.6145 C   0  0  0  0  0  0  0  0  0  0  0  0
  -25.5489  -27.2883   20.9489 C   0  0  0  0  0  0  0  0  0  0  0  0
  -27.3133  -19.3921   20.6380 C   0  0  0  0  0  0  0  0  0  0  0  0
  -20.3474   -5.0580   23.7292 C   0  0  0  0  0  0  0  0  0  0  0  0
  -24.0222  -10.0561   20.5421 C   0  0  0  0  0  0  0  0  0  0  0  0
  -24.9005  -10.5236   18.1931 C   0  0  0  0  0  0  0  0  0  0  0  0
  -28.5004  -35.5934   24.0682 C   0  0  0  0  0  0  0  0  0  0  0  0
  -25.5501  -29.5562   20.1026 C   0  0  0  0  0  0  0  0  0  0  0  0
  -28.5788  -34.5915   23.0820 C   0  0  0  0  0  0  0  0  0  0  0  0
  -25.2824  -28.6525   21.1408 C   0  0  0  0  0  0  0  0  0  0  0  0
  -27.3761  -17.9990   20.6683 C   0  0  0  0  0  0  0  0  0  0  0  0
  -28.3587  -20.1253   20.0766 C   0  0  0  0  0  0  0  0  0  0  0  0
  -28.4843  -17.3391   20.1371 C   0  0  0  0  0  0  0  0  0  0  0  0
  -22.1581   -9.0753   22.3712 C   0  0  0  0  0  0  0  0  0  0  0  0
  -26.0625  -26.8276   19.7369 C   0  0  0  0  0  0  0  0  0  0  0  0
  -20.7154   -7.3406   23.0285 C   0  0  0  0  0  0  0  0  0  0  0  0
  -19.6393   -4.8111   22.5529 C   0  0  0  0  0  0  0  0  0  0  0  0
  -20.8854   -6.3227   23.9669 C   0  0  0  0  0  0  0  0  0  0  0  0
  -24.9850  -10.5635   19.5978 C   0  0  0  0  0  0  0  0  0  0  0  0
  -26.0551  -11.1300   17.7624 C   0  0  0  0  0  0  0  0  0  0  0  0
  -27.2887  -22.3061   20.5215 C   0  0  0  0  0  0  0  0  0  0  0  0
  -27.5430  -23.6085   20.3350 C   0  0  0  0  0  0  0  0  0  0  0  0
  -28.8344  -23.7306   19.6759 C   0  0  0  0  0  0  0  0  0  0  0  0
  -29.4603  -24.8535   19.3094 C   0  0  0  0  0  0  0  0  0  0  0  0
  -23.8703   -9.9866   17.3528 C   0  0  0  0  0  0  0  0  0  0  0  0
  -26.5966  -31.5645   22.3331 C   0  0  0  0  0  0  0  0  0  0  0  0
  -23.6452  -31.0893   23.5924 C   0  0  0  0  0  0  0  0  0  0  0  0
  -20.8981  -29.0820   23.8595 C   0  0  0  0  0  0  0  0  0  0  0  0
  -29.7231  -15.1477   20.2340 C   0  0  0  0  0  0  0  0  0  0  0  0
  -28.1132  -35.2772   25.4912 C   0  0  0  0  0  0  0  0  0  0  0  0
  -25.2514  -31.0207   20.2715 C   0  0  0  0  0  0  0  0  0  0  0  0
  -24.7229  -29.1071   22.4632 C   0  0  0  0  0  0  0  0  0  0  0  0
  -29.3704  -22.3238   19.4667 C   0  0  0  0  0  0  0  0  0  0  0  0
  -27.4137  -33.9294   25.6470 C   0  0  0  0  0  0  0  0  0  0  0  0
  -30.5966  -11.8966   19.0745 C   0  0  0  0  0  0  0  0  0  0  0  0
  -28.1646  -32.8463   24.8788 C   0  0  0  0  0  0  0  0  0  0  0  0
  -29.2485  -11.1841   18.9435 C   0  0  0  0  0  0  0  0  0  0  0  0
  -30.6279  -12.8337   20.2805 C   0  0  0  0  0  0  0  0  0  0  0  0
  -28.1788  -13.0910   20.2109 C   0  0  0  0  0  0  0  0  0  0  0  0
  -28.1978  -33.1571   23.3776 C   0  0  1  0  0  0  0  0  0  0  0  0
  -25.2235  -31.4603   21.7321 C   0  0  1  0  0  0  0  0  0  0  0  0
  -28.0769  -12.1851   18.9729 C   0  0  2  0  0  0  0  0  0  0  0  0
  -26.2426  -17.2391   21.2773 C   0  0  0  0  0  0  0  0  0  0  0  0
  -18.6625  -28.9430   24.9909 C   0  0  0  0  0  0  0  0  0  0  0  0
  -25.0201  -30.3431   26.2121 C   0  0  0  0  0  0  0  0  0  0  0  0
  -22.8636  -29.3238   26.9728 C   0  0  0  0  0  0  0  0  0  0  0  0
  -22.9794  -31.7650   26.4731 C   0  0  0  0  0  0  0  0  0  0  0  0
  -19.4619  -29.0355   21.2722 C   0  0  0  0  0  0  0  0  0  0  0  0
  -26.6806  -24.7537   20.7232 C   0  0  0  0  0  0  0  0  0  1  0  0
  -23.0445  -30.1053   24.5670 C   0  0  1  0  0  0  0  0  0  0  0  0
  -19.4149  -29.3842   23.7451 C   0  0  2  0  0  0  0  0  0  0  0  0
  -23.4892  -30.3757   26.0321 C   0  0  0  0  0  0  0  0  0  0  0  0
  -26.1049  -11.1488   20.0306 N   0  0  0  0  0  0  0  0  0  0  0  0
  -26.7347  -11.4822   18.8912 N   0  0  0  0  0  0  0  0  0  0  0  0
  -28.2974  -21.4956   20.0472 N   0  0  0  0  0  0  0  0  0  0  0  0
  -24.4534  -30.5496   22.5818 N   0  0  0  0  0  0  0  0  0  0  0  0
  -29.4910  -13.7560   20.2390 N   0  0  0  0  0  0  0  0  0  0  0  0
  -26.5453  -11.3909   16.5319 N   0  0  0  0  0  0  0  0  0  0  0  0
  -22.7520   -9.3988   17.9595 N   0  0  0  0  0  0  0  0  0  0  0  0
  -28.5676  -15.9247   20.1599 N   0  0  0  0  0  0  0  0  0  0  0  0
  -26.9261  -32.8346   22.7664 N   0  0  0  0  0  0  0  0  0  0  0  0
  -21.6010  -30.1568   24.3616 N   0  0  0  0  0  0  0  0  0  0  0  0
  -18.8317  -28.6783   22.5692 N   0  3  0  0  0  0  0  0  0  0  0  0
  -23.9472  -10.0121   16.1011 O   0  0  0  0  0  0  0  0  0  0  0  0
  -27.3041  -30.5662   22.4003 O   0  0  0  0  0  0  0  0  0  0  0  0
  -23.4004  -32.2916   23.7188 O   0  0  0  0  0  0  0  0  0  0  0  0
  -21.3840  -27.9995   23.5393 O   0  0  0  0  0  0  0  0  0  0  0  0
  -30.8644  -15.6153   20.2638 O   0  0  0  0  0  0  0  0  0  0  0  0
  -21.2483   -8.5970   23.2634 O   0  0  0  0  0  0  0  0  0  0  0  0
  -26.3146  -25.5015   19.5643 O   0  0  0  0  0  0  0  0  0  1  0  0
  -19.1213   -3.5970   22.3252 F   0  0  0  0  0  0  0  0  0  0  0  0
  -21.5637   -6.5542   25.0993 F   0  0  0  0  0  0  0  0  0  0  0  0
  1  2  1  0  0  0  0
  1  5  2  0  0  0  0
  2  6  2  0  0  0  0
  3 10  2  0  0  0  0
  3 18  1  0  0  0  0
  4 11  1  0  0  0  0
  4 18  2  0  0  0  0
  5 20  1  0  0  0  0
  6 22  1  0  0  0  0
  7 12  2  0  0  0  0
  7 21  1  0  0  0  0
  8  9  2  0  0  0  0
  8 25  1  0  0  0  0
  9 26  1  0  0  0  0
 10 27  1  0  0  0  0
 11 27  2  0  0  0  0
 12 28  1  0  0  0  0
 13 14  2  0  0  0  0
 13 29  1  0  0  0  0
 14 30  1  0  0  0  0
 15 23  1  0  0  0  0
 15 28  2  0  0  0  0
 16 24  1  0  0  0  0
 16 25  2  0  0  0  0
 17 30  2  0  0  0  0
 17 31  1  0  0  0  0
 18 32  1  0  0  0  0
 19 32  1  0  0  0  0
 19 33  2  0  0  0  0
 19 38  1  0  0  0  0
 20 22  2  0  0  0  0
 20 43  1  0  0  0  0
 21 23  2  0  0  0  0
 21 44  1  0  0  0  0
 22 53  1  0  0  0  0
 23 45  1  0  0  0  0
 24 26  2  0  0  0  0
 24 56  1  0  0  0  0
 25 68  1  0  0  0  0
 26 73  1  0  0  0  0
 27 82  1  0  0  0  0
 28 83  1  0  0  0  0
 29 31  2  0  0  0  0
 29 82  1  0  0  0  0
 30 84  1  0  0  0  0
 31 85  1  0  0  0  0
 32 66  2  0  0  0  0
 33 67  1  0  0  0  0
 33 71  1  0  0  0  0
 34 35  2  0  0  0  0
 34 68  1  0  0  0  0
 35 36  1  0  0  0  0
 35 62  1  0  0  0  0
 36 37  2  0  0  0  0
 36 46  1  0  0  0  0
 38 72  1  0  0  0  0
 38 77  2  0  0  0  0
 39 54  1  0  0  0  0
 39 74  1  0  0  0  0
 39 78  2  0  0  0  0
 40 63  1  0  0  0  0
 40 69  1  0  0  0  0
 40 79  2  0  0  0  0
 41 64  1  0  0  0  0
 41 75  1  0  0  0  0
 41 80  2  0  0  0  0
 42 70  1  0  0  0  0
 42 73  1  0  0  0  0
 42 81  2  0  0  0  0
 43 47  1  0  0  0  0
 44 54  1  0  0  0  0
 45 69  1  0  0  0  0
 46 68  1  0  0  0  0
 47 49  1  0  0  0  0
 48 50  1  0  0  0  0
 48 51  1  0  0  0  0
 49 53  1  0  0  0  0
 50 55  1  0  0  0  0
 51 70  1  0  0  0  0
 52 55  1  0  0  0  0
 52 70  1  0  0  0  0
 53 74  1  0  0  0  0
 54 69  1  0  0  0  0
 55 67  1  0  0  0  0
 57 64  1  0  0  0  0
 58 65  1  0  0  0  0
 59 65  1  0  0  0  0
 60 65  1  0  0  0  0
 61 76  1  0  0  0  0
 62 83  1  0  0  0  0
 63 65  1  0  0  0  0
 63 75  1  0  0  0  0
 64 76  1  0  0  0  0
 66 67  1  0  0  0  0
M  CHG  1  76   1
M  ISO  4  42 100  62 101  73 100  83 101
M  END
> <Batch ID>
0073

> <Smiles>
C=C1CN(c2ccc([100NH:0][100C:0](=O)N3CCCC(n4nc(-c5ccc(Oc6ccc(F)cc6F)cc5)c(C(N)=O)c4N)C3)c(C)c2)C=C1[101CH2:1][101O:1]c1ccc2c(c1)CN(C(=O)C(NC(=O)C(C)NC)C(C)(C)C)C(C(=O)NC1CCCc3ccccc31)C2

> <Shape>
0.311

> <Color>
0.101

> <Negative vol penalty>
0.000

$$$$

  -OEChem-04042323413D

 89 97  0     1  0  0  0  0  0999 V2000
  -14.9461  -26.7483   23.6115 C   0  0  0  0  0  0  0  0  0  0  0  0
  -15.8483  -26.0581   22.8083 C   0  0  0  0  0  0  0  0  0  0  0  0
  -29.9561  -23.2652   20.8875 C   0  0  0  0  0  0  0  0  0  0  0  0
  -28.8526  -23.2174   18.7388 C   0  0  0  0  0  0  0  0  0  0  0  0
  -15.2375  -28.0462   24.0290 C   0  0  0  0  0  0  0  0  0  0  0  0
  -17.0421  -26.6661   22.4212 C   0  0  0  0  0  0  0  0  0  0  0  0
  -21.0322  -23.5824   22.8850 C   0  0  0  0  0  0  0  0  0  0  0  0
  -30.5181  -24.5021   20.5715 C   0  0  0  0  0  0  0  0  0  0  0  0
  -29.4145  -24.4544   18.4227 C   0  0  0  0  0  0  0  0  0  0  0  0
  -21.2102  -22.6181   21.8939 C   0  0  0  0  0  0  0  0  0  0  0  0
  -33.0950  -25.6666   18.7200 C   0  0  0  0  0  0  0  0  0  0  0  0
  -34.4480  -25.8540   19.0025 C   0  0  0  0  0  0  0  0  0  0  0  0
  -22.8769  -24.0119   20.8457 C   0  0  0  0  0  0  0  0  0  0  0  0
  -28.1597  -13.5652   20.3383 C   0  0  0  0  0  0  0  0  0  0  0  0
  -28.1312  -12.0483   18.4582 C   0  0  0  0  0  0  0  0  0  0  0  0
  -29.9891  -12.0233   20.0025 C   0  0  0  0  0  0  0  0  0  0  0  0
  -33.8875  -27.6915   20.4677 C   0  0  0  0  0  0  0  0  0  0  0  0
  -29.1234  -22.6228   19.9712 C   0  0  0  0  0  0  0  0  0  0  0  0
  -27.3106  -21.1087   20.9348 C   0  0  0  0  0  0  0  0  0  0  0  0
  -16.4398  -28.6668   23.6548 C   0  0  0  0  0  0  0  0  0  0  0  0
  -21.7685  -24.7755   22.8578 C   0  0  0  0  0  0  0  0  0  0  0  0
  -17.3492  -27.9740   22.8330 C   0  0  0  0  0  0  0  0  0  0  0  0
  -22.7082  -24.9886   21.8391 C   0  0  0  0  0  0  0  0  0  0  0  0
  -27.5310  -13.0680   19.1969 C   0  0  0  0  0  0  0  0  0  0  0  0
  -29.3888  -13.0429   20.7411 C   0  0  0  0  0  0  0  0  0  0  0  0
  -30.2473  -25.0967   19.3391 C   0  0  0  0  0  0  0  0  0  0  0  0
  -22.1306  -22.8341   20.8725 C   0  0  0  0  0  0  0  0  0  0  0  0
  -32.1382  -26.4916   19.3113 C   0  0  0  0  0  0  0  0  0  0  0  0
  -34.8443  -26.8665   19.8764 C   0  0  0  0  0  0  0  0  0  0  0  0
  -29.3603  -11.5260   18.8610 C   0  0  0  0  0  0  0  0  0  0  0  0
  -32.5345  -27.5041   20.1851 C   0  0  0  0  0  0  0  0  0  0  0  0
  -28.5431  -21.3449   20.2968 C   0  0  0  0  0  0  0  0  0  0  0  0
  -27.2199  -19.7403   21.0108 C   0  0  0  0  0  0  0  0  0  0  0  0
  -26.3349  -22.0427   21.4157 C   0  0  0  0  0  0  0  0  0  0  0  0
  -21.0357  -27.8585   22.6102 C   0  0  0  0  0  0  0  0  0  0  0  0
  -24.2109  -28.2556   23.1416 C   0  0  0  0  0  0  0  0  0  0  0  0
  -23.6944  -17.2649   18.9405 C   0  0  0  0  0  0  0  0  0  0  0  0
  -25.5490  -14.6090   19.4005 C   0  0  0  0  0  0  0  0  0  0  0  0
  -27.3589  -26.9456   22.9963 C   0  0  0  0  0  0  0  0  0  0  0  0
  -29.8652  -14.8974   22.3314 C   0  0  0  0  0  0  0  0  0  0  0  0
  -16.6894  -30.0886   24.0916 C   0  0  0  0  0  0  0  0  0  0  0  0
  -21.5840  -25.7939   23.9492 C   0  0  0  0  0  0  0  0  0  0  0  0
  -23.5382  -26.2438   21.7758 C   0  0  0  0  0  0  0  0  0  0  0  0
  -18.1455  -30.5235   23.9470 C   0  0  0  0  0  0  0  0  0  0  0  0
  -29.9922  -16.1148   18.8512 C   0  0  0  0  0  0  0  0  0  0  0  0
  -18.6919  -30.1142   22.5829 C   0  0  0  0  0  0  0  0  0  0  0  0
  -29.5879  -17.5816   18.9886 C   0  0  0  0  0  0  0  0  0  0  0  0
  -30.6932  -15.6002   20.1049 C   0  0  0  0  0  0  0  0  0  0  0  0
  -29.5037  -17.2687   21.4946 C   0  0  0  0  0  0  0  0  0  0  0  0
  -18.6659  -28.5905   22.4127 C   0  0  1  0  0  0  0  0  0  0  0  0
  -22.0170  -27.1973   23.5362 C   0  0  1  0  0  0  0  0  0  0  0  0
  -28.7567  -17.8045   20.2639 C   0  0  1  0  0  0  0  0  0  0  0  0
  -29.7560  -27.5220   23.4641 C   0  0  0  0  0  0  0  0  0  0  0  0
  -24.2965  -29.9482   20.6043 C   0  0  0  0  0  0  0  0  0  0  0  0
  -26.7873  -29.6945   20.6025 C   0  0  0  0  0  0  0  0  0  0  0  0
  -25.6540  -30.8457   22.5033 C   0  0  0  0  0  0  0  0  0  0  0  0
  -30.6922  -12.6092   22.8315 C   0  0  0  0  0  0  0  0  0  0  0  0
  -27.6117  -24.7764   24.9938 C   0  0  0  0  0  0  0  0  0  0  0  0
  -22.7889  -18.1683   19.7585 C   0  0  0  0  0  0  0  0  0  0  0  0
  -24.2668  -14.8717   18.6347 C   0  0  0  0  0  0  0  0  0  0  0  0
  -22.9644  -19.6414   19.4078 C   0  0  0  0  0  0  0  0  0  0  0  0
  -22.0838  -20.5338   20.2704 C   0  0  0  0  0  0  0  0  0  1  0  0
  -25.4391  -28.3377   22.2676 C   0  0  1  0  0  0  0  0  0  0  0  0
  -28.4811  -26.9049   24.0178 C   0  0  2  0  0  0  0  0  0  0  0  0
  -25.5273  -29.6836   21.4942 C   0  0  0  0  0  0  0  0  0  0  0  0
  -29.1891  -20.2169   19.9896 N   0  0  0  0  0  0  0  0  0  0  0  0
  -28.3594  -19.2588   20.4364 N   0  0  0  0  0  0  0  0  0  0  0  0
  -23.3169  -27.2123   22.8623 N   0  0  0  0  0  0  0  0  0  0  0  0
  -29.9027  -15.8653   21.3076 N   0  0  0  0  0  0  0  0  0  0  0  0
  -26.2776  -18.9140   21.5124 N   0  0  0  0  0  0  0  0  0  0  0  0
  -26.5861  -23.4124   21.2571 N   0  0  0  0  0  0  0  0  0  0  0  0
  -26.2841  -13.5978   18.7876 N   0  0  0  0  0  0  0  0  0  0  0  0
  -19.7631  -27.9825   23.1344 N   0  0  0  0  0  0  0  0  0  0  0  0
  -23.5204  -15.9295   19.2736 N   0  0  0  0  0  0  0  0  0  0  0  0
  -26.5788  -28.0735   23.1392 N   0  0  0  0  0  0  0  0  0  0  0  0
  -30.0402  -13.5576   21.9225 N   0  0  0  0  0  0  0  0  0  0  0  0
  -28.7727  -25.4973   24.4111 N   0  3  0  0  0  0  0  0  0  0  0  0
  -25.2793  -21.6740   21.9843 O   0  0  0  0  0  0  0  0  0  0  0  0
  -21.4060  -28.2302   21.5028 O   0  0  0  0  0  0  0  0  0  0  0  0
  -24.0543  -29.0824   24.0436 O   0  0  0  0  0  0  0  0  0  0  0  0
  -24.4775  -17.6838   18.0923 O   0  0  0  0  0  0  0  0  0  0  0  0
  -25.8494  -15.2402   20.4088 O   0  0  0  0  0  0  0  0  0  0  0  0
  -27.1932  -26.0666   22.1534 O   0  0  0  0  0  0  0  0  0  0  0  0
  -29.7173  -15.2094   23.5190 O   0  0  0  0  0  0  0  0  0  0  0  0
  -30.7953  -26.3037   19.0304 O   0  0  0  0  0  0  0  0  0  0  0  0
  -22.3059  -21.8948   19.9035 O   0  0  0  0  0  0  0  0  0  1  0  0
  -36.1435  -27.0454   20.1487 F   0  0  0  0  0  0  0  0  0  0  0  0
  -29.9373  -10.5473   18.1513 F   0  0  0  0  0  0  0  0  0  0  0  0
  -31.6198  -28.2991   20.7571 F   0  0  0  0  0  0  0  0  0  0  0  0
  1  2  1  0  0  0  0
  1  5  2  0  0  0  0
  2  6  2  0  0  0  0
  3  8  2  0  0  0  0
  3 18  1  0  0  0  0
  4  9  1  0  0  0  0
  4 18  2  0  0  0  0
  5 20  1  0  0  0  0
  6 22  1  0  0  0  0
  7 10  2  0  0  0  0
  7 21  1  0  0  0  0
  8 26  1  0  0  0  0
  9 26  2  0  0  0  0
 10 27  1  0  0  0  0
 11 12  2  0  0  0  0
 11 28  1  0  0  0  0
 12 29  1  0  0  0  0
 13 23  1  0  0  0  0
 13 27  2  0  0  0  0
 14 24  2  0  0  0  0
 14 25  1  0  0  0  0
 15 24  1  0  0  0  0
 15 30  2  0  0  0  0
 16 25  2  0  0  0  0
 16 30  1  0  0  0  0
 17 29  2  0  0  0  0
 17 31  1  0  0  0  0
 18 32  1  0  0  0  0
 19 32  1  0  0  0  0
 19 33  2  0  0  0  0
 19 34  1  0  0  0  0
 20 22  2  0  0  0  0
 20 41  1  0  0  0  0
 21 23  2  0  0  0  0
 21 42  1  0  0  0  0
 22 50  1  0  0  0  0
 23 43  1  0  0  0  0
 24 72  1  0  0  0  0
 25 76  1  0  0  0  0
 26 85  1  0  0  0  0
 27 86  1  0  0  0  0
 28 31  2  0  0  0  0
 28 85  1  0  0  0  0
 29 87  1  0  0  0  0
 30 88  1  0  0  0  0
 31 89  1  0  0  0  0
 32 66  2  0  0  0  0
 33 67  1  0  0  0  0
 33 70  1  0  0  0  0
 34 71  1  0  0  0  0
 34 78  2  0  0  0  0
 35 51  1  0  0  0  0
 35 73  1  0  0  0  0
 35 79  2  0  0  0  0
 36 63  1  0  0  0  0
 36 68  1  0  0  0  0
 36 80  2  0  0  0  0
 37 59  1  0  0  0  0
 37 74  1  0  0  0  0
 37 81  2  0  0  0  0
 38 60  1  0  0  0  0
 38 72  1  0  0  0  0
 38 82  2  0  0  0  0
 39 64  1  0  0  0  0
 39 75  1  0  0  0  0
 39 83  2  0  0  0  0
 40 69  1  0  0  0  0
 40 76  1  0  0  0  0
 40 84  2  0  0  0  0
 41 44  1  0  0  0  0
 42 51  1  0  0  0  0
 43 68  1  0  0  0  0
 44 46  1  0  0  0  0
 45 47  1  0  0  0  0
 45 48  1  0  0  0  0
 46 50  1  0  0  0  0
 47 52  1  0  0  0  0
 48 69  1  0  0  0  0
 49 52  1  0  0  0  0
 49 69  1  0  0  0  0
 50 73  1  0  0  0  0
 51 68  1  0  0  0  0
 52 67  1  0  0  0  0
 53 64  1  0  0  0  0
 54 65  1  0  0  0  0
 55 65  1  0  0  0  0
 56 65  1  0  0  0  0
 57 76  1  0  0  0  0
 58 77  1  0  0  0  0
 59 61  1  0  0  0  0
 60 74  1  0  0  0  0
 61 62  1  0  0  0  0
 62 86  1  0  0  0  0
 63 65  1  0  0  0  0
 63 75  1  0  0  0  0
 64 77  1  0  0  0  0
 66 67  1  0  0  0  0
M  CHG  1  77   1
M  ISO  4  40 100  62 101  76 100  86 101
M  END
> <Batch ID>
0073

> <Smiles>
CNC(C)C(=O)NC(C(=O)N1Cc2cc([101O:1][101CH2:1]CCC(=O)NCC(=O)Nc3cc(F)cc([100N:0](C)[100C:0](=O)N4CCCC(n5nc(-c6ccc(Oc7ccc(F)cc7F)cc6)c(C(N)=O)c5N)C4)c3)ccc2CC1C(=O)NC1CCCc2ccccc21)C(C)(C)C

> <Shape>
0.272

> <Color>
0.081

> <Negative vol penalty>
0.000

$$$$

  -OEChem-04042323413D

 90 99  0     1  0  0  0  0  0999 V2000
  -24.5220  -32.1001   21.6643 C   0  0  0  0  0  0  0  0  0  0  0  0
  -24.6123  -30.8389   22.2446 C   0  0  0  0  0  0  0  0  0  0  0  0
  -32.4982  -18.3539   22.2083 C   0  0  0  0  0  0  0  0  0  0  0  0
  -23.0036   -9.9372   19.9164 C   0  0  0  0  0  0  0  0  0  0  0  0
  -23.8027   -9.8244   22.1936 C   0  0  0  0  0  0  0  0  0  0  0  0
  -25.0841  -32.3306   20.4094 C   0  0  0  0  0  0  0  0  0  0  0  0
  -25.2638  -29.8072   21.5698 C   0  0  0  0  0  0  0  0  0  0  0  0
  -28.3635  -27.1686   24.5822 C   0  0  0  0  0  0  0  0  0  0  0  0
  -31.7475  -19.1449   23.0780 C   0  0  0  0  0  0  0  0  0  0  0  0
  -31.9665  -17.1629   21.7139 C   0  0  0  0  0  0  0  0  0  0  0  0
  -22.2415   -8.7880   20.1269 C   0  0  0  0  0  0  0  0  0  0  0  0
  -23.0405   -8.6753   22.4041 C   0  0  0  0  0  0  0  0  0  0  0  0
  -27.7790  -26.2325   25.4342 C   0  0  0  0  0  0  0  0  0  0  0  0
  -21.5861   -5.5077   23.4342 C   0  0  0  0  0  0  0  0  0  0  0  0
  -22.1920   -4.4402   24.0967 C   0  0  0  0  0  0  0  0  0  0  0  0
  -28.3748  -24.4710   23.8976 C   0  0  0  0  0  0  0  0  0  0  0  0
  -23.8627   -4.3085   22.3564 C   0  0  0  0  0  0  0  0  0  0  0  0
  -23.7842  -10.4553   20.9497 C   0  0  0  0  0  0  0  0  0  0  0  0
  -24.1738  -12.9764   20.9388 C   0  0  0  0  0  0  0  0  0  0  0  0
  -25.7513  -31.3037   19.7231 C   0  0  0  0  0  0  0  0  0  0  0  0
  -28.9495  -26.7636   23.3744 C   0  0  0  0  0  0  0  0  0  0  0  0
  -25.8342  -30.0238   20.3039 C   0  0  0  0  0  0  0  0  0  0  0  0
  -28.9684  -25.4036   23.0333 C   0  0  0  0  0  0  0  0  0  0  0  0
  -30.4651  -18.7448   23.4534 C   0  0  0  0  0  0  0  0  0  0  0  0
  -30.6840  -16.7628   22.0894 C   0  0  0  0  0  0  0  0  0  0  0  0
  -22.2599   -8.1571   21.3708 C   0  0  0  0  0  0  0  0  0  0  0  0
  -27.7820  -24.8838   25.0905 C   0  0  0  0  0  0  0  0  0  0  0  0
  -22.1184   -5.9756   22.2327 C   0  0  0  0  0  0  0  0  0  0  0  0
  -23.3304   -3.8406   23.5578 C   0  0  0  0  0  0  0  0  0  0  0  0
  -23.2567   -5.3760   21.6939 C   0  0  0  0  0  0  0  0  0  0  0  0
  -29.9333  -17.5538   22.9591 C   0  0  0  0  0  0  0  0  0  0  0  0
  -24.5722  -11.6420   20.7327 C   0  0  0  0  0  0  0  0  0  0  0  0
  -25.2741  -13.7209   20.5904 C   0  0  0  0  0  0  0  0  0  0  0  0
  -29.8260  -20.9546   24.4150 C   0  0  0  0  0  0  0  0  0  0  0  0
  -22.9211  -13.4964   21.4036 C   0  0  0  0  0  0  0  0  0  0  0  0
  -28.3992  -27.3641   20.3019 C   0  0  0  0  0  0  0  0  0  0  0  0
  -31.1204  -25.6494   19.8810 C   0  0  0  0  0  0  0  0  0  0  0  0
  -33.3412  -22.9064   20.6302 C   0  0  0  0  0  0  0  0  0  0  0  0
  -30.7621  -14.6536   20.7140 C   0  0  0  0  0  0  0  0  0  0  0  0
  -26.3019  -31.5881   18.3481 C   0  0  0  0  0  0  0  0  0  0  0  0
  -29.5995  -27.7825   22.4791 C   0  0  0  0  0  0  0  0  0  0  0  0
  -29.6025  -24.9148   21.7576 C   0  0  0  0  0  0  0  0  0  0  0  0
  -27.3014  -30.5409   17.8636 C   0  0  0  0  0  0  0  0  0  0  0  0
  -29.5598  -12.3727   18.2586 C   0  0  0  0  0  0  0  0  0  0  0  0
  -26.7660  -29.1350   18.1158 C   0  0  0  0  0  0  0  0  0  0  0  0
  -28.1222  -12.0890   18.7003 C   0  0  0  0  0  0  0  0  0  0  0  0
  -28.4819  -20.1848   26.2199 C   0  0  0  0  0  0  0  0  0  0  0  0
  -30.4997  -12.5287   19.4528 C   0  0  0  0  0  0  0  0  0  0  0  0
  -28.6551  -19.0694   25.2117 C   0  0  0  0  0  0  0  0  0  0  0  0
  -28.6314  -13.2249   20.8998 C   0  0  0  0  0  0  0  0  0  0  0  0
  -26.5546  -28.8857   19.6140 C   0  0  1  0  0  0  0  0  0  0  0  0
  -28.7592  -21.4299   25.3921 C   0  0  1  0  0  0  0  0  0  0  0  0
  -29.7128  -27.3191   21.0300 C   0  0  1  0  0  0  0  0  0  0  0  0
  -27.6353  -13.1244   19.7330 C   0  0  2  0  0  0  0  0  0  0  0  0
  -35.6036  -22.3393   19.7043 C   0  0  0  0  0  0  0  0  0  0  0  0
  -29.5627  -23.8910   17.9338 C   0  0  0  0  0  0  0  0  0  0  0  0
  -31.3867  -22.1865   18.1226 C   0  0  0  0  0  0  0  0  0  0  0  0
  -31.8880  -24.4506   17.2030 C   0  0  0  0  0  0  0  0  0  0  0  0
  -28.5678  -24.5213   27.7952 C   0  0  0  0  0  0  0  0  0  0  0  0
  -27.1796  -22.4409   27.7582 C   0  0  0  0  0  0  0  0  0  0  0  0
  -34.5569  -22.8406   23.3278 C   0  0  0  0  0  0  0  0  0  0  0  0
  -31.4007  -21.9240   26.7066 C   0  0  0  0  0  0  0  0  0  0  0  0
  -31.4430  -24.1887   19.6779 C   0  0  1  0  0  0  0  0  0  0  0  0
  -34.8411  -22.9856   20.8505 C   0  0  2  0  0  0  0  0  0  0  0  0
  -29.2057  -22.6141   26.2287 C   0  0  1  0  0  0  0  0  0  0  0  0
  -31.0564  -23.6883   18.2575 C   0  0  0  0  0  0  0  0  0  0  0  0
  -28.0501  -23.3811   26.9142 C   0  0  0  0  0  0  0  0  0  1  0  0
  -25.8275  -11.5415   20.2877 N   0  0  0  0  0  0  0  0  0  0  0  0
  -26.2274  -12.8223   20.2113 N   0  0  0  0  0  0  0  0  0  0  0  0
  -29.7089  -19.5471   24.3327 N   0  0  0  0  0  0  0  0  0  0  0  0
  -30.2195  -25.9503   20.9123 N   0  0  0  0  0  0  0  0  0  0  0  0
  -29.9763  -13.5285   20.3861 N   0  0  0  0  0  0  0  0  0  0  0  0
  -25.5095  -15.0501   20.5744 N   0  0  0  0  0  0  0  0  0  0  0  0
  -21.8973  -12.5920   21.7173 N   0  0  0  0  0  0  0  0  0  0  0  0
  -30.1473  -15.5522   21.5852 N   0  0  0  0  0  0  0  0  0  0  0  0
  -27.8190  -28.6177   20.2652 N   0  0  0  0  0  0  0  0  0  0  0  0
  -32.8571  -24.0341   20.0016 N   0  0  0  0  0  0  0  0  0  0  0  0
  -35.2163  -22.2918   22.1149 N   0  3  0  0  0  0  0  0  0  0  0  0
  -30.5591  -21.7236   23.8103 O   0  0  0  0  0  0  0  0  0  0  0  0
  -22.7102  -14.7273   21.5212 O   0  0  0  0  0  0  0  0  0  0  0  0
  -27.9464  -26.3379   19.8085 O   0  0  0  0  0  0  0  0  0  0  0  0
  -31.6538  -26.4930   19.1561 O   0  0  0  0  0  0  0  0  0  0  0  0
  -32.6671  -21.9392   20.9774 O   0  0  0  0  0  0  0  0  0  0  0  0
  -31.8861  -14.8222   20.2342 O   0  0  0  0  0  0  0  0  0  0  0  0
  -21.5162   -7.0360   21.5766 O   0  0  0  0  0  0  0  0  0  0  0  0
  -27.2115  -23.9681   25.9199 O   0  0  0  0  0  0  0  0  0  1  0  0
  -30.0989  -22.1243   27.2320 O   0  0  0  0  0  0  0  0  0  0  0  0
  -23.9130   -2.8165   24.1949 F   0  0  0  0  0  0  0  0  0  0  0  0
  -23.7734   -5.8218   20.5406 F   0  0  0  0  0  0  0  0  0  0  0  0
  -28.6999  -17.1686   23.3211 F   0  0  0  0  0  0  0  0  0  0  0  0
  1  2  1  0  0  0  0
  1  6  2  0  0  0  0
  2  7  2  0  0  0  0
  3  9  2  0  0  0  0
  3 10  1  0  0  0  0
  4 11  2  0  0  0  0
  4 18  1  0  0  0  0
  5 12  1  0  0  0  0
  5 18  2  0  0  0  0
  6 20  1  0  0  0  0
  7 22  1  0  0  0  0
  8 13  2  0  0  0  0
  8 21  1  0  0  0  0
  9 24  1  0  0  0  0
 10 25  2  0  0  0  0
 11 26  1  0  0  0  0
 12 26  2  0  0  0  0
 13 27  1  0  0  0  0
 14 15  2  0  0  0  0
 14 28  1  0  0  0  0
 15 29  1  0  0  0  0
 16 23  1  0  0  0  0
 16 27  2  0  0  0  0
 17 29  2  0  0  0  0
 17 30  1  0  0  0  0
 18 32  1  0  0  0  0
 19 32  1  0  0  0  0
 19 33  2  0  0  0  0
 19 35  1  0  0  0  0
 20 22  2  0  0  0  0
 20 40  1  0  0  0  0
 21 23  2  0  0  0  0
 21 41  1  0  0  0  0
 22 51  1  0  0  0  0
 23 42  1  0  0  0  0
 24 31  2  0  0  0  0
 24 70  1  0  0  0  0
 25 31  1  0  0  0  0
 25 75  1  0  0  0  0
 26 85  1  0  0  0  0
 27 86  1  0  0  0  0
 28 30  2  0  0  0  0
 28 85  1  0  0  0  0
 29 88  1  0  0  0  0
 30 89  1  0  0  0  0
 31 90  1  0  0  0  0
 32 68  2  0  0  0  0
 33 69  1  0  0  0  0
 33 73  1  0  0  0  0
 34 52  1  0  0  0  0
 34 70  1  0  0  0  0
 34 79  2  0  0  0  0
 35 74  1  0  0  0  0
 35 80  2  0  0  0  0
 36 53  1  0  0  0  0
 36 76  1  0  0  0  0
 36 81  2  0  0  0  0
 37 63  1  0  0  0  0
 37 71  1  0  0  0  0
 37 82  2  0  0  0  0
 38 64  1  0  0  0  0
 38 77  1  0  0  0  0
 38 83  2  0  0  0  0
 39 72  1  0  0  0  0
 39 75  1  0  0  0  0
 39 84  2  0  0  0  0
 40 43  1  0  0  0  0
 41 53  1  0  0  0  0
 42 71  1  0  0  0  0
 43 45  1  0  0  0  0
 44 46  1  0  0  0  0
 44 48  1  0  0  0  0
 45 51  1  0  0  0  0
 46 54  1  0  0  0  0
 47 49  1  0  0  0  0
 47 52  1  0  0  0  0
 48 72  1  0  0  0  0
 49 70  1  0  0  0  0
 50 54  1  0  0  0  0
 50 72  1  0  0  0  0
 51 76  1  0  0  0  0
 52 65  1  0  0  0  0
 53 71  1  0  0  0  0
 54 69  1  0  0  0  0
 55 64  1  0  0  0  0
 56 66  1  0  0  0  0
 57 66  1  0  0  0  0
 58 66  1  0  0  0  0
 59 67  1  0  0  0  0
 60 67  1  0  0  0  0
 61 78  1  0  0  0  0
 62 87  1  0  0  0  0
 63 66  1  0  0  0  0
 63 77  1  0  0  0  0
 64 78  1  0  0  0  0
 65 67  1  0  0  0  0
 65 87  1  0  0  0  0
 67 86  1  0  0  0  0
 68 69  1  0  0  0  0
M  CHG  1  78   1
M  ISO  4  39 100  67 101  75 100  86 101
M  END
> <Batch ID>
0073

> <Smiles>
CNC(C)C(=O)NC(C(=O)N1Cc2cc([101O:1][101C:1](C)(C)C(OC)C3CCN(c4cccc([100NH:0][100C:0](=O)N5CCCC(n6nc(-c7ccc(Oc8ccc(F)cc8F)cc7)c(C(N)=O)c6N)C5)c4F)C3=O)ccc2CC1C(=O)NC1CCCc2ccccc21)C(C)(C)C

> <Shape>
0.278

> <Color>
0.213

> <Negative vol penalty>
0.000

$$$$

  -OEChem-04042323413D

 87 96  0     1  0  0  0  0  0999 V2000
  -32.1102  -33.6603   23.3924 C   0  0  0  0  0  0  0  0  0  0  0  0
  -31.7391  -32.5040   22.7136 C   0  0  0  0  0  0  0  0  0  0  0  0
  -24.7611   -8.6829   21.6239 C   0  0  0  0  0  0  0  0  0  0  0  0
  -23.0989   -9.9874   20.4524 C   0  0  0  0  0  0  0  0  0  0  0  0
  -31.3333  -34.1242   24.4531 C   0  0  0  0  0  0  0  0  0  0  0  0
  -30.5915  -31.8103   23.0959 C   0  0  0  0  0  0  0  0  0  0  0  0
  -26.7268  -28.7849   19.4329 C   0  0  0  0  0  0  0  0  0  0  0  0
  -23.7653   -8.1478   22.4410 C   0  0  0  0  0  0  0  0  0  0  0  0
  -22.1030   -9.4522   21.2694 C   0  0  0  0  0  0  0  0  0  0  0  0
  -26.6020  -27.4338   19.1123 C   0  0  0  0  0  0  0  0  0  0  0  0
  -21.3867   -5.7542   22.2267 C   0  0  0  0  0  0  0  0  0  0  0  0
  -21.4097   -4.3794   22.4610 C   0  0  0  0  0  0  0  0  0  0  0  0
  -24.8981  -27.1963   20.8034 C   0  0  0  0  0  0  0  0  0  0  0  0
  -24.3281  -19.8955   18.2581 C   0  0  0  0  0  0  0  0  0  0  0  0
  -26.3143  -18.7940   19.0820 C   0  0  0  0  0  0  0  0  0  0  0  0
  -21.6356   -4.7872   24.8316 C   0  0  0  0  0  0  0  0  0  0  0  0
  -24.4279   -9.6028   20.6296 C   0  0  0  0  0  0  0  0  0  0  0  0
  -25.9171   -9.6423   18.5588 C   0  0  0  0  0  0  0  0  0  0  0  0
  -30.1703  -33.4412   24.8424 C   0  0  0  0  0  0  0  0  0  0  0  0
  -25.9447  -29.3503   20.4503 C   0  0  0  0  0  0  0  0  0  0  0  0
  -29.7990  -32.2648   24.1637 C   0  0  0  0  0  0  0  0  0  0  0  0
  -25.0131  -28.5554   21.1332 C   0  0  0  0  0  0  0  0  0  0  0  0
  -23.8865  -18.6905   17.7117 C   0  0  0  0  0  0  0  0  0  0  0  0
  -25.5421  -19.9473   18.9431 C   0  0  0  0  0  0  0  0  0  0  0  0
  -25.8726  -17.5890   18.5357 C   0  0  0  0  0  0  0  0  0  0  0  0
  -22.4363   -8.5324   22.2637 C   0  0  0  0  0  0  0  0  0  0  0  0
  -25.6896  -26.6386   19.7996 C   0  0  0  0  0  0  0  0  0  0  0  0
  -21.4881   -6.6456   23.2949 C   0  0  0  0  0  0  0  0  0  0  0  0
  -21.5342   -3.8959   23.7635 C   0  0  0  0  0  0  0  0  0  0  0  0
  -21.6126   -6.1620   24.5973 C   0  0  0  0  0  0  0  0  0  0  0  0
  -24.6587  -17.5372   17.8506 C   0  0  0  0  0  0  0  0  0  0  0  0
  -25.4562  -10.1563   19.7857 C   0  0  0  0  0  0  0  0  0  0  0  0
  -26.8902  -10.5259   18.1603 C   0  0  0  0  0  0  0  0  0  0  0  0
  -25.7827  -23.1088   20.2556 C   0  0  0  0  0  0  0  0  0  0  0  0
  -25.5027   -8.4710   17.8434 C   0  0  0  0  0  0  0  0  0  0  0  0
  -26.5596  -30.7473   23.2385 C   0  0  0  0  0  0  0  0  0  0  0  0
  -23.3634  -31.3010   23.2233 C   0  0  0  0  0  0  0  0  0  0  0  0
  -20.2720  -30.3981   22.0943 C   0  0  0  0  0  0  0  0  0  0  0  0
  -27.8870  -16.3006   19.3285 C   0  0  0  0  0  0  0  0  0  0  0  0
  -29.3884  -33.9548   26.0254 C   0  0  0  0  0  0  0  0  0  0  0  0
  -26.0724  -30.8154   20.7658 C   0  0  0  0  0  0  0  0  0  0  0  0
  -24.1355  -29.1187   22.2199 C   0  0  0  0  0  0  0  0  0  0  0  0
  -27.9822  -33.3695   26.1267 C   0  0  0  0  0  0  0  0  0  0  0  0
  -30.1172  -13.5908   19.9288 C   0  0  0  0  0  0  0  0  0  0  0  0
  -28.0175  -31.8578   25.9261 C   0  0  0  0  0  0  0  0  0  0  0  0
  -29.2181  -12.3553   19.8425 C   0  0  0  0  0  0  0  0  0  0  0  0
  -29.3972  -14.7721   20.5767 C   0  0  0  0  0  0  0  0  0  0  0  0
  -27.2058  -13.8837   19.8855 C   0  0  0  0  0  0  0  0  0  0  0  0
  -27.2248  -21.2850   20.2101 C   0  0  0  0  0  0  0  0  0  0  0  0
  -28.5474  -31.4984   24.5327 C   0  0  1  0  0  0  0  0  0  0  0  0
  -25.5910  -31.1684   22.1698 C   0  0  1  0  0  0  0  0  0  0  0  0
  -27.8662  -12.6873   19.1810 C   0  0  2  0  0  0  0  0  0  0  0  0
  -27.1556  -22.7203   20.7584 C   0  0  0  0  0  0  0  0  0  0  0  0
  -22.5875  -18.6384   16.9806 C   0  0  0  0  0  0  0  0  0  0  0  0
  -27.2170  -22.7440   22.2834 C   0  0  0  0  0  0  0  0  0  0  0  0
  -28.2349  -23.6078   20.1427 C   0  0  0  0  0  0  0  0  0  0  0  0
  -17.8472  -31.0155   22.2856 C   0  0  0  0  0  0  0  0  0  0  0  0
  -23.2503  -29.9934   25.9778 C   0  0  0  0  0  0  0  0  0  0  0  0
  -20.7718  -29.7783   25.6970 C   0  0  0  0  0  0  0  0  0  0  0  0
  -21.8297  -32.0371   25.7341 C   0  0  0  0  0  0  0  0  0  0  0  0
  -20.0739  -30.9868   19.2006 C   0  0  0  0  0  0  0  0  0  0  0  0
  -25.1786  -24.4379   20.5422 C   0  0  0  0  0  0  0  0  0  1  0  0
  -22.1465  -30.5531   23.7118 C   0  0  1  0  0  0  0  0  0  0  0  0
  -19.1367  -31.2153   21.5046 C   0  0  2  0  0  0  0  0  0  0  0  0
  -22.0173  -30.5791   25.2611 C   0  0  0  0  0  0  0  0  0  0  0  0
  -26.0848  -11.2793   20.1431 N   0  0  0  0  0  0  0  0  0  0  0  0
  -25.1625  -22.2138   19.5542 N   0  0  0  0  0  0  0  0  0  0  0  0
  -26.9508  -11.4782   19.1348 N   0  0  0  0  0  0  0  0  0  0  0  0
  -25.9756  -21.1306   19.4798 N   0  0  0  0  0  0  0  0  0  0  0  0
  -24.3019  -30.5551   22.4961 N   0  0  0  0  0  0  0  0  0  0  0  0
  -28.1271  -15.0309   19.8951 N   0  0  0  0  0  0  0  0  0  0  0  0
  -27.6915  -10.5734   17.0748 N   0  0  0  0  0  0  0  0  0  0  0  0
  -24.4900   -7.6745   18.3951 N   0  0  0  0  0  0  0  0  0  0  0  0
  -26.6591  -16.4190   18.6783 N   0  0  0  0  0  0  0  0  0  0  0  0
  -27.5189  -31.6969   23.5341 N   0  0  0  0  0  0  0  0  0  0  0  0
  -21.0049  -31.1264   23.0073 N   0  0  0  0  0  0  0  0  0  0  0  0
  -18.8946  -30.8193   20.0884 N   0  3  0  0  0  0  0  0  0  0  0  0
  -26.0267   -8.1314   16.7555 O   0  0  0  0  0  0  0  0  0  0  0  0
  -26.4442  -29.6432   23.7575 O   0  0  0  0  0  0  0  0  0  0  0  0
  -23.4736  -32.5043   23.4713 O   0  0  0  0  0  0  0  0  0  0  0  0
  -20.4849  -29.2293   21.7794 O   0  0  0  0  0  0  0  0  0  0  0  0
  -28.7216  -17.2071   19.3902 O   0  0  0  0  0  0  0  0  0  0  0  0
  -21.4643   -8.0102   23.0607 O   0  0  0  0  0  0  0  0  0  0  0  0
  -25.5661  -25.3194   19.4891 O   0  0  0  0  0  0  0  0  0  1  0  0
  -21.5548   -2.5756   23.9884 F   0  0  0  0  0  0  0  0  0  0  0  0
  -21.7092   -7.0135   25.6276 F   0  0  0  0  0  0  0  0  0  0  0  0
  -24.2323  -16.3789   17.3248 F   0  0  0  0  0  0  0  0  0  0  0  0
  1  2  1  0  0  0  0
  1  5  2  0  0  0  0
  2  6  2  0  0  0  0
  3  8  2  0  0  0  0
  3 17  1  0  0  0  0
  4  9  1  0  0  0  0
  4 17  2  0  0  0  0
  5 19  1  0  0  0  0
  6 21  1  0  0  0  0
  7 10  2  0  0  0  0
  7 20  1  0  0  0  0
  8 26  1  0  0  0  0
  9 26  2  0  0  0  0
 10 27  1  0  0  0  0
 11 12  2  0  0  0  0
 11 28  1  0  0  0  0
 12 29  1  0  0  0  0
 13 22  1  0  0  0  0
 13 27  2  0  0  0  0
 14 23  2  0  0  0  0
 14 24  1  0  0  0  0
 15 24  2  0  0  0  0
 15 25  1  0  0  0  0
 16 29  2  0  0  0  0
 16 30  1  0  0  0  0
 17 32  1  0  0  0  0
 18 32  1  0  0  0  0
 18 33  2  0  0  0  0
 18 35  1  0  0  0  0
 19 21  2  0  0  0  0
 19 40  1  0  0  0  0
 20 22  2  0  0  0  0
 20 41  1  0  0  0  0
 21 50  1  0  0  0  0
 22 42  1  0  0  0  0
 23 31  1  0  0  0  0
 23 54  1  0  0  0  0
 24 69  1  0  0  0  0
 25 31  2  0  0  0  0
 25 74  1  0  0  0  0
 26 83  1  0  0  0  0
 27 84  1  0  0  0  0
 28 30  2  0  0  0  0
 28 83  1  0  0  0  0
 29 85  1  0  0  0  0
 30 86  1  0  0  0  0
 31 87  1  0  0  0  0
 32 66  2  0  0  0  0
 33 68  1  0  0  0  0
 33 72  1  0  0  0  0
 34 53  1  0  0  0  0
 34 62  1  0  0  0  0
 34 67  2  0  0  0  0
 35 73  1  0  0  0  0
 35 78  2  0  0  0  0
 36 51  1  0  0  0  0
 36 75  1  0  0  0  0
 36 79  2  0  0  0  0
 37 63  1  0  0  0  0
 37 70  1  0  0  0  0
 37 80  2  0  0  0  0
 38 64  1  0  0  0  0
 38 76  1  0  0  0  0
 38 81  2  0  0  0  0
 39 71  1  0  0  0  0
 39 74  1  0  0  0  0
 39 82  2  0  0  0  0
 40 43  1  0  0  0  0
 41 51  1  0  0  0  0
 42 70  1  0  0  0  0
 43 45  1  0  0  0  0
 44 46  1  0  0  0  0
 44 47  1  0  0  0  0
 45 50  1  0  0  0  0
 46 52  1  0  0  0  0
 47 71  1  0  0  0  0
 48 52  1  0  0  0  0
 48 71  1  0  0  0  0
 49 53  1  0  0  0  0
 49 69  1  0  0  0  0
 50 75  1  0  0  0  0
 51 70  1  0  0  0  0
 52 68  1  0  0  0  0
 53 55  1  0  0  0  0
 53 56  1  0  0  0  0
 57 64  1  0  0  0  0
 58 65  1  0  0  0  0
 59 65  1  0  0  0  0
 60 65  1  0  0  0  0
 61 77  1  0  0  0  0
 62 84  1  0  0  0  0
 63 65  1  0  0  0  0
 63 76  1  0  0  0  0
 64 77  1  0  0  0  0
 66 68  1  0  0  0  0
 67 69  1  0  0  0  0
M  CHG  1  77   1
M  ISO  4  39 100  62 101  74 100  84 101
M  END
> <Batch ID>
0073

> <Smiles>
CNC(C)C(=O)NC(C(=O)N1Cc2cc([101O:1][101CH2:1]C3=NN(c4cc(C)c(F)c([100NH:0][100C:0](=O)N5CCCC(n6nc(-c7ccc(Oc8ccc(F)cc8F)cc7)c(C(N)=O)c6N)C5)c4)CC3(C)C)ccc2CC1C(=O)NC1CCCc2ccccc21)C(C)(C)C

> <Shape>
0.248

> <Color>
0.100

> <Negative vol penalty>
0.000

$$$$

  -OEChem-04042323413D

 86 94  0     1  0  0  0  0  0999 V2000
  -30.5427  -18.3543   17.2058 C   0  0  0  0  0  0  0  0  0  0  0  0
  -30.5409  -17.4485   18.2605 C   0  0  0  0  0  0  0  0  0  0  0  0
  -24.0086  -28.6948   19.4528 C   0  0  0  0  0  0  0  0  0  0  0  0
  -24.1826  -28.0574   21.7767 C   0  0  0  0  0  0  0  0  0  0  0  0
  -28.0913  -20.4815   25.1091 C   0  0  0  0  0  0  0  0  0  0  0  0
  -29.3502  -18.6625   16.5546 C   0  0  0  0  0  0  0  0  0  0  0  0
  -29.3485  -16.8415   18.6566 C   0  0  0  0  0  0  0  0  0  0  0  0
  -29.6666  -13.2922   22.0485 C   0  0  0  0  0  0  0  0  0  0  0  0
  -28.2593  -21.4069   24.0791 C   0  0  0  0  0  0  0  0  0  0  0  0
  -22.7009  -29.1288   19.6697 C   0  0  0  0  0  0  0  0  0  0  0  0
  -22.8748  -28.4915   21.9937 C   0  0  0  0  0  0  0  0  0  0  0  0
  -29.9550  -13.5529   23.3874 C   0  0  0  0  0  0  0  0  0  0  0  0
  -19.7440  -27.3382   21.4469 C   0  0  0  0  0  0  0  0  0  0  0  0
  -18.9016  -26.5113   22.1899 C   0  0  0  0  0  0  0  0  0  0  0  0
  -27.6300  -13.2310   23.9444 C   0  0  0  0  0  0  0  0  0  0  0  0
  -28.3996  -19.6014   22.4798 C   0  0  0  0  0  0  0  0  0  0  0  0
  -18.6150  -28.2696   23.8218 C   0  0  0  0  0  0  0  0  0  0  0  0
  -24.7494  -28.1590   20.5063 C   0  0  0  0  0  0  0  0  0  0  0  0
  -28.0775  -19.1160   24.8245 C   0  0  0  0  0  0  0  0  0  0  0  0
  -27.2794  -28.4694   20.4029 C   0  0  0  0  0  0  0  0  0  0  0  0
  -28.1411  -18.0680   16.9517 C   0  0  0  0  0  0  0  0  0  0  0  0
  -28.3538  -13.0093   21.6451 C   0  0  0  0  0  0  0  0  0  0  0  0
  -28.1384  -17.1214   17.9963 C   0  0  0  0  0  0  0  0  0  0  0  0
  -27.3281  -12.9646   22.6002 C   0  0  0  0  0  0  0  0  0  0  0  0
  -28.4134  -20.9669   22.7645 C   0  0  0  0  0  0  0  0  0  0  0  0
  -28.2316  -18.6759   23.5099 C   0  0  0  0  0  0  0  0  0  0  0  0
  -22.1340  -29.0272   20.9401 C   0  0  0  0  0  0  0  0  0  0  0  0
  -28.9361  -13.5252   24.3352 C   0  0  0  0  0  0  0  0  0  0  0  0
  -20.0221  -28.6308   21.8914 C   0  0  0  0  0  0  0  0  0  0  0  0
  -18.3370  -26.9769   23.3773 C   0  0  0  0  0  0  0  0  0  0  0  0
  -19.4575  -29.0965   23.0789 C   0  0  0  0  0  0  0  0  0  0  0  0
  -26.1002  -27.7100   20.2827 C   0  0  0  0  0  0  0  0  0  0  0  0
  -28.2871  -27.5911   20.0875 C   0  0  0  0  0  0  0  0  0  0  0  0
  -27.8979  -18.1571   25.9330 C   0  0  0  0  0  0  0  0  0  0  0  0
  -27.4487  -29.8458   20.7673 C   0  0  0  0  0  0  0  0  0  0  0  0
  -26.2601  -14.3905   19.6925 C   0  0  0  0  0  0  0  0  0  0  0  0
  -24.5053  -11.7378   20.3298 C   0  0  0  0  0  0  0  0  0  0  0  0
  -23.8347   -9.1475   22.4481 C   0  0  0  0  0  0  0  0  0  0  0  0
  -28.7494  -21.6399   20.3602 C   0  0  0  0  0  0  0  0  0  0  0  0
  -26.8808  -18.4318   16.2069 C   0  0  0  0  0  0  0  0  0  0  0  0
  -28.0638  -12.7040   20.2011 C   0  0  0  0  0  0  0  0  0  0  0  0
  -25.9055  -12.6460   22.2218 C   0  0  0  0  0  0  0  0  0  0  0  0
  -25.6124  -18.0819   16.9783 C   0  0  0  0  0  0  0  0  0  0  0  0
  -29.1603  -23.6774   17.4694 C   0  0  0  0  0  0  0  0  0  0  0  0
  -25.6871  -16.6469   17.4780 C   0  0  0  0  0  0  0  0  0  0  0  0
  -28.5350  -25.0138   17.8758 C   0  0  0  0  0  0  0  0  0  0  0  0
  -28.3939  -22.4918   18.0530 C   0  0  0  0  0  0  0  0  0  0  0  0
  -27.5619  -23.8771   19.9125 C   0  0  0  0  0  0  0  0  0  0  0  0
  -26.8487  -16.4719   18.4645 C   0  0  1  0  0  0  0  0  0  0  0  0
  -26.6036  -12.9336   19.8234 C   0  0  1  0  0  0  0  0  0  0  0  0
  -28.3373  -25.1025   19.4018 C   0  0  2  0  0  0  0  0  0  0  0  0
  -22.3206   -7.1645   22.7176 C   0  0  0  0  0  0  0  0  0  0  0  0
  -22.2202  -13.5943   21.1309 C   0  0  0  0  0  0  0  0  0  0  0  0
  -21.1265  -11.6464   22.2611 C   0  0  0  0  0  0  0  0  0  0  0  0
  -21.5226  -11.5961   19.7987 C   0  0  0  0  0  0  0  0  0  0  0  0
  -31.2762  -16.3536   27.5104 C   0  0  0  0  0  0  0  0  0  0  0  0
  -30.0240  -14.3754   28.3911 C   0  0  0  0  0  0  0  0  0  0  0  0
  -26.1141   -7.2600   22.4420 C   0  0  0  0  0  0  0  0  0  0  0  0
  -28.8004  -16.2577   27.2272 C   0  0  0  0  0  0  0  0  0  0  0  0
  -30.3009  -14.6643   25.9149 C   0  0  0  0  0  0  0  0  0  1  0  0
  -23.4848  -11.3566   21.3749 C   0  0  1  0  0  0  0  0  0  0  0  0
  -23.6609   -7.6604   22.1975 C   0  0  2  0  0  0  0  0  0  0  0  0
  -22.1149  -12.0563   21.1486 C   0  0  0  0  0  0  0  0  0  0  0  0
  -30.0871  -15.4076   27.2513 C   0  0  0  0  0  0  0  0  0  0  0  0
  -26.3354  -26.4465   19.9191 N   0  0  0  0  0  0  0  0  0  0  0  0
  -27.6741  -26.4053   19.8080 N   0  0  0  0  0  0  0  0  0  0  0  0
  -25.6713  -12.3608   20.7966 N   0  0  0  0  0  0  0  0  0  0  0  0
  -28.2490  -22.6423   19.5026 N   0  0  0  0  0  0  0  0  0  0  0  0
  -28.2193  -17.2975   23.2029 N   0  0  0  0  0  0  0  0  0  0  0  0
  -29.6289  -27.7253   20.0245 N   0  0  0  0  0  0  0  0  0  0  0  0
  -26.7796  -18.2332   26.6544 N   0  0  0  0  0  0  0  0  0  0  0  0
  -26.3074  -30.6047   21.0601 N   0  0  0  0  0  0  0  0  0  0  0  0
  -28.5833  -21.9077   21.7186 N   0  0  0  0  0  0  0  0  0  0  0  0
  -27.0158  -15.0644   18.7521 N   0  0  0  0  0  0  0  0  0  0  0  0
  -23.4195   -9.8992   21.3693 N   0  0  0  0  0  0  0  0  0  0  0  0
  -28.8653  -17.2612   26.1611 N   0  3  0  0  0  0  0  0  0  0  0  0
  -24.7420   -6.8910   22.8757 N   0  3  0  0  0  0  0  0  0  0  0  0
  -28.5774  -30.3909   20.8153 O   0  0  0  0  0  0  0  0  0  0  0  0
  -25.3740  -14.8675   20.3917 O   0  0  0  0  0  0  0  0  0  0  0  0
  -24.2793  -11.4854   19.1436 O   0  0  0  0  0  0  0  0  0  0  0  0
  -24.2894   -9.5975   23.4975 O   0  0  0  0  0  0  0  0  0  0  0  0
  -29.3101  -20.6319   19.9225 O   0  0  0  0  0  0  0  0  0  0  0  0
  -20.8580  -29.4509   21.1522 O   0  0  0  0  0  0  0  0  0  0  0  0
  -29.2147  -13.7798   25.6426 O   0  0  0  0  0  0  0  0  0  1  0  0
  -17.5268  -26.1833   24.0899 F   0  0  0  0  0  0  0  0  0  0  0  0
  -19.7199  -30.3378   23.5104 F   0  0  0  0  0  0  0  0  0  0  0  0
  1  2  1  0  0  0  0
  1  6  2  0  0  0  0
  2  7  2  0  0  0  0
  3 10  2  0  0  0  0
  3 18  1  0  0  0  0
  4 11  1  0  0  0  0
  4 18  2  0  0  0  0
  5  9  2  0  0  0  0
  5 19  1  0  0  0  0
  6 21  1  0  0  0  0
  7 23  1  0  0  0  0
  8 12  2  0  0  0  0
  8 22  1  0  0  0  0
  9 25  1  0  0  0  0
 10 27  1  0  0  0  0
 11 27  2  0  0  0  0
 12 28  1  0  0  0  0
 13 14  2  0  0  0  0
 13 29  1  0  0  0  0
 14 30  1  0  0  0  0
 15 24  1  0  0  0  0
 15 28  2  0  0  0  0
 16 25  2  0  0  0  0
 16 26  1  0  0  0  0
 17 30  2  0  0  0  0
 17 31  1  0  0  0  0
 18 32  1  0  0  0  0
 19 26  2  0  0  0  0
 19 34  1  0  0  0  0
 20 32  1  0  0  0  0
 20 33  2  0  0  0  0
 20 35  1  0  0  0  0
 21 23  2  0  0  0  0
 21 40  1  0  0  0  0
 22 24  2  0  0  0  0
 22 41  1  0  0  0  0
 23 49  1  0  0  0  0
 24 42  1  0  0  0  0
 25 73  1  0  0  0  0
 26 69  1  0  0  0  0
 27 83  1  0  0  0  0
 28 84  1  0  0  0  0
 29 31  2  0  0  0  0
 29 83  1  0  0  0  0
 30 85  1  0  0  0  0
 31 86  1  0  0  0  0
 32 65  2  0  0  0  0
 33 66  1  0  0  0  0
 33 70  1  0  0  0  0
 34 71  1  0  0  0  0
 34 76  2  0  0  0  0
 35 72  1  0  0  0  0
 35 78  2  0  0  0  0
 36 50  1  0  0  0  0
 36 74  1  0  0  0  0
 36 79  2  0  0  0  0
 37 61  1  0  0  0  0
 37 67  1  0  0  0  0
 37 80  2  0  0  0  0
 38 62  1  0  0  0  0
 38 75  1  0  0  0  0
 38 81  2  0  0  0  0
 39 68  1  0  0  0  0
 39 73  1  0  0  0  0
 39 82  2  0  0  0  0
 40 43  1  0  0  0  0
 41 50  1  0  0  0  0
 42 67  1  0  0  0  0
 43 45  1  0  0  0  0
 44 46  1  0  0  0  0
 44 47  1  0  0  0  0
 45 49  1  0  0  0  0
 46 51  1  0  0  0  0
 47 68  1  0  0  0  0
 48 51  1  0  0  0  0
 48 68  1  0  0  0  0
 49 74  1  0  0  0  0
 50 67  1  0  0  0  0
 51 66  1  0  0  0  0
 52 62  1  0  0  0  0
 53 63  1  0  0  0  0
 54 63  1  0  0  0  0
 55 63  1  0  0  0  0
 56 64  1  0  0  0  0
 57 64  1  0  0  0  0
 58 77  1  0  0  0  0
 59 64  1  0  0  0  0
 59 76  1  0  0  0  0
 60 64  1  0  0  0  0
 60 84  1  0  0  0  0
 61 63  1  0  0  0  0
 61 75  1  0  0  0  0
 62 77  1  0  0  0  0
 65 66  1  0  0  0  0
M  CHG  2  76   1  77   1
M  ISO  4  39 100  60 101  73 100  84 101
M  END
> <Batch ID>
0073

> <Smiles>
CNC(C)C(=O)NC(C(=O)N1Cc2cc([101O:1][101CH2:1]C(C)(C)CNC(=N)c3ccc([100NH:0][100C:0](=O)N4CCCC(n5nc(-c6ccc(Oc7ccc(F)cc7F)cc6)c(C(N)=O)c5N)C4)cc3N)ccc2CC1C(=O)NC1CCCc2ccccc21)C(C)(C)C

> <Shape>
0.275

> <Color>
0.054

> <Negative vol penalty>
0.000

$$$$

  -OEChem-04042323413D

 85 93  0     1  0  0  0  0  0999 V2000
  -19.9647  -10.1455   22.4291 C   0  0  0  0  0  0  0  0  0  0  0  0
  -20.6521  -11.1591   23.0891 C   0  0  0  0  0  0  0  0  0  0  0  0
  -24.0483  -31.7411   21.2546 C   0  0  0  0  0  0  0  0  0  0  0  0
  -23.9842  -30.0624   22.9909 C   0  0  0  0  0  0  0  0  0  0  0  0
  -20.6438   -9.3010   21.5519 C   0  0  0  0  0  0  0  0  0  0  0  0
  -22.0193  -11.3280   22.8730 C   0  0  0  0  0  0  0  0  0  0  0  0
  -23.2951  -16.1828   22.2031 C   0  0  0  0  0  0  0  0  0  0  0  0
  -22.6578  -31.8413   21.3001 C   0  0  0  0  0  0  0  0  0  0  0  0
  -22.5937  -30.1626   23.0365 C   0  0  0  0  0  0  0  0  0  0  0  0
  -23.3840  -16.9808   23.3428 C   0  0  0  0  0  0  0  0  0  0  0  0
  -20.2906  -32.2553   24.3545 C   0  0  0  0  0  0  0  0  0  0  0  0
  -19.6879  -32.3208   25.6107 C   0  0  0  0  0  0  0  0  0  0  0  0
  -29.0779  -23.7199   22.9797 C   0  0  0  0  0  0  0  0  0  0  0  0
  -25.7833  -16.7319   23.3228 C   0  0  0  0  0  0  0  0  0  0  0  0
  -29.8999  -22.9831   20.8306 C   0  0  0  0  0  0  0  0  0  0  0  0
  -18.4516  -30.3033   25.1226 C   0  0  0  0  0  0  0  0  0  0  0  0
  -24.7115  -30.8516   22.1000 C   0  0  0  0  0  0  0  0  0  0  0  0
  -28.9668  -22.3921   23.3924 C   0  0  0  0  0  0  0  0  0  0  0  0
  -27.0790  -31.4887   22.8046 C   0  0  0  0  0  0  0  0  0  0  0  0
  -22.0180   -9.4657   21.3176 C   0  0  0  0  0  0  0  0  0  0  0  0
  -24.4507  -15.6434   21.6200 C   0  0  0  0  0  0  0  0  0  0  0  0
  -22.7176  -10.4840   21.9929 C   0  0  0  0  0  0  0  0  0  0  0  0
  -25.7066  -15.9294   22.1742 C   0  0  0  0  0  0  0  0  0  0  0  0
  -29.5444  -24.0154   21.6988 C   0  0  0  0  0  0  0  0  0  0  0  0
  -21.9305  -31.0521   22.1910 C   0  0  0  0  0  0  0  0  0  0  0  0
  -24.6279  -17.2531   23.9045 C   0  0  0  0  0  0  0  0  0  0  0  0
  -19.9738  -31.2138   23.4823 C   0  0  0  0  0  0  0  0  0  0  0  0
  -18.7684  -31.3448   25.9948 C   0  0  0  0  0  0  0  0  0  0  0  0
  -29.7889  -21.6553   21.2433 C   0  0  0  0  0  0  0  0  0  0  0  0
  -19.0543  -30.2378   23.8664 C   0  0  0  0  0  0  0  0  0  0  0  0
  -29.3224  -21.3599   22.5243 C   0  0  0  0  0  0  0  0  0  0  0  0
  -26.1478  -30.7472   22.0531 C   0  0  0  0  0  0  0  0  0  0  0  0
  -28.3029  -31.0179   22.3959 C   0  0  0  0  0  0  0  0  0  0  0  0
  -28.4726  -22.0818   24.7489 C   0  0  0  0  0  0  0  0  0  0  0  0
  -26.8576  -32.5115   23.7847 C   0  0  0  0  0  0  0  0  0  0  0  0
  -25.5312  -12.7017   21.0880 C   0  0  0  0  0  0  0  0  0  0  0  0
  -27.8851  -14.2726   19.5026 C   0  0  0  0  0  0  0  0  0  0  0  0
  -29.6692  -17.1502   19.0750 C   0  0  0  0  0  0  0  0  0  0  0  0
  -30.1018  -25.8289   20.0415 C   0  0  0  0  0  0  0  0  0  0  0  0
  -22.7185   -8.4983   20.3966 C   0  0  0  0  0  0  0  0  0  0  0  0
  -24.3401  -14.8063   20.3752 C   0  0  0  0  0  0  0  0  0  0  0  0
  -26.9791  -15.3911   21.5746 C   0  0  0  0  0  0  0  0  0  0  0  0
  -24.0920   -8.9807   19.9372 C   0  0  0  0  0  0  0  0  0  0  0  0
  -30.4896  -29.0654   18.6090 C   0  0  0  0  0  0  0  0  0  0  0  0
  -24.8947   -9.5117   21.1206 C   0  0  0  0  0  0  0  0  0  0  0  0
  -29.5094  -29.9328   19.4022 C   0  0  0  0  0  0  0  0  0  0  0  0
  -29.9389  -27.6607   18.3702 C   0  0  0  0  0  0  0  0  0  0  0  0
  -28.5110  -27.8230   20.3711 C   0  0  0  0  0  0  0  0  0  0  0  0
  -24.1960  -10.7146   21.7658 C   0  0  1  0  0  0  0  0  0  0  0  0
  -25.5394  -13.8871   20.1648 C   0  0  1  0  0  0  0  0  0  0  0  0
  -29.0491  -29.2268   20.6926 C   0  0  2  0  0  0  0  0  0  0  0  0
  -31.5540  -18.1181   17.7303 C   0  0  0  0  0  0  0  0  0  0  0  0
  -29.8909  -12.7341   21.2113 C   0  0  0  0  0  0  0  0  0  0  0  0
  -31.6403  -14.3875   20.5226 C   0  0  0  0  0  0  0  0  0  0  0  0
  -30.5291  -12.9612   18.8039 C   0  0  0  0  0  0  0  0  0  0  0  0
  -27.9175  -19.2245   17.8968 C   0  0  0  0  0  0  0  0  0  0  0  0
  -25.5631  -20.0852   25.9254 C   0  0  0  0  0  0  0  0  0  0  0  0
  -26.7761  -20.9706   26.1573 C   0  0  0  0  0  0  0  0  0  0  0  0
  -25.9064  -18.8044   25.1753 C   0  0  0  0  0  0  0  0  0  1  0  0
  -29.2302  -14.8449   19.8795 C   0  0  1  0  0  0  0  0  0  0  0  0
  -30.0487  -17.9238   17.8252 C   0  0  2  0  0  0  0  0  0  0  0  0
  -30.2987  -13.7406   20.1170 C   0  0  0  0  0  0  0  0  0  0  0  0
  -26.7302  -29.8720   21.2291 N   0  0  0  0  0  0  0  0  0  0  0  0
  -28.0405  -30.0606   21.4605 N   0  0  0  0  0  0  0  0  0  0  0  0
  -26.8183  -14.5726   20.3615 N   0  0  0  0  0  0  0  0  0  0  0  0
  -29.5270  -27.0524   19.6372 N   0  0  0  0  0  0  0  0  0  0  0  0
  -29.5670  -31.3337   22.7488 N   0  0  0  0  0  0  0  0  0  0  0  0
  -29.1573  -22.5548   25.7903 N   0  0  0  0  0  0  0  0  0  0  0  0
  -25.5376  -32.8741   24.0855 N   0  0  0  0  0  0  0  0  0  0  0  0
  -29.6570  -25.3639   21.2786 N   0  0  0  0  0  0  0  0  0  0  0  0
  -24.4068  -11.9067   20.9729 N   0  0  0  0  0  0  0  0  0  0  0  0
  -29.5776  -15.7965   18.8296 N   0  0  0  0  0  0  0  0  0  0  0  0
  -27.3639  -21.3400   24.8694 N   0  3  0  0  0  0  0  0  0  0  0  0
  -29.4011  -19.2660   17.8301 N   0  3  0  0  0  0  0  0  0  0  0  0
  -27.8027  -33.0984   24.3643 O   0  0  0  0  0  0  0  0  0  0  0  0
  -26.4757  -12.5208   21.8475 O   0  0  0  0  0  0  0  0  0  0  0  0
  -27.7832  -13.5905   18.4798 O   0  0  0  0  0  0  0  0  0  0  0  0
  -29.4771  -17.6922   20.1612 O   0  0  0  0  0  0  0  0  0  0  0  0
  -30.9479  -25.2510   19.3544 O   0  0  0  0  0  0  0  0  0  0  0  0
  -20.5737  -31.1498   22.2358 O   0  0  0  0  0  0  0  0  0  0  0  0
  -24.7174  -18.0313   25.0173 O   0  0  0  0  0  0  0  0  0  1  0  0
  -18.1908  -31.4070   27.2017 F   0  0  0  0  0  0  0  0  0  0  0  0
  -30.1301  -20.6640   20.4100 F   0  0  0  0  0  0  0  0  0  0  0  0
  -18.7468  -29.2342   23.0333 F   0  0  0  0  0  0  0  0  0  0  0  0
  -29.2188  -20.0808   22.9115 F   0  0  0  0  0  0  0  0  0  0  0  0
  1  2  1  0  0  0  0
  1  5  2  0  0  0  0
  2  6  2  0  0  0  0
  3  8  2  0  0  0  0
  3 17  1  0  0  0  0
  4  9  1  0  0  0  0
  4 17  2  0  0  0  0
  5 20  1  0  0  0  0
  6 22  1  0  0  0  0
  7 10  2  0  0  0  0
  7 21  1  0  0  0  0
  8 25  1  0  0  0  0
  9 25  2  0  0  0  0
 10 26  1  0  0  0  0
 11 12  2  0  0  0  0
 11 27  1  0  0  0  0
 12 28  1  0  0  0  0
 13 18  1  0  0  0  0
 13 24  2  0  0  0  0
 14 23  1  0  0  0  0
 14 26  2  0  0  0  0
 15 24  1  0  0  0  0
 15 29  2  0  0  0  0
 16 28  2  0  0  0  0
 16 30  1  0  0  0  0
 17 32  1  0  0  0  0
 18 31  2  0  0  0  0
 18 34  1  0  0  0  0
 19 32  1  0  0  0  0
 19 33  2  0  0  0  0
 19 35  1  0  0  0  0
 20 22  2  0  0  0  0
 20 40  1  0  0  0  0
 21 23  2  0  0  0  0
 21 41  1  0  0  0  0
 22 49  1  0  0  0  0
 23 42  1  0  0  0  0
 24 70  1  0  0  0  0
 25 80  1  0  0  0  0
 26 81  1  0  0  0  0
 27 30  2  0  0  0  0
 27 80  1  0  0  0  0
 28 82  1  0  0  0  0
 29 31  1  0  0  0  0
 29 83  1  0  0  0  0
 30 84  1  0  0  0  0
 31 85  1  0  0  0  0
 32 63  2  0  0  0  0
 33 64  1  0  0  0  0
 33 67  1  0  0  0  0
 34 68  1  0  0  0  0
 34 73  2  0  0  0  0
 35 69  1  0  0  0  0
 35 75  2  0  0  0  0
 36 50  1  0  0  0  0
 36 71  1  0  0  0  0
 36 76  2  0  0  0  0
 37 60  1  0  0  0  0
 37 65  1  0  0  0  0
 37 77  2  0  0  0  0
 38 61  1  0  0  0  0
 38 72  1  0  0  0  0
 38 78  2  0  0  0  0
 39 66  1  0  0  0  0
 39 70  1  0  0  0  0
 39 79  2  0  0  0  0
 40 43  1  0  0  0  0
 41 50  1  0  0  0  0
 42 65  1  0  0  0  0
 43 45  1  0  0  0  0
 44 46  1  0  0  0  0
 44 47  1  0  0  0  0
 45 49  1  0  0  0  0
 46 51  1  0  0  0  0
 47 66  1  0  0  0  0
 48 51  1  0  0  0  0
 48 66  1  0  0  0  0
 49 71  1  0  0  0  0
 50 65  1  0  0  0  0
 51 64  1  0  0  0  0
 52 61  1  0  0  0  0
 53 62  1  0  0  0  0
 54 62  1  0  0  0  0
 55 62  1  0  0  0  0
 56 74  1  0  0  0  0
 57 58  1  0  0  0  0
 57 59  1  0  0  0  0
 58 73  1  0  0  0  0
 59 81  1  0  0  0  0
 60 62  1  0  0  0  0
 60 72  1  0  0  0  0
 61 74  1  0  0  0  0
 63 64  1  0  0  0  0
M  CHG  2  73   1  74   1
M  ISO  4  39 100  59 101  70 100  81 101
M  END
> <Batch ID>
0073

> <Smiles>
CNC(C)C(=O)NC(C(=O)N1Cc2cc([101O:1][101CH2:1]CCNC(=N)c3cc([100NH:0][100C:0](=O)N4CCCC(n5nc(-c6ccc(Oc7ccc(F)cc7F)cc6)c(C(N)=O)c5N)C4)cc(F)c3F)ccc2CC1C(=O)NC1CCCc2ccccc21)C(C)(C)C

> <Shape>
0.277

> <Color>
0.049

> <Negative vol penalty>
0.000

$$$$

  -OEChem-04042323413D

 88 96  0     1  0  0  0  0  0999 V2000
  -24.5915  -32.7671   28.4619 C   0  0  0  0  0  0  0  0  0  0  0  0
  -25.4702  -32.1017   27.6130 C   0  0  0  0  0  0  0  0  0  0  0  0
  -30.1086  -19.1666   20.8308 C   0  0  0  0  0  0  0  0  0  0  0  0
  -22.1230  -10.3602   22.2165 C   0  0  0  0  0  0  0  0  0  0  0  0
  -24.2644   -9.9665   21.1695 C   0  0  0  0  0  0  0  0  0  0  0  0
  -23.2300  -32.4686   28.4270 C   0  0  0  0  0  0  0  0  0  0  0  0
  -24.9881  -31.1366   26.7295 C   0  0  0  0  0  0  0  0  0  0  0  0
  -27.0770  -29.9262   21.1013 C   0  0  0  0  0  0  0  0  0  0  0  0
  -30.3908  -19.9933   19.7435 C   0  0  0  0  0  0  0  0  0  0  0  0
  -28.8628  -18.5471   20.9310 C   0  0  0  0  0  0  0  0  0  0  0  0
  -21.7894   -9.0175   22.0392 C   0  0  0  0  0  0  0  0  0  0  0  0
  -23.9309   -8.6237   20.9922 C   0  0  0  0  0  0  0  0  0  0  0  0
  -27.9426  -28.9488   20.6121 C   0  0  0  0  0  0  0  0  0  0  0  0
  -22.4797   -6.0617   23.5290 C   0  0  0  0  0  0  0  0  0  0  0  0
  -21.8988   -5.3906   24.6049 C   0  0  0  0  0  0  0  0  0  0  0  0
  -26.0487  -27.5834   20.0057 C   0  0  0  0  0  0  0  0  0  0  0  0
  -28.1815  -19.5813   18.8566 C   0  0  0  0  0  0  0  0  0  0  0  0
  -19.9381   -4.9419   23.2665 C   0  0  0  0  0  0  0  0  0  0  0  0
  -23.3605  -10.8347   21.7816 C   0  0  0  0  0  0  0  0  0  0  0  0
  -24.3538  -12.7979   23.0727 C   0  0  0  0  0  0  0  0  0  0  0  0
  -22.7296  -31.5063   27.5359 C   0  0  0  0  0  0  0  0  0  0  0  0
  -25.6886  -29.7343   21.0562 C   0  0  0  0  0  0  0  0  0  0  0  0
  -23.6188  -30.8241   26.6836 C   0  0  0  0  0  0  0  0  0  0  0  0
  -25.1675  -28.5609   20.4927 C   0  0  0  0  0  0  0  0  0  0  0  0
  -29.4273  -20.2008   18.7564 C   0  0  0  0  0  0  0  0  0  0  0  0
  -27.8993  -18.7545   19.9440 C   0  0  0  0  0  0  0  0  0  0  0  0
  -22.6933   -8.1492   21.4271 C   0  0  0  0  0  0  0  0  0  0  0  0
  -27.4286  -27.7760   20.0669 C   0  0  0  0  0  0  0  0  0  0  0  0
  -21.7898   -6.1730   22.3218 C   0  0  0  0  0  0  0  0  0  0  0  0
  -20.6280   -4.8306   24.4737 C   0  0  0  0  0  0  0  0  0  0  0  0
  -20.5190   -5.6131   22.1905 C   0  0  0  0  0  0  0  0  0  0  0  0
  -23.7055  -12.2218   21.9639 C   0  0  0  0  0  0  0  0  0  0  0  0
  -24.4475  -14.1321   22.7606 C   0  0  0  0  0  0  0  0  0  0  0  0
  -28.6984  -25.8498   20.4517 C   0  0  0  0  0  0  0  0  0  1  0  0
  -24.8289  -12.1820   24.2771 C   0  0  0  0  0  0  0  0  0  0  0  0
  -29.5286  -24.8486   20.1167 C   0  0  0  0  0  0  0  0  0  0  0  0
  -23.3812  -29.5257   23.2324 C   0  0  0  0  0  0  0  0  0  0  0  0
  -21.4573  -29.4807   20.6211 C   0  0  0  0  0  0  0  0  0  0  0  0
  -29.3692  -22.5136   17.8286 C   0  0  0  0  0  0  0  0  0  0  0  0
  -31.4104  -25.3897   18.5948 C   0  0  0  0  0  0  0  0  0  0  0  0
  -21.1092  -28.8263   17.2899 C   0  0  0  0  0  0  0  0  0  0  0  0
  -25.5667  -18.2240   19.1541 C   0  0  0  0  0  0  0  0  0  0  0  0
  -21.2566  -31.1839   27.5677 C   0  0  0  0  0  0  0  0  0  0  0  0
  -24.7676  -30.8098   21.5637 C   0  0  0  0  0  0  0  0  0  0  0  0
  -23.6843  -28.3154   20.4023 C   0  0  0  0  0  0  0  0  0  0  0  0
  -20.7745  -30.4159   26.3396 C   0  0  0  0  0  0  0  0  0  0  0  0
  -22.3053  -16.8010   19.0310 C   0  0  0  0  0  0  0  0  0  0  0  0
  -21.7261  -29.2671   26.0210 C   0  0  0  0  0  0  0  0  0  0  0  0
  -22.4321  -15.5302   19.8743 C   0  0  0  0  0  0  0  0  0  0  0  0
  -23.5717  -17.0730   18.2212 C   0  0  0  0  0  0  0  0  0  0  0  0
  -24.9418  -15.8267   19.8457 C   0  0  0  0  0  0  0  0  0  0  0  0
  -23.1306  -29.7886   25.6939 C   0  0  1  0  0  0  0  0  0  0  0  0
  -23.3843  -30.2852   21.9360 C   0  0  1  0  0  0  0  0  0  0  0  0
  -23.7148  -15.5465   20.7287 C   0  0  2  0  0  0  0  0  0  0  0  0
  -29.9363  -23.8361   21.1542 C   0  0  0  0  0  0  0  0  0  0  0  0
  -19.4083  -28.8495   15.4449 C   0  0  0  0  0  0  0  0  0  0  0  0
  -20.2258  -26.9176   21.7275 C   0  0  0  0  0  0  0  0  0  0  0  0
  -19.2559  -26.4874   19.4598 C   0  0  0  0  0  0  0  0  0  0  0  0
  -18.5824  -28.5215   20.7370 C   0  0  0  0  0  0  0  0  0  0  0  0
  -22.6543  -30.8133   15.7332 C   0  0  0  0  0  0  0  0  0  0  0  0
  -29.7330  -21.0947   17.5810 C   0  0  0  0  0  0  0  0  0  0  0  0
  -30.0702  -24.6950   18.7170 C   0  0  1  0  0  0  0  0  0  0  0  0
  -20.8962  -28.4031   19.7250 C   0  0  1  0  0  0  0  0  0  0  0  0
  -20.4937  -29.6363   16.1631 C   0  0  2  0  0  0  0  0  0  0  0  0
  -19.7681  -27.5859   20.4156 C   0  0  0  0  0  0  0  0  0  0  0  0
  -23.4082  -13.1168   21.0181 N   0  0  0  0  0  0  0  0  0  0  0  0
  -23.8717  -14.2689   21.5318 N   0  0  0  0  0  0  0  0  0  0  0  0
  -22.8249  -29.3940   20.9177 N   0  0  0  0  0  0  0  0  0  0  0  0
  -24.7455  -17.0781   19.0970 N   0  0  0  0  0  0  0  0  0  0  0  0
  -24.9653  -15.1900   23.4202 N   0  0  0  0  0  0  0  0  0  0  0  0
  -24.6518  -10.8008   24.4361 N   0  0  0  0  0  0  0  0  0  0  0  0
  -28.1563  -22.8961   17.4449 N   0  0  0  0  0  0  0  0  0  0  0  0
  -31.3093  -26.6811   18.1241 N   0  0  0  0  0  0  0  0  0  0  0  0
  -26.6342  -18.1245   20.0458 N   0  0  0  0  0  0  0  0  0  0  0  0
  -23.1729  -30.3158   24.3468 N   0  0  0  0  0  0  0  0  0  0  0  0
  -20.4838  -29.0694   18.4944 N   0  0  0  0  0  0  0  0  0  0  0  0
  -30.2896  -23.2795   18.4143 N   0  3  0  0  0  0  0  0  0  0  0  0
  -21.5363  -30.0149   15.1679 N   0  3  0  0  0  0  0  0  0  0  0  0
  -25.3791  -12.8397   25.1927 O   0  0  0  0  0  0  0  0  0  0  0  0
  -23.5534  -28.3125   23.2223 O   0  0  0  0  0  0  0  0  0  0  0  0
  -20.7111  -30.3708   21.0368 O   0  0  0  0  0  0  0  0  0  0  0  0
  -32.4778  -24.8588   18.8934 O   0  0  0  0  0  0  0  0  0  0  0  0
  -22.0484  -28.0524   17.1179 O   0  0  0  0  0  0  0  0  0  0  0  0
  -25.3241  -19.2303   18.4830 O   0  0  0  0  0  0  0  0  0  0  0  0
  -22.3682   -6.8389   21.2542 O   0  0  0  0  0  0  0  0  0  0  0  0
  -28.2713  -26.8201   19.5893 O   0  0  0  0  0  0  0  0  0  1  0  0
  -20.0710   -4.1848   25.5066 F   0  0  0  0  0  0  0  0  0  0  0  0
  -19.8519   -5.7157   21.0329 F   0  0  0  0  0  0  0  0  0  0  0  0
  1  2  1  0  0  0  0
  1  6  2  0  0  0  0
  2  7  2  0  0  0  0
  3  9  2  0  0  0  0
  3 10  1  0  0  0  0
  4 11  2  0  0  0  0
  4 19  1  0  0  0  0
  5 12  1  0  0  0  0
  5 19  2  0  0  0  0
  6 21  1  0  0  0  0
  7 23  1  0  0  0  0
  8 13  2  0  0  0  0
  8 22  1  0  0  0  0
  9 25  1  0  0  0  0
 10 26  2  0  0  0  0
 11 27  1  0  0  0  0
 12 27  2  0  0  0  0
 13 28  1  0  0  0  0
 14 15  2  0  0  0  0
 14 29  1  0  0  0  0
 15 30  1  0  0  0  0
 16 24  1  0  0  0  0
 16 28  2  0  0  0  0
 17 25  2  0  0  0  0
 17 26  1  0  0  0  0
 18 30  2  0  0  0  0
 18 31  1  0  0  0  0
 19 32  1  0  0  0  0
 20 32  1  0  0  0  0
 20 33  2  0  0  0  0
 20 35  1  0  0  0  0
 21 23  2  0  0  0  0
 21 43  1  0  0  0  0
 22 24  2  0  0  0  0
 22 44  1  0  0  0  0
 23 52  1  0  0  0  0
 24 45  1  0  0  0  0
 25 61  1  0  0  0  0
 26 74  1  0  0  0  0
 27 85  1  0  0  0  0
 28 86  1  0  0  0  0
 29 31  2  0  0  0  0
 29 85  1  0  0  0  0
 30 87  1  0  0  0  0
 31 88  1  0  0  0  0
 32 66  2  0  0  0  0
 33 67  1  0  0  0  0
 33 70  1  0  0  0  0
 34 36  2  0  0  0  0
 34 86  1  0  0  0  0
 35 71  1  0  0  0  0
 35 79  2  0  0  0  0
 36 55  1  0  0  0  0
 36 62  1  0  0  0  0
 37 53  1  0  0  0  0
 37 75  1  0  0  0  0
 37 80  2  0  0  0  0
 38 63  1  0  0  0  0
 38 68  1  0  0  0  0
 38 81  2  0  0  0  0
 39 61  1  0  0  0  0
 39 72  1  0  0  0  0
 39 77  2  0  0  0  0
 40 62  1  0  0  0  0
 40 73  1  0  0  0  0
 40 82  2  0  0  0  0
 41 64  1  0  0  0  0
 41 76  1  0  0  0  0
 41 83  2  0  0  0  0
 42 69  1  0  0  0  0
 42 74  1  0  0  0  0
 42 84  2  0  0  0  0
 43 46  1  0  0  0  0
 44 53  1  0  0  0  0
 45 68  1  0  0  0  0
 46 48  1  0  0  0  0
 47 49  1  0  0  0  0
 47 50  1  0  0  0  0
 48 52  1  0  0  0  0
 49 54  1  0  0  0  0
 50 69  1  0  0  0  0
 51 54  1  0  0  0  0
 51 69  1  0  0  0  0
 52 75  1  0  0  0  0
 53 68  1  0  0  0  0
 54 67  1  0  0  0  0
 56 64  1  0  0  0  0
 57 65  1  0  0  0  0
 58 65  1  0  0  0  0
 59 65  1  0  0  0  0
 60 78  1  0  0  0  0
 62 77  1  0  0  0  0
 63 65  1  0  0  0  0
 63 76  1  0  0  0  0
 64 78  1  0  0  0  0
 66 67  1  0  0  0  0
M  CHG  2  77   1  78   1
M  ISO  4  34 101  42 100  74 100  86 101
M  END
> <Batch ID>
0073

> <Smiles>
CNC(C)C(=O)NC(C(=O)N1Cc2cc([101O:1][101CH:1]=C(C)C(NC(=N)Cc3cccc([100NH:0][100C:0](=O)N4CCCC(n5nc(-c6ccc(Oc7ccc(F)cc7F)cc6)c(C(N)=O)c5N)C4)c3)C(N)=O)ccc2CC1C(=O)NC1CCCc2ccccc21)C(C)(C)C

> <Shape>
0.264

> <Color>
0.087

> <Negative vol penalty>
0.000

$$$$

  -OEChem-04042323413D

 84 92  0     1  0  0  0  0  0999 V2000
  -17.1848  -26.8171   21.7652 C   0  0  0  0  0  0  0  0  0  0  0  0
  -18.4282  -26.2027   21.8741 C   0  0  0  0  0  0  0  0  0  0  0  0
  -23.3767   -9.1685   20.5462 C   0  0  0  0  0  0  0  0  0  0  0  0
  -23.1866  -10.7875   22.3294 C   0  0  0  0  0  0  0  0  0  0  0  0
  -30.8299  -19.4941   20.5932 C   0  0  0  0  0  0  0  0  0  0  0  0
  -17.1007  -28.1547   21.3811 C   0  0  0  0  0  0  0  0  0  0  0  0
  -19.5883  -26.9253   21.5978 C   0  0  0  0  0  0  0  0  0  0  0  0
  -25.0284  -26.3484   24.3506 C   0  0  0  0  0  0  0  0  0  0  0  0
  -30.6398  -18.1261   20.3981 C   0  0  0  0  0  0  0  0  0  0  0  0
  -22.5953   -8.2728   21.2761 C   0  0  0  0  0  0  0  0  0  0  0  0
  -22.4051   -9.8918   23.0592 C   0  0  0  0  0  0  0  0  0  0  0  0
  -26.1926  -25.6690   23.9943 C   0  0  0  0  0  0  0  0  0  0  0  0
  -20.9492   -5.4247   22.8260 C   0  0  0  0  0  0  0  0  0  0  0  0
  -21.3727   -4.0974   22.8929 C   0  0  0  0  0  0  0  0  0  0  0  0
  -27.0865  -27.7042   23.0574 C   0  0  0  0  0  0  0  0  0  0  0  0
  -28.3979  -18.5510   19.6041 C   0  0  0  0  0  0  0  0  0  0  0  0
  -23.4355   -4.8079   23.9307 C   0  0  0  0  0  0  0  0  0  0  0  0
  -23.6725  -10.4258   21.0729 C   0  0  0  0  0  0  0  0  0  0  0  0
  -29.8040  -20.3905   20.2938 C   0  0  0  0  0  0  0  0  0  0  0  0
  -24.0316  -12.3152   19.3969 C   0  0  0  0  0  0  0  0  0  0  0  0
  -18.2609  -28.8968   21.1093 C   0  0  0  0  0  0  0  0  0  0  0  0
  -24.8798  -27.7106   24.0527 C   0  0  0  0  0  0  0  0  0  0  0  0
  -19.5196  -28.2738   21.2083 C   0  0  0  0  0  0  0  0  0  0  0  0
  -25.9205  -28.3992   23.4132 C   0  0  0  0  0  0  0  0  0  0  0  0
  -29.4238  -17.6545   19.9035 C   0  0  0  0  0  0  0  0  0  0  0  0
  -28.5880  -19.9190   19.7992 C   0  0  0  0  0  0  0  0  0  0  0  0
  -22.1095   -8.6345   22.5326 C   0  0  0  0  0  0  0  0  0  0  0  0
  -27.2206  -26.3462   23.3450 C   0  0  0  0  0  0  0  0  0  0  0  0
  -21.7689   -6.4436   23.3114 C   0  0  0  0  0  0  0  0  0  0  0  0
  -22.6158   -3.7889   23.4452 C   0  0  0  0  0  0  0  0  0  0  0  0
  -23.0120   -6.1352   23.8637 C   0  0  0  0  0  0  0  0  0  0  0  0
  -24.4801  -11.3512   20.3196 C   0  0  0  0  0  0  0  0  0  0  0  0
  -25.1784  -12.9321   18.9601 C   0  0  0  0  0  0  0  0  0  0  0  0
  -30.0311  -21.8343   20.5093 C   0  0  0  0  0  0  0  0  0  0  0  0
  -22.6976  -12.6252   18.9725 C   0  0  0  0  0  0  0  0  0  0  0  0
  -22.8713  -29.4107   22.2696 C   0  0  0  0  0  0  0  0  0  0  0  0
  -24.4450  -31.9237   23.5852 C   0  0  0  0  0  0  0  0  0  0  0  0
  -29.2830  -23.8838   21.6971 C   0  0  0  0  0  0  0  0  0  0  0  0
  -27.2819  -33.1134   25.0628 C   0  0  0  0  0  0  0  0  0  0  0  0
  -30.1470  -15.2418   19.9510 C   0  0  0  0  0  0  0  0  0  0  0  0
  -18.1173  -30.3267   20.6516 C   0  0  0  0  0  0  0  0  0  0  0  0
  -23.6288  -28.4353   24.4675 C   0  0  0  0  0  0  0  0  0  0  0  0
  -25.8188  -29.8665   23.0889 C   0  0  0  0  0  0  0  0  0  0  0  0
  -19.4140  -31.1276   20.7397 C   0  0  0  0  0  0  0  0  0  0  0  0
  -30.0418  -11.6976   19.6275 C   0  0  0  0  0  0  0  0  0  0  0  0
  -20.5753  -30.3291   20.1561 C   0  0  0  0  0  0  0  0  0  0  0  0
  -28.5486  -11.3708   19.7028 C   0  0  0  0  0  0  0  0  0  0  0  0
  -30.4184  -12.8479   20.5596 C   0  0  0  0  0  0  0  0  0  0  0  0
  -28.1240  -13.7408   20.4709 C   0  0  0  0  0  0  0  0  0  0  0  0
  -20.8021  -29.0314   20.9410 C   0  0  1  0  0  0  0  0  0  0  0  0
  -23.3745  -29.7014   23.6552 C   0  0  1  0  0  0  0  0  0  0  0  0
  -27.6850  -12.6315   19.5012 C   0  0  2  0  0  0  0  0  0  0  0  0
  -28.2852  -35.2174   25.9922 C   0  0  0  0  0  0  0  0  0  0  0  0
  -24.9400  -32.9370   20.7500 C   0  0  0  0  0  0  0  0  0  0  0  0
  -26.7023  -34.4557   21.6752 C   0  0  0  0  0  0  0  0  0  0  0  0
  -24.3297  -34.7135   22.4011 C   0  0  0  0  0  0  0  0  0  0  0  0
  -27.5522  -31.9301   27.7620 C   0  0  0  0  0  0  0  0  0  0  0  0
  -28.2353  -24.2953   22.6968 C   0  0  0  0  0  0  0  0  0  1  0  0
  -25.6675  -32.7300   23.2186 C   0  0  1  0  0  0  0  0  0  0  0  0
  -27.4915  -33.9588   26.3061 C   0  0  2  0  0  0  0  0  0  0  0  0
  -25.4113  -33.6810   22.0155 C   0  0  0  0  0  0  0  0  0  0  0  0
  -25.8082  -11.3518   20.4614 N   0  0  0  0  0  0  0  0  0  0  0  0
  -26.2042  -12.3237   19.6218 N   0  0  0  0  0  0  0  0  0  0  0  0
  -24.5733  -30.5295   23.5092 N   0  0  0  0  0  0  0  0  0  0  0  0
  -29.5616  -14.0088   20.3084 N   0  0  0  0  0  0  0  0  0  0  0  0
  -27.5386  -20.8119   19.4897 N   0  0  0  0  0  0  0  0  0  0  0  0
  -25.3994  -13.9302   18.0784 N   0  0  0  0  0  0  0  0  0  0  0  0
  -21.6351  -11.8946   19.5216 N   0  0  0  0  0  0  0  0  0  0  0  0
  -29.2317  -16.2648   19.7049 N   0  0  0  0  0  0  0  0  0  0  0  0
  -29.2265  -22.4797   21.3650 N   0  0  0  0  0  0  0  0  0  0  0  0
  -21.4964  -29.3054   22.1809 N   0  0  0  0  0  0  0  0  0  0  0  0
  -26.0888  -33.4101   24.4386 N   0  0  0  0  0  0  0  0  0  0  0  0
  -31.0281  -22.4120   19.8396 N   0  3  0  0  0  0  0  0  0  0  0  0
  -28.2311  -33.1828   27.3415 N   0  3  0  0  0  0  0  0  0  0  0  0
  -22.4565  -13.5124   18.1192 O   0  0  0  0  0  0  0  0  0  0  0  0
  -23.6712  -29.2922   21.3488 O   0  0  0  0  0  0  0  0  0  0  0  0
  -23.4165  -32.5090   23.9332 O   0  0  0  0  0  0  0  0  0  0  0  0
  -30.1115  -24.6316   21.1980 O   0  0  0  0  0  0  0  0  0  0  0  0
  -28.0969  -32.2763   24.6813 O   0  0  0  0  0  0  0  0  0  0  0  0
  -31.3689  -15.3729   19.8426 O   0  0  0  0  0  0  0  0  0  0  0  0
  -21.3467   -7.7608   23.2450 O   0  0  0  0  0  0  0  0  0  0  0  0
  -28.3577  -25.6853   22.9956 O   0  0  0  0  0  0  0  0  0  1  0  0
  -23.0217   -2.5141   23.5108 F   0  0  0  0  0  0  0  0  0  0  0  0
  -23.8034   -7.1097   24.3327 F   0  0  0  0  0  0  0  0  0  0  0  0
  1  2  1  0  0  0  0
  1  6  2  0  0  0  0
  2  7  2  0  0  0  0
  3 10  2  0  0  0  0
  3 18  1  0  0  0  0
  4 11  1  0  0  0  0
  4 18  2  0  0  0  0
  5  9  2  0  0  0  0
  5 19  1  0  0  0  0
  6 21  1  0  0  0  0
  7 23  1  0  0  0  0
  8 12  2  0  0  0  0
  8 22  1  0  0  0  0
  9 25  1  0  0  0  0
 10 27  1  0  0  0  0
 11 27  2  0  0  0  0
 12 28  1  0  0  0  0
 13 14  2  0  0  0  0
 13 29  1  0  0  0  0
 14 30  1  0  0  0  0
 15 24  1  0  0  0  0
 15 28  2  0  0  0  0
 16 25  2  0  0  0  0
 16 26  1  0  0  0  0
 17 30  2  0  0  0  0
 17 31  1  0  0  0  0
 18 32  1  0  0  0  0
 19 26  2  0  0  0  0
 19 34  1  0  0  0  0
 20 32  1  0  0  0  0
 20 33  2  0  0  0  0
 20 35  1  0  0  0  0
 21 23  2  0  0  0  0
 21 41  1  0  0  0  0
 22 24  2  0  0  0  0
 22 42  1  0  0  0  0
 23 50  1  0  0  0  0
 24 43  1  0  0  0  0
 25 69  1  0  0  0  0
 26 66  1  0  0  0  0
 27 81  1  0  0  0  0
 28 82  1  0  0  0  0
 29 31  2  0  0  0  0
 29 81  1  0  0  0  0
 30 83  1  0  0  0  0
 31 84  1  0  0  0  0
 32 62  2  0  0  0  0
 33 63  1  0  0  0  0
 33 67  1  0  0  0  0
 34 70  1  0  0  0  0
 34 73  2  0  0  0  0
 35 68  1  0  0  0  0
 35 75  2  0  0  0  0
 36 51  1  0  0  0  0
 36 71  1  0  0  0  0
 36 76  2  0  0  0  0
 37 59  1  0  0  0  0
 37 64  1  0  0  0  0
 37 77  2  0  0  0  0
 38 58  1  0  0  0  0
 38 70  1  0  0  0  0
 38 78  2  0  0  0  0
 39 60  1  0  0  0  0
 39 72  1  0  0  0  0
 39 79  2  0  0  0  0
 40 65  1  0  0  0  0
 40 69  1  0  0  0  0
 40 80  2  0  0  0  0
 41 44  1  0  0  0  0
 42 51  1  0  0  0  0
 43 64  1  0  0  0  0
 44 46  1  0  0  0  0
 45 47  1  0  0  0  0
 45 48  1  0  0  0  0
 46 50  1  0  0  0  0
 47 52  1  0  0  0  0
 48 65  1  0  0  0  0
 49 52  1  0  0  0  0
 49 65  1  0  0  0  0
 50 71  1  0  0  0  0
 51 64  1  0  0  0  0
 52 63  1  0  0  0  0
 53 60  1  0  0  0  0
 54 61  1  0  0  0  0
 55 61  1  0  0  0  0
 56 61  1  0  0  0  0
 57 74  1  0  0  0  0
 58 82  1  0  0  0  0
 59 61  1  0  0  0  0
 59 72  1  0  0  0  0
 60 74  1  0  0  0  0
 62 63  1  0  0  0  0
M  CHG  2  73   1  74   1
M  ISO  4  40 100  58 101  69 100  82 101
M  END
> <Batch ID>
0073

> <Smiles>
CNC(C)C(=O)NC(C(=O)N1Cc2cc([101O:1][101CH2:1]C(=O)NC(=N)c3ccc([100NH:0][100C:0](=O)N4CCCC(n5nc(-c6ccc(Oc7ccc(F)cc7F)cc6)c(C(N)=O)c5N)C4)cc3N)ccc2CC1C(=O)NC1CCCc2ccccc21)C(C)(C)C

> <Shape>
0.314

> <Color>
0.120

> <Negative vol penalty>
0.000

$$$$

  -OEChem-04042323413D

 87 96  0     1  0  0  0  0  0999 V2000
  -25.0446  -38.4116   19.7337 C   0  0  0  0  0  0  0  0  0  0  0  0
  -25.7689  -37.3830   19.1399 C   0  0  0  0  0  0  0  0  0  0  0  0
  -31.1387  -18.1231   20.4028 C   0  0  0  0  0  0  0  0  0  0  0  0
  -23.9420   -9.6578   21.1759 C   0  0  0  0  0  0  0  0  0  0  0  0
  -23.8856   -8.4249   19.0989 C   0  0  0  0  0  0  0  0  0  0  0  0
  -24.5095  -38.2395   21.0096 C   0  0  0  0  0  0  0  0  0  0  0  0
  -25.9594  -36.1819   19.8221 C   0  0  0  0  0  0  0  0  0  0  0  0
  -26.6318  -29.1457   18.6576 C   0  0  0  0  0  0  0  0  0  0  0  0
  -30.8517  -19.4846   20.3060 C   0  0  0  0  0  0  0  0  0  0  0  0
  -30.3415  -17.1931   19.7353 C   0  0  0  0  0  0  0  0  0  0  0  0
  -22.9727   -8.8071   21.7072 C   0  0  0  0  0  0  0  0  0  0  0  0
  -22.9163   -7.5741   19.6303 C   0  0  0  0  0  0  0  0  0  0  0  0
  -27.4811  -28.0809   18.9557 C   0  0  0  0  0  0  0  0  0  0  0  0
  -22.8426   -5.6997   23.0341 C   0  0  0  0  0  0  0  0  0  0  0  0
  -23.0413   -5.2189   24.3283 C   0  0  0  0  0  0  0  0  0  0  0  0
  -26.4432  -27.8677   21.1228 C   0  0  0  0  0  0  0  0  0  0  0  0
  -28.9703  -18.9864   18.8745 C   0  0  0  0  0  0  0  0  0  0  0  0
  -20.9752   -6.2557   25.0306 C   0  0  0  0  0  0  0  0  0  0  0  0
  -24.3985   -9.4667   19.8717 C   0  0  0  0  0  0  0  0  0  0  0  0
  -26.7966  -10.1840   19.3798 C   0  0  0  0  0  0  0  0  0  0  0  0
  -24.6854  -37.0322   21.7039 C   0  0  0  0  0  0  0  0  0  0  0  0
  -25.6876  -29.5872   19.5956 C   0  0  0  0  0  0  0  0  0  0  0  0
  -25.4273  -35.9939   21.1091 C   0  0  0  0  0  0  0  0  0  0  0  0
  -25.5814  -28.9366   20.8332 C   0  0  0  0  0  0  0  0  0  0  0  0
  -29.7675  -19.9163   19.5420 C   0  0  0  0  0  0  0  0  0  0  0  0
  -29.2573  -17.6248   18.9712 C   0  0  0  0  0  0  0  0  0  0  0  0
  -22.4599   -7.7652   20.9344 C   0  0  0  0  0  0  0  0  0  0  0  0
  -27.3888  -27.4436   20.1895 C   0  0  0  0  0  0  0  0  0  0  0  0
  -21.7103   -6.4587   22.7382 C   0  0  0  0  0  0  0  0  0  0  0  0
  -22.1075   -5.4968   25.3265 C   0  0  0  0  0  0  0  0  0  0  0  0
  -20.7766   -6.7367   23.7364 C   0  0  0  0  0  0  0  0  0  0  0  0
  -25.3993  -10.3455   19.3221 C   0  0  0  0  0  0  0  0  0  0  0  0
  -27.2963  -11.2777   18.7161 C   0  0  0  0  0  0  0  0  0  0  0  0
  -29.4903  -23.6073   19.6539 C   0  0  0  0  0  0  0  0  0  0  0  0
  -30.1836  -22.3540   20.0542 C   0  0  0  0  0  0  0  0  0  0  0  0
  -27.5734   -9.1388   19.9797 C   0  0  0  0  0  0  0  0  0  0  0  0
  -29.9645  -24.8199   19.9500 C   0  0  0  0  0  0  0  0  0  0  0  0
  -25.1832  -32.3074   21.1608 C   0  0  0  0  0  0  0  0  0  0  0  0
  -22.5063  -30.7775   22.1686 C   0  0  0  0  0  0  0  0  0  0  0  0
  -20.9084  -27.8206   22.7609 C   0  0  0  0  0  0  0  0  0  0  0  0
  -27.0630  -16.9067   18.0414 C   0  0  0  0  0  0  0  0  0  0  0  0
  -24.1285  -36.9100   23.1002 C   0  0  0  0  0  0  0  0  0  0  0  0
  -24.7608  -30.7198   19.2485 C   0  0  0  0  0  0  0  0  0  0  0  0
  -24.5709  -29.3590   21.8670 C   0  0  0  0  0  0  0  0  0  0  0  0
  -28.2556  -23.2909   18.8849 C   0  0  0  0  0  0  0  0  0  0  0  0
  -24.0568  -35.4706   23.6036 C   0  0  0  0  0  0  0  0  0  0  0  0
  -24.9974  -14.7565   15.8688 C   0  0  0  0  0  0  0  0  0  0  0  0
  -25.3634  -34.7384   23.3148 C   0  0  0  0  0  0  0  0  0  0  0  0
  -24.9841  -13.4262   16.6199 C   0  0  0  0  0  0  0  0  0  0  0  0
  -28.3986  -21.8055   18.5974 C   0  0  0  0  0  0  0  0  0  0  0  0
  -25.1364  -15.9424   16.8188 C   0  0  0  0  0  0  0  0  0  0  0  0
  -26.3054  -14.5209   18.4750 C   0  0  0  0  0  0  0  0  0  0  0  0
  -25.6345  -34.6673   21.8072 C   0  0  1  0  0  0  0  0  0  0  0  0
  -24.1843  -31.4179   20.4763 C   0  0  1  0  0  0  0  0  0  0  0  0
  -26.2097  -13.3044   17.5418 C   0  0  1  0  0  0  0  0  0  0  0  0
  -18.7421  -26.8897   23.6198 C   0  0  0  0  0  0  0  0  0  0  0  0
  -23.3657  -31.4194   25.0250 C   0  0  0  0  0  0  0  0  0  0  0  0
  -21.7363  -29.6966   25.8283 C   0  0  0  0  0  0  0  0  0  0  0  0
  -20.9199  -31.6984   24.5838 C   0  0  0  0  0  0  0  0  0  0  0  0
  -29.0864  -15.5310   17.6136 C   0  0  0  0  0  0  0  0  0  0  0  0
  -20.3259  -26.4870   20.1839 C   0  0  0  0  0  0  0  0  0  0  0  0
  -29.1568  -26.0196   19.4809 C   0  0  0  0  0  0  0  0  0  1  0  0
  -22.1607  -29.8837   23.3351 C   0  0  1  0  0  0  0  0  0  0  0  0
  -19.5188  -27.3347   22.3904 C   0  0  2  0  0  0  0  0  0  0  0  0
  -22.0661  -30.6676   24.6745 C   0  0  0  0  0  0  0  0  0  0  0  0
  -25.0348  -11.4545   18.6731 N   0  0  0  0  0  0  0  0  0  0  0  0
  -26.2103  -11.9999   18.3170 N   0  0  0  0  0  0  0  0  0  0  0  0
  -29.4743  -21.3120   19.4429 N   0  0  0  0  0  0  0  0  0  0  0  0
  -23.6914  -30.4755   21.4829 N   0  0  0  0  0  0  0  0  0  0  0  0
  -26.2822  -15.7799   17.7145 N   0  0  0  0  0  0  0  0  0  0  0  0
  -28.5544  -11.6826   18.4408 N   0  0  0  0  0  0  0  0  0  0  0  0
  -26.9002   -8.0902   20.6213 N   0  0  0  0  0  0  0  0  0  0  0  0
  -24.8194  -33.6400   21.1950 N   0  0  0  0  0  0  0  0  0  0  0  0
  -20.9353  -29.1841   22.9644 N   0  0  0  0  0  0  0  0  0  0  0  0
  -28.4326  -16.6617   18.2805 N   0  0  0  0  0  0  0  0  0  0  0  0
  -19.6067  -26.1837   21.4479 N   0  3  0  0  0  0  0  0  0  0  0  0
  -30.9930  -25.1574   20.5986 O   0  5  0  0  0  0  0  0  0  0  0  0
  -31.1715  -22.3344   20.7693 O   0  0  0  0  0  0  0  0  0  0  0  0
  -28.8276   -9.1433   19.9620 O   0  0  0  0  0  0  0  0  0  0  0  0
  -26.2075  -31.8204   21.6250 O   0  0  0  0  0  0  0  0  0  0  0  0
  -21.7488  -31.7048   21.8720 O   0  0  0  0  0  0  0  0  0  0  0  0
  -21.8727  -27.0656   22.8634 O   0  0  0  0  0  0  0  0  0  0  0  0
  -26.5800  -18.0444   18.0864 O   0  0  0  0  0  0  0  0  0  0  0  0
  -21.5142   -6.9348   21.4527 O   0  0  0  0  0  0  0  0  0  0  0  0
  -28.2170  -26.4045   20.4833 O   0  0  0  0  0  0  0  0  0  1  0  0
  -22.2976   -5.0336   26.5689 F   0  0  0  0  0  0  0  0  0  0  0  0
  -19.6862   -7.4642   23.4579 F   0  0  0  0  0  0  0  0  0  0  0  0
  1  2  1  0  0  0  0
  1  6  2  0  0  0  0
  2  7  2  0  0  0  0
  3  9  2  0  0  0  0
  3 10  1  0  0  0  0
  4 11  2  0  0  0  0
  4 19  1  0  0  0  0
  5 12  1  0  0  0  0
  5 19  2  0  0  0  0
  6 21  1  0  0  0  0
  7 23  1  0  0  0  0
  8 13  2  0  0  0  0
  8 22  1  0  0  0  0
  9 25  1  0  0  0  0
 10 26  2  0  0  0  0
 11 27  1  0  0  0  0
 12 27  2  0  0  0  0
 13 28  1  0  0  0  0
 14 15  2  0  0  0  0
 14 29  1  0  0  0  0
 15 30  1  0  0  0  0
 16 24  1  0  0  0  0
 16 28  2  0  0  0  0
 17 25  2  0  0  0  0
 17 26  1  0  0  0  0
 18 30  2  0  0  0  0
 18 31  1  0  0  0  0
 19 32  1  0  0  0  0
 20 32  1  0  0  0  0
 20 33  2  0  0  0  0
 20 36  1  0  0  0  0
 21 23  2  0  0  0  0
 21 42  1  0  0  0  0
 22 24  2  0  0  0  0
 22 43  1  0  0  0  0
 23 53  1  0  0  0  0
 24 44  1  0  0  0  0
 25 68  1  0  0  0  0
 26 75  1  0  0  0  0
 27 84  1  0  0  0  0
 28 85  1  0  0  0  0
 29 31  2  0  0  0  0
 29 84  1  0  0  0  0
 30 86  1  0  0  0  0
 31 87  1  0  0  0  0
 32 66  2  0  0  0  0
 33 67  1  0  0  0  0
 33 71  1  0  0  0  0
 34 35  1  0  0  0  0
 34 37  2  0  0  0  0
 34 45  1  0  0  0  0
 35 68  1  0  0  0  0
 35 78  2  0  0  0  0
 36 72  1  0  0  0  0
 36 79  2  0  0  0  0
 37 62  1  0  0  0  0
 37 77  1  0  0  0  0
 38 54  1  0  0  0  0
 38 73  1  0  0  0  0
 38 80  2  0  0  0  0
 39 63  1  0  0  0  0
 39 69  1  0  0  0  0
 39 81  2  0  0  0  0
 40 64  1  0  0  0  0
 40 74  1  0  0  0  0
 40 82  2  0  0  0  0
 41 70  1  0  0  0  0
 41 75  1  0  0  0  0
 41 83  2  0  0  0  0
 42 46  1  0  0  0  0
 43 54  1  0  0  0  0
 44 69  1  0  0  0  0
 45 50  1  0  0  0  0
 46 48  1  0  0  0  0
 47 49  1  0  0  0  0
 47 51  1  0  0  0  0
 48 53  1  0  0  0  0
 49 55  1  0  0  0  0
 50 68  1  0  0  0  0
 51 70  1  0  0  0  0
 52 55  1  0  0  0  0
 52 70  1  0  0  0  0
 53 73  1  0  0  0  0
 54 69  1  0  0  0  0
 55 67  1  0  0  0  0
 56 64  1  0  0  0  0
 57 65  1  0  0  0  0
 58 65  1  0  0  0  0
 59 65  1  0  0  0  0
 60 75  1  0  0  0  0
 61 76  1  0  0  0  0
 62 85  1  0  0  0  0
 63 65  1  0  0  0  0
 63 74  1  0  0  0  0
 64 76  1  0  0  0  0
 66 67  1  0  0  0  0
M  CHG  2  76   1  77  -1
M  ISO  4  41 100  62 101  75 100  85 101
M  END
> <Batch ID>
0073

> <Smiles>
CNC(C)C(=O)NC(C(=O)N1Cc2cc([101O:1][101CH2:1]C(=O)C3CCN(c4cccc([100N:0](C)[100C:0](=O)N5CCCC(n6nc(-c7ccc(Oc8ccc(F)cc8F)cc7)c(C(N)=O)c6N)C5)c4)C3=O)ccc2CC1C(=O)NC1CCCc2ccccc21)C(C)(C)C

> <Shape>
0.291

> <Color>
0.090

> <Negative vol penalty>
0.000

$$$$

  -OEChem-04042323413D

 84 93  0     1  0  0  0  0  0999 V2000
  -28.1274  -24.1677   17.5916 C   0  0  0  0  0  0  0  0  0  0  0  0
  -26.9084  -24.4841   18.1826 C   0  0  0  0  0  0  0  0  0  0  0  0
  -16.0186  -22.0912   24.0060 C   0  0  0  0  0  0  0  0  0  0  0  0
  -26.8869  -21.3811   22.1631 C   0  0  0  0  0  0  0  0  0  0  0  0
  -27.0678  -18.9749   22.2846 C   0  0  0  0  0  0  0  0  0  0  0  0
  -29.3143  -24.6460   18.1452 C   0  0  0  0  0  0  0  0  0  0  0  0
  -26.8757  -25.2782   19.3284 C   0  0  0  0  0  0  0  0  0  0  0  0
  -23.3051  -28.8625   19.1067 C   0  0  0  0  0  0  0  0  0  0  0  0
  -16.2560  -23.3344   23.4197 C   0  0  0  0  0  0  0  0  0  0  0  0
  -16.9500  -21.0628   23.8619 C   0  0  0  0  0  0  0  0  0  0  0  0
  -27.8579  -21.4036   21.1621 C   0  0  0  0  0  0  0  0  0  0  0  0
  -28.0389  -18.9974   21.2835 C   0  0  0  0  0  0  0  0  0  0  0  0
  -21.9906  -28.4677   19.3515 C   0  0  0  0  0  0  0  0  0  0  0  0
  -28.1377  -19.2825   17.9175 C   0  0  0  0  0  0  0  0  0  0  0  0
  -28.0288  -18.3456   16.8900 C   0  0  0  0  0  0  0  0  0  0  0  0
  -22.1663  -29.3029   21.6077 C   0  0  0  0  0  0  0  0  0  0  0  0
  -18.3560  -22.5208   22.5449 C   0  0  0  0  0  0  0  0  0  0  0  0
  -30.1943  -17.4497   17.4772 C   0  0  0  0  0  0  0  0  0  0  0  0
  -26.4918  -20.1668   22.7244 C   0  0  0  0  0  0  0  0  0  0  0  0
  -25.5497  -20.7737   25.0161 C   0  0  0  0  0  0  0  0  0  0  0  0
  -29.2955  -25.4543   19.2928 C   0  0  0  0  0  0  0  0  0  0  0  0
  -24.0650  -29.4716   20.1156 C   0  0  0  0  0  0  0  0  0  0  0  0
  -28.0635  -25.7667   19.8987 C   0  0  0  0  0  0  0  0  0  0  0  0
  -23.4894  -29.7068   21.3724 C   0  0  0  0  0  0  0  0  0  0  0  0
  -17.4246  -23.5492   22.6891 C   0  0  0  0  0  0  0  0  0  0  0  0
  -18.1186  -21.2776   23.1313 C   0  0  0  0  0  0  0  0  0  0  0  0
  -28.4339  -20.2118   20.7222 C   0  0  0  0  0  0  0  0  0  0  0  0
  -21.4219  -28.6853   20.6030 C   0  0  0  0  0  0  0  0  0  0  0  0
  -29.2750  -19.3031   18.7249 C   0  0  0  0  0  0  0  0  0  0  0  0
  -29.0570  -17.4292   16.6698 C   0  0  0  0  0  0  0  0  0  0  0  0
  -30.3033  -18.3867   18.5048 C   0  0  0  0  0  0  0  0  0  0  0  0
  -25.4892  -20.1429   23.7590 C   0  0  0  0  0  0  0  0  0  0  0  0
  -24.3601  -20.4486   25.6209 C   0  0  0  0  0  0  0  0  0  0  0  0
  -18.7484  -25.1583   21.3636 C   0  0  0  0  0  0  0  0  0  0  0  0
  -18.6643  -26.4295   20.9478 C   0  0  0  0  0  0  0  0  0  0  0  0
  -17.4151  -26.9886   21.4420 C   0  0  0  0  0  0  0  0  0  0  0  0
  -16.9444  -28.2256   21.2544 C   0  0  0  0  0  0  0  0  0  0  0  0
  -26.5882  -21.5813   25.5861 C   0  0  0  0  0  0  0  0  0  0  0  0
  -26.7465  -28.7379   21.6567 C   0  0  0  0  0  0  0  0  0  0  0  0
  -26.3592  -31.6931   22.9369 C   0  0  0  0  0  0  0  0  0  0  0  0
  -24.2442  -34.2485   23.7391 C   0  0  0  0  0  0  0  0  0  0  0  0
  -18.9811  -18.9397   23.5009 C   0  0  0  0  0  0  0  0  0  0  0  0
  -30.6072  -25.9087   19.8822 C   0  0  0  0  0  0  0  0  0  0  0  0
  -25.4729  -29.9158   19.8274 C   0  0  0  0  0  0  0  0  0  0  0  0
  -24.2561  -30.3753   22.4832 C   0  0  0  0  0  0  0  0  0  0  0  0
  -16.7122  -25.8971   22.2324 C   0  0  0  0  0  0  0  0  0  0  0  0
  -30.4620  -27.0540   20.8810 C   0  0  0  0  0  0  0  0  0  0  0  0
  -21.0157  -17.0219   25.7053 C   0  0  0  0  0  0  0  0  0  0  0  0
  -29.3274  -26.7681   21.8597 C   0  0  0  0  0  0  0  0  0  0  0  0
  -22.3979  -17.6659   25.5754 C   0  0  0  0  0  0  0  0  0  0  0  0
  -20.2714  -17.0026   24.3714 C   0  0  0  0  0  0  0  0  0  0  0  0
  -21.5523  -18.9476   23.5681 C   0  0  0  0  0  0  0  0  0  0  0  0
  -27.9853  -26.6458   21.1280 C   0  0  1  0  0  0  0  0  0  0  0  0
  -26.3229  -30.0616   21.0858 C   0  0  1  0  0  0  0  0  0  0  0  0
  -22.3141  -19.0486   24.8997 C   0  0  2  0  0  0  0  0  0  0  0  0
  -24.2134  -36.5172   24.8112 C   0  0  0  0  0  0  0  0  0  0  0  0
  -26.5790  -30.3931   25.6885 C   0  0  0  0  0  0  0  0  0  0  0  0
  -25.6109  -32.4806   26.6751 C   0  0  0  0  0  0  0  0  0  0  0  0
  -27.7896  -32.5699   25.4634 C   0  0  0  0  0  0  0  0  0  0  0  0
  -23.2757  -35.5363   21.2567 C   0  0  0  0  0  0  0  0  0  0  0  0
  -19.6537  -27.1691   20.1232 C   0  0  0  0  0  0  0  0  0  1  0  0
  -25.6532  -32.2484   24.1502 C   0  0  1  0  0  0  0  0  0  0  0  0
  -24.3396  -35.7456   23.5068 C   0  0  2  0  0  0  0  0  0  0  0  0
  -26.3941  -31.9086   25.4742 C   0  0  0  0  0  0  0  0  0  0  0  0
  -24.3514  -19.4680   23.5749 N   0  0  0  0  0  0  0  0  0  0  0  0
  -23.6859  -19.6728   24.7244 N   0  0  0  0  0  0  0  0  0  0  0  0
  -17.6581  -24.7722   22.1129 N   0  0  0  0  0  0  0  0  0  0  0  0
  -25.6312  -30.7857   22.1543 N   0  0  0  0  0  0  0  0  0  0  0  0
  -20.2279  -18.3471   23.7924 N   0  0  0  0  0  0  0  0  0  0  0  0
  -23.8356  -20.7534   26.8268 N   0  0  0  0  0  0  0  0  0  0  0  0
  -27.5922  -20.9496   26.3325 N   0  0  0  0  0  0  0  0  0  0  0  0
  -19.0638  -20.2323   22.9842 N   0  0  0  0  0  0  0  0  0  0  0  0
  -27.4770  -27.9560   20.7823 N   0  0  0  0  0  0  0  0  0  0  0  0
  -25.4879  -33.6775   23.9078 N   0  0  0  0  0  0  0  0  0  0  0  0
  -23.2574  -36.1971   22.5871 N   0  3  0  0  0  0  0  0  0  0  0  0
  -26.6156  -22.8282   25.4516 O   0  0  0  0  0  0  0  0  0  0  0  0
  -26.4351  -28.4480   22.8059 O   0  0  0  0  0  0  0  0  0  0  0  0
  -27.5115  -32.0567   22.6885 O   0  0  0  0  0  0  0  0  0  0  0  0
  -23.1733  -33.6464   23.7717 O   0  0  0  0  0  0  0  0  0  0  0  0
  -17.9174  -18.3548   23.7206 O   0  0  0  0  0  0  0  0  0  0  0  0
  -29.3813  -20.2334   19.7452 O   0  0  0  0  0  0  0  0  0  0  0  0
  -20.1393  -28.3003   20.8448 O   0  0  0  0  0  0  0  0  0  1  0  0
  -28.9516  -16.5285   15.6840 F   0  0  0  0  0  0  0  0  0  0  0  0
  -31.3977  -18.4009   19.2779 F   0  0  0  0  0  0  0  0  0  0  0  0
  1  2  1  0  0  0  0
  1  6  2  0  0  0  0
  2  7  2  0  0  0  0
  3  9  2  0  0  0  0
  3 10  1  0  0  0  0
  4 11  2  0  0  0  0
  4 19  1  0  0  0  0
  5 12  1  0  0  0  0
  5 19  2  0  0  0  0
  6 21  1  0  0  0  0
  7 23  1  0  0  0  0
  8 13  2  0  0  0  0
  8 22  1  0  0  0  0
  9 25  1  0  0  0  0
 10 26  2  0  0  0  0
 11 27  1  0  0  0  0
 12 27  2  0  0  0  0
 13 28  1  0  0  0  0
 14 15  2  0  0  0  0
 14 29  1  0  0  0  0
 15 30  1  0  0  0  0
 16 24  1  0  0  0  0
 16 28  2  0  0  0  0
 17 25  2  0  0  0  0
 17 26  1  0  0  0  0
 18 30  2  0  0  0  0
 18 31  1  0  0  0  0
 19 32  1  0  0  0  0
 20 32  1  0  0  0  0
 20 33  2  0  0  0  0
 20 38  1  0  0  0  0
 21 23  2  0  0  0  0
 21 43  1  0  0  0  0
 22 24  2  0  0  0  0
 22 44  1  0  0  0  0
 23 53  1  0  0  0  0
 24 45  1  0  0  0  0
 25 67  1  0  0  0  0
 26 72  1  0  0  0  0
 27 81  1  0  0  0  0
 28 82  1  0  0  0  0
 29 31  2  0  0  0  0
 29 81  1  0  0  0  0
 30 83  1  0  0  0  0
 31 84  1  0  0  0  0
 32 65  2  0  0  0  0
 33 66  1  0  0  0  0
 33 70  1  0  0  0  0
 34 35  2  0  0  0  0
 34 67  1  0  0  0  0
 35 36  1  0  0  0  0
 35 61  1  0  0  0  0
 36 37  2  0  0  0  0
 36 46  1  0  0  0  0
 38 71  1  0  0  0  0
 38 76  2  0  0  0  0
 39 54  1  0  0  0  0
 39 73  1  0  0  0  0
 39 77  2  0  0  0  0
 40 62  1  0  0  0  0
 40 68  1  0  0  0  0
 40 78  2  0  0  0  0
 41 63  1  0  0  0  0
 41 74  1  0  0  0  0
 41 79  2  0  0  0  0
 42 69  1  0  0  0  0
 42 72  1  0  0  0  0
 42 80  2  0  0  0  0
 43 47  1  0  0  0  0
 44 54  1  0  0  0  0
 45 68  1  0  0  0  0
 46 67  1  0  0  0  0
 47 49  1  0  0  0  0
 48 50  1  0  0  0  0
 48 51  1  0  0  0  0
 49 53  1  0  0  0  0
 50 55  1  0  0  0  0
 51 69  1  0  0  0  0
 52 55  1  0  0  0  0
 52 69  1  0  0  0  0
 53 73  1  0  0  0  0
 54 68  1  0  0  0  0
 55 66  1  0  0  0  0
 56 63  1  0  0  0  0
 57 64  1  0  0  0  0
 58 64  1  0  0  0  0
 59 64  1  0  0  0  0
 60 75  1  0  0  0  0
 61 82  1  0  0  0  0
 62 64  1  0  0  0  0
 62 74  1  0  0  0  0
 63 75  1  0  0  0  0
 65 66  1  0  0  0  0
M  CHG  1  75   1
M  ISO  4  42 100  61 101  72 100  82 101
M  END
> <Batch ID>
0073

> <Smiles>
C=C1CN(c2cccc([100NH:0][100C:0](=O)N3CCCC(n4nc(-c5ccc(Oc6ccc(F)cc6F)cc5)c(C(N)=O)c4N)C3)c2)C=C1[101CH2:1][101O:1]c1ccc2c(c1)CN(C(=O)C(NC(=O)C(C)NC)C(C)(C)C)C(C(=O)NC1CCCc3ccccc31)C2

> <Shape>
0.236

> <Color>
0.069

> <Negative vol penalty>
0.000

$$$$

  -OEChem-04042323413D

 89 98  0     1  0  0  0  0  0999 V2000
  -30.7201  -32.7611   24.4969 C   0  0  0  0  0  0  0  0  0  0  0  0
  -30.2601  -31.5575   23.9723 C   0  0  0  0  0  0  0  0  0  0  0  0
  -22.7455  -11.7370   18.9360 C   0  0  0  0  0  0  0  0  0  0  0  0
  -22.7414  -10.4760   20.9968 C   0  0  0  0  0  0  0  0  0  0  0  0
  -29.8369  -33.6165   25.1542 C   0  0  0  0  0  0  0  0  0  0  0  0
  -28.9168  -31.2081   24.1057 C   0  0  0  0  0  0  0  0  0  0  0  0
  -26.9487  -29.3821   19.8118 C   0  0  0  0  0  0  0  0  0  0  0  0
  -21.6013  -11.0575   18.5179 C   0  0  0  0  0  0  0  0  0  0  0  0
  -21.5971   -9.7966   20.5788 C   0  0  0  0  0  0  0  0  0  0  0  0
  -27.2521  -28.0615   19.4834 C   0  0  0  0  0  0  0  0  0  0  0  0
  -20.8362   -7.2468   18.4930 C   0  0  0  0  0  0  0  0  0  0  0  0
  -20.8033   -5.8636   18.6690 C   0  0  0  0  0  0  0  0  0  0  0  0
  -25.1038  -27.3638   20.3303 C   0  0  0  0  0  0  0  0  0  0  0  0
  -30.2284  -19.7910   19.0108 C   0  0  0  0  0  0  0  0  0  0  0  0
  -29.1181  -19.0063   21.0079 C   0  0  0  0  0  0  0  0  0  0  0  0
  -18.8517   -6.0889   20.0753 C   0  0  0  0  0  0  0  0  0  0  0  0
  -23.3156  -11.4462   20.1754 C   0  0  0  0  0  0  0  0  0  0  0  0
  -30.6936  -17.5781   19.8612 C   0  0  0  0  0  0  0  0  0  0  0  0
  -24.5540  -13.3470   21.3420 C   0  0  0  0  0  0  0  0  0  0  0  0
  -28.4801  -33.2819   25.2873 C   0  0  0  0  0  0  0  0  0  0  0  0
  -25.7229  -29.7025   20.4129 C   0  0  0  0  0  0  0  0  0  0  0  0
  -28.0149  -32.0593   24.7666 C   0  0  0  0  0  0  0  0  0  0  0  0
  -24.7862  -28.6895   20.6630 C   0  0  0  0  0  0  0  0  0  0  0  0
  -30.9086  -18.5773   18.9121 C   0  0  0  0  0  0  0  0  0  0  0  0
  -29.3331  -20.0055   20.0587 C   0  0  0  0  0  0  0  0  0  0  0  0
  -21.0271  -10.0874   19.3393 C   0  0  0  0  0  0  0  0  0  0  0  0
  -26.3307  -27.0517   19.7453 C   0  0  0  0  0  0  0  0  0  0  0  0
  -19.8769   -8.0512   19.1082 C   0  0  0  0  0  0  0  0  0  0  0  0
  -19.8110   -5.2846   19.4601 C   0  0  0  0  0  0  0  0  0  0  0  0
  -29.7983  -17.7925   20.9092 C   0  0  0  0  0  0  0  0  0  0  0  0
  -18.8846   -7.4722   19.8993 C   0  0  0  0  0  0  0  0  0  0  0  0
  -24.4978  -12.1473   20.6076 C   0  0  0  0  0  0  0  0  0  0  0  0
  -25.8965  -13.5928   21.4960 C   0  0  0  0  0  0  0  0  0  0  0  0
  -27.4404  -23.0367   21.3793 C   0  0  0  0  0  0  0  0  0  0  0  0
  -26.9233  -23.5307   20.2476 C   0  0  0  0  0  0  0  0  0  0  0  0
  -28.2411  -21.7806   21.4058 C   0  0  0  0  0  0  0  0  0  0  0  0
  -31.4073  -16.2779   19.7769 C   0  0  0  0  0  0  0  0  0  0  0  0
  -23.4879  -14.1660   21.8404 C   0  0  0  0  0  0  0  0  0  0  0  0
  -24.8525  -30.9756   23.1923 C   0  0  0  0  0  0  0  0  0  0  0  0
  -21.8951  -30.8875   21.8625 C   0  0  0  0  0  0  0  0  0  0  0  0
  -19.7873  -29.4817   19.5761 C   0  0  0  0  0  0  0  0  0  0  0  0
  -31.0652  -13.8410   19.5159 C   0  0  0  0  0  0  0  0  0  0  0  0
  -27.5730  -34.2169   26.0473 C   0  0  0  0  0  0  0  0  0  0  0  0
  -25.4000  -31.1354   20.7366 C   0  0  0  0  0  0  0  0  0  0  0  0
  -23.4479  -28.9837   21.2882 C   0  0  0  0  0  0  0  0  0  0  0  0
  -27.1918  -22.8837   18.9266 C   0  0  0  0  0  0  0  0  0  0  0  0
  -26.0884  -33.9455   25.8181 C   0  0  0  0  0  0  0  0  0  0  0  0
  -29.9156  -10.6606   20.5455 C   0  0  0  0  0  0  0  0  0  0  0  0
  -25.7945  -32.4531   25.9331 C   0  0  0  0  0  0  0  0  0  0  0  0
  -28.4080  -10.8614   20.7226 C   0  0  0  0  0  0  0  0  0  0  0  0
  -28.4851  -22.0786   18.9506 C   0  0  0  0  0  0  0  0  0  0  0  0
  -30.4557  -11.4437   19.3498 C   0  0  0  0  0  0  0  0  0  0  0  0
  -28.6151  -13.0697   19.5124 C   0  0  0  0  0  0  0  0  0  0  0  0
  -26.5597  -31.6565   24.8694 C   0  0  1  0  0  0  0  0  0  0  0  0
  -24.3313  -31.2780   21.8159 C   0  0  1  0  0  0  0  0  0  0  0  0
  -28.0355  -12.3575   20.7452 C   0  0  1  0  0  0  0  0  0  0  0  0
  -31.8615  -18.3742   17.7794 C   0  0  0  0  0  0  0  0  0  0  0  0
  -17.4203  -29.5921   18.7500 C   0  0  0  0  0  0  0  0  0  0  0  0
  -20.9614  -29.3762   24.3433 C   0  0  0  0  0  0  0  0  0  0  0  0
  -18.9125  -28.6986   23.0739 C   0  0  0  0  0  0  0  0  0  0  0  0
  -19.3625  -31.1121   23.5159 C   0  0  0  0  0  0  0  0  0  0  0  0
  -20.6519  -30.2396   16.8490 C   0  0  0  0  0  0  0  0  0  0  0  0
  -26.0416  -24.7431   20.2380 C   0  0  0  0  0  0  0  0  0  1  0  0
  -20.7726  -29.8791   21.8179 C   0  0  1  0  0  0  0  0  0  0  0  0
  -18.8411  -30.1016   18.5638 C   0  0  2  0  0  0  0  0  0  0  0  0
  -20.0282  -29.7604   23.1777 C   0  0  0  0  0  0  0  0  0  0  0  0
  -25.7084  -11.6646   20.3152 N   0  0  0  0  0  0  0  0  0  0  0  0
  -26.5379  -12.5655   20.8687 N   0  0  0  0  0  0  0  0  0  0  0  0
  -28.6292  -21.2610   20.1615 N   0  0  0  0  0  0  0  0  0  0  0  0
  -23.1814  -30.3994   21.5922 N   0  0  0  0  0  0  0  0  0  0  0  0
  -30.0683  -12.8519   19.4514 N   0  0  0  0  0  0  0  0  0  0  0  0
  -26.5791  -14.5852   22.1055 N   0  0  0  0  0  0  0  0  0  0  0  0
  -22.1673  -13.7672   21.5929 N   0  0  0  0  0  0  0  0  0  0  0  0
  -30.5937  -15.1512   19.6546 N   0  0  0  0  0  0  0  0  0  0  0  0
  -25.9087  -31.7767   23.5825 N   0  0  0  0  0  0  0  0  0  0  0  0
  -19.9185  -30.2682   20.7010 N   0  0  0  0  0  0  0  0  0  0  0  0
  -19.2795  -29.7753   17.1773 N   0  3  0  0  0  0  0  0  0  0  0  0
  -28.5188  -21.3181   22.5124 O   0  0  0  0  0  0  0  0  0  0  0  0
  -32.6352  -16.2685   19.7790 O   0  0  0  0  0  0  0  0  0  0  0  0
  -23.7002  -15.2288   22.4720 O   0  0  0  0  0  0  0  0  0  0  0  0
  -24.3338  -30.0827   23.8522 O   0  0  0  0  0  0  0  0  0  0  0  0
  -21.6391  -32.0663   22.1204 O   0  0  0  0  0  0  0  0  0  0  0  0
  -20.3507  -28.4055   19.3893 O   0  0  0  0  0  0  0  0  0  0  0  0
  -32.2715  -13.5776   19.4908 O   0  0  0  0  0  0  0  0  0  0  0  0
  -19.9104   -9.4243   18.9318 O   0  0  0  0  0  0  0  0  0  0  0  0
  -26.6246  -25.7618   19.4264 O   0  0  0  0  0  0  0  0  0  1  0  0
  -19.7786   -3.9560   19.6277 F   0  0  0  0  0  0  0  0  0  0  0  0
  -29.5832  -16.8401   21.8279 F   0  0  0  0  0  0  0  0  0  0  0  0
  -17.9596   -8.2397   20.4919 F   0  0  0  0  0  0  0  0  0  0  0  0
  1  2  1  0  0  0  0
  1  5  2  0  0  0  0
  2  6  2  0  0  0  0
  3  8  2  0  0  0  0
  3 17  1  0  0  0  0
  4  9  1  0  0  0  0
  4 17  2  0  0  0  0
  5 20  1  0  0  0  0
  6 22  1  0  0  0  0
  7 10  2  0  0  0  0
  7 21  1  0  0  0  0
  8 26  1  0  0  0  0
  9 26  2  0  0  0  0
 10 27  1  0  0  0  0
 11 12  2  0  0  0  0
 11 28  1  0  0  0  0
 12 29  1  0  0  0  0
 13 23  1  0  0  0  0
 13 27  2  0  0  0  0
 14 24  2  0  0  0  0
 14 25  1  0  0  0  0
 15 25  2  0  0  0  0
 15 30  1  0  0  0  0
 16 29  2  0  0  0  0
 16 31  1  0  0  0  0
 17 32  1  0  0  0  0
 18 24  1  0  0  0  0
 18 30  2  0  0  0  0
 18 37  1  0  0  0  0
 19 32  1  0  0  0  0
 19 33  2  0  0  0  0
 19 38  1  0  0  0  0
 20 22  2  0  0  0  0
 20 43  1  0  0  0  0
 21 23  2  0  0  0  0
 21 44  1  0  0  0  0
 22 54  1  0  0  0  0
 23 45  1  0  0  0  0
 24 57  1  0  0  0  0
 25 69  1  0  0  0  0
 26 85  1  0  0  0  0
 27 86  1  0  0  0  0
 28 31  2  0  0  0  0
 28 85  1  0  0  0  0
 29 87  1  0  0  0  0
 30 88  1  0  0  0  0
 31 89  1  0  0  0  0
 32 67  2  0  0  0  0
 33 68  1  0  0  0  0
 33 72  1  0  0  0  0
 34 35  2  0  0  0  0
 34 36  1  0  0  0  0
 35 46  1  0  0  0  0
 35 63  1  0  0  0  0
 36 69  1  0  0  0  0
 36 78  2  0  0  0  0
 37 74  1  0  0  0  0
 37 79  2  0  0  0  0
 38 73  1  0  0  0  0
 38 80  2  0  0  0  0
 39 55  1  0  0  0  0
 39 75  1  0  0  0  0
 39 81  2  0  0  0  0
 40 64  1  0  0  0  0
 40 70  1  0  0  0  0
 40 82  2  0  0  0  0
 41 65  1  0  0  0  0
 41 76  1  0  0  0  0
 41 83  2  0  0  0  0
 42 71  1  0  0  0  0
 42 74  1  0  0  0  0
 42 84  2  0  0  0  0
 43 47  1  0  0  0  0
 44 55  1  0  0  0  0
 45 70  1  0  0  0  0
 46 51  1  0  0  0  0
 47 49  1  0  0  0  0
 48 50  1  0  0  0  0
 48 52  1  0  0  0  0
 49 54  1  0  0  0  0
 50 56  1  0  0  0  0
 51 69  1  0  0  0  0
 52 71  1  0  0  0  0
 53 56  1  0  0  0  0
 53 71  1  0  0  0  0
 54 75  1  0  0  0  0
 55 70  1  0  0  0  0
 56 68  1  0  0  0  0
 58 65  1  0  0  0  0
 59 66  1  0  0  0  0
 60 66  1  0  0  0  0
 61 66  1  0  0  0  0
 62 77  1  0  0  0  0
 63 86  1  0  0  0  0
 64 66  1  0  0  0  0
 64 76  1  0  0  0  0
 65 77  1  0  0  0  0
 67 68  1  0  0  0  0
M  CHG  1  77   1
M  ISO  4  42 100  63 101  74 100  86 101
M  END
> <Batch ID>
0073

> <Smiles>
CNC(C)C(=O)NC(C(=O)N1Cc2cc([101O:1][101CH2:1]C3=CC(=O)N(c4cc(C)c(C(=O)[100NH:0][100C:0](=O)N5CCCC(n6nc(-c7ccc(Oc8ccc(F)cc8F)cc7)c(C(N)=O)c6N)C5)c(F)c4)CC3)ccc2CC1C(=O)NC1CCCc2ccccc21)C(C)(C)C

> <Shape>
0.312

> <Color>
0.090

> <Negative vol penalty>
0.000

$$$$

  -OEChem-04042323413D

 83 91  0     1  0  0  0  0  0999 V2000
  -21.6256  -13.3037   18.5926 C   0  0  0  0  0  0  0  0  0  0  0  0
  -21.7111  -14.6044   19.0787 C   0  0  0  0  0  0  0  0  0  0  0  0
  -24.4019  -29.2021   23.4258 C   0  0  0  0  0  0  0  0  0  0  0  0
  -23.2619  -29.6099   21.3351 C   0  0  0  0  0  0  0  0  0  0  0  0
  -22.5907  -12.3627   18.9489 C   0  0  0  0  0  0  0  0  0  0  0  0
  -22.7614  -14.9645   19.9223 C   0  0  0  0  0  0  0  0  0  0  0  0
  -27.2806  -20.2878   18.1532 C   0  0  0  0  0  0  0  0  0  0  0  0
  -23.5474  -28.1300   23.6827 C   0  0  0  0  0  0  0  0  0  0  0  0
  -22.4074  -28.5376   21.5919 C   0  0  0  0  0  0  0  0  0  0  0  0
  -28.0593  -21.4330   17.9845 C   0  0  0  0  0  0  0  0  0  0  0  0
  -19.6709  -27.9301   23.4823 C   0  0  0  0  0  0  0  0  0  0  0  0
  -18.3078  -28.1188   23.2545 C   0  0  0  0  0  0  0  0  0  0  0  0
  -29.2738  -20.9187   20.0114 C   0  0  0  0  0  0  0  0  0  0  0  0
  -18.3293  -26.3230   21.6384 C   0  0  0  0  0  0  0  0  0  0  0  0
  -24.2591  -29.9421   22.2521 C   0  0  0  0  0  0  0  0  0  0  0  0
  -25.3097  -32.2087   22.7681 C   0  0  0  0  0  0  0  0  0  0  0  0
  -23.6586  -12.7140   19.7896 C   0  0  0  0  0  0  0  0  0  0  0  0
  -27.5062  -19.4446   19.2447 C   0  0  0  0  0  0  0  0  0  0  0  0
  -23.7409  -14.0270   20.2913 C   0  0  0  0  0  0  0  0  0  0  0  0
  -28.5053  -19.7637   20.1789 C   0  0  0  0  0  0  0  0  0  0  0  0
  -22.5502  -27.7977   22.7657 C   0  0  0  0  0  0  0  0  0  0  0  0
  -29.0532  -21.7478   18.9115 C   0  0  0  0  0  0  0  0  0  0  0  0
  -20.3633  -26.9380   22.7881 C   0  0  0  0  0  0  0  0  0  0  0  0
  -17.6370  -27.3152   22.3326 C   0  0  0  0  0  0  0  0  0  0  0  0
  -19.6925  -26.1344   21.8662 C   0  0  0  0  0  0  0  0  0  0  0  0
  -25.1410  -31.0501   21.9865 C   0  0  0  0  0  0  0  0  0  0  0  0
  -26.2515  -32.9451   22.0919 C   0  0  0  0  0  0  0  0  0  0  0  0
  -24.6721  -32.5856   23.9958 C   0  0  0  0  0  0  0  0  0  0  0  0
  -26.5417  -16.3093   21.0657 C   0  0  0  0  0  0  0  0  0  0  0  0
  -29.6032  -16.4830   21.1504 C   0  0  0  0  0  0  0  0  0  0  0  0
  -32.6042  -16.6175   20.2129 C   0  0  0  0  0  0  0  0  0  0  0  0
  -27.7323  -29.3021   18.0852 C   0  0  0  0  0  0  0  0  0  0  0  0
  -27.2265  -27.4186   16.4800 C   0  0  0  0  0  0  0  0  0  0  0  0
  -24.6516  -11.6500   20.1851 C   0  0  0  0  0  0  0  0  0  0  0  0
  -26.6507  -18.2334   19.4995 C   0  0  0  0  0  0  0  0  0  0  0  0
  -28.6893  -18.8458   21.3564 C   0  0  0  0  0  0  0  0  0  0  0  0
  -25.9397  -12.2107   20.7823 C   0  0  0  0  0  0  0  0  0  0  0  0
  -26.1068  -32.6880   17.8435 C   0  0  0  0  0  0  0  0  0  0  0  0
  -25.6243  -13.2814   21.8219 C   0  0  0  0  0  0  0  0  0  0  0  0
  -26.9519  -33.4810   18.8305 C   0  0  0  0  0  0  0  0  0  0  0  0
  -29.8745  -25.1357   17.3262 C   0  0  0  0  0  0  0  0  0  0  0  0
  -29.1734  -26.4668   19.3510 C   0  0  0  0  0  0  0  0  0  0  0  0
  -26.8962  -31.5509   17.2038 C   0  0  0  0  0  0  0  0  0  0  0  0
  -28.4746  -25.3220   16.7396 C   0  0  0  0  0  0  0  0  0  0  0  0
  -27.7826  -26.6351   18.7379 C   0  0  0  0  0  0  0  0  0  0  0  0
  -28.3248  -31.3995   19.2500 C   0  0  0  0  0  0  0  0  0  0  0  0
  -24.8789  -14.4625   21.1888 C   0  0  1  0  0  0  0  0  0  0  0  0
  -27.4323  -17.0625   20.1218 C   0  0  1  0  0  0  0  0  0  0  0  0
  -27.5789  -32.5771   19.9018 C   0  0  2  0  0  0  0  0  0  0  0  0
  -29.8882  -25.1857   18.8694 C   0  0  0  0  0  0  0  0  0  0  0  0
  -35.0647  -16.4268   19.7579 C   0  0  0  0  0  0  0  0  0  0  0  0
  -29.4427  -17.5417   24.0065 C   0  0  0  0  0  0  0  0  0  0  0  0
  -31.9268  -17.2754   24.1694 C   0  0  0  0  0  0  0  0  0  0  0  0
  -30.4823  -15.2775   23.7897 C   0  0  0  0  0  0  0  0  0  0  0  0
  -32.2154  -14.2658   18.4587 C   0  0  0  0  0  0  0  0  0  0  0  0
  -33.3651  -26.3394   19.2860 C   0  0  0  0  0  0  0  0  0  0  0  0
  -31.3334  -25.1624   19.3849 C   0  0  0  0  0  0  0  0  0  0  0  0
  -30.8240  -16.9348   21.9113 C   0  0  1  0  0  0  0  0  0  0  0  0
  -33.7406  -15.6832   19.8385 C   0  0  2  0  0  0  0  0  0  0  0  0
  -30.6574  -16.7734   23.4487 C   0  0  0  0  0  0  0  0  0  0  0  0
  -25.9136  -31.0462   20.8969 N   0  0  0  0  0  0  0  0  0  0  0  0
  -26.5768  -32.2115   20.9891 N   0  0  0  0  0  0  0  0  0  0  0  0
  -28.6117  -17.4437   20.9174 N   0  0  0  0  0  0  0  0  0  0  0  0
  -27.5813  -30.7045   18.1914 N   0  0  0  0  0  0  0  0  0  0  0  0
  -27.8288  -26.5088   17.2865 N   0  0  0  0  0  0  0  0  0  0  0  0
  -26.8248  -34.1420   22.3389 N   0  0  0  0  0  0  0  0  0  0  0  0
  -25.2694  -32.2017   25.2042 N   0  0  0  0  0  0  0  0  0  0  0  0
  -25.7999  -15.3111   20.4634 N   0  0  0  0  0  0  0  0  0  0  0  0
  -31.9505  -16.1960   21.3515 N   0  0  0  0  0  0  0  0  0  0  0  0
  -27.2060  -28.7407   16.9051 N   0  0  0  0  0  0  0  0  0  0  0  0
  -29.1858  -24.0086   19.4001 N   0  0  0  0  0  0  0  0  0  1  0  0
  -33.4759  -15.0499   18.5156 N   0  3  0  0  0  0  0  0  0  0  0  0
  -23.5956  -33.2292   24.0203 O   0  0  0  0  0  0  0  0  0  0  0  0
  -26.5286  -16.6098   22.2536 O   0  0  0  0  0  0  0  0  0  0  0  0
  -29.5257  -15.3093   20.7766 O   0  0  0  0  0  0  0  0  0  0  0  0
  -32.3267  -17.6229   19.5627 O   0  0  0  0  0  0  0  0  0  0  0  0
  -28.3153  -28.6252   18.9371 O   0  0  0  0  0  0  0  0  0  0  0  0
  -21.7164  -26.7514   23.0159 O   0  0  0  0  0  0  0  0  0  0  0  0
  -29.8128  -22.8648   18.7383 O   0  0  0  0  0  0  0  0  0  1  0  0
  -32.0088  -26.2843   18.8546 O   0  0  0  0  0  0  0  0  0  0  0  0
  -16.3276  -27.4955   22.1151 F   0  0  0  0  0  0  0  0  0  0  0  0
  -20.3520  -25.1788   21.1971 F   0  0  0  0  0  0  0  0  0  0  0  0
  -26.5202  -26.9672   15.0327 S   0  0  0  0  0  0  0  0  0  0  0  0
  1  2  1  0  0  0  0
  1  5  2  0  0  0  0
  2  6  2  0  0  0  0
  3  8  2  0  0  0  0
  3 15  1  0  0  0  0
  4  9  1  0  0  0  0
  4 15  2  0  0  0  0
  5 17  1  0  0  0  0
  6 19  1  0  0  0  0
  7 10  2  0  0  0  0
  7 18  1  0  0  0  0
  8 21  1  0  0  0  0
  9 21  2  0  0  0  0
 10 22  1  0  0  0  0
 11 12  2  0  0  0  0
 11 23  1  0  0  0  0
 12 24  1  0  0  0  0
 13 20  1  0  0  0  0
 13 22  2  0  0  0  0
 14 24  2  0  0  0  0
 14 25  1  0  0  0  0
 15 26  1  0  0  0  0
 16 26  1  0  0  0  0
 16 27  2  0  0  0  0
 16 28  1  0  0  0  0
 17 19  2  0  0  0  0
 17 34  1  0  0  0  0
 18 20  2  0  0  0  0
 18 35  1  0  0  0  0
 19 47  1  0  0  0  0
 20 36  1  0  0  0  0
 21 78  1  0  0  0  0
 22 79  1  0  0  0  0
 23 25  2  0  0  0  0
 23 78  1  0  0  0  0
 24 81  1  0  0  0  0
 25 82  1  0  0  0  0
 26 61  2  0  0  0  0
 27 62  1  0  0  0  0
 27 66  1  0  0  0  0
 28 67  1  0  0  0  0
 28 73  2  0  0  0  0
 29 48  1  0  0  0  0
 29 68  1  0  0  0  0
 29 74  2  0  0  0  0
 30 58  1  0  0  0  0
 30 63  1  0  0  0  0
 30 75  2  0  0  0  0
 31 59  1  0  0  0  0
 31 69  1  0  0  0  0
 31 76  2  0  0  0  0
 32 64  1  0  0  0  0
 32 70  1  0  0  0  0
 32 77  2  0  0  0  0
 33 65  1  0  0  0  0
 33 70  1  0  0  0  0
 33 83  2  0  0  0  0
 34 37  1  0  0  0  0
 35 48  1  0  0  0  0
 36 63  1  0  0  0  0
 37 39  1  0  0  0  0
 38 40  1  0  0  0  0
 38 43  1  0  0  0  0
 39 47  1  0  0  0  0
 40 49  1  0  0  0  0
 41 44  1  0  0  0  0
 41 50  1  0  0  0  0
 42 45  1  0  0  0  0
 42 50  1  0  0  0  0
 43 64  1  0  0  0  0
 44 65  1  0  0  0  0
 45 65  1  0  0  0  0
 46 49  1  0  0  0  0
 46 64  1  0  0  0  0
 47 68  1  0  0  0  0
 48 63  1  0  0  0  0
 49 62  1  0  0  0  0
 50 57  1  0  0  0  0
 50 71  1  0  0  0  0
 51 59  1  0  0  0  0
 52 60  1  0  0  0  0
 53 60  1  0  0  0  0
 54 60  1  0  0  0  0
 55 72  1  0  0  0  0
 56 80  1  0  0  0  0
 57 80  1  0  0  0  0
 58 60  1  0  0  0  0
 58 69  1  0  0  0  0
 59 72  1  0  0  0  0
 61 62  1  0  0  0  0
 71 79  1  0  0  0  0
M  CHG  1  72   1
M  ISO  4  32 100  70 100  71 101  79 101
M  END
> <Batch ID>
0073

> <Smiles>
CNC(C)C(=O)NC(C(=O)N1Cc2cc([101O:1][101NH:1]C3(COC)CCN(C(=S)[100NH:0][100C:0](=O)N4CCCC(n5nc(-c6ccc(Oc7ccc(F)cc7F)cc6)c(C(N)=O)c5N)C4)CC3)ccc2CC1C(=O)NC1CCCc2ccccc21)C(C)(C)C

> <Shape>
0.282

> <Color>
0.060

> <Negative vol penalty>
0.000

$$$$

  -OEChem-04042323413D

 89 98  0     1  0  0  0  0  0999 V2000
  -25.1327  -35.4709   21.9121 C   0  0  0  0  0  0  0  0  0  0  0  0
  -25.8323  -34.2694   21.8618 C   0  0  0  0  0  0  0  0  0  0  0  0
  -26.2936  -14.6097   21.6889 C   0  0  0  0  0  0  0  0  0  0  0  0
  -23.9224  -14.5190   21.2349 C   0  0  0  0  0  0  0  0  0  0  0  0
  -23.8536  -35.5089   22.4655 C   0  0  0  0  0  0  0  0  0  0  0  0
  -25.2534  -33.1053   22.3660 C   0  0  0  0  0  0  0  0  0  0  0  0
  -25.8701  -29.1360   19.2822 C   0  0  0  0  0  0  0  0  0  0  0  0
  -26.4290  -13.2945   21.2447 C   0  0  0  0  0  0  0  0  0  0  0  0
  -24.0578  -13.2037   20.7907 C   0  0  0  0  0  0  0  0  0  0  0  0
  -27.1164  -28.5111   19.2902 C   0  0  0  0  0  0  0  0  0  0  0  0
  -23.7173   -9.7029   19.8751 C   0  0  0  0  0  0  0  0  0  0  0  0
  -22.7777   -8.7703   20.3144 C   0  0  0  0  0  0  0  0  0  0  0  0
  -26.2358  -26.7866   20.7288 C   0  0  0  0  0  0  0  0  0  0  0  0
  -29.2984  -25.2592   24.4325 C   0  0  0  0  0  0  0  0  0  0  0  0
  -28.1440  -23.7978   22.8935 C   0  0  0  0  0  0  0  0  0  0  0  0
  -23.4253   -9.1958   22.6028 C   0  0  0  0  0  0  0  0  0  0  0  0
  -25.0403  -15.2220   21.6840 C   0  0  0  0  0  0  0  0  0  0  0  0
  -27.5788  -23.7677   25.2422 C   0  0  0  0  0  0  0  0  0  0  0  0
  -25.0023  -17.7536   21.3717 C   0  0  0  0  0  0  0  0  0  0  0  0
  -23.2549  -34.3428   22.9680 C   0  0  0  0  0  0  0  0  0  0  0  0
  -24.7984  -28.5959   20.0075 C   0  0  0  0  0  0  0  0  0  0  0  0
  -23.9656  -33.1280   22.9279 C   0  0  0  0  0  0  0  0  0  0  0  0
  -24.9762  -27.4051   20.7263 C   0  0  0  0  0  0  0  0  0  0  0  0
  -29.1020  -24.7821   23.1366 C   0  0  0  0  0  0  0  0  0  0  0  0
  -25.3111  -12.5914   20.7956 C   0  0  0  0  0  0  0  0  0  0  0  0
  -27.3002  -27.3378   20.0159 C   0  0  0  0  0  0  0  0  0  0  0  0
  -24.5110  -10.3819   20.7996 C   0  0  0  0  0  0  0  0  0  0  0  0
  -22.6317   -8.5168   21.6782 C   0  0  0  0  0  0  0  0  0  0  0  0
  -28.5368  -24.7520   25.4853 C   0  0  0  0  0  0  0  0  0  0  0  0
  -27.3824  -23.2906   23.9463 C   0  0  0  0  0  0  0  0  0  0  0  0
  -24.3650  -10.1283   22.1634 C   0  0  0  0  0  0  0  0  0  0  0  0
  -24.8997  -16.5805   22.1432 C   0  0  0  0  0  0  0  0  0  0  0  0
  -24.7910  -18.7732   22.2673 C   0  0  0  0  0  0  0  0  0  0  0  0
  -30.2592  -24.6116   20.8927 C   0  0  0  0  0  0  0  0  0  0  0  0
  -26.7678  -23.2280   26.3638 C   0  0  0  0  0  0  0  0  0  0  0  0
  -25.2651  -17.9078   19.9707 C   0  0  0  0  0  0  0  0  0  0  0  0
  -22.9928  -29.5992   22.4235 C   0  0  0  0  0  0  0  0  0  0  0  0
  -21.3509  -26.8675   21.8200 C   0  0  0  0  0  0  0  0  0  0  0  0
  -22.1445  -23.4430   21.0075 C   0  0  0  0  0  0  0  0  0  0  0  0
  -25.6194  -21.1943   27.1816 C   0  0  0  0  0  0  0  0  0  0  0  0
  -21.8891  -34.4423   23.5997 C   0  0  0  0  0  0  0  0  0  0  0  0
  -23.4532  -29.2675   19.9671 C   0  0  0  0  0  0  0  0  0  0  0  0
  -23.8523  -26.7736   21.5051 C   0  0  0  0  0  0  0  0  0  0  0  0
  -31.1516  -25.5331   20.0908 C   0  0  0  0  0  0  0  0  0  0  0  0
  -21.1977  -33.0923   23.7718 C   0  0  0  0  0  0  0  0  0  0  0  0
  -23.1516  -18.6661   27.0585 C   0  0  0  0  0  0  0  0  0  0  0  0
  -22.1614  -32.0711   24.3679 C   0  0  0  0  0  0  0  0  0  0  0  0
  -23.3873  -17.9972   25.7015 C   0  0  0  0  0  0  0  0  0  0  0  0
  -24.4646  -19.0697   27.7278 C   0  0  0  0  0  0  0  0  0  0  0  0
  -25.5968  -19.2130   25.5471 C   0  0  0  0  0  0  0  0  0  0  0  0
  -30.4573  -26.6331   22.0938 C   0  0  0  0  0  0  0  0  0  0  0  0
  -23.3615  -31.8392   23.4420 C   0  0  1  0  0  0  0  0  0  0  0  0
  -22.5699  -28.9084   21.1579 C   0  0  1  0  0  0  0  0  0  0  0  0
  -24.3022  -18.8514   24.8011 C   0  0  1  0  0  0  0  0  0  0  0  0
  -30.8423  -26.9282   20.6419 C   0  0  1  0  0  0  0  0  0  0  0  0
  -32.0590  -27.8511   20.5579 C   0  0  0  0  0  0  0  0  0  0  0  0
  -20.8263  -21.7167   19.7506 C   0  0  0  0  0  0  0  0  0  0  0  0
  -20.3813  -26.0146   24.5845 C   0  0  0  0  0  0  0  0  0  0  0  0
  -20.4995  -23.6350   23.8152 C   0  0  0  0  0  0  0  0  0  0  0  0
  -18.9491  -25.2323   22.6895 C   0  0  0  0  0  0  0  0  0  0  0  0
  -24.3559  -22.9777   19.0964 C   0  0  0  0  0  0  0  0  0  0  0  0
  -29.6641  -27.5610   19.8817 C   0  0  0  0  0  0  0  0  0  1  0  0
  -21.4386  -25.4391   22.3005 C   0  0  1  0  0  0  0  0  0  0  0  0
  -21.9354  -22.7541   19.6710 C   0  0  2  0  0  0  0  0  0  0  0  0
  -20.3401  -25.0970   23.3463 C   0  0  0  0  0  0  0  0  0  0  0  0
  -24.6433  -16.8305   23.4299 N   0  0  0  0  0  0  0  0  0  0  0  0
  -24.5831  -18.1723   23.4739 N   0  0  0  0  0  0  0  0  0  0  0  0
  -29.8814  -25.3005   22.0592 N   0  0  0  0  0  0  0  0  0  0  0  0
  -22.5576  -27.4714   21.4395 N   0  0  0  0  0  0  0  0  0  0  0  0
  -25.2683  -19.8836   26.8140 N   0  0  0  0  0  0  0  0  0  0  0  0
  -24.7647  -20.1162   22.1326 N   0  0  0  0  0  0  0  0  0  0  0  0
  -25.4582  -16.7556   19.1963 N   0  0  0  0  0  0  0  0  0  0  0  0
  -26.3512  -21.9040   26.2230 N   0  0  0  0  0  0  0  0  0  0  0  0
  -22.9903  -30.9785   22.3393 N   0  0  0  0  0  0  0  0  0  0  0  0
  -21.4064  -24.6035   21.1049 N   0  0  0  0  0  0  0  0  0  0  0  0
  -23.1875  -22.0712   19.2387 N   0  3  0  0  0  0  0  0  0  0  0  0
  -30.0134  -23.4672   20.5397 O   0  0  0  0  0  0  0  0  0  0  0  0
  -26.5490  -23.9397   27.3402 O   0  0  0  0  0  0  0  0  0  0  0  0
  -25.3432  -19.0345   19.4248 O   0  0  0  0  0  0  0  0  0  0  0  0
  -23.2972  -28.9304   23.4042 O   0  0  0  0  0  0  0  0  0  0  0  0
  -20.2511  -27.4245   21.7768 O   0  0  0  0  0  0  0  0  0  0  0  0
  -22.8855  -22.9943   21.8794 O   0  0  0  0  0  0  0  0  0  0  0  0
  -25.2784  -21.7024   28.2544 O   0  0  0  0  0  0  0  0  0  0  0  0
  -25.4429  -11.3080   20.3620 O   0  0  0  0  0  0  0  0  0  0  0  0
  -28.5158  -26.7262   20.0259 O   0  0  0  0  0  0  0  0  0  1  0  0
  -21.7282   -7.6223   22.1000 F   0  0  0  0  0  0  0  0  0  0  0  0
  -28.7345  -25.2178   26.7269 F   0  0  0  0  0  0  0  0  0  0  0  0
  -26.4636  -22.3455   23.7004 F   0  0  0  0  0  0  0  0  0  0  0  0
  -25.1238  -10.7784   23.0564 F   0  0  0  0  0  0  0  0  0  0  0  0
  1  2  1  0  0  0  0
  1  5  2  0  0  0  0
  2  6  2  0  0  0  0
  3  8  2  0  0  0  0
  3 17  1  0  0  0  0
  4  9  1  0  0  0  0
  4 17  2  0  0  0  0
  5 20  1  0  0  0  0
  6 22  1  0  0  0  0
  7 10  2  0  0  0  0
  7 21  1  0  0  0  0
  8 25  1  0  0  0  0
  9 25  2  0  0  0  0
 10 26  1  0  0  0  0
 11 12  2  0  0  0  0
 11 27  1  0  0  0  0
 12 28  1  0  0  0  0
 13 23  1  0  0  0  0
 13 26  2  0  0  0  0
 14 24  1  0  0  0  0
 14 29  2  0  0  0  0
 15 24  2  0  0  0  0
 15 30  1  0  0  0  0
 16 28  2  0  0  0  0
 16 31  1  0  0  0  0
 17 32  1  0  0  0  0
 18 29  1  0  0  0  0
 18 30  2  0  0  0  0
 18 35  1  0  0  0  0
 19 32  1  0  0  0  0
 19 33  2  0  0  0  0
 19 36  1  0  0  0  0
 20 22  2  0  0  0  0
 20 41  1  0  0  0  0
 21 23  2  0  0  0  0
 21 42  1  0  0  0  0
 22 52  1  0  0  0  0
 23 43  1  0  0  0  0
 24 68  1  0  0  0  0
 25 84  1  0  0  0  0
 26 85  1  0  0  0  0
 27 31  2  0  0  0  0
 27 84  1  0  0  0  0
 28 86  1  0  0  0  0
 29 87  1  0  0  0  0
 30 88  1  0  0  0  0
 31 89  1  0  0  0  0
 32 66  2  0  0  0  0
 33 67  1  0  0  0  0
 33 71  1  0  0  0  0
 34 44  1  0  0  0  0
 34 68  1  0  0  0  0
 34 77  2  0  0  0  0
 35 73  1  0  0  0  0
 35 78  2  0  0  0  0
 36 72  1  0  0  0  0
 36 79  2  0  0  0  0
 37 53  1  0  0  0  0
 37 74  1  0  0  0  0
 37 80  2  0  0  0  0
 38 63  1  0  0  0  0
 38 69  1  0  0  0  0
 38 81  2  0  0  0  0
 39 64  1  0  0  0  0
 39 75  1  0  0  0  0
 39 82  2  0  0  0  0
 40 70  1  0  0  0  0
 40 73  1  0  0  0  0
 40 83  2  0  0  0  0
 41 45  1  0  0  0  0
 42 53  1  0  0  0  0
 43 69  1  0  0  0  0
 44 55  1  0  0  0  0
 45 47  1  0  0  0  0
 46 48  1  0  0  0  0
 46 49  1  0  0  0  0
 47 52  1  0  0  0  0
 48 54  1  0  0  0  0
 49 70  1  0  0  0  0
 50 54  1  0  0  0  0
 50 70  1  0  0  0  0
 51 55  1  0  0  0  0
 51 68  1  0  0  0  0
 52 74  1  0  0  0  0
 53 69  1  0  0  0  0
 54 67  1  0  0  0  0
 55 56  1  0  0  0  0
 55 62  1  0  0  0  0
 57 64  1  0  0  0  0
 58 65  1  0  0  0  0
 59 65  1  0  0  0  0
 60 65  1  0  0  0  0
 61 76  1  0  0  0  0
 62 85  1  0  0  0  0
 63 65  1  0  0  0  0
 63 75  1  0  0  0  0
 64 76  1  0  0  0  0
 66 67  1  0  0  0  0
M  CHG  1  76   1
M  ISO  4  40 100  62 101  73 100  85 101
M  END
> <Batch ID>
0073

> <Smiles>
CNC(C)C(=O)NC(C(=O)N1Cc2cc([101O:1][101CH2:1]C3(C)CC(=O)N(c4cc(F)c(C(=O)[100NH:0][100C:0](=O)N5CCCC(n6nc(-c7ccc(Oc8ccc(F)cc8F)cc7)c(C(N)=O)c6N)C5)c(F)c4)C3)ccc2CC1C(=O)NC1CCCc2ccccc21)C(C)(C)C

> <Shape>
0.197

> <Color>
0.086

> <Negative vol penalty>
0.000

$$$$

  -OEChem-04042323413D

 85 93  0     1  0  0  0  0  0999 V2000
  -31.1232  -36.3038   22.1276 C   0  0  0  0  0  0  0  0  0  0  0  0
  -30.9757  -35.0922   21.4601 C   0  0  0  0  0  0  0  0  0  0  0  0
  -24.4321   -8.9997   22.1175 C   0  0  0  0  0  0  0  0  0  0  0  0
  -23.9087   -8.8449   19.7640 C   0  0  0  0  0  0  0  0  0  0  0  0
  -30.4571  -36.5198   23.3332 C   0  0  0  0  0  0  0  0  0  0  0  0
  -30.1628  -34.0953   21.9983 C   0  0  0  0  0  0  0  0  0  0  0  0
  -26.7044  -30.0968   18.9069 C   0  0  0  0  0  0  0  0  0  0  0  0
  -31.3715  -22.1529   20.7912 C   0  0  0  0  0  0  0  0  0  0  0  0
  -23.3406   -8.1835   22.4140 C   0  0  0  0  0  0  0  0  0  0  0  0
  -22.8171   -8.0286   20.0604 C   0  0  0  0  0  0  0  0  0  0  0  0
  -26.9100  -28.7684   18.5369 C   0  0  0  0  0  0  0  0  0  0  0  0
  -22.6029   -4.8846   22.3351 C   0  0  0  0  0  0  0  0  0  0  0  0
  -32.3285  -21.2726   21.2962 C   0  0  0  0  0  0  0  0  0  0  0  0
  -22.7951   -3.8540   23.2551 C   0  0  0  0  0  0  0  0  0  0  0  0
  -29.8095  -20.3239   20.5633 C   0  0  0  0  0  0  0  0  0  0  0  0
  -25.6866  -28.0427   20.4852 C   0  0  0  0  0  0  0  0  0  0  0  0
  -21.0980   -4.8121   24.6830 C   0  0  0  0  0  0  0  0  0  0  0  0
  -24.7161   -9.3305   20.7925 C   0  0  0  0  0  0  0  0  0  0  0  0
  -30.7665  -19.4436   21.0682 C   0  0  0  0  0  0  0  0  0  0  0  0
  -27.1635   -9.7650   20.2187 C   0  0  0  0  0  0  0  0  0  0  0  0
  -29.6279  -35.5286   23.8817 C   0  0  0  0  0  0  0  0  0  0  0  0
  -25.9966  -30.4085   20.0766 C   0  0  0  0  0  0  0  0  0  0  0  0
  -29.4859  -34.2977   23.2131 C   0  0  0  0  0  0  0  0  0  0  0  0
  -25.4712  -29.3759   20.8665 C   0  0  0  0  0  0  0  0  0  0  0  0
  -30.1120  -21.6785   20.4248 C   0  0  0  0  0  0  0  0  0  0  0  0
  -22.5331   -7.6979   21.3855 C   0  0  0  0  0  0  0  0  0  0  0  0
  -26.4036  -27.7411   19.3277 C   0  0  0  0  0  0  0  0  0  0  0  0
  -21.6582   -5.8791   22.5891 C   0  0  0  0  0  0  0  0  0  0  0  0
  -22.0426   -3.8177   24.4291 C   0  0  0  0  0  0  0  0  0  0  0  0
  -32.0260  -19.9180   21.4347 C   0  0  0  0  0  0  0  0  0  0  0  0
  -20.9058   -5.8428   23.7630 C   0  0  0  0  0  0  0  0  0  0  0  0
  -25.8432  -10.1741   20.4857 C   0  0  0  0  0  0  0  0  0  0  0  0
  -27.8456  -10.9348   19.9892 C   0  0  0  0  0  0  0  0  0  0  0  0
  -30.4464  -18.0317   21.2104 C   0  0  0  0  0  0  0  0  0  0  0  0
  -29.2143  -17.5266   21.4318 C   0  0  0  0  0  0  0  0  0  0  0  0
  -27.7232  -25.8128   19.4339 C   0  0  0  0  0  0  0  0  0  1  0  0
  -27.7232   -8.4455   20.1815 C   0  0  0  0  0  0  0  0  0  0  0  0
  -28.0190  -24.5399   19.1445 C   0  0  0  0  0  0  0  0  0  0  0  0
  -29.0491  -16.0633   21.5434 C   0  0  0  0  0  0  0  0  0  0  0  0
  -29.2729  -23.9388   19.7055 C   0  0  0  0  0  0  0  0  0  0  0  0
  -26.6957  -31.9131   22.7879 C   0  0  0  0  0  0  0  0  0  0  0  0
  -23.5283  -31.5205   23.3673 C   0  0  0  0  0  0  0  0  0  0  0  0
  -20.6656  -29.7678   22.7507 C   0  0  0  0  0  0  0  0  0  0  0  0
  -28.9656  -35.7903   25.2112 C   0  0  0  0  0  0  0  0  0  0  0  0
  -25.7604  -31.8468   20.4476 C   0  0  0  0  0  0  0  0  0  0  0  0
  -24.6869  -29.6578   22.1210 C   0  0  0  0  0  0  0  0  0  0  0  0
  -27.8266  -34.8235   25.5250 C   0  0  0  0  0  0  0  0  0  0  0  0
  -26.1878  -15.6460   19.2916 C   0  0  0  0  0  0  0  0  0  0  0  0
  -28.2506  -33.3871   25.2356 C   0  0  0  0  0  0  0  0  0  0  0  0
  -25.9266  -14.1479   19.4232 C   0  0  0  0  0  0  0  0  0  0  0  0
  -26.6846  -16.2569   20.6009 C   0  0  0  0  0  0  0  0  0  0  0  0
  -27.6214  -14.0702   21.2944 C   0  0  0  0  0  0  0  0  0  0  0  0
  -28.5933  -33.2012   23.7525 C   0  0  1  0  0  0  0  0  0  0  0  0
  -25.4672  -32.0406   21.9322 C   0  0  1  0  0  0  0  0  0  0  0  0
  -27.1656  -13.4259   19.9759 C   0  0  1  0  0  0  0  0  0  0  0  0
  -18.2443  -29.6581   23.4008 C   0  0  0  0  0  0  0  0  0  0  0  0
  -24.3016  -30.2256   26.0197 C   0  0  0  0  0  0  0  0  0  0  0  0
  -21.9780  -29.3052   26.1679 C   0  0  0  0  0  0  0  0  0  0  0  0
  -22.3410  -31.7731   26.1466 C   0  0  0  0  0  0  0  0  0  0  0  0
  -19.7772  -30.2851   19.9754 C   0  0  0  0  0  0  0  0  0  0  0  0
  -22.6851  -30.4513   24.0191 C   0  0  1  0  0  0  0  0  0  0  0  0
  -19.2568  -30.2247   22.4176 C   0  0  2  0  0  0  0  0  0  0  0  0
  -22.8428  -30.4331   25.5658 C   0  0  0  0  0  0  0  0  0  0  0  0
  -25.6933  -11.5002   20.4312 N   0  0  0  0  0  0  0  0  0  0  0  0
  -26.9283  -11.9346   20.1276 N   0  0  0  0  0  0  0  0  0  0  0  0
  -27.8335  -15.5137   21.1399 N   0  0  0  0  0  0  0  0  0  0  0  0
  -24.4881  -31.0801   22.4450 N   0  0  0  0  0  0  0  0  0  0  0  0
  -29.1347  -11.1955   19.6846 N   0  0  0  0  0  0  0  0  0  0  0  0
  -26.8817   -7.3552   20.4411 N   0  0  0  0  0  0  0  0  0  0  0  0
  -29.1415  -22.5723   19.9113 N   0  0  0  0  0  0  0  0  0  0  0  0
  -27.3844  -33.0980   22.9636 N   0  0  0  0  0  0  0  0  0  0  0  0
  -21.3181  -30.6733   23.5604 N   0  0  0  0  0  0  0  0  0  0  0  0
  -18.8791  -29.7809   21.0460 N   0  3  0  0  0  0  0  0  0  0  0  0
  -28.9373   -8.2406   19.9417 O   0  0  0  0  0  0  0  0  0  0  0  0
  -29.9972  -15.4167   21.9923 O   0  0  0  0  0  0  0  0  0  0  0  0
  -30.2585  -24.6330   19.9303 O   0  0  0  0  0  0  0  0  0  0  0  0
  -26.9956  -30.8207   23.2554 O   0  0  0  0  0  0  0  0  0  0  0  0
  -23.3373  -32.7035   23.6601 O   0  0  0  0  0  0  0  0  0  0  0  0
  -21.1386  -28.7114   22.3372 O   0  0  0  0  0  0  0  0  0  0  0  0
  -27.2122  -23.7531   18.3479 O   0  0  0  0  0  0  0  0  0  0  0  0
  -21.4680   -6.9012   21.6744 O   0  0  0  0  0  0  0  0  0  0  0  0
  -26.6034  -26.4436   18.9692 O   0  0  0  0  0  0  0  0  0  1  0  0
  -22.2262   -2.8270   25.3117 F   0  0  0  0  0  0  0  0  0  0  0  0
  -32.9569  -19.0843   21.9213 F   0  0  0  0  0  0  0  0  0  0  0  0
  -19.9960   -6.7947   24.0120 F   0  0  0  0  0  0  0  0  0  0  0  0
  1  2  1  0  0  0  0
  1  5  2  0  0  0  0
  2  6  2  0  0  0  0
  3  9  2  0  0  0  0
  3 18  1  0  0  0  0
  4 10  1  0  0  0  0
  4 18  2  0  0  0  0
  5 21  1  0  0  0  0
  6 23  1  0  0  0  0
  7 11  2  0  0  0  0
  7 22  1  0  0  0  0
  8 13  2  0  0  0  0
  8 25  1  0  0  0  0
  9 26  1  0  0  0  0
 10 26  2  0  0  0  0
 11 27  1  0  0  0  0
 12 14  2  0  0  0  0
 12 28  1  0  0  0  0
 13 30  1  0  0  0  0
 14 29  1  0  0  0  0
 15 19  1  0  0  0  0
 15 25  2  0  0  0  0
 16 24  1  0  0  0  0
 16 27  2  0  0  0  0
 17 29  2  0  0  0  0
 17 31  1  0  0  0  0
 18 32  1  0  0  0  0
 19 30  2  0  0  0  0
 19 34  1  0  0  0  0
 20 32  1  0  0  0  0
 20 33  2  0  0  0  0
 20 37  1  0  0  0  0
 21 23  2  0  0  0  0
 21 44  1  0  0  0  0
 22 24  2  0  0  0  0
 22 45  1  0  0  0  0
 23 53  1  0  0  0  0
 24 46  1  0  0  0  0
 25 70  1  0  0  0  0
 26 81  1  0  0  0  0
 27 82  1  0  0  0  0
 28 31  2  0  0  0  0
 28 81  1  0  0  0  0
 29 83  1  0  0  0  0
 30 84  1  0  0  0  0
 31 85  1  0  0  0  0
 32 64  2  0  0  0  0
 33 65  1  0  0  0  0
 33 68  1  0  0  0  0
 34 35  2  0  0  0  0
 35 39  1  0  0  0  0
 36 38  2  0  0  0  0
 36 82  1  0  0  0  0
 37 69  1  0  0  0  0
 37 74  2  0  0  0  0
 38 40  1  0  0  0  0
 38 80  1  0  0  0  0
 39 66  1  0  0  0  0
 39 75  2  0  0  0  0
 40 70  1  0  0  0  0
 40 76  2  0  0  0  0
 41 54  1  0  0  0  0
 41 71  1  0  0  0  0
 41 77  2  0  0  0  0
 42 61  1  0  0  0  0
 42 67  1  0  0  0  0
 42 78  2  0  0  0  0
 43 62  1  0  0  0  0
 43 72  1  0  0  0  0
 43 79  2  0  0  0  0
 44 47  1  0  0  0  0
 45 54  1  0  0  0  0
 46 67  1  0  0  0  0
 47 49  1  0  0  0  0
 48 50  1  0  0  0  0
 48 51  1  0  0  0  0
 49 53  1  0  0  0  0
 50 55  1  0  0  0  0
 51 66  1  0  0  0  0
 52 55  1  0  0  0  0
 52 66  1  0  0  0  0
 53 71  1  0  0  0  0
 54 67  1  0  0  0  0
 55 65  1  0  0  0  0
 56 62  1  0  0  0  0
 57 63  1  0  0  0  0
 58 63  1  0  0  0  0
 59 63  1  0  0  0  0
 60 73  1  0  0  0  0
 61 63  1  0  0  0  0
 61 72  1  0  0  0  0
 62 73  1  0  0  0  0
 64 65  1  0  0  0  0
M  CHG  1  73   1
M  ISO  4  35 100  36 101  39 100  82 101
M  END
> <Batch ID>
0073

> <Smiles>
CNC(C)C(=O)NC(C(=O)N1Cc2cc([101O:1][101CH2:1]C(=O)C(=O)Nc3ccc(F)c(C=[100CH:0][100C:0](=O)N4CCCC(n5nc(-c6ccc(Oc7ccc(F)cc7F)cc6)c(C(N)=O)c5N)C4)c3)ccc2CC1C(=O)NC1CCCc2ccccc21)C(C)(C)C

> <Shape>
0.289

> <Color>
0.101

> <Negative vol penalty>
0.000

$$$$

  -OEChem-04042323413D

 90 99  0     1  0  0  0  0  0999 V2000
  -29.3288  -33.5872   25.6543 C   0  0  0  0  0  0  0  0  0  0  0  0
  -28.9015  -32.2922   25.3788 C   0  0  0  0  0  0  0  0  0  0  0  0
  -30.5570  -19.3989   17.9803 C   0  0  0  0  0  0  0  0  0  0  0  0
  -24.4644  -10.8988   23.6611 C   0  0  0  0  0  0  0  0  0  0  0  0
  -24.3443  -13.2482   24.2117 C   0  0  0  0  0  0  0  0  0  0  0  0
  -28.4644  -34.6627   25.4540 C   0  0  0  0  0  0  0  0  0  0  0  0
  -27.6091  -32.0719   24.9039 C   0  0  0  0  0  0  0  0  0  0  0  0
  -27.4902  -28.7967   21.0433 C   0  0  0  0  0  0  0  0  0  0  0  0
  -29.8530  -20.3967   18.6542 C   0  0  0  0  0  0  0  0  0  0  0  0
  -30.5368  -18.0880   18.4566 C   0  0  0  0  0  0  0  0  0  0  0  0
  -24.1008  -10.5739   24.9679 C   0  0  0  0  0  0  0  0  0  0  0  0
  -23.9807  -12.9233   25.5186 C   0  0  0  0  0  0  0  0  0  0  0  0
  -27.5993  -27.4420   21.3541 C   0  0  0  0  0  0  0  0  0  0  0  0
  -21.2675  -10.4582   26.8096 C   0  0  0  0  0  0  0  0  0  0  0  0
  -20.2984   -9.4707   26.9864 C   0  0  0  0  0  0  0  0  0  0  0  0
  -25.2077  -27.2073   21.1435 C   0  0  0  0  0  0  0  0  0  0  0  0
  -21.8805   -8.1424   28.2394 C   0  0  0  0  0  0  0  0  0  0  0  0
  -24.5862  -12.2360   23.2830 C   0  0  0  0  0  0  0  0  0  0  0  0
  -24.1024  -12.7849   20.8392 C   0  0  0  0  0  0  0  0  0  0  0  0
  -27.1640  -34.4563   24.9672 C   0  0  0  0  0  0  0  0  0  0  0  0
  -26.2358  -29.3703   20.7906 C   0  0  0  0  0  0  0  0  0  0  0  0
  -26.7261  -33.1454   24.6982 C   0  0  0  0  0  0  0  0  0  0  0  0
  -25.0857  -28.5690   20.8272 C   0  0  0  0  0  0  0  0  0  0  0  0
  -29.1085  -18.7729   20.2809 C   0  0  0  0  0  0  0  0  0  0  0  0
  -29.1287  -20.0838   19.8045 C   0  0  0  0  0  0  0  0  0  0  0  0
  -29.8126  -17.7750   19.6069 C   0  0  0  0  0  0  0  0  0  0  0  0
  -23.8589  -11.5861   25.8967 C   0  0  0  0  0  0  0  0  0  0  0  0
  -26.4576  -26.6477   21.4070 C   0  0  0  0  0  0  0  0  0  0  0  0
  -22.5431  -10.2878   27.3476 C   0  0  0  0  0  0  0  0  0  0  0  0
  -20.6049   -8.3128   27.7013 C   0  0  0  0  0  0  0  0  0  0  0  0
  -22.8496   -9.1299   28.0625 C   0  0  0  0  0  0  0  0  0  0  0  0
  -24.9622  -12.5722   21.9333 C   0  0  0  0  0  0  0  0  0  0  0  0
  -24.9435  -13.0740   19.7926 C   0  0  0  0  0  0  0  0  0  0  0  0
  -27.0191  -18.0494   21.5222 C   0  0  0  0  0  0  0  0  0  0  0  0
  -27.5057  -23.2226   21.0688 C   0  0  0  0  0  0  0  0  0  0  0  0
  -27.3170  -24.5342   20.8917 C   0  0  0  0  0  0  0  0  0  1  0  0
  -22.6712  -12.7264   20.7746 C   0  0  0  0  0  0  0  0  0  0  0  0
  -28.3532  -22.4556   20.1099 C   0  0  0  0  0  0  0  0  0  0  0  0
  -24.4969  -31.6534   22.1571 C   0  0  0  0  0  0  0  0  0  0  0  0
  -22.5584  -31.1653   19.6024 C   0  0  0  0  0  0  0  0  0  0  0  0
  -21.4879  -29.0613   17.1378 C   0  0  0  0  0  0  0  0  0  0  0  0
  -30.4632  -15.3437   19.4986 C   0  0  0  0  0  0  0  0  0  0  0  0
  -26.2499  -35.6457   24.8115 C   0  0  0  0  0  0  0  0  0  0  0  0
  -26.1379  -30.8274   20.4306 C   0  0  0  0  0  0  0  0  0  0  0  0
  -23.7177  -29.1320   20.5441 C   0  0  0  0  0  0  0  0  0  0  0  0
  -25.0220  -35.3616   23.9501 C   0  0  0  0  0  0  0  0  0  0  0  0
  -29.3776  -12.2100   18.2031 C   0  0  0  0  0  0  0  0  0  0  0  0
  -24.3751  -34.0427   24.3612 C   0  0  0  0  0  0  0  0  0  0  0  0
  -28.0409  -11.9695   18.9085 C   0  0  0  0  0  0  0  0  0  0  0  0
  -27.8064  -18.4498   23.7360 C   0  0  0  0  0  0  0  0  0  0  0  0
  -30.3907  -12.8883   19.1235 C   0  0  0  0  0  0  0  0  0  0  0  0
  -28.9799  -18.4651   22.7753 C   0  0  0  0  0  0  0  0  0  0  0  0
  -28.5821  -13.8824   20.4690 C   0  0  0  0  0  0  0  0  0  0  0  0
  -25.3398  -32.8682   24.1582 C   0  0  1  0  0  0  0  0  0  0  0  0
  -24.7561  -31.4169   20.6960 C   0  0  1  0  0  0  0  0  0  0  0  0
  -27.5083  -13.2599   19.5617 C   0  0  2  0  0  0  0  0  0  0  0  0
  -26.7171  -17.6888   22.9759 C   0  0  0  0  0  0  0  0  0  0  0  0
  -25.3193  -18.1440   23.3882 C   0  0  0  0  0  0  0  0  0  0  0  0
  -26.8593  -16.1725   23.1528 C   0  0  0  0  0  0  0  0  0  0  0  0
  -19.8677  -28.9298   15.2260 C   0  0  0  0  0  0  0  0  0  0  0  0
  -20.2652  -30.7708   21.5761 C   0  0  0  0  0  0  0  0  0  0  0  0
  -18.9418  -29.7298   19.7232 C   0  0  0  0  0  0  0  0  0  0  0  0
  -19.6760  -32.1073   19.5461 C   0  0  0  0  0  0  0  0  0  0  0  0
  -23.6631  -28.6691   15.1696 C   0  0  0  0  0  0  0  0  0  0  0  0
  -21.3864  -30.2608   19.3070 C   0  0  1  0  0  0  0  0  0  0  0  0
  -21.2875  -29.2743   15.6482 C   0  0  2  0  0  0  0  0  0  0  0  0
  -20.0928  -30.7067   20.0454 C   0  0  0  0  0  0  0  0  0  0  0  0
  -26.2508  -12.7140   21.6116 N   0  0  0  0  0  0  0  0  0  0  0  0
  -26.2069  -13.0188   20.3035 N   0  0  0  0  0  0  0  0  0  0  0  0
  -28.3689  -18.4533   21.4596 N   0  0  0  0  0  0  0  0  0  0  0  0
  -23.6732  -30.5635   20.2029 N   0  0  0  0  0  0  0  0  0  0  0  0
  -29.8181  -14.1055   19.7026 N   0  0  0  0  0  0  0  0  0  0  0  0
  -24.7183  -13.3676   18.4943 N   0  0  0  0  0  0  0  0  0  0  0  0
  -21.9619  -12.4156   21.9428 N   0  0  0  0  0  0  0  0  0  0  0  0
  -28.4222  -21.1161   20.4692 N   0  0  0  0  0  0  0  0  0  0  0  0
  -29.8092  -16.4354   20.0687 N   0  0  0  0  0  0  0  0  0  0  0  0
  -25.4048  -32.5035   22.7592 N   0  0  0  0  0  0  0  0  0  0  0  0
  -21.2603  -30.2173   17.8542 N   0  0  0  0  0  0  0  0  0  0  0  0
  -22.2293  -28.4196   14.8714 N   0  3  0  0  0  0  0  0  0  0  0  0
  -26.2016  -17.9230   20.6211 O   0  0  0  0  0  0  0  0  0  0  0  0
  -22.0410  -12.9272   19.7088 O   0  0  0  0  0  0  0  0  0  0  0  0
  -28.8863  -23.0052   19.1532 O   0  0  0  0  0  0  0  0  0  0  0  0
  -23.5429  -31.1063   22.6977 O   0  0  0  0  0  0  0  0  0  0  0  0
  -22.4900  -32.3604   19.3045 O   0  0  0  0  0  0  0  0  0  0  0  0
  -21.8102  -27.9770   17.6182 O   0  0  0  0  0  0  0  0  0  0  0  0
  -31.5037  -15.4329   18.8417 O   0  0  0  0  0  0  0  0  0  0  0  0
  -23.5039  -11.2695   27.1719 O   0  0  0  0  0  0  0  0  0  0  0  0
  -26.5612  -25.3252   21.7107 O   0  0  0  0  0  0  0  0  0  1  0  0
  -19.6737   -7.3653   27.8723 F   0  0  0  0  0  0  0  0  0  0  0  0
  -24.0730   -8.9611   28.5827 F   0  0  0  0  0  0  0  0  0  0  0  0
  1  2  1  0  0  0  0
  1  6  2  0  0  0  0
  2  7  2  0  0  0  0
  3  9  2  0  0  0  0
  3 10  1  0  0  0  0
  4 11  2  0  0  0  0
  4 18  1  0  0  0  0
  5 12  1  0  0  0  0
  5 18  2  0  0  0  0
  6 20  1  0  0  0  0
  7 22  1  0  0  0  0
  8 13  2  0  0  0  0
  8 21  1  0  0  0  0
  9 25  1  0  0  0  0
 10 26  2  0  0  0  0
 11 27  1  0  0  0  0
 12 27  2  0  0  0  0
 13 28  1  0  0  0  0
 14 15  2  0  0  0  0
 14 29  1  0  0  0  0
 15 30  1  0  0  0  0
 16 23  1  0  0  0  0
 16 28  2  0  0  0  0
 17 30  2  0  0  0  0
 17 31  1  0  0  0  0
 18 32  1  0  0  0  0
 19 32  1  0  0  0  0
 19 33  2  0  0  0  0
 19 37  1  0  0  0  0
 20 22  2  0  0  0  0
 20 43  1  0  0  0  0
 21 23  2  0  0  0  0
 21 44  1  0  0  0  0
 22 54  1  0  0  0  0
 23 45  1  0  0  0  0
 24 25  2  0  0  0  0
 24 26  1  0  0  0  0
 24 70  1  0  0  0  0
 25 75  1  0  0  0  0
 26 76  1  0  0  0  0
 27 87  1  0  0  0  0
 28 88  1  0  0  0  0
 29 31  2  0  0  0  0
 29 87  1  0  0  0  0
 30 89  1  0  0  0  0
 31 90  1  0  0  0  0
 32 68  2  0  0  0  0
 33 69  1  0  0  0  0
 33 73  1  0  0  0  0
 34 57  1  0  0  0  0
 34 70  1  0  0  0  0
 34 80  2  0  0  0  0
 35 36  2  0  0  0  0
 35 38  1  0  0  0  0
 36 88  1  0  0  0  0
 37 74  1  0  0  0  0
 37 81  2  0  0  0  0
 38 75  1  0  0  0  0
 38 82  2  0  0  0  0
 39 55  1  0  0  0  0
 39 77  1  0  0  0  0
 39 83  2  0  0  0  0
 40 65  1  0  0  0  0
 40 71  1  0  0  0  0
 40 84  2  0  0  0  0
 41 66  1  0  0  0  0
 41 78  1  0  0  0  0
 41 85  2  0  0  0  0
 42 72  1  0  0  0  0
 42 76  1  0  0  0  0
 42 86  2  0  0  0  0
 43 46  1  0  0  0  0
 44 55  1  0  0  0  0
 45 71  1  0  0  0  0
 46 48  1  0  0  0  0
 47 49  1  0  0  0  0
 47 51  1  0  0  0  0
 48 54  1  0  0  0  0
 49 56  1  0  0  0  0
 50 52  1  0  0  0  0
 50 57  1  0  0  0  0
 51 72  1  0  0  0  0
 52 70  1  0  0  0  0
 53 56  1  0  0  0  0
 53 72  1  0  0  0  0
 54 77  1  0  0  0  0
 55 71  1  0  0  0  0
 56 69  1  0  0  0  0
 57 58  1  0  0  0  0
 57 59  1  0  0  0  0
 60 66  1  0  0  0  0
 61 67  1  0  0  0  0
 62 67  1  0  0  0  0
 63 67  1  0  0  0  0
 64 79  1  0  0  0  0
 65 67  1  0  0  0  0
 65 78  1  0  0  0  0
 66 79  1  0  0  0  0
 68 69  1  0  0  0  0
M  CHG  1  79   1
M  ISO  4  36 101  42 100  76 100  88 101
M  END
> <Batch ID>
0073

> <Smiles>
CNC(C)C(=O)NC(C(=O)N1Cc2cc([101O:1][101CH:1]=CC(=O)Nc3cccc([100NH:0][100C:0](=O)N4CCCC(n5nc(-c6ccc(Oc7ccc(F)cc7F)cc6)c(C(N)=O)c5N)C4)c3N3CCC(C)(C)C3=O)ccc2CC1C(=O)NC1CCCc2ccccc21)C(C)(C)C

> <Shape>
0.258

> <Color>
0.093

> <Negative vol penalty>
0.000

$$$$

  -OEChem-04042323413D

 86 95  0     1  0  0  0  0  0999 V2000
  -25.4076  -25.9137   12.4884 C   0  0  0  0  0  0  0  0  0  0  0  0
  -25.5567  -25.0388   13.5598 C   0  0  0  0  0  0  0  0  0  0  0  0
  -32.0176  -18.1803   23.4034 C   0  0  0  0  0  0  0  0  0  0  0  0
  -23.1851   -9.6594   20.0210 C   0  0  0  0  0  0  0  0  0  0  0  0
  -23.6478  -10.0538   22.3592 C   0  0  0  0  0  0  0  0  0  0  0  0
  -25.4081  -27.2904   12.7089 C   0  0  0  0  0  0  0  0  0  0  0  0
  -25.7075  -25.5402   14.8522 C   0  0  0  0  0  0  0  0  0  0  0  0
  -23.6026  -23.0501   20.0362 C   0  0  0  0  0  0  0  0  0  0  0  0
  -31.1214  -19.1184   23.9156 C   0  0  0  0  0  0  0  0  0  0  0  0
  -31.5560  -17.1490   22.5853 C   0  0  0  0  0  0  0  0  0  0  0  0
  -22.4524   -8.5213   20.3579 C   0  0  0  0  0  0  0  0  0  0  0  0
  -22.9151   -8.9157   22.6962 C   0  0  0  0  0  0  0  0  0  0  0  0
  -24.2104  -22.2617   21.0124 C   0  0  0  0  0  0  0  0  0  0  0  0
  -23.3792   -5.5667   22.7072 C   0  0  0  0  0  0  0  0  0  0  0  0
  -23.9309   -4.6953   23.6462 C   0  0  0  0  0  0  0  0  0  0  0  0
  -24.6212  -24.2333   22.3402 C   0  0  0  0  0  0  0  0  0  0  0  0
  -22.0224   -5.0396   25.0872 C   0  0  0  0  0  0  0  0  0  0  0  0
  -23.7829  -10.4256   21.0217 C   0  0  0  0  0  0  0  0  0  0  0  0
  -24.0571  -12.9172   20.5480 C   0  0  0  0  0  0  0  0  0  0  0  0
  -25.5493  -27.8088   14.0058 C   0  0  0  0  0  0  0  0  0  0  0  0
  -23.5092  -24.4396   20.2000 C   0  0  0  0  0  0  0  0  0  0  0  0
  -25.7113  -26.9252   15.0900 C   0  0  0  0  0  0  0  0  0  0  0  0
  -24.0095  -25.0368   21.3658 C   0  0  0  0  0  0  0  0  0  0  0  0
  -29.3021  -17.9939   22.7919 C   0  0  0  0  0  0  0  0  0  0  0  0
  -29.7636  -19.0252   23.6099 C   0  0  0  0  0  0  0  0  0  0  0  0
  -30.1983  -17.0558   22.2796 C   0  0  0  0  0  0  0  0  0  0  0  0
  -22.3174   -8.1494   21.6955 C   0  0  0  0  0  0  0  0  0  0  0  0
  -24.7223  -22.8537   22.1633 C   0  0  0  0  0  0  0  0  0  0  0  0
  -22.1491   -6.1747   22.9582 C   0  0  0  0  0  0  0  0  0  0  0  0
  -23.2526   -4.4316   24.8361 C   0  0  0  0  0  0  0  0  0  0  0  0
  -21.4707   -5.9111   24.1482 C   0  0  0  0  0  0  0  0  0  0  0  0
  -24.5403  -11.6010   20.6742 C   0  0  0  0  0  0  0  0  0  0  0  0
  -25.1622  -13.6573   20.2054 C   0  0  0  0  0  0  0  0  0  0  0  0
  -27.3144  -21.6629   24.3485 C   0  0  0  0  0  0  0  0  0  0  0  0
  -27.6828  -21.2746   25.5755 C   0  0  0  0  0  0  0  0  0  0  0  0
  -28.0805  -20.8331   23.3832 C   0  0  0  0  0  0  0  0  0  0  0  0
  -22.7281  -13.4254   20.7248 C   0  0  0  0  0  0  0  0  0  0  0  0
  -24.6195  -26.9643   18.6198 C   0  0  0  0  0  0  0  0  0  0  0  0
  -22.7860  -28.6049   20.7338 C   0  0  0  0  0  0  0  0  0  0  0  0
  -21.2441  -28.6886   23.7771 C   0  0  0  0  0  0  0  0  0  0  0  0
  -30.5264  -14.9944   20.8692 C   0  0  0  0  0  0  0  0  0  0  0  0
  -25.5912  -29.3052   14.1888 C   0  0  0  0  0  0  0  0  0  0  0  0
  -22.8268  -25.2728   19.1500 C   0  0  0  0  0  0  0  0  0  0  0  0
  -23.9162  -26.5218   21.5990 C   0  0  0  0  0  0  0  0  0  0  0  0
  -28.6987  -20.1819   25.5497 C   0  0  0  0  0  0  0  0  0  0  0  0
  -25.3806  -29.7482   15.6344 C   0  0  0  0  0  0  0  0  0  0  0  0
  -29.7978  -12.1948   18.7934 C   0  0  0  0  0  0  0  0  0  0  0  0
  -26.2386  -28.9127   16.5792 C   0  0  0  0  0  0  0  0  0  0  0  0
  -28.3253  -11.8990   19.0873 C   0  0  0  0  0  0  0  0  0  0  0  0
  -30.5457  -12.6500   20.0453 C   0  0  0  0  0  0  0  0  0  0  0  0
  -28.4572  -13.4781   21.0561 C   0  0  0  0  0  0  0  0  0  0  0  0
  -25.8526  -27.4302   16.5095 C   0  0  1  0  0  0  0  0  0  0  0  0
  -23.2458  -26.7393   19.1854 C   0  0  1  0  0  0  0  0  0  0  0  0
  -27.6473  -13.0784   19.8119 C   0  0  2  0  0  0  0  0  0  0  0  0
  -27.8442  -17.8933   22.4643 C   0  0  0  0  0  0  0  0  0  0  0  0
  -27.2078  -21.7928   26.8885 C   0  0  0  0  0  0  0  0  0  0  0  0
  -19.8522  -30.1787   25.2399 C   0  0  0  0  0  0  0  0  0  0  0  0
  -25.2681  -30.2384   21.4274 C   0  0  0  0  0  0  0  0  0  0  0  0
  -24.0920  -31.0176   23.4957 C   0  0  0  0  0  0  0  0  0  0  0  0
  -23.1589  -31.5703   21.2493 C   0  0  0  0  0  0  0  0  0  0  0  0
  -18.9923  -26.7682   23.7890 C   0  0  0  0  0  0  0  0  0  0  0  0
  -26.3509  -22.6956   23.8892 C   0  0  0  0  0  0  0  0  0  1  0  0
  -23.0052  -29.1964   22.1053 C   0  0  1  0  0  0  0  0  0  0  0  0
  -19.8361  -29.0859   24.1824 C   0  0  2  0  0  0  0  0  0  0  0  0
  -23.8847  -30.4779   22.0644 C   0  0  0  0  0  0  0  0  0  0  0  0
  -25.8504  -11.5072   20.4313 N   0  0  0  0  0  0  0  0  0  0  0  0
  -26.1997  -12.7738   20.1490 N   0  0  0  0  0  0  0  0  0  0  0  0
  -28.8884  -19.9697   24.1321 N   0  0  0  0  0  0  0  0  0  0  0  0
  -23.2457  -27.2946   20.5403 N   0  0  0  0  0  0  0  0  0  0  0  0
  -29.8477  -13.7725   20.6760 N   0  0  0  0  0  0  0  0  0  0  0  0
  -25.3379  -14.9712   19.9497 N   0  0  0  0  0  0  0  0  0  0  0  0
  -21.7109  -12.5277   21.0768 N   0  0  0  0  0  0  0  0  0  0  0  0
  -29.7516  -15.9989   21.4481 N   0  0  0  0  0  0  0  0  0  0  0  0
  -24.6367  -27.1890   17.2564 N   0  0  0  0  0  0  0  0  0  0  0  0
  -21.6793  -29.3997   22.6788 N   0  0  0  0  0  0  0  0  0  0  0  0
  -19.1042  -27.9101   24.7327 N   0  3  0  0  0  0  0  0  0  0  0  0
  -27.9866  -20.9262   22.1694 O   0  0  0  0  0  0  0  0  0  0  0  0
  -22.4477  -14.6367   20.5591 O   0  0  0  0  0  0  0  0  0  0  0  0
  -25.5917  -26.9375   19.3653 O   0  0  0  0  0  0  0  0  0  0  0  0
  -22.2212  -29.2782   19.8681 O   0  0  0  0  0  0  0  0  0  0  0  0
  -21.8943  -27.8357   24.3773 O   0  0  0  0  0  0  0  0  0  0  0  0
  -31.6997  -15.1473   20.5200 O   0  0  0  0  0  0  0  0  0  0  0  0
  -21.6023   -7.0391   22.0247 O   0  0  0  0  0  0  0  0  0  0  0  0
  -25.3166  -22.0866   23.1174 O   0  0  0  0  0  0  0  0  0  1  0  0
  -23.7818   -3.5935   25.7371 F   0  0  0  0  0  0  0  0  0  0  0  0
  -20.2881   -6.4913   24.3944 F   0  0  0  0  0  0  0  0  0  0  0  0
  1  2  1  0  0  0  0
  1  6  2  0  0  0  0
  2  7  2  0  0  0  0
  3  9  2  0  0  0  0
  3 10  1  0  0  0  0
  4 11  2  0  0  0  0
  4 18  1  0  0  0  0
  5 12  1  0  0  0  0
  5 18  2  0  0  0  0
  6 20  1  0  0  0  0
  7 22  1  0  0  0  0
  8 13  2  0  0  0  0
  8 21  1  0  0  0  0
  9 25  1  0  0  0  0
 10 26  2  0  0  0  0
 11 27  1  0  0  0  0
 12 27  2  0  0  0  0
 13 28  1  0  0  0  0
 14 15  2  0  0  0  0
 14 29  1  0  0  0  0
 15 30  1  0  0  0  0
 16 23  1  0  0  0  0
 16 28  2  0  0  0  0
 17 30  2  0  0  0  0
 17 31  1  0  0  0  0
 18 32  1  0  0  0  0
 19 32  1  0  0  0  0
 19 33  2  0  0  0  0
 19 37  1  0  0  0  0
 20 22  2  0  0  0  0
 20 42  1  0  0  0  0
 21 23  2  0  0  0  0
 21 43  1  0  0  0  0
 22 52  1  0  0  0  0
 23 44  1  0  0  0  0
 24 25  2  0  0  0  0
 24 26  1  0  0  0  0
 24 55  1  0  0  0  0
 25 68  1  0  0  0  0
 26 73  1  0  0  0  0
 27 83  1  0  0  0  0
 28 84  1  0  0  0  0
 29 31  2  0  0  0  0
 29 83  1  0  0  0  0
 30 85  1  0  0  0  0
 31 86  1  0  0  0  0
 32 66  2  0  0  0  0
 33 67  1  0  0  0  0
 33 71  1  0  0  0  0
 34 35  2  0  0  0  0
 34 36  1  0  0  0  0
 34 62  1  0  0  0  0
 35 45  1  0  0  0  0
 35 56  1  0  0  0  0
 36 68  1  0  0  0  0
 36 77  2  0  0  0  0
 37 72  1  0  0  0  0
 37 78  2  0  0  0  0
 38 53  1  0  0  0  0
 38 74  1  0  0  0  0
 38 79  2  0  0  0  0
 39 63  1  0  0  0  0
 39 69  1  0  0  0  0
 39 80  2  0  0  0  0
 40 64  1  0  0  0  0
 40 75  1  0  0  0  0
 40 81  2  0  0  0  0
 41 70  1  0  0  0  0
 41 73  1  0  0  0  0
 41 82  2  0  0  0  0
 42 46  1  0  0  0  0
 43 53  1  0  0  0  0
 44 69  1  0  0  0  0
 45 68  1  0  0  0  0
 46 48  1  0  0  0  0
 47 49  1  0  0  0  0
 47 50  1  0  0  0  0
 48 52  1  0  0  0  0
 49 54  1  0  0  0  0
 50 70  1  0  0  0  0
 51 54  1  0  0  0  0
 51 70  1  0  0  0  0
 52 74  1  0  0  0  0
 53 69  1  0  0  0  0
 54 67  1  0  0  0  0
 57 64  1  0  0  0  0
 58 65  1  0  0  0  0
 59 65  1  0  0  0  0
 60 65  1  0  0  0  0
 61 76  1  0  0  0  0
 62 84  1  0  0  0  0
 63 65  1  0  0  0  0
 63 75  1  0  0  0  0
 64 76  1  0  0  0  0
 66 67  1  0  0  0  0
M  CHG  1  76   1
M  ISO  4  41 100  62 101  73 100  84 101
M  END
> <Batch ID>
0073

> <Smiles>
C=C1CN(c2cccc([100NH:0][100C:0](=O)N3CCCC(n4nc(-c5ccc(Oc6ccc(F)cc6F)cc5)c(C(N)=O)c4N)C3)c2C)C(=O)C1[101CH2:1][101O:1]c1ccc2c(c1)CN(C(=O)C(NC(=O)C(C)NC)C(C)(C)C)C(C(=O)NC1CCCc3ccccc31)C2

> <Shape>
0.259

> <Color>
0.193

> <Negative vol penalty>
0.000

$$$$

  -OEChem-04042323413D

 87 96  0     1  0  0  0  0  0999 V2000
  -26.7125  -38.1935   24.4642 C   0  0  0  0  0  0  0  0  0  0  0  0
  -27.4233  -37.3965   23.5725 C   0  0  0  0  0  0  0  0  0  0  0  0
  -24.1639   -8.6159   20.8511 C   0  0  0  0  0  0  0  0  0  0  0  0
  -23.0865  -10.7463   21.2223 C   0  0  0  0  0  0  0  0  0  0  0  0
  -29.3902  -19.1658   19.1057 C   0  0  0  0  0  0  0  0  0  0  0  0
  -25.9116  -37.6021   25.4403 C   0  0  0  0  0  0  0  0  0  0  0  0
  -27.3343  -36.0074   23.6571 C   0  0  0  0  0  0  0  0  0  0  0  0
  -27.4388  -30.1454   19.5410 C   0  0  0  0  0  0  0  0  0  0  0  0
  -29.5482  -17.8404   19.5107 C   0  0  0  0  0  0  0  0  0  0  0  0
  -23.3061   -8.0209   21.7762 C   0  0  0  0  0  0  0  0  0  0  0  0
  -22.2287  -10.1513   22.1474 C   0  0  0  0  0  0  0  0  0  0  0  0
  -28.0843  -28.9141   19.4365 C   0  0  0  0  0  0  0  0  0  0  0  0
  -20.1163   -6.9022   21.8548 C   0  0  0  0  0  0  0  0  0  0  0  0
  -19.5374   -5.6809   21.5099 C   0  0  0  0  0  0  0  0  0  0  0  0
  -27.1120  -19.1397   19.9096 C   0  0  0  0  0  0  0  0  0  0  0  0
  -26.6073  -28.0043   21.1128 C   0  0  0  0  0  0  0  0  0  0  0  0
  -20.5816   -4.6448   23.4265 C   0  0  0  0  0  0  0  0  0  0  0  0
  -24.0541   -9.9786   20.5742 C   0  0  0  0  0  0  0  0  0  0  0  0
  -28.1720  -19.8154   19.3053 C   0  0  0  0  0  0  0  0  0  0  0  0
  -24.7337  -10.7312   18.2334 C   0  0  0  0  0  0  0  0  0  0  0  0
  -25.8053  -36.2052   25.5307 C   0  0  0  0  0  0  0  0  0  0  0  0
  -26.3780  -30.3188   20.4416 C   0  0  0  0  0  0  0  0  0  0  0  0
  -26.5323  -35.3968   24.6362 C   0  0  0  0  0  0  0  0  0  0  0  0
  -25.9483  -29.2381   21.2250 C   0  0  0  0  0  0  0  0  0  0  0  0
  -28.4882  -17.1646   20.1151 C   0  0  0  0  0  0  0  0  0  0  0  0
  -22.3385   -8.7886   22.4243 C   0  0  0  0  0  0  0  0  0  0  0  0
  -27.6705  -27.8441   20.2246 C   0  0  0  0  0  0  0  0  0  0  0  0
  -20.9279   -6.9948   22.9855 C   0  0  0  0  0  0  0  0  0  0  0  0
  -19.7701   -4.5522   22.2958 C   0  0  0  0  0  0  0  0  0  0  0  0
  -27.2700  -17.8143   20.3146 C   0  0  0  0  0  0  0  0  0  0  0  0
  -21.1605   -5.8662   23.7713 C   0  0  0  0  0  0  0  0  0  0  0  0
  -24.9403  -10.5940   19.6191 C   0  0  0  0  0  0  0  0  0  0  0  0
  -25.8572  -11.3791   17.7812 C   0  0  0  0  0  0  0  0  0  0  0  0
  -28.1800  -23.6003   19.4575 C   0  0  0  0  0  0  0  0  0  0  0  0
  -28.0041  -21.2159   18.8778 C   0  0  0  0  0  0  0  0  0  0  0  0
  -23.6253  -10.3106   17.4270 C   0  0  0  0  0  0  0  0  0  0  0  0
  -25.8715  -32.1587   22.9837 C   0  0  0  0  0  0  0  0  0  0  0  0
  -22.8908  -30.8890   22.8233 C   0  0  0  0  0  0  0  0  0  0  0  0
  -20.8847  -28.3264   21.7962 C   0  0  0  0  0  0  0  0  0  0  0  0
  -29.7960  -15.0304   20.4002 C   0  0  0  0  0  0  0  0  0  0  0  0
  -24.9641  -35.6111   26.6326 C   0  0  0  0  0  0  0  0  0  0  0  0
  -25.6747  -31.6459   20.5232 C   0  0  0  0  0  0  0  0  0  0  0  0
  -24.8013  -29.3667   22.1927 C   0  0  0  0  0  0  0  0  0  0  0  0
  -24.6302  -34.1373   26.4167 C   0  0  0  0  0  0  0  0  0  0  0  0
  -30.5081  -11.9447   18.7729 C   0  0  0  0  0  0  0  0  0  0  0  0
  -25.8779  -33.3618   26.0060 C   0  0  0  0  0  0  0  0  0  0  0  0
  -29.1414  -11.2633   18.6737 C   0  0  0  0  0  0  0  0  0  0  0  0
  -28.4671  -23.2693   21.7801 C   0  0  0  0  0  0  0  0  0  0  0  0
  -30.6603  -12.7230   20.0786 C   0  0  0  0  0  0  0  0  0  0  0  0
  -28.7813  -21.9487   21.0869 C   0  0  0  0  0  0  0  0  0  0  0  0
  -28.2193  -13.0033   20.2578 C   0  0  0  0  0  0  0  0  0  0  0  0
  -26.4422  -33.8868   24.6803 C   0  0  1  0  0  0  0  0  0  0  0  0
  -28.6365  -24.3379   20.6933 C   0  0  2  0  0  0  0  0  0  0  0  0
  -24.9407  -31.8530   21.8445 C   0  0  1  0  0  0  0  0  0  0  0  0
  -27.9946  -12.2604   18.9306 C   0  0  2  0  0  0  0  0  0  0  0  0
  -18.4980  -27.5524   21.8435 C   0  0  0  0  0  0  0  0  0  0  0  0
  -23.2134  -30.0808   25.7478 C   0  0  0  0  0  0  0  0  0  0  0  0
  -21.2716  -28.5268   25.4601 C   0  0  0  0  0  0  0  0  0  0  0  0
  -20.9567  -30.9828   25.1576 C   0  0  0  0  0  0  0  0  0  0  0  0
  -20.6967  -28.3510   18.8427 C   0  0  0  0  0  0  0  0  0  0  0  0
  -27.8234  -25.5884   20.9624 C   0  0  0  0  0  0  0  0  0  1  0  0
  -22.2158  -29.6692   23.4023 C   0  0  1  0  0  0  0  0  0  0  0  0
  -19.5549  -28.3194   21.0640 C   0  0  2  0  0  0  0  0  0  0  0  0
  -21.9373  -29.8127   24.9252 C   0  0  0  0  0  0  0  0  0  0  0  0
  -26.1036  -11.1128   20.0209 N   0  0  0  0  0  0  0  0  0  0  0  0
  -26.6382  -11.5823   18.8808 N   0  0  0  0  0  0  0  0  0  0  0  0
  -28.2904  -22.1909   19.7221 N   0  0  0  0  0  0  0  0  0  0  0  0
  -24.1498  -30.6860   22.2406 N   0  0  0  0  0  0  0  0  0  0  0  0
  -29.5405  -13.6507   20.2525 N   0  0  0  0  0  0  0  0  0  0  0  0
  -26.2434  -11.7890   16.5544 N   0  0  0  0  0  0  0  0  0  0  0  0
  -22.5535   -9.6588   18.0521 N   0  0  0  0  0  0  0  0  0  0  0  0
  -28.6522  -15.8184   20.5254 N   0  0  0  0  0  0  0  0  0  0  0  0
  -25.6600  -33.3932   23.5673 N   0  0  0  0  0  0  0  0  0  0  0  0
  -21.0219  -29.4416   22.5953 N   0  0  0  0  0  0  0  0  0  0  0  0
  -27.5689  -21.4761   17.6485 N   0  3  0  0  0  0  0  0  0  0  0  0
  -19.7045  -27.6837   19.7244 N   0  3  0  0  0  0  0  0  0  0  0  0
  -27.8137  -24.0590   18.3905 O   0  0  0  0  0  0  0  0  0  0  0  0
  -23.5939  -10.4924   16.1862 O   0  0  0  0  0  0  0  0  0  0  0  0
  -26.7179  -31.3348   23.3101 O   0  0  0  0  0  0  0  0  0  0  0  0
  -22.3188  -31.9805   22.8794 O   0  0  0  0  0  0  0  0  0  0  0  0
  -21.7168  -27.4301   21.6745 O   0  0  0  0  0  0  0  0  0  0  0  0
  -30.9436  -15.4830   20.3872 O   0  0  0  0  0  0  0  0  0  0  0  0
  -21.5012   -8.2083   23.3269 O   0  0  0  0  0  0  0  0  0  0  0  0
  -28.2993  -26.6414   20.1250 O   0  0  0  0  0  0  0  0  0  1  0  0
  -19.2129   -3.3798   21.9654 F   0  0  0  0  0  0  0  0  0  0  0  0
  -26.2440  -17.1741   20.8932 F   0  0  0  0  0  0  0  0  0  0  0  0
  -21.9383   -5.9493   24.8594 F   0  0  0  0  0  0  0  0  0  0  0  0
  1  2  1  0  0  0  0
  1  6  2  0  0  0  0
  2  7  2  0  0  0  0
  3 10  2  0  0  0  0
  3 18  1  0  0  0  0
  4 11  1  0  0  0  0
  4 18  2  0  0  0  0
  5  9  2  0  0  0  0
  5 19  1  0  0  0  0
  6 21  1  0  0  0  0
  7 23  1  0  0  0  0
  8 12  2  0  0  0  0
  8 22  1  0  0  0  0
  9 25  1  0  0  0  0
 10 26  1  0  0  0  0
 11 26  2  0  0  0  0
 12 27  1  0  0  0  0
 13 14  2  0  0  0  0
 13 28  1  0  0  0  0
 14 29  1  0  0  0  0
 15 19  2  0  0  0  0
 15 30  1  0  0  0  0
 16 24  1  0  0  0  0
 16 27  2  0  0  0  0
 17 29  2  0  0  0  0
 17 31  1  0  0  0  0
 18 32  1  0  0  0  0
 19 35  1  0  0  0  0
 20 32  1  0  0  0  0
 20 33  2  0  0  0  0
 20 36  1  0  0  0  0
 21 23  2  0  0  0  0
 21 41  1  0  0  0  0
 22 24  2  0  0  0  0
 22 42  1  0  0  0  0
 23 52  1  0  0  0  0
 24 43  1  0  0  0  0
 25 30  2  0  0  0  0
 25 72  1  0  0  0  0
 26 83  1  0  0  0  0
 27 84  1  0  0  0  0
 28 31  2  0  0  0  0
 28 83  1  0  0  0  0
 29 85  1  0  0  0  0
 30 86  1  0  0  0  0
 31 87  1  0  0  0  0
 32 65  2  0  0  0  0
 33 66  1  0  0  0  0
 33 70  1  0  0  0  0
 34 53  1  0  0  0  0
 34 67  1  0  0  0  0
 34 77  2  0  0  0  0
 35 67  1  0  0  0  0
 35 75  2  0  0  0  0
 36 71  1  0  0  0  0
 36 78  2  0  0  0  0
 37 54  1  0  0  0  0
 37 73  1  0  0  0  0
 37 79  2  0  0  0  0
 38 62  1  0  0  0  0
 38 68  1  0  0  0  0
 38 80  2  0  0  0  0
 39 63  1  0  0  0  0
 39 74  1  0  0  0  0
 39 81  2  0  0  0  0
 40 69  1  0  0  0  0
 40 72  1  0  0  0  0
 40 82  2  0  0  0  0
 41 44  1  0  0  0  0
 42 54  1  0  0  0  0
 43 68  1  0  0  0  0
 44 46  1  0  0  0  0
 45 47  1  0  0  0  0
 45 49  1  0  0  0  0
 46 52  1  0  0  0  0
 47 55  1  0  0  0  0
 48 50  1  0  0  0  0
 48 53  1  0  0  0  0
 49 69  1  0  0  0  0
 50 67  1  0  0  0  0
 51 55  1  0  0  0  0
 51 69  1  0  0  0  0
 52 73  1  0  0  0  0
 53 61  1  0  0  0  0
 54 68  1  0  0  0  0
 55 66  1  0  0  0  0
 56 63  1  0  0  0  0
 57 64  1  0  0  0  0
 58 64  1  0  0  0  0
 59 64  1  0  0  0  0
 60 76  1  0  0  0  0
 61 84  1  0  0  0  0
 62 64  1  0  0  0  0
 62 74  1  0  0  0  0
 63 76  1  0  0  0  0
 65 66  1  0  0  0  0
M  CHG  2  75   1  76   1
M  ISO  4  40 100  61 101  72 100  84 101
M  END
> <Batch ID>
0073

> <Smiles>
CNC(C)C(=O)NC(C(=O)N1Cc2cc([101O:1][101CH2:1]C3CCN(C(=N)c4ccc([100NH:0][100C:0](=O)N5CCCC(n6nc(-c7ccc(Oc8ccc(F)cc8F)cc7)c(C(N)=O)c6N)C5)c(F)c4)C3=O)ccc2CC1C(=O)NC1CCCc2ccccc21)C(C)(C)C

> <Shape>
0.349

> <Color>
0.111

> <Negative vol penalty>
0.000

$$$$

  -OEChem-04042323413D

 86 94  0     1  0  0  0  0  0999 V2000
  -18.6945  -24.7492   23.3081 C   0  0  0  0  0  0  0  0  0  0  0  0
  -19.7937  -24.7495   22.4555 C   0  0  0  0  0  0  0  0  0  0  0  0
  -23.6039  -24.7882   18.3722 C   0  0  0  0  0  0  0  0  0  0  0  0
  -27.1001  -14.5811   22.6471 C   0  0  0  0  0  0  0  0  0  0  0  0
  -27.2284  -15.2789   20.3376 C   0  0  0  0  0  0  0  0  0  0  0  0
  -18.0814  -25.9528   23.6538 C   0  0  0  0  0  0  0  0  0  0  0  0
  -20.2800  -25.9535   21.9472 C   0  0  0  0  0  0  0  0  0  0  0  0
  -26.1243  -27.3650   20.7819 C   0  0  0  0  0  0  0  0  0  0  0  0
  -24.1704  -24.2089   19.5076 C   0  0  0  0  0  0  0  0  0  0  0  0
  -26.5750  -13.3525   22.2467 C   0  0  0  0  0  0  0  0  0  0  0  0
  -26.7033  -14.0503   19.9372 C   0  0  0  0  0  0  0  0  0  0  0  0
  -26.8736  -27.3616   19.6062 C   0  0  0  0  0  0  0  0  0  0  0  0
  -23.5882  -12.1286   21.2438 C   0  0  0  0  0  0  0  0  0  0  0  0
  -22.4895  -11.6343   21.9466 C   0  0  0  0  0  0  0  0  0  0  0  0
  -24.0772  -24.4469   17.1052 C   0  0  0  0  0  0  0  0  0  0  0  0
  -26.4391  -29.7183   19.3297 C   0  0  0  0  0  0  0  0  0  0  0  0
  -25.6835  -22.9473   18.1091 C   0  0  0  0  0  0  0  0  0  0  0  0
  -23.7626   -9.6742   22.5585 C   0  0  0  0  0  0  0  0  0  0  0  0
  -27.4268  -15.5444   21.6925 C   0  0  0  0  0  0  0  0  0  0  0  0
  -29.3265  -17.1424   22.2800 C   0  0  0  0  0  0  0  0  0  0  0  0
  -18.5664  -27.1729   23.1572 C   0  0  0  0  0  0  0  0  0  0  0  0
  -25.5166  -28.5447   21.2353 C   0  0  0  0  0  0  0  0  0  0  0  0
  -19.6721  -27.1744   22.2855 C   0  0  0  0  0  0  0  0  0  0  0  0
  -25.6847  -29.7345   20.5128 C   0  0  0  0  0  0  0  0  0  0  0  0
  -25.2102  -23.2886   19.3761 C   0  0  0  0  0  0  0  0  0  0  0  0
  -26.3766  -13.0870   20.8918 C   0  0  0  0  0  0  0  0  0  0  0  0
  -27.0287  -28.5377   18.8783 C   0  0  0  0  0  0  0  0  0  0  0  0
  -24.7742  -11.3957   21.1982 C   0  0  0  0  0  0  0  0  0  0  0  0
  -22.5767  -10.4071   22.6040 C   0  0  0  0  0  0  0  0  0  0  0  0
  -24.8614  -10.1685   21.8556 C   0  0  0  0  0  0  0  0  0  0  0  0
  -25.1170  -23.5266   16.9736 C   0  0  0  0  0  0  0  0  0  0  0  0
  -27.9687  -16.8140   22.1055 C   0  0  0  0  0  0  0  0  0  0  0  0
  -29.3135  -18.4576   22.6758 C   0  0  0  0  0  0  0  0  0  0  0  0
  -30.4950  -16.3312   22.1002 C   0  0  0  0  0  0  0  0  0  0  0  0
  -22.5196  -29.4682   21.7535 C   0  0  0  0  0  0  0  0  0  0  0  0
  -23.9554  -32.1179   22.9536 C   0  0  0  0  0  0  0  0  0  0  0  0
  -26.7252  -25.6076   14.7008 C   0  0  0  0  0  0  0  0  0  0  0  0
  -26.6981  -34.1475   23.0220 C   0  0  0  0  0  0  0  0  0  0  0  0
  -25.4337  -22.9281   21.8593 C   0  0  0  0  0  0  0  0  0  0  0  0
  -17.8416  -28.4444   23.5213 C   0  0  0  0  0  0  0  0  0  0  0  0
  -24.7338  -28.5375   22.5196 C   0  0  0  0  0  0  0  0  0  0  0  0
  -25.0697  -31.0320   20.9675 C   0  0  0  0  0  0  0  0  0  0  0  0
  -18.6492  -29.7084   23.2380 C   0  0  0  0  0  0  0  0  0  0  0  0
  -26.5832  -21.6489   24.9769 C   0  0  0  0  0  0  0  0  0  0  0  0
  -19.2727  -29.6431   21.8474 C   0  0  0  0  0  0  0  0  0  0  0  0
  -27.1979  -20.2965   24.6093 C   0  0  0  0  0  0  0  0  0  0  0  0
  -25.3399  -21.9522   24.1427 C   0  0  0  0  0  0  0  0  0  0  0  0
  -26.1422  -20.4992   22.3222 C   0  0  0  0  0  0  0  0  0  0  0  0
  -20.2441  -28.4621   21.7333 C   0  0  1  0  0  0  0  0  0  0  0  0
  -23.7317  -29.6838   22.6150 C   0  0  1  0  0  0  0  0  0  0  0  0
  -27.4345  -20.1790   23.0908 C   0  0  2  0  0  0  0  0  0  0  0  0
  -27.5614  -36.2579   24.0702 C   0  0  0  0  0  0  0  0  0  0  0  0
  -22.2076  -33.7648   21.0714 C   0  0  0  0  0  0  0  0  0  0  0  0
  -23.7421  -35.7052   21.4568 C   0  0  0  0  0  0  0  0  0  0  0  0
  -22.4665  -34.7279   23.3648 C   0  0  0  0  0  0  0  0  0  0  0  0
  -28.9417  -32.7213   24.3225 C   0  0  0  0  0  0  0  0  0  0  0  0
  -27.9857  -26.4359   14.6041 C   0  0  0  0  0  0  0  0  0  0  0  0
  -27.9275  -27.6695   15.4992 C   0  0  0  0  0  0  0  0  0  0  0  0
  -27.7840  -27.3253   16.9769 C   0  0  0  0  0  0  0  0  0  1  0  0
  -24.4079  -33.4401   22.3827 C   0  0  1  0  0  0  0  0  0  0  0  0
  -27.4820  -34.7430   24.1776 C   0  0  2  0  0  0  0  0  0  0  0  0
  -23.2161  -34.3848   22.0591 C   0  0  0  0  0  0  0  0  0  0  0  0
  -27.1525  -17.8379   22.3690 N   0  0  0  0  0  0  0  0  0  0  0  0
  -27.9999  -18.8226   22.7132 N   0  0  0  0  0  0  0  0  0  0  0  0
  -24.3082  -30.9724   22.2261 N   0  0  0  0  0  0  0  0  0  0  0  0
  -25.6406  -21.8255   22.7150 N   0  0  0  0  0  0  0  0  0  0  0  0
  -30.2976  -19.3258   22.9920 N   0  0  0  0  0  0  0  0  0  0  0  0
  -30.3285  -15.0014   21.6900 N   0  0  0  0  0  0  0  0  0  0  0  0
  -25.7856  -22.6999   20.5294 N   0  0  0  0  0  0  0  0  0  0  0  0
  -21.5002  -28.7766   22.3795 N   0  0  0  0  0  0  0  0  0  0  0  0
  -25.3648  -33.9905   23.3365 N   0  0  0  0  0  0  0  0  0  0  0  0
  -26.9443  -24.2682   15.1570 N   0  0  0  0  0  0  0  0  0  0  0  0
  -28.8696  -34.1998   24.1966 N   0  3  0  0  0  0  0  0  0  0  0  0
  -31.6515  -16.7678   22.3135 O   0  0  0  0  0  0  0  0  0  0  0  0
  -22.5094  -29.8989   20.6063 O   0  0  0  0  0  0  0  0  0  0  0  0
  -23.3187  -32.1014   24.0100 O   0  0  0  0  0  0  0  0  0  0  0  0
  -25.6197  -26.0636   14.4285 O   0  0  0  0  0  0  0  0  0  0  0  0
  -27.2160  -33.8548   21.9466 O   0  0  0  0  0  0  0  0  0  0  0  0
  -25.0035  -24.0048   22.2807 O   0  0  0  0  0  0  0  0  0  0  0  0
  -24.6574  -23.3371   14.4081 O   0  0  0  0  0  0  0  0  0  0  0  0
  -26.3214  -21.7828   15.4879 O   0  0  0  0  0  0  0  0  0  0  0  0
  -25.8644  -11.8882   20.5007 O   0  0  0  0  0  0  0  0  0  0  0  0
  -27.7590  -28.5371   17.7301 O   0  0  0  0  0  0  0  0  0  1  0  0
  -21.5219   -9.9333   23.2801 F   0  0  0  0  0  0  0  0  0  0  0  0
  -25.9985   -9.4605   21.8164 F   0  0  0  0  0  0  0  0  0  0  0  0
  -25.7169  -23.0953   15.3680 S   0  0  0  0  0  0  0  0  0  0  0  0
  1  2  1  0  0  0  0
  1  6  2  0  0  0  0
  2  7  2  0  0  0  0
  3  9  1  0  0  0  0
  3 15  2  0  0  0  0
  4 10  2  0  0  0  0
  4 19  1  0  0  0  0
  5 11  1  0  0  0  0
  5 19  2  0  0  0  0
  6 21  1  0  0  0  0
  7 23  1  0  0  0  0
  8 12  2  0  0  0  0
  8 22  1  0  0  0  0
  9 25  2  0  0  0  0
 10 26  1  0  0  0  0
 11 26  2  0  0  0  0
 12 27  1  0  0  0  0
 13 14  2  0  0  0  0
 13 28  1  0  0  0  0
 14 29  1  0  0  0  0
 15 31  1  0  0  0  0
 16 24  1  0  0  0  0
 16 27  2  0  0  0  0
 17 25  1  0  0  0  0
 17 31  2  0  0  0  0
 18 29  2  0  0  0  0
 18 30  1  0  0  0  0
 19 32  1  0  0  0  0
 20 32  1  0  0  0  0
 20 33  2  0  0  0  0
 20 34  1  0  0  0  0
 21 23  2  0  0  0  0
 21 40  1  0  0  0  0
 22 24  2  0  0  0  0
 22 41  1  0  0  0  0
 23 49  1  0  0  0  0
 24 42  1  0  0  0  0
 25 69  1  0  0  0  0
 26 82  1  0  0  0  0
 27 83  1  0  0  0  0
 28 30  2  0  0  0  0
 28 82  1  0  0  0  0
 29 84  1  0  0  0  0
 30 85  1  0  0  0  0
 31 86  1  0  0  0  0
 32 63  2  0  0  0  0
 33 64  1  0  0  0  0
 33 67  1  0  0  0  0
 34 68  1  0  0  0  0
 34 74  2  0  0  0  0
 35 50  1  0  0  0  0
 35 70  1  0  0  0  0
 35 75  2  0  0  0  0
 36 60  1  0  0  0  0
 36 65  1  0  0  0  0
 36 76  2  0  0  0  0
 37 57  1  0  0  0  0
 37 72  1  0  0  0  0
 37 77  2  0  0  0  0
 38 61  1  0  0  0  0
 38 71  1  0  0  0  0
 38 78  2  0  0  0  0
 39 66  1  0  0  0  0
 39 69  1  0  0  0  0
 39 79  2  0  0  0  0
 40 43  1  0  0  0  0
 41 50  1  0  0  0  0
 42 65  1  0  0  0  0
 43 45  1  0  0  0  0
 44 46  1  0  0  0  0
 44 47  1  0  0  0  0
 45 49  1  0  0  0  0
 46 51  1  0  0  0  0
 47 66  1  0  0  0  0
 48 51  1  0  0  0  0
 48 66  1  0  0  0  0
 49 70  1  0  0  0  0
 50 65  1  0  0  0  0
 51 64  1  0  0  0  0
 52 61  1  0  0  0  0
 53 62  1  0  0  0  0
 54 62  1  0  0  0  0
 55 62  1  0  0  0  0
 56 73  1  0  0  0  0
 57 58  1  0  0  0  0
 58 59  1  0  0  0  0
 59 83  1  0  0  0  0
 60 62  1  0  0  0  0
 60 71  1  0  0  0  0
 61 73  1  0  0  0  0
 63 64  1  0  0  0  0
 72 86  1  0  0  0  0
 80 86  2  0  0  0  0
 81 86  2  0  0  0  0
M  CHG  1  73   1
M  ISO  4  39 100  59 101  69 100  83 101
M  END
> <Batch ID>
0073

> <Smiles>
CNC(C)C(=O)NC(C(=O)N1Cc2cc([101O:1][101CH2:1]CCC(=O)NS(=O)(=O)c3cccc([100NH:0][100C:0](=O)N4CCCC(n5nc(-c6ccc(Oc7ccc(F)cc7F)cc6)c(C(N)=O)c5N)C4)c3)ccc2CC1C(=O)NC1CCCc2ccccc21)C(C)(C)C

> <Shape>
0.227

> <Color>
0.098

> <Negative vol penalty>
0.000

$$$$

  -OEChem-04042323413D

 87 96  0     1  0  0  0  0  0999 V2000
  -27.2984  -38.1881   19.8838 C   0  0  0  0  0  0  0  0  0  0  0  0
  -27.8763  -36.9348   19.7094 C   0  0  0  0  0  0  0  0  0  0  0  0
  -24.1795   -9.1367   21.6790 C   0  0  0  0  0  0  0  0  0  0  0  0
  -24.6441  -10.6116   23.5354 C   0  0  0  0  0  0  0  0  0  0  0  0
  -26.3276  -38.3762   20.8667 C   0  0  0  0  0  0  0  0  0  0  0  0
  -27.4846  -35.8689   20.5186 C   0  0  0  0  0  0  0  0  0  0  0  0
  -27.0575  -29.9787   18.8974 C   0  0  0  0  0  0  0  0  0  0  0  0
  -30.2216  -20.1627   19.6810 C   0  0  0  0  0  0  0  0  0  0  0  0
  -30.0457  -18.7994   19.4439 C   0  0  0  0  0  0  0  0  0  0  0  0
  -23.8456   -8.1183   22.5717 C   0  0  0  0  0  0  0  0  0  0  0  0
  -24.3102   -9.5932   24.4281 C   0  0  0  0  0  0  0  0  0  0  0  0
  -27.9166  -28.8940   19.0684 C   0  0  0  0  0  0  0  0  0  0  0  0
  -21.2017   -7.2614   24.4974 C   0  0  0  0  0  0  0  0  0  0  0  0
  -20.0463   -6.5244   24.2374 C   0  0  0  0  0  0  0  0  0  0  0  0
  -26.6984  -28.2491   21.0482 C   0  0  0  0  0  0  0  0  0  0  0  0
  -27.8342  -20.4252   19.9432 C   0  0  0  0  0  0  0  0  0  0  0  0
  -21.3653   -4.5049   24.1001 C   0  0  0  0  0  0  0  0  0  0  0  0
  -24.5788  -10.3834   22.1609 C   0  0  0  0  0  0  0  0  0  0  0  0
  -24.0604  -12.4011   20.6886 C   0  0  0  0  0  0  0  0  0  0  0  0
  -25.9168  -37.3098   21.6820 C   0  0  0  0  0  0  0  0  0  0  0  0
  -26.0173  -30.2133   19.8081 C   0  0  0  0  0  0  0  0  0  0  0  0
  -26.5084  -36.0432   21.5143 C   0  0  0  0  0  0  0  0  0  0  0  0
  -25.8259  -29.3359   20.8850 C   0  0  0  0  0  0  0  0  0  0  0  0
  -27.6583  -19.0619   19.7060 C   0  0  0  0  0  0  0  0  0  0  0  0
  -29.1159  -20.9756   19.9307 C   0  0  0  0  0  0  0  0  0  0  0  0
  -28.7640  -18.2491   19.4563 C   0  0  0  0  0  0  0  0  0  0  0  0
  -23.9109   -8.3465   23.9462 C   0  0  0  0  0  0  0  0  0  0  0  0
  -27.7389  -28.0307   20.1456 C   0  0  0  0  0  0  0  0  0  0  0  0
  -22.4389   -6.6201   24.5587 C   0  0  0  0  0  0  0  0  0  0  0  0
  -20.1281   -5.1462   24.0388 C   0  0  0  0  0  0  0  0  0  0  0  0
  -22.5207   -5.2419   24.3600 C   0  0  0  0  0  0  0  0  0  0  0  0
  -24.9243  -11.4356   21.2392 C   0  0  0  0  0  0  0  0  0  0  0  0
  -24.8681  -13.1642   19.8813 C   0  0  0  0  0  0  0  0  0  0  0  0
  -28.7644  -24.6033   20.4687 C   0  0  0  0  0  0  0  0  0  0  0  0
  -30.5203  -23.0670   20.1988 C   0  0  0  0  0  0  0  0  0  0  0  0
  -28.0357  -25.7165   20.3107 C   0  0  0  0  0  0  0  0  0  1  0  0
  -22.6535  -12.5913   20.8891 C   0  0  0  0  0  0  0  0  0  0  0  0
  -25.2725  -32.5730   21.8032 C   0  0  0  0  0  0  0  0  0  0  0  0
  -22.5763  -30.8246   22.2461 C   0  0  0  0  0  0  0  0  0  0  0  0
  -21.0455  -27.7772   22.1162 C   0  0  0  0  0  0  0  0  0  0  0  0
  -29.6107  -15.9302   18.9540 C   0  0  0  0  0  0  0  0  0  0  0  0
  -24.8981  -37.5727   22.7626 C   0  0  0  0  0  0  0  0  0  0  0  0
  -25.0828  -31.3724   19.5945 C   0  0  0  0  0  0  0  0  0  0  0  0
  -24.7120  -29.5322   21.8795 C   0  0  0  0  0  0  0  0  0  0  0  0
  -28.1691  -23.2357   20.4628 C   0  0  0  0  0  0  0  0  0  0  0  0
  -24.2687  -36.3024   23.3285 C   0  0  0  0  0  0  0  0  0  0  0  0
  -29.6335  -12.4224   18.3442 C   0  0  0  0  0  0  0  0  0  0  0  0
  -25.3435  -35.2631   23.6310 C   0  0  0  0  0  0  0  0  0  0  0  0
  -28.3393  -11.9324   18.9977 C   0  0  0  0  0  0  0  0  0  0  0  0
  -30.2847  -13.5463   19.1483 C   0  0  0  0  0  0  0  0  0  0  0  0
  -28.1097  -14.1903   20.1095 C   0  0  0  0  0  0  0  0  0  0  0  0
  -26.0921  -34.8564   22.3559 C   0  0  1  0  0  0  0  0  0  0  0  0
  -24.3730  -31.8108   20.8718 C   0  0  1  0  0  0  0  0  0  0  0  0
  -27.3833  -13.1026   19.3016 C   0  0  2  0  0  0  0  0  0  0  0  0
  -30.2642  -24.5246   20.5848 C   0  0  0  0  0  0  0  0  0  0  0  0
  -26.2744  -18.4987   19.7274 C   0  0  0  0  0  0  0  0  0  0  0  0
  -31.0225  -25.4563   19.6357 C   0  0  0  0  0  0  0  0  0  0  0  0
  -30.7129  -24.7364   22.0342 C   0  0  0  0  0  0  0  0  0  0  0  0
  -18.8481  -26.6554   22.5749 C   0  0  0  0  0  0  0  0  0  0  0  0
  -23.1527  -30.9256   25.2407 C   0  0  0  0  0  0  0  0  0  0  0  0
  -21.5248  -29.0482   25.5467 C   0  0  0  0  0  0  0  0  0  0  0  0
  -20.7472  -31.2341   24.6304 C   0  0  0  0  0  0  0  0  0  0  0  0
  -20.7461  -26.9496   19.2905 C   0  0  0  0  0  0  0  0  0  0  0  0
  -22.1624  -29.7174   23.1852 C   0  0  1  0  0  0  0  0  0  0  0  0
  -19.7139  -27.3430   21.5307 C   0  0  2  0  0  0  0  0  0  0  0  0
  -21.9190  -30.2285   24.6333 C   0  0  0  0  0  0  0  0  0  0  0  0
  -26.1844  -11.5707   20.8172 N   0  0  0  0  0  0  0  0  0  0  0  0
  -26.1181  -12.6299   19.9928 N   0  0  0  0  0  0  0  0  0  0  0  0
  -29.2970  -22.3747   20.1769 N   0  0  0  0  0  0  0  0  0  0  0  0
  -23.8285  -30.6835   21.6313 N   0  0  0  0  0  0  0  0  0  0  0  0
  -29.3211  -14.6214   19.3943 N   0  0  0  0  0  0  0  0  0  0  0  0
  -24.6240  -14.2333   19.0939 N   0  0  0  0  0  0  0  0  0  0  0  0
  -21.9774  -11.7176   21.7515 N   0  0  0  0  0  0  0  0  0  0  0  0
  -28.6064  -16.8618   19.2148 N   0  0  0  0  0  0  0  0  0  0  0  0
  -25.2951  -33.9355   21.5740 N   0  0  0  0  0  0  0  0  0  0  0  0
  -21.0024  -29.0768   22.5748 N   0  0  0  0  0  0  0  0  0  0  0  0
  -19.9291  -26.3956   20.4007 N   0  3  0  0  0  0  0  0  0  0  0  0
  -31.6500  -22.6365   19.9989 O   0  0  0  0  0  0  0  0  0  0  0  0
  -22.0117  -13.4987   20.3075 O   0  0  0  0  0  0  0  0  0  0  0  0
  -25.8984  -31.9699   22.6670 O   0  0  0  0  0  0  0  0  0  0  0  0
  -21.8137  -31.7759   22.0594 O   0  0  0  0  0  0  0  0  0  0  0  0
  -22.0248  -27.0362   22.1654 O   0  0  0  0  0  0  0  0  0  0  0  0
  -30.6599  -16.1989   18.3631 O   0  0  0  0  0  0  0  0  0  0  0  0
  -23.5850   -7.3530   24.8176 O   0  0  0  0  0  0  0  0  0  0  0  0
  -28.5765  -26.9717   20.3152 O   0  0  0  0  0  0  0  0  0  1  0  0
  -19.0183   -4.4384   23.7907 F   0  0  0  0  0  0  0  0  0  0  0  0
  -23.7064   -4.6201   24.4189 F   0  0  0  0  0  0  0  0  0  0  0  0
  1  2  1  0  0  0  0
  1  5  2  0  0  0  0
  2  6  2  0  0  0  0
  3 10  2  0  0  0  0
  3 18  1  0  0  0  0
  4 11  1  0  0  0  0
  4 18  2  0  0  0  0
  5 20  1  0  0  0  0
  6 22  1  0  0  0  0
  7 12  2  0  0  0  0
  7 21  1  0  0  0  0
  8  9  2  0  0  0  0
  8 25  1  0  0  0  0
  9 26  1  0  0  0  0
 10 27  1  0  0  0  0
 11 27  2  0  0  0  0
 12 28  1  0  0  0  0
 13 14  2  0  0  0  0
 13 29  1  0  0  0  0
 14 30  1  0  0  0  0
 15 23  1  0  0  0  0
 15 28  2  0  0  0  0
 16 24  1  0  0  0  0
 16 25  2  0  0  0  0
 17 30  2  0  0  0  0
 17 31  1  0  0  0  0
 18 32  1  0  0  0  0
 19 32  1  0  0  0  0
 19 33  2  0  0  0  0
 19 37  1  0  0  0  0
 20 22  2  0  0  0  0
 20 42  1  0  0  0  0
 21 23  2  0  0  0  0
 21 43  1  0  0  0  0
 22 52  1  0  0  0  0
 23 44  1  0  0  0  0
 24 26  2  0  0  0  0
 24 56  1  0  0  0  0
 25 69  1  0  0  0  0
 26 74  1  0  0  0  0
 27 84  1  0  0  0  0
 28 85  1  0  0  0  0
 29 31  2  0  0  0  0
 29 84  1  0  0  0  0
 30 86  1  0  0  0  0
 31 87  1  0  0  0  0
 32 67  2  0  0  0  0
 33 68  1  0  0  0  0
 33 72  1  0  0  0  0
 34 36  2  0  0  0  0
 34 45  1  0  0  0  0
 34 55  1  0  0  0  0
 35 55  1  0  0  0  0
 35 69  1  0  0  0  0
 35 78  2  0  0  0  0
 36 85  1  0  0  0  0
 37 73  1  0  0  0  0
 37 79  2  0  0  0  0
 38 53  1  0  0  0  0
 38 75  1  0  0  0  0
 38 80  2  0  0  0  0
 39 64  1  0  0  0  0
 39 70  1  0  0  0  0
 39 81  2  0  0  0  0
 40 65  1  0  0  0  0
 40 76  1  0  0  0  0
 40 82  2  0  0  0  0
 41 71  1  0  0  0  0
 41 74  1  0  0  0  0
 41 83  2  0  0  0  0
 42 46  1  0  0  0  0
 43 53  1  0  0  0  0
 44 70  1  0  0  0  0
 45 69  1  0  0  0  0
 46 48  1  0  0  0  0
 47 49  1  0  0  0  0
 47 50  1  0  0  0  0
 48 52  1  0  0  0  0
 49 54  1  0  0  0  0
 50 71  1  0  0  0  0
 51 54  1  0  0  0  0
 51 71  1  0  0  0  0
 52 75  1  0  0  0  0
 53 70  1  0  0  0  0
 54 68  1  0  0  0  0
 55 57  1  0  0  0  0
 55 58  1  0  0  0  0
 59 65  1  0  0  0  0
 60 66  1  0  0  0  0
 61 66  1  0  0  0  0
 62 66  1  0  0  0  0
 63 77  1  0  0  0  0
 64 66  1  0  0  0  0
 64 76  1  0  0  0  0
 65 77  1  0  0  0  0
 67 68  1  0  0  0  0
M  CHG  1  77   1
M  ISO  4  36 101  41 100  74 100  85 101
M  END
> <Batch ID>
0073

> <Smiles>
CNC(C)C(=O)NC(C(=O)N1Cc2cc([101O:1][101CH:1]=C3CN(c4ccc([100NH:0][100C:0](=O)N5CCCC(n6nc(-c7ccc(Oc8ccc(F)cc8F)cc7)c(C(N)=O)c6N)C5)c(C)c4)C(=O)C3(C)C)ccc2CC1C(=O)NC1CCCc2ccccc21)C(C)(C)C

> <Shape>
0.358

> <Color>
0.116

> <Negative vol penalty>
0.000

$$$$

  -OEChem-04042323413D

 83 91  0     1  0  0  0  0  0999 V2000
  -21.3412  -30.5680   14.4984 C   0  0  0  0  0  0  0  0  0  0  0  0
  -22.5384  -30.0804   15.0125 C   0  0  0  0  0  0  0  0  0  0  0  0
  -23.9636   -9.6631   21.9471 C   0  0  0  0  0  0  0  0  0  0  0  0
  -24.6499  -11.0908   23.7714 C   0  0  0  0  0  0  0  0  0  0  0  0
  -31.0768  -19.9703   19.6383 C   0  0  0  0  0  0  0  0  0  0  0  0
  -28.7348  -20.4620   19.9702 C   0  0  0  0  0  0  0  0  0  0  0  0
  -20.7960  -31.7476   15.0035 C   0  0  0  0  0  0  0  0  0  0  0  0
  -23.1918  -30.7729   16.0314 C   0  0  0  0  0  0  0  0  0  0  0  0
  -24.8367  -27.7126   19.7156 C   0  0  0  0  0  0  0  0  0  0  0  0
  -30.7643  -18.6285   19.4205 C   0  0  0  0  0  0  0  0  0  0  0  0
  -28.4222  -19.1202   19.7523 C   0  0  0  0  0  0  0  0  0  0  0  0
  -23.5513   -8.6935   22.8611 C   0  0  0  0  0  0  0  0  0  0  0  0
  -24.2376  -10.1211   24.6854 C   0  0  0  0  0  0  0  0  0  0  0  0
  -26.0028  -26.9893   19.4693 C   0  0  0  0  0  0  0  0  0  0  0  0
  -20.8972   -8.1443   24.8827 C   0  0  0  0  0  0  0  0  0  0  0  0
  -19.6600   -7.5366   24.6692 C   0  0  0  0  0  0  0  0  0  0  0  0
  -27.2642  -28.5985   20.7493 C   0  0  0  0  0  0  0  0  0  0  0  0
  -20.7450   -5.3839   24.5091 C   0  0  0  0  0  0  0  0  0  0  0  0
  -24.5129  -10.8618   22.4023 C   0  0  0  0  0  0  0  0  0  0  0  0
  -30.0621  -20.8870   19.9132 C   0  0  0  0  0  0  0  0  0  0  0  0
  -24.1678  -12.9142   20.9271 C   0  0  0  0  0  0  0  0  0  0  0  0
  -21.4380  -32.4498   16.0356 C   0  0  0  0  0  0  0  0  0  0  0  0
  -24.8773  -28.8922   20.4728 C   0  0  0  0  0  0  0  0  0  0  0  0
  -22.6553  -31.9638   16.5498 C   0  0  0  0  0  0  0  0  0  0  0  0
  -26.0967  -29.3336   21.0060 C   0  0  0  0  0  0  0  0  0  0  0  0
  -29.4370  -18.2034   19.4775 C   0  0  0  0  0  0  0  0  0  0  0  0
  -23.6883   -8.9224   24.2302 C   0  0  0  0  0  0  0  0  0  0  0  0
  -27.2173  -27.4337   19.9838 C   0  0  0  0  0  0  0  0  0  0  0  0
  -22.0584   -7.3718   24.9094 C   0  0  0  0  0  0  0  0  0  0  0  0
  -19.5839   -6.1564   24.4824 C   0  0  0  0  0  0  0  0  0  0  0  0
  -21.9823   -5.9916   24.7226 C   0  0  0  0  0  0  0  0  0  0  0  0
  -24.9395  -11.8637   21.4587 C   0  0  0  0  0  0  0  0  0  0  0  0
  -25.0259  -13.5787   20.0854 C   0  0  0  0  0  0  0  0  0  0  0  0
  -30.3949  -22.3157   20.1453 C   0  0  0  0  0  0  0  0  0  0  0  0
  -22.7978  -13.2587   21.1724 C   0  0  0  0  0  0  0  0  0  0  0  0
  -24.2009  -31.9459   19.9060 C   0  0  0  0  0  0  0  0  0  0  0  0
  -24.7706  -32.2578   23.0841 C   0  0  0  0  0  0  0  0  0  0  0  0
  -29.4908  -24.6091   20.0106 C   0  0  0  0  0  0  0  0  0  0  0  0
  -26.3007  -31.0504   25.8854 C   0  0  0  0  0  0  0  0  0  0  0  0
  -30.0076  -15.8024   18.9715 C   0  0  0  0  0  0  0  0  0  0  0  0
  -20.8346  -33.7456   16.5167 C   0  0  0  0  0  0  0  0  0  0  0  0
  -23.6063  -29.6466   20.7519 C   0  0  0  0  0  0  0  0  0  0  0  0
  -26.1908  -30.5828   21.8421 C   0  0  0  0  0  0  0  0  0  0  0  0
  -21.3970  -34.2198   17.8543 C   0  0  0  0  0  0  0  0  0  0  0  0
  -29.6262  -12.3092   18.3980 C   0  0  0  0  0  0  0  0  0  0  0  0
  -22.9194  -34.1239   17.8575 C   0  0  0  0  0  0  0  0  0  0  0  0
  -28.3094  -11.9683   19.0994 C   0  0  0  0  0  0  0  0  0  0  0  0
  -30.4235  -13.3604   19.1681 C   0  0  0  0  0  0  0  0  0  0  0  0
  -28.3661  -14.2452   20.1946 C   0  0  0  0  0  0  0  0  0  0  0  0
  -23.3811  -32.6734   17.6722 C   0  0  1  0  0  0  0  0  0  0  0  0
  -23.8460  -31.1115   21.1041 C   0  0  1  0  0  0  0  0  0  0  0  0
  -27.4980  -13.2381   19.4227 C   0  0  2  0  0  0  0  0  0  0  0  0
  -26.6127  -31.5414   28.3265 C   0  0  0  0  0  0  0  0  0  0  0  0
  -26.7601  -34.4626   22.3838 C   0  0  0  0  0  0  0  0  0  0  0  0
  -27.7055  -34.2467   24.6920 C   0  0  0  0  0  0  0  0  0  0  0  0
  -25.3306  -34.9426   24.3789 C   0  0  0  0  0  0  0  0  0  0  0  0
  -25.0226  -28.5021   26.6802 C   0  0  0  0  0  0  0  0  0  0  0  0
  -28.2260  -25.3190   19.5757 C   0  0  0  0  0  0  0  0  0  1  0  0
  -25.9887  -32.5434   23.9289 C   0  0  1  0  0  0  0  0  0  0  0  0
  -25.7806  -30.8026   27.2899 C   0  0  2  0  0  0  0  0  0  0  0  0
  -26.4451  -34.0263   23.8286 C   0  0  0  0  0  0  0  0  0  0  0  0
  -26.1916  -11.8570   20.9935 N   0  0  0  0  0  0  0  0  0  0  0  0
  -26.2131  -12.9116   20.1607 N   0  0  0  0  0  0  0  0  0  0  0  0
  -24.9215  -31.2891   22.0818 N   0  0  0  0  0  0  0  0  0  0  0  0
  -29.5921  -14.5362   19.4349 N   0  0  0  0  0  0  0  0  0  0  0  0
  -24.8732  -14.6628   19.2954 N   0  0  0  0  0  0  0  0  0  0  0  0
  -22.0603  -12.4701   22.0660 N   0  0  0  0  0  0  0  0  0  0  0  0
  -29.1206  -16.8401   19.2559 N   0  0  0  0  0  0  0  0  0  0  0  0
  -29.3878  -23.2282   19.8356 N   0  0  0  0  0  0  0  0  0  0  0  0
  -23.2427  -31.9368   18.9103 N   0  0  0  0  0  0  0  0  0  0  0  0
  -25.6575  -32.1104   25.2821 N   0  0  0  0  0  0  0  0  0  0  0  0
  -25.8188  -29.3470   27.6072 N   0  3  0  0  0  0  0  0  0  0  0  0
  -31.4945  -22.6058   20.6087 O   0  0  0  0  0  0  0  0  0  0  0  0
  -22.2394  -14.2270   20.6031 O   0  0  0  0  0  0  0  0  0  0  0  0
  -25.2645  -32.5541   19.8869 O   0  0  0  0  0  0  0  0  0  0  0  0
  -23.7217  -32.8666   23.3099 O   0  0  0  0  0  0  0  0  0  0  0  0
  -30.4679  -25.2051   20.4553 O   0  0  0  0  0  0  0  0  0  0  0  0
  -27.1913  -30.3738   25.3759 O   0  0  0  0  0  0  0  0  0  0  0  0
  -31.0589  -15.9506   18.3431 O   0  0  0  0  0  0  0  0  0  0  0  0
  -23.2858   -7.9765   25.1223 O   0  0  0  0  0  0  0  0  0  0  0  0
  -28.3571  -26.7300   19.7443 O   0  0  0  0  0  0  0  0  0  1  0  0
  -18.3956   -5.5728   24.2788 F   0  0  0  0  0  0  0  0  0  0  0  0
  -23.0942   -5.2441   24.7483 F   0  0  0  0  0  0  0  0  0  0  0  0
  1  2  1  0  0  0  0
  1  7  2  0  0  0  0
  2  8  2  0  0  0  0
  3 12  2  0  0  0  0
  3 19  1  0  0  0  0
  4 13  1  0  0  0  0
  4 19  2  0  0  0  0
  5 10  2  0  0  0  0
  5 20  1  0  0  0  0
  6 11  1  0  0  0  0
  6 20  2  0  0  0  0
  7 22  1  0  0  0  0
  8 24  1  0  0  0  0
  9 14  2  0  0  0  0
  9 23  1  0  0  0  0
 10 26  1  0  0  0  0
 11 26  2  0  0  0  0
 12 27  1  0  0  0  0
 13 27  2  0  0  0  0
 14 28  1  0  0  0  0
 15 16  2  0  0  0  0
 15 29  1  0  0  0  0
 16 30  1  0  0  0  0
 17 25  1  0  0  0  0
 17 28  2  0  0  0  0
 18 30  2  0  0  0  0
 18 31  1  0  0  0  0
 19 32  1  0  0  0  0
 20 34  1  0  0  0  0
 21 32  1  0  0  0  0
 21 33  2  0  0  0  0
 21 35  1  0  0  0  0
 22 24  2  0  0  0  0
 22 41  1  0  0  0  0
 23 25  2  0  0  0  0
 23 42  1  0  0  0  0
 24 50  1  0  0  0  0
 25 43  1  0  0  0  0
 26 68  1  0  0  0  0
 27 80  1  0  0  0  0
 28 81  1  0  0  0  0
 29 31  2  0  0  0  0
 29 80  1  0  0  0  0
 30 82  1  0  0  0  0
 31 83  1  0  0  0  0
 32 62  2  0  0  0  0
 33 63  1  0  0  0  0
 33 66  1  0  0  0  0
 34 69  1  0  0  0  0
 34 73  2  0  0  0  0
 35 67  1  0  0  0  0
 35 74  2  0  0  0  0
 36 51  1  0  0  0  0
 36 70  1  0  0  0  0
 36 75  2  0  0  0  0
 37 59  1  0  0  0  0
 37 64  1  0  0  0  0
 37 76  2  0  0  0  0
 38 58  1  0  0  0  0
 38 69  1  0  0  0  0
 38 77  2  0  0  0  0
 39 60  1  0  0  0  0
 39 71  1  0  0  0  0
 39 78  2  0  0  0  0
 40 65  1  0  0  0  0
 40 68  1  0  0  0  0
 40 79  2  0  0  0  0
 41 44  1  0  0  0  0
 42 51  1  0  0  0  0
 43 64  1  0  0  0  0
 44 46  1  0  0  0  0
 45 47  1  0  0  0  0
 45 48  1  0  0  0  0
 46 50  1  0  0  0  0
 47 52  1  0  0  0  0
 48 65  1  0  0  0  0
 49 52  1  0  0  0  0
 49 65  1  0  0  0  0
 50 70  1  0  0  0  0
 51 64  1  0  0  0  0
 52 63  1  0  0  0  0
 53 60  1  0  0  0  0
 54 61  1  0  0  0  0
 55 61  1  0  0  0  0
 56 61  1  0  0  0  0
 57 72  1  0  0  0  0
 58 81  1  0  0  0  0
 59 61  1  0  0  0  0
 59 71  1  0  0  0  0
 60 72  1  0  0  0  0
 62 63  1  0  0  0  0
M  CHG  1  72   1
M  ISO  4  40 100  58 101  68 100  81 101
M  END
> <Batch ID>
0073

> <Smiles>
CNC(C)C(=O)NC(C(=O)N1Cc2cc([101O:1][101CH2:1]C(=O)NC(=O)c3ccc([100NH:0][100C:0](=O)N4CCCC(n5nc(-c6ccc(Oc7ccc(F)cc7F)cc6)c(C(N)=O)c5N)C4)cc3)ccc2CC1C(=O)NC1CCCc2ccccc21)C(C)(C)C

> <Shape>
0.330

> <Color>
0.168

> <Negative vol penalty>
0.000

$$$$

  -OEChem-04042323413D

 88 97  0     1  0  0  0  0  0999 V2000
  -24.9119  -38.0262   18.6685 C   0  0  0  0  0  0  0  0  0  0  0  0
  -25.8471  -37.1453   19.2023 C   0  0  0  0  0  0  0  0  0  0  0  0
  -23.2913  -10.0311   20.3510 C   0  0  0  0  0  0  0  0  0  0  0  0
  -24.8589   -8.4604   21.3062 C   0  0  0  0  0  0  0  0  0  0  0  0
  -23.5877  -37.9826   19.1026 C   0  0  0  0  0  0  0  0  0  0  0  0
  -25.4587  -36.2210   20.1714 C   0  0  0  0  0  0  0  0  0  0  0  0
  -26.3058  -29.1480   19.1002 C   0  0  0  0  0  0  0  0  0  0  0  0
  -30.7008  -18.5082   19.8363 C   0  0  0  0  0  0  0  0  0  0  0  0
  -30.6928  -17.1145   19.8913 C   0  0  0  0  0  0  0  0  0  0  0  0
  -22.3225   -9.6213   21.2669 C   0  0  0  0  0  0  0  0  0  0  0  0
  -23.8901   -8.0506   22.2223 C   0  0  0  0  0  0  0  0  0  0  0  0
  -26.6284  -27.7914   19.0580 C   0  0  0  0  0  0  0  0  0  0  0  0
  -21.1729   -6.0387   22.2420 C   0  0  0  0  0  0  0  0  0  0  0  0
  -21.0168   -4.6685   22.4508 C   0  0  0  0  0  0  0  0  0  0  0  0
  -25.5433  -27.4562   21.1930 C   0  0  0  0  0  0  0  0  0  0  0  0
  -28.2816  -17.1222   19.7395 C   0  0  0  0  0  0  0  0  0  0  0  0
  -21.5607   -4.9623   24.7864 C   0  0  0  0  0  0  0  0  0  0  0  0
  -24.5595   -9.4506   20.3706 C   0  0  0  0  0  0  0  0  0  0  0  0
  -25.4852   -9.8060   18.0201 C   0  0  0  0  0  0  0  0  0  0  0  0
  -23.1808  -37.0507   20.0705 C   0  0  0  0  0  0  0  0  0  0  0  0
  -25.5865  -29.6615   20.1829 C   0  0  0  0  0  0  0  0  0  0  0  0
  -24.1281  -36.1657   20.6198 C   0  0  0  0  0  0  0  0  0  0  0  0
  -25.2065  -28.8118   21.2348 C   0  0  0  0  0  0  0  0  0  0  0  0
  -29.4991  -19.2090   19.7330 C   0  0  0  0  0  0  0  0  0  0  0  0
  -29.4833  -16.4215   19.8429 C   0  0  0  0  0  0  0  0  0  0  0  0
  -22.6218   -8.6311   22.2026 C   0  0  0  0  0  0  0  0  0  0  0  0
  -26.2482  -26.9477   20.1020 C   0  0  0  0  0  0  0  0  0  0  0  0
  -21.5230   -6.8708   23.3054 C   0  0  0  0  0  0  0  0  0  0  0  0
  -21.2107   -4.1303   23.7229 C   0  0  0  0  0  0  0  0  0  0  0  0
  -28.2895  -18.5160   19.6846 C   0  0  0  0  0  0  0  0  0  0  0  0
  -21.7168   -6.3326   24.5776 C   0  0  0  0  0  0  0  0  0  0  0  0
  -25.5606   -9.8731   19.4243 C   0  0  0  0  0  0  0  0  0  0  0  0
  -26.6798  -10.3270   17.5868 C   0  0  0  0  0  0  0  0  0  0  0  0
  -30.0384  -21.4365   20.7013 C   0  0  0  0  0  0  0  0  0  0  0  0
  -30.1321  -21.0988   22.0025 C   0  0  0  0  0  0  0  0  0  0  0  0
  -24.4295   -9.3165   17.1824 C   0  0  0  0  0  0  0  0  0  0  0  0
  -28.3543  -24.0023   19.9312 C   0  0  0  0  0  0  0  0  0  0  0  0
  -23.9966  -32.6604   21.7812 C   0  0  0  0  0  0  0  0  0  0  0  0
  -22.0877  -30.2996   22.2205 C   0  0  0  0  0  0  0  0  0  0  0  0
  -19.3794  -28.2796   22.6917 C   0  0  0  0  0  0  0  0  0  0  0  0
  -30.5780  -14.1582   20.0016 C   0  0  0  0  0  0  0  0  0  0  0  0
  -21.7486  -37.0730   20.5427 C   0  0  0  0  0  0  0  0  0  0  0  0
  -25.2707  -31.1279   20.2997 C   0  0  0  0  0  0  0  0  0  0  0  0
  -24.4640  -29.4148   22.3958 C   0  0  0  0  0  0  0  0  0  0  0  0
  -30.5167  -22.8179   20.2954 C   0  0  0  0  0  0  0  0  0  0  0  0
  -21.3375  -35.8133   21.3006 C   0  0  0  0  0  0  0  0  0  0  0  0
  -31.2503  -10.8316   18.9249 C   0  0  0  0  0  0  0  0  0  0  0  0
  -22.3986  -35.4401   22.3310 C   0  0  0  0  0  0  0  0  0  0  0  0
  -29.8604  -10.2040   18.7971 C   0  0  0  0  0  0  0  0  0  0  0  0
  -29.3071  -22.5692   18.1120 C   0  0  0  0  0  0  0  0  0  0  0  0
  -31.3319  -11.7928   20.1095 C   0  0  0  0  0  0  0  0  0  0  0  0
  -28.7557  -21.2146   18.5544 C   0  0  0  0  0  0  0  0  0  0  0  0
  -28.9050  -12.2046   20.0104 C   0  0  0  0  0  0  0  0  0  0  0  0
  -23.7400  -35.1321   21.6548 C   0  0  1  0  0  0  0  0  0  0  0  0
  -29.6100  -23.5030   19.2769 C   0  0  1  0  0  0  0  0  0  0  0  0
  -23.9121  -31.4012   20.9696 C   0  0  1  0  0  0  0  0  0  0  0  0
  -28.7552  -11.2784   18.7925 C   0  0  2  0  0  0  0  0  0  0  0  0
  -17.3890  -27.9709   24.1885 C   0  0  0  0  0  0  0  0  0  0  0  0
  -23.9018  -29.1598   24.3916 C   0  0  0  0  0  0  0  0  0  0  0  0
  -21.8940  -28.0381   25.3810 C   0  0  0  0  0  0  0  0  0  0  0  0
  -21.9882  -30.5270   25.2421 C   0  0  0  0  0  0  0  0  0  0  0  0
  -17.4880  -28.6327   20.4430 C   0  0  0  0  0  0  0  0  0  0  0  0
  -27.7532  -25.2653   19.3522 C   0  0  0  0  0  0  0  0  0  1  0  0
  -21.6493  -29.1796   23.1298 C   0  0  1  0  0  0  0  0  0  0  0  0
  -17.9104  -28.5974   22.9046 C   0  0  2  0  0  0  0  0  0  0  0  0
  -22.3657  -29.2213   24.5091 C   0  0  0  0  0  0  0  0  0  0  0  0
  -26.7122  -10.3954   19.8544 N   0  0  0  0  0  0  0  0  0  0  0  0
  -27.3714  -10.6611   18.7138 N   0  0  0  0  0  0  0  0  0  0  0  0
  -29.5104  -20.6327   19.6786 N   0  0  0  0  0  0  0  0  0  0  0  0
  -23.4507  -30.3626   21.9064 N   0  0  0  0  0  0  0  0  0  0  0  0
  -30.2569  -12.7847   20.0360 N   0  0  0  0  0  0  0  0  0  0  0  0
  -27.1958  -10.5272   16.3555 N   0  0  0  0  0  0  0  0  0  0  0  0
  -23.2708   -8.8158   17.7916 N   0  0  0  0  0  0  0  0  0  0  0  0
  -29.4754  -15.0057   19.8986 N   0  0  0  0  0  0  0  0  0  0  0  0
  -23.7178  -33.8099   21.0667 N   0  0  0  0  0  0  0  0  0  0  0  0
  -20.1950  -29.2637   23.2091 N   0  0  0  0  0  0  0  0  0  0  0  0
  -17.0986  -28.0812   21.7664 N   0  3  0  0  0  0  0  0  0  0  0  0
  -24.5181   -9.3078   15.9312 O   0  0  0  0  0  0  0  0  0  0  0  0
  -27.8513  -23.4097   20.8845 O   0  0  0  0  0  0  0  0  0  0  0  0
  -24.2914  -32.5952   22.9688 O   0  0  0  0  0  0  0  0  0  0  0  0
  -21.2475  -31.1015   21.8031 O   0  0  0  0  0  0  0  0  0  0  0  0
  -19.7650  -27.2585   22.1266 O   0  0  0  0  0  0  0  0  0  0  0  0
  -31.7467  -14.5524   20.0317 O   0  0  0  0  0  0  0  0  0  0  0  0
  -21.6768   -8.2311   23.0967 O   0  0  0  0  0  0  0  0  0  0  0  0
  -26.5625  -25.6235   20.0523 O   0  0  0  0  0  0  0  0  0  1  0  0
  -21.0593   -2.8146   23.9236 F   0  0  0  0  0  0  0  0  0  0  0  0
  -27.1290  -19.1799   19.5867 F   0  0  0  0  0  0  0  0  0  0  0  0
  -22.0520   -7.1272   25.6033 F   0  0  0  0  0  0  0  0  0  0  0  0
  1  2  1  0  0  0  0
  1  5  2  0  0  0  0
  2  6  2  0  0  0  0
  3 10  2  0  0  0  0
  3 18  1  0  0  0  0
  4 11  1  0  0  0  0
  4 18  2  0  0  0  0
  5 20  1  0  0  0  0
  6 22  1  0  0  0  0
  7 12  2  0  0  0  0
  7 21  1  0  0  0  0
  8  9  2  0  0  0  0
  8 24  1  0  0  0  0
  9 25  1  0  0  0  0
 10 26  1  0  0  0  0
 11 26  2  0  0  0  0
 12 27  1  0  0  0  0
 13 14  2  0  0  0  0
 13 28  1  0  0  0  0
 14 29  1  0  0  0  0
 15 23  1  0  0  0  0
 15 27  2  0  0  0  0
 16 25  2  0  0  0  0
 16 30  1  0  0  0  0
 17 29  2  0  0  0  0
 17 31  1  0  0  0  0
 18 32  1  0  0  0  0
 19 32  1  0  0  0  0
 19 33  2  0  0  0  0
 19 36  1  0  0  0  0
 20 22  2  0  0  0  0
 20 42  1  0  0  0  0
 21 23  2  0  0  0  0
 21 43  1  0  0  0  0
 22 54  1  0  0  0  0
 23 44  1  0  0  0  0
 24 30  2  0  0  0  0
 24 69  1  0  0  0  0
 25 74  1  0  0  0  0
 26 84  1  0  0  0  0
 27 85  1  0  0  0  0
 28 31  2  0  0  0  0
 28 84  1  0  0  0  0
 29 86  1  0  0  0  0
 30 87  1  0  0  0  0
 31 88  1  0  0  0  0
 32 67  2  0  0  0  0
 33 68  1  0  0  0  0
 33 72  1  0  0  0  0
 34 35  2  0  0  0  0
 34 45  1  0  0  0  0
 34 69  1  0  0  0  0
 36 73  1  0  0  0  0
 36 78  2  0  0  0  0
 37 55  1  0  0  0  0
 37 63  1  0  0  0  0
 37 79  2  0  0  0  0
 38 56  1  0  0  0  0
 38 75  1  0  0  0  0
 38 80  2  0  0  0  0
 39 64  1  0  0  0  0
 39 70  1  0  0  0  0
 39 81  2  0  0  0  0
 40 65  1  0  0  0  0
 40 76  1  0  0  0  0
 40 82  2  0  0  0  0
 41 71  1  0  0  0  0
 41 74  1  0  0  0  0
 41 83  2  0  0  0  0
 42 46  1  0  0  0  0
 43 56  1  0  0  0  0
 44 70  1  0  0  0  0
 45 55  1  0  0  0  0
 46 48  1  0  0  0  0
 47 49  1  0  0  0  0
 47 51  1  0  0  0  0
 48 54  1  0  0  0  0
 49 57  1  0  0  0  0
 50 52  1  0  0  0  0
 50 55  1  0  0  0  0
 51 71  1  0  0  0  0
 52 69  1  0  0  0  0
 53 57  1  0  0  0  0
 53 71  1  0  0  0  0
 54 75  1  0  0  0  0
 56 70  1  0  0  0  0
 57 68  1  0  0  0  0
 58 65  1  0  0  0  0
 59 66  1  0  0  0  0
 60 66  1  0  0  0  0
 61 66  1  0  0  0  0
 62 77  1  0  0  0  0
 63 85  1  0  0  0  0
 64 66  1  0  0  0  0
 64 76  1  0  0  0  0
 65 77  1  0  0  0  0
 67 68  1  0  0  0  0
M  CHG  1  77   1
M  ISO  4  41 100  63 101  74 100  85 101
M  END
> <Batch ID>
0073

> <Smiles>
C=C1CC(C(=O)[101CH2:1][101O:1]c2ccc3c(c2)CN(C(=O)C(NC(=O)C(C)NC)C(C)(C)C)C(C(=O)NC2CCCc4ccccc42)C3)CCN1c1ccc([100NH:0][100C:0](=O)N2CCCC(n3nc(-c4ccc(Oc5ccc(F)cc5F)cc4)c(C(N)=O)c3N)C2)cc1F

> <Shape>
0.307

> <Color>
0.100

> <Negative vol penalty>
0.000

$$$$

  -OEChem-04042323413D

 86 95  0     1  0  0  0  0  0999 V2000
  -19.9906  -11.6663   19.7694 C   0  0  0  0  0  0  0  0  0  0  0  0
  -20.3529  -12.8189   19.0797 C   0  0  0  0  0  0  0  0  0  0  0  0
  -23.9035  -27.9800   23.1120 C   0  0  0  0  0  0  0  0  0  0  0  0
  -22.8660  -29.3109   21.3830 C   0  0  0  0  0  0  0  0  0  0  0  0
  -20.7000  -11.2842   20.9072 C   0  0  0  0  0  0  0  0  0  0  0  0
  -21.4241  -13.5907   19.5281 C   0  0  0  0  0  0  0  0  0  0  0  0
  -26.7030  -17.7707   17.0832 C   0  0  0  0  0  0  0  0  0  0  0  0
  -22.8409  -28.2654   23.9693 C   0  0  0  0  0  0  0  0  0  0  0  0
  -21.8034  -29.5963   22.2404 C   0  0  0  0  0  0  0  0  0  0  0  0
  -27.2439  -19.0422   17.2690 C   0  0  0  0  0  0  0  0  0  0  0  0
  -19.0112  -28.0462   23.3455 C   0  0  0  0  0  0  0  0  0  0  0  0
  -17.7194  -27.9519   22.8278 C   0  0  0  0  0  0  0  0  0  0  0  0
  -28.4464  -18.2418   19.2010 C   0  0  0  0  0  0  0  0  0  0  0  0
  -29.7050  -25.9035   22.1968 C   0  0  0  0  0  0  0  0  0  0  0  0
  -30.7735  -26.1823   20.0479 C   0  0  0  0  0  0  0  0  0  0  0  0
  -17.3468  -30.2850   23.3327 C   0  0  0  0  0  0  0  0  0  0  0  0
  -23.9161  -28.5028   21.8188 C   0  0  0  0  0  0  0  0  0  0  0  0
  -25.1174  -27.1272   20.0378 C   0  0  0  0  0  0  0  0  0  0  0  0
  -21.7865  -12.0465   21.3643 C   0  0  0  0  0  0  0  0  0  0  0  0
  -27.0218  -16.7261   17.9628 C   0  0  0  0  0  0  0  0  0  0  0  0
  -22.1479  -13.2192   20.6740 C   0  0  0  0  0  0  0  0  0  0  0  0
  -27.9103  -16.9574   19.0227 C   0  0  0  0  0  0  0  0  0  0  0  0
  -30.2056  -27.1394   22.6061 C   0  0  0  0  0  0  0  0  0  0  0  0
  -29.9890  -25.4249   20.9177 C   0  0  0  0  0  0  0  0  0  0  0  0
  -30.9901  -27.8968   21.7363 C   0  0  0  0  0  0  0  0  0  0  0  0
  -21.7909  -29.0735   23.5336 C   0  0  0  0  0  0  0  0  0  0  0  0
  -28.1134  -19.2787   18.3297 C   0  0  0  0  0  0  0  0  0  0  0  0
  -19.4707  -29.2599   23.8569 C   0  0  0  0  0  0  0  0  0  0  0  0
  -16.8872  -29.0713   22.8214 C   0  0  0  0  0  0  0  0  0  0  0  0
  -31.2741  -27.4183   20.4572 C   0  0  0  0  0  0  0  0  0  0  0  0
  -18.6385  -30.3792   23.8505 C   0  0  0  0  0  0  0  0  0  0  0  0
  -25.0137  -28.2088   20.9329 C   0  0  0  0  0  0  0  0  0  0  0  0
  -26.3394  -27.2971   19.4341 C   0  0  0  0  0  0  0  0  0  0  0  0
  -28.8513  -22.3881   19.9817 C   0  0  0  0  0  0  0  0  0  0  0  0
  -28.7258  -23.2782   21.1365 C   0  0  0  0  0  0  0  0  0  0  0  0
  -28.3816  -21.1613   19.6915 C   0  0  0  0  0  0  0  0  0  1  0  0
  -24.1919  -26.0641   19.7753 C   0  0  0  0  0  0  0  0  0  0  0  0
  -25.3647  -14.8913   19.9606 C   0  0  0  0  0  0  0  0  0  0  0  0
  -28.2062  -13.3631   20.2963 C   0  0  0  0  0  0  0  0  0  0  0  0
  -31.6096  -13.4945   20.0816 C   0  0  0  0  0  0  0  0  0  0  0  0
  -31.2162  -30.3814   21.4780 C   0  0  0  0  0  0  0  0  0  0  0  0
  -22.4933  -11.6193   22.6263 C   0  0  0  0  0  0  0  0  0  0  0  0
  -26.4510  -15.3536   17.7330 C   0  0  0  0  0  0  0  0  0  0  0  0
  -28.3004  -15.8648   19.9832 C   0  0  0  0  0  0  0  0  0  0  0  0
  -29.7099  -23.4319   19.3050 C   0  0  0  0  0  0  0  0  0  0  0  0
  -23.8514  -12.2887   22.8203 C   0  0  0  0  0  0  0  0  0  0  0  0
  -29.5022  -30.6659   18.2109 C   0  0  0  0  0  0  0  0  0  0  0  0
  -23.7495  -13.7882   22.5599 C   0  0  0  0  0  0  0  0  0  0  0  0
  -28.1329  -30.0497   18.4914 C   0  0  0  0  0  0  0  0  0  0  0  0
  -30.1082  -31.2931   19.4628 C   0  0  0  0  0  0  0  0  0  0  0  0
  -28.8283  -29.7308   20.8989 C   0  0  0  0  0  0  0  0  0  0  0  0
  -23.3196  -14.0693   21.1150 C   0  0  1  0  0  0  0  0  0  0  0  0
  -26.4416  -14.4919   18.9919 C   0  0  1  0  0  0  0  0  0  0  0  0
  -28.2145  -29.0568   19.6626 C   0  0  1  0  0  0  0  0  0  0  0  0
  -29.8863  -27.6265   23.9825 C   0  0  0  0  0  0  0  0  0  0  0  0
  -33.6624  -12.1006   20.4565 C   0  0  0  0  0  0  0  0  0  0  0  0
  -27.9171  -13.7520   23.3088 C   0  0  0  0  0  0  0  0  0  0  0  0
  -30.3536  -13.2246   23.5404 C   0  0  0  0  0  0  0  0  0  0  0  0
  -28.7897  -11.5101   22.6253 C   0  0  0  0  0  0  0  0  0  0  0  0
  -32.6013  -29.1921   23.1208 C   0  0  0  0  0  0  0  0  0  0  0  0
  -32.4062  -13.6946   17.2383 C   0  0  0  0  0  0  0  0  0  0  0  0
  -29.3996  -13.5133   21.2085 C   0  0  1  0  0  0  0  0  0  0  0  0
  -32.6162  -12.5507   19.4487 C   0  0  2  0  0  0  0  0  0  0  0  0
  -29.1063  -13.0213   22.6540 C   0  0  0  0  0  0  0  0  0  0  0  0
  -26.0845  -29.0067   20.9039 N   0  0  0  0  0  0  0  0  0  0  0  0
  -26.8727  -28.4260   19.9832 N   0  0  0  0  0  0  0  0  0  0  0  0
  -29.4958  -24.2055   20.5152 N   0  0  0  0  0  0  0  0  0  0  0  0
  -27.7110  -14.5416   19.7203 N   0  0  0  0  0  0  0  0  0  0  0  0
  -30.1242  -30.3551   20.5865 N   0  0  0  0  0  0  0  0  0  0  0  0
  -26.9990  -26.5895   18.4925 N   0  0  0  0  0  0  0  0  0  0  0  0
  -22.9829  -26.0407   20.4839 N   0  0  0  0  0  0  0  0  0  0  0  0
  -24.4379  -13.8978   20.2125 N   0  0  0  0  0  0  0  0  0  0  0  0
  -30.5037  -12.8199   20.5538 N   0  0  0  0  0  0  0  0  0  0  0  0
  -31.5153  -29.1772   22.1433 N   0  0  0  0  0  0  0  0  0  0  0  0
  -33.3135  -13.2213   18.3152 N   0  3  0  0  0  0  0  0  0  0  0  0
  -28.1739  -23.2145   22.2153 O   0  0  0  0  0  0  0  0  0  0  0  0
  -24.4372  -25.1525   18.9492 O   0  0  0  0  0  0  0  0  0  0  0  0
  -25.3747  -16.0170   20.4448 O   0  0  0  0  0  0  0  0  0  0  0  0
  -27.7353  -12.2406   20.0964 O   0  0  0  0  0  0  0  0  0  0  0  0
  -31.7884  -14.7083   20.1535 O   0  0  0  0  0  0  0  0  0  0  0  0
  -31.8477  -31.4200   21.7088 O   0  0  0  0  0  0  0  0  0  0  0  0
  -20.7537  -29.3520   24.3698 O   0  0  0  0  0  0  0  0  0  0  0  0
  -28.6422  -20.5190   18.5137 O   0  0  0  0  0  0  0  0  0  1  0  0
  -15.6473  -28.9810   22.3228 F   0  0  0  0  0  0  0  0  0  0  0  0
  -32.0271  -28.1371   19.6124 F   0  0  0  0  0  0  0  0  0  0  0  0
  -19.0749  -31.5482   24.3394 F   0  0  0  0  0  0  0  0  0  0  0  0
  1  2  1  0  0  0  0
  1  5  2  0  0  0  0
  2  6  2  0  0  0  0
  3  8  2  0  0  0  0
  3 17  1  0  0  0  0
  4  9  1  0  0  0  0
  4 17  2  0  0  0  0
  5 19  1  0  0  0  0
  6 21  1  0  0  0  0
  7 10  2  0  0  0  0
  7 20  1  0  0  0  0
  8 26  1  0  0  0  0
  9 26  2  0  0  0  0
 10 27  1  0  0  0  0
 11 12  2  0  0  0  0
 11 28  1  0  0  0  0
 12 29  1  0  0  0  0
 13 22  1  0  0  0  0
 13 27  2  0  0  0  0
 14 23  2  0  0  0  0
 14 24  1  0  0  0  0
 15 24  2  0  0  0  0
 15 30  1  0  0  0  0
 16 29  2  0  0  0  0
 16 31  1  0  0  0  0
 17 32  1  0  0  0  0
 18 32  1  0  0  0  0
 18 33  2  0  0  0  0
 18 37  1  0  0  0  0
 19 21  2  0  0  0  0
 19 42  1  0  0  0  0
 20 22  2  0  0  0  0
 20 43  1  0  0  0  0
 21 52  1  0  0  0  0
 22 44  1  0  0  0  0
 23 25  1  0  0  0  0
 23 55  1  0  0  0  0
 24 67  1  0  0  0  0
 25 30  2  0  0  0  0
 25 74  1  0  0  0  0
 26 82  1  0  0  0  0
 27 83  1  0  0  0  0
 28 31  2  0  0  0  0
 28 82  1  0  0  0  0
 29 84  1  0  0  0  0
 30 85  1  0  0  0  0
 31 86  1  0  0  0  0
 32 65  2  0  0  0  0
 33 66  1  0  0  0  0
 33 70  1  0  0  0  0
 34 35  1  0  0  0  0
 34 36  2  0  0  0  0
 34 45  1  0  0  0  0
 35 67  1  0  0  0  0
 35 76  2  0  0  0  0
 36 83  1  0  0  0  0
 37 71  1  0  0  0  0
 37 77  2  0  0  0  0
 38 53  1  0  0  0  0
 38 72  1  0  0  0  0
 38 78  2  0  0  0  0
 39 62  1  0  0  0  0
 39 68  1  0  0  0  0
 39 79  2  0  0  0  0
 40 63  1  0  0  0  0
 40 73  1  0  0  0  0
 40 80  2  0  0  0  0
 41 69  1  0  0  0  0
 41 74  1  0  0  0  0
 41 81  2  0  0  0  0
 42 46  1  0  0  0  0
 43 53  1  0  0  0  0
 44 68  1  0  0  0  0
 45 67  1  0  0  0  0
 46 48  1  0  0  0  0
 47 49  1  0  0  0  0
 47 50  1  0  0  0  0
 48 52  1  0  0  0  0
 49 54  1  0  0  0  0
 50 69  1  0  0  0  0
 51 54  1  0  0  0  0
 51 69  1  0  0  0  0
 52 72  1  0  0  0  0
 53 68  1  0  0  0  0
 54 66  1  0  0  0  0
 56 63  1  0  0  0  0
 57 64  1  0  0  0  0
 58 64  1  0  0  0  0
 59 64  1  0  0  0  0
 60 74  1  0  0  0  0
 61 75  1  0  0  0  0
 62 64  1  0  0  0  0
 62 73  1  0  0  0  0
 63 75  1  0  0  0  0
 65 66  1  0  0  0  0
M  CHG  1  75   1
M  ISO  4  36 101  41 100  74 100  83 101
M  END
> <Batch ID>
0073

> <Smiles>
CNC(C)C(=O)NC(C(=O)N1Cc2cc([101O:1][101CH:1]=C3CN(c4cc(C)c([100N:0](C)[100C:0](=O)N5CCCC(n6nc(-c7ccc(Oc8ccc(F)cc8F)cc7)c(C(N)=O)c6N)C5)c(F)c4)C3=O)ccc2CC1C(=O)NC1CCCc2ccccc21)C(C)(C)C

> <Shape>
0.276

> <Color>
0.066

> <Negative vol penalty>
0.000

$$$$

  -OEChem-04042323413D

 87 96  0     1  0  0  0  0  0999 V2000
  -29.3878  -36.2189   18.6540 C   0  0  0  0  0  0  0  0  0  0  0  0
  -29.5343  -34.8367   18.7113 C   0  0  0  0  0  0  0  0  0  0  0  0
  -22.7267  -10.2096   20.4203 C   0  0  0  0  0  0  0  0  0  0  0  0
  -24.5453   -8.9773   21.4258 C   0  0  0  0  0  0  0  0  0  0  0  0
  -28.5629  -36.8699   19.5704 C   0  0  0  0  0  0  0  0  0  0  0  0
  -28.8568  -34.1046   19.6858 C   0  0  0  0  0  0  0  0  0  0  0  0
  -26.5351  -28.4675   19.1049 C   0  0  0  0  0  0  0  0  0  0  0  0
  -21.8350   -9.6300   21.3227 C   0  0  0  0  0  0  0  0  0  0  0  0
  -23.6536   -8.3977   22.3283 C   0  0  0  0  0  0  0  0  0  0  0  0
  -27.0142  -27.2126   19.4784 C   0  0  0  0  0  0  0  0  0  0  0  0
  -21.3721   -5.9025   22.3221 C   0  0  0  0  0  0  0  0  0  0  0  0
  -21.4769   -4.5297   22.5456 C   0  0  0  0  0  0  0  0  0  0  0  0
  -25.7291  -27.3351   21.5162 C   0  0  0  0  0  0  0  0  0  0  0  0
  -29.1027  -18.6946   21.1267 C   0  0  0  0  0  0  0  0  0  0  0  0
  -21.9045   -4.9436   24.8872 C   0  0  0  0  0  0  0  0  0  0  0  0
  -24.0819   -9.8832   20.4718 C   0  0  0  0  0  0  0  0  0  0  0  0
  -24.9723  -10.3880   18.1351 C   0  0  0  0  0  0  0  0  0  0  0  0
  -27.8674  -36.1444   20.5505 C   0  0  0  0  0  0  0  0  0  0  0  0
  -25.6564  -29.1715   19.9407 C   0  0  0  0  0  0  0  0  0  0  0  0
  -28.0229  -34.7466   20.6170 C   0  0  0  0  0  0  0  0  0  0  0  0
  -25.2382  -28.5976   21.1498 C   0  0  0  0  0  0  0  0  0  0  0  0
  -30.1631  -17.8012   20.7990 C   0  0  0  0  0  0  0  0  0  0  0  0
  -22.2984   -8.7241   22.2768 C   0  0  0  0  0  0  0  0  0  0  0  0
  -26.6135  -26.6475   20.6855 C   0  0  0  0  0  0  0  0  0  0  0  0
  -21.5336   -6.7959   23.3811 C   0  0  0  0  0  0  0  0  0  0  0  0
  -21.7430   -4.0503   23.8282 C   0  0  0  0  0  0  0  0  0  0  0  0
  -21.7997   -6.3165   24.6636 C   0  0  0  0  0  0  0  0  0  0  0  0
  -25.0035  -10.4811   19.5394 C   0  0  0  0  0  0  0  0  0  0  0  0
  -26.0541  -11.1244   17.7181 C   0  0  0  0  0  0  0  0  0  0  0  0
  -29.5565  -19.9754   21.3532 C   0  0  0  0  0  0  0  0  0  0  0  0
  -31.3872  -18.4333   20.7873 C   0  0  0  0  0  0  0  0  0  0  0  0
  -29.4663  -22.1847   22.4756 C   0  0  0  0  0  0  0  0  0  0  0  0
  -24.0481   -9.6977   17.2837 C   0  0  0  0  0  0  0  0  0  0  0  0
  -25.7677  -31.9500   21.4806 C   0  0  0  0  0  0  0  0  0  0  0  0
  -22.6763  -31.2485   22.1685 C   0  0  0  0  0  0  0  0  0  0  0  0
  -20.2592  -28.8681   22.5406 C   0  0  0  0  0  0  0  0  0  0  0  0
  -28.8108  -15.6881   20.4983 C   0  0  0  0  0  0  0  0  0  0  0  0
  -27.0242  -36.8971   21.5491 C   0  0  0  0  0  0  0  0  0  0  0  0
  -25.1276  -30.5125   19.5110 C   0  0  0  0  0  0  0  0  0  0  0  0
  -24.2806  -29.3036   22.0734 C   0  0  0  0  0  0  0  0  0  0  0  0
  -26.0479  -36.0080   22.3149 C   0  0  0  0  0  0  0  0  0  0  0  0
  -30.2420  -12.1782   19.9012 C   0  0  0  0  0  0  0  0  0  0  0  0
  -26.7508  -34.7496   22.8141 C   0  0  0  0  0  0  0  0  0  0  0  0
  -29.1751  -11.6264   18.9585 C   0  0  0  0  0  0  0  0  0  0  0  0
  -26.7907  -22.6065   21.3735 C   0  0  0  0  0  0  0  0  0  0  0  0
  -30.2888  -13.7009   19.8923 C   0  0  0  0  0  0  0  0  0  0  0  0
  -27.3983  -21.2162   21.4453 C   0  0  0  0  0  0  0  0  0  0  0  0
  -27.8139  -13.4376   20.1405 C   0  0  0  0  0  0  0  0  0  0  0  0
  -27.2852  -33.9151   21.6438 C   0  0  1  0  0  0  0  0  0  0  0  0
  -28.7992  -23.5717   22.4463 C   0  0  1  0  0  0  0  0  0  0  0  0
  -24.6400  -31.3646   20.6786 C   0  0  1  0  0  0  0  0  0  0  0  0
  -27.8832  -12.4673   18.9509 C   0  0  2  0  0  0  0  0  0  0  0  0
  -27.2550  -23.5110   22.5249 C   0  0  2  0  0  0  0  0  0  0  0  0
  -29.4402  -24.4870   23.4992 C   0  0  0  0  0  0  0  0  0  0  0  0
  -26.7587  -22.9761   23.8823 C   0  0  0  0  0  0  0  0  0  0  0  0
  -17.8388  -28.5960   23.1447 C   0  0  0  0  0  0  0  0  0  0  0  0
  -23.3656  -31.6719   25.1105 C   0  0  0  0  0  0  0  0  0  0  0  0
  -21.2414  -30.4883   25.7066 C   0  0  0  0  0  0  0  0  0  0  0  0
  -21.1591  -32.6175   24.4095 C   0  0  0  0  0  0  0  0  0  0  0  0
  -19.6097  -27.7080   19.8965 C   0  0  0  0  0  0  0  0  0  0  0  0
  -26.6283  -24.9040   22.3029 C   0  0  0  0  0  0  0  0  0  1  0  0
  -21.9695  -30.5071   23.2775 C   0  0  1  0  0  0  0  0  0  0  0  0
  -18.8379  -28.7849   22.0139 C   0  0  2  0  0  0  0  0  0  0  0  0
  -21.9535  -31.3085   24.6097 C   0  0  0  0  0  0  0  0  0  0  0  0
  -26.0244  -11.2184   19.9848 N   0  0  0  0  0  0  0  0  0  0  0  0
  -26.6447  -11.5952   18.8537 N   0  0  0  0  0  0  0  0  0  0  0  0
  -28.8431  -21.1844   21.7072 N   0  0  0  0  0  0  0  0  0  0  0  0
  -23.7965  -30.6151   21.6118 N   0  0  0  0  0  0  0  0  0  0  0  0
  -28.9857  -14.3203   20.1746 N   0  0  0  0  0  0  0  0  0  0  0  0
  -26.5483  -11.4086   16.4944 N   0  0  0  0  0  0  0  0  0  0  0  0
  -24.3234   -8.3676   16.9381 N   0  0  0  0  0  0  0  0  0  0  0  0
  -29.9996  -16.4223   20.5145 N   0  0  0  0  0  0  0  0  0  0  0  0
  -26.2102  -33.1748   21.0186 N   0  0  0  0  0  0  0  0  0  0  0  0
  -20.6450  -30.1727   22.7654 N   0  0  0  0  0  0  0  0  0  0  0  0
  -18.7015  -27.6396   21.0701 N   0  3  0  0  0  0  0  0  0  0  0  0
  -30.5199  -22.0254   23.0986 O   0  0  0  0  0  0  0  0  0  0  0  0
  -23.0172  -10.2493   16.8292 O   0  0  0  0  0  0  0  0  0  0  0  0
  -26.2031  -31.3366   22.4480 O   0  0  0  0  0  0  0  0  0  0  0  0
  -22.2460  -32.3458   21.8046 O   0  0  0  0  0  0  0  0  0  0  0  0
  -20.9561  -27.8750   22.7367 O   0  0  0  0  0  0  0  0  0  0  0  0
  -27.6960  -16.1621   20.7273 O   0  0  0  0  0  0  0  0  0  0  0  0
  -21.4285   -8.1586   23.1577 O   0  0  0  0  0  0  0  0  0  0  0  0
  -27.0802  -25.4231   21.0528 O   0  0  0  0  0  0  0  0  0  1  0  0
  -21.8421   -2.7318   24.0430 F   0  0  0  0  0  0  0  0  0  0  0  0
  -21.9547   -7.1699   25.6852 F   0  0  0  0  0  0  0  0  0  0  0  0
  -32.5464  -17.8260   20.5095 F   0  0  0  0  0  0  0  0  0  0  0  0
  -31.2548  -20.0969   21.1706 S   0  0  0  0  0  0  0  0  0  0  0  0
  1  2  1  0  0  0  0
  1  5  2  0  0  0  0
  2  6  2  0  0  0  0
  3  8  2  0  0  0  0
  3 16  1  0  0  0  0
  4  9  1  0  0  0  0
  4 16  2  0  0  0  0
  5 18  1  0  0  0  0
  6 20  1  0  0  0  0
  7 10  2  0  0  0  0
  7 19  1  0  0  0  0
  8 23  1  0  0  0  0
  9 23  2  0  0  0  0
 10 24  1  0  0  0  0
 11 12  2  0  0  0  0
 11 25  1  0  0  0  0
 12 26  1  0  0  0  0
 13 21  1  0  0  0  0
 13 24  2  0  0  0  0
 14 22  1  0  0  0  0
 14 30  2  0  0  0  0
 15 26  2  0  0  0  0
 15 27  1  0  0  0  0
 16 28  1  0  0  0  0
 17 28  1  0  0  0  0
 17 29  2  0  0  0  0
 17 33  1  0  0  0  0
 18 20  2  0  0  0  0
 18 38  1  0  0  0  0
 19 21  2  0  0  0  0
 19 39  1  0  0  0  0
 20 49  1  0  0  0  0
 21 40  1  0  0  0  0
 22 31  2  0  0  0  0
 22 72  1  0  0  0  0
 23 82  1  0  0  0  0
 24 83  1  0  0  0  0
 25 27  2  0  0  0  0
 25 82  1  0  0  0  0
 26 84  1  0  0  0  0
 27 85  1  0  0  0  0
 28 65  2  0  0  0  0
 29 66  1  0  0  0  0
 29 70  1  0  0  0  0
 30 67  1  0  0  0  0
 30 87  1  0  0  0  0
 31 86  1  0  0  0  0
 31 87  1  0  0  0  0
 32 50  1  0  0  0  0
 32 67  1  0  0  0  0
 32 76  2  0  0  0  0
 33 71  1  0  0  0  0
 33 77  2  0  0  0  0
 34 51  1  0  0  0  0
 34 73  1  0  0  0  0
 34 78  2  0  0  0  0
 35 62  1  0  0  0  0
 35 68  1  0  0  0  0
 35 79  2  0  0  0  0
 36 63  1  0  0  0  0
 36 74  1  0  0  0  0
 36 80  2  0  0  0  0
 37 69  1  0  0  0  0
 37 72  1  0  0  0  0
 37 81  2  0  0  0  0
 38 41  1  0  0  0  0
 39 51  1  0  0  0  0
 40 68  1  0  0  0  0
 41 43  1  0  0  0  0
 42 44  1  0  0  0  0
 42 46  1  0  0  0  0
 43 49  1  0  0  0  0
 44 52  1  0  0  0  0
 45 47  1  0  0  0  0
 45 53  1  0  0  0  0
 46 69  1  0  0  0  0
 47 67  1  0  0  0  0
 48 52  1  0  0  0  0
 48 69  1  0  0  0  0
 49 73  1  0  0  0  0
 50 53  1  0  0  0  0
 50 54  1  0  0  0  0
 51 68  1  0  0  0  0
 52 66  1  0  0  0  0
 53 55  1  0  0  0  0
 53 61  1  0  0  0  0
 56 63  1  0  0  0  0
 57 64  1  0  0  0  0
 58 64  1  0  0  0  0
 59 64  1  0  0  0  0
 60 75  1  0  0  0  0
 61 83  1  0  0  0  0
 62 64  1  0  0  0  0
 62 74  1  0  0  0  0
 63 75  1  0  0  0  0
 65 66  1  0  0  0  0
M  CHG  1  75   1
M  ISO  4  37 100  61 101  72 100  83 101
M  END
> <Batch ID>
0073

> <Smiles>
CNC(C)C(=O)NC(C(=O)N1Cc2cc([101O:1][101CH2:1]C3(C)CCN(c4cc([100NH:0][100C:0](=O)N5CCCC(n6nc(-c7ccc(Oc8ccc(F)cc8F)cc7)c(C(N)=O)c6N)C5)c(F)s4)C(=O)C3C)ccc2CC1C(=O)NC1CCCc2ccccc21)C(C)(C)C

> <Shape>
0.288

> <Color>
0.109

> <Negative vol penalty>
0.000

$$$$

  -OEChem-04042323413D

 87 96  0     1  0  0  0  0  0999 V2000
  -29.6599  -24.3824   18.5032 C   0  0  0  0  0  0  0  0  0  0  0  0
  -28.3020  -24.6712   18.4121 C   0  0  0  0  0  0  0  0  0  0  0  0
  -23.8356  -13.0365   21.9172 C   0  0  0  0  0  0  0  0  0  0  0  0
  -25.1573  -14.8827   21.0916 C   0  0  0  0  0  0  0  0  0  0  0  0
  -30.3847  -24.7906   19.6221 C   0  0  0  0  0  0  0  0  0  0  0  0
  -27.6679  -25.3675   19.4405 C   0  0  0  0  0  0  0  0  0  0  0  0
  -23.1019  -29.4101   18.8799 C   0  0  0  0  0  0  0  0  0  0  0  0
  -24.5969  -12.1505   21.1550 C   0  0  0  0  0  0  0  0  0  0  0  0
  -25.9187  -13.9967   20.3294 C   0  0  0  0  0  0  0  0  0  0  0  0
  -21.7217  -29.2941   19.0389 C   0  0  0  0  0  0  0  0  0  0  0  0
  -28.4418  -12.1805   18.4444 C   0  0  0  0  0  0  0  0  0  0  0  0
  -29.8277  -12.3378   18.4578 C   0  0  0  0  0  0  0  0  0  0  0  0
  -21.9202  -30.1065   21.3016 C   0  0  0  0  0  0  0  0  0  0  0  0
  -19.7003  -23.6823   23.5277 C   0  0  0  0  0  0  0  0  0  0  0  0
  -21.4295  -22.9605   25.0527 C   0  0  0  0  0  0  0  0  0  0  0  0
  -29.8452  -11.9801   20.8472 C   0  0  0  0  0  0  0  0  0  0  0  0
  -24.1157  -14.4026   21.8855 C   0  0  0  0  0  0  0  0  0  0  0  0
  -23.5770  -15.7326   23.9947 C   0  0  0  0  0  0  0  0  0  0  0  0
  -29.7613  -25.5006   20.6602 C   0  0  0  0  0  0  0  0  0  0  0  0
  -23.9043  -29.8655   19.9359 C   0  0  0  0  0  0  0  0  0  0  0  0
  -28.3848  -25.7844   20.5749 C   0  0  0  0  0  0  0  0  0  0  0  0
  -23.3100  -30.2297   21.1526 C   0  0  0  0  0  0  0  0  0  0  0  0
  -20.9578  -25.3152   24.7883 C   0  0  0  0  0  0  0  0  0  0  0  0
  -19.9622  -25.0115   23.8598 C   0  0  0  0  0  0  0  0  0  0  0  0
  -20.4339  -22.6568   24.1242 C   0  0  0  0  0  0  0  0  0  0  0  0
  -21.6915  -24.2897   25.3848 C   0  0  0  0  0  0  0  0  0  0  0  0
  -25.6385  -12.6306   20.3611 C   0  0  0  0  0  0  0  0  0  0  0  0
  -21.1309  -29.6396   20.2508 C   0  0  0  0  0  0  0  0  0  0  0  0
  -27.7576  -11.9231   19.6324 C   0  0  0  0  0  0  0  0  0  0  0  0
  -30.5294  -12.2376   19.6592 C   0  0  0  0  0  0  0  0  0  0  0  0
  -28.4593  -11.8228   20.8337 C   0  0  0  0  0  0  0  0  0  0  0  0
  -23.3292  -15.3183   22.6723 C   0  0  0  0  0  0  0  0  0  0  0  0
  -22.5495  -16.5976   24.2817 C   0  0  0  0  0  0  0  0  0  0  0  0
  -17.8098  -27.8245   22.9336 C   0  0  0  0  0  0  0  0  0  0  0  0
  -18.2477  -27.4225   21.7384 C   0  0  0  0  0  0  0  0  0  0  0  0
  -18.4186  -26.9368   23.9442 C   0  0  0  0  0  0  0  0  0  0  0  0
  -24.6409  -15.3681   24.8841 C   0  0  0  0  0  0  0  0  0  0  0  0
  -26.2766  -28.6228   21.6480 C   0  0  0  0  0  0  0  0  0  0  0  0
  -26.4190  -31.6120   22.8996 C   0  0  0  0  0  0  0  0  0  0  0  0
  -24.8224  -34.5546   23.5622 C   0  0  0  0  0  0  0  0  0  0  0  0
  -19.2141  -20.8324   22.8872 C   0  0  0  0  0  0  0  0  0  0  0  0
  -30.5758  -25.8797   21.8717 C   0  0  0  0  0  0  0  0  0  0  0  0
  -25.3885  -30.0103   19.7396 C   0  0  0  0  0  0  0  0  0  0  0  0
  -24.1247  -30.7433   22.3106 C   0  0  0  0  0  0  0  0  0  0  0  0
  -19.1693  -26.2552   21.8267 C   0  0  0  0  0  0  0  0  0  0  0  0
  -29.9107  -26.9402   22.7453 C   0  0  0  0  0  0  0  0  0  0  0  0
  -18.2758  -17.5891   21.7570 C   0  0  0  0  0  0  0  0  0  0  0  0
  -28.4435  -26.5950   22.9802 C   0  0  0  0  0  0  0  0  0  0  0  0
  -19.5272  -16.7433   22.0031 C   0  0  0  0  0  0  0  0  0  0  0  0
  -18.6283  -19.0060   21.3074 C   0  0  0  0  0  0  0  0  0  0  0  0
  -20.8175  -18.8741   22.4295 C   0  0  0  0  0  0  0  0  0  0  0  0
  -27.6668  -26.5593   21.6585 C   0  0  1  0  0  0  0  0  0  0  0  0
  -26.1687  -29.9972   21.0505 C   0  0  1  0  0  0  0  0  0  0  0  0
  -20.5142  -17.4584   22.9466 C   0  0  2  0  0  0  0  0  0  0  0  0
  -21.2392  -26.7421   25.1450 C   0  0  0  0  0  0  0  0  0  0  0  0
  -25.1864  -36.7964   24.6294 C   0  0  0  0  0  0  0  0  0  0  0  0
  -26.1940  -30.3317   25.6601 C   0  0  0  0  0  0  0  0  0  0  0  0
  -25.6108  -32.5855   26.5812 C   0  0  0  0  0  0  0  0  0  0  0  0
  -27.8345  -32.2137   25.5136 C   0  0  0  0  0  0  0  0  0  0  0  0
  -24.2963  -35.9788   21.0217 C   0  0  0  0  0  0  0  0  0  0  0  0
  -17.8974  -28.0237   20.4172 C   0  0  0  0  0  0  0  0  0  0  0  0
  -19.1249  -28.5083   19.6575 C   0  0  0  0  0  0  0  0  0  1  0  0
  -25.7653  -32.3156   24.0644 C   0  0  1  0  0  0  0  0  0  0  0  0
  -25.2354  -35.9978   23.3362 C   0  0  2  0  0  0  0  0  0  0  0  0
  -26.3358  -31.8501   25.4338 C   0  0  0  0  0  0  0  0  0  0  0  0
  -22.2304  -15.8743   22.1551 N   0  0  0  0  0  0  0  0  0  0  0  0
  -21.7785  -16.6467   23.1577 N   0  0  0  0  0  0  0  0  0  0  0  0
  -19.2190  -26.0176   23.2546 N   0  0  0  0  0  0  0  0  0  0  0  0
  -25.5726  -30.8611   22.0716 N   0  0  0  0  0  0  0  0  0  0  0  0
  -19.5633  -19.6223   22.2512 N   0  0  0  0  0  0  0  0  0  0  0  0
  -22.7016  -24.5758   26.3297 N   0  0  0  0  0  0  0  0  0  0  0  0
  -22.2392  -17.3133   25.3835 N   0  0  0  0  0  0  0  0  0  0  0  0
  -25.6133  -14.4673   24.4287 N   0  0  0  0  0  0  0  0  0  0  0  0
  -20.1675  -21.3064   23.7879 N   0  0  0  0  0  0  0  0  0  0  0  0
  -27.3715  -27.9030   21.2093 N   0  0  0  0  0  0  0  0  0  0  0  0
  -25.9104  -33.7451   23.8114 N   0  0  0  0  0  0  0  0  0  0  0  0
  -24.3285  -36.6474   22.3480 N   0  3  0  0  0  0  0  0  0  0  0  0
  -18.2214  -27.0367   25.1444 O   0  0  0  0  0  0  0  0  0  0  0  0
  -24.7175  -15.8149   26.0537 O   0  0  0  0  0  0  0  0  0  0  0  0
  -25.4300  -28.2440   22.4490 O   0  0  0  0  0  0  0  0  0  0  0  0
  -27.6346  -31.7304   22.7266 O   0  0  0  0  0  0  0  0  0  0  0  0
  -23.6514  -34.1833   23.5253 O   0  0  0  0  0  0  0  0  0  0  0  0
  -18.1361  -21.3919   22.6707 O   0  0  0  0  0  0  0  0  0  0  0  0
  -26.3818  -11.7664   19.6173 O   0  0  0  0  0  0  0  0  0  0  0  0
  -19.7840  -29.5268   20.4089 O   0  0  0  0  0  0  0  0  0  1  0  0
  -31.8604  -12.3871   19.6716 F   0  0  0  0  0  0  0  0  0  0  0  0
  -27.8076  -11.5745   21.9780 F   0  0  0  0  0  0  0  0  0  0  0  0
  1  2  1  0  0  0  0
  1  5  2  0  0  0  0
  2  6  2  0  0  0  0
  3  8  2  0  0  0  0
  3 17  1  0  0  0  0
  4  9  1  0  0  0  0
  4 17  2  0  0  0  0
  5 19  1  0  0  0  0
  6 21  1  0  0  0  0
  7 10  2  0  0  0  0
  7 20  1  0  0  0  0
  8 27  1  0  0  0  0
  9 27  2  0  0  0  0
 10 28  1  0  0  0  0
 11 12  2  0  0  0  0
 11 29  1  0  0  0  0
 12 30  1  0  0  0  0
 13 22  1  0  0  0  0
 13 28  2  0  0  0  0
 14 24  1  0  0  0  0
 14 25  2  0  0  0  0
 15 25  1  0  0  0  0
 15 26  2  0  0  0  0
 16 30  2  0  0  0  0
 16 31  1  0  0  0  0
 17 32  1  0  0  0  0
 18 32  1  0  0  0  0
 18 33  2  0  0  0  0
 18 37  1  0  0  0  0
 19 21  2  0  0  0  0
 19 42  1  0  0  0  0
 20 22  2  0  0  0  0
 20 43  1  0  0  0  0
 21 52  1  0  0  0  0
 22 44  1  0  0  0  0
 23 24  2  0  0  0  0
 23 26  1  0  0  0  0
 23 55  1  0  0  0  0
 24 68  1  0  0  0  0
 25 74  1  0  0  0  0
 26 71  1  0  0  0  0
 27 84  1  0  0  0  0
 28 85  1  0  0  0  0
 29 31  2  0  0  0  0
 29 84  1  0  0  0  0
 30 86  1  0  0  0  0
 31 87  1  0  0  0  0
 32 66  2  0  0  0  0
 33 67  1  0  0  0  0
 33 72  1  0  0  0  0
 34 35  2  0  0  0  0
 34 36  1  0  0  0  0
 35 45  1  0  0  0  0
 35 61  1  0  0  0  0
 36 68  1  0  0  0  0
 36 78  2  0  0  0  0
 37 73  1  0  0  0  0
 37 79  2  0  0  0  0
 38 53  1  0  0  0  0
 38 75  1  0  0  0  0
 38 80  2  0  0  0  0
 39 63  1  0  0  0  0
 39 69  1  0  0  0  0
 39 81  2  0  0  0  0
 40 64  1  0  0  0  0
 40 76  1  0  0  0  0
 40 82  2  0  0  0  0
 41 70  1  0  0  0  0
 41 74  1  0  0  0  0
 41 83  2  0  0  0  0
 42 46  1  0  0  0  0
 43 53  1  0  0  0  0
 44 69  1  0  0  0  0
 45 68  1  0  0  0  0
 46 48  1  0  0  0  0
 47 49  1  0  0  0  0
 47 50  1  0  0  0  0
 48 52  1  0  0  0  0
 49 54  1  0  0  0  0
 50 70  1  0  0  0  0
 51 54  1  0  0  0  0
 51 70  1  0  0  0  0
 52 75  1  0  0  0  0
 53 69  1  0  0  0  0
 54 67  1  0  0  0  0
 56 64  1  0  0  0  0
 57 65  1  0  0  0  0
 58 65  1  0  0  0  0
 59 65  1  0  0  0  0
 60 77  1  0  0  0  0
 61 62  1  0  0  0  0
 62 85  1  0  0  0  0
 63 65  1  0  0  0  0
 63 76  1  0  0  0  0
 64 77  1  0  0  0  0
 66 67  1  0  0  0  0
M  CHG  1  77   1
M  ISO  4  41 100  62 101  74 100  85 101
M  END
> <Batch ID>
0073

> <Smiles>
CNC(C)C(=O)NC(C(=O)N1Cc2cc([101O:1][101CH2:1]C=C3CC(=O)N(c4cc([100NH:0][100C:0](=O)N5CCCC(n6nc(-c7ccc(Oc8ccc(F)cc8F)cc7)c(C(N)=O)c6N)C5)cc(N)c4C)C3)ccc2CC1C(=O)NC1CCCc2ccccc21)C(C)(C)C

> <Shape>
0.284

> <Color>
0.075

> <Negative vol penalty>
0.000

$$$$

  -OEChem-04042323413D

 88 97  0     1  0  0  0  0  0999 V2000
  -21.6452  -29.0174   18.6480 C   0  0  0  0  0  0  0  0  0  0  0  0
  -21.7082  -27.7086   19.1154 C   0  0  0  0  0  0  0  0  0  0  0  0
  -23.0551   -9.8935   20.0864 C   0  0  0  0  0  0  0  0  0  0  0  0
  -23.7443  -10.0862   22.3939 C   0  0  0  0  0  0  0  0  0  0  0  0
  -22.4181  -30.0094   19.2501 C   0  0  0  0  0  0  0  0  0  0  0  0
  -22.5451  -27.3908   20.1845 C   0  0  0  0  0  0  0  0  0  0  0  0
  -22.9727  -22.9947   25.8244 C   0  0  0  0  0  0  0  0  0  0  0  0
  -29.0919  -17.9159   23.1376 C   0  0  0  0  0  0  0  0  0  0  0  0
  -28.6649  -18.4521   24.3524 C   0  0  0  0  0  0  0  0  0  0  0  0
  -22.2807   -8.7796   20.4107 C   0  0  0  0  0  0  0  0  0  0  0  0
  -22.9699   -8.9723   22.7183 C   0  0  0  0  0  0  0  0  0  0  0  0
  -23.8410  -22.0736   26.4086 C   0  0  0  0  0  0  0  0  0  0  0  0
  -19.7093   -8.2865   23.2828 C   0  0  0  0  0  0  0  0  0  0  0  0
  -18.9162   -8.3616   24.4278 C   0  0  0  0  0  0  0  0  0  0  0  0
  -25.0707  -23.8847   27.4219 C   0  0  0  0  0  0  0  0  0  0  0  0
  -20.0950   -6.4740   25.3682 C   0  0  0  0  0  0  0  0  0  0  0  0
  -23.7870  -10.5468   21.0780 C   0  0  0  0  0  0  0  0  0  0  0  0
  -24.1834  -13.0456   20.7518 C   0  0  0  0  0  0  0  0  0  0  0  0
  -23.2576  -29.7054   20.3334 C   0  0  0  0  0  0  0  0  0  0  0  0
  -23.1537  -24.3705   26.0260 C   0  0  0  0  0  0  0  0  0  0  0  0
  -23.3310  -28.3793   20.8008 C   0  0  0  0  0  0  0  0  0  0  0  0
  -24.2018  -24.8211   26.8412 C   0  0  0  0  0  0  0  0  0  0  0  0
  -30.4141  -17.4980   22.9861 C   0  0  0  0  0  0  0  0  0  0  0  0
  -29.5600  -18.5706   25.4156 C   0  0  0  0  0  0  0  0  0  0  0  0
  -22.2381   -8.3190   21.7266 C   0  0  0  0  0  0  0  0  0  0  0  0
  -24.8920  -22.5186   27.2052 C   0  0  0  0  0  0  0  0  0  0  0  0
  -20.6952   -7.3051   23.1805 C   0  0  0  0  0  0  0  0  0  0  0  0
  -19.1090   -7.4554   25.4704 C   0  0  0  0  0  0  0  0  0  0  0  0
  -20.8881   -6.3988   24.2232 C   0  0  0  0  0  0  0  0  0  0  0  0
  -31.3092  -17.6165   24.0492 C   0  0  0  0  0  0  0  0  0  0  0  0
  -30.8822  -18.1527   25.2640 C   0  0  0  0  0  0  0  0  0  0  0  0
  -24.5875  -11.6971   20.7435 C   0  0  0  0  0  0  0  0  0  0  0  0
  -25.3011  -13.7415   20.3608 C   0  0  0  0  0  0  0  0  0  0  0  0
  -28.7615  -20.5242   29.0159 C   0  0  0  0  0  0  0  0  0  0  0  0
  -28.0105  -20.8686   27.9566 C   0  0  0  0  0  0  0  0  0  0  0  0
  -22.9114  -13.6180   21.0835 C   0  0  0  0  0  0  0  0  0  0  0  0
  -23.7661  -26.8529   24.1375 C   0  0  0  0  0  0  0  0  0  0  0  0
  -23.3247  -28.5437   26.8704 C   0  0  0  0  0  0  0  0  0  0  0  0
  -23.3465  -28.5923   30.2827 C   0  0  0  0  0  0  0  0  0  0  0  0
  -30.7960  -14.6768   20.6374 C   0  0  0  0  0  0  0  0  0  0  0  0
  -24.1098  -30.8021   20.9214 C   0  0  0  0  0  0  0  0  0  0  0  0
  -22.1923  -25.3500   25.4105 C   0  0  0  0  0  0  0  0  0  0  0  0
  -24.4272  -26.2866   27.1054 C   0  0  0  0  0  0  0  0  0  0  0  0
  -29.6695  -19.3347   29.0104 C   0  0  0  0  0  0  0  0  0  0  0  0
  -28.0536  -20.1088   26.6505 C   0  0  0  0  0  0  0  0  0  0  0  0
  -24.6886  -30.4557   22.2908 C   0  0  0  0  0  0  0  0  0  0  0  0
  -29.6840  -12.1144   18.4296 C   0  0  0  0  0  0  0  0  0  0  0  0
  -25.2825  -29.0507   22.2795 C   0  0  0  0  0  0  0  0  0  0  0  0
  -28.2283  -11.8846   18.8397 C   0  0  0  0  0  0  0  0  0  0  0  0
  -29.3585  -18.3638   27.8726 C   0  0  0  0  0  0  0  0  0  0  0  0
  -30.5682  -12.4225   19.6360 C   0  0  0  0  0  0  0  0  0  0  0  0
  -28.6401  -13.3044   20.8923 C   0  0  0  0  0  0  0  0  0  0  0  0
  -24.2080  -28.0001   21.9743 C   0  0  1  0  0  0  0  0  0  0  0  0
  -22.7782  -26.7511   25.2650 C   0  0  1  0  0  0  0  0  0  0  0  0
  -27.6991  -13.0453   19.7033 C   0  0  2  0  0  0  0  0  0  0  0  0
  -30.7195  -17.9092   20.5164 C   0  0  0  0  0  0  0  0  0  0  0  0
  -22.9808  -30.1282   32.2333 C   0  0  0  0  0  0  0  0  0  0  0  0
  -26.0500  -29.8220   26.3718 C   0  0  0  0  0  0  0  0  0  0  0  0
  -26.0504  -30.5855   28.7562 C   0  0  0  0  0  0  0  0  0  0  0  0
  -24.2906  -31.4011   27.1875 C   0  0  0  0  0  0  0  0  0  0  0  0
  -21.1030  -26.9530   31.3015 C   0  0  0  0  0  0  0  0  0  0  0  0
  -27.0847  -22.0493   27.9973 C   0  0  0  0  0  0  0  0  0  1  0  0
  -30.8675  -16.9251   21.6858 C   0  0  2  0  0  0  0  0  0  0  0  0
  -24.2166  -29.0070   27.9968 C   0  0  1  0  0  0  0  0  0  0  0  0
  -22.3411  -29.1223   31.2890 C   0  0  2  0  0  0  0  0  0  0  0  0
  -25.1491  -30.1763   27.5717 C   0  0  0  0  0  0  0  0  0  0  0  0
  -25.8624  -11.5432   20.3761 N   0  0  0  0  0  0  0  0  0  0  0  0
  -26.2690  -12.8040   20.1498 N   0  0  0  0  0  0  0  0  0  0  0  0
  -29.1298  -19.1081   26.6310 N   0  0  1  0  0  0  0  0  0  0  0  0
  -23.4642  -27.2055   26.4762 N   0  0  0  0  0  0  0  0  0  0  0  0
  -30.0117  -13.5335   20.4118 N   0  0  0  0  0  0  0  0  0  0  0  0
  -25.5406  -15.0577   20.1801 N   0  0  0  0  0  0  0  0  0  0  0  0
  -21.8714  -12.7594   21.4651 N   0  0  0  0  0  0  0  0  0  0  0  0
  -23.4012  -27.7465   23.1486 N   0  0  0  0  0  0  0  0  0  0  0  0
  -23.3328  -29.3233   29.1136 N   0  0  0  0  0  0  0  0  0  0  0  0
  -30.1903  -15.6855   21.3765 N   0  0  0  0  0  0  0  0  0  0  0  0
  -21.7827  -28.0044   32.1012 N   0  3  0  0  0  0  0  0  0  0  0  0
  -22.6984  -14.8529   21.0269 O   0  0  0  0  0  0  0  0  0  0  0  0
  -24.7849  -26.1724   24.1636 O   0  0  0  0  0  0  0  0  0  0  0  0
  -22.5283  -29.3380   26.3639 O   0  0  0  0  0  0  0  0  0  0  0  0
  -24.0742  -27.6288   30.5123 O   0  0  0  0  0  0  0  0  0  0  0  0
  -31.9486  -14.7923   20.2073 O   0  0  0  0  0  0  0  0  0  0  0  0
  -21.4824   -7.2323   22.0435 O   0  0  0  0  0  0  0  0  0  0  0  0
  -25.7414  -21.6217   27.7761 O   0  0  0  0  0  0  0  0  0  1  0  0
  -18.3484   -7.5286   26.5705 F   0  0  0  0  0  0  0  0  0  0  0  0
  -21.8345   -5.4545   24.1311 F   0  0  0  0  0  0  0  0  0  0  0  0
  -32.5815  -17.2176   23.9130 F   0  0  0  0  0  0  0  0  0  0  0  0
  -31.7507  -18.2615   26.2795 F   0  0  0  0  0  0  0  0  0  0  0  0
  1  2  1  0  0  0  0
  1  5  2  0  0  0  0
  2  6  2  0  0  0  0
  3 10  2  0  0  0  0
  3 17  1  0  0  0  0
  4 11  1  0  0  0  0
  4 17  2  0  0  0  0
  5 19  1  0  0  0  0
  6 21  1  0  0  0  0
  7 12  2  0  0  0  0
  7 20  1  0  0  0  0
  8  9  2  0  0  0  0
  8 23  1  0  0  0  0
  9 24  1  0  0  0  0
 10 25  1  0  0  0  0
 11 25  2  0  0  0  0
 12 26  1  0  0  0  0
 13 14  2  0  0  0  0
 13 27  1  0  0  0  0
 14 28  1  0  0  0  0
 15 22  1  0  0  0  0
 15 26  2  0  0  0  0
 16 28  2  0  0  0  0
 16 29  1  0  0  0  0
 17 32  1  0  0  0  0
 18 32  1  0  0  0  0
 18 33  2  0  0  0  0
 18 36  1  0  0  0  0
 19 21  2  0  0  0  0
 19 41  1  0  0  0  0
 20 22  2  0  0  0  0
 20 42  1  0  0  0  0
 21 53  1  0  0  0  0
 22 43  1  0  0  0  0
 23 30  2  0  0  0  0
 23 63  1  0  0  0  0
 24 31  2  0  0  0  0
 24 69  1  0  0  0  0
 25 83  1  0  0  0  0
 26 84  1  0  0  0  0
 27 29  2  0  0  0  0
 27 83  1  0  0  0  0
 28 85  1  0  0  0  0
 29 86  1  0  0  0  0
 30 31  1  0  0  0  0
 30 87  1  0  0  0  0
 31 88  1  0  0  0  0
 32 67  2  0  0  0  0
 33 68  1  0  0  0  0
 33 72  1  0  0  0  0
 34 35  2  0  0  0  0
 34 44  1  0  0  0  0
 35 45  1  0  0  0  0
 35 62  1  0  0  0  0
 36 73  1  0  0  0  0
 36 78  2  0  0  0  0
 37 54  1  0  0  0  0
 37 74  1  0  0  0  0
 37 79  2  0  0  0  0
 38 64  1  0  0  0  0
 38 70  1  0  0  0  0
 38 80  2  0  0  0  0
 39 65  1  0  0  0  0
 39 75  1  0  0  0  0
 39 81  2  0  0  0  0
 40 71  1  0  0  0  0
 40 76  1  0  0  0  0
 40 82  2  0  0  0  0
 41 46  1  0  0  0  0
 42 54  1  0  0  0  0
 43 70  1  0  0  0  0
 44 50  1  0  0  0  0
 45 69  1  0  0  0  0
 46 48  1  0  0  0  0
 47 49  1  0  0  0  0
 47 51  1  0  0  0  0
 48 53  1  0  0  0  0
 49 55  1  0  0  0  0
 50 69  1  0  0  0  0
 51 71  1  0  0  0  0
 52 55  1  0  0  0  0
 52 71  1  0  0  0  0
 53 74  1  0  0  0  0
 54 70  1  0  0  0  0
 55 68  1  0  0  0  0
 56 63  1  0  0  0  0
 57 65  1  0  0  0  0
 58 66  1  0  0  0  0
 59 66  1  0  0  0  0
 60 66  1  0  0  0  0
 61 77  1  0  0  0  0
 62 84  1  0  0  0  0
 63 76  1  0  0  0  0
 64 66  1  0  0  0  0
 64 75  1  0  0  0  0
 65 77  1  0  0  0  0
 67 68  1  0  0  0  0
M  CHG  1  77   1
M  ISO  4  40 100  62 101  76 100  84 101
M  END
> <Batch ID>
0073

> <Smiles>
CNC(C)C(=O)NC(C(=O)N1Cc2cc([101O:1][101CH2:1]C3=CCCN(c4ccc(C(C)[100NH:0][100C:0](=O)N5CCCC(n6nc(-c7ccc(Oc8ccc(F)cc8F)cc7)c(C(N)=O)c6N)C5)c(F)c4F)C3)ccc2CC1C(=O)NC1CCCc2ccccc21)C(C)(C)C

> <Shape>
0.216

> <Color>
0.195

> <Negative vol penalty>
0.000

$$$$

  -OEChem-04042323413D

 85 93  0     1  0  0  0  0  0999 V2000
  -31.7760  -34.8386   24.1702 C   0  0  0  0  0  0  0  0  0  0  0  0
  -31.5404  -33.5436   23.7197 C   0  0  0  0  0  0  0  0  0  0  0  0
  -23.7910   -8.7924   20.2238 C   0  0  0  0  0  0  0  0  0  0  0  0
  -22.8020  -10.6661   21.3849 C   0  0  0  0  0  0  0  0  0  0  0  0
  -30.8531  -35.4625   25.0087 C   0  0  0  0  0  0  0  0  0  0  0  0
  -30.3823  -32.8713   24.1084 C   0  0  0  0  0  0  0  0  0  0  0  0
  -28.1316  -30.4877   20.2486 C   0  0  0  0  0  0  0  0  0  0  0  0
  -27.6224  -18.6287   18.4576 C   0  0  0  0  0  0  0  0  0  0  0  0
  -22.9265   -7.9235   20.8895 C   0  0  0  0  0  0  0  0  0  0  0  0
  -21.9374   -9.7972   22.0506 C   0  0  0  0  0  0  0  0  0  0  0  0
  -28.6873  -29.2773   19.8367 C   0  0  0  0  0  0  0  0  0  0  0  0
  -22.7006   -6.4888   23.9416 C   0  0  0  0  0  0  0  0  0  0  0  0
  -23.2421   -5.3190   24.4743 C   0  0  0  0  0  0  0  0  0  0  0  0
  -27.5834  -20.0152   18.3603 C   0  0  0  0  0  0  0  0  0  0  0  0
  -26.9952  -28.0855   21.0759 C   0  0  0  0  0  0  0  0  0  0  0  0
  -21.7661   -4.0034   23.0857 C   0  0  0  0  0  0  0  0  0  0  0  0
  -29.4641  -18.8372   19.9479 C   0  0  0  0  0  0  0  0  0  0  0  0
  -23.7288  -10.1637   20.4715 C   0  0  0  0  0  0  0  0  0  0  0  0
  -24.3981  -11.7066   18.5535 C   0  0  0  0  0  0  0  0  0  0  0  0
  -29.6784  -34.8010   25.4000 C   0  0  0  0  0  0  0  0  0  0  0  0
  -27.0081  -30.5062   21.0876 C   0  0  0  0  0  0  0  0  0  0  0  0
  -29.4435  -33.4864   24.9540 C   0  0  0  0  0  0  0  0  0  0  0  0
  -26.4256  -29.2975   21.4950 C   0  0  0  0  0  0  0  0  0  0  0  0
  -28.5776  -18.0206   19.2645 C   0  0  0  0  0  0  0  0  0  0  0  0
  -21.9996   -8.4259   21.8029 C   0  0  0  0  0  0  0  0  0  0  0  0
  -28.1209  -28.0759   20.2526 C   0  0  0  0  0  0  0  0  0  0  0  0
  -21.6917   -6.4160   22.9810 C   0  0  0  0  0  0  0  0  0  0  0  0
  -22.7749   -4.0763   24.0464 C   0  0  0  0  0  0  0  0  0  0  0  0
  -21.2246   -5.1733   22.5531 C   0  0  0  0  0  0  0  0  0  0  0  0
  -24.6220  -11.0617   19.7846 C   0  0  0  0  0  0  0  0  0  0  0  0
  -28.5143  -20.7425   19.0843 C   0  0  0  0  0  0  0  0  0  0  0  0
  -25.5379  -12.4423   18.3389 C   0  0  0  0  0  0  0  0  0  0  0  0
  -29.1150  -26.0347   20.8146 C   0  0  0  0  0  0  0  0  0  1  0  0
  -23.2613  -11.6462   17.6818 C   0  0  0  0  0  0  0  0  0  0  0  0
  -28.5329  -22.2180   19.0299 C   0  0  0  0  0  0  0  0  0  0  0  0
  -29.6701  -24.8373   20.5661 C   0  0  0  0  0  0  0  0  0  0  0  0
  -26.4105  -31.5975   24.0126 C   0  0  0  0  0  0  0  0  0  0  0  0
  -23.3688  -30.7301   23.2929 C   0  0  0  0  0  0  0  0  0  0  0  0
  -21.2757  -28.7748   21.4375 C   0  0  0  0  0  0  0  0  0  0  0  0
  -29.5381  -15.8664   20.1493 C   0  0  0  0  0  0  0  0  0  0  0  0
  -28.7331  -35.4987   26.3457 C   0  0  0  0  0  0  0  0  0  0  0  0
  -26.4045  -31.8203   21.5014 C   0  0  0  0  0  0  0  0  0  0  0  0
  -25.2068  -29.2630   22.3793 C   0  0  0  0  0  0  0  0  0  0  0  0
  -27.3500  -34.8559   26.4087 C   0  0  0  0  0  0  0  0  0  0  0  0
  -29.9956  -12.3845   20.7362 C   0  0  0  0  0  0  0  0  0  0  0  0
  -27.4708  -33.3415   26.5456 C   0  0  0  0  0  0  0  0  0  0  0  0
  -28.6200  -11.7830   20.4397 C   0  0  0  0  0  0  0  0  0  0  0  0
  -29.8839  -13.7519   21.4081 C   0  0  0  0  0  0  0  0  0  0  0  0
  -27.6647  -14.1225   20.4044 C   0  0  0  0  0  0  0  0  0  0  0  0
  -28.1869  -32.7334   25.3336 C   0  0  1  0  0  0  0  0  0  0  0  0
  -25.5690  -31.7197   22.7738 C   0  0  1  0  0  0  0  0  0  0  0  0
  -27.7260  -12.7739   19.6687 C   0  0  2  0  0  0  0  0  0  0  0  0
  -30.1339  -23.9748   21.7098 C   0  0  0  0  0  0  0  0  0  0  0  0
  -31.2020  -24.6421   18.5497 C   0  0  0  0  0  0  0  0  0  0  0  0
  -18.8425  -28.2625   21.0990 C   0  0  0  0  0  0  0  0  0  0  0  0
  -23.3548  -29.1034   25.8743 C   0  0  0  0  0  0  0  0  0  0  0  0
  -21.3344  -27.8962   25.0205 C   0  0  0  0  0  0  0  0  0  0  0  0
  -21.2390  -30.3568   25.4195 C   0  0  0  0  0  0  0  0  0  0  0  0
  -21.3657  -29.6483   18.6112 C   0  0  0  0  0  0  0  0  0  0  0  0
  -29.8489  -24.3030   19.1621 C   0  0  1  0  0  0  0  0  0  0  0  0
  -22.5510  -29.4707   23.4484 C   0  0  1  0  0  0  0  0  0  0  0  0
  -20.0232  -29.1077   20.6469 C   0  0  2  0  0  0  0  0  0  0  0  0
  -22.1439  -29.2071   24.9256 C   0  0  0  0  0  0  0  0  0  0  0  0
  -29.4571  -20.1873   19.8784 N   0  0  0  0  0  0  0  0  0  0  0  0
  -25.8108  -11.3612   20.3149 N   0  0  0  0  0  0  0  0  0  0  0  0
  -26.3440  -12.2023   19.4126 N   0  0  0  0  0  0  0  0  0  0  0  0
  -24.6572  -30.5740   22.7623 N   0  0  0  0  0  0  0  0  0  0  0  0
  -29.0257  -14.6387   20.6194 N   0  0  0  0  0  0  0  0  0  0  0  0
  -25.9193  -13.2645   17.3384 N   0  0  0  0  0  0  0  0  0  0  0  0
  -22.1758  -10.8416   18.0541 N   0  0  0  0  0  0  0  0  0  0  0  0
  -27.3800  -22.8534   18.8196 N   0  0  0  0  0  0  0  0  0  0  0  0
  -28.6410  -16.6101   19.3833 N   0  0  0  0  0  0  0  0  0  0  0  0
  -27.2860  -32.6493   24.2041 N   0  0  0  0  0  0  0  0  0  0  0  0
  -21.4234  -29.6005   22.5318 N   0  0  0  0  0  0  0  0  0  0  0  0
  -29.7035  -22.8413   19.1918 N   0  3  0  0  0  0  0  0  0  0  0  0
  -20.2474  -28.8630   19.1941 N   0  3  0  0  0  0  0  0  0  0  0  0
  -23.2164  -12.2739   16.5967 O   0  0  0  0  0  0  0  0  0  0  0  0
  -26.2746  -30.6218   24.7415 O   0  0  0  0  0  0  0  0  0  0  0  0
  -22.8798  -31.8134   23.6231 O   0  0  0  0  0  0  0  0  0  0  0  0
  -22.0441  -27.8702   21.1184 O   0  0  0  0  0  0  0  0  0  0  0  0
  -30.6969  -16.2185   20.3843 O   0  0  0  0  0  0  0  0  0  0  0  0
  -21.1557   -7.5783   22.4525 O   0  0  0  0  0  0  0  0  0  0  0  0
  -28.6618  -26.8930   19.8525 O   0  0  0  0  0  0  0  0  0  1  0  0
  -23.2961   -2.9529   24.5569 F   0  0  0  0  0  0  0  0  0  0  0  0
  -20.2564   -5.0971   21.6296 F   0  0  0  0  0  0  0  0  0  0  0  0
  1  2  1  0  0  0  0
  1  5  2  0  0  0  0
  2  6  2  0  0  0  0
  3  9  2  0  0  0  0
  3 18  1  0  0  0  0
  4 10  1  0  0  0  0
  4 18  2  0  0  0  0
  5 20  1  0  0  0  0
  6 22  1  0  0  0  0
  7 11  2  0  0  0  0
  7 21  1  0  0  0  0
  8 14  2  0  0  0  0
  8 24  1  0  0  0  0
  9 25  1  0  0  0  0
 10 25  2  0  0  0  0
 11 26  1  0  0  0  0
 12 13  2  0  0  0  0
 12 27  1  0  0  0  0
 13 28  1  0  0  0  0
 14 31  1  0  0  0  0
 15 23  1  0  0  0  0
 15 26  2  0  0  0  0
 16 28  2  0  0  0  0
 16 29  1  0  0  0  0
 17 24  2  0  0  0  0
 17 64  1  0  0  0  0
 18 30  1  0  0  0  0
 19 30  1  0  0  0  0
 19 32  2  0  0  0  0
 19 34  1  0  0  0  0
 20 22  2  0  0  0  0
 20 41  1  0  0  0  0
 21 23  2  0  0  0  0
 21 42  1  0  0  0  0
 22 50  1  0  0  0  0
 23 43  1  0  0  0  0
 24 72  1  0  0  0  0
 25 82  1  0  0  0  0
 26 83  1  0  0  0  0
 27 29  2  0  0  0  0
 27 82  1  0  0  0  0
 28 84  1  0  0  0  0
 29 85  1  0  0  0  0
 30 65  2  0  0  0  0
 31 35  1  0  0  0  0
 31 64  2  0  0  0  0
 32 66  1  0  0  0  0
 32 69  1  0  0  0  0
 33 36  2  0  0  0  0
 33 83  1  0  0  0  0
 34 70  1  0  0  0  0
 34 77  2  0  0  0  0
 35 71  1  0  0  0  0
 35 75  2  0  0  0  0
 36 53  1  0  0  0  0
 36 60  1  0  0  0  0
 37 51  1  0  0  0  0
 37 73  1  0  0  0  0
 37 78  2  0  0  0  0
 38 61  1  0  0  0  0
 38 67  1  0  0  0  0
 38 79  2  0  0  0  0
 39 62  1  0  0  0  0
 39 74  1  0  0  0  0
 39 80  2  0  0  0  0
 40 68  1  0  0  0  0
 40 72  1  0  0  0  0
 40 81  2  0  0  0  0
 41 44  1  0  0  0  0
 42 51  1  0  0  0  0
 43 67  1  0  0  0  0
 44 46  1  0  0  0  0
 45 47  1  0  0  0  0
 45 48  1  0  0  0  0
 46 50  1  0  0  0  0
 47 52  1  0  0  0  0
 48 68  1  0  0  0  0
 49 52  1  0  0  0  0
 49 68  1  0  0  0  0
 50 73  1  0  0  0  0
 51 67  1  0  0  0  0
 52 66  1  0  0  0  0
 54 60  1  0  0  0  0
 55 62  1  0  0  0  0
 56 63  1  0  0  0  0
 57 63  1  0  0  0  0
 58 63  1  0  0  0  0
 59 76  1  0  0  0  0
 60 75  1  0  0  0  0
 61 63  1  0  0  0  0
 61 74  1  0  0  0  0
 62 76  1  0  0  0  0
 65 66  1  0  0  0  0
M  CHG  2  75   1  76   1
M  ISO  4  33 101  40 100  72 100  83 101
M  END
> <Batch ID>
0073

> <Smiles>
CNC(C)C(=O)NC(C(=O)N1Cc2cc([101O:1][101CH:1]=C(C)C(C)NC(=N)c3ccc([100NH:0][100C:0](=O)N4CCCC(n5nc(-c6ccc(Oc7ccc(F)cc7F)cc6)c(C(N)=O)c5N)C4)cn3)ccc2CC1C(=O)NC1CCCc2ccccc21)C(C)(C)C

> <Shape>
0.322

> <Color>
0.124

> <Negative vol penalty>
0.000

$$$$

  -OEChem-04042323413D

 87 96  0     1  0  0  0  0  0999 V2000
  -27.2576  -37.7631   22.4830 C   0  0  0  0  0  0  0  0  0  0  0  0
  -27.8246  -36.5950   21.9836 C   0  0  0  0  0  0  0  0  0  0  0  0
  -25.7687  -11.3911   18.9540 C   0  0  0  0  0  0  0  0  0  0  0  0
  -26.2508  -11.2162   21.3150 C   0  0  0  0  0  0  0  0  0  0  0  0
  -26.2702  -37.6928   23.4649 C   0  0  0  0  0  0  0  0  0  0  0  0
  -27.4054  -35.3559   22.4665 C   0  0  0  0  0  0  0  0  0  0  0  0
  -26.9433  -30.1347   19.2992 C   0  0  0  0  0  0  0  0  0  0  0  0
  -28.1174  -20.6743   16.5657 C   0  0  0  0  0  0  0  0  0  0  0  0
  -28.2810  -19.5646   17.3948 C   0  0  0  0  0  0  0  0  0  0  0  0
  -24.5237  -10.7984   19.1643 C   0  0  0  0  0  0  0  0  0  0  0  0
  -25.0058  -10.6236   21.5253 C   0  0  0  0  0  0  0  0  0  0  0  0
  -27.7867  -29.0308   19.1824 C   0  0  0  0  0  0  0  0  0  0  0  0
  -23.2962   -7.6855   19.6414 C   0  0  0  0  0  0  0  0  0  0  0  0
  -22.8978   -6.6847   18.7554 C   0  0  0  0  0  0  0  0  0  0  0  0
  -26.5235  -27.8922   20.8933 C   0  0  0  0  0  0  0  0  0  0  0  0
  -29.6697  -20.8752   18.8749 C   0  0  0  0  0  0  0  0  0  0  0  0
  -20.9670   -7.9995   18.1384 C   0  0  0  0  0  0  0  0  0  0  0  0
  -26.6323  -11.6000   20.0293 C   0  0  0  0  0  0  0  0  0  0  0  0
  -28.9587  -11.7362   18.9915 C   0  0  0  0  0  0  0  0  0  0  0  0
  -25.8318  -36.4518   23.9532 C   0  0  0  0  0  0  0  0  0  0  0  0
  -25.8885  -30.1300   20.2232 C   0  0  0  0  0  0  0  0  0  0  0  0
  -26.4122  -35.2690   23.4568 C   0  0  0  0  0  0  0  0  0  0  0  0
  -25.6665  -28.9964   21.0181 C   0  0  0  0  0  0  0  0  0  0  0  0
  -28.7301  -21.8844   16.8911 C   0  0  0  0  0  0  0  0  0  0  0  0
  -29.5062  -21.9849   18.0457 C   0  0  0  0  0  0  0  0  0  0  0  0
  -29.0571  -19.6651   18.5494 C   0  0  0  0  0  0  0  0  0  0  0  0
  -24.1422  -10.4146   20.4499 C   0  0  0  0  0  0  0  0  0  0  0  0
  -27.5787  -27.9104   19.9816 C   0  0  0  0  0  0  0  0  0  0  0  0
  -22.5300   -8.8434   19.7760 C   0  0  0  0  0  0  0  0  0  0  0  0
  -21.7332   -6.8417   18.0038 C   0  0  0  0  0  0  0  0  0  0  0  0
  -21.3655   -9.0004   19.0245 C   0  0  0  0  0  0  0  0  0  0  0  0
  -27.9188  -12.2117   19.8127 C   0  0  0  0  0  0  0  0  0  0  0  0
  -29.9577  -12.6689   19.1279 C   0  0  0  0  0  0  0  0  0  0  0  0
  -32.2333  -24.4185   17.9931 C   0  0  0  0  0  0  0  0  0  0  0  0
  -29.3969  -24.4018   18.6305 C   0  0  0  0  0  0  0  0  0  0  0  0
  -33.4511  -24.3483   17.4347 C   0  0  0  0  0  0  0  0  0  0  0  0
  -29.0165  -10.5568   18.1782 C   0  0  0  0  0  0  0  0  0  0  0  0
  -25.1319  -31.8711   22.7727 C   0  0  0  0  0  0  0  0  0  0  0  0
  -22.4083  -30.1116   22.6820 C   0  0  0  0  0  0  0  0  0  0  0  0
  -20.8460  -27.2390   21.7050 C   0  0  0  0  0  0  0  0  0  0  0  0
  -29.9596  -18.4668   20.5733 C   0  0  0  0  0  0  0  0  0  0  0  0
  -24.7955  -36.4279   25.0487 C   0  0  0  0  0  0  0  0  0  0  0  0
  -24.9714  -31.3184   20.3182 C   0  0  0  0  0  0  0  0  0  0  0  0
  -24.5359  -28.9332   22.0111 C   0  0  0  0  0  0  0  0  0  0  0  0
  -31.4354  -25.6928   17.9655 C   0  0  0  0  0  0  0  0  0  0  0  0
  -31.5941  -23.2325   18.6676 C   0  0  0  0  0  0  0  0  0  0  0  0
  -24.1410  -35.0618   25.2383 C   0  0  0  0  0  0  0  0  0  0  0  0
  -31.7064  -15.8544   22.2470 C   0  0  0  0  0  0  0  0  0  0  0  0
  -25.1980  -33.9624   25.2636 C   0  0  0  0  0  0  0  0  0  0  0  0
  -31.0320  -14.5803   21.7333 C   0  0  0  0  0  0  0  0  0  0  0  0
  -30.7038  -16.9925   22.4300 C   0  0  0  0  0  0  0  0  0  0  0  0
  -29.2038  -16.0138   20.7384 C   0  0  0  0  0  0  0  0  0  0  0  0
  -25.9664  -33.9051   23.9377 C   0  0  1  0  0  0  0  0  0  0  0  0
  -30.2679  -25.6223   18.9531 C   0  0  1  0  0  0  0  0  0  0  0  0
  -24.2421  -31.4049   21.6554 C   0  0  1  0  0  0  0  0  0  0  0  0
  -30.1841  -14.8588   20.4766 C   0  0  2  0  0  0  0  0  0  0  0  0
  -28.5375  -23.0565   15.9844 C   0  0  0  0  0  0  0  0  0  0  0  0
  -18.6277  -26.0702   21.8076 C   0  0  0  0  0  0  0  0  0  0  0  0
  -22.9279  -29.3865   25.5999 C   0  0  0  0  0  0  0  0  0  0  0  0
  -21.2734  -27.5230   25.3589 C   0  0  0  0  0  0  0  0  0  0  0  0
  -20.5382  -29.8878   25.0591 C   0  0  0  0  0  0  0  0  0  0  0  0
  -20.5918  -27.2146   18.7565 C   0  0  0  0  0  0  0  0  0  0  0  0
  -29.4566  -26.9160   18.9138 C   0  0  0  0  0  0  0  0  0  1  0  0
  -21.9638  -28.7979   23.2782 C   0  0  1  0  0  0  0  0  0  0  0  0
  -19.5211  -27.0016   21.0031 C   0  0  2  0  0  0  0  0  0  0  0  0
  -21.6984  -28.9004   24.8068 C   0  0  0  0  0  0  0  0  0  0  0  0
  -28.2285  -13.3574   20.4254 N   0  0  0  0  0  0  0  0  0  0  0  0
  -29.4743  -13.6096   19.9891 N   0  0  0  0  0  0  0  0  0  0  0  0
  -30.1468  -23.2251   18.3987 N   0  0  0  0  0  0  0  0  0  0  0  0
  -23.6704  -30.1226   22.0714 N   0  0  0  0  0  0  0  0  0  0  0  0
  -29.9400  -17.2019   21.1981 N   0  0  0  0  0  0  0  0  0  0  0  0
  -31.1936  -12.7679   18.5940 N   0  0  0  0  0  0  0  0  0  0  0  0
  -29.5047   -9.3741   18.7501 N   0  0  0  0  0  0  0  0  0  0  0  0
  -29.2229  -18.5375   19.3914 N   0  0  0  0  0  0  0  0  0  0  0  0
  -25.1743  -33.2441   22.9227 N   0  0  0  0  0  0  0  0  0  0  0  0
  -20.8087  -28.3658   22.4988 N   0  0  0  0  0  0  0  0  0  0  0  0
  -19.7474  -26.3931   19.6616 N   0  3  0  0  0  0  0  0  0  0  0  0
  -28.1689  -24.4818   18.6495 O   0  0  0  0  0  0  0  0  0  0  0  0
  -28.6616  -10.5561   16.9751 O   0  0  0  0  0  0  0  0  0  0  0  0
  -25.7342  -31.0461   23.4497 O   0  0  0  0  0  0  0  0  0  0  0  0
  -21.6601  -31.0900   22.7490 O   0  0  0  0  0  0  0  0  0  0  0  0
  -21.8158  -26.4968   21.5662 O   0  0  0  0  0  0  0  0  0  0  0  0
  -30.6060  -19.4098   21.0370 O   0  0  0  0  0  0  0  0  0  0  0  0
  -22.9273   -9.8365   20.6556 O   0  0  0  0  0  0  0  0  0  0  0  0
  -28.4008  -26.8317   19.8700 O   0  0  0  0  0  0  0  0  0  1  0  0
  -21.3515   -5.8811   17.1518 F   0  0  0  0  0  0  0  0  0  0  0  0
  -20.6259  -10.1110   19.1486 F   0  0  0  0  0  0  0  0  0  0  0  0
  1  2  1  0  0  0  0
  1  5  2  0  0  0  0
  2  6  2  0  0  0  0
  3 10  2  0  0  0  0
  3 18  1  0  0  0  0
  4 11  1  0  0  0  0
  4 18  2  0  0  0  0
  5 20  1  0  0  0  0
  6 22  1  0  0  0  0
  7 12  2  0  0  0  0
  7 21  1  0  0  0  0
  8  9  2  0  0  0  0
  8 24  1  0  0  0  0
  9 26  1  0  0  0  0
 10 27  1  0  0  0  0
 11 27  2  0  0  0  0
 12 28  1  0  0  0  0
 13 14  2  0  0  0  0
 13 29  1  0  0  0  0
 14 30  1  0  0  0  0
 15 23  1  0  0  0  0
 15 28  2  0  0  0  0
 16 25  1  0  0  0  0
 16 26  2  0  0  0  0
 17 30  2  0  0  0  0
 17 31  1  0  0  0  0
 18 32  1  0  0  0  0
 19 32  1  0  0  0  0
 19 33  2  0  0  0  0
 19 37  1  0  0  0  0
 20 22  2  0  0  0  0
 20 42  1  0  0  0  0
 21 23  2  0  0  0  0
 21 43  1  0  0  0  0
 22 53  1  0  0  0  0
 23 44  1  0  0  0  0
 24 25  2  0  0  0  0
 24 57  1  0  0  0  0
 25 69  1  0  0  0  0
 26 74  1  0  0  0  0
 27 84  1  0  0  0  0
 28 85  1  0  0  0  0
 29 31  2  0  0  0  0
 29 84  1  0  0  0  0
 30 86  1  0  0  0  0
 31 87  1  0  0  0  0
 32 67  2  0  0  0  0
 33 68  1  0  0  0  0
 33 72  1  0  0  0  0
 34 36  2  0  0  0  0
 34 45  1  0  0  0  0
 34 46  1  0  0  0  0
 35 54  1  0  0  0  0
 35 69  1  0  0  0  0
 35 78  2  0  0  0  0
 37 73  1  0  0  0  0
 37 79  2  0  0  0  0
 38 55  1  0  0  0  0
 38 75  1  0  0  0  0
 38 80  2  0  0  0  0
 39 64  1  0  0  0  0
 39 70  1  0  0  0  0
 39 81  2  0  0  0  0
 40 65  1  0  0  0  0
 40 76  1  0  0  0  0
 40 82  2  0  0  0  0
 41 71  1  0  0  0  0
 41 74  1  0  0  0  0
 41 83  2  0  0  0  0
 42 47  1  0  0  0  0
 43 55  1  0  0  0  0
 44 70  1  0  0  0  0
 45 54  1  0  0  0  0
 46 69  1  0  0  0  0
 47 49  1  0  0  0  0
 48 50  1  0  0  0  0
 48 51  1  0  0  0  0
 49 53  1  0  0  0  0
 50 56  1  0  0  0  0
 51 71  1  0  0  0  0
 52 56  1  0  0  0  0
 52 71  1  0  0  0  0
 53 75  1  0  0  0  0
 54 63  1  0  0  0  0
 55 70  1  0  0  0  0
 56 68  1  0  0  0  0
 58 65  1  0  0  0  0
 59 66  1  0  0  0  0
 60 66  1  0  0  0  0
 61 66  1  0  0  0  0
 62 77  1  0  0  0  0
 63 85  1  0  0  0  0
 64 66  1  0  0  0  0
 64 76  1  0  0  0  0
 65 77  1  0  0  0  0
 67 68  1  0  0  0  0
M  CHG  1  77   1
M  ISO  4  41 100  63 101  74 100  85 101
M  END
> <Batch ID>
0073

> <Smiles>
C=C1CC([101CH2:1][101O:1]c2ccc3c(c2)CN(C(=O)C(NC(=O)C(C)NC)C(C)(C)C)C(C(=O)NC2CCCc4ccccc42)C3)C(=O)N(c2cc([100NH:0][100C:0](=O)N3CCCC(n4nc(-c5ccc(Oc6ccc(F)cc6F)cc5)c(C(N)=O)c4N)C3)ccc2C)C1

> <Shape>
0.368

> <Color>
0.072

> <Negative vol penalty>
0.000

$$$$

  -OEChem-04042323413D

 86 95  0     1  0  0  0  0  0999 V2000
  -18.1849  -25.2915   25.5199 C   0  0  0  0  0  0  0  0  0  0  0  0
  -19.4630  -24.7989   25.2762 C   0  0  0  0  0  0  0  0  0  0  0  0
  -23.5134   -9.0478   20.2655 C   0  0  0  0  0  0  0  0  0  0  0  0
  -23.0475  -10.8419   21.8150 C   0  0  0  0  0  0  0  0  0  0  0  0
  -17.7285  -26.4141   24.8304 C   0  0  0  0  0  0  0  0  0  0  0  0
  -20.2851  -25.4282   24.3421 C   0  0  0  0  0  0  0  0  0  0  0  0
  -26.3735  -26.0318   24.6114 C   0  0  0  0  0  0  0  0  0  0  0  0
  -22.6316   -8.2194   20.9595 C   0  0  0  0  0  0  0  0  0  0  0  0
  -22.1656  -10.0135   22.5090 C   0  0  0  0  0  0  0  0  0  0  0  0
  -27.4141  -25.3167   24.0200 C   0  0  0  0  0  0  0  0  0  0  0  0
  -22.6529   -6.3783   23.7940 C   0  0  0  0  0  0  0  0  0  0  0  0
  -23.0681   -5.0750   24.0669 C   0  0  0  0  0  0  0  0  0  0  0  0
  -27.5136  -26.9439   22.2419 C   0  0  0  0  0  0  0  0  0  0  0  0
  -28.5937  -18.3719   19.0995 C   0  0  0  0  0  0  0  0  0  0  0  0
  -30.6884  -18.0776   20.2668 C   0  0  0  0  0  0  0  0  0  0  0  0
  -21.1926   -4.2143   22.8104 C   0  0  0  0  0  0  0  0  0  0  0  0
  -23.7214  -10.3591   20.6932 C   0  0  0  0  0  0  0  0  0  0  0  0
  -24.3285  -12.0676   18.8988 C   0  0  0  0  0  0  0  0  0  0  0  0
  -18.5490  -27.0631   23.8943 C   0  0  0  0  0  0  0  0  0  0  0  0
  -25.8871  -27.2043   24.0157 C   0  0  0  0  0  0  0  0  0  0  0  0
  -19.8388  -26.5597   23.6384 C   0  0  0  0  0  0  0  0  0  0  0  0
  -26.4685  -27.6733   22.8291 C   0  0  0  0  0  0  0  0  0  0  0  0
  -28.7464  -19.7563   19.1745 C   0  0  0  0  0  0  0  0  0  0  0  0
  -30.8412  -19.4621   20.3418 C   0  0  0  0  0  0  0  0  0  0  0  0
  -29.8701  -20.3014   19.7956 C   0  0  0  0  0  0  0  0  0  0  0  0
  -29.5647  -17.5325   19.6458 C   0  0  0  0  0  0  0  0  0  0  0  0
  -21.9577   -8.7022   22.0813 C   0  0  0  0  0  0  0  0  0  0  0  0
  -27.9823  -25.7711   22.8336 C   0  0  0  0  0  0  0  0  0  0  0  0
  -21.5074   -6.5997   23.0294 C   0  0  0  0  0  0  0  0  0  0  0  0
  -22.3380   -3.9930   23.5751 C   0  0  0  0  0  0  0  0  0  0  0  0
  -20.7773   -5.5177   22.5375 C   0  0  0  0  0  0  0  0  0  0  0  0
  -24.6326  -11.2151   19.9771 C   0  0  0  0  0  0  0  0  0  0  0  0
  -25.5271  -12.6568   18.5783 C   0  0  0  0  0  0  0  0  0  0  0  0
  -30.8719  -23.8186   19.6236 C   0  0  0  0  0  0  0  0  0  0  0  0
  -29.7307  -23.9025   20.3110 C   0  0  0  0  0  0  0  0  0  0  0  0
  -31.0957  -22.3913   19.3191 C   0  0  0  0  0  0  0  0  0  0  0  0
  -23.0747  -12.3057   18.2455 C   0  0  0  0  0  0  0  0  0  0  0  0
  -23.0876  -28.1174   22.8187 C   0  0  0  0  0  0  0  0  0  0  0  0
  -24.5776  -30.9865   22.5533 C   0  0  0  0  0  0  0  0  0  0  0  0
  -27.5080  -32.7159   22.2907 C   0  0  0  0  0  0  0  0  0  0  0  0
  -30.2785  -15.1525   20.0611 C   0  0  0  0  0  0  0  0  0  0  0  0
  -17.9946  -28.2451   23.1392 C   0  0  0  0  0  0  0  0  0  0  0  0
  -24.7820  -27.9786   24.6803 C   0  0  0  0  0  0  0  0  0  0  0  0
  -25.9962  -28.9374   22.1602 C   0  0  0  0  0  0  0  0  0  0  0  0
  -29.0930  -22.5740   20.5305 C   0  0  0  0  0  0  0  0  0  0  0  0
  -19.0656  -29.0770   22.4384 C   0  0  0  0  0  0  0  0  0  0  0  0
  -30.2337  -11.5926   20.1071 C   0  0  0  0  0  0  0  0  0  0  0  0
  -20.0379  -28.1726   21.6879 C   0  0  0  0  0  0  0  0  0  0  0  0
  -28.7475  -11.2472   19.9887 C   0  0  0  0  0  0  0  0  0  0  0  0
  -30.4596  -12.8418   20.9570 C   0  0  0  0  0  0  0  0  0  0  0  0
  -28.2037  -13.6764   20.4246 C   0  0  0  0  0  0  0  0  0  0  0  0
  -20.7693  -27.2295   22.6507 C   0  0  1  0  0  0  0  0  0  0  0  0
  -24.0207  -28.8816   23.7148 C   0  0  1  0  0  0  0  0  0  0  0  0
  -27.9217  -12.4628   19.5240 C   0  0  2  0  0  0  0  0  0  0  0  0
  -27.6886  -20.6297   18.5811 C   0  0  0  0  0  0  0  0  0  0  0  0
  -32.0560  -20.0168   21.0130 C   0  0  0  0  0  0  0  0  0  0  0  0
  -28.4047  -35.0474   22.0514 C   0  0  0  0  0  0  0  0  0  0  0  0
  -23.7717  -30.9919   19.6105 C   0  0  0  0  0  0  0  0  0  0  0  0
  -25.4584  -32.8012   19.2238 C   0  0  0  0  0  0  0  0  0  0  0  0
  -23.5347  -33.1997   20.7610 C   0  0  0  0  0  0  0  0  0  0  0  0
  -28.9870  -32.5339   24.8477 C   0  0  0  0  0  0  0  0  0  0  0  0
  -29.1042  -25.1440   20.8326 C   0  0  0  0  0  0  0  0  0  1  0  0
  -25.4074  -31.6660   21.4909 C   0  0  1  0  0  0  0  0  0  0  0  0
  -28.0234  -33.9415   23.0232 C   0  0  2  0  0  0  0  0  0  0  0  0
  -24.5509  -32.1398   20.2829 C   0  0  0  0  0  0  0  0  0  0  0  0
  -25.9232  -11.2560   20.3186 N   0  0  0  0  0  0  0  0  0  0  0  0
  -26.4407  -12.1412   19.4498 N   0  0  0  0  0  0  0  0  0  0  0  0
  -30.0227  -21.6805   19.8709 N   0  0  0  0  0  0  0  0  0  0  0  0
  -24.9090  -29.6558   22.8454 N   0  0  0  0  0  0  0  0  0  0  0  0
  -29.6485  -13.9531   20.4553 N   0  0  0  0  0  0  0  0  0  0  0  0
  -25.8781  -13.5603   17.6387 N   0  0  0  0  0  0  0  0  0  0  0  0
  -21.9423  -11.6169   18.7013 N   0  0  0  0  0  0  0  0  0  0  0  0
  -29.4091  -16.1261   19.5703 N   0  0  0  0  0  0  0  0  0  0  0  0
  -21.8235  -27.9357   23.3466 N   0  0  0  0  0  0  0  0  0  0  0  0
  -26.1351  -32.7364   22.1639 N   0  0  0  0  0  0  0  0  0  0  0  0
  -29.2245  -33.5935   23.8339 N   0  3  0  0  0  0  0  0  0  0  0  0
  -32.0580  -21.9713   18.6972 O   0  0  0  0  0  0  0  0  0  0  0  0
  -22.9649  -13.0931   17.2752 O   0  0  0  0  0  0  0  0  0  0  0  0
  -23.4845  -27.7231   21.7285 O   0  0  0  0  0  0  0  0  0  0  0  0
  -23.6736  -31.6155   23.1088 O   0  0  0  0  0  0  0  0  0  0  0  0
  -28.2494  -31.8308   21.8696 O   0  0  0  0  0  0  0  0  0  0  0  0
  -31.5022  -15.2947   20.1267 O   0  0  0  0  0  0  0  0  0  0  0  0
  -21.0969   -7.8942   22.7586 O   0  0  0  0  0  0  0  0  0  0  0  0
  -28.9977  -25.0748   22.2539 O   0  0  0  0  0  0  0  0  0  1  0  0
  -22.7378   -2.7414   23.8359 F   0  0  0  0  0  0  0  0  0  0  0  0
  -19.6768   -5.7241   21.8013 F   0  0  0  0  0  0  0  0  0  0  0  0
  1  2  1  0  0  0  0
  1  5  2  0  0  0  0
  2  6  2  0  0  0  0
  3  8  2  0  0  0  0
  3 17  1  0  0  0  0
  4  9  1  0  0  0  0
  4 17  2  0  0  0  0
  5 19  1  0  0  0  0
  6 21  1  0  0  0  0
  7 10  2  0  0  0  0
  7 20  1  0  0  0  0
  8 27  1  0  0  0  0
  9 27  2  0  0  0  0
 10 28  1  0  0  0  0
 11 12  2  0  0  0  0
 11 29  1  0  0  0  0
 12 30  1  0  0  0  0
 13 22  1  0  0  0  0
 13 28  2  0  0  0  0
 14 23  2  0  0  0  0
 14 26  1  0  0  0  0
 15 24  1  0  0  0  0
 15 26  2  0  0  0  0
 16 30  2  0  0  0  0
 16 31  1  0  0  0  0
 17 32  1  0  0  0  0
 18 32  1  0  0  0  0
 18 33  2  0  0  0  0
 18 37  1  0  0  0  0
 19 21  2  0  0  0  0
 19 42  1  0  0  0  0
 20 22  2  0  0  0  0
 20 43  1  0  0  0  0
 21 52  1  0  0  0  0
 22 44  1  0  0  0  0
 23 25  1  0  0  0  0
 23 55  1  0  0  0  0
 24 25  2  0  0  0  0
 24 56  1  0  0  0  0
 25 68  1  0  0  0  0
 26 73  1  0  0  0  0
 27 83  1  0  0  0  0
 28 84  1  0  0  0  0
 29 31  2  0  0  0  0
 29 83  1  0  0  0  0
 30 85  1  0  0  0  0
 31 86  1  0  0  0  0
 32 66  2  0  0  0  0
 33 67  1  0  0  0  0
 33 71  1  0  0  0  0
 34 35  2  0  0  0  0
 34 36  1  0  0  0  0
 35 45  1  0  0  0  0
 35 62  1  0  0  0  0
 36 68  1  0  0  0  0
 36 77  2  0  0  0  0
 37 72  1  0  0  0  0
 37 78  2  0  0  0  0
 38 53  1  0  0  0  0
 38 74  1  0  0  0  0
 38 79  2  0  0  0  0
 39 63  1  0  0  0  0
 39 69  1  0  0  0  0
 39 80  2  0  0  0  0
 40 64  1  0  0  0  0
 40 75  1  0  0  0  0
 40 81  2  0  0  0  0
 41 70  1  0  0  0  0
 41 73  1  0  0  0  0
 41 82  2  0  0  0  0
 42 46  1  0  0  0  0
 43 53  1  0  0  0  0
 44 69  1  0  0  0  0
 45 68  1  0  0  0  0
 46 48  1  0  0  0  0
 47 49  1  0  0  0  0
 47 50  1  0  0  0  0
 48 52  1  0  0  0  0
 49 54  1  0  0  0  0
 50 70  1  0  0  0  0
 51 54  1  0  0  0  0
 51 70  1  0  0  0  0
 52 74  1  0  0  0  0
 53 69  1  0  0  0  0
 54 67  1  0  0  0  0
 57 64  1  0  0  0  0
 58 65  1  0  0  0  0
 59 65  1  0  0  0  0
 60 65  1  0  0  0  0
 61 76  1  0  0  0  0
 62 84  1  0  0  0  0
 63 65  1  0  0  0  0
 63 75  1  0  0  0  0
 64 76  1  0  0  0  0
 66 67  1  0  0  0  0
M  CHG  1  76   1
M  ISO  4  41 100  62 101  73 100  84 101
M  END
> <Batch ID>
0073

> <Smiles>
CNC(C)C(=O)NC(C(=O)N1Cc2cc([101O:1][101CH2:1]C3=CC(=O)N(c4c(C)cc([100NH:0][100C:0](=O)N5CCCC(n6nc(-c7ccc(Oc8ccc(F)cc8F)cc7)c(C(N)=O)c6N)C5)cc4C)C3)ccc2CC1C(=O)NC1CCCc2ccccc21)C(C)(C)C

> <Shape>
0.288

> <Color>
0.104

> <Negative vol penalty>
0.000

$$$$

  -OEChem-04042323413D

 85 92  0     1  0  0  0  0  0999 V2000
  -16.7515  -28.7987   23.9424 C   0  0  0  0  0  0  0  0  0  0  0  0
  -17.4235  -28.0047   23.0187 C   0  0  0  0  0  0  0  0  0  0  0  0
  -23.3392  -10.2928   22.0778 C   0  0  0  0  0  0  0  0  0  0  0  0
  -24.5731   -8.4614   21.0979 C   0  0  0  0  0  0  0  0  0  0  0  0
  -17.2075  -30.0880   24.2140 C   0  0  0  0  0  0  0  0  0  0  0  0
  -18.5513  -28.4999   22.3650 C   0  0  0  0  0  0  0  0  0  0  0  0
  -22.3380  -25.1412   22.2091 C   0  0  0  0  0  0  0  0  0  0  0  0
  -22.2476   -9.4486   22.2813 C   0  0  0  0  0  0  0  0  0  0  0  0
  -23.4816   -7.6171   21.3013 C   0  0  0  0  0  0  0  0  0  0  0  0
  -22.2462  -24.1216   21.2626 C   0  0  0  0  0  0  0  0  0  0  0  0
  -22.1044   -5.9037   23.8681 C   0  0  0  0  0  0  0  0  0  0  0  0
  -22.3558   -4.6379   24.3974 C   0  0  0  0  0  0  0  0  0  0  0  0
  -23.7537  -25.3327   19.8205 C   0  0  0  0  0  0  0  0  0  0  0  0
  -21.4034   -3.6230   22.4226 C   0  0  0  0  0  0  0  0  0  0  0  0
  -24.5019   -9.7992   21.4861 C   0  0  0  0  0  0  0  0  0  0  0  0
  -26.6947  -10.9131   22.1632 C   0  0  0  0  0  0  0  0  0  0  0  0
  -18.3471  -30.5958   23.5705 C   0  0  0  0  0  0  0  0  0  0  0  0
  -23.1312  -26.2712   21.9632 C   0  0  0  0  0  0  0  0  0  0  0  0
  -19.0221  -29.7977   22.6272 C   0  0  0  0  0  0  0  0  0  0  0  0
  -23.8559  -26.3640   20.7665 C   0  0  0  0  0  0  0  0  0  0  0  0
  -22.3188   -8.1107   21.8930 C   0  0  0  0  0  0  0  0  0  0  0  0
  -22.9518  -24.2185   20.0669 C   0  0  0  0  0  0  0  0  0  0  0  0
  -21.5023   -6.0292   22.6161 C   0  0  0  0  0  0  0  0  0  0  0  0
  -22.0054   -3.4976   23.6746 C   0  0  0  0  0  0  0  0  0  0  0  0
  -21.1518   -4.8888   21.8933 C   0  0  0  0  0  0  0  0  0  0  0  0
  -25.6296  -10.6710   21.2751 C   0  0  0  0  0  0  0  0  0  0  0  0
  -27.4981  -11.8082   21.5000 C   0  0  0  0  0  0  0  0  0  0  0  0
  -23.7814  -21.1687   18.3704 C   0  0  0  0  0  0  0  0  0  0  0  0
  -23.7699  -22.1970   19.2215 C   0  0  0  0  0  0  0  0  0  1  0  0
  -26.9363  -10.3769   23.4708 C   0  0  0  0  0  0  0  0  0  0  0  0
  -24.7953  -20.0918   18.5224 C   0  0  0  0  0  0  0  0  0  0  0  0
  -22.5701  -29.3871   21.6807 C   0  0  0  0  0  0  0  0  0  0  0  0
  -25.8063  -29.5612   21.5426 C   0  0  0  0  0  0  0  0  0  0  0  0
  -26.5708  -17.1727   20.2513 C   0  0  0  0  0  0  0  0  0  0  0  0
  -28.7645  -28.0061   20.8516 C   0  0  0  0  0  0  0  0  0  0  0  0
  -28.0605  -16.4239   18.4294 C   0  0  0  0  0  0  0  0  0  0  0  0
  -18.7744  -32.0126   23.8618 C   0  0  0  0  0  0  0  0  0  0  0  0
  -23.2407  -27.3499   23.0058 C   0  0  0  0  0  0  0  0  0  0  0  0
  -24.7375  -27.5469   20.4630 C   0  0  0  0  0  0  0  0  0  0  0  0
  -20.1963  -32.3263   23.4034 C   0  0  0  0  0  0  0  0  0  0  0  0
  -27.4493  -13.3747   16.7006 C   0  0  0  0  0  0  0  0  0  0  0  0
  -20.4252  -31.8138   21.9850 C   0  0  0  0  0  0  0  0  0  0  0  0
  -26.9769  -12.4242   17.7998 C   0  0  0  0  0  0  0  0  0  0  0  0
  -26.9497  -14.7943   16.9449 C   0  0  0  0  0  0  0  0  0  0  0  0
  -26.8736  -14.3993   19.3914 C   0  0  0  0  0  0  0  0  0  0  0  0
  -20.2637  -30.2904   21.9161 C   0  0  1  0  0  0  0  0  0  0  0  0
  -23.6730  -28.6951   22.4305 C   0  0  1  0  0  0  0  0  0  0  0  0
  -27.3669  -12.9549   19.1902 C   0  0  1  0  0  0  0  0  0  0  0  0
  -26.5564  -17.3792   21.7306 C   0  0  0  0  0  0  0  0  0  0  0  0
  -31.2396  -28.4161   20.7959 C   0  0  0  0  0  0  0  0  0  0  0  0
  -22.8856  -15.5103   19.0841 C   0  0  0  0  0  0  0  0  0  0  0  0
  -23.0254  -16.4337   16.7586 C   0  0  0  0  0  0  0  0  0  0  0  0
  -25.4863  -31.1239   18.9415 C   0  0  0  0  0  0  0  0  0  0  0  0
  -27.9021  -30.6782   18.4580 C   0  0  0  0  0  0  0  0  0  0  0  0
  -27.2585  -31.9998   20.4735 C   0  0  0  0  0  0  0  0  0  0  0  0
  -28.9516  -17.8663   20.2388 C   0  0  0  0  0  0  0  0  0  0  0  0
  -29.2736  -25.9178   22.8861 C   0  0  0  0  0  0  0  0  0  0  0  0
  -25.5277  -17.9611   17.5011 C   0  0  0  0  0  0  0  0  0  0  0  0
  -26.8337  -29.5077   20.4378 C   0  0  1  0  0  0  0  0  0  0  0  0
  -30.0659  -27.9256   21.6291 C   0  0  2  0  0  0  0  0  0  0  0  0
  -23.4485  -16.6395   18.2167 C   0  0  0  0  0  0  0  0  0  0  0  0
  -24.9785  -16.8012   18.3297 C   0  0  2  0  0  0  0  0  0  0  0  0
  -26.8521  -30.8059   19.5823 C   0  0  0  0  0  0  0  0  0  0  0  0
  -25.7430  -11.3569   20.1347 N   0  0  0  0  0  0  0  0  0  0  0  0
  -26.8889  -12.0390   20.3017 N   0  0  0  0  0  0  0  0  0  0  0  0
  -24.8067  -28.5785   21.5111 N   0  0  0  0  0  0  0  0  0  0  0  0
  -27.3092  -15.2585   18.2834 N   0  0  0  0  0  0  0  0  0  0  0  0
  -28.6590  -12.4125   21.8307 N   0  0  0  0  0  0  0  0  0  0  0  0
  -26.0100   -9.4693   24.0024 N   0  0  0  0  0  0  0  0  0  0  0  0
  -24.6593  -19.1077   17.5548 N   0  0  0  0  0  0  0  0  0  0  0  0
  -21.4419  -29.6331   22.4397 N   0  0  0  0  0  0  0  0  0  0  0  0
  -28.1067  -29.1964   21.0788 N   0  0  0  0  0  0  0  0  0  0  0  0
  -27.7774  -17.1840   19.6315 N   0  0  0  0  0  0  0  0  0  0  0  0
  -25.3431  -17.0209   19.7302 N   0  3  0  0  0  0  0  0  0  0  0  0
  -30.3371  -26.5192   22.0409 N   0  3  0  0  0  0  0  0  0  0  0  0
  -27.9353  -10.7057   24.1544 O   0  0  0  0  0  0  0  0  0  0  0  0
  -25.6401  -20.0995   19.4121 O   0  0  0  0  0  0  0  0  0  0  0  0
  -22.7313  -29.6778   20.5012 O   0  0  0  0  0  0  0  0  0  0  0  0
  -25.8918  -30.4381   22.4059 O   0  0  0  0  0  0  0  0  0  0  0  0
  -28.3727  -27.1049   20.1135 O   0  0  0  0  0  0  0  0  0  0  0  0
  -28.8889  -16.8662   17.6422 O   0  0  0  0  0  0  0  0  0  0  0  0
  -21.2540   -7.2865   22.0916 O   0  0  0  0  0  0  0  0  0  0  0  0
  -22.8627  -23.2179   19.1344 O   0  0  0  0  0  0  0  0  0  1  0  0
  -22.2483   -2.2821   24.1823 F   0  0  0  0  0  0  0  0  0  0  0  0
  -20.5743   -5.0030   20.6895 F   0  0  0  0  0  0  0  0  0  0  0  0
  1  2  1  0  0  0  0
  1  5  2  0  0  0  0
  2  6  2  0  0  0  0
  3  8  2  0  0  0  0
  3 15  1  0  0  0  0
  4  9  1  0  0  0  0
  4 15  2  0  0  0  0
  5 17  1  0  0  0  0
  6 19  1  0  0  0  0
  7 10  2  0  0  0  0
  7 18  1  0  0  0  0
  8 21  1  0  0  0  0
  9 21  2  0  0  0  0
 10 22  1  0  0  0  0
 11 12  2  0  0  0  0
 11 23  1  0  0  0  0
 12 24  1  0  0  0  0
 13 20  1  0  0  0  0
 13 22  2  0  0  0  0
 14 24  2  0  0  0  0
 14 25  1  0  0  0  0
 15 26  1  0  0  0  0
 16 26  1  0  0  0  0
 16 27  2  0  0  0  0
 16 30  1  0  0  0  0
 17 19  2  0  0  0  0
 17 37  1  0  0  0  0
 18 20  2  0  0  0  0
 18 38  1  0  0  0  0
 19 46  1  0  0  0  0
 20 39  1  0  0  0  0
 21 82  1  0  0  0  0
 22 83  1  0  0  0  0
 23 25  2  0  0  0  0
 23 82  1  0  0  0  0
 24 84  1  0  0  0  0
 25 85  1  0  0  0  0
 26 64  2  0  0  0  0
 27 65  1  0  0  0  0
 27 68  1  0  0  0  0
 28 29  2  0  0  0  0
 28 31  1  0  0  0  0
 29 83  1  0  0  0  0
 30 69  1  0  0  0  0
 30 76  2  0  0  0  0
 31 70  1  0  0  0  0
 31 77  2  0  0  0  0
 32 47  1  0  0  0  0
 32 71  1  0  0  0  0
 32 78  2  0  0  0  0
 33 59  1  0  0  0  0
 33 66  1  0  0  0  0
 33 79  2  0  0  0  0
 34 49  1  0  0  0  0
 34 73  1  0  0  0  0
 34 74  2  0  0  0  0
 35 60  1  0  0  0  0
 35 72  1  0  0  0  0
 35 80  2  0  0  0  0
 36 67  1  0  0  0  0
 36 73  1  0  0  0  0
 36 81  2  0  0  0  0
 37 40  1  0  0  0  0
 38 47  1  0  0  0  0
 39 66  1  0  0  0  0
 40 42  1  0  0  0  0
 41 43  1  0  0  0  0
 41 44  1  0  0  0  0
 42 46  1  0  0  0  0
 43 48  1  0  0  0  0
 44 67  1  0  0  0  0
 45 48  1  0  0  0  0
 45 67  1  0  0  0  0
 46 71  1  0  0  0  0
 47 66  1  0  0  0  0
 48 65  1  0  0  0  0
 50 60  1  0  0  0  0
 51 61  1  0  0  0  0
 52 61  1  0  0  0  0
 53 63  1  0  0  0  0
 54 63  1  0  0  0  0
 55 63  1  0  0  0  0
 56 73  1  0  0  0  0
 57 75  1  0  0  0  0
 58 62  1  0  0  0  0
 58 70  1  0  0  0  0
 59 63  1  0  0  0  0
 59 72  1  0  0  0  0
 60 75  1  0  0  0  0
 61 62  1  0  0  0  0
 62 74  1  0  0  0  0
 64 65  1  0  0  0  0
M  CHG  2  74   1  75   1
M  ISO  4  29 101  36 100  73 100  83 101
M  END
> <Batch ID>
0073

> <Smiles>
CNC(C)C(=O)NC(C(=O)N1Cc2cc([101O:1][101CH:1]=CC(=O)NCC(N=C(C)[100N:0](C)[100C:0](=O)N3CCCC(n4nc(-c5ccc(Oc6ccc(F)cc6F)cc5)c(C(N)=O)c4N)C3)C(C)C)ccc2CC1C(=O)NC1CCCc2ccccc21)C(C)(C)C

> <Shape>
0.247

> <Color>
0.105

> <Negative vol penalty>
0.000

$$$$

  -OEChem-04042323413D

 86 95  0     1  0  0  0  0  0999 V2000
  -15.0053  -27.4764   24.1126 C   0  0  0  0  0  0  0  0  0  0  0  0
  -15.5452  -26.4992   23.2826 C   0  0  0  0  0  0  0  0  0  0  0  0
  -25.1851  -14.5264   19.0827 C   0  0  0  0  0  0  0  0  0  0  0  0
  -24.5141  -14.3393   21.3961 C   0  0  0  0  0  0  0  0  0  0  0  0
  -15.7286  -28.6374   24.3826 C   0  0  0  0  0  0  0  0  0  0  0  0
  -16.8083  -26.6829   22.7211 C   0  0  0  0  0  0  0  0  0  0  0  0
  -22.6058  -22.9967   20.6919 C   0  0  0  0  0  0  0  0  0  0  0  0
  -30.2693  -20.3575   19.2070 C   0  0  0  0  0  0  0  0  0  0  0  0
  -31.2692  -19.4694   19.6032 C   0  0  0  0  0  0  0  0  0  0  0  0
  -24.4583  -13.3753   18.7787 C   0  0  0  0  0  0  0  0  0  0  0  0
  -23.7872  -13.1883   21.0921 C   0  0  0  0  0  0  0  0  0  0  0  0
  -23.4423  -22.8259   19.5897 C   0  0  0  0  0  0  0  0  0  0  0  0
  -24.4221   -9.9129   20.5445 C   0  0  0  0  0  0  0  0  0  0  0  0
  -24.5479   -8.8213   21.4036 C   0  0  0  0  0  0  0  0  0  0  0  0
  -24.6335  -24.8358   20.1901 C   0  0  0  0  0  0  0  0  0  0  0  0
  -29.4983  -18.7585   17.5681 C   0  0  0  0  0  0  0  0  0  0  0  0
  -22.1760   -8.9036   21.8557 C   0  0  0  0  0  0  0  0  0  0  0  0
  -25.2131  -15.0084   20.3913 C   0  0  0  0  0  0  0  0  0  0  0  0
  -25.5021  -17.5265   20.6797 C   0  0  0  0  0  0  0  0  0  0  0  0
  -17.0053  -28.8311   23.8320 C   0  0  0  0  0  0  0  0  0  0  0  0
  -22.7702  -24.0961   21.5468 C   0  0  0  0  0  0  0  0  0  0  0  0
  -17.5488  -27.8482   22.9829 C   0  0  0  0  0  0  0  0  0  0  0  0
  -23.7994  -25.0169   21.3039 C   0  0  0  0  0  0  0  0  0  0  0  0
  -30.4983  -17.8704   17.9642 C   0  0  0  0  0  0  0  0  0  0  0  0
  -29.3838  -20.0021   18.1895 C   0  0  0  0  0  0  0  0  0  0  0  0
  -31.3838  -18.2259   18.9818 C   0  0  0  0  0  0  0  0  0  0  0  0
  -23.7593  -12.7063   19.7835 C   0  0  0  0  0  0  0  0  0  0  0  0
  -24.4545  -23.7472   19.3370 C   0  0  0  0  0  0  0  0  0  0  0  0
  -23.1732  -10.5000   20.3410 C   0  0  0  0  0  0  0  0  0  0  0  0
  -23.4249   -8.3166   22.0591 C   0  0  0  0  0  0  0  0  0  0  0  0
  -22.0502   -9.9953   20.9966 C   0  0  0  0  0  0  0  0  0  0  0  0
  -25.9642  -16.1970   20.7060 C   0  0  0  0  0  0  0  0  0  0  0  0
  -26.5899  -18.2756   21.0566 C   0  0  0  0  0  0  0  0  0  0  0  0
  -28.0610  -22.1227   18.2259 C   0  0  0  0  0  0  0  0  0  0  0  0
  -24.2055  -18.0385   20.3445 C   0  0  0  0  0  0  0  0  0  0  0  0
  -20.9656  -26.5744   22.3863 C   0  0  0  0  0  0  0  0  0  0  0  0
  -23.3974  -27.1463   24.4555 C   0  0  0  0  0  0  0  0  0  0  0  0
  -26.6944  -26.7367   25.2358 C   0  0  0  0  0  0  0  0  0  0  0  0
  -32.5285  -16.8285   20.7219 C   0  0  0  0  0  0  0  0  0  0  0  0
  -17.7293  -30.1236   24.1147 C   0  0  0  0  0  0  0  0  0  0  0  0
  -21.8765  -24.2514   22.7466 C   0  0  0  0  0  0  0  0  0  0  0  0
  -24.0307  -26.2031   22.2028 C   0  0  0  0  0  0  0  0  0  0  0  0
  -19.2181  -30.0734   23.7810 C   0  0  0  0  0  0  0  0  0  0  0  0
  -30.6069  -18.0529   23.6376 C   0  0  0  0  0  0  0  0  0  0  0  0
  -19.4365  -29.4456   22.4081 C   0  0  0  0  0  0  0  0  0  0  0  0
  -29.1626  -17.7487   23.2441 C   0  0  0  0  0  0  0  0  0  0  0  0
  -31.5867  -17.0750   22.9962 C   0  0  0  0  0  0  0  0  0  0  0  0
  -30.0204  -16.6973   21.1133 C   0  0  0  0  0  0  0  0  0  0  0  0
  -27.3593  -20.7583   16.7819 C   0  0  0  0  0  0  0  0  0  0  0  0
  -18.9263  -27.9999   22.3750 C   0  0  1  0  0  0  0  0  0  0  0  0
  -21.8077  -25.6869   23.2585 C   0  0  1  0  0  0  0  0  0  0  0  0
  -29.0174  -17.6934   21.7143 C   0  0  1  0  0  0  0  0  0  0  0  0
  -26.8957  -22.1870   17.1970 C   0  0  2  0  0  0  0  0  0  0  0  0
  -30.5966  -16.5442   17.2829 C   0  0  0  0  0  0  0  0  0  0  0  0
  -27.0800  -23.2525   16.1221 C   0  0  0  0  0  0  0  0  0  0  0  0
  -28.3989  -27.3514   26.9719 C   0  0  0  0  0  0  0  0  0  0  0  0
  -23.5400  -29.9714   23.3116 C   0  0  0  0  0  0  0  0  0  0  0  0
  -25.7995  -30.2083   24.3636 C   0  0  0  0  0  0  0  0  0  0  0  0
  -23.7913  -29.8380   25.7962 C   0  0  0  0  0  0  0  0  0  0  0  0
  -33.5582  -17.1122   18.5104 C   0  0  0  0  0  0  0  0  0  0  0  0
  -27.1968  -23.9000   25.9140 C   0  0  0  0  0  0  0  0  0  0  0  0
  -25.5199  -22.2451   17.8321 C   0  0  0  0  0  0  0  0  0  1  0  0
  -24.6865  -27.9300   24.3998 C   0  0  1  0  0  0  0  0  0  0  0  0
  -27.3800  -26.3154   26.5230 C   0  0  2  0  0  0  0  0  0  0  0  0
  -24.4490  -29.4657   24.4496 C   0  0  0  0  0  0  0  0  0  0  0  0
  -27.2458  -16.1037   21.0707 N   0  0  0  0  0  0  0  0  0  0  0  0
  -27.5982  -17.3841   21.2769 N   0  0  0  0  0  0  0  0  0  0  0  0
  -28.3962  -20.8768   17.8009 N   0  0  0  0  0  0  0  0  0  0  0  0
  -23.1267  -26.3148   23.3594 N   0  0  0  0  0  0  0  0  0  0  0  0
  -31.3966  -16.9879   21.5475 N   0  0  0  0  0  0  0  0  0  0  0  0
  -26.7726  -19.6034   21.2177 N   0  0  0  0  0  0  0  0  0  0  0  0
  -23.2024  -17.1303   19.9793 N   0  0  0  0  0  0  0  0  0  0  0  0
  -19.8683  -27.1164   23.0280 N   0  0  0  0  0  0  0  0  0  0  0  0
  -25.5217  -27.4191   25.4814 N   0  0  0  0  0  0  0  0  0  0  0  0
  -32.4236  -17.3211   19.4072 N   0  0  0  0  0  0  0  0  0  0  0  0
  -28.0837  -25.0155   26.3336 N   0  3  0  0  0  0  0  0  0  0  0  0
  -28.5187  -22.8541   19.0743 O   0  0  0  0  0  0  0  0  0  0  0  0
  -23.9488  -19.2663   20.3522 O   0  0  0  0  0  0  0  0  0  0  0  0
  -21.2882  -26.7553   21.2180 O   0  0  0  0  0  0  0  0  0  0  0  0
  -22.6613  -27.2620   25.4385 O   0  0  0  0  0  0  0  0  0  0  0  0
  -27.1550  -26.4886   24.1237 O   0  0  0  0  0  0  0  0  0  0  0  0
  -33.5440  -16.2382   21.1106 O   0  0  0  0  0  0  0  0  0  0  0  0
  -23.0497  -11.5832   19.4872 O   0  0  0  0  0  0  0  0  0  0  0  0
  -25.2720  -23.5832   18.2615 O   0  0  0  0  0  0  0  0  0  1  0  0
  -23.5457   -7.2673   22.8829 F   0  0  0  0  0  0  0  0  0  0  0  0
  -20.8475  -10.5543   20.8042 F   0  0  0  0  0  0  0  0  0  0  0  0
  1  2  1  0  0  0  0
  1  5  2  0  0  0  0
  2  6  2  0  0  0  0
  3 10  2  0  0  0  0
  3 18  1  0  0  0  0
  4 11  1  0  0  0  0
  4 18  2  0  0  0  0
  5 20  1  0  0  0  0
  6 22  1  0  0  0  0
  7 12  2  0  0  0  0
  7 21  1  0  0  0  0
  8  9  2  0  0  0  0
  8 25  1  0  0  0  0
  9 26  1  0  0  0  0
 10 27  1  0  0  0  0
 11 27  2  0  0  0  0
 12 28  1  0  0  0  0
 13 14  2  0  0  0  0
 13 29  1  0  0  0  0
 14 30  1  0  0  0  0
 15 23  1  0  0  0  0
 15 28  2  0  0  0  0
 16 24  1  0  0  0  0
 16 25  2  0  0  0  0
 17 30  2  0  0  0  0
 17 31  1  0  0  0  0
 18 32  1  0  0  0  0
 19 32  1  0  0  0  0
 19 33  2  0  0  0  0
 19 35  1  0  0  0  0
 20 22  2  0  0  0  0
 20 40  1  0  0  0  0
 21 23  2  0  0  0  0
 21 41  1  0  0  0  0
 22 50  1  0  0  0  0
 23 42  1  0  0  0  0
 24 26  2  0  0  0  0
 24 54  1  0  0  0  0
 25 68  1  0  0  0  0
 26 75  1  0  0  0  0
 27 83  1  0  0  0  0
 28 84  1  0  0  0  0
 29 31  2  0  0  0  0
 29 83  1  0  0  0  0
 30 85  1  0  0  0  0
 31 86  1  0  0  0  0
 32 66  2  0  0  0  0
 33 67  1  0  0  0  0
 33 71  1  0  0  0  0
 34 53  1  0  0  0  0
 34 68  1  0  0  0  0
 34 77  2  0  0  0  0
 35 72  1  0  0  0  0
 35 78  2  0  0  0  0
 36 51  1  0  0  0  0
 36 73  1  0  0  0  0
 36 79  2  0  0  0  0
 37 63  1  0  0  0  0
 37 69  1  0  0  0  0
 37 80  2  0  0  0  0
 38 64  1  0  0  0  0
 38 74  1  0  0  0  0
 38 81  2  0  0  0  0
 39 70  1  0  0  0  0
 39 75  1  0  0  0  0
 39 82  2  0  0  0  0
 40 43  1  0  0  0  0
 41 51  1  0  0  0  0
 42 69  1  0  0  0  0
 43 45  1  0  0  0  0
 44 46  1  0  0  0  0
 44 47  1  0  0  0  0
 45 50  1  0  0  0  0
 46 52  1  0  0  0  0
 47 70  1  0  0  0  0
 48 52  1  0  0  0  0
 48 70  1  0  0  0  0
 49 53  1  0  0  0  0
 49 68  1  0  0  0  0
 50 73  1  0  0  0  0
 51 69  1  0  0  0  0
 52 67  1  0  0  0  0
 53 55  1  0  0  0  0
 53 62  1  0  0  0  0
 56 64  1  0  0  0  0
 57 65  1  0  0  0  0
 58 65  1  0  0  0  0
 59 65  1  0  0  0  0
 60 75  1  0  0  0  0
 61 76  1  0  0  0  0
 62 84  1  0  0  0  0
 63 65  1  0  0  0  0
 63 74  1  0  0  0  0
 64 76  1  0  0  0  0
 66 67  1  0  0  0  0
M  CHG  1  76   1
M  ISO  4  39 100  62 101  75 100  84 101
M  END
> <Batch ID>
0073

> <Smiles>
CNC(C)C(=O)NC(C(=O)N1Cc2cc([101O:1][101CH2:1]C3(C)CN(c4ccc([100N:0](C)[100C:0](=O)N5CCCC(n6nc(-c7ccc(Oc8ccc(F)cc8F)cc7)c(C(N)=O)c6N)C5)c(C)c4)C3=O)ccc2CC1C(=O)NC1CCCc2ccccc21)C(C)(C)C

> <Shape>
0.195

> <Color>
0.048

> <Negative vol penalty>
0.000

$$$$
