
  -OEChem-04042323443D

 85 94  0     1  0  0  0  0  0999 V2000
  -17.3361  -11.4760   24.4066 C   0  0  0  0  0  0  0  0  0  0  0  0
  -18.7082  -11.5600   24.6202 C   0  0  0  0  0  0  0  0  0  0  0  0
  -32.6526  -17.4890   23.4577 C   0  0  0  0  0  0  0  0  0  0  0  0
  -23.0752   -9.8688   19.9402 C   0  0  0  0  0  0  0  0  0  0  0  0
  -23.8347   -9.8746   22.2337 C   0  0  0  0  0  0  0  0  0  0  0  0
  -16.5776  -12.6400   24.2886 C   0  0  0  0  0  0  0  0  0  0  0  0
  -19.3229  -12.8080   24.7147 C   0  0  0  0  0  0  0  0  0  0  0  0
  -24.7382  -16.1274   28.0272 C   0  0  0  0  0  0  0  0  0  0  0  0
  -31.8550  -18.3556   24.2049 C   0  0  0  0  0  0  0  0  0  0  0  0
  -32.0645  -16.6055   22.5526 C   0  0  0  0  0  0  0  0  0  0  0  0
  -22.3308   -8.7159   20.1896 C   0  0  0  0  0  0  0  0  0  0  0  0
  -23.0903   -8.7216   22.4831 C   0  0  0  0  0  0  0  0  0  0  0  0
  -25.8513  -16.9179   27.7446 C   0  0  0  0  0  0  0  0  0  0  0  0
  -19.8618   -7.9248   23.0848 C   0  0  0  0  0  0  0  0  0  0  0  0
  -19.1046   -7.8847   24.2556 C   0  0  0  0  0  0  0  0  0  0  0  0
  -24.4284  -18.8608   27.6043 C   0  0  0  0  0  0  0  0  0  0  0  0
  -29.8810  -17.4551   23.1420 C   0  0  0  0  0  0  0  0  0  0  0  0
  -20.3452   -5.9465   24.9915 C   0  0  0  0  0  0  0  0  0  0  0  0
  -23.8272  -10.4482   20.9623 C   0  0  0  0  0  0  0  0  0  0  0  0
  -24.1700  -12.9732   20.8433 C   0  0  0  0  0  0  0  0  0  0  0  0
  -17.1818  -13.9029   24.3914 C   0  0  0  0  0  0  0  0  0  0  0  0
  -23.4582  -16.6968   28.0898 C   0  0  0  0  0  0  0  0  0  0  0  0
  -18.5720  -13.9900   24.5966 C   0  0  0  0  0  0  0  0  0  0  0  0
  -23.3010  -18.0758   27.8904 C   0  0  0  0  0  0  0  0  0  0  0  0
  -30.4692  -18.3387   24.0471 C   0  0  0  0  0  0  0  0  0  0  0  0
  -30.6787  -16.5885   22.3948 C   0  0  0  0  0  0  0  0  0  0  0  0
  -22.3384   -8.1423   21.4610 C   0  0  0  0  0  0  0  0  0  0  0  0
  -25.6961  -18.2843   27.5302 C   0  0  0  0  0  0  0  0  0  0  0  0
  -20.8606   -6.9757   22.8673 C   0  0  0  0  0  0  0  0  0  0  0  0
  -19.3463   -6.8956   25.2089 C   0  0  0  0  0  0  0  0  0  0  0  0
  -21.1023   -5.9866   23.8206 C   0  0  0  0  0  0  0  0  0  0  0  0
  -24.5968  -11.6389   20.7051 C   0  0  0  0  0  0  0  0  0  0  0  0
  -25.2625  -13.7224   20.4805 C   0  0  0  0  0  0  0  0  0  0  0  0
  -28.2474  -19.3279   24.7653 C   0  0  0  0  0  0  0  0  0  0  0  0
  -22.8996  -13.4894   21.2622 C   0  0  0  0  0  0  0  0  0  0  0  0
  -20.7510  -16.3138   26.4687 C   0  0  0  0  0  0  0  0  0  0  0  0
  -19.5754  -18.3371   28.7151 C   0  0  0  0  0  0  0  0  0  0  0  0
  -20.1852  -20.7884   31.0100 C   0  0  0  0  0  0  0  0  0  0  0  0
  -30.7290  -14.7659   20.6565 C   0  0  0  0  0  0  0  0  0  0  0  0
  -16.3282  -15.1330   24.2100 C   0  0  0  0  0  0  0  0  0  0  0  0
  -22.2711  -15.8350   28.4222 C   0  0  0  0  0  0  0  0  0  0  0  0
  -21.9510  -18.7393   27.9666 C   0  0  0  0  0  0  0  0  0  0  0  0
  -16.9974  -16.4159   24.6961 C   0  0  0  0  0  0  0  0  0  0  0  0
  -29.6141  -12.3534   18.2870 C   0  0  0  0  0  0  0  0  0  0  0  0
  -18.4349  -16.4925   24.1915 C   0  0  0  0  0  0  0  0  0  0  0  0
  -28.1742  -12.0622   18.7163 C   0  0  0  0  0  0  0  0  0  0  0  0
  -29.0545  -20.6455   26.5801 C   0  0  0  0  0  0  0  0  0  0  0  0
  -30.5291  -12.5814   19.4889 C   0  0  0  0  0  0  0  0  0  0  0  0
  -30.2246  -20.1981   25.7251 C   0  0  0  0  0  0  0  0  0  0  0  0
  -28.6222  -13.3061   20.8702 C   0  0  0  0  0  0  0  0  0  0  0  0
  -19.2714  -15.3254   24.7296 C   0  0  1  0  0  0  0  0  0  0  0  0
  -20.9484  -16.4334   27.9534 C   0  0  1  0  0  0  0  0  0  0  0  0
  -27.6495  -13.1336   19.6922 C   0  0  2  0  0  0  0  0  0  0  0  0
  -27.8447  -20.5046   25.6528 C   0  0  1  0  0  0  0  0  0  0  0  0
  -27.6571  -21.7481   24.7758 C   0  0  0  0  0  0  0  0  0  0  0  0
  -19.0195  -22.2717   32.6648 C   0  0  0  0  0  0  0  0  0  0  0  0
  -18.5603  -20.0851   26.4295 C   0  0  0  0  0  0  0  0  0  0  0  0
  -18.2739  -21.9498   28.0754 C   0  0  0  0  0  0  0  0  0  0  0  0
  -16.9682  -19.8412   28.3427 C   0  0  0  0  0  0  0  0  0  0  0  0
  -21.7093  -19.6516   33.2780 C   0  0  0  0  0  0  0  0  0  0  0  0
  -26.5673  -20.2068   26.4342 C   0  0  0  0  0  0  0  0  0  1  0  0
  -19.4467  -19.8360   28.8416 C   0  0  1  0  0  0  0  0  0  0  0  0
  -19.7418  -20.9503   32.4528 C   0  0  2  0  0  0  0  0  0  0  0  0
  -18.3376  -20.4155   27.9189 C   0  0  0  0  0  0  0  0  0  0  0  0
  -25.8616  -11.5427   20.2870 N   0  0  0  0  0  0  0  0  0  0  0  0
  -26.2391  -12.8262   20.1592 N   0  0  0  0  0  0  0  0  0  0  0  0
  -29.6533  -19.2264   24.8120 N   0  0  0  0  0  0  0  0  0  0  0  0
  -20.8201  -17.8531   28.2882 N   0  0  0  0  0  0  0  0  0  0  0  0
  -29.9704  -13.6121   20.3666 N   0  0  0  0  0  0  0  0  0  0  0  0
  -25.4734  -15.0539   20.4081 N   0  0  0  0  0  0  0  0  0  0  0  0
  -21.8873  -12.5805   21.5990 N   0  0  0  0  0  0  0  0  0  0  0  0
  -30.0819  -15.6909   21.4751 N   0  0  0  0  0  0  0  0  0  0  0  0
  -19.6473  -15.5655   26.1063 N   0  0  0  0  0  0  0  0  0  0  0  0
  -19.2473  -20.1103   30.2605 N   0  0  0  0  0  0  0  0  0  0  0  0
  -20.9198  -20.9070   33.3646 N   0  3  0  0  0  0  0  0  0  0  0  0
  -27.4411  -18.6788   24.1134 O   0  0  0  0  0  0  0  0  0  0  0  0
  -22.6638  -14.7201   21.3200 O   0  0  0  0  0  0  0  0  0  0  0  0
  -21.5407  -16.8612   25.7082 O   0  0  0  0  0  0  0  0  0  0  0  0
  -18.6094  -17.6218   28.9920 O   0  0  0  0  0  0  0  0  0  0  0  0
  -21.2548  -21.2234   30.5890 O   0  0  0  0  0  0  0  0  0  0  0  0
  -31.8583  -14.9344   20.1891 O   0  0  0  0  0  0  0  0  0  0  0  0
  -21.6119   -7.0173   21.7048 O   0  0  0  0  0  0  0  0  0  0  0  0
  -26.7809  -19.0581   27.2535 O   0  0  0  0  0  0  0  0  0  1  0  0
  -18.6202   -6.8581   26.3339 F   0  0  0  0  0  0  0  0  0  0  0  0
  -22.0613   -5.0728   23.6178 F   0  0  0  0  0  0  0  0  0  0  0  0
  1  2  1  0  0  0  0
  1  6  2  0  0  0  0
  2  7  2  0  0  0  0
  3  9  2  0  0  0  0
  3 10  1  0  0  0  0
  4 11  2  0  0  0  0
  4 19  1  0  0  0  0
  5 12  1  0  0  0  0
  5 19  2  0  0  0  0
  6 21  1  0  0  0  0
  7 23  1  0  0  0  0
  8 13  2  0  0  0  0
  8 22  1  0  0  0  0
  9 25  1  0  0  0  0
 10 26  2  0  0  0  0
 11 27  1  0  0  0  0
 12 27  2  0  0  0  0
 13 28  1  0  0  0  0
 14 15  2  0  0  0  0
 14 29  1  0  0  0  0
 15 30  1  0  0  0  0
 16 24  1  0  0  0  0
 16 28  2  0  0  0  0
 17 25  2  0  0  0  0
 17 26  1  0  0  0  0
 18 30  2  0  0  0  0
 18 31  1  0  0  0  0
 19 32  1  0  0  0  0
 20 32  1  0  0  0  0
 20 33  2  0  0  0  0
 20 35  1  0  0  0  0
 21 23  2  0  0  0  0
 21 40  1  0  0  0  0
 22 24  2  0  0  0  0
 22 41  1  0  0  0  0
 23 51  1  0  0  0  0
 24 42  1  0  0  0  0
 25 67  1  0  0  0  0
 26 72  1  0  0  0  0
 27 82  1  0  0  0  0
 28 83  1  0  0  0  0
 29 31  2  0  0  0  0
 29 82  1  0  0  0  0
 30 84  1  0  0  0  0
 31 85  1  0  0  0  0
 32 65  2  0  0  0  0
 33 66  1  0  0  0  0
 33 70  1  0  0  0  0
 34 54  1  0  0  0  0
 34 67  1  0  0  0  0
 34 76  2  0  0  0  0
 35 71  1  0  0  0  0
 35 77  2  0  0  0  0
 36 52  1  0  0  0  0
 36 73  1  0  0  0  0
 36 78  2  0  0  0  0
 37 62  1  0  0  0  0
 37 68  1  0  0  0  0
 37 79  2  0  0  0  0
 38 63  1  0  0  0  0
 38 74  1  0  0  0  0
 38 80  2  0  0  0  0
 39 69  1  0  0  0  0
 39 72  1  0  0  0  0
 39 81  2  0  0  0  0
 40 43  1  0  0  0  0
 41 52  1  0  0  0  0
 42 68  1  0  0  0  0
 43 45  1  0  0  0  0
 44 46  1  0  0  0  0
 44 48  1  0  0  0  0
 45 51  1  0  0  0  0
 46 53  1  0  0  0  0
 47 49  1  0  0  0  0
 47 54  1  0  0  0  0
 48 69  1  0  0  0  0
 49 67  1  0  0  0  0
 50 53  1  0  0  0  0
 50 69  1  0  0  0  0
 51 73  1  0  0  0  0
 52 68  1  0  0  0  0
 53 66  1  0  0  0  0
 54 55  1  0  0  0  0
 54 61  1  0  0  0  0
 56 63  1  0  0  0  0
 57 64  1  0  0  0  0
 58 64  1  0  0  0  0
 59 64  1  0  0  0  0
 60 75  1  0  0  0  0
 61 83  1  0  0  0  0
 62 64  1  0  0  0  0
 62 74  1  0  0  0  0
 63 75  1  0  0  0  0
 65 66  1  0  0  0  0
M  CHG  1  75   1
M  ISO  4  39 100  61 101  72 100  83 101
M  END
> <Batch ID>
0074

> <Smiles>
CNC(C)C(=O)NC(C(=O)N1Cc2cc([101O:1][101CH2:1]C3(C)CCN(c4cccc([100NH:0][100C:0](=O)N5CCCC(n6nc(-c7ccc(Oc8ccc(F)cc8F)cc7)c(C(N)=O)c6N)C5)c4)C3=O)ccc2CC1C(=O)NC1CCCc2ccccc21)C(C)(C)C

> <Shape>
0.165

> <Color>
0.192

> <Negative vol penalty>
0.000

$$$$

  -OEChem-04042323443D

 89 98  0     1  0  0  0  0  0999 V2000
  -22.9728  -18.5122   13.0210 C   0  0  0  0  0  0  0  0  0  0  0  0
  -22.5186  -19.7825   13.3605 C   0  0  0  0  0  0  0  0  0  0  0  0
  -17.3417  -23.5148   22.2033 C   0  0  0  0  0  0  0  0  0  0  0  0
  -24.9047  -14.8114   19.9435 C   0  0  0  0  0  0  0  0  0  0  0  0
  -23.3095  -14.2079   21.6547 C   0  0  0  0  0  0  0  0  0  0  0  0
  -23.8615  -17.8431   13.8614 C   0  0  0  0  0  0  0  0  0  0  0  0
  -22.9522  -20.3842   14.5414 C   0  0  0  0  0  0  0  0  0  0  0  0
  -24.4782  -26.8188   17.2952 C   0  0  0  0  0  0  0  0  0  0  0  0
  -17.6567  -24.8736   22.1960 C   0  0  0  0  0  0  0  0  0  0  0  0
  -18.2771  -22.5845   22.6563 C   0  0  0  0  0  0  0  0  0  0  0  0
  -25.4408  -13.5246   19.9893 C   0  0  0  0  0  0  0  0  0  0  0  0
  -23.8455  -12.9210   21.7005 C   0  0  0  0  0  0  0  0  0  0  0  0
  -24.1686  -27.6219   18.3920 C   0  0  0  0  0  0  0  0  0  0  0  0
  -23.6498  -10.0769   19.8857 C   0  0  0  0  0  0  0  0  0  0  0  0
  -22.7574   -9.0052   19.9087 C   0  0  0  0  0  0  0  0  0  0  0  0
  -25.7663  -26.4041   19.7273 C   0  0  0  0  0  0  0  0  0  0  0  0
  -19.8425  -24.3717   23.0946 C   0  0  0  0  0  0  0  0  0  0  0  0
  -23.6631   -8.2966   22.0335 C   0  0  0  0  0  0  0  0  0  0  0  0
  -23.8391  -15.1532   20.7762 C   0  0  0  0  0  0  0  0  0  0  0  0
  -22.2344  -16.9375   19.9109 C   0  0  0  0  0  0  0  0  0  0  0  0
  -24.3137  -18.4408   15.0484 C   0  0  0  0  0  0  0  0  0  0  0  0
  -25.4280  -25.7934   17.4095 C   0  0  0  0  0  0  0  0  0  0  0  0
  -23.8468  -19.7219   15.3992 C   0  0  0  0  0  0  0  0  0  0  0  0
  -26.0881  -25.5910   18.6298 C   0  0  0  0  0  0  0  0  0  0  0  0
  -18.9071  -25.3021   22.6416 C   0  0  0  0  0  0  0  0  0  0  0  0
  -19.5274  -23.0129   23.1020 C   0  0  0  0  0  0  0  0  0  0  0  0
  -24.9112  -12.5793   20.8678 C   0  0  0  0  0  0  0  0  0  0  0  0
  -24.8105  -27.4128   19.6090 C   0  0  0  0  0  0  0  0  0  0  0  0
  -24.5490  -10.2585   20.9366 C   0  0  0  0  0  0  0  0  0  0  0  0
  -22.7640   -8.1151   20.9826 C   0  0  0  0  0  0  0  0  0  0  0  0
  -24.5556   -9.3683   22.0105 C   0  0  0  0  0  0  0  0  0  0  0  0
  -23.2852  -16.4825   20.7297 C   0  0  0  0  0  0  0  0  0  0  0  0
  -22.0888  -18.2621   20.2435 C   0  0  0  0  0  0  0  0  0  0  0  0
  -20.3514  -28.6590   22.5296 C   0  0  0  0  0  0  0  0  0  0  0  0
  -18.9637  -28.9911   22.7338 C   0  0  0  0  0  0  0  0  0  0  0  0
  -20.5142  -27.1798   22.4661 C   0  0  0  0  0  0  0  0  0  0  0  0
  -21.4050  -29.4704   22.4034 C   0  0  0  0  0  0  0  0  0  0  0  0
  -18.4075  -30.2022   22.8447 C   0  0  0  0  0  0  0  0  0  0  0  0
  -21.4592  -16.2263   18.9367 C   0  0  0  0  0  0  0  0  0  0  0  0
  -22.7732  -28.9208   22.1961 C   0  0  0  0  0  0  0  0  0  0  0  0
  -25.3622  -22.6305   17.1012 C   0  0  0  0  0  0  0  0  0  0  0  0
  -28.5707  -22.9167   17.4837 C   0  0  0  0  0  0  0  0  0  0  0  0
  -31.1941  -24.7402   18.6833 C   0  0  0  0  0  0  0  0  0  0  0  0
  -21.7626  -22.3241   24.0379 C   0  0  0  0  0  0  0  0  0  0  0  0
  -25.2376  -17.6592   15.9486 C   0  0  0  0  0  0  0  0  0  0  0  0
  -25.7701  -24.9532   16.2098 C   0  0  0  0  0  0  0  0  0  0  0  0
  -27.1301  -24.5167   18.7991 C   0  0  0  0  0  0  0  0  0  0  0  0
  -18.2086  -27.6984   22.8051 C   0  0  0  0  0  0  0  0  0  0  0  0
  -25.9402  -18.5199   16.9953 C   0  0  0  0  0  0  0  0  0  0  0  0
  -25.0218  -21.2989   23.0358 C   0  0  0  0  0  0  0  0  0  0  0  0
  -24.9442  -19.4555   17.6731 C   0  0  0  0  0  0  0  0  0  0  0  0
  -24.7741  -19.9919   22.2792 C   0  0  0  0  0  0  0  0  0  0  0  0
  -24.0809  -21.4501   24.2298 C   0  0  0  0  0  0  0  0  0  0  0  0
  -22.4060  -19.9929   23.1618 C   0  0  0  0  0  0  0  0  0  0  0  0
  -24.3134  -20.4178   16.6594 C   0  0  1  0  0  0  0  0  0  0  0  0
  -26.3802  -23.6046   16.5792 C   0  0  1  0  0  0  0  0  0  0  0  0
  -23.2862  -19.8263   21.9124 C   0  0  2  0  0  0  0  0  0  0  0  0
  -16.9490  -30.4349   23.0562 C   0  0  0  0  0  0  0  0  0  0  0  0
  -33.6956  -24.6992   18.8793 C   0  0  0  0  0  0  0  0  0  0  0  0
  -28.3581  -20.8727   19.7392 C   0  0  0  0  0  0  0  0  0  0  0  0
  -30.6382  -21.5757   20.4973 C   0  0  0  0  0  0  0  0  0  0  0  0
  -30.3336  -20.5664   18.2365 C   0  0  0  0  0  0  0  0  0  0  0  0
  -31.4755  -27.2189   17.0908 C   0  0  0  0  0  0  0  0  0  0  0  0
  -23.1833  -28.7163   20.7531 C   0  0  0  0  0  0  0  0  0  1  0  0
  -29.5105  -22.9182   18.6651 C   0  0  1  0  0  0  0  0  0  0  0  0
  -32.5079  -25.1547   18.0457 C   0  0  2  0  0  0  0  0  0  0  0  0
  -29.6891  -21.5023   19.2822 C   0  0  0  0  0  0  0  0  0  0  0  0
  -23.7728  -17.4404   21.5228 N   0  0  0  0  0  0  0  0  0  0  0  0
  -23.0250  -18.5105   21.2037 N   0  0  0  0  0  0  0  0  0  0  0  0
  -19.2204  -26.6576   22.6345 N   0  0  0  0  0  0  0  0  0  0  0  0
  -27.4254  -23.7172   17.5986 N   0  0  0  0  0  0  0  0  0  0  0  0
  -22.6888  -21.2853   23.8058 N   0  0  0  0  0  0  0  0  0  0  0  0
  -21.2525  -19.2271   19.8053 N   0  0  0  0  0  0  0  0  0  0  0  0
  -21.7402  -14.8706   18.7195 N   0  0  0  0  0  0  0  0  0  0  0  0
  -20.4771  -22.0674   23.5622 N   0  0  0  0  0  0  0  0  0  0  0  0
  -25.2342  -21.4866   16.3365 N   0  0  0  0  0  0  0  0  0  0  0  0
  -30.7513  -23.5276   18.1988 N   0  0  0  0  0  0  0  0  0  0  0  0
  -32.5717  -26.6371   17.9074 N   0  3  0  0  0  0  0  0  0  0  0  0
  -21.5637  -26.5807   22.3016 O   0  0  0  0  0  0  0  0  0  0  0  0
  -20.5553  -16.7810   18.2667 O   0  0  0  0  0  0  0  0  0  0  0  0
  -23.5155  -28.6523   23.1368 O   0  0  0  0  0  0  0  0  0  0  0  0
  -24.7401  -22.8962   18.1229 O   0  0  0  0  0  0  0  0  0  0  0  0
  -28.8462  -22.2360   16.4926 O   0  0  0  0  0  0  0  0  0  0  0  0
  -30.6201  -25.4221   19.5296 O   0  0  0  0  0  0  0  0  0  0  0  0
  -22.0925  -23.3759   24.5918 O   0  0  0  0  0  0  0  0  0  0  0  0
  -25.4339  -11.3234   20.9126 O   0  0  0  0  0  0  0  0  0  0  0  0
  -24.5097  -28.1948   20.6813 O   0  0  0  0  0  0  0  0  0  1  0  0
  -21.9059   -7.0868   21.0053 F   0  0  0  0  0  0  0  0  0  0  0  0
  -25.4163   -9.5383   23.0235 F   0  0  0  0  0  0  0  0  0  0  0  0
  1  2  1  0  0  0  0
  1  6  2  0  0  0  0
  2  7  2  0  0  0  0
  3  9  2  0  0  0  0
  3 10  1  0  0  0  0
  4 11  2  0  0  0  0
  4 19  1  0  0  0  0
  5 12  1  0  0  0  0
  5 19  2  0  0  0  0
  6 21  1  0  0  0  0
  7 23  1  0  0  0  0
  8 13  2  0  0  0  0
  8 22  1  0  0  0  0
  9 25  1  0  0  0  0
 10 26  2  0  0  0  0
 11 27  1  0  0  0  0
 12 27  2  0  0  0  0
 13 28  1  0  0  0  0
 14 15  2  0  0  0  0
 14 29  1  0  0  0  0
 15 30  1  0  0  0  0
 16 24  1  0  0  0  0
 16 28  2  0  0  0  0
 17 25  2  0  0  0  0
 17 26  1  0  0  0  0
 18 30  2  0  0  0  0
 18 31  1  0  0  0  0
 19 32  1  0  0  0  0
 20 32  1  0  0  0  0
 20 33  2  0  0  0  0
 20 39  1  0  0  0  0
 21 23  2  0  0  0  0
 21 45  1  0  0  0  0
 22 24  2  0  0  0  0
 22 46  1  0  0  0  0
 23 55  1  0  0  0  0
 24 47  1  0  0  0  0
 25 70  1  0  0  0  0
 26 75  1  0  0  0  0
 27 86  1  0  0  0  0
 28 87  1  0  0  0  0
 29 31  2  0  0  0  0
 29 86  1  0  0  0  0
 30 88  1  0  0  0  0
 31 89  1  0  0  0  0
 32 68  2  0  0  0  0
 33 69  1  0  0  0  0
 33 73  1  0  0  0  0
 34 35  1  0  0  0  0
 34 36  1  0  0  0  0
 34 37  2  0  0  0  0
 35 38  2  0  0  0  0
 35 48  1  0  0  0  0
 36 70  1  0  0  0  0
 36 79  2  0  0  0  0
 37 40  1  0  0  0  0
 38 58  1  0  0  0  0
 39 74  1  0  0  0  0
 39 80  2  0  0  0  0
 40 64  1  0  0  0  0
 40 81  2  0  0  0  0
 41 56  1  0  0  0  0
 41 76  1  0  0  0  0
 41 82  2  0  0  0  0
 42 65  1  0  0  0  0
 42 71  1  0  0  0  0
 42 83  2  0  0  0  0
 43 66  1  0  0  0  0
 43 77  1  0  0  0  0
 43 84  2  0  0  0  0
 44 72  1  0  0  0  0
 44 75  1  0  0  0  0
 44 85  2  0  0  0  0
 45 49  1  0  0  0  0
 46 56  1  0  0  0  0
 47 71  1  0  0  0  0
 48 70  1  0  0  0  0
 49 51  1  0  0  0  0
 50 52  1  0  0  0  0
 50 53  1  0  0  0  0
 51 55  1  0  0  0  0
 52 57  1  0  0  0  0
 53 72  1  0  0  0  0
 54 57  1  0  0  0  0
 54 72  1  0  0  0  0
 55 76  1  0  0  0  0
 56 71  1  0  0  0  0
 57 69  1  0  0  0  0
 59 66  1  0  0  0  0
 60 67  1  0  0  0  0
 61 67  1  0  0  0  0
 62 67  1  0  0  0  0
 63 78  1  0  0  0  0
 64 87  1  0  0  0  0
 65 67  1  0  0  0  0
 65 77  1  0  0  0  0
 66 78  1  0  0  0  0
 68 69  1  0  0  0  0
M  CHG  1  78   1
M  ISO  4  44 100  64 101  75 100  87 101
M  END
> <Batch ID>
0074

> <Smiles>
CC=C1CN(c2cccc([100NH:0][100C:0](=O)N3CCCC(n4nc(-c5ccc(Oc6ccc(F)cc6F)cc5)c(C(N)=O)c4N)C3)c2)C(=O)C1=CC(=O)[101CH2:1][101O:1]c1ccc2c(c1)CN(C(=O)C(NC(=O)C(C)NC)C(C)(C)C)C(C(=O)NC1CCCc3ccccc31)C2

> <Shape>
0.206

> <Color>
0.081

> <Negative vol penalty>
0.000

$$$$

  -OEChem-04042323443D

 87 96  0     1  0  0  0  0  0999 V2000
  -28.4411  -37.0911   19.6668 C   0  0  0  0  0  0  0  0  0  0  0  0
  -28.7831  -35.7483   19.5425 C   0  0  0  0  0  0  0  0  0  0  0  0
  -22.6681  -12.6553   18.5453 C   0  0  0  0  0  0  0  0  0  0  0  0
  -22.5167  -11.4339   20.6243 C   0  0  0  0  0  0  0  0  0  0  0  0
  -30.0845  -18.5344   18.6163 C   0  0  0  0  0  0  0  0  0  0  0  0
  -27.5239  -37.4886   20.6387 C   0  0  0  0  0  0  0  0  0  0  0  0
  -28.2088  -34.8023   20.3909 C   0  0  0  0  0  0  0  0  0  0  0  0
  -26.7211  -29.0277   18.9960 C   0  0  0  0  0  0  0  0  0  0  0  0
  -29.4602  -19.7817   18.6214 C   0  0  0  0  0  0  0  0  0  0  0  0
  -21.5112  -12.0233   18.0897 C   0  0  0  0  0  0  0  0  0  0  0  0
  -21.3597  -10.8019   20.1687 C   0  0  0  0  0  0  0  0  0  0  0  0
  -27.3714  -27.8134   19.2114 C   0  0  0  0  0  0  0  0  0  0  0  0
  -18.0787  -11.5455   19.8487 C   0  0  0  0  0  0  0  0  0  0  0  0
  -17.0022  -11.4533   20.7309 C   0  0  0  0  0  0  0  0  0  0  0  0
  -26.0646  -27.4750   21.2106 C   0  0  0  0  0  0  0  0  0  0  0  0
  -30.3515  -20.2186   20.8242 C   0  0  0  0  0  0  0  0  0  0  0  0
  -17.0858   -9.0434   20.5808 C   0  0  0  0  0  0  0  0  0  0  0  0
  -23.1710  -12.3606   19.8125 C   0  0  0  0  0  0  0  0  0  0  0  0
  -30.8422  -18.1291   19.7151 C   0  0  0  0  0  0  0  0  0  0  0  0
  -24.4493  -14.2216   21.0000 C   0  0  0  0  0  0  0  0  0  0  0  0
  -26.9308  -36.5457   21.4931 C   0  0  0  0  0  0  0  0  0  0  0  0
  -25.7438  -29.4807   19.8938 C   0  0  0  0  0  0  0  0  0  0  0  0
  -27.2838  -35.1878   21.3761 C   0  0  0  0  0  0  0  0  0  0  0  0
  -25.4016  -28.6942   21.0030 C   0  0  0  0  0  0  0  0  0  0  0  0
  -30.9757  -18.9713   20.8190 C   0  0  0  0  0  0  0  0  0  0  0  0
  -29.5937  -20.6239   19.7254 C   0  0  0  0  0  0  0  0  0  0  0  0
  -20.8569  -11.0967   18.9014 C   0  0  0  0  0  0  0  0  0  0  0  0
  -27.0452  -27.0382   20.3203 C   0  0  0  0  0  0  0  0  0  0  0  0
  -18.6586  -10.3867   19.3324 C   0  0  0  0  0  0  0  0  0  0  0  0
  -16.5058  -10.2022   21.0970 C   0  0  0  0  0  0  0  0  0  0  0  0
  -18.1622   -9.1357   19.6985 C   0  0  0  0  0  0  0  0  0  0  0  0
  -24.3664  -13.0127   20.2835 C   0  0  0  0  0  0  0  0  0  0  0  0
  -25.7944  -14.4062   21.2074 C   0  0  0  0  0  0  0  0  0  0  0  0
  -28.1552  -23.6770   19.6783 C   0  0  0  0  0  0  0  0  0  0  0  0
  -28.1989  -22.4917   18.8211 C   0  0  0  0  0  0  0  0  0  0  0  0
  -27.5720  -24.8848   19.5745 C   0  0  0  0  0  0  0  0  0  1  0  0
  -31.4954  -16.7953   19.6826 C   0  0  0  0  0  0  0  0  0  0  0  0
  -23.4039  -15.0992   21.4389 C   0  0  0  0  0  0  0  0  0  0  0  0
  -25.4440  -32.0108   21.7943 C   0  0  0  0  0  0  0  0  0  0  0  0
  -22.4787  -30.7951   22.2956 C   0  0  0  0  0  0  0  0  0  0  0  0
  -20.4233  -28.0708   22.2781 C   0  0  0  0  0  0  0  0  0  0  0  0
  -31.0477  -14.3730   19.4468 C   0  0  0  0  0  0  0  0  0  0  0  0
  -25.9803  -37.0293   22.5596 C   0  0  0  0  0  0  0  0  0  0  0  0
  -25.0326  -30.7801   19.6328 C   0  0  0  0  0  0  0  0  0  0  0  0
  -24.3450  -29.1260   21.9857 C   0  0  0  0  0  0  0  0  0  0  0  0
  -29.0258  -22.9519   20.6788 C   0  0  0  0  0  0  0  0  0  0  0  0
  -25.1345  -35.9157   23.1719 C   0  0  0  0  0  0  0  0  0  0  0  0
  -29.7041  -11.2700   20.4779 C   0  0  0  0  0  0  0  0  0  0  0  0
  -26.0056  -34.7122   23.5175 C   0  0  0  0  0  0  0  0  0  0  0  0
  -28.2019  -11.5453   20.5869 C   0  0  0  0  0  0  0  0  0  0  0  0
  -30.3312  -12.0047   19.2938 C   0  0  0  0  0  0  0  0  0  0  0  0
  -28.5657  -13.7187   19.3509 C   0  0  0  0  0  0  0  0  0  0  0  0
  -26.6637  -34.1286   22.2614 C   0  0  1  0  0  0  0  0  0  0  0  0
  -24.4183  -31.3880   20.8900 C   0  0  1  0  0  0  0  0  0  0  0  0
  -27.9012  -13.0575   20.5692 C   0  0  1  0  0  0  0  0  0  0  0  0
  -18.0615  -27.3818   22.7727 C   0  0  0  0  0  0  0  0  0  0  0  0
  -23.0753  -30.9056   25.2859 C   0  0  0  0  0  0  0  0  0  0  0  0
  -21.1369  -29.3654   25.6587 C   0  0  0  0  0  0  0  0  0  0  0  0
  -20.7623  -31.6188   24.6566 C   0  0  0  0  0  0  0  0  0  0  0  0
  -19.9688  -27.2029   19.4854 C   0  0  0  0  0  0  0  0  0  0  0  0
  -31.7803  -18.5612   22.0091 C   0  0  0  0  0  0  0  0  0  0  0  0
  -21.8755  -29.8176   23.2752 C   0  0  1  0  0  0  0  0  0  0  0  0
  -19.0330  -27.8616   21.7056 C   0  0  2  0  0  0  0  0  0  0  0  0
  -21.7338  -30.4193   24.7018 C   0  0  0  0  0  0  0  0  0  0  0  0
  -25.5636  -12.4678   20.0512 N   0  0  0  0  0  0  0  0  0  0  0  0
  -26.4115  -13.3385   20.6249 N   0  0  0  0  0  0  0  0  0  0  0  0
  -28.9777  -21.8538   19.7296 N   0  0  0  0  0  0  0  0  0  0  0  0
  -23.6825  -30.4072   21.6906 N   0  0  0  0  0  0  0  0  0  0  0  0
  -30.0080  -13.4312   19.3558 N   0  0  0  0  0  0  0  0  0  0  0  0
  -26.4978  -15.3762   21.8294 N   0  0  0  0  0  0  0  0  0  0  0  0
  -22.0772  -14.7590   21.1416 N   0  0  0  0  0  0  0  0  0  0  0  0
  -30.6344  -15.7063   19.5438 N   0  0  0  0  0  0  0  0  0  0  0  0
  -25.7109  -33.3371   21.5129 N   0  0  0  0  0  0  0  0  0  0  0  0
  -20.6168  -29.3736   22.6862 N   0  0  0  0  0  0  0  0  0  0  0  0
  -33.2111  -18.9595   21.9177 N   0  3  0  0  0  0  0  0  0  0  0  0
  -19.0696  -26.8481   20.6135 N   0  3  0  0  0  0  0  0  0  0  0  0
  -27.7414  -22.1977   17.7363 O   0  0  0  0  0  0  0  0  0  0  0  0
  -32.7203  -16.7277   19.7374 O   0  0  0  0  0  0  0  0  0  0  0  0
  -23.6403  -16.1621   22.0617 O   0  0  0  0  0  0  0  0  0  0  0  0
  -25.9543  -31.3384   22.6826 O   0  0  0  0  0  0  0  0  0  0  0  0
  -21.8992  -31.8605   22.0701 O   0  0  0  0  0  0  0  0  0  0  0  0
  -21.2532  -27.1679   22.3589 O   0  0  0  0  0  0  0  0  0  0  0  0
  -32.2400  -14.0523   19.4778 O   0  0  0  0  0  0  0  0  0  0  0  0
  -19.7278  -10.4800   18.4572 O   0  0  0  0  0  0  0  0  0  0  0  0
  -27.6789  -25.8529   20.5332 O   0  0  0  0  0  0  0  0  0  1  0  0
  -15.4731  -10.1137   21.9454 F   0  0  0  0  0  0  0  0  0  0  0  0
  -18.7160   -8.0188   19.2067 F   0  0  0  0  0  0  0  0  0  0  0  0
  1  2  1  0  0  0  0
  1  6  2  0  0  0  0
  2  7  2  0  0  0  0
  3 10  2  0  0  0  0
  3 18  1  0  0  0  0
  4 11  1  0  0  0  0
  4 18  2  0  0  0  0
  5  9  2  0  0  0  0
  5 19  1  0  0  0  0
  6 21  1  0  0  0  0
  7 23  1  0  0  0  0
  8 12  2  0  0  0  0
  8 22  1  0  0  0  0
  9 26  1  0  0  0  0
 10 27  1  0  0  0  0
 11 27  2  0  0  0  0
 12 28  1  0  0  0  0
 13 14  2  0  0  0  0
 13 29  1  0  0  0  0
 14 30  1  0  0  0  0
 15 24  1  0  0  0  0
 15 28  2  0  0  0  0
 16 25  1  0  0  0  0
 16 26  2  0  0  0  0
 17 30  2  0  0  0  0
 17 31  1  0  0  0  0
 18 32  1  0  0  0  0
 19 25  2  0  0  0  0
 19 37  1  0  0  0  0
 20 32  1  0  0  0  0
 20 33  2  0  0  0  0
 20 38  1  0  0  0  0
 21 23  2  0  0  0  0
 21 43  1  0  0  0  0
 22 24  2  0  0  0  0
 22 44  1  0  0  0  0
 23 53  1  0  0  0  0
 24 45  1  0  0  0  0
 25 61  1  0  0  0  0
 26 67  1  0  0  0  0
 27 84  1  0  0  0  0
 28 85  1  0  0  0  0
 29 31  2  0  0  0  0
 29 84  1  0  0  0  0
 30 86  1  0  0  0  0
 31 87  1  0  0  0  0
 32 65  2  0  0  0  0
 33 66  1  0  0  0  0
 33 70  1  0  0  0  0
 34 35  1  0  0  0  0
 34 36  2  0  0  0  0
 34 46  1  0  0  0  0
 35 67  1  0  0  0  0
 35 77  2  0  0  0  0
 36 85  1  0  0  0  0
 37 72  1  0  0  0  0
 37 78  2  0  0  0  0
 38 71  1  0  0  0  0
 38 79  2  0  0  0  0
 39 54  1  0  0  0  0
 39 73  1  0  0  0  0
 39 80  2  0  0  0  0
 40 62  1  0  0  0  0
 40 68  1  0  0  0  0
 40 81  2  0  0  0  0
 41 63  1  0  0  0  0
 41 74  1  0  0  0  0
 41 82  2  0  0  0  0
 42 69  1  0  0  0  0
 42 72  1  0  0  0  0
 42 83  2  0  0  0  0
 43 47  1  0  0  0  0
 44 54  1  0  0  0  0
 45 68  1  0  0  0  0
 46 67  1  0  0  0  0
 47 49  1  0  0  0  0
 48 50  1  0  0  0  0
 48 51  1  0  0  0  0
 49 53  1  0  0  0  0
 50 55  1  0  0  0  0
 51 69  1  0  0  0  0
 52 55  1  0  0  0  0
 52 69  1  0  0  0  0
 53 73  1  0  0  0  0
 54 68  1  0  0  0  0
 55 66  1  0  0  0  0
 56 63  1  0  0  0  0
 57 64  1  0  0  0  0
 58 64  1  0  0  0  0
 59 64  1  0  0  0  0
 60 76  1  0  0  0  0
 61 75  1  0  0  0  0
 62 64  1  0  0  0  0
 62 74  1  0  0  0  0
 63 76  1  0  0  0  0
 65 66  1  0  0  0  0
M  CHG  2  75   1  76   1
M  ISO  4  36 101  42 100  72 100  85 101
M  END
> <Batch ID>
0074

> <Smiles>
CNC(C)C(=O)NC(C(=O)N1Cc2cc([101O:1][101CH:1]=C3CN(c4ccc(C(=O)[100NH:0][100C:0](=O)N5CCCC(n6nc(-c7ccc(Oc8ccc(F)cc8F)cc7)c(C(N)=O)c6N)C5)c(CN)c4)C3=O)ccc2CC1C(=O)NC1CCCc2ccccc21)C(C)(C)C

> <Shape>
0.286

> <Color>
0.087

> <Negative vol penalty>
0.000

$$$$

  -OEChem-04042323443D

 83 91  0     1  0  0  0  0  0999 V2000
  -25.9357  -17.2545   12.2609 C   0  0  0  0  0  0  0  0  0  0  0  0
  -26.8854  -16.9890   13.2422 C   0  0  0  0  0  0  0  0  0  0  0  0
  -26.2079  -28.0726   18.9331 C   0  0  0  0  0  0  0  0  0  0  0  0
  -26.4250  -27.8371   21.3277 C   0  0  0  0  0  0  0  0  0  0  0  0
  -24.6300  -17.5797   12.6259 C   0  0  0  0  0  0  0  0  0  0  0  0
  -26.5302  -17.0497   14.5893 C   0  0  0  0  0  0  0  0  0  0  0  0
  -28.6738  -13.5356   19.1238 C   0  0  0  0  0  0  0  0  0  0  0  0
  -28.5698  -20.6020   24.6844 C   0  0  0  0  0  0  0  0  0  0  0  0
  -29.2778  -20.0584   25.7562 C   0  0  0  0  0  0  0  0  0  0  0  0
  -25.2463  -29.0659   19.1179 C   0  0  0  0  0  0  0  0  0  0  0  0
  -25.4633  -28.8304   21.5126 C   0  0  0  0  0  0  0  0  0  0  0  0
  -29.6610  -13.7446   20.0859 C   0  0  0  0  0  0  0  0  0  0  0  0
  -22.0945  -29.0898   21.3924 C   0  0  0  0  0  0  0  0  0  0  0  0
  -21.0974  -28.8582   22.3399 C   0  0  0  0  0  0  0  0  0  0  0  0
  -29.1688  -18.6981   23.3230 C   0  0  0  0  0  0  0  0  0  0  0  0
  -27.9700  -14.4323   21.6628 C   0  0  0  0  0  0  0  0  0  0  0  0
  -21.8050  -30.8176   23.5634 C   0  0  0  0  0  0  0  0  0  0  0  0
  -26.7972  -27.4581   20.0380 C   0  0  0  0  0  0  0  0  0  0  0  0
  -29.8769  -18.1545   24.3948 C   0  0  0  0  0  0  0  0  0  0  0  0
  -29.1830  -26.6058   19.7388 C   0  0  0  0  0  0  0  0  0  0  0  0
  -24.2561  -17.6349   13.9779 C   0  0  0  0  0  0  0  0  0  0  0  0
  -27.3262  -13.7843   19.4211 C   0  0  0  0  0  0  0  0  0  0  0  0
  -25.2186  -17.3773   14.9727 C   0  0  0  0  0  0  0  0  0  0  0  0
  -26.9674  -14.2233   20.7036 C   0  0  0  0  0  0  0  0  0  0  0  0
  -28.5152  -19.9218   23.4677 C   0  0  0  0  0  0  0  0  0  0  0  0
  -29.9314  -18.8347   25.6114 C   0  0  0  0  0  0  0  0  0  0  0  0
  -24.8740  -29.4448   20.4077 C   0  0  0  0  0  0  0  0  0  0  0  0
  -29.3095  -14.1958   21.3547 C   0  0  0  0  0  0  0  0  0  0  0  0
  -22.9469  -30.1852   21.5304 C   0  0  0  0  0  0  0  0  0  0  0  0
  -20.9527  -29.7221   23.4254 C   0  0  0  0  0  0  0  0  0  0  0  0
  -22.8022  -31.0491   22.6159 C   0  0  0  0  0  0  0  0  0  0  0  0
  -27.7903  -26.4316   19.8477 C   0  0  0  0  0  0  0  0  0  0  0  0
  -29.6758  -25.3349   19.5699 C   0  0  0  0  0  0  0  0  0  0  0  0
  -30.5611  -16.8490   24.2085 C   0  0  0  0  0  0  0  0  0  0  0  0
  -29.9615  -27.8088   19.7861 C   0  0  0  0  0  0  0  0  0  0  0  0
  -25.1091  -15.7643   18.2953 C   0  0  0  0  0  0  0  0  0  0  0  0
  -23.1669  -14.1015   20.2916 C   0  0  0  0  0  0  0  0  0  0  0  0
  -22.8588  -12.1530   23.0765 C   0  0  0  0  0  0  0  0  0  0  0  0
  -27.6415  -19.9303   21.1049 C   0  0  0  0  0  0  0  0  0  0  0  0
  -22.8446  -18.0372   14.3249 C   0  0  0  0  0  0  0  0  0  0  0  0
  -26.2706  -13.5284   18.3806 C   0  0  0  0  0  0  0  0  0  0  0  0
  -25.5327  -14.4856   21.0795 C   0  0  0  0  0  0  0  0  0  0  0  0
  -22.4556  -17.7135   15.7651 C   0  0  0  0  0  0  0  0  0  0  0  0
  -28.4547  -21.0463   17.8231 C   0  0  0  0  0  0  0  0  0  0  0  0
  -23.5551  -18.1532   16.7267 C   0  0  0  0  0  0  0  0  0  0  0  0
  -28.5094  -22.5695   17.9613 C   0  0  0  0  0  0  0  0  0  0  0  0
  -27.3536  -20.4374   18.6894 C   0  0  0  0  0  0  0  0  0  0  0  0
  -27.4478  -22.3462   20.2440 C   0  0  0  0  0  0  0  0  0  0  0  0
  -24.8655  -17.4087   16.4440 C   0  0  1  0  0  0  0  0  0  0  0  0
  -24.9823  -14.3056   18.6327 C   0  0  1  0  0  0  0  0  0  0  0  0
  -28.5840  -22.9989   19.4397 C   0  0  2  0  0  0  0  0  0  0  0  0
  -21.1407  -10.9783   24.4785 C   0  0  0  0  0  0  0  0  0  0  0  0
  -22.3308  -16.7745   21.5022 C   0  0  0  0  0  0  0  0  0  0  0  0
  -21.3933  -15.5180   23.4543 C   0  0  0  0  0  0  0  0  0  0  0  0
  -20.4597  -15.1486   21.1707 C   0  0  0  0  0  0  0  0  0  0  0  0
  -24.0795   -9.5065   22.5619 C   0  0  0  0  0  0  0  0  0  0  0  0
  -32.2623  -15.6065   22.8979 C   0  0  0  0  0  0  0  0  0  0  0  0
  -31.5644  -14.7842   21.8294 C   0  0  0  0  0  0  0  0  0  1  0  0
  -22.7494  -14.2376   21.7360 C   0  0  1  0  0  0  0  0  0  0  0  0
  -22.1154  -10.8516   23.3181 C   0  0  2  0  0  0  0  0  0  0  0  0
  -21.7606  -15.4167   21.9584 C   0  0  0  0  0  0  0  0  0  0  0  0
  -27.4220  -25.1510   19.7556 N   0  0  0  0  0  0  0  0  0  0  0  0
  -28.5906  -24.5090   19.5869 N   0  0  0  0  0  0  0  0  0  0  0  0
  -24.5378  -14.2266   20.0256 N   0  0  0  0  0  0  0  0  0  0  0  0
  -27.4906  -20.8850   20.0771 N   0  0  0  0  0  0  0  0  0  0  0  0
  -30.6436  -18.3019   26.7090 N   0  0  0  0  0  0  0  0  0  0  0  0
  -30.9272  -24.8546   19.4099 N   0  0  0  0  0  0  0  0  0  0  0  0
  -29.2957  -29.0290   19.9657 N   0  0  0  0  0  0  0  0  0  0  0  0
  -27.7957  -20.4747   22.3795 N   0  0  0  0  0  0  0  0  0  0  0  0
  -31.5304  -16.8041   23.2143 N   0  0  0  0  0  0  0  0  0  0  0  0
  -24.8097  -16.0658   16.9804 N   0  0  0  0  0  0  0  0  0  0  0  0
  -22.2257  -12.9354   22.1339 N   0  0  0  0  0  0  0  0  0  0  0  0
  -23.0766   -9.7561   23.6292 N   0  3  0  0  0  0  0  0  0  0  0  0
  -30.2325  -15.8943   24.9077 O   0  0  0  0  0  0  0  0  0  0  0  0
  -31.2092  -27.8036   19.6560 O   0  0  0  0  0  0  0  0  0  0  0  0
  -25.4516  -16.5578   19.1641 O   0  0  0  0  0  0  0  0  0  0  0  0
  -22.3092  -13.8848   19.4320 O   0  0  0  0  0  0  0  0  0  0  0  0
  -23.8952  -12.4478   23.6676 O   0  0  0  0  0  0  0  0  0  0  0  0
  -27.6617  -18.7197   20.8683 O   0  0  0  0  0  0  0  0  0  0  0  0
  -23.9358  -30.4142   20.5884 O   0  0  0  0  0  0  0  0  0  0  0  0
  -30.2711  -14.4012   22.2954 O   0  0  0  0  0  0  0  0  0  1  0  0
  -19.9941  -29.5005   24.3344 F   0  0  0  0  0  0  0  0  0  0  0  0
  -23.6173  -32.1039   22.7532 F   0  0  0  0  0  0  0  0  0  0  0  0
  1  2  1  0  0  0  0
  1  5  2  0  0  0  0
  2  6  2  0  0  0  0
  3 10  2  0  0  0  0
  3 18  1  0  0  0  0
  4 11  1  0  0  0  0
  4 18  2  0  0  0  0
  5 21  1  0  0  0  0
  6 23  1  0  0  0  0
  7 12  2  0  0  0  0
  7 22  1  0  0  0  0
  8  9  2  0  0  0  0
  8 25  1  0  0  0  0
  9 26  1  0  0  0  0
 10 27  1  0  0  0  0
 11 27  2  0  0  0  0
 12 28  1  0  0  0  0
 13 14  2  0  0  0  0
 13 29  1  0  0  0  0
 14 30  1  0  0  0  0
 15 19  1  0  0  0  0
 15 25  2  0  0  0  0
 16 24  1  0  0  0  0
 16 28  2  0  0  0  0
 17 30  2  0  0  0  0
 17 31  1  0  0  0  0
 18 32  1  0  0  0  0
 19 26  2  0  0  0  0
 19 34  1  0  0  0  0
 20 32  1  0  0  0  0
 20 33  2  0  0  0  0
 20 35  1  0  0  0  0
 21 23  2  0  0  0  0
 21 40  1  0  0  0  0
 22 24  2  0  0  0  0
 22 41  1  0  0  0  0
 23 49  1  0  0  0  0
 24 42  1  0  0  0  0
 25 69  1  0  0  0  0
 26 66  1  0  0  0  0
 27 80  1  0  0  0  0
 28 81  1  0  0  0  0
 29 31  2  0  0  0  0
 29 80  1  0  0  0  0
 30 82  1  0  0  0  0
 31 83  1  0  0  0  0
 32 62  2  0  0  0  0
 33 63  1  0  0  0  0
 33 67  1  0  0  0  0
 34 70  1  0  0  0  0
 34 74  2  0  0  0  0
 35 68  1  0  0  0  0
 35 75  2  0  0  0  0
 36 50  1  0  0  0  0
 36 71  1  0  0  0  0
 36 76  2  0  0  0  0
 37 59  1  0  0  0  0
 37 64  1  0  0  0  0
 37 77  2  0  0  0  0
 38 60  1  0  0  0  0
 38 72  1  0  0  0  0
 38 78  2  0  0  0  0
 39 65  1  0  0  0  0
 39 69  1  0  0  0  0
 39 79  2  0  0  0  0
 40 43  1  0  0  0  0
 41 50  1  0  0  0  0
 42 64  1  0  0  0  0
 43 45  1  0  0  0  0
 44 46  1  0  0  0  0
 44 47  1  0  0  0  0
 45 49  1  0  0  0  0
 46 51  1  0  0  0  0
 47 65  1  0  0  0  0
 48 51  1  0  0  0  0
 48 65  1  0  0  0  0
 49 71  1  0  0  0  0
 50 64  1  0  0  0  0
 51 63  1  0  0  0  0
 52 60  1  0  0  0  0
 53 61  1  0  0  0  0
 54 61  1  0  0  0  0
 55 61  1  0  0  0  0
 56 73  1  0  0  0  0
 57 58  1  0  0  0  0
 57 70  1  0  0  0  0
 58 81  1  0  0  0  0
 59 61  1  0  0  0  0
 59 72  1  0  0  0  0
 60 73  1  0  0  0  0
 62 63  1  0  0  0  0
M  CHG  1  73   1
M  ISO  4  39 100  58 101  69 100  81 101
M  END
> <Batch ID>
0074

> <Smiles>
CNC(C)C(=O)NC(C(=O)N1Cc2cc([101O:1][101CH2:1]CN=C(O)c3cc([100NH:0][100C:0](=O)N4CCCC(n5nc(-c6ccc(Oc7ccc(F)cc7F)cc6)c(C(N)=O)c5N)C4)ccc3N)ccc2CC1C(=O)NC1CCCc2ccccc21)C(C)(C)C

> <Shape>
0.233

> <Color>
0.054

> <Negative vol penalty>
0.000

$$$$

  -OEChem-04042323443D

 89 98  0     1  0  0  0  0  0999 V2000
  -32.3482  -13.3192   20.9131 C   0  0  0  0  0  0  0  0  0  0  0  0
  -31.7546  -14.5315   21.2496 C   0  0  0  0  0  0  0  0  0  0  0  0
  -18.2391  -27.3169   23.6737 C   0  0  0  0  0  0  0  0  0  0  0  0
  -27.3746  -25.2904   20.6685 C   0  0  0  0  0  0  0  0  0  0  0  0
  -27.8403  -25.9491   18.3912 C   0  0  0  0  0  0  0  0  0  0  0  0
  -18.2820  -28.2222   22.6135 C   0  0  0  0  0  0  0  0  0  0  0  0
  -31.6172  -12.3548   20.2206 C   0  0  0  0  0  0  0  0  0  0  0  0
  -30.4298  -14.7806   20.8928 C   0  0  0  0  0  0  0  0  0  0  0  0
  -26.3018  -17.9949   24.0762 C   0  0  0  0  0  0  0  0  0  0  0  0
  -19.0710  -26.1972   23.6688 C   0  0  0  0  0  0  0  0  0  0  0  0
  -27.9607  -24.0476   20.4289 C   0  0  0  0  0  0  0  0  0  0  0  0
  -28.4265  -24.7062   18.1516 C   0  0  0  0  0  0  0  0  0  0  0  0
  -25.8544  -19.3112   23.9715 C   0  0  0  0  0  0  0  0  0  0  0  0
  -27.1058  -21.1368   18.9385 C   0  0  0  0  0  0  0  0  0  0  0  0
  -26.4342  -20.0047   19.3998 C   0  0  0  0  0  0  0  0  0  0  0  0
  -19.9885  -26.8881   21.5433 C   0  0  0  0  0  0  0  0  0  0  0  0
  -23.9820  -18.5632   22.6472 C   0  0  0  0  0  0  0  0  0  0  0  0
  -28.3381  -19.4351   20.7737 C   0  0  0  0  0  0  0  0  0  0  0  0
  -27.3144  -26.2412   19.6496 C   0  0  0  0  0  0  0  0  0  0  0  0
  -19.1566  -28.0079   21.5483 C   0  0  0  0  0  0  0  0  0  0  0  0
  -27.1043  -28.4827   20.8492 C   0  0  0  0  0  0  0  0  0  0  0  0
  -30.2798  -12.5885   19.8635 C   0  0  0  0  0  0  0  0  0  0  0  0
  -25.5974  -16.9524   23.4569 C   0  0  0  0  0  0  0  0  0  0  0  0
  -29.6806  -13.8191   20.1936 C   0  0  0  0  0  0  0  0  0  0  0  0
  -24.4211  -17.2342   22.7477 C   0  0  0  0  0  0  0  0  0  0  0  0
  -19.9457  -25.9828   22.6036 C   0  0  0  0  0  0  0  0  0  0  0  0
  -28.4866  -23.7554   19.1705 C   0  0  0  0  0  0  0  0  0  0  0  0
  -24.6960  -19.5959   23.2545 C   0  0  0  0  0  0  0  0  0  0  0  0
  -28.3937  -21.4181   19.3947 C   0  0  0  0  0  0  0  0  0  0  0  0
  -27.0503  -19.1539   20.3174 C   0  0  0  0  0  0  0  0  0  0  0  0
  -29.0098  -20.5672   20.3124 C   0  0  0  0  0  0  0  0  0  0  0  0
  -26.7086  -27.5250   19.8963 C   0  0  0  0  0  0  0  0  0  0  0  0
  -26.2162  -29.5175   20.6852 C   0  0  0  0  0  0  0  0  0  0  0  0
  -22.0478  -22.9671   23.7154 C   0  0  0  0  0  0  0  0  0  0  0  0
  -21.2693  -24.2588   23.7985 C   0  0  0  0  0  0  0  0  0  0  0  0
  -19.2012  -28.9729   20.4198 C   0  0  0  0  0  0  0  0  0  0  0  0
  -28.1787  -28.4407   21.7977 C   0  0  0  0  0  0  0  0  0  0  0  0
  -26.2685  -14.8288   21.1889 C   0  0  0  0  0  0  0  0  0  0  0  0
  -23.3565  -13.6410   21.9836 C   0  0  0  0  0  0  0  0  0  0  0  0
  -20.2718  -14.1950   23.3343 C   0  0  0  0  0  0  0  0  0  0  0  0
  -20.6528  -29.8537   18.6195 C   0  0  0  0  0  0  0  0  0  0  0  0
  -29.5446  -11.5347   19.0739 C   0  0  0  0  0  0  0  0  0  0  0  0
  -26.0784  -15.5346   23.6018 C   0  0  0  0  0  0  0  0  0  0  0  0
  -23.6174  -16.1485   22.0815 C   0  0  0  0  0  0  0  0  0  0  0  0
  -28.0305  -11.7286   19.0615 C   0  0  0  0  0  0  0  0  0  0  0  0
  -23.4590  -31.5963   17.3604 C   0  0  0  0  0  0  0  0  0  0  0  0
  -27.6810  -13.1834   18.7642 C   0  0  0  0  0  0  0  0  0  0  0  0
  -24.6500  -30.8486   17.9661 C   0  0  0  0  0  0  0  0  0  0  0  0
  -21.7450  -22.8998   21.2896 C   0  0  0  0  0  0  0  0  0  0  0  0
  -22.3288  -30.6439   16.9726 C   0  0  0  0  0  0  0  0  0  0  0  0
  -21.2968  -24.3509   21.2942 C   0  0  0  0  0  0  0  0  0  0  0  0
  -23.0728  -28.9931   18.6397 C   0  0  0  0  0  0  0  0  0  0  0  0
  -28.2382  -14.1167   19.8458 C   0  0  1  0  0  0  0  0  0  0  0  0
  -25.5650  -14.6139   22.4991 C   0  0  1  0  0  0  0  0  0  0  0  0
  -24.2088  -29.9152   19.1113 C   0  0  1  0  0  0  0  0  0  0  0  0
  -22.7314  -22.6002   22.4159 C   0  0  1  0  0  0  0  0  0  0  0  0
  -24.0343  -23.4016   22.2988 C   0  0  0  0  0  0  0  0  0  0  0  0
  -18.0941  -13.0426   23.8109 C   0  0  0  0  0  0  0  0  0  0  0  0
  -22.6106  -13.8347   19.0313 C   0  0  0  0  0  0  0  0  0  0  0  0
  -20.2082  -13.5953   19.6943 C   0  0  0  0  0  0  0  0  0  0  0  0
  -21.8217  -11.7538   20.1722 C   0  0  0  0  0  0  0  0  0  0  0  0
  -20.5419  -14.6378   26.2481 C   0  0  0  0  0  0  0  0  0  0  0  0
  -23.0632  -21.0995   22.4006 C   0  0  0  0  0  0  0  0  0  1  0  0
  -21.9398  -13.8871   21.5240 C   0  0  1  0  0  0  0  0  0  0  0  0
  -19.4644  -13.4144   24.3557 C   0  0  2  0  0  0  0  0  0  0  0  0
  -21.6611  -13.2886   20.1163 C   0  0  0  0  0  0  0  0  0  0  0  0
  -25.6513  -27.9165   19.1801 N   0  0  0  0  0  0  0  0  0  0  0  0
  -25.3751  -29.1317   19.6833 N   0  0  0  0  0  0  0  0  0  0  0  0
  -20.8096  -24.8203   22.5989 N   0  0  0  0  0  0  0  0  0  0  0  0
  -24.1321  -14.7790   22.2464 N   0  0  0  0  0  0  0  0  0  0  0  0
  -21.9634  -29.8023   18.1134 N   0  0  0  0  0  0  0  0  0  0  0  0
  -26.0805  -30.7108   21.3018 N   0  0  0  0  0  0  0  0  0  0  0  0
  -29.4315  -28.9354   21.4105 N   0  0  0  0  0  0  0  0  0  0  0  0
  -20.4154  -29.0448   19.7364 N   0  0  0  0  0  0  0  0  0  0  0  0
  -27.4104  -14.0668   21.0319 N   0  0  0  0  0  0  0  0  0  0  0  0
  -21.0731  -13.3676   22.5763 N   0  0  0  0  0  0  0  0  0  0  0  0
  -19.2747  -14.2227   25.5933 N   0  3  0  0  0  0  0  0  0  0  0  0
  -22.1173  -22.2984   24.7407 O   0  0  0  0  0  0  0  0  0  0  0  0
  -21.1221  -24.6905   24.9378 O   0  0  0  0  0  0  0  0  0  0  0  0
  -18.1884  -29.6054   20.1334 O   0  0  0  0  0  0  0  0  0  0  0  0
  -28.0363  -27.9631   22.9489 O   0  0  0  0  0  0  0  0  0  0  0  0
  -25.8085  -15.6259   20.3798 O   0  0  0  0  0  0  0  0  0  0  0  0
  -23.7579  -12.4816   22.1119 O   0  0  0  0  0  0  0  0  0  0  0  0
  -20.1961  -15.4162   23.2178 O   0  0  0  0  0  0  0  0  0  0  0  0
  -19.7795  -30.5851   18.1423 O   0  0  0  0  0  0  0  0  0  0  0  0
  -29.0588  -22.5429   18.9364 O   0  0  0  0  0  0  0  0  0  0  0  0
  -24.2575  -20.8799   23.1502 O   0  0  0  0  0  0  0  0  0  1  0  0
  -26.4046  -18.0675   20.7615 F   0  0  0  0  0  0  0  0  0  0  0  0
  -30.2464  -20.8328   20.7552 F   0  0  0  0  0  0  0  0  0  0  0  0
  1  2  1  0  0  0  0
  1  7  2  0  0  0  0
  2  8  2  0  0  0  0
  3  6  1  0  0  0  0
  3 10  2  0  0  0  0
  4 11  2  0  0  0  0
  4 19  1  0  0  0  0
  5 12  1  0  0  0  0
  5 19  2  0  0  0  0
  6 20  2  0  0  0  0
  7 22  1  0  0  0  0
  8 24  1  0  0  0  0
  9 13  2  0  0  0  0
  9 23  1  0  0  0  0
 10 26  1  0  0  0  0
 11 27  1  0  0  0  0
 12 27  2  0  0  0  0
 13 28  1  0  0  0  0
 14 15  2  0  0  0  0
 14 29  1  0  0  0  0
 15 30  1  0  0  0  0
 16 20  1  0  0  0  0
 16 26  2  0  0  0  0
 17 25  1  0  0  0  0
 17 28  2  0  0  0  0
 18 30  2  0  0  0  0
 18 31  1  0  0  0  0
 19 32  1  0  0  0  0
 20 36  1  0  0  0  0
 21 32  1  0  0  0  0
 21 33  2  0  0  0  0
 21 37  1  0  0  0  0
 22 24  2  0  0  0  0
 22 42  1  0  0  0  0
 23 25  2  0  0  0  0
 23 43  1  0  0  0  0
 24 53  1  0  0  0  0
 25 44  1  0  0  0  0
 26 69  1  0  0  0  0
 27 86  1  0  0  0  0
 28 87  1  0  0  0  0
 29 31  2  0  0  0  0
 29 86  1  0  0  0  0
 30 88  1  0  0  0  0
 31 89  1  0  0  0  0
 32 67  2  0  0  0  0
 33 68  1  0  0  0  0
 33 72  1  0  0  0  0
 34 35  1  0  0  0  0
 34 56  1  0  0  0  0
 34 78  2  0  0  0  0
 35 69  1  0  0  0  0
 35 79  2  0  0  0  0
 36 74  1  0  0  0  0
 36 80  2  0  0  0  0
 37 73  1  0  0  0  0
 37 81  2  0  0  0  0
 38 54  1  0  0  0  0
 38 75  1  0  0  0  0
 38 82  2  0  0  0  0
 39 64  1  0  0  0  0
 39 70  1  0  0  0  0
 39 83  2  0  0  0  0
 40 65  1  0  0  0  0
 40 76  1  0  0  0  0
 40 84  2  0  0  0  0
 41 71  1  0  0  0  0
 41 74  1  0  0  0  0
 41 85  2  0  0  0  0
 42 45  1  0  0  0  0
 43 54  1  0  0  0  0
 44 70  1  0  0  0  0
 45 47  1  0  0  0  0
 46 48  1  0  0  0  0
 46 50  1  0  0  0  0
 47 53  1  0  0  0  0
 48 55  1  0  0  0  0
 49 51  1  0  0  0  0
 49 56  1  0  0  0  0
 50 71  1  0  0  0  0
 51 69  1  0  0  0  0
 52 55  1  0  0  0  0
 52 71  1  0  0  0  0
 53 75  1  0  0  0  0
 54 70  1  0  0  0  0
 55 68  1  0  0  0  0
 56 57  1  0  0  0  0
 56 63  1  0  0  0  0
 58 65  1  0  0  0  0
 59 66  1  0  0  0  0
 60 66  1  0  0  0  0
 61 66  1  0  0  0  0
 62 77  1  0  0  0  0
 63 87  1  0  0  0  0
 64 66  1  0  0  0  0
 64 76  1  0  0  0  0
 65 77  1  0  0  0  0
 67 68  1  0  0  0  0
M  CHG  1  77   1
M  ISO  4  41 100  63 101  74 100  87 101
M  END
> <Batch ID>
0074

> <Smiles>
CNC(C)C(=O)NC(C(=O)N1Cc2cc([101O:1][101CH2:1]C3(C)CCN(c4cccc(C(=O)[100NH:0][100C:0](=O)N5CCCC(n6nc(-c7ccc(Oc8ccc(F)cc8F)cc7)c(C(N)=O)c6N)C5)c4)C(=O)C3=O)ccc2CC1C(=O)NC1CCCc2ccccc21)C(C)(C)C

> <Shape>
0.226

> <Color>
0.080

> <Negative vol penalty>
0.000

$$$$

  -OEChem-04042323443D

 89 98  0     1  0  0  0  0  0999 V2000
  -31.1307  -35.2940   20.8527 C   0  0  0  0  0  0  0  0  0  0  0  0
  -30.9067  -33.9963   20.4043 C   0  0  0  0  0  0  0  0  0  0  0  0
  -22.6577  -13.6893   22.4822 C   0  0  0  0  0  0  0  0  0  0  0  0
  -23.8447  -11.8027   23.4142 C   0  0  0  0  0  0  0  0  0  0  0  0
  -30.5746  -35.7194   22.0585 C   0  0  0  0  0  0  0  0  0  0  0  0
  -30.1274  -33.1227   21.1619 C   0  0  0  0  0  0  0  0  0  0  0  0
  -26.3515  -28.7863   19.0540 C   0  0  0  0  0  0  0  0  0  0  0  0
  -21.8551  -13.7473   23.6215 C   0  0  0  0  0  0  0  0  0  0  0  0
  -23.0422  -11.8607   24.5536 C   0  0  0  0  0  0  0  0  0  0  0  0
  -26.5031  -27.4103   18.8879 C   0  0  0  0  0  0  0  0  0  0  0  0
  -19.9234  -10.9162   25.4549 C   0  0  0  0  0  0  0  0  0  0  0  0
  -19.4071   -9.7170   25.9456 C   0  0  0  0  0  0  0  0  0  0  0  0
  -25.4412  -27.0417   21.0222 C   0  0  0  0  0  0  0  0  0  0  0  0
  -31.0151  -20.1072   20.7293 C   0  0  0  0  0  0  0  0  0  0  0  0
  -31.5193  -17.7493   20.5792 C   0  0  0  0  0  0  0  0  0  0  0  0
  -29.2829  -18.5381   20.1174 C   0  0  0  0  0  0  0  0  0  0  0  0
  -20.5509  -10.0826   28.0421 C   0  0  0  0  0  0  0  0  0  0  0  0
  -23.6524  -12.7170   22.3785 C   0  0  0  0  0  0  0  0  0  0  0  0
  -24.0594  -12.4526   19.8741 C   0  0  0  0  0  0  0  0  0  0  0  0
  -29.7802  -34.8536   22.8265 C   0  0  0  0  0  0  0  0  0  0  0  0
  -25.7524  -29.3016   20.2124 C   0  0  0  0  0  0  0  0  0  0  0  0
  -29.5614  -33.5365   22.3797 C   0  0  0  0  0  0  0  0  0  0  0  0
  -25.2808  -28.4245   21.1995 C   0  0  0  0  0  0  0  0  0  0  0  0
  -31.9286  -19.0583   20.8333 C   0  0  0  0  0  0  0  0  0  0  0  0
  -29.6922  -19.8471   20.3714 C   0  0  0  0  0  0  0  0  0  0  0  0
  -30.1965  -17.4891   20.2213 C   0  0  0  0  0  0  0  0  0  0  0  0
  -22.0474  -12.8330   24.6573 C   0  0  0  0  0  0  0  0  0  0  0  0
  -26.0505  -26.5380   19.8734 C   0  0  0  0  0  0  0  0  0  0  0  0
  -20.7535  -11.6987   26.2577 C   0  0  0  0  0  0  0  0  0  0  0  0
  -19.7208   -9.3002   27.2393 C   0  0  0  0  0  0  0  0  0  0  0  0
  -21.0672  -11.2819   27.5513 C   0  0  0  0  0  0  0  0  0  0  0  0
  -24.4814  -12.6562   21.2015 C   0  0  0  0  0  0  0  0  0  0  0  0
  -25.2184  -12.4784   19.1375 C   0  0  0  0  0  0  0  0  0  0  0  0
  -26.6271  -21.9545   20.7831 C   0  0  0  0  0  0  0  0  0  0  0  0
  -27.1557  -23.1782   20.5955 C   0  0  0  0  0  0  0  0  0  0  0  0
  -28.5143  -23.3089   20.0668 C   0  0  0  0  0  0  0  0  0  0  0  0
  -29.2306  -24.4447   20.1085 C   0  0  0  0  0  0  0  0  0  0  0  0
  -22.7378  -12.2575   19.3533 C   0  0  0  0  0  0  0  0  0  0  0  0
  -26.7070  -31.1984   22.5777 C   0  0  0  0  0  0  0  0  0  0  0  0
  -23.5956  -30.9976   23.4727 C   0  0  0  0  0  0  0  0  0  0  0  0
  -20.6628  -29.2547   23.3863 C   0  0  0  0  0  0  0  0  0  0  0  0
  -30.5610  -15.0045   20.0208 C   0  0  0  0  0  0  0  0  0  0  0  0
  -29.2395  -35.3437   24.1464 C   0  0  0  0  0  0  0  0  0  0  0  0
  -25.5722  -30.7872   20.3643 C   0  0  0  0  0  0  0  0  0  0  0  0
  -24.6124  -28.9262   22.4524 C   0  0  0  0  0  0  0  0  0  0  0  0
  -27.3574  -20.6616   20.5473 C   0  0  0  0  0  0  0  0  0  0  0  0
  -29.0943  -22.0620   19.4326 C   0  0  0  0  0  0  0  0  0  0  0  0
  -28.1166  -34.4737   24.7055 C   0  0  0  0  0  0  0  0  0  0  0  0
  -29.9022  -11.5457   19.4919 C   0  0  0  0  0  0  0  0  0  0  0  0
  -28.4910  -32.9976   24.6179 C   0  0  0  0  0  0  0  0  0  0  0  0
  -28.3979  -11.4205   19.7436 C   0  0  0  0  0  0  0  0  0  0  0  0
  -30.5532  -12.5546   20.4364 C   0  0  0  0  0  0  0  0  0  0  0  0
  -28.4199  -13.7562   20.7085 C   0  0  0  0  0  0  0  0  0  0  0  0
  -28.7012  -32.5671   23.1612 C   0  0  1  0  0  0  0  0  0  0  0  0
  -25.4115  -31.2241   21.8171 C   0  0  1  0  0  0  0  0  0  0  0  0
  -27.7089  -12.7993   19.7378 C   0  0  2  0  0  0  0  0  0  0  0  0
  -18.3052  -29.3221   24.2435 C   0  0  0  0  0  0  0  0  0  0  0  0
  -33.7487  -18.6104   22.5123 C   0  0  0  0  0  0  0  0  0  0  0  0
  -34.3319  -18.9745   20.0919 C   0  0  0  0  0  0  0  0  0  0  0  0
  -24.5743  -30.1204   26.2264 C   0  0  0  0  0  0  0  0  0  0  0  0
  -22.2578  -29.3049   26.7130 C   0  0  0  0  0  0  0  0  0  0  0  0
  -22.6571  -31.7259   26.2632 C   0  0  0  0  0  0  0  0  0  0  0  0
  -19.5464  -29.3483   20.6470 C   0  0  0  0  0  0  0  0  0  0  0  0
  -26.3528  -24.4132   20.8980 C   0  0  0  0  0  0  0  0  0  1  0  0
  -22.7950  -30.0717   24.3562 C   0  0  1  0  0  0  0  0  0  0  0  0
  -19.2379  -29.6941   23.1014 C   0  0  2  0  0  0  0  0  0  0  0  0
  -33.3429  -19.3366   21.2160 C   0  0  0  0  0  0  0  0  0  0  0  0
  -23.0854  -30.2960   25.8671 C   0  0  0  0  0  0  0  0  0  0  0  0
  -25.8052  -12.8006   21.3053 N   0  0  0  0  0  0  0  0  0  0  0  0
  -26.2250  -12.6875   20.0337 N   0  0  0  0  0  0  0  0  0  0  0  0
  -28.7777  -20.8976   20.2675 N   0  0  2  0  0  0  0  0  0  0  0  0
  -24.4650  -30.3873   22.5576 N   0  0  0  0  0  0  0  0  0  0  0  0
  -29.8504  -13.8380   20.3744 N   0  0  0  0  0  0  0  0  0  0  0  0
  -25.4644  -12.3424   17.8171 N   0  0  0  0  0  0  0  0  0  0  0  0
  -22.2432  -10.9496   19.2588 N   0  0  0  0  0  0  0  0  0  0  0  0
  -29.7813  -16.1592   19.9629 N   0  0  0  0  0  0  0  0  0  0  0  0
  -27.4273  -32.3753   22.5020 N   0  0  0  0  0  0  0  0  0  0  0  0
  -21.3972  -30.2580   23.9823 N   0  0  0  0  0  0  0  0  0  0  0  0
  -18.7361  -29.0484   21.8555 N   0  3  0  0  0  0  0  0  0  0  0  0
  -22.0232  -13.2135   18.9675 O   0  0  0  0  0  0  0  0  0  0  0  0
  -27.0287  -30.1863   23.1892 O   0  0  0  0  0  0  0  0  0  0  0  0
  -23.4496  -32.2173   23.5853 O   0  0  0  0  0  0  0  0  0  0  0  0
  -21.0813  -28.1323   23.1114 O   0  0  0  0  0  0  0  0  0  0  0  0
  -31.7665  -14.9761   19.7601 O   0  0  0  0  0  0  0  0  0  0  0  0
  -21.2646  -12.8894   25.7693 O   0  0  0  0  0  0  0  0  0  0  0  0
  -26.1979  -25.1945   19.7140 O   0  0  0  0  0  0  0  0  0  1  0  0
  -19.2237   -8.1493   27.7110 F   0  0  0  0  0  0  0  0  0  0  0  0
  -21.8631  -12.0299   28.3277 F   0  0  0  0  0  0  0  0  0  0  0  0
  -33.5763  -20.6763   21.4737 F   0  0  0  0  0  0  0  0  0  0  0  0
  1  2  1  0  0  0  0
  1  5  2  0  0  0  0
  2  6  2  0  0  0  0
  3  8  2  0  0  0  0
  3 18  1  0  0  0  0
  4  9  1  0  0  0  0
  4 18  2  0  0  0  0
  5 20  1  0  0  0  0
  6 22  1  0  0  0  0
  7 10  2  0  0  0  0
  7 21  1  0  0  0  0
  8 27  1  0  0  0  0
  9 27  2  0  0  0  0
 10 28  1  0  0  0  0
 11 12  2  0  0  0  0
 11 29  1  0  0  0  0
 12 30  1  0  0  0  0
 13 23  1  0  0  0  0
 13 28  2  0  0  0  0
 14 24  1  0  0  0  0
 14 25  2  0  0  0  0
 15 24  2  0  0  0  0
 15 26  1  0  0  0  0
 16 25  1  0  0  0  0
 16 26  2  0  0  0  0
 17 30  2  0  0  0  0
 17 31  1  0  0  0  0
 18 32  1  0  0  0  0
 19 32  1  0  0  0  0
 19 33  2  0  0  0  0
 19 38  1  0  0  0  0
 20 22  2  0  0  0  0
 20 43  1  0  0  0  0
 21 23  2  0  0  0  0
 21 44  1  0  0  0  0
 22 54  1  0  0  0  0
 23 45  1  0  0  0  0
 24 67  1  0  0  0  0
 25 71  1  0  0  0  0
 26 76  1  0  0  0  0
 27 85  1  0  0  0  0
 28 86  1  0  0  0  0
 29 31  2  0  0  0  0
 29 85  1  0  0  0  0
 30 87  1  0  0  0  0
 31 88  1  0  0  0  0
 32 69  2  0  0  0  0
 33 70  1  0  0  0  0
 33 74  1  0  0  0  0
 34 35  2  0  0  0  0
 34 46  1  0  0  0  0
 35 36  1  0  0  0  0
 35 64  1  0  0  0  0
 36 37  2  0  0  0  0
 36 47  1  0  0  0  0
 38 75  1  0  0  0  0
 38 80  2  0  0  0  0
 39 55  1  0  0  0  0
 39 77  1  0  0  0  0
 39 81  2  0  0  0  0
 40 65  1  0  0  0  0
 40 72  1  0  0  0  0
 40 82  2  0  0  0  0
 41 66  1  0  0  0  0
 41 78  1  0  0  0  0
 41 83  2  0  0  0  0
 42 73  1  0  0  0  0
 42 76  1  0  0  0  0
 42 84  2  0  0  0  0
 43 48  1  0  0  0  0
 44 55  1  0  0  0  0
 45 72  1  0  0  0  0
 46 71  1  0  0  0  0
 47 71  1  0  0  0  0
 48 50  1  0  0  0  0
 49 51  1  0  0  0  0
 49 52  1  0  0  0  0
 50 54  1  0  0  0  0
 51 56  1  0  0  0  0
 52 73  1  0  0  0  0
 53 56  1  0  0  0  0
 53 73  1  0  0  0  0
 54 77  1  0  0  0  0
 55 72  1  0  0  0  0
 56 70  1  0  0  0  0
 57 66  1  0  0  0  0
 58 67  1  0  0  0  0
 59 67  1  0  0  0  0
 60 68  1  0  0  0  0
 61 68  1  0  0  0  0
 62 68  1  0  0  0  0
 63 79  1  0  0  0  0
 64 86  1  0  0  0  0
 65 68  1  0  0  0  0
 65 78  1  0  0  0  0
 66 79  1  0  0  0  0
 67 89  1  0  0  0  0
 69 70  1  0  0  0  0
M  CHG  1  79   1
M  ISO  4  42 100  64 101  76 100  86 101
M  END
> <Batch ID>
0074

> <Smiles>
C=C1CN(c2cc([100NH:0][100C:0](=O)N3CCCC(n4nc(-c5ccc(Oc6ccc(F)cc6F)cc5)c(C(N)=O)c4N)C3)cc(C(C)(C)F)c2)CC=C1[101CH2:1][101O:1]c1ccc2c(c1)CN(C(=O)C(NC(=O)C(C)NC)C(C)(C)C)C(C(=O)NC1CCCc3ccccc31)C2

> <Shape>
0.253

> <Color>
0.101

> <Negative vol penalty>
0.000

$$$$

  -OEChem-04042323443D

 90 99  0     1  0  0  0  0  0999 V2000
  -19.1990  -24.1706   22.9773 C   0  0  0  0  0  0  0  0  0  0  0  0
  -20.5514  -24.3255   22.6902 C   0  0  0  0  0  0  0  0  0  0  0  0
  -23.5027  -14.1004   24.9481 C   0  0  0  0  0  0  0  0  0  0  0  0
  -22.7347  -15.6626   23.2727 C   0  0  0  0  0  0  0  0  0  0  0  0
  -18.3405  -25.2663   22.8967 C   0  0  0  0  0  0  0  0  0  0  0  0
  -21.0459  -25.5760   22.3212 C   0  0  0  0  0  0  0  0  0  0  0  0
  -25.3754  -26.7270   24.6824 C   0  0  0  0  0  0  0  0  0  0  0  0
  -28.4358  -20.3312   19.2577 C   0  0  0  0  0  0  0  0  0  0  0  0
  -28.6337  -21.6345   19.7135 C   0  0  0  0  0  0  0  0  0  0  0  0
  -22.5972  -14.6369   25.8634 C   0  0  0  0  0  0  0  0  0  0  0  0
  -21.8292  -16.1991   24.1880 C   0  0  0  0  0  0  0  0  0  0  0  0
  -26.5408  -26.1321   24.2010 C   0  0  0  0  0  0  0  0  0  0  0  0
  -21.9028  -18.3448   26.7998 C   0  0  0  0  0  0  0  0  0  0  0  0
  -21.8092  -19.7341   26.8805 C   0  0  0  0  0  0  0  0  0  0  0  0
  -27.0795  -28.1619   23.0140 C   0  0  0  0  0  0  0  0  0  0  0  0
  -30.9346  -21.5408   18.9825 C   0  0  0  0  0  0  0  0  0  0  0  0
  -19.4743  -19.6122   26.2720 C   0  0  0  0  0  0  0  0  0  0  0  0
  -23.5715  -14.6133   23.6527 C   0  0  0  0  0  0  0  0  0  0  0  0
  -24.2841  -12.9939   21.8149 C   0  0  0  0  0  0  0  0  0  0  0  0
  -18.8265  -26.5329   22.5358 C   0  0  0  0  0  0  0  0  0  0  0  0
  -25.0472  -28.0424   24.3237 C   0  0  0  0  0  0  0  0  0  0  0  0
  -20.1929  -26.6893   22.2343 C   0  0  0  0  0  0  0  0  0  0  0  0
  -25.9107  -28.7721   23.4942 C   0  0  0  0  0  0  0  0  0  0  0  0
  -29.4873  -19.6326   18.6644 C   0  0  0  0  0  0  0  0  0  0  0  0
  -29.8830  -22.2394   19.5759 C   0  0  0  0  0  0  0  0  0  0  0  0
  -21.7604  -15.6862   25.4834 C   0  0  0  0  0  0  0  0  0  0  0  0
  -27.3916  -26.8486   23.3644 C   0  0  0  0  0  0  0  0  0  0  0  0
  -20.7822  -17.5891   26.4551 C   0  0  0  0  0  0  0  0  0  0  0  0
  -20.5950  -20.3678   26.6166 C   0  0  0  0  0  0  0  0  0  0  0  0
  -30.7367  -20.2374   18.5268 C   0  0  0  0  0  0  0  0  0  0  0  0
  -19.5679  -18.2228   26.1913 C   0  0  0  0  0  0  0  0  0  0  0  0
  -24.5071  -14.0599   22.7069 C   0  0  0  0  0  0  0  0  0  0  0  0
  -25.4726  -12.8562   21.1405 C   0  0  0  0  0  0  0  0  0  0  0  0
  -31.0292  -25.5844   20.5578 C   0  0  0  0  0  0  0  0  0  0  0  0
  -29.7518  -25.6104   20.9543 C   0  0  0  0  0  0  0  0  0  0  0  0
  -31.2805  -24.2536   19.9534 C   0  0  0  0  0  0  0  0  0  0  0  0
  -23.1077  -12.1993   21.6139 C   0  0  0  0  0  0  0  0  0  0  0  0
  -32.0104  -26.6521   20.6855 C   0  0  0  0  0  0  0  0  0  0  0  0
  -22.6428  -29.4060   22.7544 C   0  0  0  0  0  0  0  0  0  0  0  0
  -24.1208  -32.1482   23.6589 C   0  0  0  0  0  0  0  0  0  0  0  0
  -27.0014  -33.7058   24.6198 C   0  0  0  0  0  0  0  0  0  0  0  0
  -29.9517  -16.6489   19.9556 C   0  0  0  0  0  0  0  0  0  0  0  0
  -17.8516  -27.6774   22.4162 C   0  0  0  0  0  0  0  0  0  0  0  0
  -23.8000  -28.6788   24.8730 C   0  0  0  0  0  0  0  0  0  0  0  0
  -25.6141  -30.1940   23.0959 C   0  0  0  0  0  0  0  0  0  0  0  0
  -29.0445  -24.3279   20.6589 C   0  0  0  0  0  0  0  0  0  0  0  0
  -18.5227  -29.0481   22.3817 C   0  0  0  0  0  0  0  0  0  0  0  0
  -30.1788  -13.5364   21.6695 C   0  0  0  0  0  0  0  0  0  0  0  0
  -19.7015  -29.0411   21.4136 C   0  0  0  0  0  0  0  0  0  0  0  0
  -28.7308  -13.2214   22.0493 C   0  0  0  0  0  0  0  0  0  0  0  0
  -30.4730  -15.0322   21.7587 C   0  0  0  0  0  0  0  0  0  0  0  0
  -28.1001  -15.5769   21.3764 C   0  0  0  0  0  0  0  0  0  0  0  0
  -20.7715  -28.0350   21.8545 C   0  0  1  0  0  0  0  0  0  0  0  0
  -23.3047  -29.8489   24.0286 C   0  0  1  0  0  0  0  0  0  0  0  0
  -27.7400  -14.0869   21.2477 C   0  0  2  0  0  0  0  0  0  0  0  0
  -33.4669  -26.2750   20.8390 C   0  0  0  0  0  0  0  0  0  0  0  0
  -28.1890  -18.1495   17.0908 C   0  0  0  0  0  0  0  0  0  0  0  0
  -27.9051  -35.9593   25.2539 C   0  0  0  0  0  0  0  0  0  0  0  0
  -24.1027  -32.9789   20.7230 C   0  0  0  0  0  0  0  0  0  0  0  0
  -25.8132  -34.7210   21.2775 C   0  0  0  0  0  0  0  0  0  0  0  0
  -23.5535  -34.8147   22.3300 C   0  0  0  0  0  0  0  0  0  0  0  0
  -27.7712  -32.7664   27.3186 C   0  0  0  0  0  0  0  0  0  0  0  0
  -28.9989  -26.7056   21.6174 C   0  0  0  0  0  0  0  0  0  1  0  0
  -29.2710  -18.2397   18.1766 C   0  0  2  0  0  0  0  0  0  0  0  0
  -25.1899  -33.0328   23.0642 C   0  0  1  0  0  0  0  0  0  0  0  0
  -27.2972  -34.6612   25.7618 C   0  0  2  0  0  0  0  0  0  0  0  0
  -24.6697  -33.8594   21.8544 C   0  0  0  0  0  0  0  0  0  0  0  0
  -25.7404  -14.5636   22.6104 N   0  0  0  0  0  0  0  0  0  0  0  0
  -26.3031  -13.8106   21.6499 N   0  0  0  0  0  0  0  0  0  0  0  0
  -30.0807  -23.5371   20.0317 N   0  0  0  0  0  0  0  0  0  0  0  0
  -24.3793  -30.7701   23.6536 N   0  0  0  0  0  0  0  0  0  0  0  0
  -29.4987  -15.7961   20.9757 N   0  0  0  0  0  0  0  0  0  0  0  0
  -25.8779  -12.0129   20.1673 N   0  0  0  0  0  0  0  0  0  0  0  0
  -21.9745  -12.4748   22.3913 N   0  0  0  0  0  0  0  0  0  0  0  0
  -21.5548  -28.5756   22.9448 N   0  0  0  0  0  0  0  0  0  0  0  0
  -25.7078  -33.8417   24.1623 N   0  0  0  0  0  0  0  0  0  0  0  0
  -28.9623  -17.3309   19.2580 N   0  0  0  0  0  0  0  0  0  0  0  0
  -28.2516  -34.0397   26.7230 N   0  3  0  0  0  0  0  0  0  0  0  0
  -32.3521  -23.8991   19.4887 O   0  0  0  0  0  0  0  0  0  0  0  0
  -23.0680  -11.2618   20.7815 O   0  0  0  0  0  0  0  0  0  0  0  0
  -31.6641  -27.8405   20.6766 O   0  0  0  0  0  0  0  0  0  0  0  0
  -23.0854  -29.7904   21.6784 O   0  0  0  0  0  0  0  0  0  0  0  0
  -23.0974  -32.6615   24.1179 O   0  0  0  0  0  0  0  0  0  0  0  0
  -27.8356  -32.9202   24.1754 O   0  0  0  0  0  0  0  0  0  0  0  0
  -31.1489  -16.7878   19.6830 O   0  0  0  0  0  0  0  0  0  0  0  0
  -20.8765  -16.2098   26.3762 O   0  0  0  0  0  0  0  0  0  0  0  0
  -28.5295  -26.2701   22.8926 O   0  0  0  0  0  0  0  0  0  1  0  0
  -20.5048  -21.7019   26.6956 F   0  0  0  0  0  0  0  0  0  0  0  0
  -31.7531  -19.5743   17.9580 F   0  0  0  0  0  0  0  0  0  0  0  0
  -18.4875  -17.5020   25.8609 F   0  0  0  0  0  0  0  0  0  0  0  0
  1  2  1  0  0  0  0
  1  5  2  0  0  0  0
  2  6  2  0  0  0  0
  3 10  2  0  0  0  0
  3 18  1  0  0  0  0
  4 11  1  0  0  0  0
  4 18  2  0  0  0  0
  5 20  1  0  0  0  0
  6 22  1  0  0  0  0
  7 12  2  0  0  0  0
  7 21  1  0  0  0  0
  8  9  2  0  0  0  0
  8 24  1  0  0  0  0
  9 25  1  0  0  0  0
 10 26  1  0  0  0  0
 11 26  2  0  0  0  0
 12 27  1  0  0  0  0
 13 14  2  0  0  0  0
 13 28  1  0  0  0  0
 14 29  1  0  0  0  0
 15 23  1  0  0  0  0
 15 27  2  0  0  0  0
 16 25  2  0  0  0  0
 16 30  1  0  0  0  0
 17 29  2  0  0  0  0
 17 31  1  0  0  0  0
 18 32  1  0  0  0  0
 19 32  1  0  0  0  0
 19 33  2  0  0  0  0
 19 37  1  0  0  0  0
 20 22  2  0  0  0  0
 20 43  1  0  0  0  0
 21 23  2  0  0  0  0
 21 44  1  0  0  0  0
 22 53  1  0  0  0  0
 23 45  1  0  0  0  0
 24 30  2  0  0  0  0
 24 64  1  0  0  0  0
 25 70  1  0  0  0  0
 26 86  1  0  0  0  0
 27 87  1  0  0  0  0
 28 31  2  0  0  0  0
 28 86  1  0  0  0  0
 29 88  1  0  0  0  0
 30 89  1  0  0  0  0
 31 90  1  0  0  0  0
 32 68  2  0  0  0  0
 33 69  1  0  0  0  0
 33 73  1  0  0  0  0
 34 35  2  0  0  0  0
 34 36  1  0  0  0  0
 34 38  1  0  0  0  0
 35 46  1  0  0  0  0
 35 63  1  0  0  0  0
 36 70  1  0  0  0  0
 36 79  2  0  0  0  0
 37 74  1  0  0  0  0
 37 80  2  0  0  0  0
 38 56  1  0  0  0  0
 38 81  2  0  0  0  0
 39 54  1  0  0  0  0
 39 75  1  0  0  0  0
 39 82  2  0  0  0  0
 40 65  1  0  0  0  0
 40 71  1  0  0  0  0
 40 83  2  0  0  0  0
 41 66  1  0  0  0  0
 41 76  1  0  0  0  0
 41 84  2  0  0  0  0
 42 72  1  0  0  0  0
 42 77  1  0  0  0  0
 42 85  2  0  0  0  0
 43 47  1  0  0  0  0
 44 54  1  0  0  0  0
 45 71  1  0  0  0  0
 46 70  1  0  0  0  0
 47 49  1  0  0  0  0
 48 50  1  0  0  0  0
 48 51  1  0  0  0  0
 49 53  1  0  0  0  0
 50 55  1  0  0  0  0
 51 72  1  0  0  0  0
 52 55  1  0  0  0  0
 52 72  1  0  0  0  0
 53 75  1  0  0  0  0
 54 71  1  0  0  0  0
 55 69  1  0  0  0  0
 57 64  1  0  0  0  0
 58 66  1  0  0  0  0
 59 67  1  0  0  0  0
 60 67  1  0  0  0  0
 61 67  1  0  0  0  0
 62 78  1  0  0  0  0
 63 87  1  0  0  0  0
 64 77  1  0  0  0  0
 65 67  1  0  0  0  0
 65 76  1  0  0  0  0
 66 78  1  0  0  0  0
 68 69  1  0  0  0  0
M  CHG  1  78   1
M  ISO  4  42 100  63 101  77 100  87 101
M  END
> <Batch ID>
0074

> <Smiles>
CNC(C)C(=O)NC(C(=O)N1Cc2cc([101O:1][101CH2:1]C3=C(C(C)=O)C(=O)N(c4ccc(C(C)[100NH:0][100C:0](=O)N5CCCC(n6nc(-c7ccc(Oc8ccc(F)cc8F)cc7)c(C(N)=O)c6N)C5)c(F)c4)C3)ccc2CC1C(=O)NC1CCCc2ccccc21)C(C)(C)C

> <Shape>
0.261

> <Color>
0.087

> <Negative vol penalty>
0.000

$$$$

  -OEChem-04042323443D

 88 97  0     1  0  0  0  0  0999 V2000
  -18.0448  -25.9435   12.0439 C   0  0  0  0  0  0  0  0  0  0  0  0
  -18.7447  -25.0886   12.8893 C   0  0  0  0  0  0  0  0  0  0  0  0
  -22.8915  -10.1199   19.9565 C   0  0  0  0  0  0  0  0  0  0  0  0
  -23.9280   -9.7269   22.1032 C   0  0  0  0  0  0  0  0  0  0  0  0
  -18.3225  -27.3098   12.0503 C   0  0  0  0  0  0  0  0  0  0  0  0
  -19.7237  -25.5994   13.7408 C   0  0  0  0  0  0  0  0  0  0  0  0
  -21.1059  -23.6184   19.3685 C   0  0  0  0  0  0  0  0  0  0  0  0
  -22.1127   -8.9748   20.1228 C   0  0  0  0  0  0  0  0  0  0  0  0
  -23.1491   -8.5818   22.2696 C   0  0  0  0  0  0  0  0  0  0  0  0
  -22.1086  -22.7757   19.8463 C   0  0  0  0  0  0  0  0  0  0  0  0
  -23.1578   -5.3824   21.1764 C   0  0  0  0  0  0  0  0  0  0  0  0
  -23.7911   -4.2298   21.6411 C   0  0  0  0  0  0  0  0  0  0  0  0
  -30.0172  -17.1799   20.3087 C   0  0  0  0  0  0  0  0  0  0  0  0
  -23.4586  -24.6998   20.3892 C   0  0  0  0  0  0  0  0  0  0  0  0
  -28.1651  -18.1038   22.1792 C   0  0  0  0  0  0  0  0  0  0  0  0
  -22.3281   -4.2012   23.5636 C   0  0  0  0  0  0  0  0  0  0  0  0
  -23.7992  -10.4960   20.9467 C   0  0  0  0  0  0  0  0  0  0  0  0
  -29.7601  -16.4372   21.4610 C   0  0  0  0  0  0  0  0  0  0  0  0
  -24.2829  -12.9907   21.1709 C   0  0  0  0  0  0  0  0  0  0  0  0
  -19.2986  -27.8389   12.9093 C   0  0  0  0  0  0  0  0  0  0  0  0
  -21.2769  -25.0101   19.3874 C   0  0  0  0  0  0  0  0  0  0  0  0
  -20.0157  -26.9739   13.7578 C   0  0  0  0  0  0  0  0  0  0  0  0
  -22.4556  -25.5580   19.9133 C   0  0  0  0  0  0  0  0  0  0  0  0
  -28.4224  -18.8465   21.0269 C   0  0  0  0  0  0  0  0  0  0  0  0
  -28.8340  -16.8991   22.3963 C   0  0  0  0  0  0  0  0  0  0  0  0
  -22.2414   -8.2057   21.2794 C   0  0  0  0  0  0  0  0  0  0  0  0
  -23.2863  -23.3162   20.3541 C   0  0  0  0  0  0  0  0  0  0  0  0
  -22.1097   -5.9445   21.9053 C   0  0  0  0  0  0  0  0  0  0  0  0
  -23.3763   -3.6392   22.8347 C   0  0  0  0  0  0  0  0  0  0  0  0
  -29.3484  -18.3846   20.0916 C   0  0  0  0  0  0  0  0  0  0  0  0
  -21.6949   -5.3539   23.0989 C   0  0  0  0  0  0  0  0  0  0  0  0
  -24.6044  -11.6785   20.7752 C   0  0  0  0  0  0  0  0  0  0  0  0
  -25.3670  -13.7408   20.7858 C   0  0  0  0  0  0  0  0  0  0  0  0
  -26.2368  -21.2588   20.2901 C   0  0  0  0  0  0  0  0  0  0  0  0
  -25.2221  -22.0702   19.9408 C   0  0  0  0  0  0  0  0  0  1  0  0
  -30.4772  -15.1836   21.6579 C   0  0  0  0  0  0  0  0  0  0  0  0
  -23.1092  -13.4870   21.8280 C   0  0  0  0  0  0  0  0  0  0  0  0
  -30.9193  -14.3621   20.5077 C   0  0  0  0  0  0  0  0  0  0  0  0
  -21.3952  -27.2858   17.1714 C   0  0  0  0  0  0  0  0  0  0  0  0
  -21.4745  -29.2512   19.7508 C   0  0  0  0  0  0  0  0  0  0  0  0
  -27.6697  -16.4938   24.5882 C   0  0  0  0  0  0  0  0  0  0  0  0
  -22.2057  -29.6617   23.0589 C   0  0  0  0  0  0  0  0  0  0  0  0
  -19.5969  -29.3160   12.8468 C   0  0  0  0  0  0  0  0  0  0  0  0
  -20.1748  -25.9063   18.8929 C   0  0  0  0  0  0  0  0  0  0  0  0
  -22.6799  -27.0461   19.9747 C   0  0  0  0  0  0  0  0  0  0  0  0
  -27.4005  -20.6445   19.5603 C   0  0  0  0  0  0  0  0  0  0  0  0
  -26.6700  -20.5964   21.5699 C   0  0  0  0  0  0  0  0  0  0  0  0
  -20.3874  -29.8292   14.0477 C   0  0  0  0  0  0  0  0  0  0  0  0
  -29.3053  -12.5873   17.8428 C   0  0  0  0  0  0  0  0  0  0  0  0
  -21.5586  -28.9005   14.3521 C   0  0  0  0  0  0  0  0  0  0  0  0
  -27.9255  -12.2669   18.4168 C   0  0  0  0  0  0  0  0  0  0  0  0
  -30.3810  -12.5540   18.9236 C   0  0  0  0  0  0  0  0  0  0  0  0
  -28.7135  -13.1328   20.6651 C   0  0  0  0  0  0  0  0  0  0  0  0
  -21.0675  -27.4935   14.7137 C   0  0  1  0  0  0  0  0  0  0  0  0
  -20.6681  -27.2915   18.4863 C   0  0  1  0  0  0  0  0  0  0  0  0
  -27.5965  -13.1841   19.6081 C   0  0  2  0  0  0  0  0  0  0  0  0
  -27.6667  -15.4441   25.6710 C   0  0  0  0  0  0  0  0  0  0  0  0
  -22.2013  -31.3910   24.8775 C   0  0  0  0  0  0  0  0  0  0  0  0
  -23.9897  -30.5043   18.5619 C   0  0  0  0  0  0  0  0  0  0  0  0
  -24.4606  -31.5163   20.8030 C   0  0  0  0  0  0  0  0  0  0  0  0
  -22.3851  -32.1383   19.5667 C   0  0  0  0  0  0  0  0  0  0  0  0
  -20.2824  -28.1110   24.6884 C   0  0  0  0  0  0  0  0  0  0  0  0
  -22.5650  -29.8428   20.6110 C   0  0  1  0  0  0  0  0  0  0  0  0
  -21.4142  -30.2825   24.1960 C   0  0  2  0  0  0  0  0  0  0  0  0
  -23.3470  -30.9723   19.8828 C   0  0  0  0  0  0  0  0  0  0  0  0
  -25.7992  -11.5964   20.1838 N   0  0  0  0  0  0  0  0  0  0  0  0
  -30.7747  -14.7093   22.8355 N   0  0  0  0  0  0  0  0  0  0  0  0
  -26.2380  -12.8665   20.2051 N   0  0  0  0  0  0  0  0  0  0  0  0
  -27.7556  -20.0474   20.8132 N   0  0  0  0  0  0  0  0  0  0  0  0
  -30.0206  -13.4065   20.0546 N   0  0  0  0  0  0  0  0  0  0  0  0
  -21.5754  -27.8805   19.4733 N   0  0  0  0  0  0  0  0  0  0  0  0
  -25.6507  -15.0565   20.8905 N   0  0  0  0  0  0  0  0  0  0  0  0
  -22.0912  -12.5801   22.1526 N   0  0  0  0  0  0  0  0  0  0  0  0
  -28.5616  -16.1721   23.5583 N   0  0  0  0  0  0  0  0  0  0  0  0
  -20.5745  -27.4643   16.0740 N   0  0  0  0  0  0  0  0  0  0  0  0
  -21.9230  -30.2643   21.8513 N   0  0  0  0  0  0  0  0  0  0  0  0
  -21.0768  -29.2500   25.2163 N   0  3  0  0  0  0  0  0  0  0  0  0
  -22.9603  -14.7016   22.1039 O   0  0  0  0  0  0  0  0  0  0  0  0
  -32.0370  -14.6152   20.0776 O   0  0  0  0  0  0  0  0  0  0  0  0
  -22.6108  -27.1325   17.1538 O   0  0  0  0  0  0  0  0  0  0  0  0
  -20.5628  -29.9769   19.3462 O   0  0  0  0  0  0  0  0  0  0  0  0
  -26.9470  -17.4818   24.6691 O   0  0  0  0  0  0  0  0  0  0  0  0
  -22.9983  -28.7374   23.2259 O   0  0  0  0  0  0  0  0  0  0  0  0
  -21.4814   -7.0884   21.4421 O   0  0  0  0  0  0  0  0  0  0  0  0
  -24.2668  -22.4959   20.8205 O   0  0  0  0  0  0  0  0  0  1  0  0
  -23.9835   -2.5315   23.2801 F   0  0  0  0  0  0  0  0  0  0  0  0
  -29.6047  -19.0919   18.9819 F   0  0  0  0  0  0  0  0  0  0  0  0
  -20.6877   -5.8885   23.8029 F   0  0  0  0  0  0  0  0  0  0  0  0
  1  2  1  0  0  0  0
  1  5  2  0  0  0  0
  2  6  2  0  0  0  0
  3  8  2  0  0  0  0
  3 17  1  0  0  0  0
  4  9  1  0  0  0  0
  4 17  2  0  0  0  0
  5 20  1  0  0  0  0
  6 22  1  0  0  0  0
  7 10  2  0  0  0  0
  7 21  1  0  0  0  0
  8 26  1  0  0  0  0
  9 26  2  0  0  0  0
 10 27  1  0  0  0  0
 11 12  2  0  0  0  0
 11 28  1  0  0  0  0
 12 29  1  0  0  0  0
 13 18  2  0  0  0  0
 13 30  1  0  0  0  0
 14 23  1  0  0  0  0
 14 27  2  0  0  0  0
 15 24  1  0  0  0  0
 15 25  2  0  0  0  0
 16 29  2  0  0  0  0
 16 31  1  0  0  0  0
 17 32  1  0  0  0  0
 18 25  1  0  0  0  0
 18 36  1  0  0  0  0
 19 32  1  0  0  0  0
 19 33  2  0  0  0  0
 19 37  1  0  0  0  0
 20 22  2  0  0  0  0
 20 43  1  0  0  0  0
 21 23  2  0  0  0  0
 21 44  1  0  0  0  0
 22 54  1  0  0  0  0
 23 45  1  0  0  0  0
 24 30  2  0  0  0  0
 24 69  1  0  0  0  0
 25 74  1  0  0  0  0
 26 84  1  0  0  0  0
 27 85  1  0  0  0  0
 28 31  2  0  0  0  0
 28 84  1  0  0  0  0
 29 86  1  0  0  0  0
 30 87  1  0  0  0  0
 31 88  1  0  0  0  0
 32 66  2  0  0  0  0
 33 68  1  0  0  0  0
 33 72  1  0  0  0  0
 34 35  2  0  0  0  0
 34 46  1  0  0  0  0
 34 47  1  0  0  0  0
 35 85  1  0  0  0  0
 36 38  1  0  0  0  0
 36 67  2  0  0  0  0
 37 73  1  0  0  0  0
 37 78  2  0  0  0  0
 38 70  1  0  0  0  0
 38 79  2  0  0  0  0
 39 55  1  0  0  0  0
 39 75  1  0  0  0  0
 39 80  2  0  0  0  0
 40 63  1  0  0  0  0
 40 71  1  0  0  0  0
 40 81  2  0  0  0  0
 41 57  1  0  0  0  0
 41 74  1  0  0  0  0
 41 82  2  0  0  0  0
 42 64  1  0  0  0  0
 42 76  1  0  0  0  0
 42 83  2  0  0  0  0
 43 48  1  0  0  0  0
 44 55  1  0  0  0  0
 45 71  1  0  0  0  0
 46 69  1  0  0  0  0
 47 69  1  0  0  0  0
 48 50  1  0  0  0  0
 49 51  1  0  0  0  0
 49 52  1  0  0  0  0
 50 54  1  0  0  0  0
 51 56  1  0  0  0  0
 52 70  1  0  0  0  0
 53 56  1  0  0  0  0
 53 70  1  0  0  0  0
 54 75  1  0  0  0  0
 55 71  1  0  0  0  0
 56 68  1  0  0  0  0
 58 64  1  0  0  0  0
 59 65  1  0  0  0  0
 60 65  1  0  0  0  0
 61 65  1  0  0  0  0
 62 77  1  0  0  0  0
 63 65  1  0  0  0  0
 63 76  1  0  0  0  0
 64 77  1  0  0  0  0
 66 68  1  0  0  0  0
M  CHG  1  77   1
M  ISO  4  35 101  36 100  38 100  85 101
M  END
> <Batch ID>
0074

> <Smiles>
CNC(C)C(=O)NC(C(=O)N1Cc2cc([101O:1][101CH:1]=C3CN(c4cc(NC(C)=O)c([100C:0](=N)[100C:0](=O)N5CCCC(n6nc(-c7ccc(Oc8ccc(F)cc8F)cc7)c(C(N)=O)c6N)C5)cc4F)C3)ccc2CC1C(=O)NC1CCCc2ccccc21)C(C)(C)C

> <Shape>
0.263

> <Color>
0.187

> <Negative vol penalty>
0.000

$$$$

  -OEChem-04042323443D

 89 98  0     1  0  0  0  0  0999 V2000
  -20.7626  -10.4555   24.2635 C   0  0  0  0  0  0  0  0  0  0  0  0
  -21.6814  -11.4981   24.3056 C   0  0  0  0  0  0  0  0  0  0  0  0
  -22.6383  -29.9523   21.2787 C   0  0  0  0  0  0  0  0  0  0  0  0
  -22.4439  -28.8554   23.4226 C   0  0  0  0  0  0  0  0  0  0  0  0
  -20.8674   -9.4787   23.2756 C   0  0  0  0  0  0  0  0  0  0  0  0
  -22.6981  -11.5708   23.3527 C   0  0  0  0  0  0  0  0  0  0  0  0
  -26.2153  -17.2810   21.5497 C   0  0  0  0  0  0  0  0  0  0  0  0
  -21.6873  -29.0814   20.7469 C   0  0  0  0  0  0  0  0  0  0  0  0
  -21.4928  -27.9846   22.8908 C   0  0  0  0  0  0  0  0  0  0  0  0
  -27.0528  -18.3662   21.2903 C   0  0  0  0  0  0  0  0  0  0  0  0
  -18.7489  -25.7040   22.1925 C   0  0  0  0  0  0  0  0  0  0  0  0
  -17.6018  -25.4563   22.9465 C   0  0  0  0  0  0  0  0  0  0  0  0
  -28.3277  -17.0236   19.7349 C   0  0  0  0  0  0  0  0  0  0  0  0
  -17.0519  -27.8081   22.8824 C   0  0  0  0  0  0  0  0  0  0  0  0
  -23.0167  -29.8392   22.6165 C   0  0  0  0  0  0  0  0  0  0  0  0
  -23.9183  -32.1414   23.2448 C   0  0  0  0  0  0  0  0  0  0  0  0
  -21.8936   -9.5334   22.3180 C   0  0  0  0  0  0  0  0  0  0  0  0
  -26.4214  -16.0656   20.8905 C   0  0  0  0  0  0  0  0  0  0  0  0
  -22.8063  -10.6077   22.3333 C   0  0  0  0  0  0  0  0  0  0  0  0
  -27.4840  -15.9372   19.9811 C   0  0  0  0  0  0  0  0  0  0  0  0
  -21.1145  -28.0976   21.5529 C   0  0  0  0  0  0  0  0  0  0  0  0
  -28.1066  -18.2377   20.3854 C   0  0  0  0  0  0  0  0  0  0  0  0
  -19.0476  -27.0037   21.7836 C   0  0  0  0  0  0  0  0  0  0  0  0
  -16.7533  -26.5083   23.2914 C   0  0  0  0  0  0  0  0  0  0  0  0
  -18.1991  -28.0557   22.1285 C   0  0  0  0  0  0  0  0  0  0  0  0
  -23.9994  -30.7382   23.1663 C   0  0  0  0  0  0  0  0  0  0  0  0
  -25.0945  -32.5202   23.8445 C   0  0  0  0  0  0  0  0  0  0  0  0
  -28.3584  -24.4326   24.6389 C   0  0  0  0  0  0  0  0  0  0  0  0
  -29.6708  -23.9574   21.9826 C   0  0  0  0  0  0  0  0  0  0  0  0
  -26.8515  -25.0697   22.6425 C   0  0  0  0  0  0  0  0  0  0  0  0
  -28.8744  -23.1112   24.2501 C   0  0  0  0  0  0  0  0  0  0  0  0
  -28.4801  -23.5541   21.4824 C   0  0  0  0  0  0  0  0  0  0  0  0
  -29.3109  -22.9506   22.9730 C   0  0  0  0  0  0  0  0  0  0  0  0
  -27.5201  -25.2567   23.9535 C   0  0  0  0  0  0  0  0  0  0  0  0
  -27.2320  -24.3890   21.5407 C   0  0  0  0  0  0  0  0  0  0  0  0
  -22.8732  -33.0235   22.8143 C   0  0  0  0  0  0  0  0  0  0  0  0
  -25.3792  -12.5091   20.4287 C   0  0  0  0  0  0  0  0  0  0  0  0
  -27.2555  -20.9463   20.6222 C   0  0  0  0  0  0  0  0  0  0  0  0
  -26.1952  -13.6806   17.5801 C   0  0  0  0  0  0  0  0  0  0  0  0
  -24.1783  -10.7287   17.0939 C   0  0  0  0  0  0  0  0  0  0  0  0
  -27.4851  -27.6621   23.9574 C   0  0  0  0  0  0  0  0  0  0  0  0
  -21.9556   -8.4540   21.2662 C   0  0  0  0  0  0  0  0  0  0  0  0
  -25.5814  -14.8531   21.1900 C   0  0  0  0  0  0  0  0  0  0  0  0
  -27.6890  -14.6030   19.3203 C   0  0  0  0  0  0  0  0  0  0  0  0
  -23.3149   -8.3704   20.5795 C   0  0  0  0  0  0  0  0  0  0  0  0
  -26.7575  -29.8137   26.8199 C   0  0  0  0  0  0  0  0  0  0  0  0
  -23.7536   -9.7544   20.1248 C   0  0  0  0  0  0  0  0  0  0  0  0
  -27.0760  -31.1962   26.2629 C   0  0  0  0  0  0  0  0  0  0  0  0
  -27.6874  -28.7413   26.2581 C   0  0  0  0  0  0  0  0  0  0  0  0
  -28.0074  -30.0706   24.1801 C   0  0  0  0  0  0  0  0  0  0  0  0
  -23.9387  -10.6906   21.3257 C   0  0  1  0  0  0  0  0  0  0  0  0
  -25.3634  -13.9374   19.9689 C   0  0  1  0  0  0  0  0  0  0  0  0
  -27.1511  -31.2256   24.7284 C   0  0  1  0  0  0  0  0  0  0  0  0
  -28.5120  -21.9941   25.1828 C   0  0  0  0  0  0  0  0  0  0  0  0
  -26.0194   -9.0236   17.0742 C   0  0  0  0  0  0  0  0  0  0  0  0
  -29.3880  -21.5231   19.3766 C   0  0  0  0  0  0  0  0  0  0  0  0
  -27.6354  -20.0725   18.2912 C   0  0  0  0  0  0  0  0  0  0  0  0
  -23.8913  -15.4428   16.6330 C   0  0  0  0  0  0  0  0  0  0  0  0
  -22.7114  -13.3703   15.8707 C   0  0  0  0  0  0  0  0  0  0  0  0
  -24.9011  -14.0016   14.8560 C   0  0  0  0  0  0  0  0  0  0  0  0
  -26.6531  -26.3169   25.9409 C   0  0  0  0  0  0  0  0  0  0  0  0
  -23.4149   -9.7653   14.4016 C   0  0  0  0  0  0  0  0  0  0  0  0
  -27.7383  -21.2761   22.0239 C   0  0  0  0  0  0  0  0  0  0  0  0
  -24.8414  -13.1158   17.2232 C   0  0  1  0  0  0  0  0  0  0  0  0
  -24.6421   -9.3916   16.5448 C   0  0  2  0  0  0  0  0  0  0  0  0
  -28.3027  -20.4750   19.6021 C   0  0  0  0  0  0  0  0  0  1  0  0
  -24.0946  -13.9854   16.1728 C   0  0  0  0  0  0  0  0  0  0  0  0
  -25.1372  -30.2581   23.6752 N   0  0  0  0  0  0  0  0  0  0  0  0
  -25.7819  -31.3659   24.0792 N   0  0  0  0  0  0  0  0  0  0  0  0
  -28.7125  -22.3452   21.9657 N   0  0  0  0  0  0  0  0  0  0  0  0
  -26.3953  -14.0386   18.9191 N   0  0  0  0  0  0  0  0  0  0  0  0
  -27.7366  -28.7662   24.7909 N   0  0  0  0  0  0  0  0  0  0  0  0
  -25.5974  -33.7249   24.1886 N   0  0  0  0  0  0  0  0  0  0  0  0
  -21.8521  -33.3418   23.7200 N   0  0  0  0  0  0  0  0  0  0  0  0
  -24.1486  -12.0386   20.8455 N   0  0  0  0  0  0  0  0  0  0  0  0
  -25.0719  -11.7378   16.8030 N   0  0  0  0  0  0  0  0  0  0  0  0
  -27.1698  -26.4382   24.5735 N   0  0  0  0  0  0  0  0  0  0  0  0
  -24.7073   -9.4372   15.0566 N   0  3  0  0  0  0  0  0  0  0  0  0
  -22.8369  -33.5019   21.6553 O   0  0  0  0  0  0  0  0  0  0  0  0
  -26.4298  -11.8787   20.4059 O   0  0  0  0  0  0  0  0  0  0  0  0
  -26.0673  -21.0484   20.3082 O   0  0  0  0  0  0  0  0  0  0  0  0
  -27.0449  -13.8076   16.6945 O   0  0  0  0  0  0  0  0  0  0  0  0
  -23.1267  -10.8651   17.7151 O   0  0  0  0  0  0  0  0  0  0  0  0
  -27.5467  -27.7645   22.7242 O   0  0  0  0  0  0  0  0  0  0  0  0
  -20.1863  -27.2478   21.0344 O   0  0  0  0  0  0  0  0  0  0  0  0
  -28.9179  -19.3021   20.1334 O   0  0  0  0  0  0  0  0  0  1  0  0
  -15.6510  -26.2701   24.0141 F   0  0  0  0  0  0  0  0  0  0  0  0
  -18.4801  -29.3063   21.7375 F   0  0  0  0  0  0  0  0  0  0  0  0
  -26.4302  -24.3681   20.4549 F   0  0  0  0  0  0  0  0  0  0  0  0
  1  2  1  0  0  0  0
  1  5  2  0  0  0  0
  2  6  2  0  0  0  0
  3  8  2  0  0  0  0
  3 15  1  0  0  0  0
  4  9  1  0  0  0  0
  4 15  2  0  0  0  0
  5 17  1  0  0  0  0
  6 19  1  0  0  0  0
  7 10  2  0  0  0  0
  7 18  1  0  0  0  0
  8 21  1  0  0  0  0
  9 21  2  0  0  0  0
 10 22  1  0  0  0  0
 11 12  2  0  0  0  0
 11 23  1  0  0  0  0
 12 24  1  0  0  0  0
 13 20  1  0  0  0  0
 13 22  2  0  0  0  0
 14 24  2  0  0  0  0
 14 25  1  0  0  0  0
 15 26  1  0  0  0  0
 16 26  1  0  0  0  0
 16 27  2  0  0  0  0
 16 36  1  0  0  0  0
 17 19  2  0  0  0  0
 17 42  1  0  0  0  0
 18 20  2  0  0  0  0
 18 43  1  0  0  0  0
 19 51  1  0  0  0  0
 20 44  1  0  0  0  0
 21 85  1  0  0  0  0
 22 86  1  0  0  0  0
 23 25  2  0  0  0  0
 23 85  1  0  0  0  0
 24 87  1  0  0  0  0
 25 88  1  0  0  0  0
 26 68  2  0  0  0  0
 27 69  1  0  0  0  0
 27 73  1  0  0  0  0
 28 31  1  0  0  0  0
 28 34  2  0  0  0  0
 29 32  2  0  0  0  0
 29 33  1  0  0  0  0
 30 34  1  0  0  0  0
 30 35  2  0  0  0  0
 31 33  2  0  0  0  0
 31 54  1  0  0  0  0
 32 35  1  0  0  0  0
 32 70  1  0  0  0  0
 33 70  1  0  0  0  0
 34 77  1  0  0  0  0
 35 89  1  0  0  0  0
 36 74  1  0  0  0  0
 36 79  2  0  0  0  0
 37 52  1  0  0  0  0
 37 75  1  0  0  0  0
 37 80  2  0  0  0  0
 38 63  1  0  0  0  0
 38 66  1  0  0  0  0
 38 81  2  0  0  0  0
 39 64  1  0  0  0  0
 39 71  1  0  0  0  0
 39 82  2  0  0  0  0
 40 65  1  0  0  0  0
 40 76  1  0  0  0  0
 40 83  2  0  0  0  0
 41 72  1  0  0  0  0
 41 77  1  0  0  0  0
 41 84  2  0  0  0  0
 42 45  1  0  0  0  0
 43 52  1  0  0  0  0
 44 71  1  0  0  0  0
 45 47  1  0  0  0  0
 46 48  1  0  0  0  0
 46 49  1  0  0  0  0
 47 51  1  0  0  0  0
 48 53  1  0  0  0  0
 49 72  1  0  0  0  0
 50 53  1  0  0  0  0
 50 72  1  0  0  0  0
 51 75  1  0  0  0  0
 52 71  1  0  0  0  0
 53 69  1  0  0  0  0
 55 65  1  0  0  0  0
 56 66  1  0  0  0  0
 57 66  1  0  0  0  0
 58 67  1  0  0  0  0
 59 67  1  0  0  0  0
 60 67  1  0  0  0  0
 61 77  1  0  0  0  0
 62 78  1  0  0  0  0
 63 70  1  0  0  0  0
 64 67  1  0  0  0  0
 64 76  1  0  0  0  0
 65 78  1  0  0  0  0
 66 86  1  0  0  0  0
 68 69  1  0  0  0  0
M  CHG  1  78   1
M  ISO  4  41 100  66 101  77 100  86 101
M  END
> <Batch ID>
0074

> <Smiles>
CNC(C)C(=O)NC(C(=O)N1Cc2cc([101O:1][101C:1](C)(C)C(=O)CN3C4=CC3=C(F)C=C([100N:0](C)[100C:0](=O)N3CCCC(n5nc(-c6ccc(Oc7ccc(F)cc7F)cc6)c(C(N)=O)c5N)C3)C=C4C)ccc2CC1C(=O)NC1CCCc2ccccc21)C(C)(C)C

> <Shape>
0.249

> <Color>
0.053

> <Negative vol penalty>
0.000

$$$$

  -OEChem-04042323443D

 87 95  0     1  0  0  0  0  0999 V2000
  -16.7873  -26.7992   28.2380 C   0  0  0  0  0  0  0  0  0  0  0  0
  -18.0189  -26.1776   28.0586 C   0  0  0  0  0  0  0  0  0  0  0  0
  -32.6435  -17.4482   23.4582 C   0  0  0  0  0  0  0  0  0  0  0  0
  -22.9986   -9.8946   19.9817 C   0  0  0  0  0  0  0  0  0  0  0  0
  -23.7188   -9.9509   22.2872 C   0  0  0  0  0  0  0  0  0  0  0  0
  -31.8483  -18.3482   24.1676 C   0  0  0  0  0  0  0  0  0  0  0  0
  -16.1284  -27.3658   27.1476 C   0  0  0  0  0  0  0  0  0  0  0  0
  -18.5917  -26.1211   26.7886 C   0  0  0  0  0  0  0  0  0  0  0  0
  -24.5557  -26.3965   25.4245 C   0  0  0  0  0  0  0  0  0  0  0  0
  -32.0557  -16.5502   22.5672 C   0  0  0  0  0  0  0  0  0  0  0  0
  -22.2305   -8.7615   20.2492 C   0  0  0  0  0  0  0  0  0  0  0  0
  -22.9506   -8.8177   22.5548 C   0  0  0  0  0  0  0  0  0  0  0  0
  -25.4993  -25.4104   25.1396 C   0  0  0  0  0  0  0  0  0  0  0  0
  -23.1931   -5.4774   22.0919 C   0  0  0  0  0  0  0  0  0  0  0  0
  -23.7781   -4.4616   22.8479 C   0  0  0  0  0  0  0  0  0  0  0  0
  -29.8775  -17.4521   23.0952 C   0  0  0  0  0  0  0  0  0  0  0  0
  -25.1300  -25.7472   22.7797 C   0  0  0  0  0  0  0  0  0  0  0  0
  -22.0508   -4.7103   24.5187 C   0  0  0  0  0  0  0  0  0  0  0  0
  -23.7428  -10.4893   21.0007 C   0  0  0  0  0  0  0  0  0  0  0  0
  -30.4653  -18.3501   23.9861 C   0  0  0  0  0  0  0  0  0  0  0  0
  -24.1307  -13.0041   20.8191 C   0  0  0  0  0  0  0  0  0  0  0  0
  -16.6980  -27.3247   25.8653 C   0  0  0  0  0  0  0  0  0  0  0  0
  -23.8831  -27.0588   24.3875 C   0  0  0  0  0  0  0  0  0  0  0  0
  -17.9392  -26.6865   25.6798 C   0  0  0  0  0  0  0  0  0  0  0  0
  -24.1802  -26.7431   23.0540 C   0  0  0  0  0  0  0  0  0  0  0  0
  -30.6727  -16.5521   22.3858 C   0  0  0  0  0  0  0  0  0  0  0  0
  -22.2065   -8.2230   21.5358 C   0  0  0  0  0  0  0  0  0  0  0  0
  -25.7845  -25.0836   23.8172 C   0  0  0  0  0  0  0  0  0  0  0  0
  -22.0370   -6.1097   22.5493 C   0  0  0  0  0  0  0  0  0  0  0  0
  -23.2070   -4.0780   24.0613 C   0  0  0  0  0  0  0  0  0  0  0  0
  -21.4658   -5.7261   23.7627 C   0  0  0  0  0  0  0  0  0  0  0  0
  -24.5369  -11.6595   20.7248 C   0  0  0  0  0  0  0  0  0  0  0  0
  -25.2419  -13.7248   20.4553 C   0  0  0  0  0  0  0  0  0  0  0  0
  -29.6226  -19.3029   24.7363 C   0  0  0  0  0  0  0  0  0  0  0  0
  -22.8623  -13.5526   21.2014 C   0  0  0  0  0  0  0  0  0  0  0  0
  -20.8456  -27.3112   23.4855 C   0  0  0  0  0  0  0  0  0  0  0  0
  -28.3106  -22.4236   24.1664 C   0  0  0  0  0  0  0  0  0  0  0  0
  -22.0604  -29.4371   21.3578 C   0  0  0  0  0  0  0  0  0  0  0  0
  -24.7574  -30.5361   19.5787 C   0  0  0  0  0  0  0  0  0  0  0  0
  -30.7216  -14.6818   20.6988 C   0  0  0  0  0  0  0  0  0  0  0  0
  -15.9260  -27.9094   24.7090 C   0  0  0  0  0  0  0  0  0  0  0  0
  -22.8875  -28.1388   24.7109 C   0  0  0  0  0  0  0  0  0  0  0  0
  -23.5006  -27.4389   21.9040 C   0  0  0  0  0  0  0  0  0  0  0  0
  -16.7761  -28.1360   23.4615 C   0  0  0  0  0  0  0  0  0  0  0  0
  -29.6063  -12.2239   18.3767 C   0  0  0  0  0  0  0  0  0  0  0  0
  -17.6332  -26.9085   23.1693 C   0  0  0  0  0  0  0  0  0  0  0  0
  -28.1546  -11.9686   18.7883 C   0  0  0  0  0  0  0  0  0  0  0  0
  -30.5044  -12.4696   19.5879 C   0  0  0  0  0  0  0  0  0  0  0  0
  -28.5868  -13.2636   20.9152 C   0  0  0  0  0  0  0  0  0  0  0  0
  -18.6045  -26.6267   24.3219 C   0  0  1  0  0  0  0  0  0  0  0  0
  -21.8890  -28.3878   23.5847 C   0  0  1  0  0  0  0  0  0  0  0  0
  -27.6316  -13.0750   19.7253 C   0  0  2  0  0  0  0  0  0  0  0  0
  -25.4328  -32.2698   17.8948 C   0  0  0  0  0  0  0  0  0  0  0  0
  -31.0403  -23.2734   25.2754 C   0  0  0  0  0  0  0  0  0  0  0  0
  -30.6490  -21.7185   27.2027 C   0  0  0  0  0  0  0  0  0  0  0  0
  -20.6762  -27.8372   19.1590 C   0  0  0  0  0  0  0  0  0  0  0  0
  -22.1278  -29.0088   17.4891 C   0  0  0  0  0  0  0  0  0  0  0  0
  -20.5336  -30.3196   18.8903 C   0  0  0  0  0  0  0  0  0  0  0  0
  -26.7325  -31.7322   21.4300 C   0  0  0  0  0  0  0  0  0  0  0  0
  -27.3398  -23.4865   24.6455 C   0  0  0  0  0  0  0  0  0  1  0  0
  -29.0583  -21.6530   25.2418 C   0  0  2  0  0  0  0  0  0  0  0  0
  -22.6115  -29.3496   19.9551 C   0  0  1  0  0  0  0  0  0  0  0  0
  -25.3293  -31.9271   19.3728 C   0  0  2  0  0  0  0  0  0  0  0  0
  -29.9772  -22.5385   26.0975 C   0  0  0  0  0  0  0  0  0  0  0  0
  -21.4989  -29.1141   18.8949 C   0  0  0  0  0  0  0  0  0  0  0  0
  -25.8069  -11.5309   20.3317 N   0  0  0  0  0  0  0  0  0  0  0  0
  -26.2083  -12.8040   20.1757 N   0  0  0  0  0  0  0  0  0  0  0  0
  -22.5302  -28.4833   22.2717 N   0  0  0  0  0  0  0  0  0  0  0  0
  -29.9484  -13.5332   20.4272 N   0  0  0  0  0  0  0  0  0  0  0  0
  -25.4767  -15.0500   20.3503 N   0  0  0  0  0  0  0  0  0  0  0  0
  -21.8290  -12.6702   21.5449 N   0  0  0  0  0  0  0  0  0  0  0  0
  -30.0765  -15.6395   21.4806 N   0  0  0  0  0  0  0  0  0  0  0  0
  -29.8380  -20.6148   24.5695 N   0  0  0  0  0  0  0  0  0  0  0  0
  -19.7294  -27.5356   24.2686 N   0  0  0  0  0  0  0  0  0  0  0  0
  -23.3889  -30.5661   19.7453 N   0  0  0  0  0  0  0  0  0  0  0  0
  -28.6869  -18.8100   25.5479 N   0  3  0  0  0  0  0  0  0  0  0  0
  -26.6899  -32.0219   19.9735 N   0  3  0  0  0  0  0  0  0  0  0  0
  -22.6467  -14.7882   21.2215 O   0  0  0  0  0  0  0  0  0  0  0  0
  -21.0383  -26.3489   22.7517 O   0  0  0  0  0  0  0  0  0  0  0  0
  -28.4750  -22.1982   22.9670 O   0  0  0  0  0  0  0  0  0  0  0  0
  -21.2485  -30.3237   21.6343 O   0  0  0  0  0  0  0  0  0  0  0  0
  -25.4543  -29.5238   19.5869 O   0  0  0  0  0  0  0  0  0  0  0  0
  -31.8614  -14.8185   20.2470 O   0  0  0  0  0  0  0  0  0  0  0  0
  -21.4569   -7.1175   21.7972 O   0  0  0  0  0  0  0  0  0  0  0  0
  -26.7045  -24.1211   23.5364 O   0  0  0  0  0  0  0  0  0  1  0  0
  -23.7680   -3.1015   24.7864 F   0  0  0  0  0  0  0  0  0  0  0  0
  -20.3544   -6.3291   24.2067 F   0  0  0  0  0  0  0  0  0  0  0  0
  1  2  1  0  0  0  0
  1  7  2  0  0  0  0
  2  8  2  0  0  0  0
  3  6  2  0  0  0  0
  3 10  1  0  0  0  0
  4 11  2  0  0  0  0
  4 19  1  0  0  0  0
  5 12  1  0  0  0  0
  5 19  2  0  0  0  0
  6 20  1  0  0  0  0
  7 22  1  0  0  0  0
  8 24  1  0  0  0  0
  9 13  2  0  0  0  0
  9 23  1  0  0  0  0
 10 26  2  0  0  0  0
 11 27  1  0  0  0  0
 12 27  2  0  0  0  0
 13 28  1  0  0  0  0
 14 15  2  0  0  0  0
 14 29  1  0  0  0  0
 15 30  1  0  0  0  0
 16 20  2  0  0  0  0
 16 26  1  0  0  0  0
 17 25  1  0  0  0  0
 17 28  2  0  0  0  0
 18 30  2  0  0  0  0
 18 31  1  0  0  0  0
 19 32  1  0  0  0  0
 20 34  1  0  0  0  0
 21 32  1  0  0  0  0
 21 33  2  0  0  0  0
 21 35  1  0  0  0  0
 22 24  2  0  0  0  0
 22 41  1  0  0  0  0
 23 25  2  0  0  0  0
 23 42  1  0  0  0  0
 24 50  1  0  0  0  0
 25 43  1  0  0  0  0
 26 72  1  0  0  0  0
 27 84  1  0  0  0  0
 28 85  1  0  0  0  0
 29 31  2  0  0  0  0
 29 84  1  0  0  0  0
 30 86  1  0  0  0  0
 31 87  1  0  0  0  0
 32 66  2  0  0  0  0
 33 67  1  0  0  0  0
 33 70  1  0  0  0  0
 34 73  1  0  0  0  0
 34 76  2  0  0  0  0
 35 71  1  0  0  0  0
 35 78  2  0  0  0  0
 36 51  1  0  0  0  0
 36 74  1  0  0  0  0
 36 79  2  0  0  0  0
 37 60  1  0  0  0  0
 37 61  1  0  0  0  0
 37 80  2  0  0  0  0
 38 62  1  0  0  0  0
 38 68  1  0  0  0  0
 38 81  2  0  0  0  0
 39 63  1  0  0  0  0
 39 75  1  0  0  0  0
 39 82  2  0  0  0  0
 40 69  1  0  0  0  0
 40 72  1  0  0  0  0
 40 83  2  0  0  0  0
 41 44  1  0  0  0  0
 42 51  1  0  0  0  0
 43 68  1  0  0  0  0
 44 46  1  0  0  0  0
 45 47  1  0  0  0  0
 45 48  1  0  0  0  0
 46 50  1  0  0  0  0
 47 52  1  0  0  0  0
 48 69  1  0  0  0  0
 49 52  1  0  0  0  0
 49 69  1  0  0  0  0
 50 74  1  0  0  0  0
 51 68  1  0  0  0  0
 52 67  1  0  0  0  0
 53 63  1  0  0  0  0
 54 64  1  0  0  0  0
 55 64  1  0  0  0  0
 56 65  1  0  0  0  0
 57 65  1  0  0  0  0
 58 65  1  0  0  0  0
 59 77  1  0  0  0  0
 60 85  1  0  0  0  0
 61 64  1  0  0  0  0
 61 73  1  0  0  0  0
 62 65  1  0  0  0  0
 62 75  1  0  0  0  0
 63 77  1  0  0  0  0
 66 67  1  0  0  0  0
M  CHG  2  76   1  77   1
M  ISO  4  40 100  60 101  72 100  85 101
M  END
> <Batch ID>
0074

> <Smiles>
CNC(C)C(=O)NC(C(=O)N1Cc2cc([101O:1][101CH2:1]C(=O)C(NC(=N)c3cccc([100NH:0][100C:0](=O)N4CCCC(n5nc(-c6ccc(Oc7ccc(F)cc7F)cc6)c(C(N)=O)c5N)C4)c3)C(C)C)ccc2CC1C(=O)NC1CCCc2ccccc21)C(C)(C)C

> <Shape>
0.268

> <Color>
0.186

> <Negative vol penalty>
0.000

$$$$

  -OEChem-04042323443D

 83 91  0     1  0  0  0  0  0999 V2000
  -20.4804  -27.3383   26.6960 C   0  0  0  0  0  0  0  0  0  0  0  0
  -21.7386  -27.2409   26.1103 C   0  0  0  0  0  0  0  0  0  0  0  0
  -29.3664  -22.5477   17.7130 C   0  0  0  0  0  0  0  0  0  0  0  0
  -26.5812  -12.9108   21.6511 C   0  0  0  0  0  0  0  0  0  0  0  0
  -26.2568  -14.1480   19.6014 C   0  0  0  0  0  0  0  0  0  0  0  0
  -19.3489  -27.4830   25.8943 C   0  0  0  0  0  0  0  0  0  0  0  0
  -21.8658  -27.2870   24.7225 C   0  0  0  0  0  0  0  0  0  0  0  0
  -25.6547  -30.2911   23.2177 C   0  0  0  0  0  0  0  0  0  0  0  0
  -29.4138  -23.7864   18.3526 C   0  0  0  0  0  0  0  0  0  0  0  0
  -29.7492  -21.3942   18.3976 C   0  0  0  0  0  0  0  0  0  0  0  0
  -25.2574  -12.4748   21.5975 C   0  0  0  0  0  0  0  0  0  0  0  0
  -24.9329  -13.7119   19.5478 C   0  0  0  0  0  0  0  0  0  0  0  0
  -26.9484  -29.7801   23.3121 C   0  0  0  0  0  0  0  0  0  0  0  0
  -23.4718  -10.1317   19.9378 C   0  0  0  0  0  0  0  0  0  0  0  0
  -23.2228   -8.7827   20.1906 C   0  0  0  0  0  0  0  0  0  0  0  0
  -26.9114  -29.2673   20.9552 C   0  0  0  0  0  0  0  0  0  0  0  0
  -30.2267  -22.7181   20.3613 C   0  0  0  0  0  0  0  0  0  0  0  0
  -21.8181   -9.3922   22.0594 C   0  0  0  0  0  0  0  0  0  0  0  0
  -27.0809  -13.7474   20.6531 C   0  0  0  0  0  0  0  0  0  0  0  0
  -29.5750  -13.5671   20.1484 C   0  0  0  0  0  0  0  0  0  0  0  0
  -19.4633  -27.5406   24.4964 C   0  0  0  0  0  0  0  0  0  0  0  0
  -24.9744  -30.2841   21.9915 C   0  0  0  0  0  0  0  0  0  0  0  0
  -20.7346  -27.4312   23.9013 C   0  0  0  0  0  0  0  0  0  0  0  0
  -25.6101  -29.7812   20.8474 C   0  0  0  0  0  0  0  0  0  0  0  0
  -29.8439  -23.8716   19.6767 C   0  0  0  0  0  0  0  0  0  0  0  0
  -30.1794  -21.4794   19.7218 C   0  0  0  0  0  0  0  0  0  0  0  0
  -24.4332  -12.8753   20.5458 C   0  0  0  0  0  0  0  0  0  0  0  0
  -27.5759  -29.2654   22.1814 C   0  0  0  0  0  0  0  0  0  0  0  0
  -22.8939  -11.1109   20.7458 C   0  0  0  0  0  0  0  0  0  0  0  0
  -22.3960   -8.4130   21.2514 C   0  0  0  0  0  0  0  0  0  0  0  0
  -22.0671  -10.7412   21.8066 C   0  0  0  0  0  0  0  0  0  0  0  0
  -28.4482  -14.1986   20.7082 C   0  0  0  0  0  0  0  0  0  0  0  0
  -30.6266  -14.3876   20.4762 C   0  0  0  0  0  0  0  0  0  0  0  0
  -29.0363  -27.4546   21.9384 C   0  0  0  0  0  0  0  0  0  1  0  0
  -29.6632  -12.3480   19.3991 C   0  0  0  0  0  0  0  0  0  0  0  0
  -30.2283  -26.8441   21.9840 C   0  0  0  0  0  0  0  0  0  0  0  0
  -30.3098  -25.3923   21.6221 C   0  0  0  0  0  0  0  0  0  0  0  0
  -22.3088  -28.9295   20.9130 C   0  0  0  0  0  0  0  0  0  0  0  0
  -22.9373  -30.7061   18.2727 C   0  0  0  0  0  0  0  0  0  0  0  0
  -25.2445  -32.3436   16.3643 C   0  0  0  0  0  0  0  0  0  0  0  0
  -31.0191  -20.2161   21.7330 C   0  0  0  0  0  0  0  0  0  0  0  0
  -18.2070  -27.6503   23.6692 C   0  0  0  0  0  0  0  0  0  0  0  0
  -23.5893  -30.8635   21.9008 C   0  0  0  0  0  0  0  0  0  0  0  0
  -24.9306  -29.7692   19.5033 C   0  0  0  0  0  0  0  0  0  0  0  0
  -18.4642  -28.0669   22.2233 C   0  0  0  0  0  0  0  0  0  0  0  0
  -32.0360  -17.5150   23.8180 C   0  0  0  0  0  0  0  0  0  0  0  0
  -19.6127  -27.2567   21.6305 C   0  0  0  0  0  0  0  0  0  0  0  0
  -31.3388  -16.2996   23.2025 C   0  0  0  0  0  0  0  0  0  0  0  0
  -31.1628  -18.7664   23.7462 C   0  0  0  0  0  0  0  0  0  0  0  0
  -29.9545  -17.8755   21.7928 C   0  0  0  0  0  0  0  0  0  0  0  0
  -20.9159  -27.5020   22.4006 C   0  0  1  0  0  0  0  0  0  0  0  0
  -22.7976  -30.3355   20.7084 C   0  0  1  0  0  0  0  0  0  0  0  0
  -30.8210  -16.6056   21.7834 C   0  0  2  0  0  0  0  0  0  0  0  0
  -31.5032  -27.4877   22.4331 C   0  0  0  0  0  0  0  0  0  0  0  0
  -25.4645  -33.6686   14.2445 C   0  0  0  0  0  0  0  0  0  0  0  0
  -22.7334  -28.1328   16.6458 C   0  0  0  0  0  0  0  0  0  0  0  0
  -23.8729  -29.3184   14.7579 C   0  0  0  0  0  0  0  0  0  0  0  0
  -21.6618  -30.1268   15.5827 C   0  0  0  0  0  0  0  0  0  0  0  0
  -26.2039  -34.7343   17.8214 C   0  0  0  0  0  0  0  0  0  0  0  0
  -23.7225  -30.4910   17.0014 C   0  0  1  0  0  0  0  0  0  0  0  0
  -25.2397  -33.7306   15.7473 C   0  0  2  0  0  0  0  0  0  0  0  0
  -23.0100  -29.5155   16.0226 C   0  0  0  0  0  0  0  0  0  0  0  0
  -28.7552  -15.3327   21.3435 N   0  0  0  0  0  0  0  0  0  0  0  0
  -30.0868  -15.4202   21.1851 N   0  0  0  0  0  0  0  0  0  0  0  0
  -23.5744  -30.3411   19.4671 N   0  0  0  0  0  0  0  0  0  0  0  0
  -30.7128  -18.9957   22.3715 N   0  0  0  0  0  0  0  0  0  0  0  0
  -31.9511  -14.3192   20.2244 N   0  0  0  0  0  0  0  0  0  0  0  0
  -28.4859  -11.6288   19.1522 N   0  0  0  0  0  0  0  0  0  0  0  0
  -29.8913  -25.1296   20.3256 N   0  0  0  0  0  0  0  0  0  0  0  0
  -30.5680  -20.3073   20.4167 N   0  0  0  0  0  0  0  0  0  0  0  0
  -21.4966  -28.7717   22.0198 N   0  0  0  0  0  0  0  0  0  0  0  0
  -23.9728  -31.8170   16.4470 N   0  0  0  0  0  0  0  0  0  0  0  0
  -26.3148  -34.5690   16.3492 N   0  3  0  0  0  0  0  0  0  0  0  0
  -30.7560  -11.9008   18.9755 O   0  0  0  0  0  0  0  0  0  0  0  0
  -30.7676  -24.5993   22.4391 O   0  0  0  0  0  0  0  0  0  0  0  0
  -22.6424  -28.0530   20.1242 O   0  0  0  0  0  0  0  0  0  0  0  0
  -21.8031  -31.1870   18.2089 O   0  0  0  0  0  0  0  0  0  0  0  0
  -26.2738  -31.7819   16.7324 O   0  0  0  0  0  0  0  0  0  0  0  0
  -31.6599  -21.1034   22.3023 O   0  0  0  0  0  0  0  0  0  0  0  0
  -23.1414  -12.4498   20.4931 O   0  0  0  0  0  0  0  0  0  0  0  0
  -28.8383  -28.7654   22.2709 O   0  0  0  0  0  0  0  0  0  1  0  0
  -22.1558   -7.1176   21.4931 F   0  0  0  0  0  0  0  0  0  0  0  0
  -21.5082  -11.6774   22.5856 F   0  0  0  0  0  0  0  0  0  0  0  0
  1  2  1  0  0  0  0
  1  6  2  0  0  0  0
  2  7  2  0  0  0  0
  3  9  2  0  0  0  0
  3 10  1  0  0  0  0
  4 11  2  0  0  0  0
  4 19  1  0  0  0  0
  5 12  1  0  0  0  0
  5 19  2  0  0  0  0
  6 21  1  0  0  0  0
  7 23  1  0  0  0  0
  8 13  2  0  0  0  0
  8 22  1  0  0  0  0
  9 25  1  0  0  0  0
 10 26  2  0  0  0  0
 11 27  1  0  0  0  0
 12 27  2  0  0  0  0
 13 28  1  0  0  0  0
 14 15  2  0  0  0  0
 14 29  1  0  0  0  0
 15 30  1  0  0  0  0
 16 24  1  0  0  0  0
 16 28  2  0  0  0  0
 17 25  2  0  0  0  0
 17 26  1  0  0  0  0
 18 30  2  0  0  0  0
 18 31  1  0  0  0  0
 19 32  1  0  0  0  0
 20 32  1  0  0  0  0
 20 33  2  0  0  0  0
 20 35  1  0  0  0  0
 21 23  2  0  0  0  0
 21 42  1  0  0  0  0
 22 24  2  0  0  0  0
 22 43  1  0  0  0  0
 23 51  1  0  0  0  0
 24 44  1  0  0  0  0
 25 69  1  0  0  0  0
 26 70  1  0  0  0  0
 27 80  1  0  0  0  0
 28 81  1  0  0  0  0
 29 31  2  0  0  0  0
 29 80  1  0  0  0  0
 30 82  1  0  0  0  0
 31 83  1  0  0  0  0
 32 63  2  0  0  0  0
 33 64  1  0  0  0  0
 33 67  1  0  0  0  0
 34 36  2  0  0  0  0
 34 81  1  0  0  0  0
 35 68  1  0  0  0  0
 35 74  2  0  0  0  0
 36 37  1  0  0  0  0
 36 54  1  0  0  0  0
 37 69  1  0  0  0  0
 37 75  2  0  0  0  0
 38 52  1  0  0  0  0
 38 71  1  0  0  0  0
 38 76  2  0  0  0  0
 39 60  1  0  0  0  0
 39 65  1  0  0  0  0
 39 77  2  0  0  0  0
 40 61  1  0  0  0  0
 40 72  1  0  0  0  0
 40 78  2  0  0  0  0
 41 66  1  0  0  0  0
 41 70  1  0  0  0  0
 41 79  2  0  0  0  0
 42 45  1  0  0  0  0
 43 52  1  0  0  0  0
 44 65  1  0  0  0  0
 45 47  1  0  0  0  0
 46 48  1  0  0  0  0
 46 49  1  0  0  0  0
 47 51  1  0  0  0  0
 48 53  1  0  0  0  0
 49 66  1  0  0  0  0
 50 53  1  0  0  0  0
 50 66  1  0  0  0  0
 51 71  1  0  0  0  0
 52 65  1  0  0  0  0
 53 64  1  0  0  0  0
 55 61  1  0  0  0  0
 56 62  1  0  0  0  0
 57 62  1  0  0  0  0
 58 62  1  0  0  0  0
 59 73  1  0  0  0  0
 60 62  1  0  0  0  0
 60 72  1  0  0  0  0
 61 73  1  0  0  0  0
 63 64  1  0  0  0  0
M  CHG  1  73   1
M  ISO  4  34 101  41 100  70 100  81 101
M  END
> <Batch ID>
0074

> <Smiles>
CNC(C)C(=O)NC(C(=O)N1Cc2cc([101O:1][101CH:1]=C(C)C(=O)Nc3cccc([100NH:0][100C:0](=O)N4CCCC(n5nc(-c6ccc(Oc7ccc(F)cc7F)cc6)c(C(N)=O)c5N)C4)c3)ccc2CC1C(=O)NC1CCCc2ccccc21)C(C)(C)C

> <Shape>
0.302

> <Color>
0.076

> <Negative vol penalty>
0.000

$$$$

  -OEChem-04042323443D

 86 94  0     1  0  0  0  0  0999 V2000
  -17.4566  -26.4880   21.6328 C   0  0  0  0  0  0  0  0  0  0  0  0
  -18.6983  -26.2143   21.0683 C   0  0  0  0  0  0  0  0  0  0  0  0
  -21.8179  -17.9247   20.0265 C   0  0  0  0  0  0  0  0  0  0  0  0
  -20.3800  -16.3701   18.8634 C   0  0  0  0  0  0  0  0  0  0  0  0
  -17.2056  -27.7420   22.1881 C   0  0  0  0  0  0  0  0  0  0  0  0
  -19.6895  -27.1950   21.0578 C   0  0  0  0  0  0  0  0  0  0  0  0
  -24.2222  -25.3906   22.4157 C   0  0  0  0  0  0  0  0  0  0  0  0
  -21.3991  -18.9481   19.1763 C   0  0  0  0  0  0  0  0  0  0  0  0
  -19.9611  -17.3935   18.0133 C   0  0  0  0  0  0  0  0  0  0  0  0
  -24.9342  -24.6709   21.4571 C   0  0  0  0  0  0  0  0  0  0  0  0
  -22.0561  -19.9989   16.0317 C   0  0  0  0  0  0  0  0  0  0  0  0
  -23.0330  -20.8448   15.5066 C   0  0  0  0  0  0  0  0  0  0  0  0
  -31.3331  -18.8136   18.2751 C   0  0  0  0  0  0  0  0  0  0  0  0
  -29.2261  -19.0990   19.4221 C   0  0  0  0  0  0  0  0  0  0  0  0
  -26.2655  -26.6268   20.9863 C   0  0  0  0  0  0  0  0  0  0  0  0
  -30.3259  -21.0046   18.4240 C   0  0  0  0  0  0  0  0  0  0  0  0
  -21.9585  -22.7372   16.5559 C   0  0  0  0  0  0  0  0  0  0  0  0
  -21.3084  -16.6356   19.8700 C   0  0  0  0  0  0  0  0  0  0  0  0
  -30.2642  -18.2736   18.9902 C   0  0  0  0  0  0  0  0  0  0  0  0
  -21.1601  -15.1985   21.9725 C   0  0  0  0  0  0  0  0  0  0  0  0
  -18.1975  -28.7354   22.1930 C   0  0  0  0  0  0  0  0  0  0  0  0
  -24.5197  -26.7391   22.6595 C   0  0  0  0  0  0  0  0  0  0  0  0
  -19.4512  -28.4640   21.6125 C   0  0  0  0  0  0  0  0  0  0  0  0
  -25.5575  -27.3606   21.9503 C   0  0  0  0  0  0  0  0  0  0  0  0
  -31.3640  -20.1791   17.9921 C   0  0  0  0  0  0  0  0  0  0  0  0
  -29.2569  -20.4645   19.1390 C   0  0  0  0  0  0  0  0  0  0  0  0
  -20.4707  -18.6826   18.1697 C   0  0  0  0  0  0  0  0  0  0  0  0
  -25.9541  -25.2898   20.7402 C   0  0  0  0  0  0  0  0  0  0  0  0
  -21.0303  -20.5222   16.8189 C   0  0  0  0  0  0  0  0  0  0  0  0
  -22.9842  -22.2139   15.7687 C   0  0  0  0  0  0  0  0  0  0  0  0
  -20.9815  -21.8913   17.0810 C   0  0  0  0  0  0  0  0  0  0  0  0
  -21.7410  -15.5779   20.7475 C   0  0  0  0  0  0  0  0  0  0  0  0
  -21.9351  -14.1526   22.4106 C   0  0  0  0  0  0  0  0  0  0  0  0
  -30.2314  -16.8311   19.2901 C   0  0  0  0  0  0  0  0  0  0  0  0
  -29.1250  -16.1458   19.6139 C   0  0  0  0  0  0  0  0  0  0  0  0
  -20.0218  -15.7428   22.6533 C   0  0  0  0  0  0  0  0  0  0  0  0
  -29.2109  -14.6825   19.8888 C   0  0  0  0  0  0  0  0  0  0  0  0
  -22.9178  -29.4722   22.3991 C   0  0  0  0  0  0  0  0  0  0  0  0
  -25.5697  -30.7084   23.7998 C   0  0  0  0  0  0  0  0  0  0  0  0
  -28.0759  -22.6734   19.3841 C   0  0  0  0  0  0  0  0  0  0  0  0
  -28.9083  -30.4179   24.4449 C   0  0  0  0  0  0  0  0  0  0  0  0
  -27.7319  -12.7968   20.5209 C   0  0  0  0  0  0  0  0  0  0  0  0
  -17.8639  -30.0915   22.7626 C   0  0  0  0  0  0  0  0  0  0  0  0
  -23.7602  -27.4941   23.7157 C   0  0  0  0  0  0  0  0  0  0  0  0
  -25.9296  -28.8005   22.1887 C   0  0  0  0  0  0  0  0  0  0  0  0
  -19.0925  -30.9519   23.0466 C   0  0  0  0  0  0  0  0  0  0  0  0
  -24.7132  -10.6948   20.4598 C   0  0  0  0  0  0  0  0  0  0  0  0
  -20.0534  -30.9177   21.8624 C   0  0  0  0  0  0  0  0  0  0  0  0
  -23.5508  -11.6125   20.8432 C   0  0  0  0  0  0  0  0  0  0  0  0
  -26.0286  -11.0969   21.1127 C   0  0  0  0  0  0  0  0  0  0  0  0
  -25.2903  -13.4669   20.7877 C   0  0  0  0  0  0  0  0  0  0  0  0
  -20.5602  -29.4936   21.6041 C   0  0  1  0  0  0  0  0  0  0  0  0
  -23.8054  -29.0061   23.5183 C   0  0  1  0  0  0  0  0  0  0  0  0
  -24.0101  -12.9448   21.4584 C   0  0  1  0  0  0  0  0  0  0  0  0
  -32.5070  -20.7572   17.2280 C   0  0  0  0  0  0  0  0  0  0  0  0
  -30.8053  -31.6033   25.5822 C   0  0  0  0  0  0  0  0  0  0  0  0
  -25.7164  -32.6901   21.4843 C   0  0  0  0  0  0  0  0  0  0  0  0
  -28.0792  -33.1843   22.1484 C   0  0  0  0  0  0  0  0  0  0  0  0
  -26.2130  -33.6715   23.7303 C   0  0  0  0  0  0  0  0  0  0  0  0
  -29.3548  -28.1614   26.3070 C   0  0  0  0  0  0  0  0  0  0  0  0
  -26.7956  -23.1863   20.0169 C   0  0  0  0  0  0  0  0  0  1  0  0
  -26.8789  -31.2706   23.3008 C   0  0  1  0  0  0  0  0  0  0  0  0
  -29.7025  -30.5666   25.7300 C   0  0  2  0  0  0  0  0  0  0  0  0
  -26.7138  -32.6775   22.6599 C   0  0  0  0  0  0  0  0  0  0  0  0
  -22.8032  -14.8337   20.4281 N   0  0  0  0  0  0  0  0  0  0  0  0
  -22.8959  -13.9762   21.4588 N   0  0  0  0  0  0  0  0  0  0  0  0
  -25.1536  -29.4981   23.2273 N   0  0  0  0  0  0  0  0  0  0  0  0
  -26.3841  -12.4817   20.7919 N   0  0  0  0  0  0  0  0  0  0  0  0
  -21.8817  -13.3759   23.5135 N   0  0  0  0  0  0  0  0  0  0  0  0
  -19.3403  -16.8159   22.0630 N   0  0  0  0  0  0  0  0  0  0  0  0
  -28.2043  -21.3023   19.5781 N   0  0  0  0  0  0  0  0  0  0  0  0
  -27.9644  -14.1438   20.2075 N   0  0  0  0  0  0  0  0  0  0  0  0
  -21.5862  -29.1408   22.5619 N   0  0  0  0  0  0  0  0  0  0  0  0
  -27.7970  -31.2342   24.4340 N   0  0  0  0  0  0  0  0  0  0  0  0
  -30.3269  -29.2667   26.1063 N   0  3  0  0  0  0  0  0  0  0  0  0
  -19.6306  -15.3016   23.7605 O   0  0  0  0  0  0  0  0  0  0  0  0
  -30.2685  -14.0633   19.8377 O   0  0  0  0  0  0  0  0  0  0  0  0
  -23.4048  -30.0883   21.4584 O   0  0  0  0  0  0  0  0  0  0  0  0
  -24.9430  -31.3170   24.6707 O   0  0  0  0  0  0  0  0  0  0  0  0
  -28.8476  -23.4241   18.7963 O   0  0  0  0  0  0  0  0  0  0  0  0
  -29.2424  -29.6568   23.5396 O   0  0  0  0  0  0  0  0  0  0  0  0
  -28.6349  -11.9554   20.5409 O   0  0  0  0  0  0  0  0  0  0  0  0
  -20.0616  -19.6810   17.3401 O   0  0  0  0  0  0  0  0  0  0  0  0
  -26.6502  -24.5898   19.8036 O   0  0  0  0  0  0  0  0  0  1  0  0
  -23.9233  -23.0259   15.2657 F   0  0  0  0  0  0  0  0  0  0  0  0
  -19.9991  -22.3997   17.8375 F   0  0  0  0  0  0  0  0  0  0  0  0
  1  2  1  0  0  0  0
  1  5  2  0  0  0  0
  2  6  2  0  0  0  0
  3  8  2  0  0  0  0
  3 18  1  0  0  0  0
  4  9  1  0  0  0  0
  4 18  2  0  0  0  0
  5 21  1  0  0  0  0
  6 23  1  0  0  0  0
  7 10  2  0  0  0  0
  7 22  1  0  0  0  0
  8 27  1  0  0  0  0
  9 27  2  0  0  0  0
 10 28  1  0  0  0  0
 11 12  2  0  0  0  0
 11 29  1  0  0  0  0
 12 30  1  0  0  0  0
 13 19  2  0  0  0  0
 13 25  1  0  0  0  0
 14 19  1  0  0  0  0
 14 26  2  0  0  0  0
 15 24  1  0  0  0  0
 15 28  2  0  0  0  0
 16 25  2  0  0  0  0
 16 26  1  0  0  0  0
 17 30  2  0  0  0  0
 17 31  1  0  0  0  0
 18 32  1  0  0  0  0
 19 34  1  0  0  0  0
 20 32  1  0  0  0  0
 20 33  2  0  0  0  0
 20 36  1  0  0  0  0
 21 23  2  0  0  0  0
 21 43  1  0  0  0  0
 22 24  2  0  0  0  0
 22 44  1  0  0  0  0
 23 52  1  0  0  0  0
 24 45  1  0  0  0  0
 25 55  1  0  0  0  0
 26 71  1  0  0  0  0
 27 83  1  0  0  0  0
 28 84  1  0  0  0  0
 29 31  2  0  0  0  0
 29 83  1  0  0  0  0
 30 85  1  0  0  0  0
 31 86  1  0  0  0  0
 32 65  2  0  0  0  0
 33 66  1  0  0  0  0
 33 69  1  0  0  0  0
 34 35  2  0  0  0  0
 35 37  1  0  0  0  0
 36 70  1  0  0  0  0
 36 76  2  0  0  0  0
 37 72  1  0  0  0  0
 37 77  2  0  0  0  0
 38 53  1  0  0  0  0
 38 73  1  0  0  0  0
 38 78  2  0  0  0  0
 39 62  1  0  0  0  0
 39 67  1  0  0  0  0
 39 79  2  0  0  0  0
 40 61  1  0  0  0  0
 40 71  1  0  0  0  0
 40 80  2  0  0  0  0
 41 63  1  0  0  0  0
 41 74  1  0  0  0  0
 41 81  2  0  0  0  0
 42 68  1  0  0  0  0
 42 72  1  0  0  0  0
 42 82  2  0  0  0  0
 43 46  1  0  0  0  0
 44 53  1  0  0  0  0
 45 67  1  0  0  0  0
 46 48  1  0  0  0  0
 47 49  1  0  0  0  0
 47 50  1  0  0  0  0
 48 52  1  0  0  0  0
 49 54  1  0  0  0  0
 50 68  1  0  0  0  0
 51 54  1  0  0  0  0
 51 68  1  0  0  0  0
 52 73  1  0  0  0  0
 53 67  1  0  0  0  0
 54 66  1  0  0  0  0
 56 63  1  0  0  0  0
 57 64  1  0  0  0  0
 58 64  1  0  0  0  0
 59 64  1  0  0  0  0
 60 75  1  0  0  0  0
 61 84  1  0  0  0  0
 62 64  1  0  0  0  0
 62 74  1  0  0  0  0
 63 75  1  0  0  0  0
 65 66  1  0  0  0  0
M  CHG  1  75   1
M  ISO  4  42 100  61 101  72 100  84 101
M  END
> <Batch ID>
0074

> <Smiles>
CNC(C)C(=O)NC(C(=O)N1Cc2cc([101O:1][101CH2:1]C(=O)Nc3cc(C)cc(C=CC(=O)[100NH:0][100C:0](=O)N4CCCC(n5nc(-c6ccc(Oc7ccc(F)cc7F)cc6)c(C(N)=O)c5N)C4)c3)ccc2CC1C(=O)NC1CCCc2ccccc21)C(C)(C)C

> <Shape>
0.235

> <Color>
0.065

> <Negative vol penalty>
0.000

$$$$

  -OEChem-04042323443D

 88 97  0     1  0  0  0  0  0999 V2000
  -30.4123  -26.7411   14.6114 C   0  0  0  0  0  0  0  0  0  0  0  0
  -29.3513  -26.2462   15.3628 C   0  0  0  0  0  0  0  0  0  0  0  0
  -22.7311  -10.2625   20.6517 C   0  0  0  0  0  0  0  0  0  0  0  0
  -24.4808   -9.0402   21.7838 C   0  0  0  0  0  0  0  0  0  0  0  0
  -27.8184  -19.9578   18.7169 C   0  0  0  0  0  0  0  0  0  0  0  0
  -26.3301  -18.1434   18.1426 C   0  0  0  0  0  0  0  0  0  0  0  0
  -31.2673  -27.6964   15.1594 C   0  0  0  0  0  0  0  0  0  0  0  0
  -29.1452  -26.7055   16.6631 C   0  0  0  0  0  0  0  0  0  0  0  0
  -24.2802  -27.7478   17.6072 C   0  0  0  0  0  0  0  0  0  0  0  0
  -26.7211  -20.7966   18.9108 C   0  0  0  0  0  0  0  0  0  0  0  0
  -25.2327  -18.9822   18.3366 C   0  0  0  0  0  0  0  0  0  0  0  0
  -21.9387   -9.1147   20.6372 C   0  0  0  0  0  0  0  0  0  0  0  0
  -23.6883   -7.8924   21.7693 C   0  0  0  0  0  0  0  0  0  0  0  0
  -23.4357  -26.6683   17.8624 C   0  0  0  0  0  0  0  0  0  0  0  0
  -21.0752   -6.6496   23.5151 C   0  0  0  0  0  0  0  0  0  0  0  0
  -20.9984   -5.9021   24.6901 C   0  0  0  0  0  0  0  0  0  0  0  0
  -23.6047  -27.1034   20.2291 C   0  0  0  0  0  0  0  0  0  0  0  0
  -21.9072   -3.9869   23.5311 C   0  0  0  0  0  0  0  0  0  0  0  0
  -24.0022  -10.2252   21.2249 C   0  0  0  0  0  0  0  0  0  0  0  0
  -27.6230  -18.6311   18.3328 C   0  0  0  0  0  0  0  0  0  0  0  0
  -24.5191  -12.6455   21.8437 C   0  0  0  0  0  0  0  0  0  0  0  0
  -31.0658  -28.1748   16.4637 C   0  0  0  0  0  0  0  0  0  0  0  0
  -24.8029  -28.5078   18.6634 C   0  0  0  0  0  0  0  0  0  0  0  0
  -29.9990  -27.6672   17.2296 C   0  0  0  0  0  0  0  0  0  0  0  0
  -24.4536  -28.1936   19.9845 C   0  0  0  0  0  0  0  0  0  0  0  0
  -25.4282  -20.3089   18.7206 C   0  0  0  0  0  0  0  0  0  0  0  0
  -22.4172   -7.9297   21.1960 C   0  0  0  0  0  0  0  0  0  0  0  0
  -23.1001  -26.3441   19.1737 C   0  0  0  0  0  0  0  0  0  0  0  0
  -21.5679   -6.0658   22.3479 C   0  0  0  0  0  0  0  0  0  0  0  0
  -21.4145   -4.5707   24.6982 C   0  0  0  0  0  0  0  0  0  0  0  0
  -21.9839   -4.7345   22.3560 C   0  0  0  0  0  0  0  0  0  0  0  0
  -24.8216  -11.4104   21.2397 C   0  0  0  0  0  0  0  0  0  0  0  0
  -25.6106  -13.4351   21.5760 C   0  0  0  0  0  0  0  0  0  0  0  0
  -23.0465  -22.6828   20.3309 C   0  0  0  0  0  0  0  0  0  0  0  0
  -28.7918  -17.7378   18.1262 C   0  0  0  0  0  0  0  0  0  0  0  0
  -23.3556  -13.0434   22.5810 C   0  0  0  0  0  0  0  0  0  0  0  0
  -27.7252  -29.1261   19.7504 C   0  0  0  0  0  0  0  0  0  0  0  0
  -26.1395  -31.1524   21.7257 C   0  0  0  0  0  0  0  0  0  0  0  0
  -24.8957  -33.1888   24.1656 C   0  0  0  0  0  0  0  0  0  0  0  0
  -29.5033  -15.3677   18.1395 C   0  0  0  0  0  0  0  0  0  0  0  0
  -32.0444  -29.1730   17.0300 C   0  0  0  0  0  0  0  0  0  0  0  0
  -25.6912  -29.6856   18.3699 C   0  0  0  0  0  0  0  0  0  0  0  0
  -24.9718  -28.9905   21.1527 C   0  0  0  0  0  0  0  0  0  0  0  0
  -24.4255  -22.2349   19.8915 C   0  0  0  0  0  0  0  0  0  0  0  0
  -31.5346  -29.8831   18.2814 C   0  0  0  0  0  0  0  0  0  0  0  0
  -30.1510  -12.2480   19.6708 C   0  0  0  0  0  0  0  0  0  0  0  0
  -30.9311  -28.8779   19.2572 C   0  0  0  0  0  0  0  0  0  0  0  0
  -28.7998  -11.8542   20.2737 C   0  0  0  0  0  0  0  0  0  0  0  0
  -22.0093  -21.6827   18.3094 C   0  0  0  0  0  0  0  0  0  0  0  0
  -29.9886  -12.9433   18.3199 C   0  0  0  0  0  0  0  0  0  0  0  0
  -23.4032  -21.3373   17.7911 C   0  0  0  0  0  0  0  0  0  0  0  0
  -27.7196  -13.6895   18.9139 C   0  0  0  0  0  0  0  0  0  0  0  0
  -29.7280  -28.1589   18.6349 C   0  0  1  0  0  0  0  0  0  0  0  0
  -26.5772  -30.0744   19.5495 C   0  0  1  0  0  0  0  0  0  0  0  0
  -27.8256  -13.0489   20.3073 C   0  0  1  0  0  0  0  0  0  0  0  0
  -21.9906  -22.9021   19.2456 C   0  0  1  0  0  0  0  0  0  0  0  0
  -20.5944  -23.0202   19.8781 C   0  0  0  0  0  0  0  0  0  0  0  0
  -25.4757  -34.1610   26.4052 C   0  0  0  0  0  0  0  0  0  0  0  0
  -25.5738  -28.4572   23.0394 C   0  0  0  0  0  0  0  0  0  0  0  0
  -25.2275  -29.6642   25.2054 C   0  0  0  0  0  0  0  0  0  0  0  0
  -27.4490  -29.7489   24.0737 C   0  0  0  0  0  0  0  0  0  0  0  0
  -24.7225  -35.9586   23.1376 C   0  0  0  0  0  0  0  0  0  0  0  0
  -22.3085  -24.2052   18.4996 C   0  0  0  0  0  0  0  0  0  1  0  0
  -25.5080  -31.0377   23.0921 C   0  0  1  0  0  0  0  0  0  0  0  0
  -25.5048  -34.3700   24.8991 C   0  0  2  0  0  0  0  0  0  0  0  0
  -25.9242  -29.7338   23.8297 C   0  0  0  0  0  0  0  0  0  0  0  0
  -26.0119  -11.4105   20.6337 N   0  0  0  0  0  0  0  0  0  0  0  0
  -26.4669  -12.6554   20.8556 N   0  0  0  0  0  0  0  0  0  0  0  0
  -24.3257  -21.1516   18.9154 N   0  0  1  0  0  0  0  0  0  0  0  0
  -25.8420  -30.1290   20.8147 N   0  0  0  0  0  0  0  0  0  0  0  0
  -29.0590  -14.0680   18.4389 N   0  0  0  0  0  0  0  0  0  0  0  0
  -25.9117  -14.7133   21.8887 N   0  0  0  0  0  0  0  0  0  0  0  0
  -23.3450  -12.8482   23.9689 N   0  0  0  0  0  0  0  0  0  0  0  0
  -28.5528  -16.3777   18.3253 N   0  0  0  0  0  0  0  0  0  0  0  0
  -28.5614  -29.0150   18.6558 N   0  0  0  0  0  0  0  0  0  0  0  0
  -25.8520  -32.2632   23.8049 N   0  0  0  0  0  0  0  0  0  0  0  0
  -24.7548  -35.6185   24.5833 N   0  3  0  0  0  0  0  0  0  0  0  0
  -22.8310  -22.9475   21.5154 O   0  0  0  0  0  0  0  0  0  0  0  0
  -29.8597  -18.2241   17.7645 O   0  0  0  0  0  0  0  0  0  0  0  0
  -22.3485  -13.5416   22.0234 O   0  0  0  0  0  0  0  0  0  0  0  0
  -27.8446  -28.5398   20.8198 O   0  0  0  0  0  0  0  0  0  0  0  0
  -26.8640  -32.1184   21.4734 O   0  0  0  0  0  0  0  0  0  0  0  0
  -23.6915  -33.0946   23.9387 O   0  0  0  0  0  0  0  0  0  0  0  0
  -30.6576  -15.6128   17.7750 O   0  0  0  0  0  0  0  0  0  0  0  0
  -21.6441   -6.8096   21.1823 O   0  0  0  0  0  0  0  0  0  0  0  0
  -22.2765  -25.2905   19.4256 O   0  0  0  0  0  0  0  0  0  1  0  0
  -21.3422   -3.8534   25.8271 F   0  0  0  0  0  0  0  0  0  0  0  0
  -22.4592   -4.1685   21.2381 F   0  0  0  0  0  0  0  0  0  0  0  0
  1  2  1  0  0  0  0
  1  7  2  0  0  0  0
  2  8  2  0  0  0  0
  3 12  2  0  0  0  0
  3 19  1  0  0  0  0
  4 13  1  0  0  0  0
  4 19  2  0  0  0  0
  5 10  2  0  0  0  0
  5 20  1  0  0  0  0
  6 11  1  0  0  0  0
  6 20  2  0  0  0  0
  7 22  1  0  0  0  0
  8 24  1  0  0  0  0
  9 14  2  0  0  0  0
  9 23  1  0  0  0  0
 10 26  1  0  0  0  0
 11 26  2  0  0  0  0
 12 27  1  0  0  0  0
 13 27  2  0  0  0  0
 14 28  1  0  0  0  0
 15 16  2  0  0  0  0
 15 29  1  0  0  0  0
 16 30  1  0  0  0  0
 17 25  1  0  0  0  0
 17 28  2  0  0  0  0
 18 30  2  0  0  0  0
 18 31  1  0  0  0  0
 19 32  1  0  0  0  0
 20 35  1  0  0  0  0
 21 32  1  0  0  0  0
 21 33  2  0  0  0  0
 21 36  1  0  0  0  0
 22 24  2  0  0  0  0
 22 41  1  0  0  0  0
 23 25  2  0  0  0  0
 23 42  1  0  0  0  0
 24 53  1  0  0  0  0
 25 43  1  0  0  0  0
 26 69  1  0  0  0  0
 27 85  1  0  0  0  0
 28 86  1  0  0  0  0
 29 31  2  0  0  0  0
 29 85  1  0  0  0  0
 30 87  1  0  0  0  0
 31 88  1  0  0  0  0
 32 67  2  0  0  0  0
 33 68  1  0  0  0  0
 33 72  1  0  0  0  0
 34 44  1  0  0  0  0
 34 56  1  0  0  0  0
 34 78  2  0  0  0  0
 35 74  1  0  0  0  0
 35 79  2  0  0  0  0
 36 73  1  0  0  0  0
 36 80  2  0  0  0  0
 37 54  1  0  0  0  0
 37 75  1  0  0  0  0
 37 81  2  0  0  0  0
 38 64  1  0  0  0  0
 38 70  1  0  0  0  0
 38 82  2  0  0  0  0
 39 65  1  0  0  0  0
 39 76  1  0  0  0  0
 39 83  2  0  0  0  0
 40 71  1  0  0  0  0
 40 74  1  0  0  0  0
 40 84  2  0  0  0  0
 41 45  1  0  0  0  0
 42 54  1  0  0  0  0
 43 70  1  0  0  0  0
 44 69  1  0  0  0  0
 45 47  1  0  0  0  0
 46 48  1  0  0  0  0
 46 50  1  0  0  0  0
 47 53  1  0  0  0  0
 48 55  1  0  0  0  0
 49 51  1  0  0  0  0
 49 56  1  0  0  0  0
 50 71  1  0  0  0  0
 51 69  1  0  0  0  0
 52 55  1  0  0  0  0
 52 71  1  0  0  0  0
 53 75  1  0  0  0  0
 54 70  1  0  0  0  0
 55 68  1  0  0  0  0
 56 57  1  0  0  0  0
 56 63  1  0  0  0  0
 58 65  1  0  0  0  0
 59 66  1  0  0  0  0
 60 66  1  0  0  0  0
 61 66  1  0  0  0  0
 62 77  1  0  0  0  0
 63 86  1  0  0  0  0
 64 66  1  0  0  0  0
 64 76  1  0  0  0  0
 65 77  1  0  0  0  0
 67 68  1  0  0  0  0
M  CHG  1  77   1
M  ISO  4  40 100  63 101  74 100  86 101
M  END
> <Batch ID>
0074

> <Smiles>
CNC(C)C(=O)NC(C(=O)N1Cc2cc([101O:1][101CH2:1]C3(C)CCN(c4ccc(C(=O)[100NH:0][100C:0](=O)N5CCCC(n6nc(-c7ccc(Oc8ccc(F)cc8F)cc7)c(C(N)=O)c6N)C5)cc4)CC3=O)ccc2CC1C(=O)NC1CCCc2ccccc21)C(C)(C)C

> <Shape>
0.290

> <Color>
0.122

> <Negative vol penalty>
0.000

$$$$

  -OEChem-04042323443D

 91 99  0     1  0  0  0  0  0999 V2000
  -28.3181  -33.8738   26.3501 C   0  0  0  0  0  0  0  0  0  0  0  0
  -28.4252  -32.6802   25.6435 C   0  0  0  0  0  0  0  0  0  0  0  0
  -24.6916   -8.2768   21.3691 C   0  0  0  0  0  0  0  0  0  0  0  0
  -23.1831  -10.1451   21.1023 C   0  0  0  0  0  0  0  0  0  0  0  0
  -27.6733  -19.4877   21.0453 C   0  0  0  0  0  0  0  0  0  0  0  0
  -27.0630  -34.3479   26.7293 C   0  0  0  0  0  0  0  0  0  0  0  0
  -27.2771  -31.9594   25.3166 C   0  0  0  0  0  0  0  0  0  0  0  0
  -27.3162  -30.3103   20.5287 C   0  0  0  0  0  0  0  0  0  0  0  0
  -28.1227  -18.2193   20.6783 C   0  0  0  0  0  0  0  0  0  0  0  0
  -23.8420   -7.7280   22.3296 C   0  0  0  0  0  0  0  0  0  0  0  0
  -22.3336   -9.5963   22.0629 C   0  0  0  0  0  0  0  0  0  0  0  0
  -28.0926  -29.1867   20.2486 C   0  0  0  0  0  0  0  0  0  0  0  0
  -21.8923   -5.6540   24.5907 C   0  0  0  0  0  0  0  0  0  0  0  0
  -21.6167   -4.2891   24.5088 C   0  0  0  0  0  0  0  0  0  0  0  0
  -25.4811  -18.9625   20.1760 C   0  0  0  0  0  0  0  0  0  0  0  0
  -26.1134  -27.8094   20.3171 C   0  0  0  0  0  0  0  0  0  0  0  0
  -20.6737   -4.6116   22.3079 C   0  0  0  0  0  0  0  0  0  0  0  0
  -24.3622   -9.4854   20.7554 C   0  0  0  0  0  0  0  0  0  0  0  0
  -26.3524  -19.8593   20.7942 C   0  0  0  0  0  0  0  0  0  0  0  0
  -25.2089   -9.8301   18.3738 C   0  0  0  0  0  0  0  0  0  0  0  0
  -25.8983  -33.6375   26.3984 C   0  0  0  0  0  0  0  0  0  0  0  0
  -25.9317  -30.1900   20.7162 C   0  0  0  0  0  0  0  0  0  0  0  0
  -26.0053  -32.4238   25.6929 C   0  0  0  0  0  0  0  0  0  0  0  0
  -25.3213  -28.9334   20.5970 C   0  0  0  0  0  0  0  0  0  0  0  0
  -27.2514  -17.3225   20.0601 C   0  0  0  0  0  0  0  0  0  0  0  0
  -22.6630   -8.3877   22.6765 C   0  0  0  0  0  0  0  0  0  0  0  0
  -27.4917  -27.9356   20.1456 C   0  0  0  0  0  0  0  0  0  0  0  0
  -21.5586   -6.4977   23.5312 C   0  0  0  0  0  0  0  0  0  0  0  0
  -21.0074   -3.7679   23.3674 C   0  0  0  0  0  0  0  0  0  0  0  0
  -25.9306  -17.6940   19.8090 C   0  0  0  0  0  0  0  0  0  0  0  0
  -20.9494   -5.9765   22.3898 C   0  0  0  0  0  0  0  0  0  0  0  0
  -25.2396  -10.0531   19.7635 C   0  0  0  0  0  0  0  0  0  0  0  0
  -26.2393  -10.5927   17.8808 C   0  0  0  0  0  0  0  0  0  0  0  0
  -25.8756  -21.2022   21.1826 C   0  0  0  0  0  0  0  0  0  0  0  0
  -24.3276   -9.0072   17.5980 C   0  0  0  0  0  0  0  0  0  0  0  0
  -23.9371  -30.7546   23.1259 C   0  0  0  0  0  0  0  0  0  0  0  0
  -21.6770  -30.0522   20.9076 C   0  0  0  0  0  0  0  0  0  0  0  0
  -20.8714  -28.4708   17.9926 C   0  0  0  0  0  0  0  0  0  0  0  0
  -26.9421  -24.8424   20.1454 C   0  0  0  0  0  0  0  0  0  0  0  0
  -28.9911  -15.5106   19.8674 C   0  0  0  0  0  0  0  0  0  0  0  0
  -24.5670  -34.1656   26.8710 C   0  0  0  0  0  0  0  0  0  0  0  0
  -25.1044  -31.4157   20.9914 C   0  0  0  0  0  0  0  0  0  0  0  0
  -23.8358  -28.7537   20.7695 C   0  0  0  0  0  0  0  0  0  0  0  0
  -23.3735  -33.5331   26.1598 C   0  0  0  0  0  0  0  0  0  0  0  0
  -30.5065  -12.3755   19.1248 C   0  0  0  0  0  0  0  0  0  0  0  0
  -23.5319  -32.0172   26.0964 C   0  0  0  0  0  0  0  0  0  0  0  0
  -29.3243  -11.4049   19.0718 C   0  0  0  0  0  0  0  0  0  0  0  0
  -30.3197  -13.4382   20.2062 C   0  0  0  0  0  0  0  0  0  0  0  0
  -27.8701  -13.2061   20.0858 C   0  0  0  0  0  0  0  0  0  0  0  0
  -24.7814  -31.6260   25.2981 C   0  0  1  0  0  0  0  0  0  0  0  0
  -23.7764  -31.0997   21.6724 C   0  0  1  0  0  0  0  0  0  0  0  0
  -27.9826  -12.1562   18.9682 C   0  0  2  0  0  0  0  0  0  0  0  0
  -18.9371  -28.0457   16.4515 C   0  0  0  0  0  0  0  0  0  0  0  0
  -28.6593  -25.0465   18.3145 C   0  0  0  0  0  0  0  0  0  0  0  0
  -20.5676  -27.9969   22.8710 C   0  0  0  0  0  0  0  0  0  0  0  0
  -19.2932  -26.9752   20.9735 C   0  0  0  0  0  0  0  0  0  0  0  0
  -18.8300  -29.3279   21.6612 C   0  0  0  0  0  0  0  0  0  0  0  0
  -22.8906  -24.9076   20.1230 C   0  0  0  0  0  0  0  0  0  0  0  0
  -22.5211  -22.5119   20.7413 C   0  0  0  0  0  0  0  0  0  0  0  0
  -23.2937  -23.1177   18.4391 C   0  0  0  0  0  0  0  0  0  0  0  0
  -22.2219  -29.8270   15.7352 C   0  0  0  0  0  0  0  0  0  0  0  0
  -20.9835  -28.7918   20.4500 C   0  0  1  0  0  0  0  0  0  0  0  0
  -20.1216  -28.9477   16.7618 C   0  0  2  0  0  0  0  0  0  0  0  0
  -27.6238  -25.7771   19.1561 C   0  0  2  0  0  0  0  0  0  1  0  0
  -24.9111  -23.3850   20.3863 C   0  0  2  0  0  0  0  0  0  0  0  0
  -19.9469  -28.2757   21.4875 C   0  0  0  0  0  0  0  0  0  0  0  0
  -23.4189  -23.4707   19.9358 C   0  0  0  0  0  0  0  0  0  0  0  0
  -26.2126  -10.8916   20.1298 N   0  0  0  0  0  0  0  0  0  0  0  0
  -26.8029  -11.2021   18.9631 N   0  0  0  0  0  0  0  0  0  0  0  0
  -23.0707  -29.9813   21.0435 N   0  0  0  0  0  0  0  0  0  0  0  0
  -29.0293  -14.1111   20.0422 N   0  0  0  0  0  0  0  0  0  0  0  0
  -26.7093  -10.7947   16.6315 N   0  0  0  0  0  0  0  0  0  0  0  0
  -25.9361  -21.5288   22.4738 N   0  0  0  0  0  0  0  0  0  0  0  0
  -23.3236   -8.2907   18.2636 N   0  0  0  0  0  0  0  0  0  0  0  0
  -27.7112  -16.0347   19.6888 N   0  0  0  0  0  0  0  0  0  0  0  0
  -24.5329  -31.7492   23.8778 N   0  0  0  0  0  0  0  0  0  0  0  0
  -20.4185  -29.0899   19.1384 N   0  0  0  0  0  0  0  0  0  0  0  0
  -25.7720  -24.2982   19.6374 N   0  0  0  0  0  0  0  0  0  0  0  0
  -25.4079  -22.0009   20.2146 N   0  3  0  0  0  0  0  0  0  0  0  0
  -21.0256  -28.9605   15.5771 N   0  3  0  0  0  0  0  0  0  0  0  0
  -24.4378   -8.8974   16.3533 O   0  0  0  0  0  0  0  0  0  0  0  0
  -23.5480  -29.6671   23.5353 O   0  0  0  0  0  0  0  0  0  0  0  0
  -21.0077  -31.0643   21.1291 O   0  0  0  0  0  0  0  0  0  0  0  0
  -21.7667  -27.6302   17.9430 O   0  0  0  0  0  0  0  0  0  0  0  0
  -27.3937  -24.6290   21.2683 O   0  0  0  0  0  0  0  0  0  0  0  0
  -30.0203  -16.1906   19.8485 O   0  0  0  0  0  0  0  0  0  0  0  0
  -21.8337   -7.8524   23.6136 O   0  0  0  0  0  0  0  0  0  0  0  0
  -28.2535  -26.8282   19.8707 O   0  0  0  0  0  0  0  0  0  1  0  0
  -20.7442   -2.4569   23.2883 F   0  0  0  0  0  0  0  0  0  0  0  0
  -25.0848  -16.8407   19.2141 F   0  0  0  0  0  0  0  0  0  0  0  0
  -20.6275   -6.7819   21.3682 F   0  0  0  0  0  0  0  0  0  0  0  0
  1  2  1  0  0  0  0
  1  6  2  0  0  0  0
  2  7  2  0  0  0  0
  3 10  2  0  0  0  0
  3 18  1  0  0  0  0
  4 11  1  0  0  0  0
  4 18  2  0  0  0  0
  5  9  2  0  0  0  0
  5 19  1  0  0  0  0
  6 21  1  0  0  0  0
  7 23  1  0  0  0  0
  8 12  2  0  0  0  0
  8 22  1  0  0  0  0
  9 25  1  0  0  0  0
 10 26  1  0  0  0  0
 11 26  2  0  0  0  0
 12 27  1  0  0  0  0
 13 14  2  0  0  0  0
 13 28  1  0  0  0  0
 14 29  1  0  0  0  0
 15 19  2  0  0  0  0
 15 30  1  0  0  0  0
 16 24  1  0  0  0  0
 16 27  2  0  0  0  0
 17 29  2  0  0  0  0
 17 31  1  0  0  0  0
 18 32  1  0  0  0  0
 19 34  1  0  0  0  0
 20 32  1  0  0  0  0
 20 33  2  0  0  0  0
 20 35  1  0  0  0  0
 21 23  2  0  0  0  0
 21 41  1  0  0  0  0
 22 24  2  0  0  0  0
 22 42  1  0  0  0  0
 23 50  1  0  0  0  0
 24 43  1  0  0  0  0
 25 30  2  0  0  0  0
 25 75  1  0  0  0  0
 26 87  1  0  0  0  0
 27 88  1  0  0  0  0
 28 31  2  0  0  0  0
 28 87  1  0  0  0  0
 29 89  1  0  0  0  0
 30 90  1  0  0  0  0
 31 91  1  0  0  0  0
 32 68  2  0  0  0  0
 33 69  1  0  0  0  0
 33 72  1  0  0  0  0
 34 73  1  0  0  0  0
 34 79  2  0  0  0  0
 35 74  1  0  0  0  0
 35 81  2  0  0  0  0
 36 51  1  0  0  0  0
 36 76  1  0  0  0  0
 36 82  2  0  0  0  0
 37 62  1  0  0  0  0
 37 70  1  0  0  0  0
 37 83  2  0  0  0  0
 38 63  1  0  0  0  0
 38 77  1  0  0  0  0
 38 84  2  0  0  0  0
 39 64  1  0  0  0  0
 39 78  1  0  0  0  0
 39 85  2  0  0  0  0
 40 71  1  0  0  0  0
 40 75  1  0  0  0  0
 40 86  2  0  0  0  0
 41 44  1  0  0  0  0
 42 51  1  0  0  0  0
 43 70  1  0  0  0  0
 44 46  1  0  0  0  0
 45 47  1  0  0  0  0
 45 48  1  0  0  0  0
 46 50  1  0  0  0  0
 47 52  1  0  0  0  0
 48 71  1  0  0  0  0
 49 52  1  0  0  0  0
 49 71  1  0  0  0  0
 50 76  1  0  0  0  0
 51 70  1  0  0  0  0
 52 69  1  0  0  0  0
 53 63  1  0  0  0  0
 54 64  1  0  0  0  0
 55 66  1  0  0  0  0
 56 66  1  0  0  0  0
 57 66  1  0  0  0  0
 58 67  1  0  0  0  0
 59 67  1  0  0  0  0
 60 67  1  0  0  0  0
 61 80  1  0  0  0  0
 62 66  1  0  0  0  0
 62 77  1  0  0  0  0
 63 80  1  0  0  0  0
 64 88  1  0  0  0  0
 65 67  1  0  0  0  0
 65 78  1  0  0  0  0
 65 79  1  0  0  0  0
 68 69  1  0  0  0  0
M  CHG  2  79   1  80   1
M  ISO  4  40 100  64 101  75 100  88 101
M  END
> <Batch ID>
0074

> <Smiles>
CNC(C)C(=O)NC(C(=O)N1Cc2cc([101O:1][101CH:1](C)C(=O)NC(NC(=N)c3ccc([100NH:0][100C:0](=O)N4CCCC(n5nc(-c6ccc(Oc7ccc(F)cc7F)cc6)c(C(N)=O)c5N)C4)c(F)c3)C(C)(C)C)ccc2CC1C(=O)NC1CCCc2ccccc21)C(C)(C)C

> <Shape>
0.289

> <Color>
0.104

> <Negative vol penalty>
0.000

$$$$

  -OEChem-04042323443D

 91100  0     1  0  0  0  0  0999 V2000
  -23.4187   -4.9081   19.0240 C   0  0  0  0  0  0  0  0  0  0  0  0
  -22.3786   -5.7769   18.7096 C   0  0  0  0  0  0  0  0  0  0  0  0
  -17.1265  -28.7290   23.0518 C   0  0  0  0  0  0  0  0  0  0  0  0
  -17.7781  -29.6550   23.8663 C   0  0  0  0  0  0  0  0  0  0  0  0
  -28.4368  -26.4050   18.6593 C   0  0  0  0  0  0  0  0  0  0  0  0
  -26.4185  -25.3222   19.4282 C   0  0  0  0  0  0  0  0  0  0  0  0
  -24.3235   -5.2413   20.0310 C   0  0  0  0  0  0  0  0  0  0  0  0
  -22.2421   -6.9790   19.4030 C   0  0  0  0  0  0  0  0  0  0  0  0
  -21.9497  -14.3043   16.7045 C   0  0  0  0  0  0  0  0  0  0  0  0
  -17.8497  -27.9996   22.1081 C   0  0  0  0  0  0  0  0  0  0  0  0
  -19.1529  -29.8518   23.7370 C   0  0  0  0  0  0  0  0  0  0  0  0
  -29.0821  -25.1694   18.6129 C   0  0  0  0  0  0  0  0  0  0  0  0
  -27.0638  -24.0865   19.3817 C   0  0  0  0  0  0  0  0  0  0  0  0
  -22.0442  -15.6528   16.3603 C   0  0  0  0  0  0  0  0  0  0  0  0
  -29.2553  -22.3475   21.2802 C   0  0  0  0  0  0  0  0  0  0  0  0
  -29.0862  -21.4869   22.3648 C   0  0  0  0  0  0  0  0  0  0  0  0
  -22.9138  -16.1640   18.5581 C   0  0  0  0  0  0  0  0  0  0  0  0
  -28.1179  -19.8289   20.8983 C   0  0  0  0  0  0  0  0  0  0  0  0
  -27.1050  -26.4815   19.0670 C   0  0  0  0  0  0  0  0  0  0  0  0
  -26.2246  -28.6468   18.0452 C   0  0  0  0  0  0  0  0  0  0  0  0
  -24.2037   -6.4525   20.7305 C   0  0  0  0  0  0  0  0  0  0  0  0
  -22.3518  -13.8776   17.9732 C   0  0  0  0  0  0  0  0  0  0  0  0
  -23.1454   -7.3281   20.4213 C   0  0  0  0  0  0  0  0  0  0  0  0
  -22.8332  -14.8125   18.9043 C   0  0  0  0  0  0  0  0  0  0  0  0
  -19.2246  -28.1963   21.9788 C   0  0  0  0  0  0  0  0  0  0  0  0
  -19.8762  -29.1224   22.7933 C   0  0  0  0  0  0  0  0  0  0  0  0
  -28.3957  -24.0101   18.9741 C   0  0  0  0  0  0  0  0  0  0  0  0
  -22.5248  -16.5804   17.2849 C   0  0  0  0  0  0  0  0  0  0  0  0
  -28.8557  -21.9488   20.0046 C   0  0  0  0  0  0  0  0  0  0  0  0
  -28.5175  -20.2276   22.1739 C   0  0  0  0  0  0  0  0  0  0  0  0
  -28.2870  -20.6896   19.8137 C   0  0  0  0  0  0  0  0  0  0  0  0
  -26.4380  -27.7578   19.1157 C   0  0  0  0  0  0  0  0  0  0  0  0
  -25.5528  -29.7051   18.6065 C   0  0  0  0  0  0  0  0  0  0  0  0
  -26.6000  -28.5267   16.6667 C   0  0  0  0  0  0  0  0  0  0  0  0
  -22.7933  -11.0055   20.3465 C   0  0  0  0  0  0  0  0  0  0  0  0
  -25.2399  -12.8249   20.6846 C   0  0  0  0  0  0  0  0  0  0  0  0
  -21.0608  -22.4673   17.9185 C   0  0  0  0  0  0  0  0  0  0  0  0
  -28.3418  -14.1234   21.2582 C   0  0  0  0  0  0  0  0  0  0  0  0
  -22.0516  -30.2272   23.4205 C   0  0  0  0  0  0  0  0  0  0  0  0
  -25.1781   -6.7476   21.8433 C   0  0  0  0  0  0  0  0  0  0  0  0
  -22.2099  -12.4443   18.4084 C   0  0  0  0  0  0  0  0  0  0  0  0
  -23.2218  -14.3132   20.2691 C   0  0  0  0  0  0  0  0  0  0  0  0
  -25.1844   -8.2118   22.2750 C   0  0  0  0  0  0  0  0  0  0  0  0
  -25.0430  -32.0403   22.7564 C   0  0  0  0  0  0  0  0  0  0  0  0
  -23.7579   -8.7220   22.4529 C   0  0  0  0  0  0  0  0  0  0  0  0
  -25.7178  -31.2321   21.6458 C   0  0  0  0  0  0  0  0  0  0  0  0
  -20.6788  -27.2303   18.6820 C   0  0  0  0  0  0  0  0  0  0  0  0
  -21.6761  -25.7972   20.4766 C   0  0  0  0  0  0  0  0  0  0  0  0
  -24.3379  -31.1371   23.7667 C   0  0  0  0  0  0  0  0  0  0  0  0
  -19.5307  -27.6043   19.6201 C   0  0  0  0  0  0  0  0  0  0  0  0
  -20.5272  -26.1717   21.4142 C   0  0  0  0  0  0  0  0  0  0  0  0
  -24.0678  -29.3666   22.0751 C   0  0  0  0  0  0  0  0  0  0  0  0
  -22.9787   -8.6526   21.1341 C   0  0  1  0  0  0  0  0  0  0  0  0
  -23.3385  -11.9844   19.3485 C   0  0  1  0  0  0  0  0  0  0  0  0
  -24.7363  -30.2361   20.9977 C   0  0  2  0  0  0  0  0  0  0  0  0
  -21.2939  -25.8499   18.9847 C   0  0  0  0  0  0  0  0  0  0  0  0
  -22.5610  -25.6627   18.1307 C   0  0  0  0  0  0  0  0  0  0  0  0
  -30.1399  -14.2311   23.0054 C   0  0  0  0  0  0  0  0  0  0  0  0
  -23.5887  -14.8537   22.2535 C   0  0  0  0  0  0  0  0  0  0  0  0
  -25.7015  -15.6068   23.3658 C   0  0  0  0  0  0  0  0  0  0  0  0
  -24.9033  -13.2625   23.6657 C   0  0  0  0  0  0  0  0  0  0  0  0
  -30.3051  -12.7960   19.4856 C   0  0  0  0  0  0  0  0  0  0  0  0
  -21.6813  -21.1979   18.4742 C   0  0  0  0  0  0  0  0  0  0  0  0
  -20.3087  -24.7201   18.6309 C   0  0  0  0  0  0  0  0  0  0  0  0
  -21.8870  -20.1325   17.4035 C   0  0  0  0  0  0  0  0  0  0  0  0
  -22.4653  -18.8519   17.9879 C   0  0  0  0  0  0  0  0  0  1  0  0
  -25.8726  -13.9666   21.4393 C   0  0  1  0  0  0  0  0  0  0  0  0
  -29.6175  -13.4906   21.7841 C   0  0  2  0  0  0  0  0  0  0  0  0
  -25.0141  -14.4228   22.6527 C   0  0  0  0  0  0  0  0  0  0  0  0
  -25.9421  -28.2119   20.2697 N   0  0  0  0  0  0  0  0  0  0  0  0
  -25.4105  -29.3978   19.9277 N   0  0  0  0  0  0  0  0  0  0  0  0
  -19.9310  -27.4525   21.0242 N   0  0  0  0  0  0  0  0  0  0  0  0
  -23.9660  -13.0498   20.1487 N   0  0  0  0  0  0  0  0  0  0  0  0
  -23.4211  -30.2238   23.0811 N   0  0  0  0  0  0  0  0  0  0  0  0
  -25.0759  -30.8594   18.0940 N   0  0  0  0  0  0  0  0  0  0  0  0
  -27.2851  -27.3741   16.2588 N   0  0  0  0  0  0  0  0  0  0  0  0
  -21.2717  -29.3399   22.6795 N   0  0  0  0  0  0  0  0  0  0  0  0
  -23.3570   -9.7465   20.2653 N   0  0  0  0  0  0  0  0  0  0  0  0
  -20.8816  -23.4240   18.9069 N   0  0  0  0  0  0  0  0  0  0  0  0
  -27.2185  -13.5272   21.7911 N   0  0  0  0  0  0  0  0  0  0  0  0
  -30.6757  -13.5093   20.7349 N   0  3  0  0  0  0  0  0  0  0  0  0
  -26.3500  -29.4225   15.8249 O   0  0  0  0  0  0  0  0  0  0  0  0
  -21.9259  -11.3652   21.1339 O   0  0  0  0  0  0  0  0  0  0  0  0
  -25.8537  -11.7597   20.5764 O   0  0  0  0  0  0  0  0  0  0  0  0
  -20.7619  -22.6106   16.7360 O   0  0  0  0  0  0  0  0  0  0  0  0
  -28.3418  -15.0561   20.4578 O   0  0  0  0  0  0  0  0  0  0  0  0
  -21.5991  -30.9825   24.2847 O   0  0  0  0  0  0  0  0  0  0  0  0
  -29.0250  -22.8040   18.9287 O   0  0  0  0  0  0  0  0  0  0  0  0
  -22.6187  -17.8947   16.9407 O   0  0  0  0  0  0  0  0  0  1  0  0
  -28.3565  -19.4007   23.2153 F   0  0  0  0  0  0  0  0  0  0  0  0
  -27.9022  -20.3005   18.5904 F   0  0  0  0  0  0  0  0  0  0  0  0
  1  2  1  0  0  0  0
  1  7  2  0  0  0  0
  2  8  2  0  0  0  0
  3  4  1  0  0  0  0
  3 10  2  0  0  0  0
  4 11  2  0  0  0  0
  5 12  2  0  0  0  0
  5 19  1  0  0  0  0
  6 13  1  0  0  0  0
  6 19  2  0  0  0  0
  7 21  1  0  0  0  0
  8 23  1  0  0  0  0
  9 14  2  0  0  0  0
  9 22  1  0  0  0  0
 10 25  1  0  0  0  0
 11 26  1  0  0  0  0
 12 27  1  0  0  0  0
 13 27  2  0  0  0  0
 14 28  1  0  0  0  0
 15 16  2  0  0  0  0
 15 29  1  0  0  0  0
 16 30  1  0  0  0  0
 17 24  1  0  0  0  0
 17 28  2  0  0  0  0
 18 30  2  0  0  0  0
 18 31  1  0  0  0  0
 19 32  1  0  0  0  0
 20 32  1  0  0  0  0
 20 33  2  0  0  0  0
 20 34  1  0  0  0  0
 21 23  2  0  0  0  0
 21 40  1  0  0  0  0
 22 24  2  0  0  0  0
 22 41  1  0  0  0  0
 23 53  1  0  0  0  0
 24 42  1  0  0  0  0
 25 26  2  0  0  0  0
 25 72  1  0  0  0  0
 26 77  1  0  0  0  0
 27 88  1  0  0  0  0
 28 89  1  0  0  0  0
 29 31  2  0  0  0  0
 29 88  1  0  0  0  0
 30 90  1  0  0  0  0
 31 91  1  0  0  0  0
 32 70  2  0  0  0  0
 33 71  1  0  0  0  0
 33 75  1  0  0  0  0
 34 76  1  0  0  0  0
 34 82  2  0  0  0  0
 35 54  1  0  0  0  0
 35 78  1  0  0  0  0
 35 83  2  0  0  0  0
 36 67  1  0  0  0  0
 36 73  1  0  0  0  0
 36 84  2  0  0  0  0
 37 63  1  0  0  0  0
 37 79  1  0  0  0  0
 37 85  2  0  0  0  0
 38 68  1  0  0  0  0
 38 80  1  0  0  0  0
 38 86  2  0  0  0  0
 39 74  1  0  0  0  0
 39 77  1  0  0  0  0
 39 87  2  0  0  0  0
 40 43  1  0  0  0  0
 41 54  1  0  0  0  0
 42 73  1  0  0  0  0
 43 45  1  0  0  0  0
 44 46  1  0  0  0  0
 44 49  1  0  0  0  0
 45 53  1  0  0  0  0
 46 55  1  0  0  0  0
 47 50  1  0  0  0  0
 47 56  1  0  0  0  0
 48 51  1  0  0  0  0
 48 56  1  0  0  0  0
 49 74  1  0  0  0  0
 50 72  1  0  0  0  0
 51 72  1  0  0  0  0
 52 55  1  0  0  0  0
 52 74  1  0  0  0  0
 53 78  1  0  0  0  0
 54 73  1  0  0  0  0
 55 71  1  0  0  0  0
 56 57  1  0  0  0  0
 56 64  1  0  0  0  0
 58 68  1  0  0  0  0
 59 69  1  0  0  0  0
 60 69  1  0  0  0  0
 61 69  1  0  0  0  0
 62 81  1  0  0  0  0
 63 65  1  0  0  0  0
 64 79  1  0  0  0  0
 65 66  1  0  0  0  0
 66 89  1  0  0  0  0
 67 69  1  0  0  0  0
 67 80  1  0  0  0  0
 68 81  1  0  0  0  0
 70 71  1  0  0  0  0
M  CHG  1  81   1
M  ISO  4  39 100  66 101  77 100  89 101
M  END
> <Batch ID>
0074

> <Smiles>
CNC(C)C(=O)NC(C(=O)N1Cc2cc([101O:1][101CH2:1]CCC(=O)NCC3(C)CCN(c4ccccc4[100NH:0][100C:0](=O)N4CCCC(n5nc(-c6ccc(Oc7ccc(F)cc7F)cc6)c(C(N)=O)c5N)C4)CC3)ccc2CC1C(=O)NC1CCCc2ccccc21)C(C)(C)C

> <Shape>
0.266

> <Color>
0.071

> <Negative vol penalty>
0.000

$$$$

  -OEChem-04042323443D

 86 95  0     1  0  0  0  0  0999 V2000
  -20.7799  -19.0868   16.8476 C   0  0  0  0  0  0  0  0  0  0  0  0
  -21.9055  -19.4784   17.5653 C   0  0  0  0  0  0  0  0  0  0  0  0
  -22.6178  -23.4139   22.8812 C   0  0  0  0  0  0  0  0  0  0  0  0
  -21.1624  -24.0034   21.0450 C   0  0  0  0  0  0  0  0  0  0  0  0
  -20.3776  -17.7519   16.8578 C   0  0  0  0  0  0  0  0  0  0  0  0
  -22.6289  -18.5354   18.2946 C   0  0  0  0  0  0  0  0  0  0  0  0
  -27.6305  -19.0056   17.6558 C   0  0  0  0  0  0  0  0  0  0  0  0
  -28.2861  -25.9080   23.1479 C   0  0  0  0  0  0  0  0  0  0  0  0
  -27.7670  -27.0878   23.6811 C   0  0  0  0  0  0  0  0  0  0  0  0
  -21.5574  -22.7644   23.5132 C   0  0  0  0  0  0  0  0  0  0  0  0
  -20.1020  -23.3539   21.6770 C   0  0  0  0  0  0  0  0  0  0  0  0
  -28.2687  -20.0273   18.3576 C   0  0  0  0  0  0  0  0  0  0  0  0
  -19.0236  -20.1791   22.0989 C   0  0  0  0  0  0  0  0  0  0  0  0
  -18.2189  -19.3471   21.3206 C   0  0  0  0  0  0  0  0  0  0  0  0
  -29.0028  -18.4275   20.0072 C   0  0  0  0  0  0  0  0  0  0  0  0
  -29.1442  -27.1408   21.2555 C   0  0  0  0  0  0  0  0  0  0  0  0
  -16.2952  -20.7072   21.8559 C   0  0  0  0  0  0  0  0  0  0  0  0
  -22.4203  -24.0334   21.6471 C   0  0  0  0  0  0  0  0  0  0  0  0
  -24.4345  -24.1467   20.0858 C   0  0  0  0  0  0  0  0  0  0  0  0
  -21.1020  -16.7904   17.5798 C   0  0  0  0  0  0  0  0  0  0  0  0
  -27.6645  -17.6867   18.1310 C   0  0  0  0  0  0  0  0  0  0  0  0
  -22.2351  -17.1866   18.3156 C   0  0  0  0  0  0  0  0  0  0  0  0
  -28.3664  -17.3904   19.3082 C   0  0  0  0  0  0  0  0  0  0  0  0
  -28.9747  -25.9345   21.9351 C   0  0  0  0  0  0  0  0  0  0  0  0
  -27.9365  -28.2941   23.0015 C   0  0  0  0  0  0  0  0  0  0  0  0
  -28.6251  -28.3206   21.7887 C   0  0  0  0  0  0  0  0  0  0  0  0
  -20.2995  -22.7344   22.9111 C   0  0  0  0  0  0  0  0  0  0  0  0
  -28.9526  -19.7388   19.5350 C   0  0  0  0  0  0  0  0  0  0  0  0
  -18.4642  -21.2751   22.7557 C   0  0  0  0  0  0  0  0  0  0  0  0
  -16.8546  -19.6112   21.1991 C   0  0  0  0  0  0  0  0  0  0  0  0
  -17.1000  -21.5392   22.6342 C   0  0  0  0  0  0  0  0  0  0  0  0
  -23.5151  -24.7049   20.9940 C   0  0  0  0  0  0  0  0  0  0  0  0
  -25.2684  -25.1876   19.7580 C   0  0  0  0  0  0  0  0  0  0  0  0
  -29.4696  -23.4747   21.8515 C   0  0  0  0  0  0  0  0  0  0  0  0
  -30.1470  -24.4997   20.2409 C   0  0  0  0  0  0  0  0  0  0  0  0
  -24.5265  -22.8070   19.5834 C   0  0  0  0  0  0  0  0  0  0  0  0
  -25.4761  -15.5932   19.0966 C   0  0  0  0  0  0  0  0  0  0  0  0
  -28.0186  -13.5826   19.2213 C   0  0  0  0  0  0  0  0  0  0  0  0
  -31.3972  -13.1987   19.5113 C   0  0  0  0  0  0  0  0  0  0  0  0
  -26.4293  -30.2974   22.9228 C   0  0  0  0  0  0  0  0  0  0  0  0
  -20.6012  -15.3678   17.5991 C   0  0  0  0  0  0  0  0  0  0  0  0
  -26.9935  -16.5915   17.3482 C   0  0  0  0  0  0  0  0  0  0  0  0
  -28.4499  -15.9876   19.8499 C   0  0  0  0  0  0  0  0  0  0  0  0
  -21.6389  -14.3635   18.0939 C   0  0  0  0  0  0  0  0  0  0  0  0
  -25.3829  -29.9521   19.3903 C   0  0  0  0  0  0  0  0  0  0  0  0
  -22.3145  -14.8749   19.3622 C   0  0  0  0  0  0  0  0  0  0  0  0
  -24.7861  -28.5465   19.3491 C   0  0  0  0  0  0  0  0  0  0  0  0
  -25.2436  -30.5863   20.7709 C   0  0  0  0  0  0  0  0  0  0  0  0
  -25.2234  -28.3454   21.8290 C   0  0  0  0  0  0  0  0  0  0  0  0
  -23.0603  -16.1887   19.0987 C   0  0  1  0  0  0  0  0  0  0  0  0
  -30.2302  -23.0037   20.5977 C   0  0  0  0  0  0  0  0  0  0  0  0
  -26.6587  -15.3691   18.1972 C   0  0  1  0  0  0  0  0  0  0  0  0
  -25.3873  -27.6692   20.4596 C   0  0  1  0  0  0  0  0  0  0  0  0
  -33.1772  -11.4330   19.6187 C   0  0  0  0  0  0  0  0  0  0  0  0
  -27.2339  -12.9703   22.1056 C   0  0  0  0  0  0  0  0  0  0  0  0
  -29.5126  -11.9898   22.4440 C   0  0  0  0  0  0  0  0  0  0  0  0
  -27.9570  -10.9793   20.7761 C   0  0  0  0  0  0  0  0  0  0  0  0
  -28.0481  -30.0566   24.7541 C   0  0  0  0  0  0  0  0  0  0  0  0
  -32.7135  -14.2124   17.0621 C   0  0  0  0  0  0  0  0  0  0  0  0
  -29.4888  -22.0513   19.6797 C   0  0  0  0  0  0  0  0  0  1  0  0
  -29.0360  -13.2095   20.2723 C   0  0  1  0  0  0  0  0  0  0  0  0
  -32.3887  -12.3689   18.7158 C   0  0  2  0  0  0  0  0  0  0  0  0
  -28.4319  -12.3141   21.3906 C   0  0  0  0  0  0  0  0  0  0  0  0
  -23.7433  -25.9999   21.2283 N   0  0  0  0  0  0  0  0  0  0  0  0
  -24.8156  -26.2641   20.4626 N   0  0  0  0  0  0  0  0  0  0  0  0
  -29.4864  -24.7714   21.4099 N   0  0  0  0  0  0  0  0  0  0  0  0
  -27.7723  -14.9524   19.0519 N   0  0  0  0  0  0  0  0  0  0  0  0
  -25.7655  -29.7140   21.8242 N   0  0  0  0  0  0  0  0  0  0  0  0
  -28.8086  -29.5314   21.0838 N   0  0  0  0  0  0  0  0  0  0  0  0
  -26.3375  -25.2780   18.9386 N   0  0  0  0  0  0  0  0  0  0  0  0
  -23.5894  -21.8624   20.0238 N   0  0  0  0  0  0  0  0  0  0  0  0
  -24.3158  -15.9311   18.4266 N   0  0  0  0  0  0  0  0  0  0  0  0
  -30.1550  -12.6023   19.5598 N   0  0  0  0  0  0  0  0  0  0  0  0
  -27.3909  -29.5008   23.5733 N   0  0  0  0  0  0  0  0  0  0  0  0
  -33.3512  -13.2553   18.0024 N   0  3  0  0  0  0  0  0  0  0  0  0
  -29.0091  -22.9497   22.8401 O   0  0  0  0  0  0  0  0  0  0  0  0
  -30.4940  -25.1942   19.3124 O   0  0  0  0  0  0  0  0  0  0  0  0
  -25.4233  -22.4538   18.7806 O   0  0  0  0  0  0  0  0  0  0  0  0
  -25.6063  -15.4674   20.3086 O   0  0  0  0  0  0  0  0  0  0  0  0
  -27.4680  -12.6917   18.5694 O   0  0  0  0  0  0  0  0  0  0  0  0
  -31.6959  -14.2672   20.0402 O   0  0  0  0  0  0  0  0  0  0  0  0
  -26.1463  -31.4301   23.3322 O   0  0  0  0  0  0  0  0  0  0  0  0
  -19.2646  -22.1006   23.5274 O   0  0  0  0  0  0  0  0  0  0  0  0
  -29.5759  -20.7343   20.2223 O   0  0  0  0  0  0  0  0  0  1  0  0
  -16.0822  -18.8130   20.4504 F   0  0  0  0  0  0  0  0  0  0  0  0
  -16.5570  -22.5913   23.2619 F   0  0  0  0  0  0  0  0  0  0  0  0
  1  2  1  0  0  0  0
  1  5  2  0  0  0  0
  2  6  2  0  0  0  0
  3 10  2  0  0  0  0
  3 18  1  0  0  0  0
  4 11  1  0  0  0  0
  4 18  2  0  0  0  0
  5 20  1  0  0  0  0
  6 22  1  0  0  0  0
  7 12  2  0  0  0  0
  7 21  1  0  0  0  0
  8  9  2  0  0  0  0
  8 24  1  0  0  0  0
  9 25  1  0  0  0  0
 10 27  1  0  0  0  0
 11 27  2  0  0  0  0
 12 28  1  0  0  0  0
 13 14  2  0  0  0  0
 13 29  1  0  0  0  0
 14 30  1  0  0  0  0
 15 23  1  0  0  0  0
 15 28  2  0  0  0  0
 16 24  2  0  0  0  0
 16 26  1  0  0  0  0
 17 30  2  0  0  0  0
 17 31  1  0  0  0  0
 18 32  1  0  0  0  0
 19 32  1  0  0  0  0
 19 33  2  0  0  0  0
 19 36  1  0  0  0  0
 20 22  2  0  0  0  0
 20 41  1  0  0  0  0
 21 23  2  0  0  0  0
 21 42  1  0  0  0  0
 22 50  1  0  0  0  0
 23 43  1  0  0  0  0
 24 66  1  0  0  0  0
 25 26  2  0  0  0  0
 25 74  1  0  0  0  0
 26 69  1  0  0  0  0
 27 83  1  0  0  0  0
 28 84  1  0  0  0  0
 29 31  2  0  0  0  0
 29 83  1  0  0  0  0
 30 85  1  0  0  0  0
 31 86  1  0  0  0  0
 32 64  2  0  0  0  0
 33 65  1  0  0  0  0
 33 70  1  0  0  0  0
 34 51  1  0  0  0  0
 34 66  1  0  0  0  0
 34 76  2  0  0  0  0
 35 51  1  0  0  0  0
 35 66  1  0  0  0  0
 35 77  2  0  0  0  0
 36 71  1  0  0  0  0
 36 78  2  0  0  0  0
 37 52  1  0  0  0  0
 37 72  1  0  0  0  0
 37 79  2  0  0  0  0
 38 61  1  0  0  0  0
 38 67  1  0  0  0  0
 38 80  2  0  0  0  0
 39 62  1  0  0  0  0
 39 73  1  0  0  0  0
 39 81  2  0  0  0  0
 40 68  1  0  0  0  0
 40 74  1  0  0  0  0
 40 82  2  0  0  0  0
 41 44  1  0  0  0  0
 42 52  1  0  0  0  0
 43 67  1  0  0  0  0
 44 46  1  0  0  0  0
 45 47  1  0  0  0  0
 45 48  1  0  0  0  0
 46 50  1  0  0  0  0
 47 53  1  0  0  0  0
 48 68  1  0  0  0  0
 49 53  1  0  0  0  0
 49 68  1  0  0  0  0
 50 72  1  0  0  0  0
 51 60  1  0  0  0  0
 52 67  1  0  0  0  0
 53 65  1  0  0  0  0
 54 62  1  0  0  0  0
 55 63  1  0  0  0  0
 56 63  1  0  0  0  0
 57 63  1  0  0  0  0
 58 74  1  0  0  0  0
 59 75  1  0  0  0  0
 60 84  1  0  0  0  0
 61 63  1  0  0  0  0
 61 73  1  0  0  0  0
 62 75  1  0  0  0  0
 64 65  1  0  0  0  0
M  CHG  1  75   1
M  ISO  4  40 100  60 101  74 100  84 101
M  END
> <Batch ID>
0074

> <Smiles>
CNC(C)C(=O)NC(C(=O)N1Cc2cc([101O:1][101CH2:1]C3C(=O)N(c4ccc([100N:0](C)[100C:0](=O)N5CCCC(n6nc(-c7ccc(Oc8ccc(F)cc8F)cc7)c(C(N)=O)c6N)C5)c(N)c4)C3=O)ccc2CC1C(=O)NC1CCCc2ccccc21)C(C)(C)C

> <Shape>
0.190

> <Color>
0.070

> <Negative vol penalty>
0.000

$$$$

  -OEChem-04042323443D

 87 96  0     1  0  0  0  0  0999 V2000
  -25.6313  -37.6899   24.1553 C   0  0  0  0  0  0  0  0  0  0  0  0
  -24.7326  -37.0839   23.2831 C   0  0  0  0  0  0  0  0  0  0  0  0
  -23.5099  -10.8721   19.0875 C   0  0  0  0  0  0  0  0  0  0  0  0
  -24.3885   -9.6967   21.0068 C   0  0  0  0  0  0  0  0  0  0  0  0
  -26.6303  -21.3169   21.1953 C   0  0  0  0  0  0  0  0  0  0  0  0
  -25.5618  -19.5781   19.9024 C   0  0  0  0  0  0  0  0  0  0  0  0
  -26.9910  -37.3936   24.0702 C   0  0  0  0  0  0  0  0  0  0  0  0
  -25.1934  -36.1820   22.3246 C   0  0  0  0  0  0  0  0  0  0  0  0
  -22.7646  -29.4027   22.1411 C   0  0  0  0  0  0  0  0  0  0  0  0
  -25.3900  -21.9162   21.4144 C   0  0  0  0  0  0  0  0  0  0  0  0
  -24.3214  -20.1773   20.1216 C   0  0  0  0  0  0  0  0  0  0  0  0
  -22.9338   -9.6885   18.6263 C   0  0  0  0  0  0  0  0  0  0  0  0
  -23.8123   -8.5131   20.5456 C   0  0  0  0  0  0  0  0  0  0  0  0
  -22.1934  -28.1514   21.9090 C   0  0  0  0  0  0  0  0  0  0  0  0
  -20.7503   -7.0837   20.5109 C   0  0  0  0  0  0  0  0  0  0  0  0
  -20.0705   -6.2920   21.4364 C   0  0  0  0  0  0  0  0  0  0  0  0
  -23.7453  -27.7676   20.0946 C   0  0  0  0  0  0  0  0  0  0  0  0
  -21.5872   -4.4656   20.9881 C   0  0  0  0  0  0  0  0  0  0  0  0
  -24.2373  -10.8762   20.2777 C   0  0  0  0  0  0  0  0  0  0  0  0
  -26.7162  -20.1478   20.4392 C   0  0  0  0  0  0  0  0  0  0  0  0
  -24.2478  -13.0533   21.6073 C   0  0  0  0  0  0  0  0  0  0  0  0
  -27.4675  -36.4803   23.1165 C   0  0  0  0  0  0  0  0  0  0  0  0
  -23.8398  -29.8354   21.3599 C   0  0  0  0  0  0  0  0  0  0  0  0
  -26.5610  -35.8742   22.2259 C   0  0  0  0  0  0  0  0  0  0  0  0
  -24.3297  -29.0148   20.3306 C   0  0  0  0  0  0  0  0  0  0  0  0
  -24.2356  -21.3464   20.8776 C   0  0  0  0  0  0  0  0  0  0  0  0
  -23.0850   -8.5090   19.3554 C   0  0  0  0  0  0  0  0  0  0  0  0
  -22.6824  -27.3360   20.8881 C   0  0  0  0  0  0  0  0  0  0  0  0
  -21.8485   -6.5663   19.8238 C   0  0  0  0  0  0  0  0  0  0  0  0
  -20.4890   -4.9830   21.6751 C   0  0  0  0  0  0  0  0  0  0  0  0
  -22.2669   -5.2573   20.0625 C   0  0  0  0  0  0  0  0  0  0  0  0
  -24.8331  -12.0985   20.7544 C   0  0  0  0  0  0  0  0  0  0  0  0
  -25.2140  -14.0181   21.7569 C   0  0  0  0  0  0  0  0  0  0  0  0
  -20.5217  -23.2127   21.5737 C   0  0  0  0  0  0  0  0  0  0  0  0
  -21.8098  -21.2314   21.1596 C   0  0  0  0  0  0  0  0  0  0  0  0
  -20.6059  -21.7795   21.3917 C   0  0  0  0  0  0  0  0  0  0  0  0
  -21.6296  -23.9743   21.6007 C   0  0  0  0  0  0  0  0  0  0  0  0
  -28.0372  -19.5096   20.2058 C   0  0  0  0  0  0  0  0  0  0  0  0
  -22.9472  -13.0670   22.2104 C   0  0  0  0  0  0  0  0  0  0  0  0
  -26.3467  -32.5363   20.6557 C   0  0  0  0  0  0  0  0  0  0  0  0
  -27.8218  -29.8599   20.3887 C   0  0  0  0  0  0  0  0  0  0  0  0
  -29.1708  -26.7341   20.6053 C   0  0  0  0  0  0  0  0  0  0  0  0
  -29.1351  -17.3498   19.7021 C   0  0  0  0  0  0  0  0  0  0  0  0
  -28.9519  -36.2275   23.0317 C   0  0  0  0  0  0  0  0  0  0  0  0
  -24.4461  -31.2013   21.5343 C   0  0  0  0  0  0  0  0  0  0  0  0
  -25.4653  -29.5360   19.4929 C   0  0  0  0  0  0  0  0  0  0  0  0
  -23.0202  -23.3855   21.4390 C   0  0  0  0  0  0  0  0  0  0  0  0
  -29.3122  -34.9769   22.2339 C   0  0  0  0  0  0  0  0  0  0  0  0
  -30.1000  -14.0261   20.4225 C   0  0  0  0  0  0  0  0  0  0  0  0
  -28.5286  -34.9339   20.9259 C   0  0  0  0  0  0  0  0  0  0  0  0
  -28.7688  -13.3053   20.6519 C   0  0  0  0  0  0  0  0  0  0  0  0
  -29.9994  -15.0609   19.3027 C   0  0  0  0  0  0  0  0  0  0  0  0
  -27.5784  -15.3069   19.6718 C   0  0  0  0  0  0  0  0  0  0  0  0
  -27.0192  -34.8718   21.1889 C   0  0  1  0  0  0  0  0  0  0  0  0
  -25.9634  -31.2254   21.2768 C   0  0  1  0  0  0  0  0  0  0  0  0
  -27.6090  -14.3044   20.8368 C   0  0  1  0  0  0  0  0  0  0  0  0
  -19.3365  -20.9912   21.4513 C   0  0  0  0  0  0  0  0  0  0  0  0
  -31.3442  -25.5050   20.3544 C   0  0  0  0  0  0  0  0  0  0  0  0
  -27.5755  -30.0513   17.3545 C   0  0  0  0  0  0  0  0  0  0  0  0
  -29.1283  -28.0954   17.1762 C   0  0  0  0  0  0  0  0  0  0  0  0
  -29.9143  -30.2182   18.2243 C   0  0  0  0  0  0  0  0  0  0  0  0
  -29.1224  -25.8369   23.4251 C   0  0  0  0  0  0  0  0  0  0  0  0
  -21.5647  -25.4447   21.8000 C   0  0  0  0  0  0  0  0  0  1  0  0
  -28.2762  -28.7519   19.4727 C   0  0  1  0  0  0  0  0  0  0  0  0
  -30.4078  -26.2178   21.3177 C   0  0  2  0  0  0  0  0  0  0  0  0
  -28.6994  -29.2772   18.0718 C   0  0  0  0  0  0  0  0  0  0  0  0
  -26.0748  -12.4269   20.3877 N   0  0  0  0  0  0  0  0  0  0  0  0
  -26.2776  -13.5989   21.0132 N   0  0  0  0  0  0  0  0  0  0  0  0
  -23.0030  -21.9420   21.0954 N   0  0  0  0  0  0  0  0  0  0  0  0
  -26.4625  -30.1937   20.3518 N   0  0  0  0  0  0  0  0  0  0  0  0
  -28.8839  -15.9742   19.5574 N   0  0  0  0  0  0  0  0  0  0  0  0
  -25.2488  -15.1756   22.4507 N   0  0  0  0  0  0  0  0  0  0  0  0
  -22.0794  -11.9973   21.9516 N   0  0  0  0  0  0  0  0  0  0  0  0
  -28.0101  -18.1323   19.9854 N   0  0  0  0  0  0  0  0  0  0  0  0
  -26.6275  -33.5322   21.5716 N   0  0  0  0  0  0  0  0  0  0  0  0
  -29.3295  -28.0382   20.1865 N   0  0  0  0  0  0  0  0  0  0  0  0
  -30.0242  -25.2615   22.3944 N   0  3  0  0  0  0  0  0  0  0  0  0
  -29.0444  -20.2116   20.1805 O   0  0  0  0  0  0  0  0  0  0  0  0
  -22.5598  -14.0082   22.9436 O   0  0  0  0  0  0  0  0  0  0  0  0
  -26.3866  -32.6379   19.4351 O   0  0  0  0  0  0  0  0  0  0  0  0
  -28.6484  -30.4198   21.1143 O   0  0  0  0  0  0  0  0  0  0  0  0
  -28.1657  -26.0479   20.4338 O   0  0  0  0  0  0  0  0  0  0  0  0
  -30.2682  -17.8349   19.6240 O   0  0  0  0  0  0  0  0  0  0  0  0
  -22.5228   -7.3538   18.9058 O   0  0  0  0  0  0  0  0  0  0  0  0
  -22.1230  -26.1136   20.6698 O   0  0  0  0  0  0  0  0  0  1  0  0
  -19.8371   -4.2234   22.5651 F   0  0  0  0  0  0  0  0  0  0  0  0
  -23.3220   -4.7551   19.4064 F   0  0  0  0  0  0  0  0  0  0  0  0
  1  2  1  0  0  0  0
  1  7  2  0  0  0  0
  2  8  2  0  0  0  0
  3 12  2  0  0  0  0
  3 19  1  0  0  0  0
  4 13  1  0  0  0  0
  4 19  2  0  0  0  0
  5 10  2  0  0  0  0
  5 20  1  0  0  0  0
  6 11  1  0  0  0  0
  6 20  2  0  0  0  0
  7 22  1  0  0  0  0
  8 24  1  0  0  0  0
  9 14  2  0  0  0  0
  9 23  1  0  0  0  0
 10 26  1  0  0  0  0
 11 26  2  0  0  0  0
 12 27  1  0  0  0  0
 13 27  2  0  0  0  0
 14 28  1  0  0  0  0
 15 16  2  0  0  0  0
 15 29  1  0  0  0  0
 16 30  1  0  0  0  0
 17 25  1  0  0  0  0
 17 28  2  0  0  0  0
 18 30  2  0  0  0  0
 18 31  1  0  0  0  0
 19 32  1  0  0  0  0
 20 38  1  0  0  0  0
 21 32  1  0  0  0  0
 21 33  2  0  0  0  0
 21 39  1  0  0  0  0
 22 24  2  0  0  0  0
 22 44  1  0  0  0  0
 23 25  2  0  0  0  0
 23 45  1  0  0  0  0
 24 54  1  0  0  0  0
 25 46  1  0  0  0  0
 26 69  1  0  0  0  0
 27 84  1  0  0  0  0
 28 85  1  0  0  0  0
 29 31  2  0  0  0  0
 29 84  1  0  0  0  0
 30 86  1  0  0  0  0
 31 87  1  0  0  0  0
 32 67  2  0  0  0  0
 33 68  1  0  0  0  0
 33 72  1  0  0  0  0
 34 36  1  0  0  0  0
 34 37  2  0  0  0  0
 35 36  2  0  0  0  0
 35 69  1  0  0  0  0
 36 57  1  0  0  0  0
 37 47  1  0  0  0  0
 37 63  1  0  0  0  0
 38 74  1  0  0  0  0
 38 78  2  0  0  0  0
 39 73  1  0  0  0  0
 39 79  2  0  0  0  0
 40 55  1  0  0  0  0
 40 75  1  0  0  0  0
 40 80  2  0  0  0  0
 41 64  1  0  0  0  0
 41 70  1  0  0  0  0
 41 81  2  0  0  0  0
 42 65  1  0  0  0  0
 42 76  1  0  0  0  0
 42 82  2  0  0  0  0
 43 71  1  0  0  0  0
 43 74  1  0  0  0  0
 43 83  2  0  0  0  0
 44 48  1  0  0  0  0
 45 55  1  0  0  0  0
 46 70  1  0  0  0  0
 47 69  1  0  0  0  0
 48 50  1  0  0  0  0
 49 51  1  0  0  0  0
 49 52  1  0  0  0  0
 50 54  1  0  0  0  0
 51 56  1  0  0  0  0
 52 71  1  0  0  0  0
 53 56  1  0  0  0  0
 53 71  1  0  0  0  0
 54 75  1  0  0  0  0
 55 70  1  0  0  0  0
 56 68  1  0  0  0  0
 58 65  1  0  0  0  0
 59 66  1  0  0  0  0
 60 66  1  0  0  0  0
 61 66  1  0  0  0  0
 62 77  1  0  0  0  0
 63 85  1  0  0  0  0
 64 66  1  0  0  0  0
 64 76  1  0  0  0  0
 65 77  1  0  0  0  0
 67 68  1  0  0  0  0
M  CHG  1  77   1
M  ISO  4  43 100  63 101  74 100  85 101
M  END
> <Batch ID>
0074

> <Smiles>
CNC(C)C(=O)NC(C(=O)N1Cc2cc([101O:1][101CH2:1]C3=CC(C)=CN(c4ccc(C(=O)[100NH:0][100C:0](=O)N5CCCC(n6nc(-c7ccc(Oc8ccc(F)cc8F)cc7)c(C(N)=O)c6N)C5)cc4)C3)ccc2CC1C(=O)NC1CCCc2ccccc21)C(C)(C)C

> <Shape>
0.256

> <Color>
0.096

> <Negative vol penalty>
0.000

$$$$

  -OEChem-04042323443D

 90 99  0     1  0  0  0  0  0999 V2000
  -23.9419  -35.1197   19.4706 C   0  0  0  0  0  0  0  0  0  0  0  0
  -24.8219  -34.0565   19.6453 C   0  0  0  0  0  0  0  0  0  0  0  0
  -24.5615   -9.3779   21.6023 C   0  0  0  0  0  0  0  0  0  0  0  0
  -24.1772  -10.8812   23.4541 C   0  0  0  0  0  0  0  0  0  0  0  0
  -22.8683  -35.2854   20.3445 C   0  0  0  0  0  0  0  0  0  0  0  0
  -24.6293  -33.1589   20.6949 C   0  0  0  0  0  0  0  0  0  0  0  0
  -25.1745  -28.3357   19.2509 C   0  0  0  0  0  0  0  0  0  0  0  0
  -24.1621   -8.3009   22.3936 C   0  0  0  0  0  0  0  0  0  0  0  0
  -23.7777   -9.8043   24.2455 C   0  0  0  0  0  0  0  0  0  0  0  0
  -26.4761  -27.8614   19.0936 C   0  0  0  0  0  0  0  0  0  0  0  0
  -21.2591   -6.9462   23.4754 C   0  0  0  0  0  0  0  0  0  0  0  0
  -20.3857   -6.0163   22.9116 C   0  0  0  0  0  0  0  0  0  0  0  0
  -27.6448  -21.8654   19.2075 C   0  0  0  0  0  0  0  0  0  0  0  0
  -26.6613  -19.7621   19.8750 C   0  0  0  0  0  0  0  0  0  0  0  0
  -26.3489  -26.8111   21.2615 C   0  0  0  0  0  0  0  0  0  0  0  0
  -29.0546  -19.9427   19.5987 C   0  0  0  0  0  0  0  0  0  0  0  0
  -22.0226   -4.2723   23.2521 C   0  0  0  0  0  0  0  0  0  0  0  0
  -24.5691  -10.6680   22.1325 C   0  0  0  0  0  0  0  0  0  0  0  0
  -26.5192  -21.1040   19.5221 C   0  0  0  0  0  0  0  0  0  0  0  0
  -24.1658  -12.5826   20.4956 C   0  0  0  0  0  0  0  0  0  0  0  0
  -22.6569  -34.3838   21.3996 C   0  0  0  0  0  0  0  0  0  0  0  0
  -24.4531  -28.0600   20.4213 C   0  0  0  0  0  0  0  0  0  0  0  0
  -23.5526  -33.3134   21.5846 C   0  0  0  0  0  0  0  0  0  0  0  0
  -25.0375  -27.2809   21.4301 C   0  0  0  0  0  0  0  0  0  0  0  0
  -28.9125  -21.2847   19.2458 C   0  0  0  0  0  0  0  0  0  0  0  0
  -27.9290  -19.1814   19.9133 C   0  0  0  0  0  0  0  0  0  0  0  0
  -23.7702   -8.5141   23.7152 C   0  0  0  0  0  0  0  0  0  0  0  0
  -27.0645  -27.1014   20.1001 C   0  0  0  0  0  0  0  0  0  0  0  0
  -22.5144   -6.5392   23.9274 C   0  0  0  0  0  0  0  0  0  0  0  0
  -20.7674   -4.6794   22.8000 C   0  0  0  0  0  0  0  0  0  0  0  0
  -22.8961   -5.2023   23.8158 C   0  0  0  0  0  0  0  0  0  0  0  0
  -24.9822  -11.7808   21.3157 C   0  0  0  0  0  0  0  0  0  0  0  0
  -25.0292  -13.4930   19.9368 C   0  0  0  0  0  0  0  0  0  0  0  0
  -30.2428  -24.5791   19.3858 C   0  0  0  0  0  0  0  0  0  0  0  0
  -24.1614  -23.9584   19.2191 C   0  0  0  0  0  0  0  0  0  0  0  0
  -25.0905  -23.1815   19.7841 C   0  0  0  0  0  0  0  0  0  0  0  0
  -25.1975  -21.7096   19.4820 C   0  0  0  0  0  0  0  0  0  0  0  0
  -22.7533  -12.5109   20.2600 C   0  0  0  0  0  0  0  0  0  0  0  0
  -23.1800  -29.8233   22.7395 C   0  0  0  0  0  0  0  0  0  0  0  0
  -21.9951  -26.9697   23.7270 C   0  0  0  0  0  0  0  0  0  0  0  0
  -22.2694  -23.5680   23.7431 C   0  0  0  0  0  0  0  0  0  0  0  0
  -29.2593  -17.0890   20.3589 C   0  0  0  0  0  0  0  0  0  0  0  0
  -21.5097  -34.6310   22.3469 C   0  0  0  0  0  0  0  0  0  0  0  0
  -23.0404  -28.5564   20.5643 C   0  0  0  0  0  0  0  0  0  0  0  0
  -24.2982  -26.9399   22.6973 C   0  0  0  0  0  0  0  0  0  0  0  0
  -21.1601  -33.4207   23.2090 C   0  0  0  0  0  0  0  0  0  0  0  0
  -30.0884  -13.6543   19.9200 C   0  0  0  0  0  0  0  0  0  0  0  0
  -22.4235  -32.8039   23.8007 C   0  0  0  0  0  0  0  0  0  0  0  0
  -28.7667  -12.9266   20.1765 C   0  0  0  0  0  0  0  0  0  0  0  0
  -30.8689  -24.4414   21.6871 C   0  0  0  0  0  0  0  0  0  0  0  0
  -30.2571  -14.8641   20.8375 C   0  0  0  0  0  0  0  0  0  0  0  0
  -30.3838  -23.0819   21.2160 C   0  0  0  0  0  0  0  0  0  0  0  0
  -27.8157  -15.0864   21.0810 C   0  0  0  0  0  0  0  0  0  0  0  0
  -23.3629  -32.3044   22.6964 C   0  0  1  0  0  0  0  0  0  0  0  0
  -22.5836  -28.6486   22.0169 C   0  0  1  0  0  0  0  0  0  0  0  0
  -27.5712  -13.8986   20.1360 C   0  0  2  0  0  0  0  0  0  0  0  0
  -30.2980  -25.4285   20.6523 C   0  0  1  0  0  0  0  0  0  0  0  0
  -31.2017  -26.6443   20.4698 C   0  0  0  0  0  0  0  0  0  0  0  0
  -21.6360  -21.1831   24.1994 C   0  0  0  0  0  0  0  0  0  0  0  0
  -23.2253  -27.5461   26.4591 C   0  0  0  0  0  0  0  0  0  0  0  0
  -22.9404  -25.1231   27.0211 C   0  0  0  0  0  0  0  0  0  0  0  0
  -20.9402  -26.5328   26.5367 C   0  0  0  0  0  0  0  0  0  0  0  0
  -20.7273  -23.3741   21.2245 C   0  0  0  0  0  0  0  0  0  0  0  0
  -30.1243  -22.1039   18.9070 C   0  0  0  0  0  0  0  0  0  0  0  0
  -28.8759  -25.8654   21.0205 C   0  0  0  0  0  0  0  0  0  1  0  0
  -22.4781  -25.8707   24.6424 C   0  0  1  0  0  0  0  0  0  0  0  0
  -21.2466  -22.4739   23.4958 C   0  0  2  0  0  0  0  0  0  0  0  0
  -22.4109  -26.2761   26.1419 C   0  0  0  0  0  0  0  0  0  0  0  0
  -26.2656  -12.1494   21.2836 N   0  0  0  0  0  0  0  0  0  0  0  0
  -24.1318  -20.9814   19.2437 N   0  0  0  0  0  0  0  0  0  0  0  0
  -26.2622  -13.1927   20.4364 N   0  0  0  0  0  0  0  0  0  0  0  0
  -30.2701  -23.2440   19.7860 N   0  0  0  0  0  0  0  0  0  0  0  0
  -22.9218  -27.4536   22.7927 N   0  0  0  0  0  0  0  0  0  0  0  0
  -29.0888  -15.7421   20.7432 N   0  0  0  0  0  0  0  0  0  0  0  0
  -24.8463  -14.5130   19.0717 N   0  0  0  0  0  0  0  0  0  0  0  0
  -22.0165  -11.5146   20.9149 N   0  0  0  0  0  0  0  0  0  0  0  0
  -28.0739  -17.8183   20.2721 N   0  0  0  0  0  0  0  0  0  0  0  0
  -22.8904  -31.0450   22.1623 N   0  0  0  0  0  0  0  0  0  0  0  0
  -21.6941  -24.6867   24.3077 N   0  0  0  0  0  0  0  0  0  0  0  0
  -21.1277  -22.1962   22.0364 N   0  3  0  0  0  0  0  0  0  0  0  0
  -30.1421  -25.0166   18.2484 O   0  0  0  0  0  0  0  0  0  0  0  0
  -22.1648  -13.2963   19.4789 O   0  0  0  0  0  0  0  0  0  0  0  0
  -23.8519  -29.6354   23.7469 O   0  0  0  0  0  0  0  0  0  0  0  0
  -20.8361  -27.3787   23.8322 O   0  0  0  0  0  0  0  0  0  0  0  0
  -23.4602  -23.4415   23.4668 O   0  0  0  0  0  0  0  0  0  0  0  0
  -30.3719  -17.5534   20.0976 O   0  0  0  0  0  0  0  0  0  0  0  0
  -23.3801   -7.4635   24.4877 O   0  0  0  0  0  0  0  0  0  0  0  0
  -28.3350  -26.6378   19.9494 O   0  0  0  0  0  0  0  0  0  1  0  0
  -19.9279   -3.7862   22.2599 F   0  0  0  0  0  0  0  0  0  0  0  0
  -24.1003   -4.8051   24.2494 F   0  0  0  0  0  0  0  0  0  0  0  0
  1  2  1  0  0  0  0
  1  5  2  0  0  0  0
  2  6  2  0  0  0  0
  3  8  2  0  0  0  0
  3 18  1  0  0  0  0
  4  9  1  0  0  0  0
  4 18  2  0  0  0  0
  5 21  1  0  0  0  0
  6 23  1  0  0  0  0
  7 10  2  0  0  0  0
  7 22  1  0  0  0  0
  8 27  1  0  0  0  0
  9 27  2  0  0  0  0
 10 28  1  0  0  0  0
 11 12  2  0  0  0  0
 11 29  1  0  0  0  0
 12 30  1  0  0  0  0
 13 19  1  0  0  0  0
 13 25  2  0  0  0  0
 14 19  2  0  0  0  0
 14 26  1  0  0  0  0
 15 24  1  0  0  0  0
 15 28  2  0  0  0  0
 16 25  1  0  0  0  0
 16 26  2  0  0  0  0
 17 30  2  0  0  0  0
 17 31  1  0  0  0  0
 18 32  1  0  0  0  0
 19 37  1  0  0  0  0
 20 32  1  0  0  0  0
 20 33  2  0  0  0  0
 20 38  1  0  0  0  0
 21 23  2  0  0  0  0
 21 43  1  0  0  0  0
 22 24  2  0  0  0  0
 22 44  1  0  0  0  0
 23 54  1  0  0  0  0
 24 45  1  0  0  0  0
 25 64  1  0  0  0  0
 26 77  1  0  0  0  0
 27 87  1  0  0  0  0
 28 88  1  0  0  0  0
 29 31  2  0  0  0  0
 29 87  1  0  0  0  0
 30 89  1  0  0  0  0
 31 90  1  0  0  0  0
 32 69  2  0  0  0  0
 33 71  1  0  0  0  0
 33 75  1  0  0  0  0
 34 57  1  0  0  0  0
 34 72  1  0  0  0  0
 34 81  2  0  0  0  0
 35 36  2  0  0  0  0
 36 37  1  0  0  0  0
 37 70  2  0  0  0  0
 38 76  1  0  0  0  0
 38 82  2  0  0  0  0
 39 55  1  0  0  0  0
 39 78  1  0  0  0  0
 39 83  2  0  0  0  0
 40 66  1  0  0  0  0
 40 73  1  0  0  0  0
 40 84  2  0  0  0  0
 41 67  1  0  0  0  0
 41 79  1  0  0  0  0
 41 85  2  0  0  0  0
 42 74  1  0  0  0  0
 42 77  1  0  0  0  0
 42 86  2  0  0  0  0
 43 46  1  0  0  0  0
 44 55  1  0  0  0  0
 45 73  1  0  0  0  0
 46 48  1  0  0  0  0
 47 49  1  0  0  0  0
 47 51  1  0  0  0  0
 48 54  1  0  0  0  0
 49 56  1  0  0  0  0
 50 52  1  0  0  0  0
 50 57  1  0  0  0  0
 51 74  1  0  0  0  0
 52 72  1  0  0  0  0
 53 56  1  0  0  0  0
 53 74  1  0  0  0  0
 54 78  1  0  0  0  0
 55 73  1  0  0  0  0
 56 71  1  0  0  0  0
 57 58  1  0  0  0  0
 57 65  1  0  0  0  0
 59 67  1  0  0  0  0
 60 68  1  0  0  0  0
 61 68  1  0  0  0  0
 62 68  1  0  0  0  0
 63 80  1  0  0  0  0
 64 72  1  0  0  0  0
 65 88  1  0  0  0  0
 66 68  1  0  0  0  0
 66 79  1  0  0  0  0
 67 80  1  0  0  0  0
 69 71  1  0  0  0  0
M  CHG  1  80   1
M  ISO  4  42 100  65 101  77 100  88 101
M  END
> <Batch ID>
0074

> <Smiles>
C=CC(=N)c1cc(CN2CCC(C)([101CH2:1][101O:1]c3ccc4c(c3)CN(C(=O)C(NC(=O)C(C)NC)C(C)(C)C)C(C(=O)NC3CCCc5ccccc53)C4)C2=O)cc([100NH:0][100C:0](=O)N2CCCC(n3nc(-c4ccc(Oc5ccc(F)cc5F)cc4)c(C(N)=O)c3N)C2)c1

> <Shape>
0.268

> <Color>
0.104

> <Negative vol penalty>
0.000

$$$$

  -OEChem-04042323443D

 85 94  0     1  0  0  0  0  0999 V2000
  -30.9288  -25.5868   17.8562 C   0  0  0  0  0  0  0  0  0  0  0  0
  -29.5543  -25.4366   18.0094 C   0  0  0  0  0  0  0  0  0  0  0  0
  -24.4494  -12.2693   19.6584 C   0  0  0  0  0  0  0  0  0  0  0  0
  -25.0229  -13.4356   21.6950 C   0  0  0  0  0  0  0  0  0  0  0  0
  -31.6692  -26.2524   18.8323 C   0  0  0  0  0  0  0  0  0  0  0  0
  -28.9195  -25.9511   19.1394 C   0  0  0  0  0  0  0  0  0  0  0  0
  -23.2924  -28.3508   19.4287 C   0  0  0  0  0  0  0  0  0  0  0  0
  -21.1739  -21.1381   24.8779 C   0  0  0  0  0  0  0  0  0  0  0  0
  -20.7961  -22.3741   24.3534 C   0  0  0  0  0  0  0  0  0  0  0  0
  -25.8031  -12.0532   19.4008 C   0  0  0  0  0  0  0  0  0  0  0  0
  -26.3767  -13.2195   21.4375 C   0  0  0  0  0  0  0  0  0  0  0  0
  -22.0663  -27.8212   19.8288 C   0  0  0  0  0  0  0  0  0  0  0  0
  -28.7813  -14.5499   19.4679 C   0  0  0  0  0  0  0  0  0  0  0  0
  -29.6535  -15.6244   19.6415 C   0  0  0  0  0  0  0  0  0  0  0  0
  -22.3837  -28.7628   22.0270 C   0  0  0  0  0  0  0  0  0  0  0  0
  -19.7444  -21.2600   22.4853 C   0  0  0  0  0  0  0  0  0  0  0  0
  -30.8717  -14.3666   21.3062 C   0  0  0  0  0  0  0  0  0  0  0  0
  -24.0593  -12.9605   20.8054 C   0  0  0  0  0  0  0  0  0  0  0  0
  -21.7892  -12.3494   21.7958 C   0  0  0  0  0  0  0  0  0  0  0  0
  -31.0418  -26.7837   19.9701 C   0  0  0  0  0  0  0  0  0  0  0  0
  -24.0798  -29.0822   20.3295 C   0  0  0  0  0  0  0  0  0  0  0  0
  -29.6524  -26.6232   20.1322 C   0  0  0  0  0  0  0  0  0  0  0  0
  -23.6183  -29.3027   21.6351 C   0  0  0  0  0  0  0  0  0  0  0  0
  -20.8370  -19.9630   24.2060 C   0  0  0  0  0  0  0  0  0  0  0  0
  -20.0813  -22.4351   23.1572 C   0  0  0  0  0  0  0  0  0  0  0  0
  -20.1223  -20.0240   23.0098 C   0  0  0  0  0  0  0  0  0  0  0  0
  -26.7668  -12.5283   20.2903 C   0  0  0  0  0  0  0  0  0  0  0  0
  -21.6131  -28.0247   21.1289 C   0  0  0  0  0  0  0  0  0  0  0  0
  -28.9541  -13.3837   20.2135 C   0  0  0  0  0  0  0  0  0  0  0  0
  -30.6987  -15.5328   20.5607 C   0  0  0  0  0  0  0  0  0  0  0  0
  -29.9994  -13.2921   21.1326 C   0  0  0  0  0  0  0  0  0  0  0  0
  -22.6611  -13.1845   21.0718 C   0  0  0  0  0  0  0  0  0  0  0  0
  -20.5815  -13.0028   21.7627 C   0  0  0  0  0  0  0  0  0  0  0  0
  -19.0240  -23.9999   21.5196 C   0  0  0  0  0  0  0  0  0  0  0  0
  -22.0478  -11.0952   22.4407 C   0  0  0  0  0  0  0  0  0  0  0  0
  -26.9774  -28.7181   21.5844 C   0  0  0  0  0  0  0  0  0  0  0  0
  -26.3885  -31.6612   22.8148 C   0  0  0  0  0  0  0  0  0  0  0  0
  -24.0889  -33.9936   23.7732 C   0  0  0  0  0  0  0  0  0  0  0  0
  -19.0637  -18.7457   21.1145 C   0  0  0  0  0  0  0  0  0  0  0  0
  -31.8909  -27.4539   21.0211 C   0  0  0  0  0  0  0  0  0  0  0  0
  -25.3876  -29.6695   19.8746 C   0  0  0  0  0  0  0  0  0  0  0  0
  -24.4163  -30.0980   22.6346 C   0  0  0  0  0  0  0  0  0  0  0  0
  -31.0867  -28.2972   22.0072 C   0  0  0  0  0  0  0  0  0  0  0  0
  -18.0321  -16.0257   19.0615 C   0  0  0  0  0  0  0  0  0  0  0  0
  -29.8641  -27.5267   22.4954 C   0  0  0  0  0  0  0  0  0  0  0  0
  -19.0189  -14.9105   19.4144 C   0  0  0  0  0  0  0  0  0  0  0  0
  -18.7041  -17.3976   19.0582 C   0  0  0  0  0  0  0  0  0  0  0  0
  -20.4259  -16.6167   20.6377 C   0  0  0  0  0  0  0  0  0  0  0  0
  -19.9280  -25.0095   23.1328 C   0  0  0  0  0  0  0  0  0  0  0  0
  -28.9239  -27.1890   21.3319 C   0  0  1  0  0  0  0  0  0  0  0  0
  -26.3444  -29.9614   21.0265 C   0  0  1  0  0  0  0  0  0  0  0  0
  -19.7807  -15.2235   20.7172 C   0  0  2  0  0  0  0  0  0  0  0  0
  -19.1539  -25.5088   21.8759 C   0  0  2  0  0  0  0  0  0  0  0  0
  -21.2548  -18.6531   24.7911 C   0  0  0  0  0  0  0  0  0  0  0  0
  -17.8226  -26.1882   22.1776 C   0  0  0  0  0  0  0  0  0  0  0  0
  -23.9095  -36.2866   24.7770 C   0  0  0  0  0  0  0  0  0  0  0  0
  -27.0503  -30.5081   25.5612 C   0  0  0  0  0  0  0  0  0  0  0  0
  -25.9572  -32.5123   26.5890 C   0  0  0  0  0  0  0  0  0  0  0  0
  -27.9689  -32.7960   25.1414 C   0  0  0  0  0  0  0  0  0  0  0  0
  -22.7180  -35.0616   21.3776 C   0  0  0  0  0  0  0  0  0  0  0  0
  -19.9918  -26.3011   20.8913 C   0  0  0  0  0  0  0  0  0  1  0  0
  -25.7564  -32.1830   24.0825 C   0  0  1  0  0  0  0  0  0  0  0  0
  -23.9845  -35.4812   23.4891 C   0  0  2  0  0  0  0  0  0  0  0  0
  -26.6688  -31.9832   25.3255 C   0  0  0  0  0  0  0  0  0  0  0  0
  -22.0585  -14.2843   20.6122 N   0  0  0  0  0  0  0  0  0  0  0  0
  -20.7950  -14.1448   21.0484 N   0  0  0  0  0  0  0  0  0  0  0  0
  -19.7091  -23.6541   22.6404 N   0  0  0  0  0  0  0  0  0  0  0  0
  -25.6914  -30.6464   22.1439 N   0  0  0  0  0  0  0  0  0  0  0  0
  -19.4023  -17.6263   20.3252 N   0  0  0  0  0  0  0  0  0  0  0  0
  -19.3683  -12.7060   22.2752 N   0  0  0  0  0  0  0  0  0  0  0  0
  -23.3442  -10.5663   22.3776 N   0  0  0  0  0  0  0  0  0  0  0  0
  -19.7709  -18.8415   22.3126 N   0  0  0  0  0  0  0  0  0  0  0  0
  -28.1508  -28.3522   20.9529 N   0  0  0  0  0  0  0  0  0  0  0  0
  -25.4013  -33.5734   23.8193 N   0  0  0  0  0  0  0  0  0  0  0  0
  -22.7652  -35.7702   22.6825 N   0  3  0  0  0  0  0  0  0  0  0  0
  -18.5275  -23.3529   20.6256 O   0  0  0  0  0  0  0  0  0  0  0  0
  -21.1518  -10.4543   23.0406 O   0  0  0  0  0  0  0  0  0  0  0  0
  -26.4418  -28.1349   22.5196 O   0  0  0  0  0  0  0  0  0  0  0  0
  -27.4576  -32.1414   22.4301 O   0  0  0  0  0  0  0  0  0  0  0  0
  -23.1047  -33.2769   23.9413 O   0  0  0  0  0  0  0  0  0  0  0  0
  -18.1901  -19.5445   20.7671 O   0  0  0  0  0  0  0  0  0  0  0  0
  -28.0878  -12.3175   20.0395 O   0  0  0  0  0  0  0  0  0  0  0  0
  -20.4170  -27.5084   21.5221 O   0  0  0  0  0  0  0  0  0  1  0  0
  -31.5372  -16.5642   20.7261 F   0  0  0  0  0  0  0  0  0  0  0  0
  -30.1712  -12.1739   21.8510 F   0  0  0  0  0  0  0  0  0  0  0  0
  1  2  1  0  0  0  0
  1  5  2  0  0  0  0
  2  6  2  0  0  0  0
  3 10  2  0  0  0  0
  3 18  1  0  0  0  0
  4 11  1  0  0  0  0
  4 18  2  0  0  0  0
  5 20  1  0  0  0  0
  6 22  1  0  0  0  0
  7 12  2  0  0  0  0
  7 21  1  0  0  0  0
  8  9  2  0  0  0  0
  8 24  1  0  0  0  0
  9 25  1  0  0  0  0
 10 27  1  0  0  0  0
 11 27  2  0  0  0  0
 12 28  1  0  0  0  0
 13 14  2  0  0  0  0
 13 29  1  0  0  0  0
 14 30  1  0  0  0  0
 15 23  1  0  0  0  0
 15 28  2  0  0  0  0
 16 25  2  0  0  0  0
 16 26  1  0  0  0  0
 17 30  2  0  0  0  0
 17 31  1  0  0  0  0
 18 32  1  0  0  0  0
 19 32  1  0  0  0  0
 19 33  2  0  0  0  0
 19 35  1  0  0  0  0
 20 22  2  0  0  0  0
 20 40  1  0  0  0  0
 21 23  2  0  0  0  0
 21 41  1  0  0  0  0
 22 50  1  0  0  0  0
 23 42  1  0  0  0  0
 24 26  2  0  0  0  0
 24 54  1  0  0  0  0
 25 67  1  0  0  0  0
 26 72  1  0  0  0  0
 27 82  1  0  0  0  0
 28 83  1  0  0  0  0
 29 31  2  0  0  0  0
 29 82  1  0  0  0  0
 30 84  1  0  0  0  0
 31 85  1  0  0  0  0
 32 65  2  0  0  0  0
 33 66  1  0  0  0  0
 33 70  1  0  0  0  0
 34 53  1  0  0  0  0
 34 67  1  0  0  0  0
 34 76  2  0  0  0  0
 35 71  1  0  0  0  0
 35 77  2  0  0  0  0
 36 51  1  0  0  0  0
 36 73  1  0  0  0  0
 36 78  2  0  0  0  0
 37 62  1  0  0  0  0
 37 68  1  0  0  0  0
 37 79  2  0  0  0  0
 38 63  1  0  0  0  0
 38 74  1  0  0  0  0
 38 80  2  0  0  0  0
 39 69  1  0  0  0  0
 39 72  1  0  0  0  0
 39 81  2  0  0  0  0
 40 43  1  0  0  0  0
 41 51  1  0  0  0  0
 42 68  1  0  0  0  0
 43 45  1  0  0  0  0
 44 46  1  0  0  0  0
 44 47  1  0  0  0  0
 45 50  1  0  0  0  0
 46 52  1  0  0  0  0
 47 69  1  0  0  0  0
 48 52  1  0  0  0  0
 48 69  1  0  0  0  0
 49 53  1  0  0  0  0
 49 67  1  0  0  0  0
 50 73  1  0  0  0  0
 51 68  1  0  0  0  0
 52 66  1  0  0  0  0
 53 55  1  0  0  0  0
 53 61  1  0  0  0  0
 56 63  1  0  0  0  0
 57 64  1  0  0  0  0
 58 64  1  0  0  0  0
 59 64  1  0  0  0  0
 60 75  1  0  0  0  0
 61 83  1  0  0  0  0
 62 64  1  0  0  0  0
 62 74  1  0  0  0  0
 63 75  1  0  0  0  0
 65 66  1  0  0  0  0
M  CHG  1  75   1
M  ISO  4  39 100  61 101  72 100  83 101
M  END
> <Batch ID>
0074

> <Smiles>
CNC(C)C(=O)NC(C(=O)N1Cc2cc([101O:1][101CH2:1]C3(C)CN(c4ccc(C)c([100NH:0][100C:0](=O)N5CCCC(n6nc(-c7ccc(Oc8ccc(F)cc8F)cc7)c(C(N)=O)c6N)C5)c4)C3=O)ccc2CC1C(=O)NC1CCCc2ccccc21)C(C)(C)C

> <Shape>
0.302

> <Color>
0.082

> <Negative vol penalty>
0.000

$$$$

  -OEChem-04042323442D

  0  0  0     0  0  0  0  0  0999 V2000
M  END
$$$$

  -OEChem-04042323443D

 86 94  0     1  0  0  0  0  0999 V2000
  -23.1982  -23.9452   21.4888 C   0  0  0  0  0  0  0  0  0  0  0  0
  -24.3500  -23.1650   21.4994 C   0  0  0  0  0  0  0  0  0  0  0  0
  -21.7538  -29.6198   19.3391 C   0  0  0  0  0  0  0  0  0  0  0  0
  -21.7223  -27.9046   21.0404 C   0  0  0  0  0  0  0  0  0  0  0  0
  -30.1981  -21.9564   21.4959 C   0  0  0  0  0  0  0  0  0  0  0  0
  -28.5725  -22.2516   23.2587 C   0  0  0  0  0  0  0  0  0  0  0  0
  -21.9936  -23.4140   21.9478 C   0  0  0  0  0  0  0  0  0  0  0  0
  -24.2980  -21.8534   21.9701 C   0  0  0  0  0  0  0  0  0  0  0  0
  -26.7811  -18.6139   18.9726 C   0  0  0  0  0  0  0  0  0  0  0  0
  -29.9878  -23.2716   21.0817 C   0  0  0  0  0  0  0  0  0  0  0  0
  -28.3623  -23.5669   22.8446 C   0  0  0  0  0  0  0  0  0  0  0  0
  -20.4620  -29.2615   18.9539 C   0  0  0  0  0  0  0  0  0  0  0  0
  -20.4304  -27.5463   20.6552 C   0  0  0  0  0  0  0  0  0  0  0  0
  -28.1712  -18.5884   19.0760 C   0  0  0  0  0  0  0  0  0  0  0  0
  -17.2859  -28.6934   21.1204 C   0  0  0  0  0  0  0  0  0  0  0  0
  -16.3460  -28.4809   22.1289 C   0  0  0  0  0  0  0  0  0  0  0  0
  -28.0258  -16.6190   20.4615 C   0  0  0  0  0  0  0  0  0  0  0  0
  -16.0459  -26.2069   21.3699 C   0  0  0  0  0  0  0  0  0  0  0  0
  -22.3840  -28.9413   20.3824 C   0  0  0  0  0  0  0  0  0  0  0  0
  -29.4904  -21.4464   22.5844 C   0  0  0  0  0  0  0  0  0  0  0  0
  -24.0835  -30.2646   21.7492 C   0  0  0  0  0  0  0  0  0  0  0  0
  -21.9248  -22.0921   22.4154 C   0  0  0  0  0  0  0  0  0  0  0  0
  -26.0010  -17.6470   19.6229 C   0  0  0  0  0  0  0  0  0  0  0  0
  -23.0917  -21.3045   22.4370 C   0  0  0  0  0  0  0  0  0  0  0  0
  -26.6261  -16.6330   20.3626 C   0  0  0  0  0  0  0  0  0  0  0  0
  -29.0699  -24.0769   21.7560 C   0  0  0  0  0  0  0  0  0  0  0  0
  -19.8003  -28.2248   19.6119 C   0  0  0  0  0  0  0  0  0  0  0  0
  -28.7936  -17.5925   19.8230 C   0  0  0  0  0  0  0  0  0  0  0  0
  -17.6058  -27.6627   20.2366 C   0  0  0  0  0  0  0  0  0  0  0  0
  -15.7260  -27.2376   22.2537 C   0  0  0  0  0  0  0  0  0  0  0  0
  -16.9858  -26.4195   20.3614 C   0  0  0  0  0  0  0  0  0  0  0  0
  -23.7187  -29.3106   20.7804 C   0  0  0  0  0  0  0  0  0  0  0  0
  -25.4568  -30.2420   21.7532 C   0  0  0  0  0  0  0  0  0  0  0  0
  -29.7129  -20.0533   23.0231 C   0  0  0  0  0  0  0  0  0  0  0  0
  -23.2551  -31.0966   22.5721 C   0  0  0  0  0  0  0  0  0  0  0  0
  -30.6987  -17.0507   21.0671 C   0  0  0  0  0  0  0  0  0  1  0  0
  -31.5276  -15.9858   21.0963 C   0  0  0  0  0  0  0  0  0  0  0  0
  -30.3286  -17.7489   22.3349 C   0  0  0  0  0  0  0  0  0  0  0  0
  -23.7773  -17.7147   21.8932 C   0  0  0  0  0  0  0  0  0  0  0  0
  -23.5237  -14.5570   21.1953 C   0  0  0  0  0  0  0  0  0  0  0  0
  -24.9819  -11.7437   19.9281 C   0  0  0  0  0  0  0  0  0  0  0  0
  -29.4753  -26.0740   20.2750 C   0  0  0  0  0  0  0  0  0  0  0  0
  -20.6102  -21.5772   22.9457 C   0  0  0  0  0  0  0  0  0  0  0  0
  -24.5040  -17.6728   19.4794 C   0  0  0  0  0  0  0  0  0  0  0  0
  -25.8350  -15.5598   21.0633 C   0  0  0  0  0  0  0  0  0  0  0  0
  -20.5603  -20.0572   23.0785 C   0  0  0  0  0  0  0  0  0  0  0  0
  -29.1956  -29.3455   18.8979 C   0  0  0  0  0  0  0  0  0  0  0  0
  -21.8272  -19.5384   23.7514 C   0  0  0  0  0  0  0  0  0  0  0  0
  -27.7948  -29.7970   19.3177 C   0  0  0  0  0  0  0  0  0  0  0  0
  -29.2339  -27.8561   18.5601 C   0  0  0  0  0  0  0  0  0  0  0  0
  -27.2988  -27.4209   20.0214 C   0  0  0  0  0  0  0  0  0  0  0  0
  -23.0703  -19.8694   22.9169 C   0  0  1  0  0  0  0  0  0  0  0  0
  -23.7830  -16.9392   20.6062 C   0  0  1  0  0  0  0  0  0  0  0  0
  -27.2245  -28.9001   20.4339 C   0  0  2  0  0  0  0  0  0  0  0  0
  -31.9692  -15.1843   19.9036 C   0  0  0  0  0  0  0  0  0  0  0  0
  -24.5406   -9.3062   19.5266 C   0  0  0  0  0  0  0  0  0  0  0  0
  -23.9381  -13.9953   24.1656 C   0  0  0  0  0  0  0  0  0  0  0  0
  -24.4348  -11.6136   23.5746 C   0  0  0  0  0  0  0  0  0  0  0  0
  -22.1911  -12.5802   23.0702 C   0  0  0  0  0  0  0  0  0  0  0  0
  -25.3180  -12.0455   17.0032 C   0  0  0  0  0  0  0  0  0  0  0  0
  -24.1870  -13.2955   21.6929 C   0  0  1  0  0  0  0  0  0  0  0  0
  -24.4802  -10.7074   18.9387 C   0  0  2  0  0  0  0  0  0  0  0  0
  -23.7029  -12.8924   23.1143 C   0  0  0  0  0  0  0  0  0  0  0  0
  -24.7749  -28.7248   20.2101 N   0  0  0  0  0  0  0  0  0  0  0  0
  -25.8170  -29.3124   20.8224 N   0  0  0  0  0  0  0  0  0  0  0  0
  -24.3738  -15.6316   20.8982 N   0  0  0  0  0  0  0  0  0  0  0  0
  -28.6821  -27.0686   19.6648 N   0  0  0  0  0  0  0  0  0  0  0  0
  -26.3793  -30.9269   22.4619 N   0  0  0  0  0  0  0  0  0  0  0  0
  -21.8637  -30.9927   22.4405 N   0  0  0  0  0  0  0  0  0  0  0  0
  -28.8563  -25.4130   21.3354 N   0  0  0  0  0  0  0  0  0  0  0  0
  -30.0689  -19.1495   22.0993 N   0  0  0  0  0  0  0  0  0  0  0  0
  -23.1847  -18.9593   21.7975 N   0  0  0  0  0  0  0  0  0  0  0  0
  -23.9522  -12.2806   20.6715 N   0  0  0  0  0  0  0  0  0  0  0  0
  -29.5437  -19.7754   24.3155 N   0  3  0  0  0  0  0  0  0  0  0  0
  -25.3062  -10.7327   17.6985 N   0  3  0  0  0  0  0  0  0  0  0  0
  -23.7349  -31.9199   23.3879 O   0  0  0  0  0  0  0  0  0  0  0  0
  -30.2411  -17.2519   23.4448 O   0  0  0  0  0  0  0  0  0  0  0  0
  -24.2725  -17.2198   22.8989 O   0  0  0  0  0  0  0  0  0  0  0  0
  -22.2971  -14.5854   21.0680 O   0  0  0  0  0  0  0  0  0  0  0  0
  -26.1690  -12.0439   20.0336 O   0  0  0  0  0  0  0  0  0  0  0  0
  -30.6293  -25.8457   19.9033 O   0  0  0  0  0  0  0  0  0  0  0  0
  -32.0551  -15.5264   22.2933 O   0  0  0  0  0  0  0  0  0  0  0  0
  -18.5396  -27.8751   19.2364 O   0  0  0  0  0  0  0  0  0  0  0  0
  -30.1503  -17.5656   19.9261 O   0  0  0  0  0  0  0  0  0  1  0  0
  -14.8246  -27.0332   23.2231 F   0  0  0  0  0  0  0  0  0  0  0  0
  -17.2899  -25.4251   19.5161 F   0  0  0  0  0  0  0  0  0  0  0  0
  1  2  1  0  0  0  0
  1  7  2  0  0  0  0
  2  8  2  0  0  0  0
  3 12  2  0  0  0  0
  3 19  1  0  0  0  0
  4 13  1  0  0  0  0
  4 19  2  0  0  0  0
  5 10  2  0  0  0  0
  5 20  1  0  0  0  0
  6 11  1  0  0  0  0
  6 20  2  0  0  0  0
  7 22  1  0  0  0  0
  8 24  1  0  0  0  0
  9 14  2  0  0  0  0
  9 23  1  0  0  0  0
 10 26  1  0  0  0  0
 11 26  2  0  0  0  0
 12 27  1  0  0  0  0
 13 27  2  0  0  0  0
 14 28  1  0  0  0  0
 15 16  2  0  0  0  0
 15 29  1  0  0  0  0
 16 30  1  0  0  0  0
 17 25  1  0  0  0  0
 17 28  2  0  0  0  0
 18 30  2  0  0  0  0
 18 31  1  0  0  0  0
 19 32  1  0  0  0  0
 20 34  1  0  0  0  0
 21 32  1  0  0  0  0
 21 33  2  0  0  0  0
 21 35  1  0  0  0  0
 22 24  2  0  0  0  0
 22 43  1  0  0  0  0
 23 25  2  0  0  0  0
 23 44  1  0  0  0  0
 24 52  1  0  0  0  0
 25 45  1  0  0  0  0
 26 70  1  0  0  0  0
 27 83  1  0  0  0  0
 28 84  1  0  0  0  0
 29 31  2  0  0  0  0
 29 83  1  0  0  0  0
 30 85  1  0  0  0  0
 31 86  1  0  0  0  0
 32 64  2  0  0  0  0
 33 65  1  0  0  0  0
 33 68  1  0  0  0  0
 34 71  1  0  0  0  0
 34 74  2  0  0  0  0
 35 69  1  0  0  0  0
 35 76  2  0  0  0  0
 36 37  2  0  0  0  0
 36 38  1  0  0  0  0
 36 84  1  0  0  0  0
 37 55  1  0  0  0  0
 37 82  1  0  0  0  0
 38 71  1  0  0  0  0
 38 77  2  0  0  0  0
 39 53  1  0  0  0  0
 39 72  1  0  0  0  0
 39 78  2  0  0  0  0
 40 61  1  0  0  0  0
 40 66  1  0  0  0  0
 40 79  2  0  0  0  0
 41 62  1  0  0  0  0
 41 73  1  0  0  0  0
 41 80  2  0  0  0  0
 42 67  1  0  0  0  0
 42 70  1  0  0  0  0
 42 81  2  0  0  0  0
 43 46  1  0  0  0  0
 44 53  1  0  0  0  0
 45 66  1  0  0  0  0
 46 48  1  0  0  0  0
 47 49  1  0  0  0  0
 47 50  1  0  0  0  0
 48 52  1  0  0  0  0
 49 54  1  0  0  0  0
 50 67  1  0  0  0  0
 51 54  1  0  0  0  0
 51 67  1  0  0  0  0
 52 72  1  0  0  0  0
 53 66  1  0  0  0  0
 54 65  1  0  0  0  0
 56 62  1  0  0  0  0
 57 63  1  0  0  0  0
 58 63  1  0  0  0  0
 59 63  1  0  0  0  0
 60 75  1  0  0  0  0
 61 63  1  0  0  0  0
 61 73  1  0  0  0  0
 62 75  1  0  0  0  0
 64 65  1  0  0  0  0
M  CHG  2  74   1  75   1
M  ISO  4  36 101  42 100  70 100  84 101
M  END
> <Batch ID>
0074

> <Smiles>
CNC(C)C(=O)NC(C(=O)N1Cc2cc([101O:1][101CH:1](C(C)=O)C(=O)NC(=N)c3ccc([100NH:0][100C:0](=O)N4CCCC(n5nc(-c6ccc(Oc7ccc(F)cc7F)cc6)c(C(N)=O)c5N)C4)cc3)ccc2CC1C(=O)NC1CCCc2ccccc21)C(C)(C)C

> <Shape>
0.225

> <Color>
0.086

> <Negative vol penalty>
0.000

$$$$

  -OEChem-04042323443D

 88 97  0     1  0  0  0  0  0999 V2000
  -32.2532  -14.3990   19.6728 C   0  0  0  0  0  0  0  0  0  0  0  0
  -31.4690  -15.5442   19.7672 C   0  0  0  0  0  0  0  0  0  0  0  0
  -24.7584  -27.8200   20.1982 C   0  0  0  0  0  0  0  0  0  0  0  0
  -26.3430  -29.0296   21.5632 C   0  0  0  0  0  0  0  0  0  0  0  0
  -31.6478  -13.1455   19.5935 C   0  0  0  0  0  0  0  0  0  0  0  0
  -30.0788  -15.4366   19.7814 C   0  0  0  0  0  0  0  0  0  0  0  0
  -26.1448  -18.9653   22.8762 C   0  0  0  0  0  0  0  0  0  0  0  0
  -20.6294  -26.2581   23.2827 C   0  0  0  0  0  0  0  0  0  0  0  0
  -19.8164  -26.6726   21.0457 C   0  0  0  0  0  0  0  0  0  0  0  0
  -19.8190  -27.2846   23.7675 C   0  0  0  0  0  0  0  0  0  0  0  0
  -19.0059  -27.6992   21.5305 C   0  0  0  0  0  0  0  0  0  0  0  0
  -25.4488  -28.2104   19.0508 C   0  0  0  0  0  0  0  0  0  0  0  0
  -27.0334  -29.4199   20.4158 C   0  0  0  0  0  0  0  0  0  0  0  0
  -25.3672  -20.0587   22.4973 C   0  0  0  0  0  0  0  0  0  0  0  0
  -29.4211  -30.4368   17.8696 C   0  0  0  0  0  0  0  0  0  0  0  0
  -30.8126  -30.3416   17.8852 C   0  0  0  0  0  0  0  0  0  0  0  0
  -23.4871  -18.5902   22.1400 C   0  0  0  0  0  0  0  0  0  0  0  0
  -30.6455  -27.9631   18.2749 C   0  0  0  0  0  0  0  0  0  0  0  0
  -22.2736  -24.1510   22.1995 C   0  0  0  0  0  0  0  0  0  0  0  0
  -21.5236  -24.5393   20.1255 C   0  0  0  0  0  0  0  0  0  0  0  0
  -25.2055  -28.2297   21.4544 C   0  0  0  0  0  0  0  0  0  0  0  0
  -24.7109  -26.6704   23.4119 C   0  0  0  0  0  0  0  0  0  0  0  0
  -30.2497  -13.0218   19.6165 C   0  0  0  0  0  0  0  0  0  0  0  0
  -25.6015  -17.6725   22.8795 C   0  0  0  0  0  0  0  0  0  0  0  0
  -29.4541  -14.1804   19.7011 C   0  0  0  0  0  0  0  0  0  0  0  0
  -24.2591  -17.4824   22.5219 C   0  0  0  0  0  0  0  0  0  0  0  0
  -22.9024  -23.2575   21.3608 C   0  0  0  0  0  0  0  0  0  0  0  0
  -20.6281  -25.9521   21.9218 C   0  0  0  0  0  0  0  0  0  0  0  0
  -19.0072  -28.0051   22.8915 C   0  0  0  0  0  0  0  0  0  0  0  0
  -26.5863  -29.0103   19.1596 C   0  0  0  0  0  0  0  0  0  0  0  0
  -24.0390  -19.8709   22.1263 C   0  0  0  0  0  0  0  0  0  0  0  0
  -28.6418  -29.2952   18.0567 C   0  0  0  0  0  0  0  0  0  0  0  0
  -22.4279  -23.5031   20.0487 C   0  0  0  0  0  0  0  0  0  0  0  0
  -31.4248  -29.1048   18.0879 C   0  0  0  0  0  0  0  0  0  0  0  0
  -29.2540  -28.0583   18.2594 C   0  0  0  0  0  0  0  0  0  0  0  0
  -24.4924  -27.8272   22.6400 C   0  0  0  0  0  0  0  0  0  0  0  0
  -23.7822  -26.7502   24.4207 C   0  0  0  0  0  0  0  0  0  0  0  0
  -15.7574  -26.9240   23.0203 C   0  0  0  0  0  0  0  0  0  0  0  0
  -25.6678  -25.6178   23.2331 C   0  0  0  0  0  0  0  0  0  0  0  0
  -15.9242  -28.1508   23.5383 C   0  0  0  0  0  0  0  0  0  0  0  0
  -26.2326  -14.9702   21.3293 C   0  0  0  0  0  0  0  0  0  0  0  0
  -23.9891  -13.7542   23.3318 C   0  0  0  0  0  0  0  0  0  0  0  0
  -21.2740  -14.3132   25.3225 C   0  0  0  0  0  0  0  0  0  0  0  0
  -18.5019  -29.8459   24.5185 C   0  0  0  0  0  0  0  0  0  0  0  0
  -29.6400  -11.6491   19.4807 C   0  0  0  0  0  0  0  0  0  0  0  0
  -26.4458  -16.5069   23.3165 C   0  0  0  0  0  0  0  0  0  0  0  0
  -23.6224  -16.1174   22.5281 C   0  0  0  0  0  0  0  0  0  0  0  0
  -28.1675  -11.5944   19.8796 C   0  0  0  0  0  0  0  0  0  0  0  0
  -21.2625  -29.9027   26.9821 C   0  0  0  0  0  0  0  0  0  0  0  0
  -27.4014  -12.7552   19.2533 C   0  0  0  0  0  0  0  0  0  0  0  0
  -22.4428  -29.3553   26.1817 C   0  0  0  0  0  0  0  0  0  0  0  0
  -20.2533  -30.6156   26.0871 C   0  0  0  0  0  0  0  0  0  0  0  0
  -20.9393  -29.2222   24.1560 C   0  0  0  0  0  0  0  0  0  0  0  0
  -27.9434  -14.1029   19.7444 C   0  0  1  0  0  0  0  0  0  0  0  0
  -25.9365  -15.1691   22.7889 C   0  0  1  0  0  0  0  0  0  0  0  0
  -21.9502  -28.4643   25.0295 C   0  0  1  0  0  0  0  0  0  0  0  0
  -15.2726  -28.5485   24.8323 C   0  0  0  0  0  0  0  0  0  0  0  0
  -19.6353  -13.1180   26.8001 C   0  0  0  0  0  0  0  0  0  0  0  0
  -22.5428  -12.6916   20.8642 C   0  0  0  0  0  0  0  0  0  0  0  0
  -20.5062  -12.3665   22.2837 C   0  0  0  0  0  0  0  0  0  0  0  0
  -22.5988  -11.1114   22.8017 C   0  0  0  0  0  0  0  0  0  0  0  0
  -22.1038  -15.8703   27.6986 C   0  0  0  0  0  0  0  0  0  0  0  0
  -23.9047  -22.2183   21.7692 C   0  0  0  0  0  0  0  0  0  1  0  0
  -16.8079  -29.1685   22.8745 C   0  0  0  0  0  0  0  0  0  0  0  0
  -22.4891  -13.5908   23.2838 C   0  0  1  0  0  0  0  0  0  0  0  0
  -20.9555  -13.8704   26.7392 C   0  0  2  0  0  0  0  0  0  0  0  0
  -22.0465  -12.4657   22.3063 C   0  0  0  0  0  0  0  0  0  0  0  0
  -23.5024  -28.5862   23.1175 N   0  0  0  0  0  0  0  0  0  0  0  0
  -21.4380  -24.9254   21.4377 N   0  0  0  0  0  0  0  0  0  0  0  0
  -23.0906  -27.9049   24.2001 N   0  0  0  0  0  0  0  0  0  0  0  0
  -24.4908  -15.0086   22.9570 N   0  0  0  0  0  0  0  0  0  0  0  0
  -19.8390  -29.7772   24.9611 N   0  0  0  0  0  0  0  0  0  0  0  0
  -23.4978  -25.9446   25.4660 N   0  0  0  0  0  0  0  0  0  0  0  0
  -26.5475  -25.6924   22.1445 N   0  0  0  0  0  0  0  0  0  0  0  0
  -27.4597  -14.3863   21.0786 N   0  0  0  0  0  0  0  0  0  0  0  0
  -22.0561  -13.3892   24.6623 N   0  0  0  0  0  0  0  0  0  0  0  0
  -18.1701  -29.0672   23.3935 N   0  0  0  0  0  0  0  0  0  0  0  0
  -20.8653  -15.0518   27.6432 N   0  3  0  0  0  0  0  0  0  0  0  0
  -25.7298  -24.6317   24.0060 O   0  0  0  0  0  0  0  0  0  0  0  0
  -25.4082  -15.3192   20.4925 O   0  0  0  0  0  0  0  0  0  0  0  0
  -24.6893  -12.8060   23.6955 O   0  0  0  0  0  0  0  0  0  0  0  0
  -20.8665  -15.3710   24.8477 O   0  0  0  0  0  0  0  0  0  0  0  0
  -17.6730  -30.5923   25.0537 O   0  0  0  0  0  0  0  0  0  0  0  0
  -22.7666  -22.8739   18.9144 O   0  0  0  0  0  0  0  0  0  0  0  0
  -27.2604  -29.3912   18.0402 O   0  0  0  0  0  0  0  0  0  0  0  0
  -23.2780  -20.9364   21.7554 O   0  0  0  0  0  0  0  0  0  1  0  0
  -32.7611  -29.0132   18.1013 F   0  0  0  0  0  0  0  0  0  0  0  0
  -28.5105  -26.9579   18.4385 F   0  0  0  0  0  0  0  0  0  0  0  0
  1  2  1  0  0  0  0
  1  5  2  0  0  0  0
  2  6  2  0  0  0  0
  3 12  2  0  0  0  0
  3 21  1  0  0  0  0
  4 13  1  0  0  0  0
  4 21  2  0  0  0  0
  5 23  1  0  0  0  0
  6 25  1  0  0  0  0
  7 14  2  0  0  0  0
  7 24  1  0  0  0  0
  8 10  2  0  0  0  0
  8 28  1  0  0  0  0
  9 11  1  0  0  0  0
  9 28  2  0  0  0  0
 10 29  1  0  0  0  0
 11 29  2  0  0  0  0
 12 30  1  0  0  0  0
 13 30  2  0  0  0  0
 14 31  1  0  0  0  0
 15 16  2  0  0  0  0
 15 32  1  0  0  0  0
 16 34  1  0  0  0  0
 17 26  1  0  0  0  0
 17 31  2  0  0  0  0
 18 34  2  0  0  0  0
 18 35  1  0  0  0  0
 19 27  2  0  0  0  0
 19 69  1  0  0  0  0
 20 33  2  0  0  0  0
 20 69  1  0  0  0  0
 21 36  1  0  0  0  0
 22 36  1  0  0  0  0
 22 37  2  0  0  0  0
 22 39  1  0  0  0  0
 23 25  2  0  0  0  0
 23 45  1  0  0  0  0
 24 26  2  0  0  0  0
 24 46  1  0  0  0  0
 25 54  1  0  0  0  0
 26 47  1  0  0  0  0
 27 33  1  0  0  0  0
 27 63  1  0  0  0  0
 28 69  1  0  0  0  0
 29 77  1  0  0  0  0
 30 85  1  0  0  0  0
 31 86  1  0  0  0  0
 32 35  2  0  0  0  0
 32 85  1  0  0  0  0
 33 84  1  0  0  0  0
 34 87  1  0  0  0  0
 35 88  1  0  0  0  0
 36 68  2  0  0  0  0
 37 70  1  0  0  0  0
 37 73  1  0  0  0  0
 38 40  2  0  0  0  0
 39 74  1  0  0  0  0
 39 79  2  0  0  0  0
 40 57  1  0  0  0  0
 40 64  1  0  0  0  0
 41 55  1  0  0  0  0
 41 75  1  0  0  0  0
 41 80  2  0  0  0  0
 42 65  1  0  0  0  0
 42 71  1  0  0  0  0
 42 81  2  0  0  0  0
 43 66  1  0  0  0  0
 43 76  1  0  0  0  0
 43 82  2  0  0  0  0
 44 72  1  0  0  0  0
 44 77  1  0  0  0  0
 44 83  2  0  0  0  0
 45 48  1  0  0  0  0
 46 55  1  0  0  0  0
 47 71  1  0  0  0  0
 48 50  1  0  0  0  0
 49 51  1  0  0  0  0
 49 52  1  0  0  0  0
 50 54  1  0  0  0  0
 51 56  1  0  0  0  0
 52 72  1  0  0  0  0
 53 56  1  0  0  0  0
 53 72  1  0  0  0  0
 54 75  1  0  0  0  0
 55 71  1  0  0  0  0
 56 70  1  0  0  0  0
 58 66  1  0  0  0  0
 59 67  1  0  0  0  0
 60 67  1  0  0  0  0
 61 67  1  0  0  0  0
 62 78  1  0  0  0  0
 63 86  1  0  0  0  0
 64 77  1  0  0  0  0
 65 67  1  0  0  0  0
 65 76  1  0  0  0  0
 66 78  1  0  0  0  0
 68 70  1  0  0  0  0
M  CHG  1  78   1
M  ISO  4  44 100  63 101  77 100  86 101
M  END
> <Batch ID>
0074

> <Smiles>
C=C(C)C[100N:0](c1ccc(N2C=C([101CH2:1][101O:1]c3ccc4c(c3)CN(C(=O)C(NC(=O)C(C)NC)C(C)(C)C)C(C(=O)NC3CCCc5ccccc53)C4)C(=O)C2)cc1)[100C:0](=O)N1CCCC(n2nc(-c3ccc(Oc4ccc(F)cc4F)cc3)c(C(N)=O)c2N)C1

> <Shape>
0.182

> <Color>
0.081

> <Negative vol penalty>
0.000

$$$$

  -OEChem-04042323443D

 88 97  0     1  0  0  0  0  0999 V2000
  -17.1405  -26.3146   23.1838 C   0  0  0  0  0  0  0  0  0  0  0  0
  -18.2939  -25.7977   23.7651 C   0  0  0  0  0  0  0  0  0  0  0  0
  -24.5213   -9.8063   20.5955 C   0  0  0  0  0  0  0  0  0  0  0  0
  -24.9520  -10.4779   22.8759 C   0  0  0  0  0  0  0  0  0  0  0  0
  -17.2345  -27.3375   22.2410 C   0  0  0  0  0  0  0  0  0  0  0  0
  -19.5422  -26.3027   23.4030 C   0  0  0  0  0  0  0  0  0  0  0  0
  -24.4415  -26.9506   27.0200 C   0  0  0  0  0  0  0  0  0  0  0  0
  -29.9092  -21.0914   23.0013 C   0  0  0  0  0  0  0  0  0  0  0  0
  -29.8190  -19.9155   22.2565 C   0  0  0  0  0  0  0  0  0  0  0  0
  -24.2612   -8.5058   21.0275 C   0  0  0  0  0  0  0  0  0  0  0  0
  -24.6918   -9.1774   23.3080 C   0  0  0  0  0  0  0  0  0  0  0  0
  -25.5798  -26.1675   27.2066 C   0  0  0  0  0  0  0  0  0  0  0  0
  -21.7102   -6.8265   22.4785 C   0  0  0  0  0  0  0  0  0  0  0  0
  -20.5887   -6.1821   21.9564 C   0  0  0  0  0  0  0  0  0  0  0  0
  -26.7814  -27.5511   25.6379 C   0  0  0  0  0  0  0  0  0  0  0  0
  -27.4252  -19.8927   22.5823 C   0  0  0  0  0  0  0  0  0  0  0  0
  -22.0066   -4.4487   21.0500 C   0  0  0  0  0  0  0  0  0  0  0  0
  -24.8668  -10.7923   21.5196 C   0  0  0  0  0  0  0  0  0  0  0  0
  -24.2111  -13.1882   20.9388 C   0  0  0  0  0  0  0  0  0  0  0  0
  -18.4840  -27.8619   21.8744 C   0  0  0  0  0  0  0  0  0  0  0  0
  -24.4615  -28.0351   26.1312 C   0  0  0  0  0  0  0  0  0  0  0  0
  -19.6532  -27.3326   22.4534 C   0  0  0  0  0  0  0  0  0  0  0  0
  -25.6428  -28.3479   25.4437 C   0  0  0  0  0  0  0  0  0  0  0  0
  -28.7574  -21.6680   23.5367 C   0  0  0  0  0  0  0  0  0  0  0  0
  -28.5770  -19.3162   22.0470 C   0  0  0  0  0  0  0  0  0  0  0  0
  -27.5154  -21.0687   23.3272 C   0  0  0  0  0  0  0  0  0  0  0  0
  -24.3464   -8.1914   22.3838 C   0  0  0  0  0  0  0  0  0  0  0  0
  -26.7492  -26.4659   26.5133 C   0  0  0  0  0  0  0  0  0  0  0  0
  -22.9800   -6.2820   22.2862 C   0  0  0  0  0  0  0  0  0  0  0  0
  -20.7368   -4.9932   21.2422 C   0  0  0  0  0  0  0  0  0  0  0  0
  -23.1281   -5.0931   21.5720 C   0  0  0  0  0  0  0  0  0  0  0  0
  -25.1362  -12.1357   21.0739 C   0  0  0  0  0  0  0  0  0  0  0  0
  -24.9595  -14.2473   20.4865 C   0  0  0  0  0  0  0  0  0  0  0  0
  -22.7613  -21.7531   24.4476 C   0  0  0  0  0  0  0  0  0  0  0  0
  -24.0671  -22.0388   24.4451 C   0  0  0  0  0  0  0  0  0  0  0  0
  -22.8013  -13.2069   21.1991 C   0  0  0  0  0  0  0  0  0  0  0  0
  -25.0362  -21.1536   23.7362 C   0  0  0  0  0  0  0  0  0  0  0  0
  -22.8995  -28.7789   23.4647 C   0  0  0  0  0  0  0  0  0  0  0  0
  -24.4805  -31.5930   23.7864 C   0  0  0  0  0  0  0  0  0  0  0  0
  -27.1629  -33.2809   25.0522 C   0  0  0  0  0  0  0  0  0  0  0  0
  -29.5304  -17.4205   20.6891 C   0  0  0  0  0  0  0  0  0  0  0  0
  -18.5386  -28.9348   20.8159 C   0  0  0  0  0  0  0  0  0  0  0  0
  -23.2330  -28.8862   25.9613 C   0  0  0  0  0  0  0  0  0  0  0  0
  -25.7223  -29.5137   24.4934 C   0  0  0  0  0  0  0  0  0  0  0  0
  -19.8745  -29.6717   20.7638 C   0  0  0  0  0  0  0  0  0  0  0  0
  -29.7201  -14.4241   18.7753 C   0  0  0  0  0  0  0  0  0  0  0  0
  -21.0330  -28.6800   20.8022 C   0  0  0  0  0  0  0  0  0  0  0  0
  -28.4683  -13.6482   19.1916 C   0  0  0  0  0  0  0  0  0  0  0  0
  -30.3308  -15.1873   19.9493 C   0  0  0  0  0  0  0  0  0  0  0  0
  -28.1483  -15.2883   21.0876 C   0  0  0  0  0  0  0  0  0  0  0  0
  -28.4942  -23.0337   25.6362 C   0  0  0  0  0  0  0  0  0  0  0  0
  -29.9821  -23.7293   24.3077 C   0  0  0  0  0  0  0  0  0  0  0  0
  -21.0238  -27.8711   22.1050 C   0  0  1  0  0  0  0  0  0  0  0  0
  -23.2163  -29.6549   24.6436 C   0  0  1  0  0  0  0  0  0  0  0  0
  -27.4605  -14.5556   19.9241 C   0  0  2  0  0  0  0  0  0  0  0  0
  -29.4553  -24.2447   25.6671 C   0  0  0  0  0  0  0  0  0  0  0  0
  -30.4801  -24.2043   26.7952 C   0  0  0  0  0  0  0  0  0  0  0  0
  -28.2025  -35.5640   25.1158 C   0  0  0  0  0  0  0  0  0  0  0  0
  -25.4782  -31.2156   20.9277 C   0  0  0  0  0  0  0  0  0  0  0  0
  -27.2134  -32.9637   21.3766 C   0  0  0  0  0  0  0  0  0  0  0  0
  -24.7924  -33.5532   21.4932 C   0  0  0  0  0  0  0  0  0  0  0  0
  -26.9239  -33.4348   27.9981 C   0  0  0  0  0  0  0  0  0  0  0  0
  -28.7559  -25.5878   25.5872 C   0  0  0  0  0  0  0  0  0  1  0  0
  -25.8111  -32.1313   23.3186 C   0  0  1  0  0  0  0  0  0  0  0  0
  -27.2614  -34.5922   25.8106 C   0  0  2  0  0  0  0  0  0  0  0  0
  -25.8220  -32.4427   21.7954 C   0  0  0  0  0  0  0  0  0  0  0  0
  -26.3775  -12.4936   20.7346 N   0  0  0  0  0  0  0  0  0  0  0  0
  -26.2376  -13.7828   20.3818 N   0  0  0  0  0  0  0  0  0  0  0  0
  -28.8707  -22.8396   24.2767 N   0  0  0  0  0  0  0  0  0  0  0  0
  -24.4929  -30.3121   24.3564 N   0  0  0  0  0  0  0  0  0  0  0  0
  -29.3189  -16.0289   20.5918 N   0  0  0  0  0  0  0  0  0  0  0  0
  -24.6425  -15.5213   20.1720 N   0  0  0  0  0  0  0  0  0  0  0  0
  -22.1913  -12.0320   21.6595 N   0  0  0  0  0  0  0  0  0  0  0  0
  -26.3480  -21.6282   23.8546 N   0  0  0  0  0  0  0  0  0  0  0  0
  -28.4856  -18.1218   21.2901 N   0  0  0  0  0  0  0  0  0  0  0  0
  -21.5489  -28.6640   23.1959 N   0  0  0  0  0  0  0  0  0  0  0  0
  -26.1067  -33.2816   24.1659 N   0  0  0  0  0  0  0  0  0  0  0  0
  -27.7671  -34.3549   27.1922 N   0  3  0  0  0  0  0  0  0  0  0  0
  -22.1002  -14.2303   21.0128 O   0  0  0  0  0  0  0  0  0  0  0  0
  -24.6623  -20.1493   23.1420 O   0  0  0  0  0  0  0  0  0  0  0  0
  -23.8128  -28.2478   22.8438 O   0  0  0  0  0  0  0  0  0  0  0  0
  -23.4685  -32.2865   23.6574 O   0  0  0  0  0  0  0  0  0  0  0  0
  -27.9469  -32.3505   25.2259 O   0  0  0  0  0  0  0  0  0  0  0  0
  -30.5503  -17.9545   20.2457 O   0  0  0  0  0  0  0  0  0  0  0  0
  -24.0924   -6.9225   22.8058 O   0  0  0  0  0  0  0  0  0  0  0  0
  -27.8615  -25.7028   26.6931 O   0  0  0  0  0  0  0  0  0  1  0  0
  -19.6596   -4.3737   20.7423 F   0  0  0  0  0  0  0  0  0  0  0  0
  -24.3453   -4.5645   21.3851 F   0  0  0  0  0  0  0  0  0  0  0  0
  1  2  1  0  0  0  0
  1  5  2  0  0  0  0
  2  6  2  0  0  0  0
  3 10  2  0  0  0  0
  3 18  1  0  0  0  0
  4 11  1  0  0  0  0
  4 18  2  0  0  0  0
  5 20  1  0  0  0  0
  6 22  1  0  0  0  0
  7 12  2  0  0  0  0
  7 21  1  0  0  0  0
  8  9  2  0  0  0  0
  8 24  1  0  0  0  0
  9 25  1  0  0  0  0
 10 27  1  0  0  0  0
 11 27  2  0  0  0  0
 12 28  1  0  0  0  0
 13 14  2  0  0  0  0
 13 29  1  0  0  0  0
 14 30  1  0  0  0  0
 15 23  1  0  0  0  0
 15 28  2  0  0  0  0
 16 25  2  0  0  0  0
 16 26  1  0  0  0  0
 17 30  2  0  0  0  0
 17 31  1  0  0  0  0
 18 32  1  0  0  0  0
 19 32  1  0  0  0  0
 19 33  2  0  0  0  0
 19 36  1  0  0  0  0
 20 22  2  0  0  0  0
 20 42  1  0  0  0  0
 21 23  2  0  0  0  0
 21 43  1  0  0  0  0
 22 53  1  0  0  0  0
 23 44  1  0  0  0  0
 24 26  2  0  0  0  0
 24 69  1  0  0  0  0
 25 75  1  0  0  0  0
 26 74  1  0  0  0  0
 27 85  1  0  0  0  0
 28 86  1  0  0  0  0
 29 31  2  0  0  0  0
 29 85  1  0  0  0  0
 30 87  1  0  0  0  0
 31 88  1  0  0  0  0
 32 67  2  0  0  0  0
 33 68  1  0  0  0  0
 33 72  1  0  0  0  0
 34 35  2  0  0  0  0
 35 37  1  0  0  0  0
 36 73  1  0  0  0  0
 36 79  2  0  0  0  0
 37 74  1  0  0  0  0
 37 80  2  0  0  0  0
 38 54  1  0  0  0  0
 38 76  1  0  0  0  0
 38 81  2  0  0  0  0
 39 64  1  0  0  0  0
 39 70  1  0  0  0  0
 39 82  2  0  0  0  0
 40 65  1  0  0  0  0
 40 77  1  0  0  0  0
 40 83  2  0  0  0  0
 41 71  1  0  0  0  0
 41 75  1  0  0  0  0
 41 84  2  0  0  0  0
 42 45  1  0  0  0  0
 43 54  1  0  0  0  0
 44 70  1  0  0  0  0
 45 47  1  0  0  0  0
 46 48  1  0  0  0  0
 46 49  1  0  0  0  0
 47 53  1  0  0  0  0
 48 55  1  0  0  0  0
 49 71  1  0  0  0  0
 50 55  1  0  0  0  0
 50 71  1  0  0  0  0
 51 56  1  0  0  0  0
 51 69  1  0  0  0  0
 52 56  1  0  0  0  0
 52 69  1  0  0  0  0
 53 76  1  0  0  0  0
 54 70  1  0  0  0  0
 55 68  1  0  0  0  0
 56 57  1  0  0  0  0
 56 63  1  0  0  0  0
 58 65  1  0  0  0  0
 59 66  1  0  0  0  0
 60 66  1  0  0  0  0
 61 66  1  0  0  0  0
 62 78  1  0  0  0  0
 63 86  1  0  0  0  0
 64 66  1  0  0  0  0
 64 77  1  0  0  0  0
 65 78  1  0  0  0  0
 67 68  1  0  0  0  0
M  CHG  1  78   1
M  ISO  4  41 100  63 101  75 100  86 101
M  END
> <Batch ID>
0074

> <Smiles>
C=CC(=O)Nc1cc([100NH:0][100C:0](=O)N2CCCC(n3nc(-c4ccc(Oc5ccc(F)cc5F)cc4)c(C(N)=O)c3N)C2)ccc1N1CC(C)([101CH2:1][101O:1]c2ccc3c(c2)CN(C(=O)C(NC(=O)C(C)NC)C(C)(C)C)C(C(=O)NC2CCCc4ccccc42)C3)C1

> <Shape>
0.264

> <Color>
0.134

> <Negative vol penalty>
0.000

$$$$

  -OEChem-04042323443D

 84 92  0     1  0  0  0  0  0999 V2000
  -17.9420  -30.9209   23.2009 C   0  0  0  0  0  0  0  0  0  0  0  0
  -19.3255  -31.0631   23.1660 C   0  0  0  0  0  0  0  0  0  0  0  0
  -28.2145  -12.3259   21.6088 C   0  0  0  0  0  0  0  0  0  0  0  0
  -26.4092  -13.0981   20.2010 C   0  0  0  0  0  0  0  0  0  0  0  0
  -29.2950  -23.7020   18.8774 C   0  0  0  0  0  0  0  0  0  0  0  0
  -29.5252  -24.6274   21.0973 C   0  0  0  0  0  0  0  0  0  0  0  0
  -17.3691  -29.6560   23.0754 C   0  0  0  0  0  0  0  0  0  0  0  0
  -20.1369  -29.9403   23.0068 C   0  0  0  0  0  0  0  0  0  0  0  0
  -25.4540  -29.6395   19.9828 C   0  0  0  0  0  0  0  0  0  0  0  0
  -28.5313  -22.6548   19.3931 C   0  0  0  0  0  0  0  0  0  0  0  0
  -28.7615  -23.5802   21.6130 C   0  0  0  0  0  0  0  0  0  0  0  0
  -27.7035  -11.0292   21.5529 C   0  0  0  0  0  0  0  0  0  0  0  0
  -25.8982  -11.8014   20.1450 C   0  0  0  0  0  0  0  0  0  0  0  0
  -26.7802  -29.6840   20.4107 C   0  0  0  0  0  0  0  0  0  0  0  0
  -23.9161   -8.7629   19.9256 C   0  0  0  0  0  0  0  0  0  0  0  0
  -22.5416   -8.5997   20.0976 C   0  0  0  0  0  0  0  0  0  0  0  0
  -26.8539  -27.2728   20.4133 C   0  0  0  0  0  0  0  0  0  0  0  0
  -22.6990   -9.5905   22.2955 C   0  0  0  0  0  0  0  0  0  0  0  0
  -27.5673  -13.3604   20.9329 C   0  0  0  0  0  0  0  0  0  0  0  0
  -29.7919  -24.6882   19.7295 C   0  0  0  0  0  0  0  0  0  0  0  0
  -29.0279  -15.2850   20.1143 C   0  0  0  0  0  0  0  0  0  0  0  0
  -18.1735  -28.5182   22.9048 C   0  0  0  0  0  0  0  0  0  0  0  0
  -24.8133  -28.4091   19.7772 C   0  0  0  0  0  0  0  0  0  0  0  0
  -19.5742  -28.6588   22.8803 C   0  0  0  0  0  0  0  0  0  0  0  0
  -25.5203  -27.2154   19.9804 C   0  0  0  0  0  0  0  0  0  0  0  0
  -28.2646  -22.5940   20.7609 C   0  0  0  0  0  0  0  0  0  0  0  0
  -26.5454  -10.7670   20.8210 C   0  0  0  0  0  0  0  0  0  0  0  0
  -27.4794  -28.5006   20.6287 C   0  0  0  0  0  0  0  0  0  0  0  0
  -24.6822   -9.3398   20.9386 C   0  0  0  0  0  0  0  0  0  0  0  0
  -21.9330   -9.0136   21.2826 C   0  0  0  0  0  0  0  0  0  0  0  0
  -24.0736   -9.7536   22.1235 C   0  0  0  0  0  0  0  0  0  0  0  0
  -28.0944  -14.7001   20.9908 C   0  0  0  0  0  0  0  0  0  0  0  0
  -29.1977  -16.5605   20.5948 C   0  0  0  0  0  0  0  0  0  0  0  0
  -30.6051  -25.8031   19.1805 C   0  0  0  0  0  0  0  0  0  0  0  0
  -29.6829  -14.7254   18.9682 C   0  0  0  0  0  0  0  0  0  0  0  0
  -22.2950  -26.9502   21.0551 C   0  0  0  0  0  0  0  0  0  0  0  0
  -22.8620  -24.7716   18.7197 C   0  0  0  0  0  0  0  0  0  0  0  0
  -31.2845  -28.1455   19.5767 C   0  0  0  0  0  0  0  0  0  0  0  0
  -25.0908  -23.3556   16.5577 C   0  0  0  0  0  0  0  0  0  0  0  0
  -27.1312  -21.3198   22.6151 C   0  0  0  0  0  0  0  0  0  0  0  0
  -17.5103  -27.1663   22.8210 C   0  0  0  0  0  0  0  0  0  0  0  0
  -23.3907  -28.3783   19.2899 C   0  0  0  0  0  0  0  0  0  0  0  0
  -24.8845  -25.8689   19.7546 C   0  0  0  0  0  0  0  0  0  0  0  0
  -18.4259  -26.0713   22.2797 C   0  0  0  0  0  0  0  0  0  0  0  0
  -27.6775  -18.6749   24.9353 C   0  0  0  0  0  0  0  0  0  0  0  0
  -19.7894  -26.1304   22.9610 C   0  0  0  0  0  0  0  0  0  0  0  0
  -27.9115  -17.4531   24.0438 C   0  0  0  0  0  0  0  0  0  0  0  0
  -26.6240  -19.6122   24.3478 C   0  0  0  0  0  0  0  0  0  0  0  0
  -27.1014  -18.8065   22.0692 C   0  0  0  0  0  0  0  0  0  0  0  0
  -20.4869  -27.4677   22.6842 C   0  0  1  0  0  0  0  0  0  0  0  0
  -22.6787  -27.0669   19.6071 C   0  0  1  0  0  0  0  0  0  0  0  0
  -28.2013  -17.8655   22.5873 C   0  0  2  0  0  0  0  0  0  0  0  0
  -25.2704  -21.5723   14.8012 C   0  0  0  0  0  0  0  0  0  0  0  0
  -22.9083  -22.6348   20.8973 C   0  0  0  0  0  0  0  0  0  0  0  0
  -24.0080  -21.0909   19.2618 C   0  0  0  0  0  0  0  0  0  0  0  0
  -21.7169  -21.9645   18.8031 C   0  0  0  0  0  0  0  0  0  0  0  0
  -25.8168  -25.3230   14.4693 C   0  0  0  0  0  0  0  0  0  0  0  0
  -31.0193  -29.2645   20.5721 C   0  0  0  0  0  0  0  0  0  0  0  0
  -29.5534  -29.6644   20.6384 C   0  0  0  0  0  0  0  0  0  1  0  0
  -23.6995  -23.5208   18.6049 C   0  0  1  0  0  0  0  0  0  0  0  0
  -24.9964  -23.0429   15.0752 C   0  0  2  0  0  0  0  0  0  0  0  0
  -23.0948  -22.3279   19.3980 C   0  0  0  0  0  0  0  0  0  0  0  0
  -27.6990  -15.5354   21.9552 N   0  0  0  0  0  0  0  0  0  0  0  0
  -28.3874  -16.6581   21.6875 N   0  0  0  0  0  0  0  0  0  0  0  0
  -23.4896  -25.8911   19.2842 N   0  0  0  0  0  0  0  0  0  0  0  0
  -26.9670  -19.9636   22.9680 N   0  0  0  0  0  0  0  0  0  0  0  0
  -29.9596  -17.5968   20.1850 N   0  0  0  0  0  0  0  0  0  0  0  0
  -29.3935  -13.4007   18.6138 N   0  0  0  0  0  0  0  0  0  0  0  0
  -27.4886  -21.5299   21.2837 N   0  0  0  0  0  0  0  0  0  0  0  0
  -30.5682  -26.9920   19.9071 N   0  0  0  0  0  0  0  0  0  0  0  0
  -21.0523  -27.4767   21.3520 N   0  0  0  0  0  0  0  0  0  0  0  0
  -23.8622  -23.2680   17.1773 N   0  0  0  0  0  0  0  0  0  0  0  0
  -25.9844  -23.8554   14.3105 N   0  3  0  0  0  0  0  0  0  0  0  0
  -31.2669  -25.6157   18.1631 O   0  0  0  0  0  0  0  0  0  0  0  0
  -30.5129  -15.3755   18.2885 O   0  0  0  0  0  0  0  0  0  0  0  0
  -23.0684  -26.4204   21.8443 O   0  0  0  0  0  0  0  0  0  0  0  0
  -21.6963  -24.7580   18.3166 O   0  0  0  0  0  0  0  0  0  0  0  0
  -32.0346  -28.2647   18.6120 O   0  0  0  0  0  0  0  0  0  0  0  0
  -26.1493  -23.6448   17.1114 O   0  0  0  0  0  0  0  0  0  0  0  0
  -26.9936  -22.2263   23.4405 O   0  0  0  0  0  0  0  0  0  0  0  0
  -26.0466   -9.5018   20.7659 O   0  0  0  0  0  0  0  0  0  0  0  0
  -28.7738  -28.5412   21.0469 O   0  0  0  0  0  0  0  0  0  1  0  0
  -20.6128   -8.8582   21.4470 F   0  0  0  0  0  0  0  0  0  0  0  0
  -24.8042  -10.3096   23.0997 F   0  0  0  0  0  0  0  0  0  0  0  0
  1  2  1  0  0  0  0
  1  7  2  0  0  0  0
  2  8  2  0  0  0  0
  3 12  2  0  0  0  0
  3 19  1  0  0  0  0
  4 13  1  0  0  0  0
  4 19  2  0  0  0  0
  5 10  2  0  0  0  0
  5 20  1  0  0  0  0
  6 11  1  0  0  0  0
  6 20  2  0  0  0  0
  7 22  1  0  0  0  0
  8 24  1  0  0  0  0
  9 14  2  0  0  0  0
  9 23  1  0  0  0  0
 10 26  1  0  0  0  0
 11 26  2  0  0  0  0
 12 27  1  0  0  0  0
 13 27  2  0  0  0  0
 14 28  1  0  0  0  0
 15 16  2  0  0  0  0
 15 29  1  0  0  0  0
 16 30  1  0  0  0  0
 17 25  1  0  0  0  0
 17 28  2  0  0  0  0
 18 30  2  0  0  0  0
 18 31  1  0  0  0  0
 19 32  1  0  0  0  0
 20 34  1  0  0  0  0
 21 32  1  0  0  0  0
 21 33  2  0  0  0  0
 21 35  1  0  0  0  0
 22 24  2  0  0  0  0
 22 41  1  0  0  0  0
 23 25  2  0  0  0  0
 23 42  1  0  0  0  0
 24 50  1  0  0  0  0
 25 43  1  0  0  0  0
 26 69  1  0  0  0  0
 27 81  1  0  0  0  0
 28 82  1  0  0  0  0
 29 31  2  0  0  0  0
 29 81  1  0  0  0  0
 30 83  1  0  0  0  0
 31 84  1  0  0  0  0
 32 63  2  0  0  0  0
 33 64  1  0  0  0  0
 33 67  1  0  0  0  0
 34 70  1  0  0  0  0
 34 74  2  0  0  0  0
 35 68  1  0  0  0  0
 35 75  2  0  0  0  0
 36 51  1  0  0  0  0
 36 71  1  0  0  0  0
 36 76  2  0  0  0  0
 37 60  1  0  0  0  0
 37 65  1  0  0  0  0
 37 77  2  0  0  0  0
 38 58  1  0  0  0  0
 38 70  1  0  0  0  0
 38 78  2  0  0  0  0
 39 61  1  0  0  0  0
 39 72  1  0  0  0  0
 39 79  2  0  0  0  0
 40 66  1  0  0  0  0
 40 69  1  0  0  0  0
 40 80  2  0  0  0  0
 41 44  1  0  0  0  0
 42 51  1  0  0  0  0
 43 65  1  0  0  0  0
 44 46  1  0  0  0  0
 45 47  1  0  0  0  0
 45 48  1  0  0  0  0
 46 50  1  0  0  0  0
 47 52  1  0  0  0  0
 48 66  1  0  0  0  0
 49 52  1  0  0  0  0
 49 66  1  0  0  0  0
 50 71  1  0  0  0  0
 51 65  1  0  0  0  0
 52 64  1  0  0  0  0
 53 61  1  0  0  0  0
 54 62  1  0  0  0  0
 55 62  1  0  0  0  0
 56 62  1  0  0  0  0
 57 73  1  0  0  0  0
 58 59  1  0  0  0  0
 59 82  1  0  0  0  0
 60 62  1  0  0  0  0
 60 72  1  0  0  0  0
 61 73  1  0  0  0  0
 63 64  1  0  0  0  0
M  CHG  1  73   1
M  ISO  4  40 100  59 101  69 100  82 101
M  END
> <Batch ID>
0074

> <Smiles>
CNC(C)C(=O)NC(C(=O)N1Cc2cc([101O:1][101CH2:1]CC(=O)NC(=O)c3ccc([100NH:0][100C:0](=O)N4CCCC(n5nc(-c6ccc(Oc7ccc(F)cc7F)cc6)c(C(N)=O)c5N)C4)cc3)ccc2CC1C(=O)NC1CCCc2ccccc21)C(C)(C)C

> <Shape>
0.264

> <Color>
0.076

> <Negative vol penalty>
0.000

$$$$

  -OEChem-04042323443D

 88 97  0     1  0  0  0  0  0999 V2000
  -24.9968  -34.7320   26.9168 C   0  0  0  0  0  0  0  0  0  0  0  0
  -25.8240  -33.8328   26.2515 C   0  0  0  0  0  0  0  0  0  0  0  0
  -23.3318   -9.9790   22.4527 C   0  0  0  0  0  0  0  0  0  0  0  0
  -23.4372   -9.8468   20.0426 C   0  0  0  0  0  0  0  0  0  0  0  0
  -23.6322  -34.4693   27.0304 C   0  0  0  0  0  0  0  0  0  0  0  0
  -25.2872  -32.6698   25.7004 C   0  0  0  0  0  0  0  0  0  0  0  0
  -27.0734  -29.8697   20.5550 C   0  0  0  0  0  0  0  0  0  0  0  0
  -22.5907   -8.7979   22.4851 C   0  0  0  0  0  0  0  0  0  0  0  0
  -22.6961   -8.6656   20.0750 C   0  0  0  0  0  0  0  0  0  0  0  0
  -27.9026  -28.7731   20.3232 C   0  0  0  0  0  0  0  0  0  0  0  0
  -23.1836   -5.4777   22.2441 C   0  0  0  0  0  0  0  0  0  0  0  0
  -23.5413   -4.5137   23.1866 C   0  0  0  0  0  0  0  0  0  0  0  0
  -29.9130  -18.5545   17.8419 C   0  0  0  0  0  0  0  0  0  0  0  0
  -25.9659  -27.3390   20.2157 C   0  0  0  0  0  0  0  0  0  0  0  0
  -27.6398  -19.7678   18.9110 C   0  0  0  0  0  0  0  0  0  0  0  0
  -21.3390   -4.6578   24.1697 C   0  0  0  0  0  0  0  0  0  0  0  0
  -23.7550  -10.5036   21.2314 C   0  0  0  0  0  0  0  0  0  0  0  0
  -29.9827  -19.8599   18.3282 C   0  0  0  0  0  0  0  0  0  0  0  0
  -25.9212  -11.8508   21.2513 C   0  0  0  0  0  0  0  0  0  0  0  0
  -23.0768  -33.3073   26.4720 C   0  0  0  0  0  0  0  0  0  0  0  0
  -25.6826  -29.7071   20.6299 C   0  0  0  0  0  0  0  0  0  0  0  0
  -23.9141  -32.3907   25.8078 C   0  0  0  0  0  0  0  0  0  0  0  0
  -25.1210  -28.4355   20.4460 C   0  0  0  0  0  0  0  0  0  0  0  0
  -28.8461  -20.4666   18.8627 C   0  0  0  0  0  0  0  0  0  0  0  0
  -27.5702  -18.4623   18.4246 C   0  0  0  0  0  0  0  0  0  0  0  0
  -22.2728   -8.1411   21.2963 C   0  0  0  0  0  0  0  0  0  0  0  0
  -27.3491  -27.5071   20.1564 C   0  0  0  0  0  0  0  0  0  0  0  0
  -21.9037   -6.0319   22.2644 C   0  0  0  0  0  0  0  0  0  0  0  0
  -22.6190   -4.1037   24.1494 C   0  0  0  0  0  0  0  0  0  0  0  0
  -28.7067  -17.8557   17.8900 C   0  0  0  0  0  0  0  0  0  0  0  0
  -20.9814   -5.6219   23.2272 C   0  0  0  0  0  0  0  0  0  0  0  0
  -24.5202  -11.7240   21.1972 C   0  0  0  0  0  0  0  0  0  0  0  0
  -26.1462  -13.2042   21.1860 C   0  0  0  0  0  0  0  0  0  0  0  0
  -29.3361  -23.5893   20.7114 C   0  0  0  0  0  0  0  0  0  0  0  0
  -29.5339  -24.2151   21.8779 C   0  0  0  0  0  0  0  0  0  0  0  0
  -31.2574  -20.5633   18.2614 C   0  0  0  0  0  0  0  0  0  0  0  0
  -26.9290  -10.8360   21.3515 C   0  0  0  0  0  0  0  0  0  0  0  0
  -23.4871  -30.1777   22.8798 C   0  0  0  0  0  0  0  0  0  0  0  0
  -21.4321  -29.4451   20.4792 C   0  0  0  0  0  0  0  0  0  0  0  0
  -20.9077  -27.8862   17.4890 C   0  0  0  0  0  0  0  0  0  0  0  0
  -25.1245  -18.2107   18.9739 C   0  0  0  0  0  0  0  0  0  0  0  0
  -21.6040  -33.0432   26.6614 C   0  0  0  0  0  0  0  0  0  0  0  0
  -24.8001  -30.9044   20.8540 C   0  0  0  0  0  0  0  0  0  0  0  0
  -23.6326  -28.2110   20.4971 C   0  0  0  0  0  0  0  0  0  0  0  0
  -29.7659  -22.1739   20.4442 C   0  0  0  0  0  0  0  0  0  0  0  0
  -21.0519  -31.9721   25.7243 C   0  0  0  0  0  0  0  0  0  0  0  0
  -22.9338  -17.0989   21.5510 C   0  0  0  0  0  0  0  0  0  0  0  0
  -21.9737  -30.7570   25.7005 C   0  0  0  0  0  0  0  0  0  0  0  0
  -23.2665  -15.6119   21.6932 C   0  0  0  0  0  0  0  0  0  0  0  0
  -23.0052  -17.5595   20.0962 C   0  0  0  0  0  0  0  0  0  0  0  0
  -27.9881  -22.8232   18.9250 C   0  0  0  0  0  0  0  0  0  0  0  0
  -24.5965  -15.7601   19.5493 C   0  0  0  0  0  0  0  0  0  0  0  0
  -23.3651  -31.1304   25.1751 C   0  0  1  0  0  0  0  0  0  0  0  0
  -28.5867  -24.1084   19.5123 C   0  0  1  0  0  0  0  0  0  0  0  0
  -23.4321  -30.5403   21.4227 C   0  0  1  0  0  0  0  0  0  0  0  0
  -24.6010  -15.2647   21.0048 C   0  0  2  0  0  0  0  0  0  0  0  0
  -19.1153  -27.4297   15.7930 C   0  0  0  0  0  0  0  0  0  0  0  0
  -20.2317  -27.3293   22.3210 C   0  0  0  0  0  0  0  0  0  0  0  0
  -19.1429  -26.3007   20.3148 C   0  0  0  0  0  0  0  0  0  0  0  0
  -18.5569  -28.6285   20.9937 C   0  0  0  0  0  0  0  0  0  0  0  0
  -22.3924  -29.3147   15.3643 C   0  0  0  0  0  0  0  0  0  0  0  0
  -27.5217  -25.1670   19.7689 C   0  0  0  0  0  0  0  0  0  1  0  0
  -20.8148  -28.1726   19.9514 C   0  0  1  0  0  0  0  0  0  0  0  0
  -20.2441  -28.3602   16.2086 C   0  0  2  0  0  0  0  0  0  0  0  0
  -19.7148  -27.6113   20.8961 C   0  0  0  0  0  0  0  0  0  0  0  0
  -23.8989  -12.9028   21.1048 N   0  0  0  0  0  0  0  0  0  0  0  0
  -24.9143  -13.7832   21.1005 N   0  0  0  0  0  0  0  0  0  0  0  0
  -28.8945  -21.7585   19.3486 N   0  0  3  0  0  0  0  0  0  0  0  0
  -22.8121  -29.4120   20.7250 N   0  0  0  0  0  0  0  0  0  0  0  0
  -24.2988  -17.2005   19.5109 N   0  0  0  0  0  0  0  0  0  0  0  0
  -27.2757  -13.9435   21.1942 N   0  0  0  0  0  0  0  0  0  0  0  0
  -31.5247  -21.3056   17.1165 N   0  0  0  0  0  0  0  0  0  0  0  0
  -26.5241   -9.4954   21.4081 N   0  0  0  0  0  0  0  0  0  0  0  0
  -26.3440  -17.7541   18.4749 N   0  0  0  0  0  0  0  0  0  0  0  0
  -23.3443  -31.2550   23.7334 N   0  0  0  0  0  0  0  0  0  0  0  0
  -20.3471  -28.4745   18.6029 N   0  0  0  0  0  0  0  0  0  0  0  0
  -21.2386  -28.4170   15.1001 N   0  3  0  0  0  0  0  0  0  0  0  0
  -32.0839  -20.4899   19.1855 O   0  0  0  0  0  0  0  0  0  0  0  0
  -28.1517  -11.1108   21.4063 O   0  0  0  0  0  0  0  0  0  0  0  0
  -23.6457  -29.0070   23.2055 O   0  0  0  0  0  0  0  0  0  0  0  0
  -20.7176  -30.4343   20.6598 O   0  0  0  0  0  0  0  0  0  0  0  0
  -21.8287  -27.0723   17.5001 O   0  0  0  0  0  0  0  0  0  0  0  0
  -24.7871  -19.3974   18.9825 O   0  0  0  0  0  0  0  0  0  0  0  0
  -21.5498   -6.9883   21.3276 O   0  0  0  0  0  0  0  0  0  0  0  0
  -28.1562  -26.4349   19.9306 O   0  0  0  0  0  0  0  0  0  1  0  0
  -22.9621   -3.1768   25.0534 F   0  0  0  0  0  0  0  0  0  0  0  0
  -28.6513  -16.6017   17.4191 F   0  0  0  0  0  0  0  0  0  0  0  0
  -19.7499   -6.1498   23.2510 F   0  0  0  0  0  0  0  0  0  0  0  0
  1  2  1  0  0  0  0
  1  5  2  0  0  0  0
  2  6  2  0  0  0  0
  3  8  2  0  0  0  0
  3 17  1  0  0  0  0
  4  9  1  0  0  0  0
  4 17  2  0  0  0  0
  5 20  1  0  0  0  0
  6 22  1  0  0  0  0
  7 10  2  0  0  0  0
  7 21  1  0  0  0  0
  8 26  1  0  0  0  0
  9 26  2  0  0  0  0
 10 27  1  0  0  0  0
 11 12  2  0  0  0  0
 11 28  1  0  0  0  0
 12 29  1  0  0  0  0
 13 18  1  0  0  0  0
 13 30  2  0  0  0  0
 14 23  1  0  0  0  0
 14 27  2  0  0  0  0
 15 24  1  0  0  0  0
 15 25  2  0  0  0  0
 16 29  2  0  0  0  0
 16 31  1  0  0  0  0
 17 32  1  0  0  0  0
 18 24  2  0  0  0  0
 18 36  1  0  0  0  0
 19 32  1  0  0  0  0
 19 33  2  0  0  0  0
 19 37  1  0  0  0  0
 20 22  2  0  0  0  0
 20 42  1  0  0  0  0
 21 23  2  0  0  0  0
 21 43  1  0  0  0  0
 22 53  1  0  0  0  0
 23 44  1  0  0  0  0
 24 68  1  0  0  0  0
 25 30  1  0  0  0  0
 25 74  1  0  0  0  0
 26 84  1  0  0  0  0
 27 85  1  0  0  0  0
 28 31  2  0  0  0  0
 28 84  1  0  0  0  0
 29 86  1  0  0  0  0
 30 87  1  0  0  0  0
 31 88  1  0  0  0  0
 32 66  2  0  0  0  0
 33 67  1  0  0  0  0
 33 71  1  0  0  0  0
 34 35  2  0  0  0  0
 34 45  1  0  0  0  0
 34 54  1  0  0  0  0
 36 72  1  0  0  0  0
 36 78  2  0  0  0  0
 37 73  1  0  0  0  0
 37 79  2  0  0  0  0
 38 55  1  0  0  0  0
 38 75  1  0  0  0  0
 38 80  2  0  0  0  0
 39 63  1  0  0  0  0
 39 69  1  0  0  0  0
 39 81  2  0  0  0  0
 40 64  1  0  0  0  0
 40 76  1  0  0  0  0
 40 82  2  0  0  0  0
 41 70  1  0  0  0  0
 41 74  1  0  0  0  0
 41 83  2  0  0  0  0
 42 46  1  0  0  0  0
 43 55  1  0  0  0  0
 44 69  1  0  0  0  0
 45 68  1  0  0  0  0
 46 48  1  0  0  0  0
 47 49  1  0  0  0  0
 47 50  1  0  0  0  0
 48 53  1  0  0  0  0
 49 56  1  0  0  0  0
 50 70  1  0  0  0  0
 51 54  1  0  0  0  0
 51 68  1  0  0  0  0
 52 56  1  0  0  0  0
 52 70  1  0  0  0  0
 53 75  1  0  0  0  0
 54 62  1  0  0  0  0
 55 69  1  0  0  0  0
 56 67  1  0  0  0  0
 57 64  1  0  0  0  0
 58 65  1  0  0  0  0
 59 65  1  0  0  0  0
 60 65  1  0  0  0  0
 61 77  1  0  0  0  0
 62 85  1  0  0  0  0
 63 65  1  0  0  0  0
 63 76  1  0  0  0  0
 64 77  1  0  0  0  0
 66 67  1  0  0  0  0
M  CHG  1  77   1
M  ISO  4  41 100  62 101  74 100  85 101
M  END
> <Batch ID>
0074

> <Smiles>
C=C1CN(c2cc([100NH:0][100C:0](=O)N3CCCC(n4nc(-c5ccc(Oc6ccc(F)cc6F)cc5)c(C(N)=O)c4N)C3)c(F)cc2C(N)=O)CC1[101CH2:1][101O:1]c1ccc2c(c1)CN(C(=O)C(NC(=O)C(C)NC)C(C)(C)C)C(C(=O)NC1CCCc3ccccc31)C2

> <Shape>
0.280

> <Color>
0.122

> <Negative vol penalty>
0.000

$$$$

  -OEChem-04042323443D

 84 93  0     1  0  0  0  0  0999 V2000
  -27.8758  -37.2986   25.6822 C   0  0  0  0  0  0  0  0  0  0  0  0
  -28.4254  -36.4776   24.7028 C   0  0  0  0  0  0  0  0  0  0  0  0
  -24.3987   -8.6699   21.4364 C   0  0  0  0  0  0  0  0  0  0  0  0
  -24.3831  -10.2283   23.2825 C   0  0  0  0  0  0  0  0  0  0  0  0
  -26.8705  -36.8105   26.5158 C   0  0  0  0  0  0  0  0  0  0  0  0
  -27.9708  -35.1675   24.5572 C   0  0  0  0  0  0  0  0  0  0  0  0
  -26.8837  -30.1592   19.5521 C   0  0  0  0  0  0  0  0  0  0  0  0
  -27.0432  -20.2366   19.8647 C   0  0  0  0  0  0  0  0  0  0  0  0
  -29.4539  -20.2720   20.0197 C   0  0  0  0  0  0  0  0  0  0  0  0
  -27.0765  -18.8573   19.6602 C   0  0  0  0  0  0  0  0  0  0  0  0
  -29.4873  -18.8926   19.8153 C   0  0  0  0  0  0  0  0  0  0  0  0
  -24.0288   -7.6407   22.3020 C   0  0  0  0  0  0  0  0  0  0  0  0
  -24.0131   -9.1991   24.1482 C   0  0  0  0  0  0  0  0  0  0  0  0
  -27.1922  -28.8280   19.2756 C   0  0  0  0  0  0  0  0  0  0  0  0
  -21.2034   -6.5371   23.7961 C   0  0  0  0  0  0  0  0  0  0  0  0
  -20.1936   -5.6702   23.3784 C   0  0  0  0  0  0  0  0  0  0  0  0
  -25.3956  -28.1178   20.7202 C   0  0  0  0  0  0  0  0  0  0  0  0
  -21.7239   -3.8079   23.5438 C   0  0  0  0  0  0  0  0  0  0  0  0
  -24.5760   -9.9637   21.9266 C   0  0  0  0  0  0  0  0  0  0  0  0
  -24.1027  -11.8778   20.3079 C   0  0  0  0  0  0  0  0  0  0  0  0
  -26.3965  -35.4967   26.3740 C   0  0  0  0  0  0  0  0  0  0  0  0
  -25.8340  -30.4801   20.4247 C   0  0  0  0  0  0  0  0  0  0  0  0
  -26.9591  -34.6608   25.3906 C   0  0  0  0  0  0  0  0  0  0  0  0
  -25.0741  -29.4539   21.0042 C   0  0  0  0  0  0  0  0  0  0  0  0
  -28.2319  -20.9440   20.0444 C   0  0  0  0  0  0  0  0  0  0  0  0
  -28.2985  -18.1852   19.6355 C   0  0  0  0  0  0  0  0  0  0  0  0
  -23.8360   -7.9052   23.6579 C   0  0  0  0  0  0  0  0  0  0  0  0
  -26.4500  -27.8070   19.8619 C   0  0  0  0  0  0  0  0  0  0  0  0
  -22.4735   -6.0394   24.0876 C   0  0  0  0  0  0  0  0  0  0  0  0
  -20.4538   -4.3057   23.2523 C   0  0  0  0  0  0  0  0  0  0  0  0
  -22.7337   -4.6748   23.9615 C   0  0  0  0  0  0  0  0  0  0  0  0
  -24.9587  -11.0272   21.0329 C   0  0  0  0  0  0  0  0  0  0  0  0
  -24.9497  -12.7081   19.6153 C   0  0  0  0  0  0  0  0  0  0  0  0
  -27.0926  -23.1206   20.2957 C   0  0  0  0  0  0  0  0  0  0  0  0
  -27.4115  -24.4051   20.5059 C   0  0  0  0  0  0  0  0  0  0  0  0
  -28.8594  -24.5036   20.6109 C   0  0  0  0  0  0  0  0  0  0  0  0
  -29.5892  -25.6039   20.8196 C   0  0  0  0  0  0  0  0  0  0  0  0
  -22.6701  -11.9142   20.2645 C   0  0  0  0  0  0  0  0  0  0  0  0
  -25.6161  -31.9982   23.2089 C   0  0  0  0  0  0  0  0  0  0  0  0
  -22.4313  -31.6195   22.7229 C   0  0  0  0  0  0  0  0  0  0  0  0
  -19.9186  -29.8726   21.2124 C   0  0  0  0  0  0  0  0  0  0  0  0
  -29.4596  -15.9647   19.3752 C   0  0  0  0  0  0  0  0  0  0  0  0
  -25.3413  -34.9986   27.3296 C   0  0  0  0  0  0  0  0  0  0  0  0
  -25.4967  -31.9214   20.6918 C   0  0  0  0  0  0  0  0  0  0  0  0
  -23.9243  -29.7457   21.9321 C   0  0  0  0  0  0  0  0  0  0  0  0
  -29.4220  -23.1022   20.4382 C   0  0  0  0  0  0  0  0  0  0  0  0
  -24.6537  -33.7177   26.8639 C   0  0  0  0  0  0  0  0  0  0  0  0
  -29.9579  -12.4687   18.9207 C   0  0  0  0  0  0  0  0  0  0  0  0
  -25.6857  -32.7020   26.3841 C   0  0  0  0  0  0  0  0  0  0  0  0
  -28.6313  -11.8520   19.3701 C   0  0  0  0  0  0  0  0  0  0  0  0
  -30.3404  -13.6758   19.7753 C   0  0  0  0  0  0  0  0  0  0  0  0
  -27.9782  -14.0943   20.3357 C   0  0  0  0  0  0  0  0  0  0  0  0
  -26.4751  -33.2417   25.1854 C   0  0  1  0  0  0  0  0  0  0  0  0
  -24.7354  -32.1248   21.9981 C   0  0  1  0  0  0  0  0  0  0  0  0
  -27.5188  -12.9146   19.4635 C   0  0  2  0  0  0  0  0  0  0  0  0
  -17.4173  -29.7747   21.0359 C   0  0  0  0  0  0  0  0  0  0  0  0
  -22.2888  -30.3377   25.4881 C   0  0  0  0  0  0  0  0  0  0  0  0
  -20.0397  -29.4258   24.8729 C   0  0  0  0  0  0  0  0  0  0  0  0
  -20.4022  -31.8923   24.9604 C   0  0  0  0  0  0  0  0  0  0  0  0
  -19.9887  -30.3765   18.2969 C   0  0  0  0  0  0  0  0  0  0  0  0
  -26.4758  -25.5529   20.6197 C   0  0  0  0  0  0  0  0  0  1  0  0
  -21.4161  -30.5569   23.0682 C   0  0  1  0  0  0  0  0  0  0  0  0
  -18.6984  -30.3321   20.4351 C   0  0  2  0  0  0  0  0  0  0  0  0
  -21.0596  -30.5473   24.5815 C   0  0  0  0  0  0  0  0  0  0  0  0
  -26.2504  -11.2926   20.8205 N   0  0  0  0  0  0  0  0  0  0  0  0
  -26.2123  -12.3192   19.9541 N   0  0  0  0  0  0  0  0  0  0  0  0
  -28.1994  -22.3011   20.2437 N   0  0  0  0  0  0  0  0  0  0  0  0
  -23.6376  -31.1705   22.1669 N   0  0  0  0  0  0  0  0  0  0  0  0
  -29.2404  -14.6419   19.8142 N   0  0  0  0  0  0  0  0  0  0  0  0
  -24.7301  -13.7254   18.7556 N   0  0  0  0  0  0  0  0  0  0  0  0
  -21.9545  -10.9899   21.0378 N   0  0  0  0  0  0  0  0  0  0  0  0
  -28.3324  -16.7840   19.4278 N   0  0  0  0  0  0  0  0  0  0  0  0
  -25.6862  -33.1455   23.9759 N   0  0  0  0  0  0  0  0  0  0  0  0
  -20.2752  -30.7807   22.1869 N   0  0  0  0  0  0  0  0  0  0  0  0
  -18.7874  -29.8815   19.0174 N   0  3  0  0  0  0  0  0  0  0  0  0
  -22.0432  -12.7312   19.5482 O   0  0  0  0  0  0  0  0  0  0  0  0
  -26.1884  -30.9378   23.4315 O   0  0  0  0  0  0  0  0  0  0  0  0
  -22.1611  -32.8048   22.9320 O   0  0  0  0  0  0  0  0  0  0  0  0
  -20.4954  -28.8123   20.9810 O   0  0  0  0  0  0  0  0  0  0  0  0
  -30.5590  -16.3356   18.9559 O   0  0  0  0  0  0  0  0  0  0  0  0
  -23.4747   -6.9012   24.5029 O   0  0  0  0  0  0  0  0  0  0  0  0
  -26.7495  -26.5068   19.5943 O   0  0  0  0  0  0  0  0  0  1  0  0
  -19.4836   -3.4731   22.8527 F   0  0  0  0  0  0  0  0  0  0  0  0
  -23.9515   -4.1907   24.2412 F   0  0  0  0  0  0  0  0  0  0  0  0
  1  2  1  0  0  0  0
  1  5  2  0  0  0  0
  2  6  2  0  0  0  0
  3 12  2  0  0  0  0
  3 19  1  0  0  0  0
  4 13  1  0  0  0  0
  4 19  2  0  0  0  0
  5 21  1  0  0  0  0
  6 23  1  0  0  0  0
  7 14  2  0  0  0  0
  7 22  1  0  0  0  0
  8 10  2  0  0  0  0
  8 25  1  0  0  0  0
  9 11  1  0  0  0  0
  9 25  2  0  0  0  0
 10 26  1  0  0  0  0
 11 26  2  0  0  0  0
 12 27  1  0  0  0  0
 13 27  2  0  0  0  0
 14 28  1  0  0  0  0
 15 16  2  0  0  0  0
 15 29  1  0  0  0  0
 16 30  1  0  0  0  0
 17 24  1  0  0  0  0
 17 28  2  0  0  0  0
 18 30  2  0  0  0  0
 18 31  1  0  0  0  0
 19 32  1  0  0  0  0
 20 32  1  0  0  0  0
 20 33  2  0  0  0  0
 20 38  1  0  0  0  0
 21 23  2  0  0  0  0
 21 43  1  0  0  0  0
 22 24  2  0  0  0  0
 22 44  1  0  0  0  0
 23 53  1  0  0  0  0
 24 45  1  0  0  0  0
 25 67  1  0  0  0  0
 26 72  1  0  0  0  0
 27 81  1  0  0  0  0
 28 82  1  0  0  0  0
 29 31  2  0  0  0  0
 29 81  1  0  0  0  0
 30 83  1  0  0  0  0
 31 84  1  0  0  0  0
 32 65  2  0  0  0  0
 33 66  1  0  0  0  0
 33 70  1  0  0  0  0
 34 35  2  0  0  0  0
 34 67  1  0  0  0  0
 35 36  1  0  0  0  0
 35 61  1  0  0  0  0
 36 37  2  0  0  0  0
 36 46  1  0  0  0  0
 38 71  1  0  0  0  0
 38 76  2  0  0  0  0
 39 54  1  0  0  0  0
 39 73  1  0  0  0  0
 39 77  2  0  0  0  0
 40 62  1  0  0  0  0
 40 68  1  0  0  0  0
 40 78  2  0  0  0  0
 41 63  1  0  0  0  0
 41 74  1  0  0  0  0
 41 79  2  0  0  0  0
 42 69  1  0  0  0  0
 42 72  1  0  0  0  0
 42 80  2  0  0  0  0
 43 47  1  0  0  0  0
 44 54  1  0  0  0  0
 45 68  1  0  0  0  0
 46 67  1  0  0  0  0
 47 49  1  0  0  0  0
 48 50  1  0  0  0  0
 48 51  1  0  0  0  0
 49 53  1  0  0  0  0
 50 55  1  0  0  0  0
 51 69  1  0  0  0  0
 52 55  1  0  0  0  0
 52 69  1  0  0  0  0
 53 73  1  0  0  0  0
 54 68  1  0  0  0  0
 55 66  1  0  0  0  0
 56 63  1  0  0  0  0
 57 64  1  0  0  0  0
 58 64  1  0  0  0  0
 59 64  1  0  0  0  0
 60 75  1  0  0  0  0
 61 82  1  0  0  0  0
 62 64  1  0  0  0  0
 62 74  1  0  0  0  0
 63 75  1  0  0  0  0
 65 66  1  0  0  0  0
M  CHG  1  75   1
M  ISO  4  42 100  61 101  72 100  82 101
M  END
> <Batch ID>
0074

> <Smiles>
C=C1CN(c2ccc([100NH:0][100C:0](=O)N3CCCC(n4nc(-c5ccc(Oc6ccc(F)cc6F)cc5)c(C(N)=O)c4N)C3)cc2)C=C1[101CH2:1][101O:1]c1ccc2c(c1)CN(C(=O)C(NC(=O)C(C)NC)C(C)(C)C)C(C(=O)NC1CCCc3ccccc31)C2

> <Shape>
0.329

> <Color>
0.094

> <Negative vol penalty>
0.000

$$$$

  -OEChem-04042323443D

 87 96  0     1  0  0  0  0  0999 V2000
  -19.4172  -24.0188   22.0348 C   0  0  0  0  0  0  0  0  0  0  0  0
  -20.6398  -24.3341   21.4506 C   0  0  0  0  0  0  0  0  0  0  0  0
  -25.1206  -18.7395   19.3991 C   0  0  0  0  0  0  0  0  0  0  0  0
  -25.0449  -17.4625   17.3496 C   0  0  0  0  0  0  0  0  0  0  0  0
  -32.1385  -19.8995   19.2315 C   0  0  0  0  0  0  0  0  0  0  0  0
  -30.2423  -19.9329   17.7346 C   0  0  0  0  0  0  0  0  0  0  0  0
  -18.5664  -25.0376   22.4615 C   0  0  0  0  0  0  0  0  0  0  0  0
  -21.0118  -25.6686   21.2918 C   0  0  0  0  0  0  0  0  0  0  0  0
  -25.8179  -26.5193   22.6417 C   0  0  0  0  0  0  0  0  0  0  0  0
  -31.7927  -21.1677   19.6978 C   0  0  0  0  0  0  0  0  0  0  0  0
  -29.8965  -21.2012   18.2010 C   0  0  0  0  0  0  0  0  0  0  0  0
  -24.7871  -19.8945   18.6918 C   0  0  0  0  0  0  0  0  0  0  0  0
  -24.7113  -18.6175   16.6423 C   0  0  0  0  0  0  0  0  0  0  0  0
  -26.8096  -26.1427   21.7370 C   0  0  0  0  0  0  0  0  0  0  0  0
  -26.3049  -21.3358   15.4166 C   0  0  0  0  0  0  0  0  0  0  0  0
  -26.9714  -21.5749   14.2149 C   0  0  0  0  0  0  0  0  0  0  0  0
  -26.9992  -28.4322   21.0011 C   0  0  0  0  0  0  0  0  0  0  0  0
  -24.8620  -21.5365   13.0375 C   0  0  0  0  0  0  0  0  0  0  0  0
  -25.2496  -17.5235   18.7280 C   0  0  0  0  0  0  0  0  0  0  0  0
  -31.3633  -19.2821   18.2498 C   0  0  0  0  0  0  0  0  0  0  0  0
  -24.7094  -15.4161   20.0601 C   0  0  0  0  0  0  0  0  0  0  0  0
  -18.9324  -26.3851   22.3167 C   0  0  0  0  0  0  0  0  0  0  0  0
  -25.4011  -27.8556   22.7254 C   0  0  0  0  0  0  0  0  0  0  0  0
  -20.1645  -26.7064   21.7158 C   0  0  0  0  0  0  0  0  0  0  0  0
  -26.0039  -28.8236   21.9096 C   0  0  0  0  0  0  0  0  0  0  0  0
  -30.6718  -21.8186   19.1826 C   0  0  0  0  0  0  0  0  0  0  0  0
  -24.5824  -19.8335   17.3134 C   0  0  0  0  0  0  0  0  0  0  0  0
  -27.3984  -27.0987   20.9145 C   0  0  0  0  0  0  0  0  0  0  0  0
  -24.9170  -21.1969   15.4288 C   0  0  0  0  0  0  0  0  0  0  0  0
  -26.2499  -21.6753   13.0253 C   0  0  0  0  0  0  0  0  0  0  0  0
  -24.1956  -21.2973   14.2393 C   0  0  0  0  0  0  0  0  0  0  0  0
  -25.5947  -16.3302   19.4581 C   0  0  0  0  0  0  0  0  0  0  0  0
  -25.5266  -14.4654   20.6213 C   0  0  0  0  0  0  0  0  0  0  0  0
  -29.8757  -24.9272   20.2294 C   0  0  0  0  0  0  0  0  0  0  0  0
  -29.3190  -23.9164   19.3295 C   0  0  0  0  0  0  0  0  0  0  0  0
  -31.7276  -17.9453   17.7581 C   0  0  0  0  0  0  0  0  0  0  0  0
  -23.2764  -15.4254   20.1078 C   0  0  0  0  0  0  0  0  0  0  0  0
  -29.5122  -26.1574   20.5732 C   0  0  0  0  0  0  0  0  0  1  0  0
  -22.6565  -29.3838   22.2400 C   0  0  0  0  0  0  0  0  0  0  0  0
  -24.3181  -31.9239   23.3843 C   0  0  0  0  0  0  0  0  0  0  0  0
  -27.3474  -33.4036   23.9137 C   0  0  0  0  0  0  0  0  0  0  0  0
  -30.3540  -16.7143   19.4705 C   0  0  0  0  0  0  0  0  0  0  0  0
  -17.9589  -27.4523   22.7501 C   0  0  0  0  0  0  0  0  0  0  0  0
  -24.3490  -28.2502   23.7254 C   0  0  0  0  0  0  0  0  0  0  0  0
  -25.6064  -30.2749   21.9748 C   0  0  0  0  0  0  0  0  0  0  0  0
  -30.9975  -23.9714   20.5649 C   0  0  0  0  0  0  0  0  0  0  0  0
  -18.5917  -28.8348   22.8867 C   0  0  0  0  0  0  0  0  0  0  0  0
  -29.9795  -12.9035   19.5791 C   0  0  0  0  0  0  0  0  0  0  0  0
  -19.4621  -29.1458   21.6732 C   0  0  0  0  0  0  0  0  0  0  0  0
  -28.4676  -13.0487   19.7090 C   0  0  0  0  0  0  0  0  0  0  0  0
  -30.6012  -14.2208   19.1226 C   0  0  0  0  0  0  0  0  0  0  0  0
  -29.2394  -15.1343   21.0032 C   0  0  0  0  0  0  0  0  0  0  0  0
  -20.6144  -28.1416   21.5489 C   0  0  1  0  0  0  0  0  0  0  0  0
  -23.6394  -29.5514   23.3641 C   0  0  1  0  0  0  0  0  0  0  0  0
  -28.0886  -14.1459   20.7249 C   0  0  1  0  0  0  0  0  0  0  0  0
  -30.2530  -27.0451   21.5453 C   0  0  0  0  0  0  0  0  0  0  0  0
  -28.3839  -35.4954   24.8342 C   0  0  0  0  0  0  0  0  0  0  0  0
  -23.4984  -33.4361   20.8641 C   0  0  0  0  0  0  0  0  0  0  0  0
  -25.2908  -35.1095   21.3693 C   0  0  0  0  0  0  0  0  0  0  0  0
  -23.4032  -34.7853   22.9677 C   0  0  0  0  0  0  0  0  0  0  0  0
  -33.0145  -16.7036   16.0416 C   0  0  0  0  0  0  0  0  0  0  0  0
  -28.8260  -31.8969   25.9880 C   0  0  0  0  0  0  0  0  0  0  0  0
  -25.1823  -32.9996   22.7720 C   0  0  1  0  0  0  0  0  0  0  0  0
  -27.9408  -34.0732   25.1401 C   0  0  2  0  0  0  0  0  0  0  0  0
  -24.3500  -34.0550   21.9904 C   0  0  0  0  0  0  0  0  0  0  0  0
  -26.8761  -15.9908   19.6215 N   0  0  0  0  0  0  0  0  0  0  0  0
  -26.8020  -14.8530   20.3328 N   0  0  0  0  0  0  0  0  0  0  0  0
  -30.3259  -23.0872   19.6490 N   0  0  0  0  0  0  0  0  0  0  0  0
  -24.5688  -30.6099   22.9642 N   0  0  0  0  0  0  0  0  0  0  0  0
  -30.0679  -15.3931   19.8255 N   0  0  0  0  0  0  0  0  0  0  0  0
  -25.2714  -13.3442   21.3285 N   0  0  0  0  0  0  0  0  0  0  0  0
  -22.5938  -16.4759   19.4794 N   0  0  0  0  0  0  0  0  0  0  0  0
  -31.2514  -16.8314   18.3363 N   0  0  0  0  0  0  0  0  0  0  0  0
  -21.6637  -28.4569   22.4944 N   0  0  0  0  0  0  0  0  0  0  0  0
  -25.9777  -33.5539   23.8622 N   0  0  0  0  0  0  0  0  0  0  0  0
  -32.5402  -17.9281   16.6915 N   0  3  0  0  0  0  0  0  0  0  0  0
  -29.1226  -33.3073   25.6276 N   0  3  0  0  0  0  0  0  0  0  0  0
  -28.3568  -23.8575   18.5925 O   0  0  0  0  0  0  0  0  0  0  0  0
  -22.6213  -14.5376   20.7045 O   0  0  0  0  0  0  0  0  0  0  0  0
  -22.7882  -30.0473   21.2183 O   0  0  0  0  0  0  0  0  0  0  0  0
  -23.4571  -32.2370   24.2103 O   0  0  0  0  0  0  0  0  0  0  0  0
  -28.0310  -32.8101   23.0825 O   0  0  0  0  0  0  0  0  0  0  0  0
  -29.9251  -17.7130   20.0365 O   0  0  0  0  0  0  0  0  0  0  0  0
  -24.2567  -20.9603   16.6229 O   0  0  0  0  0  0  0  0  0  0  0  0
  -28.3650  -26.7341   20.0311 O   0  0  0  0  0  0  0  0  0  1  0  0
  -26.8899  -21.9065   11.8716 F   0  0  0  0  0  0  0  0  0  0  0  0
  -22.8619  -21.1660   14.2448 F   0  0  0  0  0  0  0  0  0  0  0  0
  1  2  1  0  0  0  0
  1  7  2  0  0  0  0
  2  8  2  0  0  0  0
  3 12  2  0  0  0  0
  3 19  1  0  0  0  0
  4 13  1  0  0  0  0
  4 19  2  0  0  0  0
  5 10  2  0  0  0  0
  5 20  1  0  0  0  0
  6 11  1  0  0  0  0
  6 20  2  0  0  0  0
  7 22  1  0  0  0  0
  8 24  1  0  0  0  0
  9 14  2  0  0  0  0
  9 23  1  0  0  0  0
 10 26  1  0  0  0  0
 11 26  2  0  0  0  0
 12 27  1  0  0  0  0
 13 27  2  0  0  0  0
 14 28  1  0  0  0  0
 15 16  2  0  0  0  0
 15 29  1  0  0  0  0
 16 30  1  0  0  0  0
 17 25  1  0  0  0  0
 17 28  2  0  0  0  0
 18 30  2  0  0  0  0
 18 31  1  0  0  0  0
 19 32  1  0  0  0  0
 20 36  1  0  0  0  0
 21 32  1  0  0  0  0
 21 33  2  0  0  0  0
 21 37  1  0  0  0  0
 22 24  2  0  0  0  0
 22 43  1  0  0  0  0
 23 25  2  0  0  0  0
 23 44  1  0  0  0  0
 24 53  1  0  0  0  0
 25 45  1  0  0  0  0
 26 68  1  0  0  0  0
 27 84  1  0  0  0  0
 28 85  1  0  0  0  0
 29 31  2  0  0  0  0
 29 84  1  0  0  0  0
 30 86  1  0  0  0  0
 31 87  1  0  0  0  0
 32 66  2  0  0  0  0
 33 67  1  0  0  0  0
 33 71  1  0  0  0  0
 34 35  1  0  0  0  0
 34 38  2  0  0  0  0
 34 46  1  0  0  0  0
 35 68  1  0  0  0  0
 35 78  2  0  0  0  0
 36 73  1  0  0  0  0
 36 76  2  0  0  0  0
 37 72  1  0  0  0  0
 37 79  2  0  0  0  0
 38 56  1  0  0  0  0
 38 85  1  0  0  0  0
 39 54  1  0  0  0  0
 39 74  1  0  0  0  0
 39 80  2  0  0  0  0
 40 63  1  0  0  0  0
 40 69  1  0  0  0  0
 40 81  2  0  0  0  0
 41 64  1  0  0  0  0
 41 75  1  0  0  0  0
 41 82  2  0  0  0  0
 42 70  1  0  0  0  0
 42 73  1  0  0  0  0
 42 83  2  0  0  0  0
 43 47  1  0  0  0  0
 44 54  1  0  0  0  0
 45 69  1  0  0  0  0
 46 68  1  0  0  0  0
 47 49  1  0  0  0  0
 48 50  1  0  0  0  0
 48 51  1  0  0  0  0
 49 53  1  0  0  0  0
 50 55  1  0  0  0  0
 51 70  1  0  0  0  0
 52 55  1  0  0  0  0
 52 70  1  0  0  0  0
 53 74  1  0  0  0  0
 54 69  1  0  0  0  0
 55 67  1  0  0  0  0
 57 64  1  0  0  0  0
 58 65  1  0  0  0  0
 59 65  1  0  0  0  0
 60 65  1  0  0  0  0
 61 76  1  0  0  0  0
 62 77  1  0  0  0  0
 63 65  1  0  0  0  0
 63 75  1  0  0  0  0
 64 77  1  0  0  0  0
 66 67  1  0  0  0  0
M  CHG  2  76   1  77   1
M  ISO  4  38 101  42 100  73 100  85 101
M  END
> <Batch ID>
0074

> <Smiles>
CN=C([100NH:0][100C:0](=O)N1CCCC(n2nc(-c3ccc(Oc4ccc(F)cc4F)cc3)c(C(N)=O)c2N)C1)c1ccc(N2CC(=[101C:1](C)[101O:1]c3ccc4c(c3)CN(C(=O)C(NC(=O)C(C)NC)C(C)(C)C)C(C(=O)NC3CCCc5ccccc53)C4)C2=O)cc1

> <Shape>
0.256

> <Color>
0.119

> <Negative vol penalty>
0.000

$$$$

  -OEChem-04042323443D

 87 96  0     1  0  0  0  0  0999 V2000
  -16.6502  -28.2446   23.9091 C   0  0  0  0  0  0  0  0  0  0  0  0
  -17.6442  -27.4246   23.3846 C   0  0  0  0  0  0  0  0  0  0  0  0
  -28.2914  -18.0727   15.4715 C   0  0  0  0  0  0  0  0  0  0  0  0
  -23.7300   -9.1186   22.2689 C   0  0  0  0  0  0  0  0  0  0  0  0
  -25.1779  -10.3103   23.7922 C   0  0  0  0  0  0  0  0  0  0  0  0
  -16.7258  -29.6263   23.7385 C   0  0  0  0  0  0  0  0  0  0  0  0
  -18.7139  -27.9859   22.6882 C   0  0  0  0  0  0  0  0  0  0  0  0
  -24.5087  -26.0054   22.6221 C   0  0  0  0  0  0  0  0  0  0  0  0
  -27.9998  -19.3898   15.8260 C   0  0  0  0  0  0  0  0  0  0  0  0
  -28.4390  -17.1004   16.4608 C   0  0  0  0  0  0  0  0  0  0  0  0
  -23.4142   -8.2105   23.2795 C   0  0  0  0  0  0  0  0  0  0  0  0
  -24.8620   -9.4022   24.8028 C   0  0  0  0  0  0  0  0  0  0  0  0
  -25.2228  -25.2247   21.7142 C   0  0  0  0  0  0  0  0  0  0  0  0
  -21.3971   -8.1034   25.9911 C   0  0  0  0  0  0  0  0  0  0  0  0
  -20.0561   -7.7561   26.1546 C   0  0  0  0  0  0  0  0  0  0  0  0
  -26.0866  -27.2263   20.6815 C   0  0  0  0  0  0  0  0  0  0  0  0
  -28.0037  -18.7626   18.1592 C   0  0  0  0  0  0  0  0  0  0  0  0
  -20.6029   -5.4424   25.7246 C   0  0  0  0  0  0  0  0  0  0  0  0
  -24.6119  -10.1685   22.5253 C   0  0  0  0  0  0  0  0  0  0  0  0
  -24.0496  -11.9441   20.7822 C   0  0  0  0  0  0  0  0  0  0  0  0
  -17.8021  -30.2055   23.0480 C   0  0  0  0  0  0  0  0  0  0  0  0
  -24.5697  -27.4050   22.5595 C   0  0  0  0  0  0  0  0  0  0  0  0
  -18.8034  -29.3766   22.5071 C   0  0  0  0  0  0  0  0  0  0  0  0
  -25.3743  -28.0226   21.5913 C   0  0  0  0  0  0  0  0  0  0  0  0
  -27.8560  -19.7348   17.1699 C   0  0  0  0  0  0  0  0  0  0  0  0
  -28.2952  -17.4454   17.8046 C   0  0  0  0  0  0  0  0  0  0  0  0
  -23.9802   -8.3523   24.5464 C   0  0  0  0  0  0  0  0  0  0  0  0
  -26.0096  -25.8351   20.7419 C   0  0  0  0  0  0  0  0  0  0  0  0
  -22.3410   -7.1202   25.6942 C   0  0  0  0  0  0  0  0  0  0  0  0
  -19.6590   -6.4256   26.0214 C   0  0  0  0  0  0  0  0  0  0  0  0
  -21.9439   -5.7897   25.5610 C   0  0  0  0  0  0  0  0  0  0  0  0
  -24.9389  -11.1065   21.4816 C   0  0  0  0  0  0  0  0  0  0  0  0
  -24.8479  -12.6353   19.9038 C   0  0  0  0  0  0  0  0  0  0  0  0
  -27.3800  -22.1661   16.6521 C   0  0  0  0  0  0  0  0  0  0  0  0
  -26.5699  -17.0773   20.1627 C   0  0  0  0  0  0  0  0  0  0  0  0
  -27.7688  -16.5040   20.0366 C   0  0  0  0  0  0  0  0  0  0  0  0
  -22.6289  -12.0850   20.9146 C   0  0  0  0  0  0  0  0  0  0  0  0
  -22.4538  -29.7219   22.0508 C   0  0  0  0  0  0  0  0  0  0  0  0
  -24.9705  -31.6427   22.7575 C   0  0  0  0  0  0  0  0  0  0  0  0
  -28.3562  -32.0441   22.9078 C   0  0  0  0  0  0  0  0  0  0  0  0
  -29.4395  -15.4336   18.6624 C   0  0  0  0  0  0  0  0  0  0  0  0
  -17.8162  -31.7004   22.8481 C   0  0  0  0  0  0  0  0  0  0  0  0
  -23.8145  -28.2327   23.5630 C   0  0  0  0  0  0  0  0  0  0  0  0
  -25.4897  -29.5212   21.4946 C   0  0  0  0  0  0  0  0  0  0  0  0
  -26.9870  -23.3699   17.4811 C   0  0  0  0  0  0  0  0  0  0  0  0
  -19.1768  -32.2450   22.4212 C   0  0  0  0  0  0  0  0  0  0  0  0
  -29.6756  -11.9511   18.5897 C   0  0  0  0  0  0  0  0  0  0  0  0
  -19.7654  -31.3930   21.3012 C   0  0  0  0  0  0  0  0  0  0  0  0
  -28.3971  -11.4801   19.2823 C   0  0  0  0  0  0  0  0  0  0  0  0
  -30.2567  -13.1753   19.2878 C   0  0  0  0  0  0  0  0  0  0  0  0
  -28.0169  -13.8637   20.0833 C   0  0  0  0  0  0  0  0  0  0  0  0
  -27.3203  -21.4765   18.9111 C   0  0  0  0  0  0  0  0  0  0  0  0
  -19.9924  -29.9498   21.7670 C   0  0  1  0  0  0  0  0  0  0  0  0
  -23.5444  -29.6551   23.0822 C   0  0  1  0  0  0  0  0  0  0  0  0
  -27.3825  -12.6299   19.4103 C   0  0  2  0  0  0  0  0  0  0  0  0
  -27.4229  -22.9951   18.8921 C   0  0  2  0  0  0  0  0  0  0  0  0
  -30.1153  -33.7370   23.4884 C   0  0  0  0  0  0  0  0  0  0  0  0
  -24.4501  -33.0846   20.1193 C   0  0  0  0  0  0  0  0  0  0  0  0
  -26.7375  -34.0870   20.2963 C   0  0  0  0  0  0  0  0  0  0  0  0
  -25.0202  -34.5878   22.0349 C   0  0  0  0  0  0  0  0  0  0  0  0
  -29.4515  -30.3379   25.0637 C   0  0  0  0  0  0  0  0  0  0  0  0
  -26.5869  -23.6588   19.9764 C   0  0  0  0  0  0  0  0  0  1  0  0
  -26.0765  -32.2920   21.9612 C   0  0  1  0  0  0  0  0  0  0  0  0
  -29.2583  -32.5896   24.0001 C   0  0  2  0  0  0  0  0  0  0  0  0
  -25.5676  -33.4846   21.1032 C   0  0  0  0  0  0  0  0  0  0  0  0
  -26.2052  -11.2506   21.0820 N   0  0  0  0  0  0  0  0  0  0  0  0
  -26.1174  -12.1868   20.1218 N   0  0  0  0  0  0  0  0  0  0  0  0
  -27.5571  -21.0831   17.5320 N   0  0  0  0  0  0  0  0  0  0  0  0
  -24.7273  -30.2872   22.4943 N   0  0  0  0  0  0  0  0  0  0  0  0
  -29.2613  -14.2426   19.3941 N   0  0  0  0  0  0  0  0  0  0  0  0
  -24.5808  -13.5767   18.9739 N   0  0  0  0  0  0  0  0  0  0  0  0
  -22.1330  -13.0322   21.8208 N   0  0  0  0  0  0  0  0  0  0  0  0
  -21.1857  -29.8633   22.5812 N   0  0  0  0  0  0  0  0  0  0  0  0
  -27.1162  -32.6471   22.9210 N   0  0  0  0  0  0  0  0  0  0  0  0
  -28.4486  -16.4354   18.8314 N   0  0  0  0  0  0  0  0  0  0  0  0
  -30.1616  -31.5189   24.5086 N   0  3  0  0  0  0  0  0  0  0  0  0
  -27.4491  -22.2074   15.4320 O   0  0  0  0  0  0  0  0  0  0  0  0
  -21.8231  -11.3799   20.2611 O   0  0  0  0  0  0  0  0  0  0  0  0
  -22.7416  -29.6520   20.8617 O   0  0  0  0  0  0  0  0  0  0  0  0
  -24.3500  -32.3117   23.5876 O   0  0  0  0  0  0  0  0  0  0  0  0
  -28.7167  -31.1731   22.1192 O   0  0  0  0  0  0  0  0  0  0  0  0
  -30.4202  -15.6054   17.9269 O   0  0  0  0  0  0  0  0  0  0  0  0
  -28.7906  -23.3616   19.0784 O   0  0  0  0  0  0  0  0  0  0  0  0
  -23.6720   -7.4665   25.5328 O   0  0  0  0  0  0  0  0  0  0  0  0
  -26.7071  -25.0754   19.8541 O   0  0  0  0  0  0  0  0  0  1  0  0
  -18.3715   -6.0920   26.1801 F   0  0  0  0  0  0  0  0  0  0  0  0
  -22.8463   -4.8406   25.2770 F   0  0  0  0  0  0  0  0  0  0  0  0
  1  2  1  0  0  0  0
  1  6  2  0  0  0  0
  2  7  2  0  0  0  0
  3  9  1  0  0  0  0
  3 10  2  0  0  0  0
  4 11  2  0  0  0  0
  4 19  1  0  0  0  0
  5 12  1  0  0  0  0
  5 19  2  0  0  0  0
  6 21  1  0  0  0  0
  7 23  1  0  0  0  0
  8 13  2  0  0  0  0
  8 22  1  0  0  0  0
  9 25  2  0  0  0  0
 10 26  1  0  0  0  0
 11 27  1  0  0  0  0
 12 27  2  0  0  0  0
 13 28  1  0  0  0  0
 14 15  2  0  0  0  0
 14 29  1  0  0  0  0
 15 30  1  0  0  0  0
 16 24  1  0  0  0  0
 16 28  2  0  0  0  0
 17 25  1  0  0  0  0
 17 26  2  0  0  0  0
 18 30  2  0  0  0  0
 18 31  1  0  0  0  0
 19 32  1  0  0  0  0
 20 32  1  0  0  0  0
 20 33  2  0  0  0  0
 20 37  1  0  0  0  0
 21 23  2  0  0  0  0
 21 42  1  0  0  0  0
 22 24  2  0  0  0  0
 22 43  1  0  0  0  0
 23 53  1  0  0  0  0
 24 44  1  0  0  0  0
 25 68  1  0  0  0  0
 26 75  1  0  0  0  0
 27 84  1  0  0  0  0
 28 85  1  0  0  0  0
 29 31  2  0  0  0  0
 29 84  1  0  0  0  0
 30 86  1  0  0  0  0
 31 87  1  0  0  0  0
 32 66  2  0  0  0  0
 33 67  1  0  0  0  0
 33 71  1  0  0  0  0
 34 45  1  0  0  0  0
 34 68  1  0  0  0  0
 34 77  2  0  0  0  0
 35 36  2  0  0  0  0
 36 75  1  0  0  0  0
 37 72  1  0  0  0  0
 37 78  2  0  0  0  0
 38 54  1  0  0  0  0
 38 73  1  0  0  0  0
 38 79  2  0  0  0  0
 39 63  1  0  0  0  0
 39 69  1  0  0  0  0
 39 80  2  0  0  0  0
 40 64  1  0  0  0  0
 40 74  1  0  0  0  0
 40 81  2  0  0  0  0
 41 70  1  0  0  0  0
 41 75  1  0  0  0  0
 41 82  2  0  0  0  0
 42 46  1  0  0  0  0
 43 54  1  0  0  0  0
 44 69  1  0  0  0  0
 45 56  1  0  0  0  0
 46 48  1  0  0  0  0
 47 49  1  0  0  0  0
 47 50  1  0  0  0  0
 48 53  1  0  0  0  0
 49 55  1  0  0  0  0
 50 70  1  0  0  0  0
 51 55  1  0  0  0  0
 51 70  1  0  0  0  0
 52 56  1  0  0  0  0
 52 68  1  0  0  0  0
 53 73  1  0  0  0  0
 54 69  1  0  0  0  0
 55 67  1  0  0  0  0
 56 62  1  0  0  0  0
 56 83  1  0  0  0  0
 57 64  1  0  0  0  0
 58 65  1  0  0  0  0
 59 65  1  0  0  0  0
 60 65  1  0  0  0  0
 61 76  1  0  0  0  0
 62 85  1  0  0  0  0
 63 65  1  0  0  0  0
 63 74  1  0  0  0  0
 64 76  1  0  0  0  0
 66 67  1  0  0  0  0
M  CHG  1  76   1
M  ISO  4  41 100  62 101  75 100  85 101
M  END
> <Batch ID>
0074

> <Smiles>
C=C[100N:0](c1cccc(N2CC(O)([101CH2:1][101O:1]c3ccc4c(c3)CN(C(=O)C(NC(=O)C(C)NC)C(C)(C)C)C(C(=O)NC3CCCc5ccccc53)C4)CC2=O)c1)[100C:0](=O)N1CCCC(n2nc(-c3ccc(Oc4ccc(F)cc4F)cc3)c(C(N)=O)c2N)C1

> <Shape>
0.247

> <Color>
0.109

> <Negative vol penalty>
0.000

$$$$

  -OEChem-04042323443D

 86 95  0     1  0  0  0  0  0999 V2000
  -28.1483  -38.0600   24.3250 C   0  0  0  0  0  0  0  0  0  0  0  0
  -28.6494  -36.9679   23.6238 C   0  0  0  0  0  0  0  0  0  0  0  0
  -26.1341  -12.2712   22.3749 C   0  0  0  0  0  0  0  0  0  0  0  0
  -26.6909  -13.0675   20.1629 C   0  0  0  0  0  0  0  0  0  0  0  0
  -27.1407  -37.8768   25.2710 C   0  0  0  0  0  0  0  0  0  0  0  0
  -28.1438  -35.6917   23.8690 C   0  0  0  0  0  0  0  0  0  0  0  0
  -27.4104  -31.1772   19.7963 C   0  0  0  0  0  0  0  0  0  0  0  0
  -24.9137  -11.7948   21.8963 C   0  0  0  0  0  0  0  0  0  0  0  0
  -25.4704  -12.5910   19.6842 C   0  0  0  0  0  0  0  0  0  0  0  0
  -28.1842  -30.0601   19.4847 C   0  0  0  0  0  0  0  0  0  0  0  0
  -23.7922   -9.1181   20.1611 C   0  0  0  0  0  0  0  0  0  0  0  0
  -23.3966   -7.8394   20.5534 C   0  0  0  0  0  0  0  0  0  0  0  0
  -30.5701  -22.3555   18.3984 C   0  0  0  0  0  0  0  0  0  0  0  0
  -30.7405  -20.0304   19.0324 C   0  0  0  0  0  0  0  0  0  0  0  0
  -26.8202  -28.7141   20.9500 C   0  0  0  0  0  0  0  0  0  0  0  0
  -30.4879  -21.7302   20.7307 C   0  0  0  0  0  0  0  0  0  0  0  0
  -21.4114   -8.7660   21.5720 C   0  0  0  0  0  0  0  0  0  0  0  0
  -27.0227  -12.9076   21.5083 C   0  0  0  0  0  0  0  0  0  0  0  0
  -30.7111  -21.0139   18.0437 C   0  0  0  0  0  0  0  0  0  0  0  0
  -29.5052  -12.7037   22.0588 C   0  0  0  0  0  0  0  0  0  0  0  0
  -26.6157  -36.5991   25.5210 C   0  0  0  0  0  0  0  0  0  0  0  0
  -26.3406  -31.0733   20.6969 C   0  0  0  0  0  0  0  0  0  0  0  0
  -27.1291  -35.4910   24.8202 C   0  0  0  0  0  0  0  0  0  0  0  0
  -26.0327  -29.8308   21.2693 C   0  0  0  0  0  0  0  0  0  0  0  0
  -30.4586  -22.7136   19.7419 C   0  0  0  0  0  0  0  0  0  0  0  0
  -30.6289  -20.3886   20.3759 C   0  0  0  0  0  0  0  0  0  0  0  0
  -24.5818  -11.9547   20.5509 C   0  0  0  0  0  0  0  0  0  0  0  0
  -27.8910  -28.8289   20.0638 C   0  0  0  0  0  0  0  0  0  0  0  0
  -22.9974  -10.2209   20.4743 C   0  0  0  0  0  0  0  0  0  0  0  0
  -22.2063   -7.6633   21.2588 C   0  0  0  0  0  0  0  0  0  0  0  0
  -21.8070  -10.0448   21.1797 C   0  0  0  0  0  0  0  0  0  0  0  0
  -28.2833  -13.4005   22.0023 C   0  0  0  0  0  0  0  0  0  0  0  0
  -30.3885  -13.6032   22.6040 C   0  0  0  0  0  0  0  0  0  0  0  0
  -30.1931  -24.6542   21.2949 C   0  0  0  0  0  0  0  0  0  0  0  0
  -30.8272  -20.6405   16.6430 C   0  0  0  0  0  0  0  0  0  0  0  0
  -29.8143  -11.3633   21.6545 C   0  0  0  0  0  0  0  0  0  0  0  0
  -25.6491  -32.3662   23.5172 C   0  0  0  0  0  0  0  0  0  0  0  0
  -22.8216  -30.8353   23.0881 C   0  0  0  0  0  0  0  0  0  0  0  0
  -21.0988  -28.2977   21.5917 C   0  0  0  0  0  0  0  0  0  0  0  0
  -30.5602  -19.5741   22.7589 C   0  0  0  0  0  0  0  0  0  0  0  0
  -25.5600  -36.4438   26.5869 C   0  0  0  0  0  0  0  0  0  0  0  0
  -25.4989  -32.2820   21.0020 C   0  0  0  0  0  0  0  0  0  0  0  0
  -24.8823  -29.6619   22.2266 C   0  0  0  0  0  0  0  0  0  0  0  0
  -24.8170  -35.1120   26.5188 C   0  0  0  0  0  0  0  0  0  0  0  0
  -30.5529  -17.3708   25.5557 C   0  0  0  0  0  0  0  0  0  0  0  0
  -25.8017  -33.9594   26.3492 C   0  0  0  0  0  0  0  0  0  0  0  0
  -30.0871  -16.0377   24.9658 C   0  0  0  0  0  0  0  0  0  0  0  0
  -29.8402  -18.5571   24.9088 C   0  0  0  0  0  0  0  0  0  0  0  0
  -29.4377  -17.2618   22.8523 C   0  0  0  0  0  0  0  0  0  0  0  0
  -30.2617  -25.2420   19.2729 C   0  0  0  0  0  0  0  0  0  0  0  0
  -26.5890  -34.0946   25.0403 C   0  0  1  0  0  0  0  0  0  0  0  0
  -24.7521  -32.1710   22.3276 C   0  0  1  0  0  0  0  0  0  0  0  0
  -30.1747  -16.0410   23.4270 C   0  0  2  0  0  0  0  0  0  0  0  0
  -30.1113  -26.0441   20.6004 C   0  0  2  0  0  0  0  0  0  0  0  0
  -31.2831  -26.9648   20.9231 C   0  0  0  0  0  0  0  0  0  0  0  0
  -18.8095  -27.2779   21.4641 C   0  0  0  0  0  0  0  0  0  0  0  0
  -23.2406  -29.5579   25.8273 C   0  0  0  0  0  0  0  0  0  0  0  0
  -21.4762  -27.8821   25.2384 C   0  0  0  0  0  0  0  0  0  0  0  0
  -20.8978  -30.3050   25.3720 C   0  0  0  0  0  0  0  0  0  0  0  0
  -20.8978  -28.8279   18.6870 C   0  0  0  0  0  0  0  0  0  0  0  0
  -28.7735  -26.7371   20.7718 C   0  0  0  0  0  0  0  0  0  1  0  0
  -22.2840  -29.4669   23.4309 C   0  0  1  0  0  0  0  0  0  0  0  0
  -19.7747  -28.2796   20.8495 C   0  0  2  0  0  0  0  0  0  0  0  0
  -21.9976  -29.3062   24.9506 C   0  0  0  0  0  0  0  0  0  0  0  0
  -28.3779  -14.6465   22.4741 N   0  0  0  0  0  0  0  0  0  0  0  0
  -30.8078  -21.5006   15.6683 N   0  0  0  0  0  0  0  0  0  0  0  0
  -29.6698  -14.7397   22.8323 N   0  0  0  0  0  0  0  0  0  0  0  0
  -30.3195  -24.0364   20.0918 N   0  0  0  0  0  0  0  0  0  0  0  0
  -24.0929  -30.8746   22.4981 N   0  0  0  0  0  0  0  0  0  0  0  0
  -29.9692  -18.4961   23.4513 N   0  0  0  0  0  0  0  0  0  0  0  0
  -31.7020  -13.5249   22.9057 N   0  0  0  0  0  0  0  0  0  0  0  0
  -28.7891  -10.5754   21.1137 N   0  0  0  0  0  0  0  0  0  0  0  0
  -30.6584  -19.3893   21.3802 N   0  0  0  0  0  0  0  0  0  0  0  0
  -25.7755  -33.6831   23.9163 N   0  0  0  0  0  0  0  0  0  0  0  0
  -21.1184  -29.2609   22.5781 N   0  0  0  0  0  0  0  0  0  0  0  0
  -19.9866  -27.9124   19.4208 N   0  3  0  0  0  0  0  0  0  0  0  0
  -30.1619  -24.2429   22.4324 O   0  0  0  0  0  0  0  0  0  0  0  0
  -30.9616  -10.8731   21.7847 O   0  0  0  0  0  0  0  0  0  0  0  0
  -26.1854  -31.3939   24.0355 O   0  0  0  0  0  0  0  0  0  0  0  0
  -22.1357  -31.8320   23.3283 O   0  0  0  0  0  0  0  0  0  0  0  0
  -22.0221  -27.5313   21.3256 O   0  0  0  0  0  0  0  0  0  0  0  0
  -30.9752  -20.5749   23.3488 O   0  0  0  0  0  0  0  0  0  0  0  0
  -23.3911  -11.4897   20.0834 O   0  0  0  0  0  0  0  0  0  0  0  0
  -28.6451  -27.7371   19.7620 O   0  0  0  0  0  0  0  0  0  1  0  0
  -21.8258   -6.4351   21.6342 F   0  0  0  0  0  0  0  0  0  0  0  0
  -21.0387  -11.1002   21.4824 F   0  0  0  0  0  0  0  0  0  0  0  0
  1  2  1  0  0  0  0
  1  5  2  0  0  0  0
  2  6  2  0  0  0  0
  3  8  2  0  0  0  0
  3 18  1  0  0  0  0
  4  9  1  0  0  0  0
  4 18  2  0  0  0  0
  5 21  1  0  0  0  0
  6 23  1  0  0  0  0
  7 10  2  0  0  0  0
  7 22  1  0  0  0  0
  8 27  1  0  0  0  0
  9 27  2  0  0  0  0
 10 28  1  0  0  0  0
 11 12  2  0  0  0  0
 11 29  1  0  0  0  0
 12 30  1  0  0  0  0
 13 19  2  0  0  0  0
 13 25  1  0  0  0  0
 14 19  1  0  0  0  0
 14 26  2  0  0  0  0
 15 24  1  0  0  0  0
 15 28  2  0  0  0  0
 16 25  2  0  0  0  0
 16 26  1  0  0  0  0
 17 30  2  0  0  0  0
 17 31  1  0  0  0  0
 18 32  1  0  0  0  0
 19 35  1  0  0  0  0
 20 32  1  0  0  0  0
 20 33  2  0  0  0  0
 20 36  1  0  0  0  0
 21 23  2  0  0  0  0
 21 41  1  0  0  0  0
 22 24  2  0  0  0  0
 22 42  1  0  0  0  0
 23 51  1  0  0  0  0
 24 43  1  0  0  0  0
 25 68  1  0  0  0  0
 26 73  1  0  0  0  0
 27 83  1  0  0  0  0
 28 84  1  0  0  0  0
 29 31  2  0  0  0  0
 29 83  1  0  0  0  0
 30 85  1  0  0  0  0
 31 86  1  0  0  0  0
 32 65  2  0  0  0  0
 33 67  1  0  0  0  0
 33 71  1  0  0  0  0
 34 54  1  0  0  0  0
 34 68  1  0  0  0  0
 34 77  2  0  0  0  0
 35 66  2  0  0  0  0
 36 72  1  0  0  0  0
 36 78  2  0  0  0  0
 37 52  1  0  0  0  0
 37 74  1  0  0  0  0
 37 79  2  0  0  0  0
 38 62  1  0  0  0  0
 38 69  1  0  0  0  0
 38 80  2  0  0  0  0
 39 63  1  0  0  0  0
 39 75  1  0  0  0  0
 39 81  2  0  0  0  0
 40 70  1  0  0  0  0
 40 73  1  0  0  0  0
 40 82  2  0  0  0  0
 41 44  1  0  0  0  0
 42 52  1  0  0  0  0
 43 69  1  0  0  0  0
 44 46  1  0  0  0  0
 45 47  1  0  0  0  0
 45 48  1  0  0  0  0
 46 51  1  0  0  0  0
 47 53  1  0  0  0  0
 48 70  1  0  0  0  0
 49 53  1  0  0  0  0
 49 70  1  0  0  0  0
 50 54  1  0  0  0  0
 50 68  1  0  0  0  0
 51 74  1  0  0  0  0
 52 69  1  0  0  0  0
 53 67  1  0  0  0  0
 54 55  1  0  0  0  0
 54 61  1  0  0  0  0
 56 63  1  0  0  0  0
 57 64  1  0  0  0  0
 58 64  1  0  0  0  0
 59 64  1  0  0  0  0
 60 76  1  0  0  0  0
 61 84  1  0  0  0  0
 62 64  1  0  0  0  0
 62 75  1  0  0  0  0
 63 76  1  0  0  0  0
 65 67  1  0  0  0  0
M  CHG  1  76   1
M  ISO  4  40 100  61 101  73 100  84 101
M  END
> <Batch ID>
0074

> <Smiles>
CNC(C)C(=O)NC(C(=O)N1Cc2cc([101O:1][101CH2:1]C3(C)CN(c4cc(C=N)cc([100NH:0][100C:0](=O)N5CCCC(n6nc(-c7ccc(Oc8ccc(F)cc8F)cc7)c(C(N)=O)c6N)C5)c4)C3=O)ccc2CC1C(=O)NC1CCCc2ccccc21)C(C)(C)C

> <Shape>
0.297

> <Color>
0.066

> <Negative vol penalty>
0.000

$$$$

  -OEChem-04042323443D

 88 96  0     1  0  0  0  0  0999 V2000
  -27.4199  -36.7973   23.7003 C   0  0  0  0  0  0  0  0  0  0  0  0
  -27.9774  -35.6210   23.2094 C   0  0  0  0  0  0  0  0  0  0  0  0
  -32.3285  -19.2427   20.2711 C   0  0  0  0  0  0  0  0  0  0  0  0
  -24.4989  -11.4952   23.9265 C   0  0  0  0  0  0  0  0  0  0  0  0
  -24.3372  -13.8961   24.1423 C   0  0  0  0  0  0  0  0  0  0  0  0
  -31.5013  -20.2975   20.6569 C   0  0  0  0  0  0  0  0  0  0  0  0
  -26.2087  -36.7586   24.3899 C   0  0  0  0  0  0  0  0  0  0  0  0
  -27.3245  -34.4051   23.4087 C   0  0  0  0  0  0  0  0  0  0  0  0
  -27.1827  -29.6308   19.5758 C   0  0  0  0  0  0  0  0  0  0  0  0
  -31.7743  -18.0042   19.9475 C   0  0  0  0  0  0  0  0  0  0  0  0
  -24.1168  -11.3495   25.2601 C   0  0  0  0  0  0  0  0  0  0  0  0
  -23.9551  -13.7505   25.4759 C   0  0  0  0  0  0  0  0  0  0  0  0
  -27.9121  -28.4435   19.5289 C   0  0  0  0  0  0  0  0  0  0  0  0
  -21.2534  -11.4461   27.0556 C   0  0  0  0  0  0  0  0  0  0  0  0
  -20.2949  -10.4775   27.3533 C   0  0  0  0  0  0  0  0  0  0  0  0
  -29.5658  -18.8753   20.3956 C   0  0  0  0  0  0  0  0  0  0  0  0
  -26.1387  -27.3143   20.7117 C   0  0  0  0  0  0  0  0  0  0  0  0
  -21.8726   -9.3619   28.8036 C   0  0  0  0  0  0  0  0  0  0  0  0
  -24.6091  -12.7684   23.3676 C   0  0  0  0  0  0  0  0  0  0  0  0
  -30.1200  -20.1138   20.7192 C   0  0  0  0  0  0  0  0  0  0  0  0
  -24.1610  -12.9642   20.8639 C   0  0  0  0  0  0  0  0  0  0  0  0
  -25.5358  -35.5428   24.5894 C   0  0  0  0  0  0  0  0  0  0  0  0
  -25.9284  -29.6713   20.2016 C   0  0  0  0  0  0  0  0  0  0  0  0
  -26.1038  -34.3499   24.1028 C   0  0  0  0  0  0  0  0  0  0  0  0
  -25.3942  -28.5027   20.7629 C   0  0  0  0  0  0  0  0  0  0  0  0
  -30.3930  -17.8205   20.0098 C   0  0  0  0  0  0  0  0  0  0  0  0
  -23.8449  -12.4772   26.0347 C   0  0  0  0  0  0  0  0  0  0  0  0
  -27.3914  -27.2858   20.0995 C   0  0  0  0  0  0  0  0  0  0  0  0
  -22.5215  -11.3726   27.6319 C   0  0  0  0  0  0  0  0  0  0  0  0
  -20.6044   -9.4354   28.2273 C   0  0  0  0  0  0  0  0  0  0  0  0
  -22.8311  -10.3305   28.5059 C   0  0  0  0  0  0  0  0  0  0  0  0
  -25.0043  -12.9195   21.9902 C   0  0  0  0  0  0  0  0  0  0  0  0
  -25.0164  -13.1182   19.8004 C   0  0  0  0  0  0  0  0  0  0  0  0
  -29.2402  -21.2382   21.1302 C   0  0  0  0  0  0  0  0  0  0  0  0
  -22.7321  -12.8745   20.7859 C   0  0  0  0  0  0  0  0  0  0  0  0
  -24.7119  -31.2330   22.6885 C   0  0  0  0  0  0  0  0  0  0  0  0
  -29.1573  -24.3710   21.3500 C   0  0  0  0  0  0  0  0  0  0  0  0
  -21.9438  -29.8611   21.6997 C   0  0  0  0  0  0  0  0  0  0  0  0
  -20.4102  -27.3283   20.0027 C   0  0  0  0  0  0  0  0  0  0  0  0
  -30.5090  -15.4125   19.2786 C   0  0  0  0  0  0  0  0  0  0  0  0
  -24.2527  -35.5449   25.3820 C   0  0  0  0  0  0  0  0  0  0  0  0
  -25.1424  -30.9536   20.2202 C   0  0  0  0  0  0  0  0  0  0  0  0
  -24.0433  -28.4885   21.4287 C   0  0  0  0  0  0  0  0  0  0  0  0
  -23.4377  -34.2637   25.2249 C   0  0  0  0  0  0  0  0  0  0  0  0
  -29.4891  -12.1121   18.4160 C   0  0  0  0  0  0  0  0  0  0  0  0
  -24.3357  -33.0389   25.3679 C   0  0  0  0  0  0  0  0  0  0  0  0
  -28.1436  -11.9509   19.1272 C   0  0  0  0  0  0  0  0  0  0  0  0
  -30.4765  -12.9280   19.2485 C   0  0  0  0  0  0  0  0  0  0  0  0
  -28.6312  -14.0707   20.4139 C   0  0  0  0  0  0  0  0  0  0  0  0
  -25.4134  -33.0147   24.2774 C   0  0  1  0  0  0  0  0  0  0  0  0
  -24.1021  -31.0005   21.3351 C   0  0  1  0  0  0  0  0  0  0  0  0
  -27.5821  -13.3110   19.5858 C   0  0  2  0  0  0  0  0  0  0  0  0
  -18.1362  -26.4541   19.4010 C   0  0  0  0  0  0  0  0  0  0  0  0
  -29.5116  -22.6761   24.8809 C   0  0  0  0  0  0  0  0  0  0  0  0
  -28.7844  -25.0164   24.3823 C   0  0  0  0  0  0  0  0  0  0  0  0
  -31.0704  -24.2437   23.7308 C   0  0  0  0  0  0  0  0  0  0  0  0
  -21.6089  -28.7872   24.5359 C   0  0  0  0  0  0  0  0  0  0  0  0
  -19.8961  -27.1884   23.6537 C   0  0  0  0  0  0  0  0  0  0  0  0
  -19.5057  -29.6468   23.4909 C   0  0  0  0  0  0  0  0  0  0  0  0
  -20.9326  -27.6315   17.1054 C   0  0  0  0  0  0  0  0  0  0  0  0
  -27.9089  -25.2054   21.1291 C   0  0  0  0  0  0  0  0  0  1  0  0
  -29.0861  -23.3257   22.4623 C   0  0  2  0  0  0  0  0  0  0  0  0
  -21.2296  -28.5636   21.9919 C   0  0  1  0  0  0  0  0  0  0  0  0
  -19.2973  -27.3367   18.9702 C   0  0  2  0  0  0  0  0  0  0  0  0
  -29.5907  -23.8172   23.8482 C   0  0  0  0  0  0  0  0  0  0  0  0
  -20.5864  -28.5469   23.4073 C   0  0  0  0  0  0  0  0  0  0  0  0
  -26.2963  -13.0357   21.6720 N   0  0  0  0  0  0  0  0  0  0  0  0
  -26.2712  -13.1547   20.3336 N   0  0  0  0  0  0  0  0  0  0  0  0
  -23.3159  -29.7686   21.4269 N   0  0  0  0  0  0  0  0  0  0  0  0
  -29.8774  -14.2047   19.6433 N   0  0  0  0  0  0  0  0  0  0  0  0
  -24.8101  -13.2246   18.4705 N   0  0  0  0  0  0  0  0  0  0  0  0
  -22.0066  -12.7180   21.9748 N   0  0  0  0  0  0  0  0  0  0  0  0
  -29.8303  -16.5624   19.6807 N   0  0  0  0  0  0  0  0  0  0  0  0
  -29.8183  -22.1885   21.9586 N   0  0  0  0  0  0  0  0  0  0  0  0
  -24.8513  -32.5669   23.0212 N   0  0  0  0  0  0  0  0  0  0  0  0
  -20.2804  -28.3656   20.9018 N   0  0  0  0  0  0  0  0  0  0  0  0
  -19.8033  -26.8408   17.6591 N   0  3  0  0  0  0  0  0  0  0  0  0
  -28.0742  -21.2594   20.7450 O   0  0  0  0  0  0  0  0  0  0  0  0
  -22.1181  -12.9149   19.6928 O   0  0  0  0  0  0  0  0  0  0  0  0
  -25.0308  -30.2732   23.3804 O   0  0  0  0  0  0  0  0  0  0  0  0
  -30.1629  -24.5221   20.6556 O   0  0  0  0  0  0  0  0  0  0  0  0
  -21.3061  -30.9171   21.7060 O   0  0  0  0  0  0  0  0  0  0  0  0
  -21.3030  -26.4838   20.0129 O   0  0  0  0  0  0  0  0  0  0  0  0
  -31.5596  -15.4260   18.6320 O   0  0  0  0  0  0  0  0  0  0  0  0
  -23.4718  -12.3354   27.3360 O   0  0  0  0  0  0  0  0  0  0  0  0
  -28.1016  -26.1258   20.0557 O   0  0  0  0  0  0  0  0  0  1  0  0
  -19.6833   -8.5062   28.5142 F   0  0  0  0  0  0  0  0  0  0  0  0
  -24.0473  -10.2553   29.0635 F   0  0  0  0  0  0  0  0  0  0  0  0
  1  2  1  0  0  0  0
  1  7  2  0  0  0  0
  2  8  2  0  0  0  0
  3  6  2  0  0  0  0
  3 10  1  0  0  0  0
  4 11  2  0  0  0  0
  4 19  1  0  0  0  0
  5 12  1  0  0  0  0
  5 19  2  0  0  0  0
  6 20  1  0  0  0  0
  7 22  1  0  0  0  0
  8 24  1  0  0  0  0
  9 13  2  0  0  0  0
  9 23  1  0  0  0  0
 10 26  2  0  0  0  0
 11 27  1  0  0  0  0
 12 27  2  0  0  0  0
 13 28  1  0  0  0  0
 14 15  2  0  0  0  0
 14 29  1  0  0  0  0
 15 30  1  0  0  0  0
 16 20  2  0  0  0  0
 16 26  1  0  0  0  0
 17 25  1  0  0  0  0
 17 28  2  0  0  0  0
 18 30  2  0  0  0  0
 18 31  1  0  0  0  0
 19 32  1  0  0  0  0
 20 34  1  0  0  0  0
 21 32  1  0  0  0  0
 21 33  2  0  0  0  0
 21 35  1  0  0  0  0
 22 24  2  0  0  0  0
 22 41  1  0  0  0  0
 23 25  2  0  0  0  0
 23 42  1  0  0  0  0
 24 50  1  0  0  0  0
 25 43  1  0  0  0  0
 26 73  1  0  0  0  0
 27 85  1  0  0  0  0
 28 86  1  0  0  0  0
 29 31  2  0  0  0  0
 29 85  1  0  0  0  0
 30 87  1  0  0  0  0
 31 88  1  0  0  0  0
 32 67  2  0  0  0  0
 33 68  1  0  0  0  0
 33 71  1  0  0  0  0
 34 74  1  0  0  0  0
 34 78  2  0  0  0  0
 35 72  1  0  0  0  0
 35 79  2  0  0  0  0
 36 51  1  0  0  0  0
 36 75  1  0  0  0  0
 36 80  2  0  0  0  0
 37 61  1  0  0  0  0
 37 62  1  0  0  0  0
 37 81  2  0  0  0  0
 38 63  1  0  0  0  0
 38 69  1  0  0  0  0
 38 82  2  0  0  0  0
 39 64  1  0  0  0  0
 39 76  1  0  0  0  0
 39 83  2  0  0  0  0
 40 70  1  0  0  0  0
 40 73  1  0  0  0  0
 40 84  2  0  0  0  0
 41 44  1  0  0  0  0
 42 51  1  0  0  0  0
 43 69  1  0  0  0  0
 44 46  1  0  0  0  0
 45 47  1  0  0  0  0
 45 48  1  0  0  0  0
 46 50  1  0  0  0  0
 47 52  1  0  0  0  0
 48 70  1  0  0  0  0
 49 52  1  0  0  0  0
 49 70  1  0  0  0  0
 50 75  1  0  0  0  0
 51 69  1  0  0  0  0
 52 68  1  0  0  0  0
 53 64  1  0  0  0  0
 54 65  1  0  0  0  0
 55 65  1  0  0  0  0
 56 65  1  0  0  0  0
 57 66  1  0  0  0  0
 58 66  1  0  0  0  0
 59 66  1  0  0  0  0
 60 77  1  0  0  0  0
 61 86  1  0  0  0  0
 62 65  1  0  0  0  0
 62 74  1  0  0  0  0
 63 66  1  0  0  0  0
 63 76  1  0  0  0  0
 64 77  1  0  0  0  0
 67 68  1  0  0  0  0
M  CHG  1  77   1
M  ISO  4  40 100  61 101  73 100  86 101
M  END
> <Batch ID>
0074

> <Smiles>
CNC(C)C(=O)NC(C(=O)N1Cc2cc([101O:1][101CH2:1]C(=O)C(NC(=O)c3cccc([100NH:0][100C:0](=O)N4CCCC(n5nc(-c6ccc(Oc7ccc(F)cc7F)cc6)c(C(N)=O)c5N)C4)c3)C(C)(C)C)ccc2CC1C(=O)NC1CCCc2ccccc21)C(C)(C)C

> <Shape>
0.289

> <Color>
0.096

> <Negative vol penalty>
0.000

$$$$

  -OEChem-04042323443D

 87 96  0     1  0  0  0  0  0999 V2000
  -22.9051   -8.9352   24.4154 C   0  0  0  0  0  0  0  0  0  0  0  0
  -23.7702   -9.5505   23.5163 C   0  0  0  0  0  0  0  0  0  0  0  0
  -22.1791  -28.1647   20.9110 C   0  0  0  0  0  0  0  0  0  0  0  0
  -23.2731  -27.0636   22.7624 C   0  0  0  0  0  0  0  0  0  0  0  0
  -21.5796   -9.3579   24.5061 C   0  0  0  0  0  0  0  0  0  0  0  0
  -23.3099  -10.5882   22.7065 C   0  0  0  0  0  0  0  0  0  0  0  0
  -26.5369  -14.4866   22.5227 C   0  0  0  0  0  0  0  0  0  0  0  0
  -30.4026  -19.8440   21.5225 C   0  0  0  0  0  0  0  0  0  0  0  0
  -20.9448  -27.9905   21.5367 C   0  0  0  0  0  0  0  0  0  0  0  0
  -22.0388  -26.8895   23.3883 C   0  0  0  0  0  0  0  0  0  0  0  0
  -27.6542  -14.3500   21.7001 C   0  0  0  0  0  0  0  0  0  0  0  0
  -17.5454  -28.1570   22.8142 C   0  0  0  0  0  0  0  0  0  0  0  0
  -30.1035  -20.9833   22.2695 C   0  0  0  0  0  0  0  0  0  0  0  0
  -16.6705  -29.2431   22.8361 C   0  0  0  0  0  0  0  0  0  0  0  0
  -26.5541  -15.6590   19.9985 C   0  0  0  0  0  0  0  0  0  0  0  0
  -29.7910  -21.0111   19.4974 C   0  0  0  0  0  0  0  0  0  0  0  0
  -18.3096  -30.5390   24.0490 C   0  0  0  0  0  0  0  0  0  0  0  0
  -23.3433  -27.7012   21.5238 C   0  0  0  0  0  0  0  0  0  0  0  0
  -25.4934  -28.9751   21.0120 C   0  0  0  0  0  0  0  0  0  0  0  0
  -21.1053  -10.4077   23.7039 C   0  0  0  0  0  0  0  0  0  0  0  0
  -25.4136  -15.2025   22.0843 C   0  0  0  0  0  0  0  0  0  0  0  0
  -21.9764  -11.0244   22.7856 C   0  0  0  0  0  0  0  0  0  0  0  0
  -25.4248  -15.8054   20.8184 C   0  0  0  0  0  0  0  0  0  0  0  0
  -30.2464  -19.8579   20.1364 C   0  0  0  0  0  0  0  0  0  0  0  0
  -29.4919  -22.1505   20.2445 C   0  0  0  0  0  0  0  0  0  0  0  0
  -20.8746  -27.3529   22.7754 C   0  0  0  0  0  0  0  0  0  0  0  0
  -27.6619  -14.9338   20.4367 C   0  0  0  0  0  0  0  0  0  0  0  0
  -18.8025  -28.2619   23.4097 C   0  0  0  0  0  0  0  0  0  0  0  0
  -17.0525  -30.4341   23.4535 C   0  0  0  0  0  0  0  0  0  0  0  0
  -29.6481  -22.1365   21.6305 C   0  0  0  0  0  0  0  0  0  0  0  0
  -19.1845  -29.4529   24.0271 C   0  0  0  0  0  0  0  0  0  0  0  0
  -24.6187  -27.8803   20.8776 C   0  0  0  0  0  0  0  0  0  0  0  0
  -26.5575  -28.6659   20.2004 C   0  0  0  0  0  0  0  0  0  0  0  0
  -30.8501  -16.6563   19.0588 C   0  0  0  0  0  0  0  0  0  0  0  0
  -25.3564  -30.1650   21.8000 C   0  0  0  0  0  0  0  0  0  0  0  0
  -22.3663  -14.4809   21.5392 C   0  0  0  0  0  0  0  0  0  0  0  0
  -22.0992  -17.6785   21.0636 C   0  0  0  0  0  0  0  0  0  0  0  0
  -23.6188  -20.6230   20.2466 C   0  0  0  0  0  0  0  0  0  0  0  0
  -28.8199  -23.4999   18.2260 C   0  0  0  0  0  0  0  0  0  0  0  0
  -19.6520  -10.7983   23.8038 C   0  0  0  0  0  0  0  0  0  0  0  0
  -24.2266  -15.3632   22.9940 C   0  0  0  0  0  0  0  0  0  0  0  0
  -24.2521  -16.6013   20.3087 C   0  0  0  0  0  0  0  0  0  0  0  0
  -19.3414  -12.1550   23.1768 C   0  0  0  0  0  0  0  0  0  0  0  0
  -27.6554  -26.2132   16.2364 C   0  0  0  0  0  0  0  0  0  0  0  0
  -19.9945  -12.2703   21.8031 C   0  0  0  0  0  0  0  0  0  0  0  0
  -26.8291  -27.0515   17.2145 C   0  0  0  0  0  0  0  0  0  0  0  0
  -27.5048  -24.7168   16.5043 C   0  0  0  0  0  0  0  0  0  0  0  0
  -26.9465  -25.1420   18.8659 C   0  0  0  0  0  0  0  0  0  0  0  0
  -30.4104  -18.6559   17.9559 C   0  0  0  0  0  0  0  0  0  0  0  0
  -21.5210  -12.1700   21.9079 C   0  0  1  0  0  0  0  0  0  0  0  0
  -22.9368  -15.6794   22.2432 C   0  0  1  0  0  0  0  0  0  0  0  0
  -27.1171  -26.6582   18.6767 C   0  0  2  0  0  0  0  0  0  0  0  0
  -30.6683  -17.1712   17.6480 C   0  0  0  0  0  0  0  0  0  0  0  0
  -29.4666  -16.5202   16.9685 C   0  0  0  0  0  0  0  0  0  0  0  0
  -31.9428  -16.9824   16.8284 C   0  0  0  0  0  0  0  0  0  0  0  0
  -23.1341  -23.0612   19.9036 C   0  0  0  0  0  0  0  0  0  0  0  0
  -20.8349  -17.0444   18.3600 C   0  0  0  0  0  0  0  0  0  0  0  0
  -21.2482  -19.4204   17.6878 C   0  0  0  0  0  0  0  0  0  0  0  0
  -19.7413  -18.9140   19.6102 C   0  0  0  0  0  0  0  0  0  0  0  0
  -25.4595  -21.4143   22.4248 C   0  0  0  0  0  0  0  0  0  0  0  0
  -31.1033  -15.2147   19.3550 C   0  0  0  0  0  0  0  0  0  0  0  0
  -30.0201  -14.6740   20.2714 C   0  0  0  0  0  0  0  0  0  1  0  0
  -22.2358  -18.5975   19.8737 C   0  0  1  0  0  0  0  0  0  0  0  0
  -23.5720  -21.9946   20.8953 C   0  0  2  0  0  0  0  0  0  0  0  0
  -21.0366  -18.4775   18.8915 C   0  0  0  0  0  0  0  0  0  0  0  0
  -25.0864  -26.9456   20.0460 N   0  0  0  0  0  0  0  0  0  0  0  0
  -30.7768  -17.5439   19.9993 N   0  0  0  0  0  0  0  0  0  0  0  0
  -26.2666  -27.4522   19.6505 N   0  0  0  0  0  0  0  0  0  0  0  0
  -30.5407  -18.7392   19.4029 N   0  0  0  0  0  0  0  0  0  0  0  0
  -23.1127  -16.7246   21.2328 N   0  0  0  0  0  0  0  0  0  0  0  0
  -27.7972  -24.4183   17.9080 N   0  0  0  0  0  0  0  0  0  0  0  0
  -27.7043  -29.3166   19.9107 N   0  0  0  0  0  0  0  0  0  0  0  0
  -24.2001  -30.3229   22.5761 N   0  0  0  0  0  0  0  0  0  0  0  0
  -29.0294  -23.3207   19.5930 N   0  0  0  0  0  0  0  0  0  0  0  0
  -22.0787  -13.4203   22.3770 N   0  0  0  0  0  0  0  0  0  0  0  0
  -22.4338  -19.9381   20.4140 N   0  0  0  0  0  0  0  0  0  0  0  0
  -24.9164  -22.3652   21.4209 N   0  3  0  0  0  0  0  0  0  0  0  0
  -26.2258  -31.0692   21.8026 O   0  0  0  0  0  0  0  0  0  0  0  0
  -22.1980  -14.5163   20.3259 O   0  0  0  0  0  0  0  0  0  0  0  0
  -21.1327  -17.8072   21.8193 O   0  0  0  0  0  0  0  0  0  0  0  0
  -24.6064  -20.2027   19.6478 O   0  0  0  0  0  0  0  0  0  0  0  0
  -29.4810  -22.9358   17.3504 O   0  0  0  0  0  0  0  0  0  0  0  0
  -19.6703  -27.1830   23.3864 O   0  0  0  0  0  0  0  0  0  0  0  0
  -28.7510  -14.8014   19.6316 O   0  0  0  0  0  0  0  0  0  1  0  0
  -16.2128  -31.4775   23.4731 F   0  0  0  0  0  0  0  0  0  0  0  0
  -29.3635  -23.2257   22.3588 F   0  0  0  0  0  0  0  0  0  0  0  0
  -20.3913  -29.5601   24.5998 F   0  0  0  0  0  0  0  0  0  0  0  0
  1  2  1  0  0  0  0
  1  5  2  0  0  0  0
  2  6  2  0  0  0  0
  3  9  2  0  0  0  0
  3 18  1  0  0  0  0
  4 10  1  0  0  0  0
  4 18  2  0  0  0  0
  5 20  1  0  0  0  0
  6 22  1  0  0  0  0
  7 11  2  0  0  0  0
  7 21  1  0  0  0  0
  8 13  2  0  0  0  0
  8 24  1  0  0  0  0
  9 26  1  0  0  0  0
 10 26  2  0  0  0  0
 11 27  1  0  0  0  0
 12 14  2  0  0  0  0
 12 28  1  0  0  0  0
 13 30  1  0  0  0  0
 14 29  1  0  0  0  0
 15 23  1  0  0  0  0
 15 27  2  0  0  0  0
 16 24  2  0  0  0  0
 16 25  1  0  0  0  0
 17 29  2  0  0  0  0
 17 31  1  0  0  0  0
 18 32  1  0  0  0  0
 19 32  1  0  0  0  0
 19 33  2  0  0  0  0
 19 35  1  0  0  0  0
 20 22  2  0  0  0  0
 20 40  1  0  0  0  0
 21 23  2  0  0  0  0
 21 41  1  0  0  0  0
 22 50  1  0  0  0  0
 23 42  1  0  0  0  0
 24 69  1  0  0  0  0
 25 30  2  0  0  0  0
 25 74  1  0  0  0  0
 26 83  1  0  0  0  0
 27 84  1  0  0  0  0
 28 31  2  0  0  0  0
 28 83  1  0  0  0  0
 29 85  1  0  0  0  0
 30 86  1  0  0  0  0
 31 87  1  0  0  0  0
 32 66  2  0  0  0  0
 33 68  1  0  0  0  0
 33 72  1  0  0  0  0
 34 53  1  0  0  0  0
 34 61  1  0  0  0  0
 34 67  2  0  0  0  0
 35 73  1  0  0  0  0
 35 78  2  0  0  0  0
 36 51  1  0  0  0  0
 36 75  1  0  0  0  0
 36 79  2  0  0  0  0
 37 63  1  0  0  0  0
 37 70  1  0  0  0  0
 37 80  2  0  0  0  0
 38 64  1  0  0  0  0
 38 76  1  0  0  0  0
 38 81  2  0  0  0  0
 39 71  1  0  0  0  0
 39 74  1  0  0  0  0
 39 82  2  0  0  0  0
 40 43  1  0  0  0  0
 41 51  1  0  0  0  0
 42 70  1  0  0  0  0
 43 45  1  0  0  0  0
 44 46  1  0  0  0  0
 44 47  1  0  0  0  0
 45 50  1  0  0  0  0
 46 52  1  0  0  0  0
 47 71  1  0  0  0  0
 48 52  1  0  0  0  0
 48 71  1  0  0  0  0
 49 53  1  0  0  0  0
 49 69  1  0  0  0  0
 50 75  1  0  0  0  0
 51 70  1  0  0  0  0
 52 68  1  0  0  0  0
 53 54  1  0  0  0  0
 53 55  1  0  0  0  0
 56 64  1  0  0  0  0
 57 65  1  0  0  0  0
 58 65  1  0  0  0  0
 59 65  1  0  0  0  0
 60 77  1  0  0  0  0
 61 62  1  0  0  0  0
 62 84  1  0  0  0  0
 63 65  1  0  0  0  0
 63 76  1  0  0  0  0
 64 77  1  0  0  0  0
 66 68  1  0  0  0  0
 67 69  1  0  0  0  0
M  CHG  1  77   1
M  ISO  4  39 100  62 101  74 100  84 101
M  END
> <Batch ID>
0074

> <Smiles>
CNC(C)C(=O)NC(C(=O)N1Cc2cc([101O:1][101CH2:1]CC3=NN(c4ccc(F)c([100NH:0][100C:0](=O)N5CCCC(n6nc(-c7ccc(Oc8ccc(F)cc8F)cc7)c(C(N)=O)c6N)C5)c4)CC3(C)C)ccc2CC1C(=O)NC1CCCc2ccccc21)C(C)(C)C

> <Shape>
0.232

> <Color>
0.077

> <Negative vol penalty>
0.000

$$$$

  -OEChem-04042323443D

 86 95  0     1  0  0  0  0  0999 V2000
  -27.1072  -32.2013   25.1135 C   0  0  0  0  0  0  0  0  0  0  0  0
  -27.4561  -31.0564   24.4044 C   0  0  0  0  0  0  0  0  0  0  0  0
  -23.1573   -9.7097   20.0575 C   0  0  0  0  0  0  0  0  0  0  0  0
  -23.8626   -9.9128   22.3594 C   0  0  0  0  0  0  0  0  0  0  0  0
  -26.6856  -33.3414   24.4306 C   0  0  0  0  0  0  0  0  0  0  0  0
  -27.3827  -31.0506   23.0119 C   0  0  0  0  0  0  0  0  0  0  0  0
  -31.4559  -28.9469   20.8605 C   0  0  0  0  0  0  0  0  0  0  0  0
  -31.0165  -19.2691   20.1965 C   0  0  0  0  0  0  0  0  0  0  0  0
  -30.8906  -17.8841   20.3036 C   0  0  0  0  0  0  0  0  0  0  0  0
  -22.4561   -8.5465   20.3750 C   0  0  0  0  0  0  0  0  0  0  0  0
  -23.1613   -8.7496   22.6769 C   0  0  0  0  0  0  0  0  0  0  0  0
  -31.5256  -27.5544   20.8554 C   0  0  0  0  0  0  0  0  0  0  0  0
  -19.9558   -7.8590   23.2698 C   0  0  0  0  0  0  0  0  0  0  0  0
  -19.1740   -7.8702   24.4249 C   0  0  0  0  0  0  0  0  0  0  0  0
  -29.3408  -19.5544   21.9133 C   0  0  0  0  0  0  0  0  0  0  0  0
  -30.7627  -27.5306   18.5670 C   0  0  0  0  0  0  0  0  0  0  0  0
  -20.4769   -6.0453   25.3244 C   0  0  0  0  0  0  0  0  0  0  0  0
  -23.8606  -10.3929   21.0497 C   0  0  0  0  0  0  0  0  0  0  0  0
  -29.2148  -18.1693   22.0204 C   0  0  0  0  0  0  0  0  0  0  0  0
  -24.1005  -12.9154   20.7546 C   0  0  0  0  0  0  0  0  0  0  0  0
  -26.6163  -33.3527   23.0286 C   0  0  0  0  0  0  0  0  0  0  0  0
  -31.0278  -29.6423   19.7205 C   0  0  0  0  0  0  0  0  0  0  0  0
  -26.9586  -32.1915   22.3097 C   0  0  0  0  0  0  0  0  0  0  0  0
  -30.6908  -28.9320   18.5594 C   0  0  0  0  0  0  0  0  0  0  0  0
  -30.2417  -20.1043   21.0014 C   0  0  0  0  0  0  0  0  0  0  0  0
  -29.9897  -17.3342   21.2155 C   0  0  0  0  0  0  0  0  0  0  0  0
  -22.4581   -8.0664   21.6846 C   0  0  0  0  0  0  0  0  0  0  0  0
  -31.1762  -26.8459   19.7095 C   0  0  0  0  0  0  0  0  0  0  0  0
  -20.9981   -6.9409   23.1419 C   0  0  0  0  0  0  0  0  0  0  0  0
  -19.4346   -6.9634   25.4523 C   0  0  0  0  0  0  0  0  0  0  0  0
  -21.2587   -6.0340   24.1693 C   0  0  0  0  0  0  0  0  0  0  0  0
  -24.5856  -11.5943   20.7223 C   0  0  0  0  0  0  0  0  0  0  0  0
  -25.1689  -13.6832   20.3603 C   0  0  0  0  0  0  0  0  0  0  0  0
  -30.4634  -23.4574   20.6854 C   0  0  0  0  0  0  0  0  0  0  0  0
  -29.7556  -22.4984   21.5344 C   0  0  0  0  0  0  0  0  0  0  0  0
  -30.4775  -24.8002   20.6024 C   0  0  0  0  0  0  0  0  0  1  0  0
  -28.2624  -17.6265   22.9812 C   0  0  0  0  0  0  0  0  0  0  0  0
  -22.8003  -13.4048   21.1093 C   0  0  0  0  0  0  0  0  0  0  0  0
  -28.5941  -31.5754   19.0542 C   0  0  0  0  0  0  0  0  0  0  0  0
  -30.1423  -31.9104   16.2234 C   0  0  0  0  0  0  0  0  0  0  0  0
  -32.3296  -30.6151   13.9464 C   0  0  0  0  0  0  0  0  0  0  0  0
  -30.5816  -14.9722   20.5699 C   0  0  0  0  0  0  0  0  0  0  0  0
  -26.1096  -34.5935   22.3368 C   0  0  0  0  0  0  0  0  0  0  0  0
  -30.9837  -31.1457   19.7335 C   0  0  0  0  0  0  0  0  0  0  0  0
  -30.2445  -29.6323   17.3029 C   0  0  0  0  0  0  0  0  0  0  0  0
  -31.1327  -22.2991   19.9817 C   0  0  0  0  0  0  0  0  0  0  0  0
  -26.4177  -34.6264   20.8421 C   0  0  0  0  0  0  0  0  0  0  0  0
  -29.6234  -12.3500   18.3601 C   0  0  0  0  0  0  0  0  0  0  0  0
  -26.0751  -33.2873   20.1968 C   0  0  0  0  0  0  0  0  0  0  0  0
  -28.1875  -12.0283   18.7803 C   0  0  0  0  0  0  0  0  0  0  0  0
  -30.5000  -12.7030   19.5604 C   0  0  0  0  0  0  0  0  0  0  0  0
  -28.5331  -13.4416   20.8467 C   0  0  0  0  0  0  0  0  0  0  0  0
  -26.9158  -32.1543   20.7974 C   0  0  1  0  0  0  0  0  0  0  0  0
  -30.0422  -31.7250   18.6821 C   0  0  1  0  0  0  0  0  0  0  0  0
  -27.5960  -13.1432   19.6650 C   0  0  2  0  0  0  0  0  0  0  0  0
  -27.9935  -18.4323   24.2170 C   0  0  0  0  0  0  0  0  0  0  0  0
  -33.3659  -31.1008   11.7131 C   0  0  0  0  0  0  0  0  0  0  0  0
  -27.5307  -31.1399   14.8467 C   0  0  0  0  0  0  0  0  0  0  0  0
  -28.8393  -30.7175   12.7545 C   0  0  0  0  0  0  0  0  0  0  0  0
  -28.7794  -33.0060   13.7455 C   0  0  0  0  0  0  0  0  0  0  0  0
  -35.0601  -30.6349   15.0879 C   0  0  0  0  0  0  0  0  0  0  0  0
  -30.1115  -31.1914   14.8964 C   0  0  1  0  0  0  0  0  0  0  0  0
  -33.5118  -31.2323   13.2212 C   0  0  2  0  0  0  0  0  0  0  0  0
  -28.8217  -31.5001   14.0849 C   0  0  0  0  0  0  0  0  0  0  0  0
  -25.8627  -11.5232   20.3378 N   0  0  0  0  0  0  0  0  0  0  0  0
  -26.1891  -12.8093   20.1247 N   0  0  0  0  0  0  0  0  0  0  0  0
  -30.3659  -21.4701   20.8948 N   0  0  0  0  0  0  0  0  0  0  0  0
  -30.2117  -31.1028   17.3674 N   0  0  0  0  0  0  0  0  0  0  0  0
  -29.8786  -13.7688   20.3495 N   0  0  0  0  0  0  0  0  0  0  0  0
  -25.3257  -15.0139   20.1956 N   0  0  0  0  0  0  0  0  0  0  0  0
  -21.8193  -12.4794   21.4907 N   0  0  0  0  0  0  0  0  0  0  0  0
  -29.8776  -15.9246   21.3061 N   0  0  0  0  0  0  0  0  0  0  0  0
  -28.2561  -32.1757   20.2521 N   0  0  0  0  0  0  0  0  0  0  0  0
  -31.3488  -31.5476   14.2103 N   0  0  0  0  0  0  0  0  0  0  0  0
  -34.7782  -30.5622   13.6311 N   0  3  0  0  0  0  0  0  0  0  0  0
  -28.9445  -22.5805   22.4331 O   0  0  0  0  0  0  0  0  0  0  0  0
  -27.6685  -16.5558   22.8544 O   0  0  0  0  0  0  0  0  0  0  0  0
  -22.5121  -14.6251   21.0728 O   0  0  0  0  0  0  0  0  0  0  0  0
  -27.8391  -30.9621   18.3089 O   0  0  0  0  0  0  0  0  0  0  0  0
  -30.1133  -33.1434   16.2440 O   0  0  0  0  0  0  0  0  0  0  0  0
  -32.2795  -29.4240   14.2454 O   0  0  0  0  0  0  0  0  0  0  0  0
  -31.7133  -15.1554   20.1143 O   0  0  0  0  0  0  0  0  0  0  0  0
  -21.7738   -6.9315   21.9948 O   0  0  0  0  0  0  0  0  0  0  0  0
  -31.2427  -25.4868   19.7020 O   0  0  0  0  0  0  0  0  0  1  0  0
  -18.6848   -6.9753   26.5621 F   0  0  0  0  0  0  0  0  0  0  0  0
  -22.2594   -5.1504   24.0527 F   0  0  0  0  0  0  0  0  0  0  0  0
  1  2  1  0  0  0  0
  1  5  2  0  0  0  0
  2  6  2  0  0  0  0
  3 10  2  0  0  0  0
  3 18  1  0  0  0  0
  4 11  1  0  0  0  0
  4 18  2  0  0  0  0
  5 21  1  0  0  0  0
  6 23  1  0  0  0  0
  7 12  2  0  0  0  0
  7 22  1  0  0  0  0
  8  9  2  0  0  0  0
  8 25  1  0  0  0  0
  9 26  1  0  0  0  0
 10 27  1  0  0  0  0
 11 27  2  0  0  0  0
 12 28  1  0  0  0  0
 13 14  2  0  0  0  0
 13 29  1  0  0  0  0
 14 30  1  0  0  0  0
 15 19  1  0  0  0  0
 15 25  2  0  0  0  0
 16 24  1  0  0  0  0
 16 28  2  0  0  0  0
 17 30  2  0  0  0  0
 17 31  1  0  0  0  0
 18 32  1  0  0  0  0
 19 26  2  0  0  0  0
 19 37  1  0  0  0  0
 20 32  1  0  0  0  0
 20 33  2  0  0  0  0
 20 38  1  0  0  0  0
 21 23  2  0  0  0  0
 21 43  1  0  0  0  0
 22 24  2  0  0  0  0
 22 44  1  0  0  0  0
 23 53  1  0  0  0  0
 24 45  1  0  0  0  0
 25 67  1  0  0  0  0
 26 72  1  0  0  0  0
 27 83  1  0  0  0  0
 28 84  1  0  0  0  0
 29 31  2  0  0  0  0
 29 83  1  0  0  0  0
 30 85  1  0  0  0  0
 31 86  1  0  0  0  0
 32 65  2  0  0  0  0
 33 66  1  0  0  0  0
 33 70  1  0  0  0  0
 34 35  1  0  0  0  0
 34 36  2  0  0  0  0
 34 46  1  0  0  0  0
 35 67  1  0  0  0  0
 35 76  2  0  0  0  0
 36 84  1  0  0  0  0
 37 56  1  0  0  0  0
 37 77  2  0  0  0  0
 38 71  1  0  0  0  0
 38 78  2  0  0  0  0
 39 54  1  0  0  0  0
 39 73  1  0  0  0  0
 39 79  2  0  0  0  0
 40 62  1  0  0  0  0
 40 68  1  0  0  0  0
 40 80  2  0  0  0  0
 41 63  1  0  0  0  0
 41 74  1  0  0  0  0
 41 81  2  0  0  0  0
 42 69  1  0  0  0  0
 42 72  1  0  0  0  0
 42 82  2  0  0  0  0
 43 47  1  0  0  0  0
 44 54  1  0  0  0  0
 45 68  1  0  0  0  0
 46 67  1  0  0  0  0
 47 49  1  0  0  0  0
 48 50  1  0  0  0  0
 48 51  1  0  0  0  0
 49 53  1  0  0  0  0
 50 55  1  0  0  0  0
 51 69  1  0  0  0  0
 52 55  1  0  0  0  0
 52 69  1  0  0  0  0
 53 73  1  0  0  0  0
 54 68  1  0  0  0  0
 55 66  1  0  0  0  0
 57 63  1  0  0  0  0
 58 64  1  0  0  0  0
 59 64  1  0  0  0  0
 60 64  1  0  0  0  0
 61 75  1  0  0  0  0
 62 64  1  0  0  0  0
 62 74  1  0  0  0  0
 63 75  1  0  0  0  0
 65 66  1  0  0  0  0
M  CHG  1  75   1
M  ISO  4  36 101  42 100  72 100  84 101
M  END
> <Batch ID>
0074

> <Smiles>
CNC(C)C(=O)NC(C(=O)N1Cc2cc([101O:1][101CH:1]=C3CN(c4ccc([100NH:0][100C:0](=O)N5CCCC(n6nc(-c7ccc(Oc8ccc(F)cc8F)cc7)c(C(N)=O)c6N)C5)c(C(C)=O)c4)C3=O)ccc2CC1C(=O)NC1CCCc2ccccc21)C(C)(C)C

> <Shape>
0.275

> <Color>
0.197

> <Negative vol penalty>
0.000

$$$$

  -OEChem-04042323443D

 84 92  0     1  0  0  0  0  0999 V2000
  -19.0375  -24.3640   23.2752 C   0  0  0  0  0  0  0  0  0  0  0  0
  -20.3531  -24.4757   22.8370 C   0  0  0  0  0  0  0  0  0  0  0  0
  -23.9396   -9.3300   21.7467 C   0  0  0  0  0  0  0  0  0  0  0  0
  -24.1256  -11.0322   23.4511 C   0  0  0  0  0  0  0  0  0  0  0  0
  -30.5716  -19.9528   19.4388 C   0  0  0  0  0  0  0  0  0  0  0  0
  -18.2159  -25.4901   23.3048 C   0  0  0  0  0  0  0  0  0  0  0  0
  -20.8476  -25.7133   22.4270 C   0  0  0  0  0  0  0  0  0  0  0  0
  -25.4570  -26.6775   24.2895 C   0  0  0  0  0  0  0  0  0  0  0  0
  -30.4114  -18.5698   19.3541 C   0  0  0  0  0  0  0  0  0  0  0  0
  -23.4235   -8.4417   22.6901 C   0  0  0  0  0  0  0  0  0  0  0  0
  -23.6094  -10.1439   24.3945 C   0  0  0  0  0  0  0  0  0  0  0  0
  -26.5375  -26.0493   23.6719 C   0  0  0  0  0  0  0  0  0  0  0  0
  -20.4604   -7.8730   24.2165 C   0  0  0  0  0  0  0  0  0  0  0  0
  -19.3435   -7.1199   23.8548 C   0  0  0  0  0  0  0  0  0  0  0  0
  -28.1813  -20.2420   19.2395 C   0  0  0  0  0  0  0  0  0  0  0  0
  -27.0111  -28.0761   22.4524 C   0  0  0  0  0  0  0  0  0  0  0  0
  -20.5993   -5.0867   24.2107 C   0  0  0  0  0  0  0  0  0  0  0  0
  -24.2907  -10.6253   22.1271 C   0  0  0  0  0  0  0  0  0  0  0  0
  -29.4566  -20.7889   19.3816 C   0  0  0  0  0  0  0  0  0  0  0  0
  -24.1005  -12.4363   20.3405 C   0  0  0  0  0  0  0  0  0  0  0  0
  -18.7034  -26.7440   22.9041 C   0  0  0  0  0  0  0  0  0  0  0  0
  -25.1382  -28.0086   23.9846 C   0  0  0  0  0  0  0  0  0  0  0  0
  -20.0314  -26.8570   22.4499 C   0  0  0  0  0  0  0  0  0  0  0  0
  -25.9275  -28.7197   23.0695 C   0  0  0  0  0  0  0  0  0  0  0  0
  -29.1361  -18.0229   19.2121 C   0  0  0  0  0  0  0  0  0  0  0  0
  -23.2584   -8.8487   24.0140 C   0  0  0  0  0  0  0  0  0  0  0  0
  -27.3130  -26.7476   22.7510 C   0  0  0  0  0  0  0  0  0  0  0  0
  -21.6468   -7.2330   24.5753 C   0  0  0  0  0  0  0  0  0  0  0  0
  -19.4129   -5.7267   23.8519 C   0  0  0  0  0  0  0  0  0  0  0  0
  -28.0210  -18.8590   19.1548 C   0  0  0  0  0  0  0  0  0  0  0  0
  -21.7162   -5.8399   24.5724 C   0  0  0  0  0  0  0  0  0  0  0  0
  -24.8244  -11.5432   21.1531 C   0  0  0  0  0  0  0  0  0  0  0  0
  -25.0600  -13.0779   19.5962 C   0  0  0  0  0  0  0  0  0  0  0  0
  -29.6254  -22.2539   19.4713 C   0  0  0  0  0  0  0  0  0  0  0  0
  -22.6871  -12.6653   20.2653 C   0  0  0  0  0  0  0  0  0  0  0  0
  -22.6219  -29.4783   22.7150 C   0  0  0  0  0  0  0  0  0  0  0  0
  -24.2924  -32.1536   23.4733 C   0  0  0  0  0  0  0  0  0  0  0  0
  -29.0588  -24.3208   20.7272 C   0  0  0  0  0  0  0  0  0  0  0  0
  -27.3184  -33.5952   24.1147 C   0  0  0  0  0  0  0  0  0  0  0  0
  -29.9799  -15.6496   19.1673 C   0  0  0  0  0  0  0  0  0  0  0  0
  -17.7636  -27.9236   22.9088 C   0  0  0  0  0  0  0  0  0  0  0  0
  -23.9856  -28.6802   24.6795 C   0  0  0  0  0  0  0  0  0  0  0  0
  -25.6395  -30.1568   22.7227 C   0  0  0  0  0  0  0  0  0  0  0  0
  -18.4760  -29.2703   22.8122 C   0  0  0  0  0  0  0  0  0  0  0  0
  -29.9920  -12.0920   19.0256 C   0  0  0  0  0  0  0  0  0  0  0  0
  -19.5357  -29.2362   21.7156 C   0  0  0  0  0  0  0  0  0  0  0  0
  -28.5891  -11.7055   19.4997 C   0  0  0  0  0  0  0  0  0  0  0  0
  -30.5314  -13.3056   19.7806 C   0  0  0  0  0  0  0  0  0  0  0  0
  -28.2457  -14.0926   20.2553 C   0  0  0  0  0  0  0  0  0  0  0  0
  -20.6117  -28.1870   22.0206 C   0  0  1  0  0  0  0  0  0  0  0  0
  -23.4403  -29.8791   23.9097 C   0  0  1  0  0  0  0  0  0  0  0  0
  -27.6340  -12.9151   19.4788 C   0  0  2  0  0  0  0  0  0  0  0  0
  -28.3700  -35.8063   24.6650 C   0  0  0  0  0  0  0  0  0  0  0  0
  -23.9702  -33.0272   20.5676 C   0  0  0  0  0  0  0  0  0  0  0  0
  -25.7950  -34.7001   20.9411 C   0  0  0  0  0  0  0  0  0  0  0  0
  -23.6749  -34.8575   22.2460 C   0  0  0  0  0  0  0  0  0  0  0  0
  -28.3559  -32.5902   26.6978 C   0  0  0  0  0  0  0  0  0  0  0  0
  -28.2746  -24.7267   21.9466 C   0  0  0  0  0  0  0  0  0  1  0  0
  -25.3182  -33.0088   22.7695 C   0  0  1  0  0  0  0  0  0  0  0  0
  -27.7770  -34.5229   25.2254 C   0  0  2  0  0  0  0  0  0  0  0  0
  -24.6941  -33.8707   21.6359 C   0  0  0  0  0  0  0  0  0  0  0  0
  -26.1420  -11.6087   20.9446 N   0  0  0  0  0  0  0  0  0  0  0  0
  -26.2537  -12.5505   19.9925 N   0  0  0  0  0  0  0  0  0  0  0  0
  -24.4982  -30.7676   23.4239 N   0  0  0  0  0  0  0  0  0  0  0  0
  -29.5758  -14.4133   19.7141 N   0  0  0  0  0  0  0  0  0  0  0  0
  -24.9906  -14.0361   18.6478 N   0  0  0  0  0  0  0  0  0  0  0  0
  -21.8441  -11.9199   21.1008 N   0  0  0  0  0  0  0  0  0  0  0  0
  -28.9768  -16.6175   19.1265 N   0  0  0  0  0  0  0  0  0  0  0  0
  -29.0217  -22.8989   20.4791 N   0  0  0  0  0  0  0  0  0  0  0  0
  -21.5332  -28.6838   23.0198 N   0  0  0  0  0  0  0  0  0  0  0  0
  -25.9869  -33.7831   23.8096 N   0  0  0  0  0  0  0  0  0  0  0  0
  -30.3729  -22.8500   18.5429 N   0  3  0  0  0  0  0  0  0  0  0  0
  -28.8114  -33.8545   26.0646 N   0  3  0  0  0  0  0  0  0  0  0  0
  -22.1854  -13.4945   19.4689 O   0  0  0  0  0  0  0  0  0  0  0  0
  -22.9528  -29.8627   21.5995 O   0  0  0  0  0  0  0  0  0  0  0  0
  -23.3473  -32.6957   24.0517 O   0  0  0  0  0  0  0  0  0  0  0  0
  -29.6752  -25.0865   20.0002 O   0  0  0  0  0  0  0  0  0  0  0  0
  -28.0674  -32.7875   23.5697 O   0  0  0  0  0  0  0  0  0  0  0  0
  -31.1234  -15.8274   18.7398 O   0  0  0  0  0  0  0  0  0  0  0  0
  -22.7546   -7.9822   24.9349 O   0  0  0  0  0  0  0  0  0  0  0  0
  -28.3678  -26.1366   22.1462 O   0  0  0  0  0  0  0  0  0  1  0  0
  -18.3398   -5.0036   23.5060 F   0  0  0  0  0  0  0  0  0  0  0  0
  -26.7907  -18.3443   19.0171 F   0  0  0  0  0  0  0  0  0  0  0  0
  -22.8528   -5.2194   24.9172 F   0  0  0  0  0  0  0  0  0  0  0  0
  1  2  1  0  0  0  0
  1  6  2  0  0  0  0
  2  7  2  0  0  0  0
  3 10  2  0  0  0  0
  3 18  1  0  0  0  0
  4 11  1  0  0  0  0
  4 18  2  0  0  0  0
  5  9  2  0  0  0  0
  5 19  1  0  0  0  0
  6 21  1  0  0  0  0
  7 23  1  0  0  0  0
  8 12  2  0  0  0  0
  8 22  1  0  0  0  0
  9 25  1  0  0  0  0
 10 26  1  0  0  0  0
 11 26  2  0  0  0  0
 12 27  1  0  0  0  0
 13 14  2  0  0  0  0
 13 28  1  0  0  0  0
 14 29  1  0  0  0  0
 15 19  2  0  0  0  0
 15 30  1  0  0  0  0
 16 24  1  0  0  0  0
 16 27  2  0  0  0  0
 17 29  2  0  0  0  0
 17 31  1  0  0  0  0
 18 32  1  0  0  0  0
 19 34  1  0  0  0  0
 20 32  1  0  0  0  0
 20 33  2  0  0  0  0
 20 35  1  0  0  0  0
 21 23  2  0  0  0  0
 21 41  1  0  0  0  0
 22 24  2  0  0  0  0
 22 42  1  0  0  0  0
 23 50  1  0  0  0  0
 24 43  1  0  0  0  0
 25 30  2  0  0  0  0
 25 68  1  0  0  0  0
 26 80  1  0  0  0  0
 27 81  1  0  0  0  0
 28 31  2  0  0  0  0
 28 80  1  0  0  0  0
 29 82  1  0  0  0  0
 30 83  1  0  0  0  0
 31 84  1  0  0  0  0
 32 62  2  0  0  0  0
 33 63  1  0  0  0  0
 33 66  1  0  0  0  0
 34 69  1  0  0  0  0
 34 72  2  0  0  0  0
 35 67  1  0  0  0  0
 35 74  2  0  0  0  0
 36 51  1  0  0  0  0
 36 70  1  0  0  0  0
 36 75  2  0  0  0  0
 37 59  1  0  0  0  0
 37 64  1  0  0  0  0
 37 76  2  0  0  0  0
 38 58  1  0  0  0  0
 38 69  1  0  0  0  0
 38 77  2  0  0  0  0
 39 60  1  0  0  0  0
 39 71  1  0  0  0  0
 39 78  2  0  0  0  0
 40 65  1  0  0  0  0
 40 68  1  0  0  0  0
 40 79  2  0  0  0  0
 41 44  1  0  0  0  0
 42 51  1  0  0  0  0
 43 64  1  0  0  0  0
 44 46  1  0  0  0  0
 45 47  1  0  0  0  0
 45 48  1  0  0  0  0
 46 50  1  0  0  0  0
 47 52  1  0  0  0  0
 48 65  1  0  0  0  0
 49 52  1  0  0  0  0
 49 65  1  0  0  0  0
 50 70  1  0  0  0  0
 51 64  1  0  0  0  0
 52 63  1  0  0  0  0
 53 60  1  0  0  0  0
 54 61  1  0  0  0  0
 55 61  1  0  0  0  0
 56 61  1  0  0  0  0
 57 73  1  0  0  0  0
 58 81  1  0  0  0  0
 59 61  1  0  0  0  0
 59 71  1  0  0  0  0
 60 73  1  0  0  0  0
 62 63  1  0  0  0  0
M  CHG  2  72   1  73   1
M  ISO  4  40 100  58 101  68 100  81 101
M  END
> <Batch ID>
0074

> <Smiles>
CNC(C)C(=O)NC(C(=O)N1Cc2cc([101O:1][101CH2:1]C(=O)NC(=N)c3ccc([100NH:0][100C:0](=O)N4CCCC(n5nc(-c6ccc(Oc7ccc(F)cc7F)cc6)c(C(N)=O)c5N)C4)c(F)c3)ccc2CC1C(=O)NC1CCCc2ccccc21)C(C)(C)C

> <Shape>
0.322

> <Color>
0.113

> <Negative vol penalty>
0.000

$$$$

  -OEChem-04042323443D

 87 96  0     1  0  0  0  0  0999 V2000
  -28.6756  -10.9664   19.6798 C   0  0  0  0  0  0  0  0  0  0  0  0
  -28.8572  -12.3121   19.3770 C   0  0  0  0  0  0  0  0  0  0  0  0
  -27.4301  -27.9714   17.0983 C   0  0  0  0  0  0  0  0  0  0  0  0
  -19.5338  -28.7753   23.6191 C   0  0  0  0  0  0  0  0  0  0  0  0
  -20.5889  -27.0990   22.2356 C   0  0  0  0  0  0  0  0  0  0  0  0
  -27.4310  -10.5126   20.1145 C   0  0  0  0  0  0  0  0  0  0  0  0
  -27.7938  -13.2046   19.5077 C   0  0  0  0  0  0  0  0  0  0  0  0
  -29.1463  -17.5163   21.7936 C   0  0  0  0  0  0  0  0  0  0  0  0
  -27.7839  -28.8449   18.1265 C   0  0  0  0  0  0  0  0  0  0  0  0
  -27.6936  -26.6070   17.2206 C   0  0  0  0  0  0  0  0  0  0  0  0
  -18.3219  -28.5517   22.9658 C   0  0  0  0  0  0  0  0  0  0  0  0
  -19.3769  -26.8754   21.5823 C   0  0  0  0  0  0  0  0  0  0  0  0
  -29.8316  -18.4565   21.0253 C   0  0  0  0  0  0  0  0  0  0  0  0
  -16.4761  -25.6071   19.7950 C   0  0  0  0  0  0  0  0  0  0  0  0
  -16.0902  -24.2845   19.5773 C   0  0  0  0  0  0  0  0  0  0  0  0
  -27.7826  -19.6929   20.7217 C   0  0  0  0  0  0  0  0  0  0  0  0
  -28.6648  -26.9900   19.3994 C   0  0  0  0  0  0  0  0  0  0  0  0
  -16.1093  -23.8867   21.9603 C   0  0  0  0  0  0  0  0  0  0  0  0
  -20.6673  -28.0490   23.2540 C   0  0  0  0  0  0  0  0  0  0  0  0
  -22.3972  -27.6285   25.0811 C   0  0  0  0  0  0  0  0  0  0  0  0
  -26.3545  -11.4018   20.2598 C   0  0  0  0  0  0  0  0  0  0  0  0
  -27.7696  -17.6517   22.0230 C   0  0  0  0  0  0  0  0  0  0  0  0
  -26.5333  -12.7621   19.9435 C   0  0  0  0  0  0  0  0  0  0  0  0
  -27.0827  -18.7544   21.4954 C   0  0  0  0  0  0  0  0  0  0  0  0
  -28.4012  -28.3543   19.2770 C   0  0  0  0  0  0  0  0  0  0  0  0
  -28.3110  -26.1164   18.3711 C   0  0  0  0  0  0  0  0  0  0  0  0
  -18.2434  -27.6017   21.9474 C   0  0  0  0  0  0  0  0  0  0  0  0
  -29.1492  -19.5434   20.4868 C   0  0  0  0  0  0  0  0  0  0  0  0
  -16.6786  -26.0695   21.0953 C   0  0  0  0  0  0  0  0  0  0  0  0
  -15.9068  -23.4243   20.6599 C   0  0  0  0  0  0  0  0  0  0  0  0
  -16.4952  -25.2094   22.1780 C   0  0  0  0  0  0  0  0  0  0  0  0
  -21.9197  -28.2799   23.9281 C   0  0  0  0  0  0  0  0  0  0  0  0
  -23.6221  -28.2031   25.3177 C   0  0  0  0  0  0  0  0  0  0  0  0
  -28.7211  -22.4754   18.0712 C   0  0  0  0  0  0  0  0  0  0  0  0
  -29.3107  -22.7252   19.3931 C   0  0  0  0  0  0  0  0  0  0  0  0
  -28.2612  -23.8009   17.5295 C   0  0  0  0  0  0  0  0  0  0  0  0
  -21.7880  -26.5963   25.8680 C   0  0  0  0  0  0  0  0  0  0  0  0
  -29.8230  -21.7599   20.1645 C   0  0  0  0  0  0  0  0  0  1  0  0
  -25.1983  -15.9174   21.3272 C   0  0  0  0  0  0  0  0  0  0  0  0
  -23.6879  -18.1385   23.1460 C   0  0  0  0  0  0  0  0  0  0  0  0
  -23.6618  -21.3002   24.4304 C   0  0  0  0  0  0  0  0  0  0  0  0
  -27.5868  -30.9563   21.7747 C   0  0  0  0  0  0  0  0  0  0  0  0
  -25.0151  -10.8562   20.6877 C   0  0  0  0  0  0  0  0  0  0  0  0
  -27.0502  -16.6433   22.8762 C   0  0  0  0  0  0  0  0  0  0  0  0
  -25.6086  -18.9565   21.7292 C   0  0  0  0  0  0  0  0  0  0  0  0
  -29.2217  -24.1871   19.6753 C   0  0  0  0  0  0  0  0  0  0  0  0
  -24.0409  -11.9332   21.1584 C   0  0  0  0  0  0  0  0  0  0  0  0
  -26.0257  -32.2910   24.6830 C   0  0  0  0  0  0  0  0  0  0  0  0
  -24.0292  -13.1057   20.1828 C   0  0  0  0  0  0  0  0  0  0  0  0
  -24.8394  -31.3556   24.9234 C   0  0  0  0  0  0  0  0  0  0  0  0
  -26.2789  -32.5100   23.1931 C   0  0  0  0  0  0  0  0  0  0  0  0
  -25.2501  -30.3389   22.6438 C   0  0  0  0  0  0  0  0  0  0  0  0
  -25.4108  -13.7654   20.0965 C   0  0  1  0  0  0  0  0  0  0  0  0
  -25.5473  -16.6048   22.6169 C   0  0  1  0  0  0  0  0  0  0  0  0
  -24.9907  -30.0432   24.1309 C   0  0  2  0  0  0  0  0  0  0  0  0
  -30.4243  -22.0075   21.5104 C   0  0  0  0  0  0  0  0  0  0  0  0
  -22.2772  -22.8386   25.8494 C   0  0  0  0  0  0  0  0  0  0  0  0
  -21.7782  -18.5735   20.8065 C   0  0  0  0  0  0  0  0  0  0  0  0
  -21.0562  -20.7147   21.8846 C   0  0  0  0  0  0  0  0  0  0  0  0
  -20.6836  -18.5435   23.0549 C   0  0  0  0  0  0  0  0  0  0  0  0
  -25.8079  -21.5553   26.4524 C   0  0  0  0  0  0  0  0  0  0  0  0
  -28.7792  -29.2887   20.3760 C   0  0  0  0  0  0  0  0  0  0  0  0
  -23.0293  -19.4704   22.8792 C   0  0  1  0  0  0  0  0  0  0  0  0
  -23.4017  -21.8148   25.8347 C   0  0  2  0  0  0  0  0  0  0  0  0
  -21.6642  -19.3210   22.1501 C   0  0  0  0  0  0  0  0  0  0  0  0
  -22.7717  -29.1981   23.4644 N   0  0  0  0  0  0  0  0  0  0  0  0
  -23.7968  -29.1280   24.3306 N   0  0  0  0  0  0  0  0  0  0  0  0
  -28.5730  -24.7556   18.4931 N   0  0  0  0  0  0  0  0  0  0  0  0
  -24.9484  -17.9400   22.5648 N   0  0  0  0  0  0  0  0  0  0  0  0
  -26.4146  -31.2267   22.4998 N   0  0  0  0  0  0  0  0  0  0  0  0
  -24.5559  -28.0025   26.2717 N   0  0  0  0  0  0  0  0  0  0  0  0
  -20.5269  -26.1201   25.4844 N   0  0  0  0  0  0  0  0  0  0  0  0
  -25.6402  -14.6105   21.2487 N   0  0  0  0  0  0  0  0  0  0  0  0
  -22.9474  -20.1505   24.1673 N   0  0  0  0  0  0  0  0  0  0  0  0
  -27.6366  -29.7145   21.1531 N   0  0  0  0  0  0  0  0  0  0  0  0
  -24.6284  -22.4561   26.3869 N   0  3  0  0  0  0  0  0  0  0  0  0
  -28.5936  -21.4322   17.4715 O   0  0  0  0  0  0  0  0  0  0  0  0
  -27.7306  -23.8981   16.4419 O   0  0  0  0  0  0  0  0  0  0  0  0
  -22.3383  -26.1221   26.8907 O   0  0  0  0  0  0  0  0  0  0  0  0
  -24.5729  -16.5270   20.4676 O   0  0  0  0  0  0  0  0  0  0  0  0
  -23.1087  -17.3076   23.8502 O   0  0  0  0  0  0  0  0  0  0  0  0
  -24.4199  -21.8638   23.6442 O   0  0  0  0  0  0  0  0  0  0  0  0
  -28.5220  -31.7597   21.6921 O   0  0  0  0  0  0  0  0  0  0  0  0
  -17.0609  -27.3831   21.3098 O   0  0  0  0  0  0  0  0  0  0  0  0
  -29.8155  -20.4622   19.7360 O   0  0  0  0  0  0  0  0  0  1  0  0
  -15.5347  -22.1546   20.4508 F   0  0  0  0  0  0  0  0  0  0  0  0
  -16.6871  -25.6482   23.4295 F   0  0  0  0  0  0  0  0  0  0  0  0
  1  2  1  0  0  0  0
  1  6  2  0  0  0  0
  2  7  2  0  0  0  0
  3  9  1  0  0  0  0
  3 10  2  0  0  0  0
  4 11  2  0  0  0  0
  4 19  1  0  0  0  0
  5 12  1  0  0  0  0
  5 19  2  0  0  0  0
  6 21  1  0  0  0  0
  7 23  1  0  0  0  0
  8 13  2  0  0  0  0
  8 22  1  0  0  0  0
  9 25  2  0  0  0  0
 10 26  1  0  0  0  0
 11 27  1  0  0  0  0
 12 27  2  0  0  0  0
 13 28  1  0  0  0  0
 14 15  2  0  0  0  0
 14 29  1  0  0  0  0
 15 30  1  0  0  0  0
 16 24  1  0  0  0  0
 16 28  2  0  0  0  0
 17 25  1  0  0  0  0
 17 26  2  0  0  0  0
 18 30  2  0  0  0  0
 18 31  1  0  0  0  0
 19 32  1  0  0  0  0
 20 32  1  0  0  0  0
 20 33  2  0  0  0  0
 20 37  1  0  0  0  0
 21 23  2  0  0  0  0
 21 43  1  0  0  0  0
 22 24  2  0  0  0  0
 22 44  1  0  0  0  0
 23 53  1  0  0  0  0
 24 45  1  0  0  0  0
 25 62  1  0  0  0  0
 26 68  1  0  0  0  0
 27 84  1  0  0  0  0
 28 85  1  0  0  0  0
 29 31  2  0  0  0  0
 29 84  1  0  0  0  0
 30 86  1  0  0  0  0
 31 87  1  0  0  0  0
 32 66  2  0  0  0  0
 33 67  1  0  0  0  0
 33 71  1  0  0  0  0
 34 35  1  0  0  0  0
 34 36  1  0  0  0  0
 34 77  2  0  0  0  0
 35 38  2  0  0  0  0
 35 46  1  0  0  0  0
 36 68  1  0  0  0  0
 36 78  2  0  0  0  0
 37 72  1  0  0  0  0
 37 79  2  0  0  0  0
 38 56  1  0  0  0  0
 38 85  1  0  0  0  0
 39 54  1  0  0  0  0
 39 73  1  0  0  0  0
 39 80  2  0  0  0  0
 40 63  1  0  0  0  0
 40 69  1  0  0  0  0
 40 81  2  0  0  0  0
 41 64  1  0  0  0  0
 41 74  1  0  0  0  0
 41 82  2  0  0  0  0
 42 70  1  0  0  0  0
 42 75  1  0  0  0  0
 42 83  2  0  0  0  0
 43 47  1  0  0  0  0
 44 54  1  0  0  0  0
 45 69  1  0  0  0  0
 46 68  1  0  0  0  0
 47 49  1  0  0  0  0
 48 50  1  0  0  0  0
 48 51  1  0  0  0  0
 49 53  1  0  0  0  0
 50 55  1  0  0  0  0
 51 70  1  0  0  0  0
 52 55  1  0  0  0  0
 52 70  1  0  0  0  0
 53 73  1  0  0  0  0
 54 69  1  0  0  0  0
 55 67  1  0  0  0  0
 57 64  1  0  0  0  0
 58 65  1  0  0  0  0
 59 65  1  0  0  0  0
 60 65  1  0  0  0  0
 61 76  1  0  0  0  0
 62 75  1  0  0  0  0
 63 65  1  0  0  0  0
 63 74  1  0  0  0  0
 64 76  1  0  0  0  0
 66 67  1  0  0  0  0
M  CHG  1  76   1
M  ISO  4  38 101  42 100  75 100  85 101
M  END
> <Batch ID>
0074

> <Smiles>
CNC(C)C(=O)NC(C(=O)N1Cc2cc([101O:1][101C:1](C)=C3CN(c4cccc(C[100NH:0][100C:0](=O)N5CCCC(n6nc(-c7ccc(Oc8ccc(F)cc8F)cc7)c(C(N)=O)c6N)C5)c4)C(=O)C3=O)ccc2CC1C(=O)NC1CCCc2ccccc21)C(C)(C)C

> <Shape>
0.238

> <Color>
0.067

> <Negative vol penalty>
0.000

$$$$

  -OEChem-04042323443D

 85 93  0     1  0  0  0  0  0999 V2000
  -30.0685  -27.1933   25.8530 C   0  0  0  0  0  0  0  0  0  0  0  0
  -28.7740  -27.3366   25.3641 C   0  0  0  0  0  0  0  0  0  0  0  0
  -26.3077  -29.8453   20.3312 C   0  0  0  0  0  0  0  0  0  0  0  0
  -29.3480  -17.3667   19.1925 C   0  0  0  0  0  0  0  0  0  0  0  0
  -28.3807  -17.8853   21.3448 C   0  0  0  0  0  0  0  0  0  0  0  0
  -24.9305  -29.6263   20.3641 C   0  0  0  0  0  0  0  0  0  0  0  0
  -30.6782  -25.9394   25.8515 C   0  0  0  0  0  0  0  0  0  0  0  0
  -28.0887  -26.2262   24.8724 C   0  0  0  0  0  0  0  0  0  0  0  0
  -23.3053  -26.0086   26.5205 C   0  0  0  0  0  0  0  0  0  0  0  0
  -27.1863  -28.7619   20.3284 C   0  0  0  0  0  0  0  0  0  0  0  0
  -29.6710  -16.0878   19.6457 C   0  0  0  0  0  0  0  0  0  0  0  0
  -28.7036  -16.6062   21.7981 C   0  0  0  0  0  0  0  0  0  0  0  0
  -22.3793  -26.8459   25.8998 C   0  0  0  0  0  0  0  0  0  0  0  0
  -28.0804  -13.1456   20.1426 C   0  0  0  0  0  0  0  0  0  0  0  0
  -27.8039  -12.0699   19.2989 C   0  0  0  0  0  0  0  0  0  0  0  0
  -25.3105  -27.2405   20.3915 C   0  0  0  0  0  0  0  0  0  0  0  0
  -21.6116  -24.9931   24.5593 C   0  0  0  0  0  0  0  0  0  0  0  0
  -30.1481  -11.4856   19.2756 C   0  0  0  0  0  0  0  0  0  0  0  0
  -28.7029  -18.2655   20.0421 C   0  0  0  0  0  0  0  0  0  0  0  0
  -24.4319  -28.3240   20.3943 C   0  0  0  0  0  0  0  0  0  0  0  0
  -27.1779  -19.9897   18.9423 C   0  0  0  0  0  0  0  0  0  0  0  0
  -29.9966  -24.8114   25.3684 C   0  0  0  0  0  0  0  0  0  0  0  0
  -23.3990  -24.6575   26.1569 C   0  0  0  0  0  0  0  0  0  0  0  0
  -28.6904  -24.9563   24.8631 C   0  0  0  0  0  0  0  0  0  0  0  0
  -22.5379  -24.1402   25.1786 C   0  0  0  0  0  0  0  0  0  0  0  0
  -26.6877  -27.4595   20.3586 C   0  0  0  0  0  0  0  0  0  0  0  0
  -29.3488  -15.7075   20.9485 C   0  0  0  0  0  0  0  0  0  0  0  0
  -21.5342  -26.3388   24.9170 C   0  0  0  0  0  0  0  0  0  0  0  0
  -29.3908  -13.3915   20.5528 C   0  0  0  0  0  0  0  0  0  0  0  0
  -28.8377  -11.2398   18.8654 C   0  0  0  0  0  0  0  0  0  0  0  0
  -30.4246  -12.5614   20.1193 C   0  0  0  0  0  0  0  0  0  0  0  0
  -28.3695  -19.5871   19.5746 C   0  0  0  0  0  0  0  0  0  0  0  0
  -27.3540  -21.3300   18.6995 C   0  0  0  0  0  0  0  0  0  0  0  0
  -22.9736  -28.0910   20.4286 C   0  0  0  0  0  0  0  0  0  0  0  0
  -26.0157  -19.2208   18.6048 C   0  0  0  0  0  0  0  0  0  0  0  0
  -25.6719  -22.8255   24.8993 C   0  0  0  0  0  0  0  0  0  0  0  0
  -23.5276  -20.4562   25.4567 C   0  0  0  0  0  0  0  0  0  0  0  0
  -20.8547  -28.4701   21.6711 C   0  0  0  0  0  0  0  0  0  0  0  0
  -20.2709  -19.5450   25.9158 C   0  0  0  0  0  0  0  0  0  0  0  0
  -28.9744  -26.4030   20.3250 C   0  0  0  0  0  0  0  0  0  0  0  0
  -30.7142  -23.4851   25.3433 C   0  0  0  0  0  0  0  0  0  0  0  0
  -24.3849  -23.7613   26.8548 C   0  0  0  0  0  0  0  0  0  0  0  0
  -22.5846  -22.6922   24.7665 C   0  0  0  0  0  0  0  0  0  0  0  0
  -29.7820  -22.2916   25.1510 C   0  0  0  0  0  0  0  0  0  0  0  0
  -31.4899  -24.2266   19.0551 C   0  0  0  0  0  0  0  0  0  0  0  0
  -28.7933  -22.5631   24.0216 C   0  0  0  0  0  0  0  0  0  0  0  0
  -30.8043  -22.8586   19.0250 C   0  0  0  0  0  0  0  0  0  0  0  0
  -31.0584  -25.0507   20.2668 C   0  0  0  0  0  0  0  0  0  0  0  0
  -28.9212  -23.8326   20.4007 C   0  0  0  0  0  0  0  0  0  0  0  0
  -27.9054  -23.7711   24.3442 C   0  0  1  0  0  0  0  0  0  0  0  0
  -24.7448  -22.5214   26.0420 C   0  0  1  0  0  0  0  0  0  0  0  0
  -29.2750  -22.9916   19.1632 C   0  0  2  0  0  0  0  0  0  0  0  0
  -18.8256  -17.5321   26.3116 C   0  0  0  0  0  0  0  0  0  0  0  0
  -23.8177  -19.6738   22.5218 C   0  0  0  0  0  0  0  0  0  0  0  0
  -21.7137  -18.3349   22.7429 C   0  0  0  0  0  0  0  0  0  0  0  0
  -23.7149  -17.7450   24.1104 C   0  0  0  0  0  0  0  0  0  0  0  0
  -19.3142  -20.5982   28.5109 C   0  0  0  0  0  0  0  0  0  0  0  0
  -20.9771  -28.5329   24.1877 C   0  0  0  0  0  0  0  0  0  1  0  0
  -22.3994  -19.8293   24.6736 C   0  0  1  0  0  0  0  0  0  0  0  0
  -20.3754  -29.1522   22.9314 C   0  0  2  0  0  0  0  0  0  0  0  0
  -19.6092  -18.6632   26.9593 C   0  0  2  0  0  0  0  0  0  0  0  0
  -22.9116  -18.9235   23.5183 C   0  0  0  0  0  0  0  0  0  0  0  0
  -29.2384  -20.5904   19.7240 N   0  0  0  0  0  0  0  0  0  0  0  0
  -28.5923  -21.6367   19.1820 N   0  0  0  0  0  0  0  0  0  0  0  0
  -23.5699  -21.8575   25.4736 N   0  0  0  0  0  0  0  0  0  0  0  0
  -29.5978  -25.1372   20.3304 N   0  0  0  0  0  0  0  0  0  0  0  0
  -26.5689  -22.2643   18.1224 N   0  0  0  0  0  0  0  0  0  0  0  0
  -26.0007  -17.8567   18.9258 N   0  0  0  0  0  0  0  0  0  0  0  0
  -27.5809  -26.3596   20.3557 N   0  0  0  0  0  0  0  0  0  0  0  0
  -22.2792  -28.5907   21.4600 N   0  0  0  0  0  0  0  0  0  0  0  0
  -26.8686  -23.3998   25.2832 N   0  0  0  0  0  0  0  0  0  0  0  0
  -21.5609  -19.1387   25.6475 N   0  0  0  0  0  0  0  0  0  0  0  0
  -22.4332  -27.3920   19.4310 N   0  3  0  0  0  0  0  0  0  0  0  0
  -18.8897  -29.0865   23.0240 N   0  3  0  0  0  0  0  0  0  0  0  0
  -18.6723  -19.4649   27.7963 N   0  3  0  0  0  0  0  0  0  0  0  0
  -25.0268  -19.7250   18.0205 O   0  0  0  0  0  0  0  0  0  0  0  0
  -25.3276  -22.5574   23.7542 O   0  0  0  0  0  0  0  0  0  0  0  0
  -24.3371  -19.7294   26.0381 O   0  0  0  0  0  0  0  0  0  0  0  0
  -20.1400  -27.8702   20.8805 O   0  0  0  0  0  0  0  0  0  0  0  0
  -19.6992  -20.4967   25.3886 O   0  0  0  0  0  0  0  0  0  0  0  0
  -29.6277  -27.4479   20.2678 O   0  0  0  0  0  0  0  0  0  0  0  0
  -29.6636  -14.4594   21.3910 O   0  0  0  0  0  0  0  0  0  0  0  0
  -20.6299  -27.1541   24.3091 O   0  0  0  0  0  0  0  0  0  1  0  0
  -28.5718  -10.2059   18.0564 F   0  0  0  0  0  0  0  0  0  0  0  0
  -31.6853  -12.7919   20.5109 F   0  0  0  0  0  0  0  0  0  0  0  0
  1  2  1  0  0  0  0
  1  7  2  0  0  0  0
  2  8  2  0  0  0  0
  3  6  2  0  0  0  0
  3 10  1  0  0  0  0
  4 11  2  0  0  0  0
  4 19  1  0  0  0  0
  5 12  1  0  0  0  0
  5 19  2  0  0  0  0
  6 20  1  0  0  0  0
  7 22  1  0  0  0  0
  8 24  1  0  0  0  0
  9 13  2  0  0  0  0
  9 23  1  0  0  0  0
 10 26  2  0  0  0  0
 11 27  1  0  0  0  0
 12 27  2  0  0  0  0
 13 28  1  0  0  0  0
 14 15  2  0  0  0  0
 14 29  1  0  0  0  0
 15 30  1  0  0  0  0
 16 20  2  0  0  0  0
 16 26  1  0  0  0  0
 17 25  1  0  0  0  0
 17 28  2  0  0  0  0
 18 30  2  0  0  0  0
 18 31  1  0  0  0  0
 19 32  1  0  0  0  0
 20 34  1  0  0  0  0
 21 32  1  0  0  0  0
 21 33  2  0  0  0  0
 21 35  1  0  0  0  0
 22 24  2  0  0  0  0
 22 41  1  0  0  0  0
 23 25  2  0  0  0  0
 23 42  1  0  0  0  0
 24 50  1  0  0  0  0
 25 43  1  0  0  0  0
 26 69  1  0  0  0  0
 27 82  1  0  0  0  0
 28 83  1  0  0  0  0
 29 31  2  0  0  0  0
 29 82  1  0  0  0  0
 30 84  1  0  0  0  0
 31 85  1  0  0  0  0
 32 63  2  0  0  0  0
 33 64  1  0  0  0  0
 33 67  1  0  0  0  0
 34 70  1  0  0  0  0
 34 73  2  0  0  0  0
 35 68  1  0  0  0  0
 35 76  2  0  0  0  0
 36 51  1  0  0  0  0
 36 71  1  0  0  0  0
 36 77  2  0  0  0  0
 37 59  1  0  0  0  0
 37 65  1  0  0  0  0
 37 78  2  0  0  0  0
 38 60  1  0  0  0  0
 38 70  1  0  0  0  0
 38 79  2  0  0  0  0
 39 61  1  0  0  0  0
 39 72  1  0  0  0  0
 39 80  2  0  0  0  0
 40 66  1  0  0  0  0
 40 69  1  0  0  0  0
 40 81  2  0  0  0  0
 41 44  1  0  0  0  0
 42 51  1  0  0  0  0
 43 65  1  0  0  0  0
 44 46  1  0  0  0  0
 45 47  1  0  0  0  0
 45 48  1  0  0  0  0
 46 50  1  0  0  0  0
 47 52  1  0  0  0  0
 48 66  1  0  0  0  0
 49 52  1  0  0  0  0
 49 66  1  0  0  0  0
 50 71  1  0  0  0  0
 51 65  1  0  0  0  0
 52 64  1  0  0  0  0
 53 61  1  0  0  0  0
 54 62  1  0  0  0  0
 55 62  1  0  0  0  0
 56 62  1  0  0  0  0
 57 75  1  0  0  0  0
 58 60  1  0  0  0  0
 58 83  1  0  0  0  0
 59 62  1  0  0  0  0
 59 72  1  0  0  0  0
 60 74  1  0  0  0  0
 61 75  1  0  0  0  0
 63 64  1  0  0  0  0
M  CHG  3  73   1  74   1  75   1
M  ISO  4  40 100  58 101  69 100  83 101
M  END
> <Batch ID>
0074

> <Smiles>
CNC(C)C(=O)NC(C(=O)N1Cc2cc([101O:1][101CH2:1]C(N)C(=O)NC(=N)c3cccc([100NH:0][100C:0](=O)N4CCCC(n5nc(-c6ccc(Oc7ccc(F)cc7F)cc6)c(C(N)=O)c5N)C4)c3)ccc2CC1C(=O)NC1CCCc2ccccc21)C(C)(C)C

> <Shape>
0.206

> <Color>
0.050

> <Negative vol penalty>
0.000

$$$$

  -OEChem-04042323443D

 88 97  0     1  0  0  0  0  0999 V2000
  -25.0494  -38.2020   20.8720 C   0  0  0  0  0  0  0  0  0  0  0  0
  -25.7604  -37.2492   20.1494 C   0  0  0  0  0  0  0  0  0  0  0  0
  -24.4076   -8.9178   20.2099 C   0  0  0  0  0  0  0  0  0  0  0  0
  -22.8575  -10.5609   21.0668 C   0  0  0  0  0  0  0  0  0  0  0  0
  -25.8787  -20.6005   18.0691 C   0  0  0  0  0  0  0  0  0  0  0  0
  -24.5385  -37.8831   22.1295 C   0  0  0  0  0  0  0  0  0  0  0  0
  -25.9617  -35.9773   20.6843 C   0  0  0  0  0  0  0  0  0  0  0  0
  -26.5986  -29.1234   18.7006 C   0  0  0  0  0  0  0  0  0  0  0  0
  -26.2239  -19.2686   18.2983 C   0  0  0  0  0  0  0  0  0  0  0  0
  -23.6576   -7.9016   20.8018 C   0  0  0  0  0  0  0  0  0  0  0  0
  -22.1075   -9.5447   21.6588 C   0  0  0  0  0  0  0  0  0  0  0  0
  -27.4514  -28.0316   18.8572 C   0  0  0  0  0  0  0  0  0  0  0  0
  -20.8043   -6.2086   20.1498 C   0  0  0  0  0  0  0  0  0  0  0  0
  -20.5365   -5.0720   19.3869 C   0  0  0  0  0  0  0  0  0  0  0  0
  -26.4546  -27.5686   21.0045 C   0  0  0  0  0  0  0  0  0  0  0  0
  -27.7318  -19.9615   20.0542 C   0  0  0  0  0  0  0  0  0  0  0  0
  -21.6821   -3.7070   21.0183 C   0  0  0  0  0  0  0  0  0  0  0  0
  -24.0075  -10.2475   20.3424 C   0  0  0  0  0  0  0  0  0  0  0  0
  -26.4602  -21.6129   18.8324 C   0  0  0  0  0  0  0  0  0  0  0  0
  -24.6257  -11.8261   18.4362 C   0  0  0  0  0  0  0  0  0  0  0  0
  -24.7253  -36.6036   22.6759 C   0  0  0  0  0  0  0  0  0  0  0  0
  -25.6733  -29.4530   19.7014 C   0  0  0  0  0  0  0  0  0  0  0  0
  -25.4539  -35.6415   21.9508 C   0  0  0  0  0  0  0  0  0  0  0  0
  -25.5894  -28.6635   20.8571 C   0  0  0  0  0  0  0  0  0  0  0  0
  -27.3867  -21.2934   19.8250 C   0  0  0  0  0  0  0  0  0  0  0  0
  -27.1503  -18.9490   19.2909 C   0  0  0  0  0  0  0  0  0  0  0  0
  -22.5076   -8.2150   21.5262 C   0  0  0  0  0  0  0  0  0  0  0  0
  -27.3815  -27.2558   20.0105 C   0  0  0  0  0  0  0  0  0  0  0  0
  -21.5110   -6.0944   21.3470 C   0  0  0  0  0  0  0  0  0  0  0  0
  -20.9754   -3.8212   19.8211 C   0  0  0  0  0  0  0  0  0  0  0  0
  -21.9499   -4.8436   21.7812 C   0  0  0  0  0  0  0  0  0  0  0  0
  -24.7821  -11.2978   19.7317 C   0  0  0  0  0  0  0  0  0  0  0  0
  -25.5963  -12.7931   18.3402 C   0  0  0  0  0  0  0  0  0  0  0  0
  -28.7858  -23.3831   20.1505 C   0  0  0  0  0  0  0  0  0  0  0  0
  -26.0779  -22.9943   18.5670 C   0  0  0  0  0  0  0  0  0  0  0  0
  -23.6868  -11.4743   17.4113 C   0  0  0  0  0  0  0  0  0  0  0  0
  -25.2039  -31.9736   21.5802 C   0  0  0  0  0  0  0  0  0  0  0  0
  -22.5438  -30.3364   22.4552 C   0  0  0  0  0  0  0  0  0  0  0  0
  -20.9520  -27.3303   22.7319 C   0  0  0  0  0  0  0  0  0  0  0  0
  -28.4019  -17.1065   20.4677 C   0  0  0  0  0  0  0  0  0  0  0  0
  -24.1949  -36.3204   24.0591 C   0  0  0  0  0  0  0  0  0  0  0  0
  -24.7421  -30.6179   19.5054 C   0  0  0  0  0  0  0  0  0  0  0  0
  -24.5996  -28.9631   21.9521 C   0  0  0  0  0  0  0  0  0  0  0  0
  -24.1302  -34.8325   24.3938 C   0  0  0  0  0  0  0  0  0  0  0  0
  -29.5084  -13.8461   21.3748 C   0  0  0  0  0  0  0  0  0  0  0  0
  -25.4297  -34.1391   23.9972 C   0  0  0  0  0  0  0  0  0  0  0  0
  -28.3645  -12.9359   20.9216 C   0  0  0  0  0  0  0  0  0  0  0  0
  -28.8894  -23.3320   22.5312 C   0  0  0  0  0  0  0  0  0  0  0  0
  -28.9925  -15.1773   21.9184 C   0  0  0  0  0  0  0  0  0  0  0  0
  -27.8086  -22.3805   22.0551 C   0  0  0  0  0  0  0  0  0  0  0  0
  -26.9394  -14.9931   20.5693 C   0  0  0  0  0  0  0  0  0  0  0  0
  -25.6718  -34.2431   22.4866 C   0  0  1  0  0  0  0  0  0  0  0  0
  -24.1904  -31.1690   20.8167 C   0  0  1  0  0  0  0  0  0  0  0  0
  -27.4129  -13.6662   19.9538 C   0  0  2  0  0  0  0  0  0  0  0  0
  -29.0927  -24.2814   21.3477 C   0  0  1  0  0  0  0  0  0  0  0  0
  -26.3402  -23.5308   17.1915 C   0  0  0  0  0  0  0  0  0  0  0  0
  -30.5209  -24.8184   21.2947 C   0  0  0  0  0  0  0  0  0  0  0  0
  -18.8007  -26.3055   23.5186 C   0  0  0  0  0  0  0  0  0  0  0  0
  -23.4587  -30.6437   25.3498 C   0  0  0  0  0  0  0  0  0  0  0  0
  -21.8418  -28.8389   25.9794 C   0  0  0  0  0  0  0  0  0  0  0  0
  -21.0055  -30.9711   24.9908 C   0  0  0  0  0  0  0  0  0  0  0  0
  -20.3180  -26.3037   20.0295 C   0  0  0  0  0  0  0  0  0  0  0  0
  -28.0872  -25.4386   21.3728 C   0  0  0  0  0  0  0  0  0  1  0  0
  -22.2189  -29.3135   23.5169 C   0  0  1  0  0  0  0  0  0  0  0  0
  -19.5547  -26.8901   22.3343 C   0  0  2  0  0  0  0  0  0  0  0  0
  -22.1513  -29.9371   24.9396 C   0  0  0  0  0  0  0  0  0  0  0  0
  -25.7742  -11.8807   20.4099 N   0  0  0  0  0  0  0  0  0  0  0  0
  -26.2499  -12.7853   19.5373 N   0  0  0  0  0  0  0  0  0  0  0  0
  -27.9951  -22.3130   20.6181 N   0  0  0  0  0  0  0  0  0  0  0  0
  -23.7151  -30.1163   21.7167 N   0  0  0  0  0  0  0  0  0  0  0  0
  -28.1010  -15.8138   20.9463 N   0  0  0  0  0  0  0  0  0  0  0  0
  -25.9460  -13.6408   17.3495 N   0  0  0  0  0  0  0  0  0  0  0  0
  -22.7579  -10.4587   17.6762 N   0  0  0  0  0  0  0  0  0  0  0  0
  -27.5006  -17.5958   19.5229 N   0  0  0  0  0  0  0  0  0  0  0  0
  -24.8433  -33.2932   21.7754 N   0  0  0  0  0  0  0  0  0  0  0  0
  -20.9854  -28.6611   23.0913 N   0  0  0  0  0  0  0  0  0  0  0  0
  -19.6224  -25.8559   21.2635 N   0  3  0  0  0  0  0  0  0  0  0  0
  -29.1442  -23.6465   19.0110 O   0  0  0  0  0  0  0  0  0  0  0  0
  -25.5615  -23.7512   19.3889 O   0  0  0  0  0  0  0  0  0  0  0  0
  -23.6827  -12.0323   16.2879 O   0  0  0  0  0  0  0  0  0  0  0  0
  -26.2359  -31.4366   21.9652 O   0  0  0  0  0  0  0  0  0  0  0  0
  -21.7825  -31.2915   22.2826 O   0  0  0  0  0  0  0  0  0  0  0  0
  -21.9167  -26.5688   22.7279 O   0  0  0  0  0  0  0  0  0  0  0  0
  -29.4016  -17.7223   20.8464 O   0  0  0  0  0  0  0  0  0  0  0  0
  -21.7754   -7.2236   22.1038 O   0  0  0  0  0  0  0  0  0  0  0  0
  -28.2132  -26.1899   20.1661 O   0  0  0  0  0  0  0  0  0  1  0  0
  -20.7169   -2.7297   19.0890 F   0  0  0  0  0  0  0  0  0  0  0  0
  -22.6282   -4.7274   22.9311 F   0  0  0  0  0  0  0  0  0  0  0  0
  1  2  1  0  0  0  0
  1  6  2  0  0  0  0
  2  7  2  0  0  0  0
  3 10  2  0  0  0  0
  3 18  1  0  0  0  0
  4 11  1  0  0  0  0
  4 18  2  0  0  0  0
  5  9  2  0  0  0  0
  5 19  1  0  0  0  0
  6 21  1  0  0  0  0
  7 23  1  0  0  0  0
  8 12  2  0  0  0  0
  8 22  1  0  0  0  0
  9 26  1  0  0  0  0
 10 27  1  0  0  0  0
 11 27  2  0  0  0  0
 12 28  1  0  0  0  0
 13 14  2  0  0  0  0
 13 29  1  0  0  0  0
 14 30  1  0  0  0  0
 15 24  1  0  0  0  0
 15 28  2  0  0  0  0
 16 25  1  0  0  0  0
 16 26  2  0  0  0  0
 17 30  2  0  0  0  0
 17 31  1  0  0  0  0
 18 32  1  0  0  0  0
 19 25  2  0  0  0  0
 19 35  1  0  0  0  0
 20 32  1  0  0  0  0
 20 33  2  0  0  0  0
 20 36  1  0  0  0  0
 21 23  2  0  0  0  0
 21 41  1  0  0  0  0
 22 24  2  0  0  0  0
 22 42  1  0  0  0  0
 23 52  1  0  0  0  0
 24 43  1  0  0  0  0
 25 69  1  0  0  0  0
 26 74  1  0  0  0  0
 27 85  1  0  0  0  0
 28 86  1  0  0  0  0
 29 31  2  0  0  0  0
 29 85  1  0  0  0  0
 30 87  1  0  0  0  0
 31 88  1  0  0  0  0
 32 67  2  0  0  0  0
 33 68  1  0  0  0  0
 33 72  1  0  0  0  0
 34 55  1  0  0  0  0
 34 69  1  0  0  0  0
 34 78  2  0  0  0  0
 35 56  1  0  0  0  0
 35 79  2  0  0  0  0
 36 73  1  0  0  0  0
 36 80  2  0  0  0  0
 37 53  1  0  0  0  0
 37 75  1  0  0  0  0
 37 81  2  0  0  0  0
 38 64  1  0  0  0  0
 38 70  1  0  0  0  0
 38 82  2  0  0  0  0
 39 65  1  0  0  0  0
 39 76  1  0  0  0  0
 39 83  2  0  0  0  0
 40 71  1  0  0  0  0
 40 74  1  0  0  0  0
 40 84  2  0  0  0  0
 41 44  1  0  0  0  0
 42 53  1  0  0  0  0
 43 70  1  0  0  0  0
 44 46  1  0  0  0  0
 45 47  1  0  0  0  0
 45 49  1  0  0  0  0
 46 52  1  0  0  0  0
 47 54  1  0  0  0  0
 48 50  1  0  0  0  0
 48 55  1  0  0  0  0
 49 71  1  0  0  0  0
 50 69  1  0  0  0  0
 51 54  1  0  0  0  0
 51 71  1  0  0  0  0
 52 75  1  0  0  0  0
 53 70  1  0  0  0  0
 54 68  1  0  0  0  0
 55 57  1  0  0  0  0
 55 63  1  0  0  0  0
 58 65  1  0  0  0  0
 59 66  1  0  0  0  0
 60 66  1  0  0  0  0
 61 66  1  0  0  0  0
 62 77  1  0  0  0  0
 63 86  1  0  0  0  0
 64 66  1  0  0  0  0
 64 76  1  0  0  0  0
 65 77  1  0  0  0  0
 67 68  1  0  0  0  0
M  CHG  1  77   1
M  ISO  4  40 100  63 101  74 100  86 101
M  END
> <Batch ID>
0074

> <Smiles>
CNC(C)C(=O)NC(C(=O)N1Cc2cc([101O:1][101CH2:1]C3(C)CCN(c4cc([100NH:0][100C:0](=O)N5CCCC(n6nc(-c7ccc(Oc8ccc(F)cc8F)cc7)c(C(N)=O)c6N)C5)ccc4C(C)=O)C3=O)ccc2CC1C(=O)NC1CCCc2ccccc21)C(C)(C)C

> <Shape>
0.311

> <Color>
0.117

> <Negative vol penalty>
0.000

$$$$

  -OEChem-04042323443D

 84 92  0     1  0  0  0  0  0999 V2000
  -23.2561  -17.7453   31.6861 C   0  0  0  0  0  0  0  0  0  0  0  0
  -24.3957  -18.0800   30.9618 C   0  0  0  0  0  0  0  0  0  0  0  0
  -23.0758   -9.8680   19.9413 C   0  0  0  0  0  0  0  0  0  0  0  0
  -23.8342   -9.8764   22.2352 C   0  0  0  0  0  0  0  0  0  0  0  0
  -32.6500  -17.4938   23.4555 C   0  0  0  0  0  0  0  0  0  0  0  0
  -22.0045  -17.7882   31.0733 C   0  0  0  0  0  0  0  0  0  0  0  0
  -24.2845  -18.4566   29.6238 C   0  0  0  0  0  0  0  0  0  0  0  0
  -27.0822  -22.5290   28.5130 C   0  0  0  0  0  0  0  0  0  0  0  0
  -32.0629  -16.6091   22.5510 C   0  0  0  0  0  0  0  0  0  0  0  0
  -22.3315   -8.7152   20.1916 C   0  0  0  0  0  0  0  0  0  0  0  0
  -23.0898   -8.7236   22.4856 C   0  0  0  0  0  0  0  0  0  0  0  0
  -28.4510  -22.3322   28.3363 C   0  0  0  0  0  0  0  0  0  0  0  0
  -19.8610   -7.9271   23.0865 C   0  0  0  0  0  0  0  0  0  0  0  0
  -19.1033   -7.8882   24.2569 C   0  0  0  0  0  0  0  0  0  0  0  0
  -28.1391  -22.3523   25.9444 C   0  0  0  0  0  0  0  0  0  0  0  0
  -29.8786  -17.4584   23.1380 C   0  0  0  0  0  0  0  0  0  0  0  0
  -20.3437   -5.9510   24.9956 C   0  0  0  0  0  0  0  0  0  0  0  0
  -23.8272  -10.4486   20.9631 C   0  0  0  0  0  0  0  0  0  0  0  0
  -31.8514  -18.3608   24.2014 C   0  0  0  0  0  0  0  0  0  0  0  0
  -24.1698  -12.9735   20.8415 C   0  0  0  0  0  0  0  0  0  0  0  0
  -21.8769  -18.1749   29.7298 C   0  0  0  0  0  0  0  0  0  0  0  0
  -26.2285  -22.6282   27.4050 C   0  0  0  0  0  0  0  0  0  0  0  0
  -23.0302  -18.5034   28.9920 C   0  0  0  0  0  0  0  0  0  0  0  0
  -26.7601  -22.5529   26.1097 C   0  0  0  0  0  0  0  0  0  0  0  0
  -30.6772  -16.5914   22.3922 C   0  0  0  0  0  0  0  0  0  0  0  0
  -22.3384   -8.1430   21.4637 C   0  0  0  0  0  0  0  0  0  0  0  0
  -28.9793  -22.2409   27.0519 C   0  0  0  0  0  0  0  0  0  0  0  0
  -20.8601   -6.9779   22.8706 C   0  0  0  0  0  0  0  0  0  0  0  0
  -19.3446   -6.9002   25.2115 C   0  0  0  0  0  0  0  0  0  0  0  0
  -30.4657  -18.3431   24.0426 C   0  0  0  0  0  0  0  0  0  0  0  0
  -21.1014   -5.9899   23.8251 C   0  0  0  0  0  0  0  0  0  0  0  0
  -24.5968  -11.6391   20.7050 C   0  0  0  0  0  0  0  0  0  0  0  0
  -25.2624  -13.7225   20.4784 C   0  0  0  0  0  0  0  0  0  0  0  0
  -32.4810  -19.2994   25.1656 C   0  0  0  0  0  0  0  0  0  0  0  0
  -22.8991  -13.4900   21.2592 C   0  0  0  0  0  0  0  0  0  0  0  0
  -23.7588  -20.9477   26.3186 C   0  0  0  0  0  0  0  0  0  0  0  0
  -23.5738  -23.3547   24.1518 C   0  0  0  0  0  0  0  0  0  0  0  0
  -25.1562  -25.8694   22.4729 C   0  0  0  0  0  0  0  0  0  0  0  0
  -30.7287  -14.7668   20.6559 C   0  0  0  0  0  0  0  0  0  0  0  0
  -20.5078  -18.1606   29.0972 C   0  0  0  0  0  0  0  0  0  0  0  0
  -24.7580  -22.8672   27.6121 C   0  0  0  0  0  0  0  0  0  0  0  0
  -25.8892  -22.6733   24.8868 C   0  0  0  0  0  0  0  0  0  0  0  0
  -20.4367  -18.9315   27.7816 C   0  0  0  0  0  0  0  0  0  0  0  0
  -29.6152  -12.3515   18.2887 C   0  0  0  0  0  0  0  0  0  0  0  0
  -21.6155  -18.5669   26.8848 C   0  0  0  0  0  0  0  0  0  0  0  0
  -28.1752  -12.0606   18.7175 C   0  0  0  0  0  0  0  0  0  0  0  0
  -30.5296  -12.5810   19.4908 C   0  0  0  0  0  0  0  0  0  0  0  0
  -28.6219  -13.3069   20.8702 C   0  0  0  0  0  0  0  0  0  0  0  0
  -22.9478  -18.9409   27.5457 C   0  0  1  0  0  0  0  0  0  0  0  0
  -23.9092  -22.4393   26.4188 C   0  0  1  0  0  0  0  0  0  0  0  0
  -27.6498  -13.1331   19.6919 C   0  0  2  0  0  0  0  0  0  0  0  0
  -24.7538  -27.6383   20.7390 C   0  0  0  0  0  0  0  0  0  0  0  0
  -32.9536  -19.7976   28.3559 C   0  0  0  0  0  0  0  0  0  0  0  0
  -23.6416  -21.2255   21.9674 C   0  0  0  0  0  0  0  0  0  0  0  0
  -24.1929  -23.0304   20.3222 C   0  0  0  0  0  0  0  0  0  0  0  0
  -22.0262  -23.0900   21.5570 C   0  0  0  0  0  0  0  0  0  0  0  0
  -25.8277  -28.0424   24.3666 C   0  0  0  0  0  0  0  0  0  0  0  0
  -31.0049  -21.3205   27.8920 C   0  0  0  0  0  0  0  0  0  1  0  0
  -24.1702  -23.6151   22.7897 C   0  0  1  0  0  0  0  0  0  0  0  0
  -24.7673  -27.3157   22.2251 C   0  0  2  0  0  0  0  0  0  0  0  0
  -32.1783  -20.5537   27.2849 C   0  0  2  0  0  0  0  0  0  0  0  0
  -23.5242  -22.7360   21.6819 C   0  0  0  0  0  0  0  0  0  0  0  0
  -25.8619  -11.5426   20.2876 N   0  0  0  0  0  0  0  0  0  0  0  0
  -26.2392  -12.8260   20.1586 N   0  0  0  0  0  0  0  0  0  0  0  0
  -24.4570  -22.9001   25.1414 N   0  0  0  0  0  0  0  0  0  0  0  0
  -29.9703  -13.6126   20.3670 N   0  0  0  0  0  0  0  0  0  0  0  0
  -25.4732  -15.0538   20.4045 N   0  0  0  0  0  0  0  0  0  0  0  0
  -21.8868  -12.5813   21.5964 N   0  0  0  0  0  0  0  0  0  0  0  0
  -30.0810  -15.6926   21.4732 N   0  0  0  0  0  0  0  0  0  0  0  0
  -31.7149  -19.6339   26.2709 N   0  0  0  0  0  0  0  0  0  0  0  0
  -23.1863  -20.3638   27.4325 N   0  0  0  0  0  0  0  0  0  0  0  0
  -24.0501  -25.0507   22.5592 N   0  0  0  0  0  0  0  0  0  0  0  0
  -25.7305  -28.2335   22.8966 N   0  3  0  0  0  0  0  0  0  0  0  0
  -33.6055  -19.7347   24.9321 O   0  0  0  0  0  0  0  0  0  0  0  0
  -22.6632  -14.7207   21.3155 O   0  0  0  0  0  0  0  0  0  0  0  0
  -24.1330  -20.3695   25.3050 O   0  0  0  0  0  0  0  0  0  0  0  0
  -22.3701  -23.5542   24.3332 O   0  0  0  0  0  0  0  0  0  0  0  0
  -26.3246  -25.5021   22.5756 O   0  0  0  0  0  0  0  0  0  0  0  0
  -31.8581  -14.9349   20.1890 O   0  0  0  0  0  0  0  0  0  0  0  0
  -21.6120   -7.0183   21.7084 O   0  0  0  0  0  0  0  0  0  0  0  0
  -30.3150  -22.0482   26.8767 O   0  0  0  0  0  0  0  0  0  1  0  0
  -18.6180   -6.8639   26.3361 F   0  0  0  0  0  0  0  0  0  0  0  0
  -29.6883  -19.1717   24.7544 F   0  0  0  0  0  0  0  0  0  0  0  0
  -22.0607   -5.0760   23.6238 F   0  0  0  0  0  0  0  0  0  0  0  0
  1  2  1  0  0  0  0
  1  6  2  0  0  0  0
  2  7  2  0  0  0  0
  3 10  2  0  0  0  0
  3 18  1  0  0  0  0
  4 11  1  0  0  0  0
  4 18  2  0  0  0  0
  5  9  2  0  0  0  0
  5 19  1  0  0  0  0
  6 21  1  0  0  0  0
  7 23  1  0  0  0  0
  8 12  2  0  0  0  0
  8 22  1  0  0  0  0
  9 25  1  0  0  0  0
 10 26  1  0  0  0  0
 11 26  2  0  0  0  0
 12 27  1  0  0  0  0
 13 14  2  0  0  0  0
 13 28  1  0  0  0  0
 14 29  1  0  0  0  0
 15 24  1  0  0  0  0
 15 27  2  0  0  0  0
 16 25  2  0  0  0  0
 16 30  1  0  0  0  0
 17 29  2  0  0  0  0
 17 31  1  0  0  0  0
 18 32  1  0  0  0  0
 19 30  2  0  0  0  0
 19 34  1  0  0  0  0
 20 32  1  0  0  0  0
 20 33  2  0  0  0  0
 20 35  1  0  0  0  0
 21 23  2  0  0  0  0
 21 40  1  0  0  0  0
 22 24  2  0  0  0  0
 22 41  1  0  0  0  0
 23 49  1  0  0  0  0
 24 42  1  0  0  0  0
 25 69  1  0  0  0  0
 26 80  1  0  0  0  0
 27 81  1  0  0  0  0
 28 31  2  0  0  0  0
 28 80  1  0  0  0  0
 29 82  1  0  0  0  0
 30 83  1  0  0  0  0
 31 84  1  0  0  0  0
 32 63  2  0  0  0  0
 33 64  1  0  0  0  0
 33 67  1  0  0  0  0
 34 70  1  0  0  0  0
 34 74  2  0  0  0  0
 35 68  1  0  0  0  0
 35 75  2  0  0  0  0
 36 50  1  0  0  0  0
 36 71  1  0  0  0  0
 36 76  2  0  0  0  0
 37 59  1  0  0  0  0
 37 65  1  0  0  0  0
 37 77  2  0  0  0  0
 38 60  1  0  0  0  0
 38 72  1  0  0  0  0
 38 78  2  0  0  0  0
 39 66  1  0  0  0  0
 39 69  1  0  0  0  0
 39 79  2  0  0  0  0
 40 43  1  0  0  0  0
 41 50  1  0  0  0  0
 42 65  1  0  0  0  0
 43 45  1  0  0  0  0
 44 46  1  0  0  0  0
 44 47  1  0  0  0  0
 45 49  1  0  0  0  0
 46 51  1  0  0  0  0
 47 66  1  0  0  0  0
 48 51  1  0  0  0  0
 48 66  1  0  0  0  0
 49 71  1  0  0  0  0
 50 65  1  0  0  0  0
 51 64  1  0  0  0  0
 52 60  1  0  0  0  0
 53 61  1  0  0  0  0
 54 62  1  0  0  0  0
 55 62  1  0  0  0  0
 56 62  1  0  0  0  0
 57 73  1  0  0  0  0
 58 61  1  0  0  0  0
 58 81  1  0  0  0  0
 59 62  1  0  0  0  0
 59 72  1  0  0  0  0
 60 73  1  0  0  0  0
 61 70  1  0  0  0  0
 63 64  1  0  0  0  0
M  CHG  1  73   1
M  ISO  4  39 100  58 101  69 100  81 101
M  END
> <Batch ID>
0074

> <Smiles>
CNC(C)C(=O)NC(C(=O)N1Cc2cc([101O:1][101CH2:1]C(C)NC(=O)c3ccc([100NH:0][100C:0](=O)N4CCCC(n5nc(-c6ccc(Oc7ccc(F)cc7F)cc6)c(C(N)=O)c5N)C4)cc3F)ccc2CC1C(=O)NC1CCCc2ccccc21)C(C)(C)C

> <Shape>
0.173

> <Color>
0.192

> <Negative vol penalty>
0.000

$$$$

  -OEChem-04042323443D

 84 93  0     1  0  0  0  0  0999 V2000
  -17.8481  -33.4043   23.1422 C   0  0  0  0  0  0  0  0  0  0  0  0
  -19.1386  -33.5724   22.6505 C   0  0  0  0  0  0  0  0  0  0  0  0
  -32.8799  -22.2318   17.3795 C   0  0  0  0  0  0  0  0  0  0  0  0
  -27.1469  -12.6193   20.9537 C   0  0  0  0  0  0  0  0  0  0  0  0
  -27.0764  -12.8792   18.5527 C   0  0  0  0  0  0  0  0  0  0  0  0
  -17.5128  -32.2409   23.8335 C   0  0  0  0  0  0  0  0  0  0  0  0
  -20.0949  -32.5775   22.8509 C   0  0  0  0  0  0  0  0  0  0  0  0
  -25.8051  -29.6081   19.7056 C   0  0  0  0  0  0  0  0  0  0  0  0
  -32.9175  -23.4449   18.0669 C   0  0  0  0  0  0  0  0  0  0  0  0
  -31.7194  -21.4580   17.3932 C   0  0  0  0  0  0  0  0  0  0  0  0
  -26.4762  -11.4015   20.8416 C   0  0  0  0  0  0  0  0  0  0  0  0
  -26.4057  -11.6613   18.4406 C   0  0  0  0  0  0  0  0  0  0  0  0
  -27.1360  -29.2882   19.9707 C   0  0  0  0  0  0  0  0  0  0  0  0
  -24.4636   -8.3958   21.2144 C   0  0  0  0  0  0  0  0  0  0  0  0
  -23.4124   -8.1489   22.0974 C   0  0  0  0  0  0  0  0  0  0  0  0
  -26.4212  -27.2859   21.1106 C   0  0  0  0  0  0  0  0  0  0  0  0
  -30.6341  -23.1104   18.7821 C   0  0  0  0  0  0  0  0  0  0  0  0
  -22.2487  -10.0915   21.2553 C   0  0  0  0  0  0  0  0  0  0  0  0
  -27.4470  -13.3583   19.8093 C   0  0  0  0  0  0  0  0  0  0  0  0
  -29.5313  -14.8259   19.9061 C   0  0  0  0  0  0  0  0  0  0  0  0
  -18.4628  -31.2270   24.0340 C   0  0  0  0  0  0  0  0  0  0  0  0
  -24.7701  -28.7735   20.1513 C   0  0  0  0  0  0  0  0  0  0  0  0
  -19.7723  -31.4000   23.5467 C   0  0  0  0  0  0  0  0  0  0  0  0
  -25.0782  -27.5962   20.8477 C   0  0  0  0  0  0  0  0  0  0  0  0
  -31.7947  -23.8842   18.7683 C   0  0  0  0  0  0  0  0  0  0  0  0
  -30.5965  -21.8973   18.0946 C   0  0  0  0  0  0  0  0  0  0  0  0
  -26.1056  -10.9225   19.5851 C   0  0  0  0  0  0  0  0  0  0  0  0
  -27.4441  -28.1284   20.6758 C   0  0  0  0  0  0  0  0  0  0  0  0
  -24.4073   -9.4907   20.3519 C   0  0  0  0  0  0  0  0  0  0  0  0
  -22.3050   -8.9967   22.1179 C   0  0  0  0  0  0  0  0  0  0  0  0
  -23.2999  -10.3385   20.3723 C   0  0  0  0  0  0  0  0  0  0  0  0
  -28.1393  -14.6166   19.9245 C   0  0  0  0  0  0  0  0  0  0  0  0
  -29.6762  -16.1843   20.0480 C   0  0  0  0  0  0  0  0  0  0  0  0
  -32.1296  -27.7449   20.3170 C   0  0  0  0  0  0  0  0  0  0  0  0
  -30.8945  -27.3200   20.0028 C   0  0  0  0  0  0  0  0  0  0  0  0
  -30.5979  -13.8771   19.7725 C   0  0  0  0  0  0  0  0  0  0  0  0
  -22.3096  -29.1151   22.1344 C   0  0  0  0  0  0  0  0  0  0  0  0
  -21.5473  -26.1443   21.0780 C   0  0  0  0  0  0  0  0  0  0  0  0
  -22.5931  -23.2024   19.7004 C   0  0  0  0  0  0  0  0  0  0  0  0
  -28.2170  -21.3999   18.7554 C   0  0  0  0  0  0  0  0  0  0  0  0
  -18.0666  -30.0078   24.8284 C   0  0  0  0  0  0  0  0  0  0  0  0
  -23.3409  -29.1190   19.8340 C   0  0  0  0  0  0  0  0  0  0  0  0
  -24.0049  -26.6563   21.3303 C   0  0  0  0  0  0  0  0  0  0  0  0
  -33.3122  -26.8291   20.3629 C   0  0  0  0  0  0  0  0  0  0  0  0
  -30.6024  -25.8862   19.6230 C   0  0  0  0  0  0  0  0  0  0  0  0
  -19.0350  -28.8381   24.6726 C   0  0  0  0  0  0  0  0  0  0  0  0
  -26.2921  -19.7497   21.2552 C   0  0  0  0  0  0  0  0  0  0  0  0
  -20.4766  -29.3161   24.8144 C   0  0  0  0  0  0  0  0  0  0  0  0
  -26.7156  -18.2844   21.1303 C   0  0  0  0  0  0  0  0  0  0  0  0
  -32.9122  -25.3556   20.4134 C   0  0  0  0  0  0  0  0  0  0  0  0
  -26.2277  -20.4395   19.8936 C   0  0  0  0  0  0  0  0  0  0  0  0
  -27.8692  -18.8594   18.9565 C   0  0  0  0  0  0  0  0  0  0  0  0
  -20.8307  -30.3327   23.7222 C   0  0  1  0  0  0  0  0  0  0  0  0
  -22.3427  -28.4615   20.7819 C   0  0  1  0  0  0  0  0  0  0  0  0
  -28.0112  -18.1403   20.3080 C   0  0  2  0  0  0  0  0  0  0  0  0
  -21.7473  -20.9487   18.9911 C   0  0  0  0  0  0  0  0  0  0  0  0
  -21.4302  -25.2716   23.9994 C   0  0  0  0  0  0  0  0  0  0  0  0
  -21.5323  -22.8943   23.2208 C   0  0  0  0  0  0  0  0  0  0  0  0
  -19.6105  -24.3403   22.5586 C   0  0  0  0  0  0  0  0  0  0  0  0
  -23.3826  -23.6632   16.8855 C   0  0  0  0  0  0  0  0  0  0  0  0
  -29.7187  -28.2528   19.9930 C   0  0  0  0  0  0  0  0  0  1  0  0
  -21.8781  -24.7372   21.5135 C   0  0  1  0  0  0  0  0  0  0  0  0
  -22.0417  -22.3750   18.5532 C   0  0  2  0  0  0  0  0  0  0  0  0
  -21.1331  -24.3293   22.8158 C   0  0  0  0  0  0  0  0  0  0  0  0
  -27.4492  -15.7513   20.0670 N   0  0  0  0  0  0  0  0  0  0  0  0
  -28.4115  -16.6865   20.1396 N   0  0  0  0  0  0  0  0  0  0  0  0
  -31.8324  -25.0993   19.4561 N   0  0  1  0  0  0  0  0  0  0  0  0
  -22.6225  -27.0409   21.0008 N   0  0  0  0  0  0  0  0  0  0  0  0
  -27.4910  -20.2646   19.1735 N   0  0  0  0  0  0  0  0  0  0  0  0
  -30.7609  -16.9862   20.1023 N   0  0  0  0  0  0  0  0  0  0  0  0
  -30.2725  -12.5207   19.6360 N   0  0  0  0  0  0  0  0  0  0  0  0
  -29.4183  -21.1103   18.1093 N   0  0  0  0  0  0  0  0  0  0  0  0
  -21.0833  -29.6584   22.4669 N   0  0  0  0  0  0  0  0  0  0  0  0
  -21.5944  -23.8784   20.3688 N   0  0  0  0  0  0  0  0  0  0  0  0
  -23.0203  -22.3294   17.4302 N   0  3  0  0  0  0  0  0  0  0  0  0
  -31.8044  -14.2202   19.7907 O   0  0  0  0  0  0  0  0  0  0  0  0
  -23.3212  -29.1243   22.8259 O   0  0  0  0  0  0  0  0  0  0  0  0
  -20.3791  -26.4353   20.8091 O   0  0  0  0  0  0  0  0  0  0  0  0
  -23.7897  -23.2419   19.9781 O   0  0  0  0  0  0  0  0  0  0  0  0
  -27.8167  -22.5451   18.9800 O   0  0  0  0  0  0  0  0  0  0  0  0
  -25.4514   -9.7340   19.4753 O   0  0  0  0  0  0  0  0  0  0  0  0
  -28.7422  -27.8141   20.9365 O   0  0  0  0  0  0  0  0  0  1  0  0
  -21.2950   -8.7586   22.9648 F   0  0  0  0  0  0  0  0  0  0  0  0
  -23.2397  -11.3912   19.5453 F   0  0  0  0  0  0  0  0  0  0  0  0
  1  2  1  0  0  0  0
  1  6  2  0  0  0  0
  2  7  2  0  0  0  0
  3  9  2  0  0  0  0
  3 10  1  0  0  0  0
  4 11  2  0  0  0  0
  4 19  1  0  0  0  0
  5 12  1  0  0  0  0
  5 19  2  0  0  0  0
  6 21  1  0  0  0  0
  7 23  1  0  0  0  0
  8 13  2  0  0  0  0
  8 22  1  0  0  0  0
  9 25  1  0  0  0  0
 10 26  2  0  0  0  0
 11 27  1  0  0  0  0
 12 27  2  0  0  0  0
 13 28  1  0  0  0  0
 14 15  2  0  0  0  0
 14 29  1  0  0  0  0
 15 30  1  0  0  0  0
 16 24  1  0  0  0  0
 16 28  2  0  0  0  0
 17 25  2  0  0  0  0
 17 26  1  0  0  0  0
 18 30  2  0  0  0  0
 18 31  1  0  0  0  0
 19 32  1  0  0  0  0
 20 32  1  0  0  0  0
 20 33  2  0  0  0  0
 20 36  1  0  0  0  0
 21 23  2  0  0  0  0
 21 41  1  0  0  0  0
 22 24  2  0  0  0  0
 22 42  1  0  0  0  0
 23 53  1  0  0  0  0
 24 43  1  0  0  0  0
 25 67  1  0  0  0  0
 26 72  1  0  0  0  0
 27 81  1  0  0  0  0
 28 82  1  0  0  0  0
 29 31  2  0  0  0  0
 29 81  1  0  0  0  0
 30 83  1  0  0  0  0
 31 84  1  0  0  0  0
 32 65  2  0  0  0  0
 33 66  1  0  0  0  0
 33 70  1  0  0  0  0
 34 35  2  0  0  0  0
 34 44  1  0  0  0  0
 35 45  1  0  0  0  0
 35 61  1  0  0  0  0
 36 71  1  0  0  0  0
 36 76  2  0  0  0  0
 37 54  1  0  0  0  0
 37 73  1  0  0  0  0
 37 77  2  0  0  0  0
 38 62  1  0  0  0  0
 38 68  1  0  0  0  0
 38 78  2  0  0  0  0
 39 63  1  0  0  0  0
 39 74  1  0  0  0  0
 39 79  2  0  0  0  0
 40 69  1  0  0  0  0
 40 72  1  0  0  0  0
 40 80  2  0  0  0  0
 41 46  1  0  0  0  0
 42 54  1  0  0  0  0
 43 68  1  0  0  0  0
 44 50  1  0  0  0  0
 45 67  1  0  0  0  0
 46 48  1  0  0  0  0
 47 49  1  0  0  0  0
 47 51  1  0  0  0  0
 48 53  1  0  0  0  0
 49 55  1  0  0  0  0
 50 67  1  0  0  0  0
 51 69  1  0  0  0  0
 52 55  1  0  0  0  0
 52 69  1  0  0  0  0
 53 73  1  0  0  0  0
 54 68  1  0  0  0  0
 55 66  1  0  0  0  0
 56 63  1  0  0  0  0
 57 64  1  0  0  0  0
 58 64  1  0  0  0  0
 59 64  1  0  0  0  0
 60 75  1  0  0  0  0
 61 82  1  0  0  0  0
 62 64  1  0  0  0  0
 62 74  1  0  0  0  0
 63 75  1  0  0  0  0
 65 66  1  0  0  0  0
M  CHG  1  75   1
M  ISO  4  40 100  61 101  72 100  82 101
M  END
> <Batch ID>
0074

> <Smiles>
CNC(C)C(=O)NC(C(=O)N1Cc2cc([101O:1][101CH2:1]C3=CCCN(c4cccc([100NH:0][100C:0](=O)N5CCCC(n6nc(-c7ccc(Oc8ccc(F)cc8F)cc7)c(C(N)=O)c6N)C5)c4)C3)ccc2CC1C(=O)NC1CCCc2ccccc21)C(C)(C)C

> <Shape>
0.261

> <Color>
0.101

> <Negative vol penalty>
0.000

$$$$

  -OEChem-04042323443D

 82 90  0     1  0  0  0  0  0999 V2000
  -26.3159  -38.0838   20.8650 C   0  0  0  0  0  0  0  0  0  0  0  0
  -26.9632  -36.9189   20.4658 C   0  0  0  0  0  0  0  0  0  0  0  0
  -23.9986   -9.4531   22.1302 C   0  0  0  0  0  0  0  0  0  0  0  0
  -24.3466  -11.1334   23.8309 C   0  0  0  0  0  0  0  0  0  0  0  0
  -25.4886  -38.0707   21.9872 C   0  0  0  0  0  0  0  0  0  0  0  0
  -26.7845  -35.7403   21.1893 C   0  0  0  0  0  0  0  0  0  0  0  0
  -26.6104  -30.0403   18.9567 C   0  0  0  0  0  0  0  0  0  0  0  0
  -30.3228  -20.1436   19.3218 C   0  0  0  0  0  0  0  0  0  0  0  0
  -27.9226  -20.4165   19.3642 C   0  0  0  0  0  0  0  0  0  0  0  0
  -30.1641  -18.7606   19.2345 C   0  0  0  0  0  0  0  0  0  0  0  0
  -27.7639  -19.0334   19.2769 C   0  0  0  0  0  0  0  0  0  0  0  0
  -23.5822   -8.5496   23.1079 C   0  0  0  0  0  0  0  0  0  0  0  0
  -23.9301  -10.2299   24.8087 C   0  0  0  0  0  0  0  0  0  0  0  0
  -27.5719  -29.0337   18.8786 C   0  0  0  0  0  0  0  0  0  0  0  0
  -20.7876   -7.9454   24.9130 C   0  0  0  0  0  0  0  0  0  0  0  0
  -19.6432   -7.1915   24.6536 C   0  0  0  0  0  0  0  0  0  0  0  0
  -26.7167  -28.0670   20.9166 C   0  0  0  0  0  0  0  0  0  0  0  0
  -20.9357   -5.1602   24.8550 C   0  0  0  0  0  0  0  0  0  0  0  0
  -24.3809  -10.7450   22.4917 C   0  0  0  0  0  0  0  0  0  0  0  0
  -24.0073  -12.5785   20.7579 C   0  0  0  0  0  0  0  0  0  0  0  0
  -25.2920  -36.8891   22.7192 C   0  0  0  0  0  0  0  0  0  0  0  0
  -25.7003  -30.0740   20.0230 C   0  0  0  0  0  0  0  0  0  0  0  0
  -25.9549  -35.7117   22.3232 C   0  0  0  0  0  0  0  0  0  0  0  0
  -25.7430  -29.0736   21.0045 C   0  0  0  0  0  0  0  0  0  0  0  0
  -29.2021  -20.9716   19.3867 C   0  0  0  0  0  0  0  0  0  0  0  0
  -28.8846  -18.2055   19.2120 C   0  0  0  0  0  0  0  0  0  0  0  0
  -23.5479   -8.9380   24.4472 C   0  0  0  0  0  0  0  0  0  0  0  0
  -27.6270  -28.0485   19.8602 C   0  0  0  0  0  0  0  0  0  0  0  0
  -22.0062   -7.3069   25.1433 C   0  0  0  0  0  0  0  0  0  0  0  0
  -19.7172   -5.7989   24.6247 C   0  0  0  0  0  0  0  0  0  0  0  0
  -22.0802   -5.9143   25.1144 C   0  0  0  0  0  0  0  0  0  0  0  0
  -24.8117  -11.6785   21.4822 C   0  0  0  0  0  0  0  0  0  0  0  0
  -24.8856  -13.2350   19.9308 C   0  0  0  0  0  0  0  0  0  0  0  0
  -28.9423  -24.7077   19.6308 C   0  0  0  0  0  0  0  0  0  0  0  0
  -28.1349  -25.7704   19.7080 C   0  0  0  0  0  0  0  0  0  1  0  0
  -22.5926  -12.8013   20.8266 C   0  0  0  0  0  0  0  0  0  0  0  0
  -28.3620  -23.3355   19.5483 C   0  0  0  0  0  0  0  0  0  0  0  0
  -25.0658  -32.1255   22.3665 C   0  0  0  0  0  0  0  0  0  0  0  0
  -22.6181  -30.0828   22.9654 C   0  0  0  0  0  0  0  0  0  0  0  0
  -21.3417  -26.9300   22.6873 C   0  0  0  0  0  0  0  0  0  0  0  0
  -29.7288  -15.8374   19.0510 C   0  0  0  0  0  0  0  0  0  0  0  0
  -24.4258  -36.9350   23.9530 C   0  0  0  0  0  0  0  0  0  0  0  0
  -24.6520  -31.1513   20.0784 C   0  0  0  0  0  0  0  0  0  0  0  0
  -24.7756  -29.0533   22.1587 C   0  0  0  0  0  0  0  0  0  0  0  0
  -23.9938  -35.5563   24.4456 C   0  0  0  0  0  0  0  0  0  0  0  0
  -29.7402  -12.2821   18.8599 C   0  0  0  0  0  0  0  0  0  0  0  0
  -25.1835  -34.6021   24.4725 C   0  0  0  0  0  0  0  0  0  0  0  0
  -28.3928  -11.8821   19.4655 C   0  0  0  0  0  0  0  0  0  0  0  0
  -30.3474  -13.4882   19.5742 C   0  0  0  0  0  0  0  0  0  0  0  0
  -28.1172  -14.2571   20.2843 C   0  0  0  0  0  0  0  0  0  0  0  0
  -25.7667  -34.4077   23.0676 C   0  0  1  0  0  0  0  0  0  0  0  0
  -24.1047  -31.3807   21.4838 C   0  0  1  0  0  0  0  0  0  0  0  0
  -27.4359  -13.0870   19.5562 C   0  0  2  0  0  0  0  0  0  0  0  0
  -19.3362  -25.5550   23.3075 C   0  0  0  0  0  0  0  0  0  0  0  0
  -23.6197  -29.9244   25.8432 C   0  0  0  0  0  0  0  0  0  0  0  0
  -22.2154  -27.8739   26.1455 C   0  0  0  0  0  0  0  0  0  0  0  0
  -21.1333  -30.0567   25.6098 C   0  0  0  0  0  0  0  0  0  0  0  0
  -20.6979  -26.3791   19.8516 C   0  0  0  0  0  0  0  0  0  0  0  0
  -22.4401  -28.8475   23.8148 C   0  0  1  0  0  0  0  0  0  0  0  0
  -19.9787  -26.4307   22.2430 C   0  0  2  0  0  0  0  0  0  0  0  0
  -22.3717  -29.1768   25.3328 C   0  0  0  0  0  0  0  0  0  0  0  0
  -26.1018  -11.7535   21.1449 N   0  0  0  0  0  0  0  0  0  0  0  0
  -26.1148  -12.7085   20.1994 N   0  0  0  0  0  0  0  0  0  0  0  0
  -23.7732  -30.1315   22.1721 N   0  0  0  0  0  0  0  0  0  0  0  0
  -29.3857  -14.5919   19.6182 N   0  0  0  0  0  0  0  0  0  0  0  0
  -24.7187  -14.2054   19.0073 N   0  0  0  0  0  0  0  0  0  0  0  0
  -21.8395  -12.0405   21.7312 N   0  0  0  0  0  0  0  0  0  0  0  0
  -29.3631  -22.3762   19.4757 N   0  0  0  0  0  0  0  0  0  0  0  0
  -28.7230  -16.8006   19.1234 N   0  0  0  0  0  0  0  0  0  0  0  0
  -24.9418  -33.5002   22.2992 N   0  0  0  0  0  0  0  0  0  0  0  0
  -21.2596  -28.1636   23.2980 N   0  0  0  0  0  0  0  0  0  0  0  0
  -20.1022  -25.6334   20.9901 N   0  3  0  0  0  0  0  0  0  0  0  0
  -22.0111  -13.6384   20.0954 O   0  0  0  0  0  0  0  0  0  0  0  0
  -27.1496  -23.1576   19.5497 O   0  0  0  0  0  0  0  0  0  0  0  0
  -25.8599  -31.4995   23.0587 O   0  0  0  0  0  0  0  0  0  0  0  0
  -21.7604  -30.9687   22.9991 O   0  0  0  0  0  0  0  0  0  0  0  0
  -22.3753  -26.2882   22.5135 O   0  0  0  0  0  0  0  0  0  0  0  0
  -30.8235  -16.0267   18.5146 O   0  0  0  0  0  0  0  0  0  0  0  0
  -23.1414   -8.0568   25.4015 O   0  0  0  0  0  0  0  0  0  0  0  0
  -28.5650  -27.0653   19.7867 O   0  0  0  0  0  0  0  0  0  1  0  0
  -18.6178   -5.0749   24.3771 F   0  0  0  0  0  0  0  0  0  0  0  0
  -23.2478   -5.2951   25.3361 F   0  0  0  0  0  0  0  0  0  0  0  0
  1  2  1  0  0  0  0
  1  5  2  0  0  0  0
  2  6  2  0  0  0  0
  3 12  2  0  0  0  0
  3 19  1  0  0  0  0
  4 13  1  0  0  0  0
  4 19  2  0  0  0  0
  5 21  1  0  0  0  0
  6 23  1  0  0  0  0
  7 14  2  0  0  0  0
  7 22  1  0  0  0  0
  8 10  2  0  0  0  0
  8 25  1  0  0  0  0
  9 11  1  0  0  0  0
  9 25  2  0  0  0  0
 10 26  1  0  0  0  0
 11 26  2  0  0  0  0
 12 27  1  0  0  0  0
 13 27  2  0  0  0  0
 14 28  1  0  0  0  0
 15 16  2  0  0  0  0
 15 29  1  0  0  0  0
 16 30  1  0  0  0  0
 17 24  1  0  0  0  0
 17 28  2  0  0  0  0
 18 30  2  0  0  0  0
 18 31  1  0  0  0  0
 19 32  1  0  0  0  0
 20 32  1  0  0  0  0
 20 33  2  0  0  0  0
 20 36  1  0  0  0  0
 21 23  2  0  0  0  0
 21 42  1  0  0  0  0
 22 24  2  0  0  0  0
 22 43  1  0  0  0  0
 23 51  1  0  0  0  0
 24 44  1  0  0  0  0
 25 68  1  0  0  0  0
 26 69  1  0  0  0  0
 27 79  1  0  0  0  0
 28 80  1  0  0  0  0
 29 31  2  0  0  0  0
 29 79  1  0  0  0  0
 30 81  1  0  0  0  0
 31 82  1  0  0  0  0
 32 62  2  0  0  0  0
 33 63  1  0  0  0  0
 33 66  1  0  0  0  0
 34 35  2  0  0  0  0
 34 37  1  0  0  0  0
 35 80  1  0  0  0  0
 36 67  1  0  0  0  0
 36 73  2  0  0  0  0
 37 68  1  0  0  0  0
 37 74  2  0  0  0  0
 38 52  1  0  0  0  0
 38 70  1  0  0  0  0
 38 75  2  0  0  0  0
 39 59  1  0  0  0  0
 39 64  1  0  0  0  0
 39 76  2  0  0  0  0
 40 60  1  0  0  0  0
 40 71  1  0  0  0  0
 40 77  2  0  0  0  0
 41 65  1  0  0  0  0
 41 69  1  0  0  0  0
 41 78  2  0  0  0  0
 42 45  1  0  0  0  0
 43 52  1  0  0  0  0
 44 64  1  0  0  0  0
 45 47  1  0  0  0  0
 46 48  1  0  0  0  0
 46 49  1  0  0  0  0
 47 51  1  0  0  0  0
 48 53  1  0  0  0  0
 49 65  1  0  0  0  0
 50 53  1  0  0  0  0
 50 65  1  0  0  0  0
 51 70  1  0  0  0  0
 52 64  1  0  0  0  0
 53 63  1  0  0  0  0
 54 60  1  0  0  0  0
 55 61  1  0  0  0  0
 56 61  1  0  0  0  0
 57 61  1  0  0  0  0
 58 72  1  0  0  0  0
 59 61  1  0  0  0  0
 59 71  1  0  0  0  0
 60 72  1  0  0  0  0
 62 63  1  0  0  0  0
M  CHG  1  72   1
M  ISO  4  35 101  41 100  69 100  80 101
M  END
> <Batch ID>
0074

> <Smiles>
CNC(C)C(=O)NC(C(=O)N1Cc2cc([101O:1][101CH:1]=CC(=O)Nc3ccc([100NH:0][100C:0](=O)N4CCCC(n5nc(-c6ccc(Oc7ccc(F)cc7F)cc6)c(C(N)=O)c5N)C4)cc3)ccc2CC1C(=O)NC1CCCc2ccccc21)C(C)(C)C

> <Shape>
0.335

> <Color>
0.110

> <Negative vol penalty>
0.000

$$$$

  -OEChem-04042323443D

 87 96  0     1  0  0  0  0  0999 V2000
  -24.3348   -7.4146   24.5607 C   0  0  0  0  0  0  0  0  0  0  0  0
  -25.4578   -8.2104   24.3585 C   0  0  0  0  0  0  0  0  0  0  0  0
  -21.9186  -29.4646   19.9963 C   0  0  0  0  0  0  0  0  0  0  0  0
  -22.2560  -28.2373   22.0499 C   0  0  0  0  0  0  0  0  0  0  0  0
  -23.2634   -7.4837   23.6711 C   0  0  0  0  0  0  0  0  0  0  0  0
  -25.5105   -9.0752   23.2658 C   0  0  0  0  0  0  0  0  0  0  0  0
  -28.1733  -14.5863   23.0577 C   0  0  0  0  0  0  0  0  0  0  0  0
  -30.0220  -21.6942   23.3925 C   0  0  0  0  0  0  0  0  0  0  0  0
  -29.3144  -22.7058   24.0417 C   0  0  0  0  0  0  0  0  0  0  0  0
  -20.5632  -29.1365   20.0229 C   0  0  0  0  0  0  0  0  0  0  0  0
  -20.9005  -27.9093   22.0765 C   0  0  0  0  0  0  0  0  0  0  0  0
  -29.4110  -15.0124   22.5780 C   0  0  0  0  0  0  0  0  0  0  0  0
  -17.9930  -29.4081   22.9254 C   0  0  0  0  0  0  0  0  0  0  0  0
  -17.3203  -29.5372   24.1405 C   0  0  0  0  0  0  0  0  0  0  0  0
  -28.3803  -15.6328   20.4871 C   0  0  0  0  0  0  0  0  0  0  0  0
  -30.1647  -23.0667   21.4093 C   0  0  0  0  0  0  0  0  0  0  0  0
  -16.7868  -27.1812   24.0954 C   0  0  0  0  0  0  0  0  0  0  0  0
  -22.7651  -29.0149   21.0098 C   0  0  0  0  0  0  0  0  0  0  0  0
  -24.7786  -30.4825   21.5570 C   0  0  0  0  0  0  0  0  0  0  0  0
  -23.2990   -8.3568   22.5724 C   0  0  0  0  0  0  0  0  0  0  0  0
  -27.0298  -14.6702   22.2504 C   0  0  0  0  0  0  0  0  0  0  0  0
  -24.4392   -9.1551   22.3600 C   0  0  0  0  0  0  0  0  0  0  0  0
  -27.1287  -15.2094   20.9598 C   0  0  0  0  0  0  0  0  0  0  0  0
  -30.4472  -21.8747   22.0763 C   0  0  0  0  0  0  0  0  0  0  0  0
  -29.0318  -23.8979   23.3748 C   0  0  0  0  0  0  0  0  0  0  0  0
  -29.4570  -24.0783   22.0585 C   0  0  0  0  0  0  0  0  0  0  0  0
  -20.0541  -28.3589   21.0630 C   0  0  0  0  0  0  0  0  0  0  0  0
  -29.5152  -15.5331   21.2914 C   0  0  0  0  0  0  0  0  0  0  0  0
  -18.0626  -28.1655   22.2953 C   0  0  0  0  0  0  0  0  0  0  0  0
  -16.7172  -28.4238   24.7255 C   0  0  0  0  0  0  0  0  0  0  0  0
  -17.4595  -27.0521   22.8803 C   0  0  0  0  0  0  0  0  0  0  0  0
  -24.1655  -29.3530   20.9825 C   0  0  0  0  0  0  0  0  0  0  0  0
  -26.1109  -30.3410   21.2546 C   0  0  0  0  0  0  0  0  0  0  0  0
  -32.5499  -19.7434   19.9811 C   0  0  0  0  0  0  0  0  0  0  0  0
  -32.1005  -21.0960   20.4438 C   0  0  0  0  0  0  0  0  0  0  0  0
  -24.1960  -31.5629   22.2979 C   0  0  0  0  0  0  0  0  0  0  0  0
  -24.9774  -12.5650   21.0424 C   0  0  0  0  0  0  0  0  0  0  0  0
  -23.4068  -15.2349   20.0794 C   0  0  0  0  0  0  0  0  0  0  0  0
  -23.5471  -18.5510   19.2854 C   0  0  0  0  0  0  0  0  0  0  0  0
  -29.5428  -25.5995   20.0523 C   0  0  0  0  0  0  0  0  0  0  0  0
  -22.1366   -8.3622   21.6115 C   0  0  0  0  0  0  0  0  0  0  0  0
  -25.6972  -14.2310   22.7923 C   0  0  0  0  0  0  0  0  0  0  0  0
  -25.9275  -15.3398   20.0606 C   0  0  0  0  0  0  0  0  0  0  0  0
  -22.1148   -9.5779   20.6886 C   0  0  0  0  0  0  0  0  0  0  0  0
  -29.0222  -28.4358   17.9638 C   0  0  0  0  0  0  0  0  0  0  0  0
  -23.4996   -9.8250   20.0985 C   0  0  0  0  0  0  0  0  0  0  0  0
  -27.7770  -29.0990   18.5569 C   0  0  0  0  0  0  0  0  0  0  0  0
  -28.9391  -26.9118   18.0303 C   0  0  0  0  0  0  0  0  0  0  0  0
  -30.9901  -19.4469   21.7119 C   0  0  0  0  0  0  0  0  0  0  0  0
  -27.4052  -27.0265   19.9546 C   0  0  0  0  0  0  0  0  0  0  0  0
  -24.5235  -10.1237   21.2003 C   0  0  1  0  0  0  0  0  0  0  0  0
  -31.7023  -18.6735   20.5989 C   0  0  2  0  0  0  0  0  0  0  0  0
  -24.6914  -13.8863   21.6982 C   0  0  1  0  0  0  0  0  0  0  0  0
  -27.4712  -28.5625   19.9691 C   0  0  2  0  0  0  0  0  0  0  0  0
  -22.1089  -20.4505   18.4975 C   0  0  0  0  0  0  0  0  0  0  0  0
  -23.4347  -14.0811   17.2549 C   0  0  0  0  0  0  0  0  0  0  0  0
  -22.8721  -16.3631   16.3922 C   0  0  0  0  0  0  0  0  0  0  0  0
  -21.2864  -15.1802   17.9117 C   0  0  0  0  0  0  0  0  0  0  0  0
  -24.0815  -20.1243   21.7345 C   0  0  0  0  0  0  0  0  0  0  0  0
  -32.5249  -17.5047   21.1108 C   0  0  0  0  0  0  0  0  0  0  0  0
  -31.6553  -16.4496   21.7772 C   0  0  0  0  0  0  0  0  0  1  0  0
  -23.4415  -16.1109   18.8505 C   0  0  1  0  0  0  0  0  0  0  0  0
  -22.6810  -19.7249   19.7054 C   0  0  2  0  0  0  0  0  0  0  0  0
  -22.7819  -15.4297   17.6183 C   0  0  0  0  0  0  0  0  0  0  0  0
  -25.0367  -28.5530   20.3620 N   0  0  0  0  0  0  0  0  0  0  0  0
  -26.2108  -29.1807   20.5447 N   0  0  0  0  0  0  0  0  0  0  0  0
  -31.1551  -20.8676   21.4306 N   0  0  0  0  0  0  0  0  0  0  0  0
  -24.6479  -14.8908   20.6337 N   0  0  0  0  0  0  0  0  0  0  0  0
  -28.6513  -26.4763   19.3986 N   0  0  0  0  0  0  0  0  0  0  0  0
  -28.3118  -24.9082   24.0510 N   0  0  0  0  0  0  0  0  0  0  0  0
  -27.1950  -31.0972   21.5292 N   0  0  0  0  0  0  0  0  0  0  0  0
  -22.8119  -31.5523   22.5180 N   0  0  0  0  0  0  0  0  0  0  0  0
  -29.1823  -25.2808   21.3611 N   0  0  0  0  0  0  0  0  0  0  0  0
  -24.3809  -11.4862   21.6669 N   0  0  0  0  0  0  0  0  0  0  0  0
  -22.8261  -17.3768   19.2341 N   0  0  0  0  0  0  0  0  0  0  0  0
  -23.4789  -20.6979   20.5038 N   0  3  0  0  0  0  0  0  0  0  0  0
  -33.4617  -19.6178   19.1887 O   0  0  0  0  0  0  0  0  0  0  0  0
  -32.5510  -22.1209   19.9758 O   0  0  0  0  0  0  0  0  0  0  0  0
  -24.8802  -32.5182   22.7372 O   0  0  0  0  0  0  0  0  0  0  0  0
  -25.6854  -12.5272   20.0429 O   0  0  0  0  0  0  0  0  0  0  0  0
  -22.3184  -14.8752   20.5352 O   0  0  0  0  0  0  0  0  0  0  0  0
  -24.7429  -18.6650   19.0252 O   0  0  0  0  0  0  0  0  0  0  0  0
  -30.5661  -25.1851   19.5017 O   0  0  0  0  0  0  0  0  0  0  0  0
  -18.7315  -28.0388   21.0894 O   0  0  0  0  0  0  0  0  0  0  0  0
  -30.7222  -15.9492   20.8205 O   0  0  0  0  0  0  0  0  0  1  0  0
  -16.0726  -28.5476   25.8931 F   0  0  0  0  0  0  0  0  0  0  0  0
  -17.5240  -25.8556   22.2803 F   0  0  0  0  0  0  0  0  0  0  0  0
  1  2  1  0  0  0  0
  1  5  2  0  0  0  0
  2  6  2  0  0  0  0
  3 10  2  0  0  0  0
  3 18  1  0  0  0  0
  4 11  1  0  0  0  0
  4 18  2  0  0  0  0
  5 20  1  0  0  0  0
  6 22  1  0  0  0  0
  7 12  2  0  0  0  0
  7 21  1  0  0  0  0
  8  9  2  0  0  0  0
  8 24  1  0  0  0  0
  9 25  1  0  0  0  0
 10 27  1  0  0  0  0
 11 27  2  0  0  0  0
 12 28  1  0  0  0  0
 13 14  2  0  0  0  0
 13 29  1  0  0  0  0
 14 30  1  0  0  0  0
 15 23  1  0  0  0  0
 15 28  2  0  0  0  0
 16 24  2  0  0  0  0
 16 26  1  0  0  0  0
 17 30  2  0  0  0  0
 17 31  1  0  0  0  0
 18 32  1  0  0  0  0
 19 32  1  0  0  0  0
 19 33  2  0  0  0  0
 19 36  1  0  0  0  0
 20 22  2  0  0  0  0
 20 41  1  0  0  0  0
 21 23  2  0  0  0  0
 21 42  1  0  0  0  0
 22 51  1  0  0  0  0
 23 43  1  0  0  0  0
 24 67  1  0  0  0  0
 25 26  2  0  0  0  0
 25 70  1  0  0  0  0
 26 73  1  0  0  0  0
 27 84  1  0  0  0  0
 28 85  1  0  0  0  0
 29 31  2  0  0  0  0
 29 84  1  0  0  0  0
 30 86  1  0  0  0  0
 31 87  1  0  0  0  0
 32 65  2  0  0  0  0
 33 66  1  0  0  0  0
 33 71  1  0  0  0  0
 34 35  1  0  0  0  0
 34 52  1  0  0  0  0
 34 77  2  0  0  0  0
 35 67  1  0  0  0  0
 35 78  2  0  0  0  0
 36 72  1  0  0  0  0
 36 79  2  0  0  0  0
 37 53  1  0  0  0  0
 37 74  1  0  0  0  0
 37 80  2  0  0  0  0
 38 62  1  0  0  0  0
 38 68  1  0  0  0  0
 38 81  2  0  0  0  0
 39 63  1  0  0  0  0
 39 75  1  0  0  0  0
 39 82  2  0  0  0  0
 40 69  1  0  0  0  0
 40 73  1  0  0  0  0
 40 83  2  0  0  0  0
 41 44  1  0  0  0  0
 42 53  1  0  0  0  0
 43 68  1  0  0  0  0
 44 46  1  0  0  0  0
 45 47  1  0  0  0  0
 45 48  1  0  0  0  0
 46 51  1  0  0  0  0
 47 54  1  0  0  0  0
 48 69  1  0  0  0  0
 49 52  1  0  0  0  0
 49 67  1  0  0  0  0
 50 54  1  0  0  0  0
 50 69  1  0  0  0  0
 51 74  1  0  0  0  0
 52 60  1  0  0  0  0
 53 68  1  0  0  0  0
 54 66  1  0  0  0  0
 55 63  1  0  0  0  0
 56 64  1  0  0  0  0
 57 64  1  0  0  0  0
 58 64  1  0  0  0  0
 59 76  1  0  0  0  0
 60 61  1  0  0  0  0
 61 85  1  0  0  0  0
 62 64  1  0  0  0  0
 62 75  1  0  0  0  0
 63 76  1  0  0  0  0
 65 66  1  0  0  0  0
M  CHG  1  76   1
M  ISO  4  40 100  61 101  73 100  85 101
M  END
> <Batch ID>
0074

> <Smiles>
CNC(C)C(=O)NC(C(=O)N1Cc2cc([101O:1][101CH2:1]CC3CN(c4ccc(N)c([100NH:0][100C:0](=O)N5CCCC(n6nc(-c7ccc(Oc8ccc(F)cc8F)cc7)c(C(N)=O)c6N)C5)c4)C(=O)C3=O)ccc2CC1C(=O)NC1CCCc2ccccc21)C(C)(C)C

> <Shape>
0.256

> <Color>
0.074

> <Negative vol penalty>
0.000

$$$$

  -OEChem-04042323443D

 90 99  0     1  0  0  0  0  0999 V2000
  -19.5096  -23.9990   21.6364 C   0  0  0  0  0  0  0  0  0  0  0  0
  -20.4991  -24.5163   20.8064 C   0  0  0  0  0  0  0  0  0  0  0  0
  -25.2844  -21.1859   21.5929 C   0  0  0  0  0  0  0  0  0  0  0  0
  -25.0439  -20.4209   23.8719 C   0  0  0  0  0  0  0  0  0  0  0  0
  -28.3980  -21.8439   19.5230 C   0  0  0  0  0  0  0  0  0  0  0  0
  -28.9840  -20.9389   17.3609 C   0  0  0  0  0  0  0  0  0  0  0  0
  -18.7647  -24.8539   22.4477 C   0  0  0  0  0  0  0  0  0  0  0  0
  -20.7434  -25.8890   20.7865 C   0  0  0  0  0  0  0  0  0  0  0  0
  -25.6862  -26.9843   20.9089 C   0  0  0  0  0  0  0  0  0  0  0  0
  -29.0350  -20.7703   20.1451 C   0  0  0  0  0  0  0  0  0  0  0  0
  -29.6211  -19.8652   17.9830 C   0  0  0  0  0  0  0  0  0  0  0  0
  -24.9943  -22.4882   21.9994 C   0  0  0  0  0  0  0  0  0  0  0  0
  -24.7538  -21.7233   24.2784 C   0  0  0  0  0  0  0  0  0  0  0  0
  -26.3983  -26.8476   19.7181 C   0  0  0  0  0  0  0  0  0  0  0  0
  -26.4619  -24.5633   24.9395 C   0  0  0  0  0  0  0  0  0  0  0  0
  -27.0915  -25.0368   26.0906 C   0  0  0  0  0  0  0  0  0  0  0  0
  -26.2566  -29.2299   19.3669 C   0  0  0  0  0  0  0  0  0  0  0  0
  -24.9367  -25.3808   27.1277 C   0  0  0  0  0  0  0  0  0  0  0  0
  -25.3092  -20.1522   22.5291 C   0  0  0  0  0  0  0  0  0  0  0  0
  -28.3724  -21.9282   18.1309 C   0  0  0  0  0  0  0  0  0  0  0  0
  -24.8948  -18.0278   21.1790 C   0  0  0  0  0  0  0  0  0  0  0  0
  -19.0067  -26.2367   22.4449 C   0  0  0  0  0  0  0  0  0  0  0  0
  -25.2437  -28.2456   21.3328 C   0  0  0  0  0  0  0  0  0  0  0  0
  -20.0002  -26.7633   21.5976 C   0  0  0  0  0  0  0  0  0  0  0  0
  -25.5412  -29.3803   20.5647 C   0  0  0  0  0  0  0  0  0  0  0  0
  -29.6466  -19.7810   19.3751 C   0  0  0  0  0  0  0  0  0  0  0  0
  -24.7290  -22.7570   23.3421 C   0  0  0  0  0  0  0  0  0  0  0  0
  -26.6811  -27.9701   18.9454 C   0  0  0  0  0  0  0  0  0  0  0  0
  -25.0697  -24.4987   24.8824 C   0  0  0  0  0  0  0  0  0  0  0  0
  -26.3289  -25.4454   27.1847 C   0  0  0  0  0  0  0  0  0  0  0  0
  -24.3071  -24.9074   25.9765 C   0  0  0  0  0  0  0  0  0  0  0  0
  -25.6082  -18.8065   22.1098 C   0  0  0  0  0  0  0  0  0  0  0  0
  -25.5778  -16.8371   21.1324 C   0  0  0  0  0  0  0  0  0  0  0  0
  -31.5293  -17.7689   21.8769 C   0  0  0  0  0  0  0  0  0  0  0  0
  -30.8958  -18.7740   21.2557 C   0  0  0  0  0  0  0  0  0  0  0  0
  -27.6978  -23.0653   17.4717 C   0  0  0  0  0  0  0  0  0  0  0  0
  -23.7199  -18.3519   20.4239 C   0  0  0  0  0  0  0  0  0  0  0  0
  -31.2849  -15.4330   22.3852 C   0  0  0  0  0  0  0  0  0  0  0  0
  -22.4011  -29.5575   21.8824 C   0  0  0  0  0  0  0  0  0  0  0  0
  -24.1894  -32.0420   22.9555 C   0  0  0  0  0  0  0  0  0  0  0  0
  -27.1664  -33.7094   22.8919 C   0  0  0  0  0  0  0  0  0  0  0  0
  -27.6166  -25.5333   17.1912 C   0  0  0  0  0  0  0  0  0  0  0  0
  -18.1437  -27.1263   23.3043 C   0  0  0  0  0  0  0  0  0  0  0  0
  -24.4998  -28.3796   22.6332 C   0  0  0  0  0  0  0  0  0  0  0  0
  -25.1063  -30.7594   20.9859 C   0  0  0  0  0  0  0  0  0  0  0  0
  -18.7192  -28.5264   23.5017 C   0  0  0  0  0  0  0  0  0  0  0  0
  -28.3284  -13.9823   23.7975 C   0  0  0  0  0  0  0  0  0  0  0  0
  -19.1931  -29.1013   22.1706 C   0  0  0  0  0  0  0  0  0  0  0  0
  -27.2361  -14.9980   23.4650 C   0  0  0  0  0  0  0  0  0  0  0  0
  -30.5458  -16.2273   20.1498 C   0  0  0  0  0  0  0  0  0  0  0  0
  -29.6600  -14.6686   24.0852 C   0  0  0  0  0  0  0  0  0  0  0  0
  -30.4488  -17.4481   19.2221 C   0  0  0  0  0  0  0  0  0  0  0  0
  -29.0355  -16.5898   22.6567 C   0  0  0  0  0  0  0  0  0  0  0  0
  -20.3117  -28.2439   21.5664 C   0  0  1  0  0  0  0  0  0  0  0  0
  -23.6526  -29.6460   22.7092 C   0  0  1  0  0  0  0  0  0  0  0  0
  -27.6811  -15.9364   22.3293 C   0  0  2  0  0  0  0  0  0  0  0  0
  -31.5995  -16.3932   21.2658 C   0  0  1  0  0  0  0  0  0  0  0  0
  -33.0141  -16.1162   20.7497 C   0  0  0  0  0  0  0  0  0  0  0  0
  -28.3151  -35.7267   23.8450 C   0  0  0  0  0  0  0  0  0  0  0  0
  -29.4367  -27.1868   16.7666 C   0  0  0  0  0  0  0  0  0  0  0  0
  -22.6143  -33.8344   21.0538 C   0  0  0  0  0  0  0  0  0  0  0  0
  -24.3901  -35.5765   21.3363 C   0  0  0  0  0  0  0  0  0  0  0  0
  -23.0517  -34.8316   23.3052 C   0  0  0  0  0  0  0  0  0  0  0  0
  -29.2458  -32.0540   24.1937 C   0  0  0  0  0  0  0  0  0  0  0  0
  -24.7895  -33.2769   22.3280 C   0  0  1  0  0  0  0  0  0  0  0  0
  -28.0487  -34.2383   24.0082 C   0  0  2  0  0  0  0  0  0  0  0  0
  -28.3183  -26.7710   17.7054 C   0  0  1  0  0  0  0  0  0  1  0  0
  -23.7181  -34.3538   21.9967 C   0  0  0  0  0  0  0  0  0  0  0  0
  -26.6634  -18.1644   22.6180 N   0  0  0  0  0  0  0  0  0  0  0  0
  -26.6180  -16.9696   22.0044 N   0  0  0  0  0  0  0  0  0  0  0  0
  -30.2948  -18.6879   20.0085 N   0  0  0  0  0  0  0  0  0  0  0  0
  -30.0367  -15.5682   22.9933 N   0  0  0  0  0  0  0  0  0  0  0  0
  -24.3763  -30.8379   22.2620 N   0  0  0  0  0  0  0  0  0  0  0  0
  -25.3839  -15.7000   20.4310 N   0  0  0  0  0  0  0  0  0  0  0  0
  -22.4667  -18.0627   20.9810 N   0  0  0  0  0  0  0  0  0  0  0  0
  -28.1425  -24.3019   17.7349 N   0  0  0  0  0  0  0  0  0  0  0  0
  -21.5689  -28.5112   22.2317 N   0  0  0  0  0  0  0  0  0  0  0  0
  -25.8325  -33.7327   23.2406 N   0  0  0  0  0  0  0  0  0  0  0  0
  -26.6826  -22.7939   16.6523 N   0  3  0  0  0  0  0  0  0  0  0  0
  -29.3571  -33.5248   24.0166 N   0  3  0  0  0  0  0  0  0  0  0  0
  -23.7798  -18.8671   19.2817 O   0  0  0  0  0  0  0  0  0  0  0  0
  -32.1235  -14.5870   22.7062 O   0  0  0  0  0  0  0  0  0  0  0  0
  -22.2043  -30.3787   20.9943 O   0  0  0  0  0  0  0  0  0  0  0  0
  -23.5833  -32.1409   24.0254 O   0  0  0  0  0  0  0  0  0  0  0  0
  -27.6152  -33.3183   21.8167 O   0  0  0  0  0  0  0  0  0  0  0  0
  -26.6763  -25.5373   16.4089 O   0  0  0  0  0  0  0  0  0  0  0  0
  -24.4461  -24.0278   23.7392 O   0  0  0  0  0  0  0  0  0  0  0  0
  -27.3754  -27.8394   17.7824 O   0  0  0  0  0  0  0  0  0  1  0  0
  -26.9337  -25.8986   28.2906 F   0  0  0  0  0  0  0  0  0  0  0  0
  -22.9693  -24.8465   25.9281 F   0  0  0  0  0  0  0  0  0  0  0  0
  1  2  1  0  0  0  0
  1  7  2  0  0  0  0
  2  8  2  0  0  0  0
  3 12  2  0  0  0  0
  3 19  1  0  0  0  0
  4 13  1  0  0  0  0
  4 19  2  0  0  0  0
  5 10  2  0  0  0  0
  5 20  1  0  0  0  0
  6 11  1  0  0  0  0
  6 20  2  0  0  0  0
  7 22  1  0  0  0  0
  8 24  1  0  0  0  0
  9 14  2  0  0  0  0
  9 23  1  0  0  0  0
 10 26  1  0  0  0  0
 11 26  2  0  0  0  0
 12 27  1  0  0  0  0
 13 27  2  0  0  0  0
 14 28  1  0  0  0  0
 15 16  2  0  0  0  0
 15 29  1  0  0  0  0
 16 30  1  0  0  0  0
 17 25  1  0  0  0  0
 17 28  2  0  0  0  0
 18 30  2  0  0  0  0
 18 31  1  0  0  0  0
 19 32  1  0  0  0  0
 20 36  1  0  0  0  0
 21 32  1  0  0  0  0
 21 33  2  0  0  0  0
 21 37  1  0  0  0  0
 22 24  2  0  0  0  0
 22 43  1  0  0  0  0
 23 25  2  0  0  0  0
 23 44  1  0  0  0  0
 24 54  1  0  0  0  0
 25 45  1  0  0  0  0
 26 71  1  0  0  0  0
 27 87  1  0  0  0  0
 28 88  1  0  0  0  0
 29 31  2  0  0  0  0
 29 87  1  0  0  0  0
 30 89  1  0  0  0  0
 31 90  1  0  0  0  0
 32 69  2  0  0  0  0
 33 70  1  0  0  0  0
 33 74  1  0  0  0  0
 34 35  2  0  0  0  0
 34 57  1  0  0  0  0
 35 71  1  0  0  0  0
 36 76  1  0  0  0  0
 36 79  2  0  0  0  0
 37 75  1  0  0  0  0
 37 81  2  0  0  0  0
 38 57  1  0  0  0  0
 38 72  1  0  0  0  0
 38 82  2  0  0  0  0
 39 55  1  0  0  0  0
 39 77  1  0  0  0  0
 39 83  2  0  0  0  0
 40 65  1  0  0  0  0
 40 73  1  0  0  0  0
 40 84  2  0  0  0  0
 41 66  1  0  0  0  0
 41 78  1  0  0  0  0
 41 85  2  0  0  0  0
 42 67  1  0  0  0  0
 42 76  1  0  0  0  0
 42 86  2  0  0  0  0
 43 46  1  0  0  0  0
 44 55  1  0  0  0  0
 45 73  1  0  0  0  0
 46 48  1  0  0  0  0
 47 49  1  0  0  0  0
 47 51  1  0  0  0  0
 48 54  1  0  0  0  0
 49 56  1  0  0  0  0
 50 52  1  0  0  0  0
 50 57  1  0  0  0  0
 51 72  1  0  0  0  0
 52 71  1  0  0  0  0
 53 56  1  0  0  0  0
 53 72  1  0  0  0  0
 54 77  1  0  0  0  0
 55 73  1  0  0  0  0
 56 70  1  0  0  0  0
 57 58  1  0  0  0  0
 59 66  1  0  0  0  0
 60 67  1  0  0  0  0
 61 68  1  0  0  0  0
 62 68  1  0  0  0  0
 63 68  1  0  0  0  0
 64 80  1  0  0  0  0
 65 68  1  0  0  0  0
 65 78  1  0  0  0  0
 66 80  1  0  0  0  0
 67 88  1  0  0  0  0
 69 70  1  0  0  0  0
M  CHG  2  79   1  80   1
M  ISO  4  38 100  57 100  67 101  88 101
M  END
> <Batch ID>
0074

> <Smiles>
CNC(C)C(=O)NC(C(=O)N1Cc2cc([101O:1][101CH:1](C)C(=O)NC(=N)c3ccc(N4C=C[100C:0](C)([100C:0](=O)N5CCCC(n6nc(-c7ccc(Oc8ccc(F)cc8F)cc7)c(C(N)=O)c6N)C5)CC4)cc3)ccc2CC1C(=O)NC1CCCc2ccccc21)C(C)(C)C

> <Shape>
0.206

> <Color>
0.111

> <Negative vol penalty>
0.000

$$$$

  -OEChem-04042323443D

 83 91  0     1  0  0  0  0  0999 V2000
  -23.5153   -7.0324   23.5408 C   0  0  0  0  0  0  0  0  0  0  0  0
  -24.1775   -7.8551   22.6353 C   0  0  0  0  0  0  0  0  0  0  0  0
  -24.9108  -30.9433   21.0497 C   0  0  0  0  0  0  0  0  0  0  0  0
  -24.8540  -29.2426   22.7648 C   0  0  0  0  0  0  0  0  0  0  0  0
  -29.5285  -20.0581   19.2024 C   0  0  0  0  0  0  0  0  0  0  0  0
  -27.7149  -18.8667   18.1402 C   0  0  0  0  0  0  0  0  0  0  0  0
  -22.1344   -7.1419   23.6997 C   0  0  0  0  0  0  0  0  0  0  0  0
  -23.4590   -8.7871   21.8872 C   0  0  0  0  0  0  0  0  0  0  0  0
  -25.7178  -13.3172   21.7405 C   0  0  0  0  0  0  0  0  0  0  0  0
  -28.9036  -21.2703   18.9099 C   0  0  0  0  0  0  0  0  0  0  0  0
  -27.0899  -20.0789   17.8476 C   0  0  0  0  0  0  0  0  0  0  0  0
  -24.2631  -31.8311   21.9086 C   0  0  0  0  0  0  0  0  0  0  0  0
  -24.2063  -30.1305   23.6238 C   0  0  0  0  0  0  0  0  0  0  0  0
  -26.7977  -13.4623   20.8707 C   0  0  0  0  0  0  0  0  0  0  0  0
  -22.9473  -34.6602   23.7741 C   0  0  0  0  0  0  0  0  0  0  0  0
  -23.4388  -35.9633   23.8509 C   0  0  0  0  0  0  0  0  0  0  0  0
  -25.3540  -14.5422   19.2680 C   0  0  0  0  0  0  0  0  0  0  0  0
  -25.5722  -35.1144   24.6025 C   0  0  0  0  0  0  0  0  0  0  0  0
  -25.2062  -29.6490   21.4778 C   0  0  0  0  0  0  0  0  0  0  0  0
  -28.9342  -18.8563   18.8175 C   0  0  0  0  0  0  0  0  0  0  0  0
  -27.2629  -28.5432   20.4506 C   0  0  0  0  0  0  0  0  0  0  0  0
  -21.4000   -8.0824   22.9602 C   0  0  0  0  0  0  0  0  0  0  0  0
  -24.4434  -13.7744   21.3754 C   0  0  0  0  0  0  0  0  0  0  0  0
  -22.0669   -8.9084   22.0353 C   0  0  0  0  0  0  0  0  0  0  0  0
  -24.2601  -14.4039   20.1359 C   0  0  0  0  0  0  0  0  0  0  0  0
  -27.6842  -21.2807   18.2325 C   0  0  0  0  0  0  0  0  0  0  0  0
  -23.9109  -31.4248   23.1956 C   0  0  0  0  0  0  0  0  0  0  0  0
  -26.6153  -14.0723   19.6331 C   0  0  0  0  0  0  0  0  0  0  0  0
  -23.7682  -33.5841   24.1116 C   0  0  0  0  0  0  0  0  0  0  0  0
  -24.7513  -36.1904   24.2650 C   0  0  0  0  0  0  0  0  0  0  0  0
  -25.0807  -33.8112   24.5258 C   0  0  0  0  0  0  0  0  0  0  0  0
  -25.8748  -28.7311   20.5908 C   0  0  0  0  0  0  0  0  0  0  0  0
  -27.3821  -27.5690   19.4898 C   0  0  0  0  0  0  0  0  0  0  0  0
  -29.6000  -17.5652   19.1289 C   0  0  0  0  0  0  0  0  0  0  0  0
  -28.3475  -29.1912   21.1284 C   0  0  0  0  0  0  0  0  0  0  0  0
  -21.6134  -12.4012   20.9184 C   0  0  0  0  0  0  0  0  0  0  0  0
  -20.6144  -15.4694   20.5857 C   0  0  0  0  0  0  0  0  0  0  0  0
  -21.3955  -18.7051   19.8330 C   0  0  0  0  0  0  0  0  0  0  0  0
  -25.8388  -22.7008   17.2712 C   0  0  0  0  0  0  0  0  0  0  0  0
  -19.9024   -8.1314   23.1318 C   0  0  0  0  0  0  0  0  0  0  0  0
  -23.2944  -13.6343   22.3359 C   0  0  0  0  0  0  0  0  0  0  0  0
  -22.9164  -14.9302   19.7049 C   0  0  0  0  0  0  0  0  0  0  0  0
  -19.2667   -9.4021   22.5736 C   0  0  0  0  0  0  0  0  0  0  0  0
  -23.9250  -25.5681   16.3807 C   0  0  0  0  0  0  0  0  0  0  0  0
  -19.8124   -9.7050   21.1818 C   0  0  0  0  0  0  0  0  0  0  0  0
  -24.3758  -26.6311   17.3851 C   0  0  0  0  0  0  0  0  0  0  0  0
  -23.8586  -24.1801   17.0154 C   0  0  0  0  0  0  0  0  0  0  0  0
  -25.5355  -24.8145   18.7050 C   0  0  0  0  0  0  0  0  0  0  0  0
  -21.3258   -9.9487   21.2237 C   0  0  1  0  0  0  0  0  0  0  0  0
  -21.9329  -13.6748   21.6489 C   0  0  1  0  0  0  0  0  0  0  0  0
  -25.6801  -26.2184   18.0952 C   0  0  2  0  0  0  0  0  0  0  0  0
  -20.3611  -20.9805   19.6097 C   0  0  0  0  0  0  0  0  0  0  0  0
  -30.0539  -14.5157   17.1057 C   0  0  0  0  0  0  0  0  0  0  0  0
  -19.3997  -14.6518   17.9087 C   0  0  0  0  0  0  0  0  0  0  0  0
  -19.2380  -17.0798   17.3197 C   0  0  0  0  0  0  0  0  0  0  0  0
  -17.9744  -16.1859   19.2760 C   0  0  0  0  0  0  0  0  0  0  0  0
  -23.1117  -19.8225   21.9697 C   0  0  0  0  0  0  0  0  0  0  0  0
  -28.9614  -14.3568   19.3669 C   0  0  0  0  0  0  0  0  0  1  0  0
  -20.4859  -16.4325   19.4303 C   0  0  1  0  0  0  0  0  0  0  0  0
  -21.0728  -20.0097   20.5390 C   0  0  2  0  0  0  0  0  0  0  0  0
  -29.8615  -15.1910   18.4572 C   0  0  2  0  0  0  0  0  0  0  0  0
  -19.2995  -16.0759   18.4907 C   0  0  0  0  0  0  0  0  0  0  0  0
  -25.1632  -27.9400   19.7835 N   0  0  0  0  0  0  0  0  0  0  0  0
  -26.1079  -27.2455   19.1267 N   0  0  0  0  0  0  0  0  0  0  0  0
  -21.8227  -14.7640   20.6764 N   0  0  0  0  0  0  0  0  0  0  0  0
  -25.1303  -23.8555   17.6653 N   0  0  0  0  0  0  0  0  0  0  0  0
  -28.4517  -26.9662   18.9284 N   0  0  0  0  0  0  0  0  0  0  0  0
  -28.0477  -30.1688   22.0868 N   0  0  0  0  0  0  0  0  0  0  0  0
  -27.0501  -22.5127   17.9360 N   0  0  0  0  0  0  0  0  0  0  0  0
  -29.3114  -16.5147   18.2724 N   0  0  0  0  0  0  0  0  0  0  0  0
  -21.6103  -11.2772   21.7222 N   0  0  0  0  0  0  0  0  0  0  0  0
  -20.4034  -17.7655   20.0174 N   0  0  0  0  0  0  0  0  0  0  0  0
  -22.3230  -20.6574   21.0274 N   0  3  0  0  0  0  0  0  0  0  0  0
  -30.3336  -17.4899   20.1110 O   0  0  0  0  0  0  0  0  0  0  0  0
  -29.5474  -28.9232   20.8794 O   0  0  0  0  0  0  0  0  0  0  0  0
  -21.3850  -12.4359   19.7149 O   0  0  0  0  0  0  0  0  0  0  0  0
  -19.6801  -15.3527   21.3825 O   0  0  0  0  0  0  0  0  0  0  0  0
  -22.4232  -18.5377   19.1799 O   0  0  0  0  0  0  0  0  0  0  0  0
  -25.4162  -21.9499   16.3883 O   0  0  0  0  0  0  0  0  0  0  0  0
  -23.2790  -32.2910   24.0341 O   0  0  0  0  0  0  0  0  0  0  0  0
  -27.6676  -14.2146   18.7820 O   0  0  0  0  0  0  0  0  0  1  0  0
  -25.2236  -37.4418   24.3372 F   0  0  0  0  0  0  0  0  0  0  0  0
  -25.8745  -32.7814   24.8501 F   0  0  0  0  0  0  0  0  0  0  0  0
  1  2  1  0  0  0  0
  1  7  2  0  0  0  0
  2  8  2  0  0  0  0
  3 12  2  0  0  0  0
  3 19  1  0  0  0  0
  4 13  1  0  0  0  0
  4 19  2  0  0  0  0
  5 10  2  0  0  0  0
  5 20  1  0  0  0  0
  6 11  1  0  0  0  0
  6 20  2  0  0  0  0
  7 22  1  0  0  0  0
  8 24  1  0  0  0  0
  9 14  2  0  0  0  0
  9 23  1  0  0  0  0
 10 26  1  0  0  0  0
 11 26  2  0  0  0  0
 12 27  1  0  0  0  0
 13 27  2  0  0  0  0
 14 28  1  0  0  0  0
 15 16  2  0  0  0  0
 15 29  1  0  0  0  0
 16 30  1  0  0  0  0
 17 25  1  0  0  0  0
 17 28  2  0  0  0  0
 18 30  2  0  0  0  0
 18 31  1  0  0  0  0
 19 32  1  0  0  0  0
 20 34  1  0  0  0  0
 21 32  1  0  0  0  0
 21 33  2  0  0  0  0
 21 35  1  0  0  0  0
 22 24  2  0  0  0  0
 22 40  1  0  0  0  0
 23 25  2  0  0  0  0
 23 41  1  0  0  0  0
 24 49  1  0  0  0  0
 25 42  1  0  0  0  0
 26 69  1  0  0  0  0
 27 80  1  0  0  0  0
 28 81  1  0  0  0  0
 29 31  2  0  0  0  0
 29 80  1  0  0  0  0
 30 82  1  0  0  0  0
 31 83  1  0  0  0  0
 32 63  2  0  0  0  0
 33 64  1  0  0  0  0
 33 67  1  0  0  0  0
 34 70  1  0  0  0  0
 34 74  2  0  0  0  0
 35 68  1  0  0  0  0
 35 75  2  0  0  0  0
 36 50  1  0  0  0  0
 36 71  1  0  0  0  0
 36 76  2  0  0  0  0
 37 59  1  0  0  0  0
 37 65  1  0  0  0  0
 37 77  2  0  0  0  0
 38 60  1  0  0  0  0
 38 72  1  0  0  0  0
 38 78  2  0  0  0  0
 39 66  1  0  0  0  0
 39 69  1  0  0  0  0
 39 79  2  0  0  0  0
 40 43  1  0  0  0  0
 41 50  1  0  0  0  0
 42 65  1  0  0  0  0
 43 45  1  0  0  0  0
 44 46  1  0  0  0  0
 44 47  1  0  0  0  0
 45 49  1  0  0  0  0
 46 51  1  0  0  0  0
 47 66  1  0  0  0  0
 48 51  1  0  0  0  0
 48 66  1  0  0  0  0
 49 71  1  0  0  0  0
 50 65  1  0  0  0  0
 51 64  1  0  0  0  0
 52 60  1  0  0  0  0
 53 61  1  0  0  0  0
 54 62  1  0  0  0  0
 55 62  1  0  0  0  0
 56 62  1  0  0  0  0
 57 73  1  0  0  0  0
 58 61  1  0  0  0  0
 58 81  1  0  0  0  0
 59 62  1  0  0  0  0
 59 72  1  0  0  0  0
 60 73  1  0  0  0  0
 61 70  1  0  0  0  0
 63 64  1  0  0  0  0
M  CHG  1  73   1
M  ISO  4  39 100  58 101  69 100  81 101
M  END
> <Batch ID>
0074

> <Smiles>
CNC(C)C(=O)NC(C(=O)N1Cc2cc([101O:1][101CH2:1]C(C)NC(=O)c3ccc([100NH:0][100C:0](=O)N4CCCC(n5nc(-c6ccc(Oc7ccc(F)cc7F)cc6)c(C(N)=O)c5N)C4)cc3)ccc2CC1C(=O)NC1CCCc2ccccc21)C(C)(C)C

> <Shape>
0.244

> <Color>
0.063

> <Negative vol penalty>
0.000

$$$$

  -OEChem-04042323443D

 88 97  0     1  0  0  0  0  0999 V2000
  -27.8155  -38.3162   24.3592 C   0  0  0  0  0  0  0  0  0  0  0  0
  -28.4087  -37.1379   24.8010 C   0  0  0  0  0  0  0  0  0  0  0  0
  -23.3052   -9.4973   20.7147 C   0  0  0  0  0  0  0  0  0  0  0  0
  -23.2974  -11.7556   21.5731 C   0  0  0  0  0  0  0  0  0  0  0  0
  -26.4337  -38.3765   24.1836 C   0  0  0  0  0  0  0  0  0  0  0  0
  -27.6201  -36.0194   25.0685 C   0  0  0  0  0  0  0  0  0  0  0  0
  -28.7136  -29.7974   21.6071 C   0  0  0  0  0  0  0  0  0  0  0  0
  -28.0330  -19.6411   19.9906 C   0  0  0  0  0  0  0  0  0  0  0  0
  -27.9470  -18.2502   20.0490 C   0  0  0  0  0  0  0  0  0  0  0  0
  -22.3121   -9.1463   21.6292 C   0  0  0  0  0  0  0  0  0  0  0  0
  -22.3044  -11.4046   22.4876 C   0  0  0  0  0  0  0  0  0  0  0  0
  -28.9965  -28.5136   21.1401 C   0  0  0  0  0  0  0  0  0  0  0  0
  -22.1115   -8.3749   24.9139 C   0  0  0  0  0  0  0  0  0  0  0  0
  -22.2675   -7.1767   25.6107 C   0  0  0  0  0  0  0  0  0  0  0  0
  -27.0851  -27.6445   22.3397 C   0  0  0  0  0  0  0  0  0  0  0  0
  -30.3536  -18.1081   20.2086 C   0  0  0  0  0  0  0  0  0  0  0  0
  -20.1914   -6.3647   24.6791 C   0  0  0  0  0  0  0  0  0  0  0  0
  -23.7979  -10.8019   20.6867 C   0  0  0  0  0  0  0  0  0  0  0  0
  -24.7495  -11.0985   18.3385 C   0  0  0  0  0  0  0  0  0  0  0  0
  -25.6288  -37.2552   24.4399 C   0  0  0  0  0  0  0  0  0  0  0  0
  -27.6051  -30.0124   22.4307 C   0  0  0  0  0  0  0  0  0  0  0  0
  -26.2261  -36.0651   24.8975 C   0  0  0  0  0  0  0  0  0  0  0  0
  -26.7895  -28.9303   22.8004 C   0  0  0  0  0  0  0  0  0  0  0  0
  -29.2793  -20.2656   20.0412 C   0  0  0  0  0  0  0  0  0  0  0  0
  -29.1073  -17.4837   20.1580 C   0  0  0  0  0  0  0  0  0  0  0  0
  -21.8117  -10.0999   22.5156 C   0  0  0  0  0  0  0  0  0  0  0  0
  -28.1843  -27.4398   21.5057 C   0  0  0  0  0  0  0  0  0  0  0  0
  -20.9955   -8.5680   24.0997 C   0  0  0  0  0  0  0  0  0  0  0  0
  -21.3075   -6.1716   25.4933 C   0  0  0  0  0  0  0  0  0  0  0  0
  -30.4395  -19.4991   20.1502 C   0  0  0  0  0  0  0  0  0  0  0  0
  -20.0355   -7.5629   23.9823 C   0  0  0  0  0  0  0  0  0  0  0  0
  -24.8241  -11.1650   19.7427 C   0  0  0  0  0  0  0  0  0  0  0  0
  -25.9729  -11.5503   17.9078 C   0  0  0  0  0  0  0  0  0  0  0  0
  -28.4052  -22.4569   19.2796 C   0  0  0  0  0  0  0  0  0  0  0  0
  -23.6706  -10.6669   17.4985 C   0  0  0  0  0  0  0  0  0  0  0  0
  -25.5360  -32.4748   24.3624 C   0  0  0  0  0  0  0  0  0  0  0  0
  -23.5813  -30.5350   23.0108 C   0  0  0  0  0  0  0  0  0  0  0  0
  -20.8995  -29.0497   21.5145 C   0  0  0  0  0  0  0  0  0  0  0  0
  -30.0726  -15.1628   20.3260 C   0  0  0  0  0  0  0  0  0  0  0  0
  -24.1345  -37.3826   24.2809 C   0  0  0  0  0  0  0  0  0  0  0  0
  -27.2979  -31.3679   23.0070 C   0  0  0  0  0  0  0  0  0  0  0  0
  -25.6278  -29.2030   23.7164 C   0  0  0  0  0  0  0  0  0  0  0  0
  -28.3905  -23.9578   19.5264 C   0  0  0  0  0  0  0  0  0  0  0  0
  -23.4109  -36.0396   24.2277 C   0  0  0  0  0  0  0  0  0  0  0  0
  -30.5603  -11.8009   19.2597 C   0  0  0  0  0  0  0  0  0  0  0  0
  -23.9113  -35.1193   25.3365 C   0  0  0  0  0  0  0  0  0  0  0  0
  -29.1376  -11.2521   19.1289 C   0  0  0  0  0  0  0  0  0  0  0  0
  -30.4471  -23.7930   20.8912 C   0  0  0  0  0  0  0  0  0  0  0  0
  -30.6920  -12.7591   20.4422 C   0  0  0  0  0  0  0  0  0  0  0  0
  -30.5961  -22.3329   20.4909 C   0  0  0  0  0  0  0  0  0  0  0  0
  -28.2924  -13.3064   20.3341 C   0  0  0  0  0  0  0  0  0  0  0  0
  -25.4071  -34.8231   25.1746 C   0  0  1  0  0  0  0  0  0  0  0  0
  -25.7887  -31.6380   23.1428 C   0  0  1  0  0  0  0  0  0  0  0  0
  -28.0946  -12.3868   19.1180 C   0  0  2  0  0  0  0  0  0  0  0  0
  -29.7508  -24.5836   19.7935 C   0  0  2  0  0  0  0  0  0  0  0  0
  -18.4508  -28.6124   21.8466 C   0  0  0  0  0  0  0  0  0  0  0  0
  -24.2492  -28.3558   25.0378 C   0  0  0  0  0  0  0  0  0  0  0  0
  -21.9900  -27.3650   24.6107 C   0  0  0  0  0  0  0  0  0  0  0  0
  -22.1826  -29.6654   25.5562 C   0  0  0  0  0  0  0  0  0  0  0  0
  -20.1806  -30.5551   19.0699 C   0  0  0  0  0  0  0  0  0  0  0  0
  -31.8011  -25.1026   18.7690 C   0  0  0  0  0  0  0  0  0  0  0  0
  -29.5995  -26.0531   20.1897 C   0  0  0  0  0  0  0  0  0  1  0  0
  -22.7700  -29.2697   23.1292 C   0  0  1  0  0  0  0  0  0  0  0  0
  -19.4903  -29.5478   21.2488 C   0  0  2  0  0  0  0  0  0  0  0  0
  -22.8163  -28.6679   24.5621 C   0  0  0  0  0  0  0  0  0  0  0  0
  -26.0019  -11.6229   20.1753 N   0  0  0  0  0  0  0  0  0  0  0  0
  -26.6786  -11.8481   19.0363 N   0  0  0  0  0  0  0  0  0  0  0  0
  -29.3654  -21.7093   19.9803 N   0  0  0  0  0  0  0  0  0  0  0  0
  -24.9463  -30.4414   23.3084 N   0  0  0  0  0  0  0  0  0  0  0  0
  -29.6747  -13.8097   20.3627 N   0  0  0  0  0  0  0  0  0  0  0  0
  -26.5031  -11.7180   16.6777 N   0  0  0  0  0  0  0  0  0  0  0  0
  -22.4837  -10.2337   18.1050 N   0  0  0  0  0  0  0  0  0  0  0  0
  -29.0197  -16.0707   20.2173 N   0  0  0  0  0  0  0  0  0  0  0  0
  -25.6175  -33.8358   24.1376 N   0  0  0  0  0  0  0  0  0  0  0  0
  -21.4277  -29.6003   22.6630 N   0  0  0  0  0  0  0  0  0  0  0  0
  -19.2442  -29.6481   19.7824 N   0  3  0  0  0  0  0  0  0  0  0  0
  -27.5433  -21.9878   18.5303 O   0  0  0  0  0  0  0  0  0  0  0  0
  -23.7625  -10.6499   16.2476 O   0  0  0  0  0  0  0  0  0  0  0  0
  -25.2840  -31.9272   25.4293 O   0  0  0  0  0  0  0  0  0  0  0  0
  -23.0215  -31.5807   22.6694 O   0  0  0  0  0  0  0  0  0  0  0  0
  -21.4728  -28.2492   20.7790 O   0  0  0  0  0  0  0  0  0  0  0  0
  -31.2614  -15.4908   20.3590 O   0  0  0  0  0  0  0  0  0  0  0  0
  -20.8425   -9.7579   23.4079 O   0  0  0  0  0  0  0  0  0  0  0  0
  -28.4636  -26.1899   21.0426 O   0  0  0  0  0  0  0  0  0  1  0  0
  -30.5149  -24.5321   18.5879 O   0  0  0  0  0  0  0  0  0  0  0  0
  -21.4581   -5.0204   26.1614 F   0  0  0  0  0  0  0  0  0  0  0  0
  -31.6429  -20.0886   20.1990 F   0  0  0  0  0  0  0  0  0  0  0  0
  -18.9618   -7.7423   23.2007 F   0  0  0  0  0  0  0  0  0  0  0  0
  1  2  1  0  0  0  0
  1  5  2  0  0  0  0
  2  6  2  0  0  0  0
  3 10  2  0  0  0  0
  3 18  1  0  0  0  0
  4 11  1  0  0  0  0
  4 18  2  0  0  0  0
  5 20  1  0  0  0  0
  6 22  1  0  0  0  0
  7 12  2  0  0  0  0
  7 21  1  0  0  0  0
  8  9  2  0  0  0  0
  8 24  1  0  0  0  0
  9 25  1  0  0  0  0
 10 26  1  0  0  0  0
 11 26  2  0  0  0  0
 12 27  1  0  0  0  0
 13 14  2  0  0  0  0
 13 28  1  0  0  0  0
 14 29  1  0  0  0  0
 15 23  1  0  0  0  0
 15 27  2  0  0  0  0
 16 25  2  0  0  0  0
 16 30  1  0  0  0  0
 17 29  2  0  0  0  0
 17 31  1  0  0  0  0
 18 32  1  0  0  0  0
 19 32  1  0  0  0  0
 19 33  2  0  0  0  0
 19 35  1  0  0  0  0
 20 22  2  0  0  0  0
 20 40  1  0  0  0  0
 21 23  2  0  0  0  0
 21 41  1  0  0  0  0
 22 52  1  0  0  0  0
 23 42  1  0  0  0  0
 24 30  2  0  0  0  0
 24 68  1  0  0  0  0
 25 73  1  0  0  0  0
 26 83  1  0  0  0  0
 27 84  1  0  0  0  0
 28 31  2  0  0  0  0
 28 83  1  0  0  0  0
 29 86  1  0  0  0  0
 30 87  1  0  0  0  0
 31 88  1  0  0  0  0
 32 66  2  0  0  0  0
 33 67  1  0  0  0  0
 33 71  1  0  0  0  0
 34 43  1  0  0  0  0
 34 68  1  0  0  0  0
 34 77  2  0  0  0  0
 35 72  1  0  0  0  0
 35 78  2  0  0  0  0
 36 53  1  0  0  0  0
 36 74  1  0  0  0  0
 36 79  2  0  0  0  0
 37 63  1  0  0  0  0
 37 69  1  0  0  0  0
 37 80  2  0  0  0  0
 38 64  1  0  0  0  0
 38 75  1  0  0  0  0
 38 81  2  0  0  0  0
 39 70  1  0  0  0  0
 39 73  1  0  0  0  0
 39 82  2  0  0  0  0
 40 44  1  0  0  0  0
 41 53  1  0  0  0  0
 42 69  1  0  0  0  0
 43 55  1  0  0  0  0
 44 46  1  0  0  0  0
 45 47  1  0  0  0  0
 45 49  1  0  0  0  0
 46 52  1  0  0  0  0
 47 54  1  0  0  0  0
 48 50  1  0  0  0  0
 48 55  1  0  0  0  0
 49 70  1  0  0  0  0
 50 68  1  0  0  0  0
 51 54  1  0  0  0  0
 51 70  1  0  0  0  0
 52 74  1  0  0  0  0
 53 69  1  0  0  0  0
 54 67  1  0  0  0  0
 55 62  1  0  0  0  0
 55 85  1  0  0  0  0
 56 64  1  0  0  0  0
 57 65  1  0  0  0  0
 58 65  1  0  0  0  0
 59 65  1  0  0  0  0
 60 76  1  0  0  0  0
 61 85  1  0  0  0  0
 62 84  1  0  0  0  0
 63 65  1  0  0  0  0
 63 75  1  0  0  0  0
 64 76  1  0  0  0  0
 66 67  1  0  0  0  0
M  CHG  1  76   1
M  ISO  4  39 100  62 101  73 100  84 101
M  END
> <Batch ID>
0074

> <Smiles>
CNC(C)C(=O)NC(C(=O)N1Cc2cc([101O:1][101CH2:1]C3(OC)CCN(c4ccc([100NH:0][100C:0](=O)N5CCCC(n6nc(-c7ccc(Oc8ccc(F)cc8F)cc7)c(C(N)=O)c6N)C5)cc4F)C(=O)C3)ccc2CC1C(=O)NC1CCCc2ccccc21)C(C)(C)C

> <Shape>
0.357

> <Color>
0.091

> <Negative vol penalty>
0.000

$$$$

  -OEChem-04042323443D

 88 97  0     1  0  0  0  0  0999 V2000
  -26.7840  -37.9213   22.6574 C   0  0  0  0  0  0  0  0  0  0  0  0
  -27.3965  -36.9635   21.8556 C   0  0  0  0  0  0  0  0  0  0  0  0
  -25.7837  -19.4228   19.0793 C   0  0  0  0  0  0  0  0  0  0  0  0
  -22.8031  -10.0357   21.4342 C   0  0  0  0  0  0  0  0  0  0  0  0
  -25.1970   -9.7097   21.4352 C   0  0  0  0  0  0  0  0  0  0  0  0
  -26.0490  -37.5269   23.7746 C   0  0  0  0  0  0  0  0  0  0  0  0
  -27.2753  -35.6107   22.1713 C   0  0  0  0  0  0  0  0  0  0  0  0
  -26.8763  -29.1673   19.0664 C   0  0  0  0  0  0  0  0  0  0  0  0
  -26.5304  -20.4976   19.5617 C   0  0  0  0  0  0  0  0  0  0  0  0
  -26.3836  -18.4711   18.2546 C   0  0  0  0  0  0  0  0  0  0  0  0
  -22.6667   -9.0372   22.3984 C   0  0  0  0  0  0  0  0  0  0  0  0
  -25.0606   -8.7112   22.3995 C   0  0  0  0  0  0  0  0  0  0  0  0
  -27.4758  -27.9096   19.1146 C   0  0  0  0  0  0  0  0  0  0  0  0
  -22.6572   -5.6587   22.5010 C   0  0  0  0  0  0  0  0  0  0  0  0
  -21.6477   -4.7141   22.3164 C   0  0  0  0  0  0  0  0  0  0  0  0
  -26.1154  -27.3409   21.0238 C   0  0  0  0  0  0  0  0  0  0  0  0
  -20.6438   -5.3776   24.4114 C   0  0  0  0  0  0  0  0  0  0  0  0
  -24.0682  -10.3720   20.9525 C   0  0  0  0  0  0  0  0  0  0  0  0
  -23.6471  -11.4210   18.6656 C   0  0  0  0  0  0  0  0  0  0  0  0
  -25.9107  -36.1681   24.0986 C   0  0  0  0  0  0  0  0  0  0  0  0
  -25.8980  -29.5259   20.0049 C   0  0  0  0  0  0  0  0  0  0  0  0
  -26.5389  -35.1978   23.2947 C   0  0  0  0  0  0  0  0  0  0  0  0
  -25.5032  -28.6029   20.9838 C   0  0  0  0  0  0  0  0  0  0  0  0
  -27.8770  -20.6207   19.2195 C   0  0  0  0  0  0  0  0  0  0  0  0
  -27.7302  -18.5942   17.9124 C   0  0  0  0  0  0  0  0  0  0  0  0
  -23.7954   -8.3749   22.8812 C   0  0  0  0  0  0  0  0  0  0  0  0
  -27.0975  -26.9972   20.0951 C   0  0  0  0  0  0  0  0  0  0  0  0
  -22.6601   -6.4628   23.6409 C   0  0  0  0  0  0  0  0  0  0  0  0
  -20.6409   -4.5736   23.2716 C   0  0  0  0  0  0  0  0  0  0  0  0
  -21.6534   -6.3222   24.5960 C   0  0  0  0  0  0  0  0  0  0  0  0
  -28.4769  -19.6690   18.3949 C   0  0  0  0  0  0  0  0  0  0  0  0
  -24.2098  -11.4030   19.9559 C   0  0  0  0  0  0  0  0  0  0  0  0
  -24.0763  -12.6064   18.1205 C   0  0  0  0  0  0  0  0  0  0  0  0
  -22.8112  -10.4529   18.0177 C   0  0  0  0  0  0  0  0  0  0  0  0
  -25.6534  -31.7674   22.2453 C   0  0  0  0  0  0  0  0  0  0  0  0
  -22.6347  -30.6126   22.5203 C   0  0  0  0  0  0  0  0  0  0  0  0
  -20.4792  -28.0038   22.0787 C   0  0  0  0  0  0  0  0  0  0  0  0
  -27.9074  -16.2663   17.0518 C   0  0  0  0  0  0  0  0  0  0  0  0
  -25.1457  -35.7928   25.3431 C   0  0  0  0  0  0  0  0  0  0  0  0
  -25.2417  -30.8769   19.9229 C   0  0  0  0  0  0  0  0  0  0  0  0
  -24.4431  -28.9315   22.0020 C   0  0  0  0  0  0  0  0  0  0  0  0
  -24.7534  -34.3184   25.3955 C   0  0  0  0  0  0  0  0  0  0  0  0
  -26.3642  -16.5785   20.2399 C   0  0  0  0  0  0  0  0  0  0  0  0
  -25.9409  -33.4365   25.0226 C   0  0  0  0  0  0  0  0  0  0  0  0
  -25.6231  -15.2465   20.3501 C   0  0  0  0  0  0  0  0  0  0  0  0
  -27.7381  -16.4170   19.5886 C   0  0  0  0  0  0  0  0  0  0  0  0
  -26.9630  -14.3973   18.3867 C   0  0  0  0  0  0  0  0  0  0  0  0
  -28.1140  -23.0207   19.3069 C   0  0  0  0  0  0  0  0  0  0  0  0
  -30.4043  -22.6933   21.0859 C   0  0  0  0  0  0  0  0  0  0  0  0
  -26.4098  -33.7193   23.5903 C   0  0  1  0  0  0  0  0  0  0  0  0
  -24.6244  -31.3224   21.2449 C   0  0  1  0  0  0  0  0  0  0  0  0
  -25.5548  -14.5381   18.9856 C   0  0  1  0  0  0  0  0  0  0  0  0
  -29.2126  -24.0772   19.3951 C   0  0  1  0  0  0  0  0  0  0  0  0
  -29.3317  -21.5851   21.0101 C   0  0  0  0  0  0  0  0  0  0  0  0
  -30.0761  -20.2428   21.1574 C   0  0  0  0  0  0  0  0  0  0  0  0
  -28.3355  -21.7167   22.1800 C   0  0  0  0  0  0  0  0  0  0  0  0
  -18.0833  -27.3465   22.4324 C   0  0  0  0  0  0  0  0  0  0  0  0
  -23.1719  -30.2691   25.5042 C   0  0  0  0  0  0  0  0  0  0  0  0
  -21.1696  -28.7706   25.6212 C   0  0  0  0  0  0  0  0  0  0  0  0
  -20.9011  -31.1577   24.9485 C   0  0  0  0  0  0  0  0  0  0  0  0
  -29.2776  -18.0642   16.0196 C   0  0  0  0  0  0  0  0  0  0  0  0
  -20.0514  -27.5642   19.1835 C   0  0  0  0  0  0  0  0  0  0  0  0
  -28.6747  -25.4819   19.1612 C   0  0  0  0  0  0  0  0  0  1  0  0
  -21.9747  -29.5297   23.3394 C   0  0  1  0  0  0  0  0  0  0  0  0
  -19.0944  -27.9349   21.4606 C   0  0  2  0  0  0  0  0  0  0  0  0
  -21.8257  -29.9260   24.8355 C   0  0  0  0  0  0  0  0  0  0  0  0
  -24.9408  -12.4904   20.2150 N   0  0  0  0  0  0  0  0  0  0  0  0
  -24.8405  -13.2029   19.0799 N   0  0  0  0  0  0  0  0  0  0  0  0
  -28.6241  -21.7003   19.7057 N   0  0  1  0  0  0  0  0  0  0  0  0
  -23.8356  -30.2674   21.8844 N   0  0  0  0  0  0  0  0  0  0  0  0
  -27.6276  -15.7005   18.3100 N   0  0  0  0  0  0  0  0  0  0  0  0
  -23.8709  -13.1862   16.9188 N   0  0  0  0  0  0  0  0  0  0  0  0
  -23.4217   -9.4354   17.2719 N   0  0  0  0  0  0  0  0  0  0  0  0
  -25.5255  -33.0870   22.6349 N   0  0  0  0  0  0  0  0  0  0  0  0
  -20.7129  -29.2258   22.6732 N   0  0  0  0  0  0  0  0  0  0  0  0
  -28.3481  -17.6072   17.0583 N   0  0  0  0  0  0  0  0  0  0  0  0
  -29.8178  -24.0254   20.7619 N   0  3  0  0  0  0  0  0  0  0  0  0
  -19.1160  -27.0878   20.2347 N   0  3  0  0  0  0  0  0  0  0  0  0
  -21.5594  -10.4987   18.0844 O   0  0  0  0  0  0  0  0  0  0  0  0
  -26.4999  -30.9720   22.6359 O   0  0  0  0  0  0  0  0  0  0  0  0
  -22.1005  -31.7217   22.4417 O   0  0  0  0  0  0  0  0  0  0  0  0
  -21.2728  -27.0660   22.0414 O   0  0  0  0  0  0  0  0  0  0  0  0
  -27.7974  -15.6160   16.0053 O   0  0  0  0  0  0  0  0  0  0  0  0
  -23.6627   -7.4007   23.8223 O   0  0  0  0  0  0  0  0  0  0  0  0
  -27.6815  -25.7690   20.1448 O   0  0  0  0  0  0  0  0  0  1  0  0
  -19.6706   -3.6675   23.0934 F   0  0  0  0  0  0  0  0  0  0  0  0
  -21.6502   -7.0926   25.6925 F   0  0  0  0  0  0  0  0  0  0  0  0
  -29.7725  -19.7878   18.0661 F   0  0  0  0  0  0  0  0  0  0  0  0
  1  2  1  0  0  0  0
  1  6  2  0  0  0  0
  2  7  2  0  0  0  0
  3  9  2  0  0  0  0
  3 10  1  0  0  0  0
  4 11  2  0  0  0  0
  4 18  1  0  0  0  0
  5 12  1  0  0  0  0
  5 18  2  0  0  0  0
  6 20  1  0  0  0  0
  7 22  1  0  0  0  0
  8 13  2  0  0  0  0
  8 21  1  0  0  0  0
  9 24  1  0  0  0  0
 10 25  2  0  0  0  0
 11 26  1  0  0  0  0
 12 26  2  0  0  0  0
 13 27  1  0  0  0  0
 14 15  2  0  0  0  0
 14 28  1  0  0  0  0
 15 29  1  0  0  0  0
 16 23  1  0  0  0  0
 16 27  2  0  0  0  0
 17 29  2  0  0  0  0
 17 30  1  0  0  0  0
 18 32  1  0  0  0  0
 19 32  1  0  0  0  0
 19 33  2  0  0  0  0
 19 34  1  0  0  0  0
 20 22  2  0  0  0  0
 20 39  1  0  0  0  0
 21 23  2  0  0  0  0
 21 40  1  0  0  0  0
 22 50  1  0  0  0  0
 23 41  1  0  0  0  0
 24 31  2  0  0  0  0
 24 69  1  0  0  0  0
 25 31  1  0  0  0  0
 25 76  1  0  0  0  0
 26 84  1  0  0  0  0
 27 85  1  0  0  0  0
 28 30  2  0  0  0  0
 28 84  1  0  0  0  0
 29 86  1  0  0  0  0
 30 87  1  0  0  0  0
 31 88  1  0  0  0  0
 32 67  2  0  0  0  0
 33 68  1  0  0  0  0
 33 72  1  0  0  0  0
 34 73  1  0  0  0  0
 34 79  2  0  0  0  0
 35 51  1  0  0  0  0
 35 74  1  0  0  0  0
 35 80  2  0  0  0  0
 36 64  1  0  0  0  0
 36 70  1  0  0  0  0
 36 81  2  0  0  0  0
 37 65  1  0  0  0  0
 37 75  1  0  0  0  0
 37 82  2  0  0  0  0
 38 71  1  0  0  0  0
 38 76  1  0  0  0  0
 38 83  2  0  0  0  0
 39 42  1  0  0  0  0
 40 51  1  0  0  0  0
 41 70  1  0  0  0  0
 42 44  1  0  0  0  0
 43 45  1  0  0  0  0
 43 46  1  0  0  0  0
 44 50  1  0  0  0  0
 45 52  1  0  0  0  0
 46 71  1  0  0  0  0
 47 52  1  0  0  0  0
 47 71  1  0  0  0  0
 48 53  1  0  0  0  0
 48 69  1  0  0  0  0
 49 54  1  0  0  0  0
 49 77  1  0  0  0  0
 50 74  1  0  0  0  0
 51 70  1  0  0  0  0
 52 68  1  0  0  0  0
 53 63  1  0  0  0  0
 53 77  1  0  0  0  0
 54 55  1  0  0  0  0
 54 56  1  0  0  0  0
 54 69  1  0  0  0  0
 57 65  1  0  0  0  0
 58 66  1  0  0  0  0
 59 66  1  0  0  0  0
 60 66  1  0  0  0  0
 61 76  1  0  0  0  0
 62 78  1  0  0  0  0
 63 85  1  0  0  0  0
 64 66  1  0  0  0  0
 64 75  1  0  0  0  0
 65 78  1  0  0  0  0
 67 68  1  0  0  0  0
M  CHG  2  77   1  78   1
M  ISO  4  38 100  63 101  76 100  85 101
M  END
> <Batch ID>
0074

> <Smiles>
CNC(C)C(=O)NC(C(=O)N1Cc2cc([101O:1][101CH2:1]C3CN(c4cccc([100N:0](C)[100C:0](=O)N5CCCC(n6nc(-c7ccc(Oc8ccc(F)cc8F)cc7)c(C(N)=O)c6N)C5)c4F)C(C)(C)CN3)ccc2CC1C(=O)NC1CCCc2ccccc21)C(C)(C)C

> <Shape>
0.327

> <Color>
0.076

> <Negative vol penalty>
0.000

$$$$

  -OEChem-04042323443D

 83 91  0     1  0  0  0  0  0999 V2000
  -32.9864   -2.6848   31.8752 C   0  0  0  0  0  0  0  0  0  0  0  0
  -32.5796   -3.9638   31.5090 C   0  0  0  0  0  0  0  0  0  0  0  0
  -33.5925  -11.9612   24.7968 C   0  0  0  0  0  0  0  0  0  0  0  0
  -23.2889   -9.7999   19.9130 C   0  0  0  0  0  0  0  0  0  0  0  0
  -23.7425   -9.9395   22.2819 C   0  0  0  0  0  0  0  0  0  0  0  0
  -32.1089   -1.6098   31.7394 C   0  0  0  0  0  0  0  0  0  0  0  0
  -31.2954   -4.1684   31.0058 C   0  0  0  0  0  0  0  0  0  0  0  0
  -29.0349   -8.2187   33.0381 C   0  0  0  0  0  0  0  0  0  0  0  0
  -33.0173  -11.9651   26.0675 C   0  0  0  0  0  0  0  0  0  0  0  0
  -32.8183  -12.2756   23.6799 C   0  0  0  0  0  0  0  0  0  0  0  0
  -22.5635   -8.6269   20.1210 C   0  0  0  0  0  0  0  0  0  0  0  0
  -23.0170   -8.7665   22.4900 C   0  0  0  0  0  0  0  0  0  0  0  0
  -29.4158   -9.4698   32.5549 C   0  0  0  0  0  0  0  0  0  0  0  0
  -20.9809   -6.0046   23.6917 C   0  0  0  0  0  0  0  0  0  0  0  0
  -20.0806   -5.9782   24.7568 C   0  0  0  0  0  0  0  0  0  0  0  0
  -27.4442   -9.5270   31.1662 C   0  0  0  0  0  0  0  0  0  0  0  0
  -30.8938  -12.5976   25.1044 C   0  0  0  0  0  0  0  0  0  0  0  0
  -18.8689   -7.8252   23.7782 C   0  0  0  0  0  0  0  0  0  0  0  0
  -23.8785  -10.4562   20.9935 C   0  0  0  0  0  0  0  0  0  0  0  0
  -24.1362  -12.9865   20.7959 C   0  0  0  0  0  0  0  0  0  0  0  0
  -30.8100   -1.8029   31.2433 C   0  0  0  0  0  0  0  0  0  0  0  0
  -27.8594   -7.6065   32.5800 C   0  0  0  0  0  0  0  0  0  0  0  0
  -30.4001   -3.0948   30.8620 C   0  0  0  0  0  0  0  0  0  0  0  0
  -27.0493   -8.2692   31.6470 C   0  0  0  0  0  0  0  0  0  0  0  0
  -31.6680  -12.2833   26.2214 C   0  0  0  0  0  0  0  0  0  0  0  0
  -31.4690  -12.5938   23.8337 C   0  0  0  0  0  0  0  0  0  0  0  0
  -22.4275   -8.1102   21.4094 C   0  0  0  0  0  0  0  0  0  0  0  0
  -28.6219  -10.1229   31.6167 C   0  0  0  0  0  0  0  0  0  0  0  0
  -20.8252   -6.9413   22.6699 C   0  0  0  0  0  0  0  0  0  0  0  0
  -19.0246   -6.8885   24.8000 C   0  0  0  0  0  0  0  0  0  0  0  0
  -19.7692   -7.8516   22.7132 C   0  0  0  0  0  0  0  0  0  0  0  0
  -24.6285  -11.6677   20.7792 C   0  0  0  0  0  0  0  0  0  0  0  0
  -25.2370  -13.7671   20.5400 C   0  0  0  0  0  0  0  0  0  0  0  0
  -22.8032  -13.4632   21.0225 C   0  0  0  0  0  0  0  0  0  0  0  0
  -29.5258  -12.4782   29.3017 C   0  0  0  0  0  0  0  0  0  0  0  0
  -29.7755  -12.5763   27.8259 C   0  0  0  0  0  0  0  0  0  0  0  0
  -27.1917   -4.9212   31.0157 C   0  0  0  0  0  0  0  0  0  0  0  0
  -24.1252   -5.8044   31.5975 C   0  0  0  0  0  0  0  0  0  0  0  0
  -21.9107   -8.3119   32.2720 C   0  0  0  0  0  0  0  0  0  0  0  0
  -31.0988  -12.9557   21.3683 C   0  0  0  0  0  0  0  0  0  0  0  0
  -29.9131   -0.6028   31.0702 C   0  0  0  0  0  0  0  0  0  0  0  0
  -27.4487   -6.2685   33.1311 C   0  0  0  0  0  0  0  0  0  0  0  0
  -25.7674   -7.6639   31.1384 C   0  0  0  0  0  0  0  0  0  0  0  0
  -28.4422   -0.9639   30.8803 C   0  0  0  0  0  0  0  0  0  0  0  0
  -29.4612  -13.6608   18.2863 C   0  0  0  0  0  0  0  0  0  0  0  0
  -28.2959   -2.0881   29.8597 C   0  0  0  0  0  0  0  0  0  0  0  0
  -27.9904  -13.3555   18.5791 C   0  0  0  0  0  0  0  0  0  0  0  0
  -30.3958  -12.6857   19.0001 C   0  0  0  0  0  0  0  0  0  0  0  0
  -28.7049  -12.2558   20.7395 C   0  0  0  0  0  0  0  0  0  0  0  0
  -29.0066   -3.3610   30.3353 C   0  0  1  0  0  0  0  0  0  0  0  0
  -26.4972   -5.5100   32.2110 C   0  0  1  0  0  0  0  0  0  0  0  0
  -27.7272  -13.2515   20.0942 C   0  0  2  0  0  0  0  0  0  0  0  0
  -29.7304  -13.7245   30.1133 C   0  0  0  0  0  0  0  0  0  0  0  0
  -19.4666   -8.7309   32.6569 C   0  0  0  0  0  0  0  0  0  0  0  0
  -23.6080   -5.5232   28.6036 C   0  0  0  0  0  0  0  0  0  0  0  0
  -21.4997   -6.8369   28.9151 C   0  0  0  0  0  0  0  0  0  0  0  0
  -21.7804   -4.6412   30.0653 C   0  0  0  0  0  0  0  0  0  0  0  0
  -22.3988   -9.3434   35.0027 C   0  0  0  0  0  0  0  0  0  0  0  0
  -23.0982   -6.6416   30.8741 C   0  0  1  0  0  0  0  0  0  0  0  0
  -20.8074   -8.4298   33.3081 C   0  0  2  0  0  0  0  0  0  0  0  0
  -22.5217   -5.9215   29.6224 C   0  0  0  0  0  0  0  0  0  0  0  0
  -25.9398  -11.6099   20.5320 N   0  0  0  0  0  0  0  0  0  0  0  0
  -29.1741  -11.3157   29.7498 N   0  0  0  0  0  0  0  0  0  1  0  0
  -26.2809  -12.9022   20.3910 N   0  0  0  0  0  0  0  0  0  0  0  0
  -25.4119   -6.3513   31.7026 N   0  0  0  0  0  0  0  0  0  0  0  0
  -30.0907  -12.6429   20.4319 N   0  0  0  0  0  0  0  0  0  0  0  0
  -25.4040  -15.1022   20.4300 N   0  0  0  0  0  0  0  0  0  0  0  0
  -21.7915  -12.5256   21.2707 N   0  0  0  0  0  0  0  0  0  0  0  0
  -31.0857  -12.2875   27.5100 N   0  0  0  0  0  0  0  0  0  0  0  0
  -30.6831  -12.9132   22.6987 N   0  0  0  0  0  0  0  0  0  0  0  0
  -28.2095   -4.0420   31.3330 N   0  0  0  0  0  0  0  0  0  0  0  0
  -22.0950   -7.0064   31.8686 N   0  0  0  0  0  0  0  0  0  0  0  0
  -21.1174   -9.5227   34.2727 N   0  3  0  0  0  0  0  0  0  0  0  0
  -22.5146  -14.6835   20.9892 O   0  0  0  0  0  0  0  0  0  0  0  0
  -28.8229  -12.8734   27.1249 O   0  0  0  0  0  0  0  0  0  0  0  0
  -26.8300   -5.2397   29.8891 O   0  0  0  0  0  0  0  0  0  0  0  0
  -23.7960   -4.7087   32.0588 O   0  0  0  0  0  0  0  0  0  0  0  0
  -22.5430   -9.2815   31.8590 O   0  0  0  0  0  0  0  0  0  0  0  0
  -32.2390  -13.2668   21.0146 O   0  0  0  0  0  0  0  0  0  0  0  0
  -21.7194   -6.9657   21.6128 O   0  0  0  0  0  0  0  0  0  0  0  0
  -28.9917  -11.3438   31.1429 O   0  0  0  0  0  0  0  0  0  1  0  0
  -18.1592   -6.8621   25.8221 F   0  0  0  0  0  0  0  0  0  0  0  0
  -19.6138   -8.7530   21.7338 F   0  0  0  0  0  0  0  0  0  0  0  0
  1  2  1  0  0  0  0
  1  6  2  0  0  0  0
  2  7  2  0  0  0  0
  3  9  2  0  0  0  0
  3 10  1  0  0  0  0
  4 11  2  0  0  0  0
  4 19  1  0  0  0  0
  5 12  1  0  0  0  0
  5 19  2  0  0  0  0
  6 21  1  0  0  0  0
  7 23  1  0  0  0  0
  8 13  2  0  0  0  0
  8 22  1  0  0  0  0
  9 25  1  0  0  0  0
 10 26  2  0  0  0  0
 11 27  1  0  0  0  0
 12 27  2  0  0  0  0
 13 28  1  0  0  0  0
 14 15  2  0  0  0  0
 14 29  1  0  0  0  0
 15 30  1  0  0  0  0
 16 24  1  0  0  0  0
 16 28  2  0  0  0  0
 17 25  2  0  0  0  0
 17 26  1  0  0  0  0
 18 30  2  0  0  0  0
 18 31  1  0  0  0  0
 19 32  1  0  0  0  0
 20 32  1  0  0  0  0
 20 33  2  0  0  0  0
 20 34  1  0  0  0  0
 21 23  2  0  0  0  0
 21 41  1  0  0  0  0
 22 24  2  0  0  0  0
 22 42  1  0  0  0  0
 23 50  1  0  0  0  0
 24 43  1  0  0  0  0
 25 69  1  0  0  0  0
 26 70  1  0  0  0  0
 27 80  1  0  0  0  0
 28 81  1  0  0  0  0
 29 31  2  0  0  0  0
 29 80  1  0  0  0  0
 30 82  1  0  0  0  0
 31 83  1  0  0  0  0
 32 62  2  0  0  0  0
 33 64  1  0  0  0  0
 33 67  1  0  0  0  0
 34 68  1  0  0  0  0
 34 74  2  0  0  0  0
 35 36  1  0  0  0  0
 35 53  1  0  0  0  0
 35 63  2  0  0  0  0
 36 69  1  0  0  0  0
 36 75  2  0  0  0  0
 37 51  1  0  0  0  0
 37 71  1  0  0  0  0
 37 76  2  0  0  0  0
 38 59  1  0  0  0  0
 38 65  1  0  0  0  0
 38 77  2  0  0  0  0
 39 60  1  0  0  0  0
 39 72  1  0  0  0  0
 39 78  2  0  0  0  0
 40 66  1  0  0  0  0
 40 70  1  0  0  0  0
 40 79  2  0  0  0  0
 41 44  1  0  0  0  0
 42 51  1  0  0  0  0
 43 65  1  0  0  0  0
 44 46  1  0  0  0  0
 45 47  1  0  0  0  0
 45 48  1  0  0  0  0
 46 50  1  0  0  0  0
 47 52  1  0  0  0  0
 48 66  1  0  0  0  0
 49 52  1  0  0  0  0
 49 66  1  0  0  0  0
 50 71  1  0  0  0  0
 51 65  1  0  0  0  0
 52 64  1  0  0  0  0
 54 60  1  0  0  0  0
 55 61  1  0  0  0  0
 56 61  1  0  0  0  0
 57 61  1  0  0  0  0
 58 73  1  0  0  0  0
 59 61  1  0  0  0  0
 59 72  1  0  0  0  0
 60 73  1  0  0  0  0
 62 64  1  0  0  0  0
 63 81  1  0  0  0  0
M  CHG  1  73   1
M  ISO  4  40 100  63 101  70 100  81 101
M  END
> <Batch ID>
0074

> <Smiles>
CNC(C)C(=O)NC(C(=O)N1Cc2cc([101O:1][101N:1]=C(C)C(=O)Nc3cccc([100NH:0][100C:0](=O)N4CCCC(n5nc(-c6ccc(Oc7ccc(F)cc7F)cc6)c(C(N)=O)c5N)C4)c3)ccc2CC1C(=O)NC1CCCc2ccccc21)C(C)(C)C

> <Shape>
0.128

> <Color>
0.174

> <Negative vol penalty>
0.000

$$$$

  -OEChem-04042323443D

 84 92  0     1  0  0  0  0  0999 V2000
  -18.5432  -24.5237   24.0603 C   0  0  0  0  0  0  0  0  0  0  0  0
  -19.8991  -24.4538   23.7568 C   0  0  0  0  0  0  0  0  0  0  0  0
  -23.8498   -8.5542   19.9964 C   0  0  0  0  0  0  0  0  0  0  0  0
  -23.0626  -10.4204   21.3134 C   0  0  0  0  0  0  0  0  0  0  0  0
  -30.2917  -19.5385   19.9619 C   0  0  0  0  0  0  0  0  0  0  0  0
  -17.8315  -25.6944   23.8017 C   0  0  0  0  0  0  0  0  0  0  0  0
  -20.5439  -25.5543   23.1934 C   0  0  0  0  0  0  0  0  0  0  0  0
  -25.0260  -26.4960   25.3541 C   0  0  0  0  0  0  0  0  0  0  0  0
  -30.2535  -18.1445   19.9945 C   0  0  0  0  0  0  0  0  0  0  0  0
  -22.9573   -7.7108   20.6579 C   0  0  0  0  0  0  0  0  0  0  0  0
  -22.1700   -9.5770   21.9750 C   0  0  0  0  0  0  0  0  0  0  0  0
  -26.0966  -25.6857   24.9787 C   0  0  0  0  0  0  0  0  0  0  0  0
  -21.1378   -4.9958   22.2523 C   0  0  0  0  0  0  0  0  0  0  0  0
  -21.6133   -3.7588   22.6872 C   0  0  0  0  0  0  0  0  0  0  0  0
  -28.3366  -19.5590   18.5426 C   0  0  0  0  0  0  0  0  0  0  0  0
  -26.8712  -27.4124   23.4828 C   0  0  0  0  0  0  0  0  0  0  0  0
  -23.2529   -4.8741   24.0674 C   0  0  0  0  0  0  0  0  0  0  0  0
  -23.9025   -9.9090   20.3241 C   0  0  0  0  0  0  0  0  0  0  0  0
  -29.3333  -20.2457   19.2360 C   0  0  0  0  0  0  0  0  0  0  0  0
  -24.5880  -11.5130   18.4627 C   0  0  0  0  0  0  0  0  0  0  0  0
  -18.4701  -26.8131   23.2437 C   0  0  0  0  0  0  0  0  0  0  0  0
  -24.8636  -27.7685   24.7876 C   0  0  0  0  0  0  0  0  0  0  0  0
  -19.8398  -26.7407   22.9257 C   0  0  0  0  0  0  0  0  0  0  0  0
  -25.7991  -28.2380   23.8546 C   0  0  0  0  0  0  0  0  0  0  0  0
  -29.2568  -17.4578   19.3011 C   0  0  0  0  0  0  0  0  0  0  0  0
  -22.1174   -8.2222   21.6472 C   0  0  0  0  0  0  0  0  0  0  0  0
  -27.0178  -26.1427   24.0408 C   0  0  0  0  0  0  0  0  0  0  0  0
  -21.7199   -6.1721   22.7249 C   0  0  0  0  0  0  0  0  0  0  0  0
  -22.6708   -3.6979   23.5947 C   0  0  0  0  0  0  0  0  0  0  0  0
  -28.2984  -18.1650   18.5752 C   0  0  0  0  0  0  0  0  0  0  0  0
  -22.7774   -6.1112   23.6325 C   0  0  0  0  0  0  0  0  0  0  0  0
  -24.8246  -10.7807   19.6415 C   0  0  0  0  0  0  0  0  0  0  0  0
  -25.7674  -12.1769   18.2285 C   0  0  0  0  0  0  0  0  0  0  0  0
  -29.1581  -24.2332   21.8860 C   0  0  0  0  0  0  0  0  0  0  0  0
  -28.1720  -25.0030   22.3556 C   0  0  0  0  0  0  0  0  0  1  0  0
  -29.3729  -21.7214   19.2011 C   0  0  0  0  0  0  0  0  0  0  0  0
  -23.4077  -11.5867   17.6521 C   0  0  0  0  0  0  0  0  0  0  0  0
  -22.6276  -29.1643   23.0112 C   0  0  0  0  0  0  0  0  0  0  0  0
  -24.4617  -31.8004   23.4684 C   0  0  0  0  0  0  0  0  0  0  0  0
  -27.5350  -33.1042   24.1766 C   0  0  0  0  0  0  0  0  0  0  0  0
  -30.0972  -15.1909   20.0094 C   0  0  0  0  0  0  0  0  0  0  0  0
  -17.6486  -28.0406   22.9383 C   0  0  0  0  0  0  0  0  0  0  0  0
  -23.7183  -28.6409   25.2230 C   0  0  0  0  0  0  0  0  0  0  0  0
  -25.6811  -29.6043   23.2320 C   0  0  0  0  0  0  0  0  0  0  0  0
  -18.4899  -29.2892   22.6864 C   0  0  0  0  0  0  0  0  0  0  0  0
  -30.3227  -11.6563   20.3730 C   0  0  0  0  0  0  0  0  0  0  0  0
  -19.6409  -28.9747   21.7361 C   0  0  0  0  0  0  0  0  0  0  0  0
  -28.8930  -11.1736   20.1182 C   0  0  0  0  0  0  0  0  0  0  0  0
  -30.3469  -12.9852   21.1261 C   0  0  0  0  0  0  0  0  0  0  0  0
  -28.1142  -13.5733   20.2670 C   0  0  0  0  0  0  0  0  0  0  0  0
  -20.5801  -27.9218   22.3367 C   0  0  1  0  0  0  0  0  0  0  0  0
  -23.3631  -29.7153   24.1999 C   0  0  1  0  0  0  0  0  0  0  0  0
  -28.0378  -12.2706   19.4541 C   0  0  2  0  0  0  0  0  0  0  0  0
  -28.7322  -35.2936   24.4435 C   0  0  0  0  0  0  0  0  0  0  0  0
  -24.4995  -32.1465   20.4371 C   0  0  0  0  0  0  0  0  0  0  0  0
  -26.4293  -33.7179   20.7104 C   0  0  0  0  0  0  0  0  0  0  0  0
  -24.2191  -34.2711   21.7263 C   0  0  0  0  0  0  0  0  0  0  0  0
  -28.2246  -32.5163   26.9940 C   0  0  0  0  0  0  0  0  0  0  0  0
  -29.2923  -23.8496   20.4505 C   0  0  0  0  0  0  0  0  0  0  0  0
  -25.6252  -32.4322   22.7430 C   0  0  1  0  0  0  0  0  0  0  0  0
  -27.9712  -34.1832   25.1513 C   0  0  2  0  0  0  0  0  0  0  0  0
  -25.1947  -33.1154   21.4143 C   0  0  0  0  0  0  0  0  0  0  0  0
  -26.0574  -10.9619   20.1225 N   0  0  0  0  0  0  0  0  0  0  0  0
  -26.6061  -11.8157   19.2415 N   0  0  0  0  0  0  0  0  0  0  0  0
  -24.5406  -30.4174   23.6855 N   0  0  0  0  0  0  0  0  0  0  0  0
  -29.5188  -13.9769   20.4366 N   0  0  0  0  0  0  0  0  0  0  0  0
  -26.1584  -13.0286   17.2568 N   0  0  0  0  0  0  0  0  0  0  0  0
  -29.5116  -22.3182   18.0172 N   0  0  0  0  0  0  0  0  0  0  0  0
  -22.2853  -10.8407   18.0368 N   0  0  0  0  0  0  0  0  0  0  0  0
  -29.2208  -16.0417   19.3365 N   0  0  0  0  0  0  0  0  0  0  0  0
  -21.4453  -28.5233   23.3287 N   0  0  0  0  0  0  0  0  0  0  0  0
  -26.2619  -33.3321   23.6986 N   0  0  0  0  0  0  0  0  0  0  0  0
  -29.2703  -22.3904   20.3574 N   0  3  0  0  0  0  0  0  0  0  0  0
  -28.8543  -33.6048   26.2032 N   0  3  0  0  0  0  0  0  0  0  0  0
  -23.3555  -12.2803   16.6082 O   0  0  0  0  0  0  0  0  0  0  0  0
  -23.0972  -29.3111   21.8888 O   0  0  0  0  0  0  0  0  0  0  0  0
  -23.5210  -32.5089   23.8354 O   0  0  0  0  0  0  0  0  0  0  0  0
  -28.2534  -32.1562   23.8672 O   0  0  0  0  0  0  0  0  0  0  0  0
  -31.2893  -15.4446   20.2006 O   0  0  0  0  0  0  0  0  0  0  0  0
  -21.2462   -7.3995   22.2928 O   0  0  0  0  0  0  0  0  0  0  0  0
  -28.0633  -25.3535   23.6721 O   0  0  0  0  0  0  0  0  0  1  0  0
  -23.1263   -2.5099   24.0135 F   0  0  0  0  0  0  0  0  0  0  0  0
  -27.3368  -17.5153   17.9040 F   0  0  0  0  0  0  0  0  0  0  0  0
  -23.3398   -7.2378   24.0909 F   0  0  0  0  0  0  0  0  0  0  0  0
  1  2  1  0  0  0  0
  1  6  2  0  0  0  0
  2  7  2  0  0  0  0
  3 10  2  0  0  0  0
  3 18  1  0  0  0  0
  4 11  1  0  0  0  0
  4 18  2  0  0  0  0
  5  9  2  0  0  0  0
  5 19  1  0  0  0  0
  6 21  1  0  0  0  0
  7 23  1  0  0  0  0
  8 12  2  0  0  0  0
  8 22  1  0  0  0  0
  9 25  1  0  0  0  0
 10 26  1  0  0  0  0
 11 26  2  0  0  0  0
 12 27  1  0  0  0  0
 13 14  2  0  0  0  0
 13 28  1  0  0  0  0
 14 29  1  0  0  0  0
 15 19  2  0  0  0  0
 15 30  1  0  0  0  0
 16 24  1  0  0  0  0
 16 27  2  0  0  0  0
 17 29  2  0  0  0  0
 17 31  1  0  0  0  0
 18 32  1  0  0  0  0
 19 36  1  0  0  0  0
 20 32  1  0  0  0  0
 20 33  2  0  0  0  0
 20 37  1  0  0  0  0
 21 23  2  0  0  0  0
 21 42  1  0  0  0  0
 22 24  2  0  0  0  0
 22 43  1  0  0  0  0
 23 51  1  0  0  0  0
 24 44  1  0  0  0  0
 25 30  2  0  0  0  0
 25 70  1  0  0  0  0
 26 80  1  0  0  0  0
 27 81  1  0  0  0  0
 28 31  2  0  0  0  0
 28 80  1  0  0  0  0
 29 82  1  0  0  0  0
 30 83  1  0  0  0  0
 31 84  1  0  0  0  0
 32 63  2  0  0  0  0
 33 64  1  0  0  0  0
 33 67  1  0  0  0  0
 34 35  2  0  0  0  0
 34 59  1  0  0  0  0
 35 81  1  0  0  0  0
 36 68  1  0  0  0  0
 36 73  2  0  0  0  0
 37 69  1  0  0  0  0
 37 75  2  0  0  0  0
 38 52  1  0  0  0  0
 38 71  1  0  0  0  0
 38 76  2  0  0  0  0
 39 60  1  0  0  0  0
 39 65  1  0  0  0  0
 39 77  2  0  0  0  0
 40 61  1  0  0  0  0
 40 72  1  0  0  0  0
 40 78  2  0  0  0  0
 41 66  1  0  0  0  0
 41 70  1  0  0  0  0
 41 79  2  0  0  0  0
 42 45  1  0  0  0  0
 43 52  1  0  0  0  0
 44 65  1  0  0  0  0
 45 47  1  0  0  0  0
 46 48  1  0  0  0  0
 46 49  1  0  0  0  0
 47 51  1  0  0  0  0
 48 53  1  0  0  0  0
 49 66  1  0  0  0  0
 50 53  1  0  0  0  0
 50 66  1  0  0  0  0
 51 71  1  0  0  0  0
 52 65  1  0  0  0  0
 53 64  1  0  0  0  0
 54 61  1  0  0  0  0
 55 62  1  0  0  0  0
 56 62  1  0  0  0  0
 57 62  1  0  0  0  0
 58 74  1  0  0  0  0
 59 73  1  0  0  0  0
 60 62  1  0  0  0  0
 60 72  1  0  0  0  0
 61 74  1  0  0  0  0
 63 64  1  0  0  0  0
M  CHG  2  73   1  74   1
M  ISO  4  35 101  41 100  70 100  81 101
M  END
> <Batch ID>
0074

> <Smiles>
CNC(C)C(=O)NC(C(=O)N1Cc2cc([101O:1][101CH:1]=CCNC(=N)c3ccc([100NH:0][100C:0](=O)N4CCCC(n5nc(-c6ccc(Oc7ccc(F)cc7F)cc6)c(C(N)=O)c5N)C4)c(F)c3)ccc2CC1C(=O)NC1CCCc2ccccc21)C(C)(C)C

> <Shape>
0.300

> <Color>
0.110

> <Negative vol penalty>
0.000

$$$$

  -OEChem-04042323443D

 88 96  0     1  0  0  0  0  0999 V2000
  -29.9550  -36.3596   22.0068 C   0  0  0  0  0  0  0  0  0  0  0  0
  -30.0105  -35.0443   21.5569 C   0  0  0  0  0  0  0  0  0  0  0  0
  -24.5508   -8.4109   21.3611 C   0  0  0  0  0  0  0  0  0  0  0  0
  -24.4597  -10.2418   22.9347 C   0  0  0  0  0  0  0  0  0  0  0  0
  -30.5108  -19.3571   18.7479 C   0  0  0  0  0  0  0  0  0  0  0  0
  -28.1307  -19.4245   18.3386 C   0  0  0  0  0  0  0  0  0  0  0  0
  -29.0613  -36.7124   23.0171 C   0  0  0  0  0  0  0  0  0  0  0  0
  -29.1730  -34.0808   22.1179 C   0  0  0  0  0  0  0  0  0  0  0  0
  -26.6113  -29.3120   19.2541 C   0  0  0  0  0  0  0  0  0  0  0  0
  -30.4690  -17.9629   18.7614 C   0  0  0  0  0  0  0  0  0  0  0  0
  -28.0889  -18.0304   18.3521 C   0  0  0  0  0  0  0  0  0  0  0  0
  -24.0266   -7.5535   22.3283 C   0  0  0  0  0  0  0  0  0  0  0  0
  -23.9354   -9.3844   23.9020 C   0  0  0  0  0  0  0  0  0  0  0  0
  -26.9638  -27.9654   19.1752 C   0  0  0  0  0  0  0  0  0  0  0  0
  -20.9974   -6.8521   23.6568 C   0  0  0  0  0  0  0  0  0  0  0  0
  -19.9766   -5.9843   23.2690 C   0  0  0  0  0  0  0  0  0  0  0  0
  -25.4413  -27.4675   20.9789 C   0  0  0  0  0  0  0  0  0  0  0  0
  -21.3506   -4.0940   23.8825 C   0  0  0  0  0  0  0  0  0  0  0  0
  -24.7675   -9.7551   21.6643 C   0  0  0  0  0  0  0  0  0  0  0  0
  -29.3417  -20.0879   18.5365 C   0  0  0  0  0  0  0  0  0  0  0  0
  -24.5906  -11.4094   19.7305 C   0  0  0  0  0  0  0  0  0  0  0  0
  -28.2056  -35.7548   23.5840 C   0  0  0  0  0  0  0  0  0  0  0  0
  -25.6776  -29.7488   20.2048 C   0  0  0  0  0  0  0  0  0  0  0  0
  -28.2679  -34.4209   23.1377 C   0  0  0  0  0  0  0  0  0  0  0  0
  -25.0767  -28.8197   21.0660 C   0  0  0  0  0  0  0  0  0  0  0  0
  -29.2581  -17.2996   18.5634 C   0  0  0  0  0  0  0  0  0  0  0  0
  -23.7188   -8.0402   23.5988 C   0  0  0  0  0  0  0  0  0  0  0  0
  -26.3809  -27.0433   20.0396 C   0  0  0  0  0  0  0  0  0  0  0  0
  -22.1948   -6.3410   24.1574 C   0  0  0  0  0  0  0  0  0  0  0  0
  -20.1532   -4.6052   23.3819 C   0  0  0  0  0  0  0  0  0  0  0  0
  -22.3714   -4.9619   24.2703 C   0  0  0  0  0  0  0  0  0  0  0  0
  -25.3096  -10.6412   20.6658 C   0  0  0  0  0  0  0  0  0  0  0  0
  -25.5575  -12.0731   19.0156 C   0  0  0  0  0  0  0  0  0  0  0  0
  -29.3858  -21.5639   18.5223 C   0  0  0  0  0  0  0  0  0  0  0  0
  -23.1753  -11.5139   19.5264 C   0  0  0  0  0  0  0  0  0  0  0  0
  -25.7591  -31.7480   22.6747 C   0  0  0  0  0  0  0  0  0  0  0  0
  -28.5222  -24.1143   20.1203 C   0  0  0  0  0  0  0  0  0  0  0  0
  -22.5693  -31.1639   22.7530 C   0  0  0  0  0  0  0  0  0  0  0  0
  -19.9870  -29.0721   21.9766 C   0  0  0  0  0  0  0  0  0  0  0  0
  -30.2831  -15.0079   18.7733 C   0  0  0  0  0  0  0  0  0  0  0  0
  -27.2896  -36.1737   24.7065 C   0  0  0  0  0  0  0  0  0  0  0  0
  -25.2882  -31.2007   20.2592 C   0  0  0  0  0  0  0  0  0  0  0  0
  -24.0539  -29.2345   22.0909 C   0  0  0  0  0  0  0  0  0  0  0  0
  -26.1731  -35.1714   24.9878 C   0  0  0  0  0  0  0  0  0  0  0  0
  -30.5813  -11.4628   18.9151 C   0  0  0  0  0  0  0  0  0  0  0  0
  -26.7311  -33.7529   25.0449 C   0  0  0  0  0  0  0  0  0  0  0  0
  -29.1773  -10.9962   19.3063 C   0  0  0  0  0  0  0  0  0  0  0  0
  -30.9596  -12.7687   19.6117 C   0  0  0  0  0  0  0  0  0  0  0  0
  -28.5880  -13.3949   19.8412 C   0  0  0  0  0  0  0  0  0  0  0  0
  -27.3582  -33.3524   23.7041 C   0  0  1  0  0  0  0  0  0  0  0  0
  -24.7088  -31.6137   21.6086 C   0  0  1  0  0  0  0  0  0  0  0  0
  -28.1371  -12.1173   19.1146 C   0  0  2  0  0  0  0  0  0  0  0  0
  -17.4978  -28.8474   22.2021 C   0  0  0  0  0  0  0  0  0  0  0  0
  -31.1646  -25.5915   20.7419 C   0  0  0  0  0  0  0  0  0  0  0  0
  -30.7273  -23.5607   22.1207 C   0  0  0  0  0  0  0  0  0  0  0  0
  -32.4215  -23.4806   20.2835 C   0  0  0  0  0  0  0  0  0  0  0  0
  -22.9057  -30.4132   25.6913 C   0  0  0  0  0  0  0  0  0  0  0  0
  -20.6565  -29.3175   25.5967 C   0  0  0  0  0  0  0  0  0  0  0  0
  -20.8656  -31.7694   25.1880 C   0  0  0  0  0  0  0  0  0  0  0  0
  -19.6086  -29.0282   19.0417 C   0  0  0  0  0  0  0  0  0  0  0  0
  -28.0469  -25.4261   19.5249 C   0  0  0  0  0  0  0  0  0  1  0  0
  -29.9180  -23.6557   19.7216 C   0  0  1  0  0  0  0  0  0  0  0  0
  -21.6852  -30.1458   23.4318 C   0  0  1  0  0  0  0  0  0  0  0  0
  -18.6412  -29.3322   21.3243 C   0  0  2  0  0  0  0  0  0  0  0  0
  -31.0529  -24.0527   20.6978 C   0  0  0  0  0  0  0  0  0  0  0  0
  -21.5489  -30.4037   24.9590 C   0  0  0  0  0  0  0  0  0  0  0  0
  -26.6312  -10.8009   20.5571 N   0  0  0  0  0  0  0  0  0  0  0  0
  -26.7503  -11.6772   19.5452 N   0  0  0  0  0  0  0  0  0  0  0  0
  -23.7110  -30.6661   22.1092 N   0  0  0  0  0  0  0  0  0  0  0  0
  -29.9305  -13.7852   19.3827 N   0  0  0  0  0  0  0  0  0  0  0  0
  -25.4952  -12.9509   17.9918 N   0  0  0  0  0  0  0  0  0  0  0  0
  -22.3244  -10.7634   20.3492 N   0  0  0  0  0  0  0  0  0  0  0  0
  -29.2155  -15.8833   18.5771 N   0  0  0  0  0  0  0  0  0  0  0  0
  -29.8124  -22.1977   19.6210 N   0  0  0  0  0  0  0  0  0  0  0  0
  -26.3286  -33.0049   22.7483 N   0  0  0  0  0  0  0  0  0  0  0  0
  -20.4184  -30.1582   22.7084 N   0  0  0  0  0  0  0  0  0  0  0  0
  -28.9951  -22.1935   17.4141 N   0  3  0  0  0  0  0  0  0  0  0  0
  -18.5570  -28.6300   20.0125 N   0  3  0  0  0  0  0  0  0  0  0  0
  -22.6805  -12.2383   18.6298 O   0  0  0  0  0  0  0  0  0  0  0  0
  -26.0316  -30.7832   23.3793 O   0  0  0  0  0  0  0  0  0  0  0  0
  -27.8084  -23.4528   20.8744 O   0  0  0  0  0  0  0  0  0  0  0  0
  -22.2546  -32.3562   22.7864 O   0  0  0  0  0  0  0  0  0  0  0  0
  -20.5931  -28.0101   21.8527 O   0  0  0  0  0  0  0  0  0  0  0  0
  -31.4416  -15.2488   18.4245 O   0  0  0  0  0  0  0  0  0  0  0  0
  -23.2070   -7.2039   24.5428 O   0  0  0  0  0  0  0  0  0  0  0  0
  -26.7237  -25.7285   19.9653 O   0  0  0  0  0  0  0  0  0  1  0  0
  -19.1722   -3.7720   23.0109 F   0  0  0  0  0  0  0  0  0  0  0  0
  -23.5191   -4.4650   24.7516 F   0  0  0  0  0  0  0  0  0  0  0  0
  1  2  1  0  0  0  0
  1  7  2  0  0  0  0
  2  8  2  0  0  0  0
  3 12  2  0  0  0  0
  3 19  1  0  0  0  0
  4 13  1  0  0  0  0
  4 19  2  0  0  0  0
  5 10  2  0  0  0  0
  5 20  1  0  0  0  0
  6 11  1  0  0  0  0
  6 20  2  0  0  0  0
  7 22  1  0  0  0  0
  8 24  1  0  0  0  0
  9 14  2  0  0  0  0
  9 23  1  0  0  0  0
 10 26  1  0  0  0  0
 11 26  2  0  0  0  0
 12 27  1  0  0  0  0
 13 27  2  0  0  0  0
 14 28  1  0  0  0  0
 15 16  2  0  0  0  0
 15 29  1  0  0  0  0
 16 30  1  0  0  0  0
 17 25  1  0  0  0  0
 17 28  2  0  0  0  0
 18 30  2  0  0  0  0
 18 31  1  0  0  0  0
 19 32  1  0  0  0  0
 20 34  1  0  0  0  0
 21 32  1  0  0  0  0
 21 33  2  0  0  0  0
 21 35  1  0  0  0  0
 22 24  2  0  0  0  0
 22 41  1  0  0  0  0
 23 25  2  0  0  0  0
 23 42  1  0  0  0  0
 24 50  1  0  0  0  0
 25 43  1  0  0  0  0
 26 73  1  0  0  0  0
 27 85  1  0  0  0  0
 28 86  1  0  0  0  0
 29 31  2  0  0  0  0
 29 85  1  0  0  0  0
 30 87  1  0  0  0  0
 31 88  1  0  0  0  0
 32 67  2  0  0  0  0
 33 68  1  0  0  0  0
 33 71  1  0  0  0  0
 34 74  1  0  0  0  0
 34 77  2  0  0  0  0
 35 72  1  0  0  0  0
 35 79  2  0  0  0  0
 36 51  1  0  0  0  0
 36 75  1  0  0  0  0
 36 80  2  0  0  0  0
 37 61  1  0  0  0  0
 37 62  1  0  0  0  0
 37 81  2  0  0  0  0
 38 63  1  0  0  0  0
 38 69  1  0  0  0  0
 38 82  2  0  0  0  0
 39 64  1  0  0  0  0
 39 76  1  0  0  0  0
 39 83  2  0  0  0  0
 40 70  1  0  0  0  0
 40 73  1  0  0  0  0
 40 84  2  0  0  0  0
 41 44  1  0  0  0  0
 42 51  1  0  0  0  0
 43 69  1  0  0  0  0
 44 46  1  0  0  0  0
 45 47  1  0  0  0  0
 45 48  1  0  0  0  0
 46 50  1  0  0  0  0
 47 52  1  0  0  0  0
 48 70  1  0  0  0  0
 49 52  1  0  0  0  0
 49 70  1  0  0  0  0
 50 75  1  0  0  0  0
 51 69  1  0  0  0  0
 52 68  1  0  0  0  0
 53 64  1  0  0  0  0
 54 65  1  0  0  0  0
 55 65  1  0  0  0  0
 56 65  1  0  0  0  0
 57 66  1  0  0  0  0
 58 66  1  0  0  0  0
 59 66  1  0  0  0  0
 60 78  1  0  0  0  0
 61 86  1  0  0  0  0
 62 65  1  0  0  0  0
 62 74  1  0  0  0  0
 63 66  1  0  0  0  0
 63 76  1  0  0  0  0
 64 78  1  0  0  0  0
 67 68  1  0  0  0  0
M  CHG  2  77   1  78   1
M  ISO  4  40 100  61 101  73 100  86 101
M  END
> <Batch ID>
0074

> <Smiles>
CNC(C)C(=O)NC(C(=O)N1Cc2cc([101O:1][101CH2:1]C(=O)C(NC(=N)c3ccc([100NH:0][100C:0](=O)N4CCCC(n5nc(-c6ccc(Oc7ccc(F)cc7F)cc6)c(C(N)=O)c5N)C4)cc3)C(C)(C)C)ccc2CC1C(=O)NC1CCCc2ccccc21)C(C)(C)C

> <Shape>
0.311

> <Color>
0.073

> <Negative vol penalty>
0.000

$$$$

  -OEChem-04042323443D

 87 96  0     1  0  0  0  0  0999 V2000
  -18.6333  -24.7339   20.8686 C   0  0  0  0  0  0  0  0  0  0  0  0
  -19.8649  -25.0750   20.3190 C   0  0  0  0  0  0  0  0  0  0  0  0
  -25.3119  -11.7575   20.7823 C   0  0  0  0  0  0  0  0  0  0  0  0
  -23.1388  -12.8000   20.6163 C   0  0  0  0  0  0  0  0  0  0  0  0
  -18.1521  -25.4240   21.9804 C   0  0  0  0  0  0  0  0  0  0  0  0
  -20.6157  -26.1074   20.8803 C   0  0  0  0  0  0  0  0  0  0  0  0
  -25.5119  -24.9078   21.3635 C   0  0  0  0  0  0  0  0  0  0  0  0
  -33.2091  -23.7495   20.6528 C   0  0  0  0  0  0  0  0  0  0  0  0
  -33.7270  -22.6430   21.3260 C   0  0  0  0  0  0  0  0  0  0  0  0
  -24.7878  -10.8037   21.6547 C   0  0  0  0  0  0  0  0  0  0  0  0
  -22.6146  -11.8462   21.4888 C   0  0  0  0  0  0  0  0  0  0  0  0
  -26.2990  -24.9699   20.2144 C   0  0  0  0  0  0  0  0  0  0  0  0
  -22.9489   -7.9744   21.4394 C   0  0  0  0  0  0  0  0  0  0  0  0
  -23.2945   -6.6402   21.2248 C   0  0  0  0  0  0  0  0  0  0  0  0
  -31.3981  -22.3899   19.8111 C   0  0  0  0  0  0  0  0  0  0  0  0
  -27.1382  -27.1210   20.9127 C   0  0  0  0  0  0  0  0  0  0  0  0
  -24.2856   -6.5429   23.4260 C   0  0  0  0  0  0  0  0  0  0  0  0
  -24.4874  -12.7557   20.2631 C   0  0  0  0  0  0  0  0  0  0  0  0
  -31.9159  -21.2834   20.4842 C   0  0  0  0  0  0  0  0  0  0  0  0
  -25.0978  -13.6632   17.9584 C   0  0  0  0  0  0  0  0  0  0  0  0
  -18.9018  -26.4588   22.5615 C   0  0  0  0  0  0  0  0  0  0  0  0
  -25.5238  -25.9586   22.2920 C   0  0  0  0  0  0  0  0  0  0  0  0
  -20.1435  -26.8128   22.0001 C   0  0  0  0  0  0  0  0  0  0  0  0
  -26.3522  -27.0687   22.0740 C   0  0  0  0  0  0  0  0  0  0  0  0
  -32.0446  -23.6229   19.8954 C   0  0  0  0  0  0  0  0  0  0  0  0
  -33.0804  -21.4099   21.2416 C   0  0  0  0  0  0  0  0  0  0  0  0
  -23.4391  -10.8481   22.0080 C   0  0  0  0  0  0  0  0  0  0  0  0
  -27.1102  -26.0779   19.9874 C   0  0  0  0  0  0  0  0  0  0  0  0
  -23.2717   -8.5929   22.6472 C   0  0  0  0  0  0  0  0  0  0  0  0
  -23.9628   -5.9245   22.2181 C   0  0  0  0  0  0  0  0  0  0  0  0
  -23.9400   -7.8772   23.6405 C   0  0  0  0  0  0  0  0  0  0  0  0
  -25.0284  -13.7416   19.3623 C   0  0  0  0  0  0  0  0  0  0  0  0
  -25.6913  -14.8418   17.5776 C   0  0  0  0  0  0  0  0  0  0  0  0
  -30.3549  -24.7873   18.4056 C   0  0  0  0  0  0  0  0  0  0  0  0
  -31.2139  -20.0104   20.3723 C   0  0  0  0  0  0  0  0  0  0  0  0
  -29.9336  -19.7917   20.7330 C   0  0  0  0  0  0  0  0  0  0  0  0
  -24.6644  -12.6184   17.0774 C   0  0  0  0  0  0  0  0  0  0  0  0
  -29.3599  -18.4436   20.5478 C   0  0  0  0  0  0  0  0  0  0  0  0
  -23.3512  -27.9967   23.4010 C   0  0  0  0  0  0  0  0  0  0  0  0
  -25.7561  -28.8697   25.3951 C   0  0  0  0  0  0  0  0  0  0  0  0
  -29.1128  -29.0279   25.9905 C   0  0  0  0  0  0  0  0  0  0  0  0
  -18.3189  -27.2075   23.7338 C   0  0  0  0  0  0  0  0  0  0  0  0
  -24.6891  -25.8644   23.5397 C   0  0  0  0  0  0  0  0  0  0  0  0
  -26.4165  -28.2141   23.0500 C   0  0  0  0  0  0  0  0  0  0  0  0
  -19.3464  -28.0394   24.4971 C   0  0  0  0  0  0  0  0  0  0  0  0
  -26.2138  -19.3885   18.9227 C   0  0  0  0  0  0  0  0  0  0  0  0
  -20.2117  -28.8391   23.5284 C   0  0  0  0  0  0  0  0  0  0  0  0
  -25.5419  -18.0266   18.7692 C   0  0  0  0  0  0  0  0  0  0  0  0
  -31.5107  -26.8582   18.1674 C   0  0  0  0  0  0  0  0  0  0  0  0
  -27.0502  -19.4729   20.1986 C   0  0  0  0  0  0  0  0  0  0  0  0
  -32.1249  -26.0686   19.3074 C   0  0  0  0  0  0  0  0  0  0  0  0
  -27.3856  -17.0179   20.1705 C   0  0  0  0  0  0  0  0  0  0  0  0
  -20.9985  -27.9103   22.5958 C   0  0  1  0  0  0  0  0  0  0  0  0
  -24.3906  -27.2244   24.1631 C   0  0  1  0  0  0  0  0  0  0  0  0
  -26.5768  -16.8948   18.8697 C   0  0  1  0  0  0  0  0  0  0  0  0
  -30.1200  -26.2411   17.9984 C   0  0  1  0  0  0  0  0  0  0  0  0
  -29.6275  -26.3475   16.5572 C   0  0  0  0  0  0  0  0  0  0  0  0
  -30.7765  -29.8302   27.6892 C   0  0  0  0  0  0  0  0  0  0  0  0
  -25.3150  -31.7426   24.4666 C   0  0  0  0  0  0  0  0  0  0  0  0
  -27.5517  -32.3236   25.4297 C   0  0  0  0  0  0  0  0  0  0  0  0
  -25.7323  -31.4915   26.9196 C   0  0  0  0  0  0  0  0  0  0  0  0
  -30.1618  -26.2948   26.4249 C   0  0  0  0  0  0  0  0  0  0  0  0
  -29.1029  -26.8691   18.9585 C   0  0  0  0  0  0  0  0  0  1  0  0
  -26.8757  -29.8811   25.3412 C   0  0  1  0  0  0  0  0  0  0  0  0
  -29.9383  -28.6557   27.2089 C   0  0  2  0  0  0  0  0  0  0  0  0
  -26.3662  -31.3391   25.5197 C   0  0  0  0  0  0  0  0  0  0  0  0
  -25.5374  -14.8799   19.8409 N   0  0  0  0  0  0  0  0  0  0  0  0
  -25.9323  -15.5277   18.7316 N   0  0  0  0  0  0  0  0  0  0  0  0
  -31.5156  -24.7560   19.2062 N   0  0  0  0  0  0  0  0  0  0  0  0
  -27.9916  -18.3477   20.3004 N   0  0  0  0  0  0  0  0  0  0  0  0
  -25.5771  -28.0781   24.2518 N   0  0  0  0  0  0  0  0  0  0  0  0
  -33.6272  -20.3053   21.9338 N   0  0  0  0  0  0  0  0  0  0  0  0
  -26.0255  -15.3480   16.3716 N   0  0  0  0  0  0  0  0  0  0  0  0
  -24.0745  -11.4759   17.6351 N   0  0  0  0  0  0  0  0  0  0  0  0
  -22.1375  -27.3459   23.2877 N   0  0  0  0  0  0  0  0  0  0  0  0
  -27.8522  -29.4627   26.3411 N   0  0  0  0  0  0  0  0  0  0  0  0
  -30.8543  -27.5247   26.8882 N   0  3  0  0  0  0  0  0  0  0  0  0
  -29.5924  -23.8797   18.1040 O   0  0  0  0  0  0  0  0  0  0  0  0
  -24.8112  -12.6886   15.8336 O   0  0  0  0  0  0  0  0  0  0  0  0
  -30.1276  -17.4829   20.6283 O   0  0  0  0  0  0  0  0  0  0  0  0
  -23.6292  -29.1019   22.9505 O   0  0  0  0  0  0  0  0  0  0  0  0
  -25.0705  -28.7804   26.4166 O   0  0  0  0  0  0  0  0  0  0  0  0
  -29.5445  -28.9449   24.8427 O   0  0  0  0  0  0  0  0  0  0  0  0
  -22.9273   -9.9174   22.8591 O   0  0  0  0  0  0  0  0  0  0  0  0
  -27.8790  -26.1413   18.8664 O   0  0  0  0  0  0  0  0  0  1  0  0
  -24.2932   -4.6428   22.0124 F   0  0  0  0  0  0  0  0  0  0  0  0
  -24.2518   -8.4656   24.8035 F   0  0  0  0  0  0  0  0  0  0  0  0
  1  2  1  0  0  0  0
  1  5  2  0  0  0  0
  2  6  2  0  0  0  0
  3 10  2  0  0  0  0
  3 18  1  0  0  0  0
  4 11  1  0  0  0  0
  4 18  2  0  0  0  0
  5 21  1  0  0  0  0
  6 23  1  0  0  0  0
  7 12  2  0  0  0  0
  7 22  1  0  0  0  0
  8  9  2  0  0  0  0
  8 25  1  0  0  0  0
  9 26  1  0  0  0  0
 10 27  1  0  0  0  0
 11 27  2  0  0  0  0
 12 28  1  0  0  0  0
 13 14  2  0  0  0  0
 13 29  1  0  0  0  0
 14 30  1  0  0  0  0
 15 19  1  0  0  0  0
 15 25  2  0  0  0  0
 16 24  1  0  0  0  0
 16 28  2  0  0  0  0
 17 30  2  0  0  0  0
 17 31  1  0  0  0  0
 18 32  1  0  0  0  0
 19 26  2  0  0  0  0
 19 35  1  0  0  0  0
 20 32  1  0  0  0  0
 20 33  2  0  0  0  0
 20 37  1  0  0  0  0
 21 23  2  0  0  0  0
 21 42  1  0  0  0  0
 22 24  2  0  0  0  0
 22 43  1  0  0  0  0
 23 53  1  0  0  0  0
 24 44  1  0  0  0  0
 25 69  1  0  0  0  0
 26 72  1  0  0  0  0
 27 84  1  0  0  0  0
 28 85  1  0  0  0  0
 29 31  2  0  0  0  0
 29 84  1  0  0  0  0
 30 86  1  0  0  0  0
 31 87  1  0  0  0  0
 32 67  2  0  0  0  0
 33 68  1  0  0  0  0
 33 73  1  0  0  0  0
 34 56  1  0  0  0  0
 34 69  1  0  0  0  0
 34 78  2  0  0  0  0
 35 36  2  0  0  0  0
 36 38  1  0  0  0  0
 37 74  1  0  0  0  0
 37 79  2  0  0  0  0
 38 70  1  0  0  0  0
 38 80  2  0  0  0  0
 39 54  1  0  0  0  0
 39 75  1  0  0  0  0
 39 81  2  0  0  0  0
 40 64  1  0  0  0  0
 40 71  1  0  0  0  0
 40 82  2  0  0  0  0
 41 65  1  0  0  0  0
 41 76  1  0  0  0  0
 41 83  2  0  0  0  0
 42 45  1  0  0  0  0
 43 54  1  0  0  0  0
 44 71  1  0  0  0  0
 45 47  1  0  0  0  0
 46 48  1  0  0  0  0
 46 50  1  0  0  0  0
 47 53  1  0  0  0  0
 48 55  1  0  0  0  0
 49 51  1  0  0  0  0
 49 56  1  0  0  0  0
 50 70  1  0  0  0  0
 51 69  1  0  0  0  0
 52 55  1  0  0  0  0
 52 70  1  0  0  0  0
 53 75  1  0  0  0  0
 54 71  1  0  0  0  0
 55 68  1  0  0  0  0
 56 57  1  0  0  0  0
 56 63  1  0  0  0  0
 58 65  1  0  0  0  0
 59 66  1  0  0  0  0
 60 66  1  0  0  0  0
 61 66  1  0  0  0  0
 62 77  1  0  0  0  0
 63 85  1  0  0  0  0
 64 66  1  0  0  0  0
 64 76  1  0  0  0  0
 65 77  1  0  0  0  0
 67 68  1  0  0  0  0
M  CHG  1  77   1
M  ISO  4  36 100  38 100  63 101  85 101
M  END
> <Batch ID>
0074

> <Smiles>
CNC(C)C(=O)NC(C(=O)N1Cc2cc([101O:1][101CH2:1]C3(C)CCN(c4ccc(N)c(C=[100CH:0][100C:0](=O)N5CCCC(n6nc(-c7ccc(Oc8ccc(F)cc8F)cc7)c(C(N)=O)c6N)C5)c4)C3=O)ccc2CC1C(=O)NC1CCCc2ccccc21)C(C)(C)C

> <Shape>
0.242

> <Color>
0.073

> <Negative vol penalty>
0.000

$$$$

  -OEChem-04042323443D

 85 94  0     1  0  0  0  0  0999 V2000
  -28.9072  -24.3839   17.8423 C   0  0  0  0  0  0  0  0  0  0  0  0
  -27.6629  -24.5937   18.4279 C   0  0  0  0  0  0  0  0  0  0  0  0
  -28.0746  -19.0158   22.8990 C   0  0  0  0  0  0  0  0  0  0  0  0
  -26.9686  -21.0595   22.2378 C   0  0  0  0  0  0  0  0  0  0  0  0
  -30.0413  -24.9895   18.3818 C   0  0  0  0  0  0  0  0  0  0  0  0
  -27.5520  -25.4083   19.5542 C   0  0  0  0  0  0  0  0  0  0  0  0
  -23.6475  -28.6190   19.2527 C   0  0  0  0  0  0  0  0  0  0  0  0
  -28.8186  -19.0367   21.7194 C   0  0  0  0  0  0  0  0  0  0  0  0
  -27.7127  -21.0805   21.0582 C   0  0  0  0  0  0  0  0  0  0  0  0
  -22.3778  -28.1034   19.5096 C   0  0  0  0  0  0  0  0  0  0  0  0
  -30.7510  -18.3594   18.7143 C   0  0  0  0  0  0  0  0  0  0  0  0
  -30.8774  -17.1655   18.0042 C   0  0  0  0  0  0  0  0  0  0  0  0
  -22.4700  -29.0064   21.7446 C   0  0  0  0  0  0  0  0  0  0  0  0
  -16.8607  -22.4011   22.9376 C   0  0  0  0  0  0  0  0  0  0  0  0
  -17.6869  -20.4110   24.0302 C   0  0  0  0  0  0  0  0  0  0  0  0
  -19.1006  -22.3612   23.8422 C   0  0  0  0  0  0  0  0  0  0  0  0
  -28.4768  -17.0613   17.7521 C   0  0  0  0  0  0  0  0  0  0  0  0
  -27.1495  -20.0272   23.1583 C   0  0  0  0  0  0  0  0  0  0  0  0
  -26.7244  -20.5912   25.6095 C   0  0  0  0  0  0  0  0  0  0  0  0
  -29.9429  -25.8198   19.5095 C   0  0  0  0  0  0  0  0  0  0  0  0
  -24.3436  -29.3240   20.2451 C   0  0  0  0  0  0  0  0  0  0  0  0
  -28.6860  -26.0245   20.1101 C   0  0  0  0  0  0  0  0  0  0  0  0
  -23.7472  -29.5321   21.4970 C   0  0  0  0  0  0  0  0  0  0  0  0
  -16.6649  -21.0877   23.3644 C   0  0  0  0  0  0  0  0  0  0  0  0
  -18.0786  -23.0378   23.1764 C   0  0  0  0  0  0  0  0  0  0  0  0
  -18.9048  -21.0477   24.2691 C   0  0  0  0  0  0  0  0  0  0  0  0
  -28.6377  -20.0691   20.7990 C   0  0  0  0  0  0  0  0  0  0  0  0
  -21.7901  -28.2946   20.7566 C   0  0  0  0  0  0  0  0  0  0  0  0
  -29.4875  -18.9042   18.9434 C   0  0  0  0  0  0  0  0  0  0  0  0
  -29.7403  -16.5165   17.5231 C   0  0  0  0  0  0  0  0  0  0  0  0
  -28.3504  -18.2552   18.4623 C   0  0  0  0  0  0  0  0  0  0  0  0
  -26.3802  -20.0058   24.3764 C   0  0  0  0  0  0  0  0  0  0  0  0
  -25.6712  -20.2904   26.4382 C   0  0  0  0  0  0  0  0  0  0  0  0
  -19.3991  -25.1071   22.9055 C   0  0  0  0  0  0  0  0  0  0  0  0
  -19.2554  -26.3308   22.3788 C   0  0  0  0  0  0  0  0  0  0  0  0
  -17.9191  -26.4285   21.8115 C   0  0  0  0  0  0  0  0  0  0  0  0
  -17.3710  -27.4781   21.1911 C   0  0  0  0  0  0  0  0  0  0  0  0
  -27.8917  -21.3401   25.9734 C   0  0  0  0  0  0  0  0  0  0  0  0
  -27.0835  -28.8942   21.7982 C   0  0  0  0  0  0  0  0  0  0  0  0
  -26.4079  -31.8275   23.0072 C   0  0  0  0  0  0  0  0  0  0  0  0
  -24.0523  -34.1821   23.7515 C   0  0  0  0  0  0  0  0  0  0  0  0
  -19.9116  -19.0548   25.4356 C   0  0  0  0  0  0  0  0  0  0  0  0
  -31.2035  -26.4147   20.0851 C   0  0  0  0  0  0  0  0  0  0  0  0
  -25.7012  -29.8969   19.9434 C   0  0  0  0  0  0  0  0  0  0  0  0
  -24.4442  -30.2993   22.5897 C   0  0  0  0  0  0  0  0  0  0  0  0
  -17.2280  -25.0958   22.0494 C   0  0  0  0  0  0  0  0  0  0  0  0
  -30.9464  -27.5641   21.0562 C   0  0  0  0  0  0  0  0  0  0  0  0
  -22.2699  -16.9895   27.1238 C   0  0  0  0  0  0  0  0  0  0  0  0
  -29.8448  -27.1923   22.0438 C   0  0  0  0  0  0  0  0  0  0  0  0
  -23.6227  -17.5857   26.7280 C   0  0  0  0  0  0  0  0  0  0  0  0
  -21.2678  -17.0428   25.9720 C   0  0  0  0  0  0  0  0  0  0  0  0
  -22.4398  -18.9648   24.9713 C   0  0  0  0  0  0  0  0  0  0  0  0
  -28.5215  -26.9214   21.3179 C   0  0  1  0  0  0  0  0  0  0  0  0
  -26.5323  -30.1558   21.1963 C   0  0  1  0  0  0  0  0  0  0  0  0
  -23.4621  -18.9925   26.1193 C   0  0  2  0  0  0  0  0  0  0  0  0
  -15.3627  -20.4071   23.1089 C   0  0  0  0  0  0  0  0  0  0  0  0
  -23.7988  -36.4622   24.7684 C   0  0  0  0  0  0  0  0  0  0  0  0
  -26.7529  -30.6225   25.7891 C   0  0  0  0  0  0  0  0  0  0  0  0
  -25.5845  -32.6284   26.7268 C   0  0  0  0  0  0  0  0  0  0  0  0
  -27.7444  -32.9013   25.5090 C   0  0  0  0  0  0  0  0  0  0  0  0
  -22.9633  -35.3081   21.2405 C   0  0  0  0  0  0  0  0  0  0  0  0
  -20.2643  -27.4207   22.3579 C   0  0  0  0  0  0  0  0  0  1  0  0
  -25.6503  -32.3403   24.2081 C   0  0  1  0  0  0  0  0  0  0  0  0
  -24.0006  -35.6752   23.4828 C   0  0  2  0  0  0  0  0  0  0  0  0
  -26.4204  -32.1069   25.5385 C   0  0  0  0  0  0  0  0  0  0  0  0
  -25.2007  -19.3802   24.4139 N   0  0  0  0  0  0  0  0  0  0  0  0
  -24.7945  -19.5708   25.6807 N   0  0  0  0  0  0  0  0  0  0  0  0
  -18.2709  -24.3297   22.7564 N   0  0  0  0  0  0  0  0  0  0  0  0
  -25.7726  -30.8343   22.2483 N   0  0  0  0  0  0  0  0  0  0  0  0
  -21.1648  -18.4068   25.4487 N   0  0  0  0  0  0  0  0  0  0  0  0
  -25.4187  -20.5738   27.7338 N   0  0  0  0  0  0  0  0  0  0  0  0
  -28.8764  -21.5572   25.0000 N   0  0  0  0  0  0  0  0  0  0  0  0
  -19.9425  -20.3601   24.9458 N   0  0  0  0  0  0  0  0  0  0  0  0
  -27.8874  -28.1666   20.9415 N   0  0  0  0  0  0  0  0  0  0  0  0
  -25.3459  -33.7400   23.9315 N   0  0  0  0  0  0  0  0  0  0  0  0
  -22.8797  -35.9960   22.5546 N   0  3  0  0  0  0  0  0  0  0  0  0
  -28.0641  -21.7889   27.1319 O   0  0  0  0  0  0  0  0  0  0  0  0
  -26.8015  -28.6032   22.9547 O   0  0  0  0  0  0  0  0  0  0  0  0
  -27.5191  -32.2961   22.7479 O   0  0  0  0  0  0  0  0  0  0  0  0
  -23.0455  -33.4789   23.8008 O   0  0  0  0  0  0  0  0  0  0  0  0
  -18.8912  -18.5027   25.8551 O   0  0  0  0  0  0  0  0  0  0  0  0
  -29.3637  -20.0900   19.6479 O   0  0  0  0  0  0  0  0  0  0  0  0
  -20.5512  -27.7918   21.0102 O   0  0  0  0  0  0  0  0  0  1  0  0
  -29.8619  -15.3708   16.8398 F   0  0  0  0  0  0  0  0  0  0  0  0
  -27.1340  -18.7744   18.6782 F   0  0  0  0  0  0  0  0  0  0  0  0
  1  2  1  0  0  0  0
  1  5  2  0  0  0  0
  2  6  2  0  0  0  0
  3  8  2  0  0  0  0
  3 18  1  0  0  0  0
  4  9  1  0  0  0  0
  4 18  2  0  0  0  0
  5 20  1  0  0  0  0
  6 22  1  0  0  0  0
  7 10  2  0  0  0  0
  7 21  1  0  0  0  0
  8 27  1  0  0  0  0
  9 27  2  0  0  0  0
 10 28  1  0  0  0  0
 11 12  2  0  0  0  0
 11 29  1  0  0  0  0
 12 30  1  0  0  0  0
 13 23  1  0  0  0  0
 13 28  2  0  0  0  0
 14 24  2  0  0  0  0
 14 25  1  0  0  0  0
 15 24  1  0  0  0  0
 15 26  2  0  0  0  0
 16 25  2  0  0  0  0
 16 26  1  0  0  0  0
 17 30  2  0  0  0  0
 17 31  1  0  0  0  0
 18 32  1  0  0  0  0
 19 32  1  0  0  0  0
 19 33  2  0  0  0  0
 19 38  1  0  0  0  0
 20 22  2  0  0  0  0
 20 43  1  0  0  0  0
 21 23  2  0  0  0  0
 21 44  1  0  0  0  0
 22 53  1  0  0  0  0
 23 45  1  0  0  0  0
 24 56  1  0  0  0  0
 25 68  1  0  0  0  0
 26 73  1  0  0  0  0
 27 82  1  0  0  0  0
 28 83  1  0  0  0  0
 29 31  2  0  0  0  0
 29 82  1  0  0  0  0
 30 84  1  0  0  0  0
 31 85  1  0  0  0  0
 32 66  2  0  0  0  0
 33 67  1  0  0  0  0
 33 71  1  0  0  0  0
 34 35  2  0  0  0  0
 34 68  1  0  0  0  0
 35 36  1  0  0  0  0
 35 62  1  0  0  0  0
 36 37  2  0  0  0  0
 36 46  1  0  0  0  0
 38 72  1  0  0  0  0
 38 77  2  0  0  0  0
 39 54  1  0  0  0  0
 39 74  1  0  0  0  0
 39 78  2  0  0  0  0
 40 63  1  0  0  0  0
 40 69  1  0  0  0  0
 40 79  2  0  0  0  0
 41 64  1  0  0  0  0
 41 75  1  0  0  0  0
 41 80  2  0  0  0  0
 42 70  1  0  0  0  0
 42 73  1  0  0  0  0
 42 81  2  0  0  0  0
 43 47  1  0  0  0  0
 44 54  1  0  0  0  0
 45 69  1  0  0  0  0
 46 68  1  0  0  0  0
 47 49  1  0  0  0  0
 48 50  1  0  0  0  0
 48 51  1  0  0  0  0
 49 53  1  0  0  0  0
 50 55  1  0  0  0  0
 51 70  1  0  0  0  0
 52 55  1  0  0  0  0
 52 70  1  0  0  0  0
 53 74  1  0  0  0  0
 54 69  1  0  0  0  0
 55 67  1  0  0  0  0
 57 64  1  0  0  0  0
 58 65  1  0  0  0  0
 59 65  1  0  0  0  0
 60 65  1  0  0  0  0
 61 76  1  0  0  0  0
 62 83  1  0  0  0  0
 63 65  1  0  0  0  0
 63 75  1  0  0  0  0
 64 76  1  0  0  0  0
 66 67  1  0  0  0  0
M  CHG  1  76   1
M  ISO  4  42 100  62 101  73 100  83 101
M  END
> <Batch ID>
0074

> <Smiles>
C=C1CN(c2cc(C)cc([100NH:0][100C:0](=O)N3CCCC(n4nc(-c5ccc(Oc6ccc(F)cc6F)cc5)c(C(N)=O)c4N)C3)c2)C=C1[101CH2:1][101O:1]c1ccc2c(c1)CN(C(=O)C(NC(=O)C(C)NC)C(C)(C)C)C(C(=O)NC1CCCc3ccccc31)C2

> <Shape>
0.247

> <Color>
0.060

> <Negative vol penalty>
0.000

$$$$

  -OEChem-04042323443D

 87 96  0     1  0  0  0  0  0999 V2000
  -23.7259  -34.7457   26.1532 C   0  0  0  0  0  0  0  0  0  0  0  0
  -24.6857  -33.9792   25.5001 C   0  0  0  0  0  0  0  0  0  0  0  0
  -24.8279   -8.6799   20.9404 C   0  0  0  0  0  0  0  0  0  0  0  0
  -23.1544  -10.2236   20.1321 C   0  0  0  0  0  0  0  0  0  0  0  0
  -22.4846  -34.1911   26.4622 C   0  0  0  0  0  0  0  0  0  0  0  0
  -24.4051  -32.6572   25.1565 C   0  0  0  0  0  0  0  0  0  0  0  0
  -26.3534  -29.6515   20.1891 C   0  0  0  0  0  0  0  0  0  0  0  0
  -23.8255   -7.7728   21.2837 C   0  0  0  0  0  0  0  0  0  0  0  0
  -22.1519   -9.3164   20.4753 C   0  0  0  0  0  0  0  0  0  0  0  0
  -27.4032  -28.7568   19.9857 C   0  0  0  0  0  0  0  0  0  0  0  0
  -21.5911   -7.3595   23.7858 C   0  0  0  0  0  0  0  0  0  0  0  0
  -21.6777   -6.7400   25.0326 C   0  0  0  0  0  0  0  0  0  0  0  0
  -25.8792  -26.9106   20.2818 C   0  0  0  0  0  0  0  0  0  0  0  0
  -27.9003  -20.5728   16.8861 C   0  0  0  0  0  0  0  0  0  0  0  0
  -28.0989  -19.5823   19.0807 C   0  0  0  0  0  0  0  0  0  0  0  0
  -27.9200  -18.1691   17.1293 C   0  0  0  0  0  0  0  0  0  0  0  0
  -21.7712   -4.5806   23.9531 C   0  0  0  0  0  0  0  0  0  0  0  0
  -24.4924   -9.9054   20.3647 C   0  0  0  0  0  0  0  0  0  0  0  0
  -26.2063  -10.9354   18.7806 C   0  0  0  0  0  0  0  0  0  0  0  0
  -22.1851  -32.8647   26.1136 C   0  0  0  0  0  0  0  0  0  0  0  0
  -25.0586  -29.1816   20.4515 C   0  0  0  0  0  0  0  0  0  0  0  0
  -23.1591  -32.0840   25.4623 C   0  0  0  0  0  0  0  0  0  0  0  0
  -24.8142  -27.8013   20.4856 C   0  0  0  0  0  0  0  0  0  0  0  0
  -28.0261  -20.7137   18.2681 C   0  0  0  0  0  0  0  0  0  0  0  0
  -27.8471  -19.3005   16.3167 C   0  0  0  0  0  0  0  0  0  0  0  0
  -28.0458  -18.3100   18.5113 C   0  0  0  0  0  0  0  0  0  0  0  0
  -22.4875   -8.0910   21.0511 C   0  0  0  0  0  0  0  0  0  0  0  0
  -27.1668  -27.3862   20.0350 C   0  0  0  0  0  0  0  0  0  0  0  0
  -21.5944   -6.5895   22.6227 C   0  0  0  0  0  0  0  0  0  0  0  0
  -21.7678   -5.3506   25.1162 C   0  0  0  0  0  0  0  0  0  0  0  0
  -21.6845   -5.2000   22.7064 C   0  0  0  0  0  0  0  0  0  0  0  0
  -25.5274  -10.8431   20.0104 C   0  0  0  0  0  0  0  0  0  0  0  0
  -27.0844  -11.9778   18.9506 C   0  0  0  0  0  0  0  0  0  0  0  0
  -28.2270  -23.7279   20.3631 C   0  0  0  0  0  0  0  0  0  0  0  0
  -28.1087  -24.3149   19.0219 C   0  0  0  0  0  0  0  0  0  0  0  0
  -28.2047  -22.2330   20.2000 C   0  0  0  0  0  0  0  0  0  0  0  0
  -26.0564  -10.1493   17.5910 C   0  0  0  0  0  0  0  0  0  0  0  0
  -28.0932  -25.6330   18.7945 C   0  0  0  0  0  0  0  0  0  1  0  0
  -23.0282  -29.4410   22.8834 C   0  0  0  0  0  0  0  0  0  0  0  0
  -21.0089  -27.9178   20.8525 C   0  0  0  0  0  0  0  0  0  0  0  0
  -20.6169  -25.8727   18.1487 C   0  0  0  0  0  0  0  0  0  0  0  0
  -28.2494  -17.1252   20.7252 C   0  0  0  0  0  0  0  0  0  0  0  0
  -20.8466  -32.2943   26.5107 C   0  0  0  0  0  0  0  0  0  0  0  0
  -23.9318  -30.1596   20.6422 C   0  0  0  0  0  0  0  0  0  0  0  0
  -23.4383  -27.2457   20.7437 C   0  0  0  0  0  0  0  0  0  0  0  0
  -28.0140  -23.2030   18.0323 C   0  0  0  0  0  0  0  0  0  0  0  0
  -20.4935  -31.0025   25.7780 C   0  0  0  0  0  0  0  0  0  0  0  0
  -28.4319  -14.5022   23.1259 C   0  0  0  0  0  0  0  0  0  0  0  0
  -21.6808  -30.0448   25.7820 C   0  0  0  0  0  0  0  0  0  0  0  0
  -27.7484  -13.3240   22.4282 C   0  0  0  0  0  0  0  0  0  0  0  0
  -27.7570  -15.8304   22.7882 C   0  0  0  0  0  0  0  0  0  0  0  0
  -26.9210  -14.9239   20.6555 C   0  0  0  0  0  0  0  0  0  0  0  0
  -22.8833  -30.6539   25.0510 C   0  0  1  0  0  0  0  0  0  0  0  0
  -22.7535  -29.5709   21.4119 C   0  0  1  0  0  0  0  0  0  0  0  0
  -27.6055  -13.5717   20.9137 C   0  0  2  0  0  0  0  0  0  0  0  0
  -27.9730  -26.2366   17.4322 C   0  0  0  0  0  0  0  0  0  0  0  0
  -18.8466  -24.7760   16.7485 C   0  0  0  0  0  0  0  0  0  0  0  0
  -20.5403  -25.8629   23.0588 C   0  0  0  0  0  0  0  0  0  0  0  0
  -19.5620  -24.3358   21.3328 C   0  0  0  0  0  0  0  0  0  0  0  0
  -18.4833  -26.5349   21.8052 C   0  0  0  0  0  0  0  0  0  0  0  0
  -21.5037  -27.2925   15.7081 C   0  0  0  0  0  0  0  0  0  0  0  0
  -20.6797  -26.4749   20.5544 C   0  0  1  0  0  0  0  0  0  0  0  0
  -19.7435  -25.9930   16.9129 C   0  0  2  0  0  0  0  0  0  0  0  0
  -19.8427  -25.8123   21.6849 C   0  0  0  0  0  0  0  0  0  0  0  0
  -25.9391  -11.7540   20.8963 N   0  0  0  0  0  0  0  0  0  0  0  0
  -26.8861  -12.4286   20.2224 N   0  0  0  0  0  0  0  0  0  0  0  0
  -28.0803  -21.9822   18.8366 N   0  0  0  0  0  0  0  0  0  0  0  0
  -22.3707  -28.2422   20.9300 N   0  0  0  0  0  0  0  0  0  0  0  0
  -27.6602  -15.9984   21.3365 N   0  0  0  0  0  0  0  0  0  0  0  0
  -27.7199  -19.1574   14.9194 N   0  0  0  0  0  0  0  0  0  0  0  0
  -27.9992  -12.5434   18.1347 N   0  0  0  0  0  0  0  0  0  0  0  0
  -25.1078   -9.1176   17.5870 N   0  0  0  0  0  0  0  0  0  0  0  0
  -28.1214  -17.1610   19.3370 N   0  0  0  0  0  0  0  0  0  0  0  0
  -22.7018  -30.5650   23.6180 N   0  0  0  0  0  0  0  0  0  0  0  0
  -20.0317  -26.4657   19.2474 N   0  0  0  0  0  0  0  0  0  0  0  0
  -20.5884  -26.1225   15.6921 N   0  3  0  0  0  0  0  0  0  0  0  0
  -28.3249  -24.2777   21.4365 O   0  0  0  0  0  0  0  0  0  0  0  0
  -28.2878  -21.4843   21.1521 O   0  0  0  0  0  0  0  0  0  0  0  0
  -26.7549  -10.3451   16.5676 O   0  0  0  0  0  0  0  0  0  0  0  0
  -23.4999  -28.3978   23.3202 O   0  0  0  0  0  0  0  0  0  0  0  0
  -20.0916  -28.7285   21.0037 O   0  0  0  0  0  0  0  0  0  0  0  0
  -21.7074  -25.3058   18.1410 O   0  0  0  0  0  0  0  0  0  0  0  0
  -28.8487  -17.9806   21.3818 O   0  0  0  0  0  0  0  0  0  0  0  0
  -21.5091   -7.2060   21.3857 O   0  0  0  0  0  0  0  0  0  0  0  0
  -28.1898  -26.5108   19.8375 O   0  0  0  0  0  0  0  0  0  1  0  0
  -21.8526   -4.7560   26.3135 F   0  0  0  0  0  0  0  0  0  0  0  0
  -21.6894   -4.4551   21.5924 F   0  0  0  0  0  0  0  0  0  0  0  0
  1  2  1  0  0  0  0
  1  5  2  0  0  0  0
  2  6  2  0  0  0  0
  3  8  2  0  0  0  0
  3 18  1  0  0  0  0
  4  9  1  0  0  0  0
  4 18  2  0  0  0  0
  5 20  1  0  0  0  0
  6 22  1  0  0  0  0
  7 10  2  0  0  0  0
  7 21  1  0  0  0  0
  8 27  1  0  0  0  0
  9 27  2  0  0  0  0
 10 28  1  0  0  0  0
 11 12  2  0  0  0  0
 11 29  1  0  0  0  0
 12 30  1  0  0  0  0
 13 23  1  0  0  0  0
 13 28  2  0  0  0  0
 14 24  1  0  0  0  0
 14 25  2  0  0  0  0
 15 24  2  0  0  0  0
 15 26  1  0  0  0  0
 16 25  1  0  0  0  0
 16 26  2  0  0  0  0
 17 30  2  0  0  0  0
 17 31  1  0  0  0  0
 18 32  1  0  0  0  0
 19 32  1  0  0  0  0
 19 33  2  0  0  0  0
 19 37  1  0  0  0  0
 20 22  2  0  0  0  0
 20 43  1  0  0  0  0
 21 23  2  0  0  0  0
 21 44  1  0  0  0  0
 22 53  1  0  0  0  0
 23 45  1  0  0  0  0
 24 67  1  0  0  0  0
 25 70  1  0  0  0  0
 26 73  1  0  0  0  0
 27 84  1  0  0  0  0
 28 85  1  0  0  0  0
 29 31  2  0  0  0  0
 29 84  1  0  0  0  0
 30 86  1  0  0  0  0
 31 87  1  0  0  0  0
 32 65  2  0  0  0  0
 33 66  1  0  0  0  0
 33 71  1  0  0  0  0
 34 35  1  0  0  0  0
 34 36  1  0  0  0  0
 34 77  2  0  0  0  0
 35 38  2  0  0  0  0
 35 46  1  0  0  0  0
 36 67  1  0  0  0  0
 36 78  2  0  0  0  0
 37 72  1  0  0  0  0
 37 79  2  0  0  0  0
 38 56  1  0  0  0  0
 38 85  1  0  0  0  0
 39 54  1  0  0  0  0
 39 74  1  0  0  0  0
 39 80  2  0  0  0  0
 40 62  1  0  0  0  0
 40 68  1  0  0  0  0
 40 81  2  0  0  0  0
 41 63  1  0  0  0  0
 41 75  1  0  0  0  0
 41 82  2  0  0  0  0
 42 69  1  0  0  0  0
 42 73  1  0  0  0  0
 42 83  2  0  0  0  0
 43 47  1  0  0  0  0
 44 54  1  0  0  0  0
 45 68  1  0  0  0  0
 46 67  1  0  0  0  0
 47 49  1  0  0  0  0
 48 50  1  0  0  0  0
 48 51  1  0  0  0  0
 49 53  1  0  0  0  0
 50 55  1  0  0  0  0
 51 69  1  0  0  0  0
 52 55  1  0  0  0  0
 52 69  1  0  0  0  0
 53 74  1  0  0  0  0
 54 68  1  0  0  0  0
 55 66  1  0  0  0  0
 57 63  1  0  0  0  0
 58 64  1  0  0  0  0
 59 64  1  0  0  0  0
 60 64  1  0  0  0  0
 61 76  1  0  0  0  0
 62 64  1  0  0  0  0
 62 75  1  0  0  0  0
 63 76  1  0  0  0  0
 65 66  1  0  0  0  0
M  CHG  1  76   1
M  ISO  4  38 101  42 100  73 100  85 101
M  END
> <Batch ID>
0074

> <Smiles>
CNC(C)C(=O)NC(C(=O)N1Cc2cc([101O:1][101C:1](C)=C3CN(c4cc(N)cc([100NH:0][100C:0](=O)N5CCCC(n6nc(-c7ccc(Oc8ccc(F)cc8F)cc7)c(C(N)=O)c6N)C5)c4)C(=O)C3=O)ccc2CC1C(=O)NC1CCCc2ccccc21)C(C)(C)C

> <Shape>
0.287

> <Color>
0.110

> <Negative vol penalty>
0.000

$$$$

  -OEChem-04042323443D

 90 99  0     1  0  0  0  0  0999 V2000
  -29.2173  -32.9680   27.0691 C   0  0  0  0  0  0  0  0  0  0  0  0
  -29.2609  -31.8904   26.1903 C   0  0  0  0  0  0  0  0  0  0  0  0
  -24.7205   -8.7574   21.8375 C   0  0  0  0  0  0  0  0  0  0  0  0
  -23.1924   -9.8883   20.3466 C   0  0  0  0  0  0  0  0  0  0  0  0
  -27.9880  -33.4836   27.4777 C   0  0  0  0  0  0  0  0  0  0  0  0
  -28.0750  -31.3270   25.7204 C   0  0  0  0  0  0  0  0  0  0  0  0
  -27.0848  -28.9256   20.1743 C   0  0  0  0  0  0  0  0  0  0  0  0
  -23.6405   -8.1948   22.5178 C   0  0  0  0  0  0  0  0  0  0  0  0
  -22.1124   -9.3257   21.0268 C   0  0  0  0  0  0  0  0  0  0  0  0
  -27.0862  -27.6120   19.7071 C   0  0  0  0  0  0  0  0  0  0  0  0
  -21.4746   -5.6370   22.0714 C   0  0  0  0  0  0  0  0  0  0  0  0
  -21.5422   -4.2796   22.3852 C   0  0  0  0  0  0  0  0  0  0  0  0
  -24.1594  -19.7392   17.8014 C   0  0  0  0  0  0  0  0  0  0  0  0
  -24.6946  -17.3928   17.5907 C   0  0  0  0  0  0  0  0  0  0  0  0
  -24.6904  -27.5208   19.9743 C   0  0  0  0  0  0  0  0  0  0  0  0
  -26.0509  -18.8202   18.9908 C   0  0  0  0  0  0  0  0  0  0  0  0
  -21.3604   -4.8138   24.7344 C   0  0  0  0  0  0  0  0  0  0  0  0
  -24.4965   -9.6042   20.7520 C   0  0  0  0  0  0  0  0  0  0  0  0
  -23.8857  -18.4813   17.2645 C   0  0  0  0  0  0  0  0  0  0  0  0
  -26.2933   -9.6472   18.9416 C   0  0  0  0  0  0  0  0  0  0  0  0
  -26.7866  -32.9324   27.0049 C   0  0  0  0  0  0  0  0  0  0  0  0
  -25.8855  -29.5440   20.5560 C   0  0  0  0  0  0  0  0  0  0  0  0
  -26.8285  -31.8349   26.1240 C   0  0  0  0  0  0  0  0  0  0  0  0
  -24.6762  -28.8432   20.4437 C   0  0  0  0  0  0  0  0  0  0  0  0
  -25.2420  -19.9087   18.6646 C   0  0  0  0  0  0  0  0  0  0  0  0
  -25.7772  -17.5622   18.4539 C   0  0  0  0  0  0  0  0  0  0  0  0
  -22.3365   -8.4789   22.1124 C   0  0  0  0  0  0  0  0  0  0  0  0
  -25.8892  -26.9084   19.6098 C   0  0  0  0  0  0  0  0  0  0  0  0
  -21.3500   -6.5828   23.0890 C   0  0  0  0  0  0  0  0  0  0  0  0
  -21.4850   -3.8680   23.7167 C   0  0  0  0  0  0  0  0  0  0  0  0
  -21.2929   -6.1712   24.4205 C   0  0  0  0  0  0  0  0  0  0  0  0
  -25.6117  -10.1861   20.0493 C   0  0  0  0  0  0  0  0  0  0  0  0
  -27.2630  -10.5753   18.6504 C   0  0  0  0  0  0  0  0  0  0  0  0
  -24.8247  -22.3221   18.9808 C   0  0  0  0  0  0  0  0  0  0  0  0
  -25.3532  -23.3555   19.6504 C   0  0  0  0  0  0  0  0  0  0  0  0
  -26.5064  -22.8735   20.3955 C   0  0  0  0  0  0  0  0  0  0  0  0
  -27.3160  -23.5788   21.1918 C   0  0  0  0  0  0  0  0  0  0  0  0
  -22.7636  -18.3055   16.3697 C   0  0  0  0  0  0  0  0  0  0  0  0
  -26.0698   -8.4176   18.2388 C   0  0  0  0  0  0  0  0  0  0  0  0
  -24.7496  -30.7544   23.2668 C   0  0  0  0  0  0  0  0  0  0  0  0
  -22.2943  -31.6903   21.3648 C   0  0  0  0  0  0  0  0  0  0  0  0
  -20.5902  -17.1249   15.9468 C   0  0  0  0  0  0  0  0  0  0  0  0
  -20.5018  -31.2090   18.5008 C   0  0  0  0  0  0  0  0  0  0  0  0
  -27.7121  -16.4534   19.6258 C   0  0  0  0  0  0  0  0  0  0  0  0
  -25.4816  -33.4935   27.5117 C   0  0  0  0  0  0  0  0  0  0  0  0
  -25.8977  -30.9705   21.0328 C   0  0  0  0  0  0  0  0  0  0  0  0
  -23.3592  -29.4686   20.8214 C   0  0  0  0  0  0  0  0  0  0  0  0
  -26.6415  -21.3871   20.1084 C   0  0  0  0  0  0  0  0  0  0  0  0
  -24.2743  -33.0790   26.6745 C   0  0  0  0  0  0  0  0  0  0  0  0
  -29.9754  -13.9337   20.7236 C   0  0  0  0  0  0  0  0  0  0  0  0
  -24.3155  -31.5823   26.3826 C   0  0  0  0  0  0  0  0  0  0  0  0
  -29.1774  -12.6370   20.5687 C   0  0  0  0  0  0  0  0  0  0  0  0
  -29.0915  -15.0924   21.1814 C   0  0  0  0  0  0  0  0  0  0  0  0
  -27.0964  -14.0247   20.2073 C   0  0  0  0  0  0  0  0  0  0  0  0
  -25.5641  -31.2124   25.5728 C   0  0  1  0  0  0  0  0  0  0  0  0
  -24.6802  -31.3279   21.8798 C   0  0  1  0  0  0  0  0  0  0  0  0
  -27.9315  -12.8442   19.6853 C   0  0  2  0  0  0  0  0  0  0  0  0
  -19.7026  -16.1215   16.6157 C   0  0  0  0  0  0  0  0  0  0  0  0
  -18.5284  -32.1075   17.2376 C   0  0  0  0  0  0  0  0  0  0  0  0
  -20.4114  -30.3068   23.3271 C   0  0  0  0  0  0  0  0  0  0  0  0
  -18.6263  -30.4031   21.5743 C   0  0  0  0  0  0  0  0  0  0  0  0
  -19.5972  -32.5147   22.4804 C   0  0  0  0  0  0  0  0  0  0  0  0
  -22.1742  -31.9219   16.1654 C   0  0  0  0  0  0  0  0  0  0  0  0
  -24.8703  -24.7600   19.6558 C   0  0  0  0  0  0  0  0  0  1  0  0
  -20.9846  -31.0776   20.9306 C   0  0  1  0  0  0  0  0  0  0  0  0
  -20.0353  -32.1783   17.4296 C   0  0  2  0  0  0  0  0  0  0  0  0
  -19.9298  -31.0628   22.0728 C   0  0  0  0  0  0  0  0  0  0  0  0
  -26.1066  -11.3650   20.4356 N   0  0  0  0  0  0  0  0  0  0  0  0
  -27.1095  -11.5745   19.5659 N   0  0  0  0  0  0  0  0  0  0  0  0
  -25.5115  -21.1461   19.1923 N   0  0  0  0  0  0  0  0  0  0  0  0
  -23.4240  -30.8634   21.2880 N   0  0  0  0  0  0  0  0  0  0  0  0
  -27.9338  -15.2313   20.2952 N   0  0  0  0  0  0  0  0  0  0  0  0
  -28.2235  -10.6258   17.7032 N   0  0  0  0  0  0  0  0  0  0  0  0
  -25.0312   -7.5810   18.6697 N   0  0  0  0  0  0  0  0  0  0  0  0
  -26.5994  -16.4567   18.7852 N   0  0  0  0  0  0  0  0  0  0  0  0
  -21.7754  -17.4413   16.7066 N   0  0  0  0  0  0  0  0  0  0  0  0
  -25.3883  -31.5698   24.1815 N   0  0  0  0  0  0  0  0  0  0  0  0
  -20.5662  -31.8099   19.7402 N   0  0  0  0  0  0  0  0  0  0  0  0
  -22.7288  -19.0101   15.2216 N   0  3  0  0  0  0  0  0  0  0  0  0
  -20.6902  -31.8660   16.1278 N   0  3  0  0  0  0  0  0  0  0  0  0
  -26.7808   -8.0635   17.2679 O   0  0  0  0  0  0  0  0  0  0  0  0
  -24.2585  -29.6542   23.4910 O   0  0  0  0  0  0  0  0  0  0  0  0
  -22.3153  -32.8617   21.7509 O   0  0  0  0  0  0  0  0  0  0  0  0
  -20.3567  -17.6405   14.8628 O   0  0  0  0  0  0  0  0  0  0  0  0
  -20.7777  -30.0353   18.2626 O   0  0  0  0  0  0  0  0  0  0  0  0
  -28.4701  -17.4166   19.7653 O   0  0  0  0  0  0  0  0  0  0  0  0
  -21.2823   -7.9300   22.7757 O   0  0  0  0  0  0  0  0  0  0  0  0
  -25.8878  -25.6260   19.1547 O   0  0  0  0  0  0  0  0  0  1  0  0
  -21.5483   -2.5643   24.0179 F   0  0  0  0  0  0  0  0  0  0  0  0
  -21.1720   -7.0751   25.4024 F   0  0  0  0  0  0  0  0  0  0  0  0
  1  2  1  0  0  0  0
  1  5  2  0  0  0  0
  2  6  2  0  0  0  0
  3  8  2  0  0  0  0
  3 18  1  0  0  0  0
  4  9  1  0  0  0  0
  4 18  2  0  0  0  0
  5 21  1  0  0  0  0
  6 23  1  0  0  0  0
  7 10  2  0  0  0  0
  7 22  1  0  0  0  0
  8 27  1  0  0  0  0
  9 27  2  0  0  0  0
 10 28  1  0  0  0  0
 11 12  2  0  0  0  0
 11 29  1  0  0  0  0
 12 30  1  0  0  0  0
 13 19  1  0  0  0  0
 13 25  2  0  0  0  0
 14 19  2  0  0  0  0
 14 26  1  0  0  0  0
 15 24  1  0  0  0  0
 15 28  2  0  0  0  0
 16 25  1  0  0  0  0
 16 26  2  0  0  0  0
 17 30  2  0  0  0  0
 17 31  1  0  0  0  0
 18 32  1  0  0  0  0
 19 38  1  0  0  0  0
 20 32  1  0  0  0  0
 20 33  2  0  0  0  0
 20 39  1  0  0  0  0
 21 23  2  0  0  0  0
 21 45  1  0  0  0  0
 22 24  2  0  0  0  0
 22 46  1  0  0  0  0
 23 55  1  0  0  0  0
 24 47  1  0  0  0  0
 25 70  1  0  0  0  0
 26 75  1  0  0  0  0
 27 87  1  0  0  0  0
 28 88  1  0  0  0  0
 29 31  2  0  0  0  0
 29 87  1  0  0  0  0
 30 89  1  0  0  0  0
 31 90  1  0  0  0  0
 32 68  2  0  0  0  0
 33 69  1  0  0  0  0
 33 73  1  0  0  0  0
 34 35  2  0  0  0  0
 34 70  1  0  0  0  0
 35 36  1  0  0  0  0
 35 64  1  0  0  0  0
 36 37  2  0  0  0  0
 36 48  1  0  0  0  0
 38 76  1  0  0  0  0
 38 79  2  0  0  0  0
 39 74  1  0  0  0  0
 39 81  2  0  0  0  0
 40 56  1  0  0  0  0
 40 77  1  0  0  0  0
 40 82  2  0  0  0  0
 41 65  1  0  0  0  0
 41 71  1  0  0  0  0
 41 83  2  0  0  0  0
 42 58  1  0  0  0  0
 42 76  1  0  0  0  0
 42 84  2  0  0  0  0
 43 66  1  0  0  0  0
 43 78  1  0  0  0  0
 43 85  2  0  0  0  0
 44 72  1  0  0  0  0
 44 75  1  0  0  0  0
 44 86  2  0  0  0  0
 45 49  1  0  0  0  0
 46 56  1  0  0  0  0
 47 71  1  0  0  0  0
 48 70  1  0  0  0  0
 49 51  1  0  0  0  0
 50 52  1  0  0  0  0
 50 53  1  0  0  0  0
 51 55  1  0  0  0  0
 52 57  1  0  0  0  0
 53 72  1  0  0  0  0
 54 57  1  0  0  0  0
 54 72  1  0  0  0  0
 55 77  1  0  0  0  0
 56 71  1  0  0  0  0
 57 69  1  0  0  0  0
 59 66  1  0  0  0  0
 60 67  1  0  0  0  0
 61 67  1  0  0  0  0
 62 67  1  0  0  0  0
 63 80  1  0  0  0  0
 64 88  1  0  0  0  0
 65 67  1  0  0  0  0
 65 78  1  0  0  0  0
 66 80  1  0  0  0  0
 68 69  1  0  0  0  0
M  CHG  2  79   1  80   1
M  ISO  4  44 100  64 101  75 100  88 101
M  END
> <Batch ID>
0074

> <Smiles>
C=C1CN(c2cc([100NH:0][100C:0](=O)N3CCCC(n4nc(-c5ccc(Oc6ccc(F)cc6F)cc5)c(C(N)=O)c4N)C3)cc(C(=N)NC(C)=O)c2)C=C1[101CH2:1][101O:1]c1ccc2c(c1)CN(C(=O)C(NC(=O)C(C)NC)C(C)(C)C)C(C(=O)NC1CCCc3ccccc31)C2

> <Shape>
0.261

> <Color>
0.095

> <Negative vol penalty>
0.000

$$$$

  -OEChem-04042323443D

 83 91  0     1  0  0  0  0  0999 V2000
  -29.6482  -24.4155   17.2805 C   0  0  0  0  0  0  0  0  0  0  0  0
  -28.4879  -24.4105   18.0481 C   0  0  0  0  0  0  0  0  0  0  0  0
  -26.9964  -15.4921   19.4470 C   0  0  0  0  0  0  0  0  0  0  0  0
  -26.7667  -16.6593   21.5498 C   0  0  0  0  0  0  0  0  0  0  0  0
  -30.7105  -25.2480   17.6303 C   0  0  0  0  0  0  0  0  0  0  0  0
  -28.3897  -25.2374   19.1667 C   0  0  0  0  0  0  0  0  0  0  0  0
  -23.9357  -27.6329   19.4268 C   0  0  0  0  0  0  0  0  0  0  0  0
  -18.3107  -22.5703   21.5155 C   0  0  0  0  0  0  0  0  0  0  0  0
  -18.5737  -21.2590   21.1193 C   0  0  0  0  0  0  0  0  0  0  0  0
  -28.2534  -16.0684   19.2643 C   0  0  0  0  0  0  0  0  0  0  0  0
  -28.0237  -17.2356   21.3672 C   0  0  0  0  0  0  0  0  0  0  0  0
  -22.8429  -26.8975   19.8835 C   0  0  0  0  0  0  0  0  0  0  0  0
  -29.3635  -19.7792   19.5879 C   0  0  0  0  0  0  0  0  0  0  0  0
  -29.4948  -21.1435   19.8470 C   0  0  0  0  0  0  0  0  0  0  0  0
  -23.0892  -27.8975   22.0649 C   0  0  0  0  0  0  0  0  0  0  0  0
  -20.8599  -21.4922   21.8651 C   0  0  0  0  0  0  0  0  0  0  0  0
  -31.1484  -20.6626   21.5415 C   0  0  0  0  0  0  0  0  0  0  0  0
  -26.2530  -15.7876   20.5897 C   0  0  0  0  0  0  0  0  0  0  0  0
  -24.6620  -13.9757   21.4226 C   0  0  0  0  0  0  0  0  0  0  0  0
  -30.6215  -26.0926   18.7481 C   0  0  0  0  0  0  0  0  0  0  0  0
  -24.6214  -28.4995   20.2901 C   0  0  0  0  0  0  0  0  0  0  0  0
  -29.4524  -26.0810   19.5325 C   0  0  0  0  0  0  0  0  0  0  0  0
  -24.1889  -28.6448   21.6160 C   0  0  0  0  0  0  0  0  0  0  0  0
  -19.3223  -23.3426   22.0864 C   0  0  0  0  0  0  0  0  0  0  0  0
  -19.8483  -20.7199   21.2942 C   0  0  0  0  0  0  0  0  0  0  0  0
  -20.5969  -22.8035   22.2612 C   0  0  0  0  0  0  0  0  0  0  0  0
  -28.7671  -16.9402   20.2244 C   0  0  0  0  0  0  0  0  0  0  0  0
  -22.4213  -27.0275   21.2035 C   0  0  0  0  0  0  0  0  0  0  0  0
  -30.1246  -18.8566   20.3056 C   0  0  0  0  0  0  0  0  0  0  0  0
  -30.3872  -21.5852   20.8238 C   0  0  0  0  0  0  0  0  0  0  0  0
  -31.0171  -19.2983   21.2824 C   0  0  0  0  0  0  0  0  0  0  0  0
  -24.9542  -15.1930   20.7786 C   0  0  0  0  0  0  0  0  0  0  0  0
  -23.2959  -13.8616   21.3377 C   0  0  0  0  0  0  0  0  0  0  0  0
  -25.5465  -13.0325   22.0422 C   0  0  0  0  0  0  0  0  0  0  0  0
  -27.5924  -28.6650   21.4077 C   0  0  0  0  0  0  0  0  0  0  0  0
  -26.5478  -31.4664   22.6659 C   0  0  0  0  0  0  0  0  0  0  0  0
  -23.9173  -33.3614   23.7320 C   0  0  0  0  0  0  0  0  0  0  0  0
  -19.2289  -18.4791   20.3067 C   0  0  0  0  0  0  0  0  0  0  0  0
  -31.8141  -26.9402   19.1141 C   0  0  0  0  0  0  0  0  0  0  0  0
  -25.7818  -29.3059   19.7747 C   0  0  0  0  0  0  0  0  0  0  0  0
  -24.8783  -29.5769   22.5774 C   0  0  0  0  0  0  0  0  0  0  0  0
  -31.4860  -28.0610   20.0973 C   0  0  0  0  0  0  0  0  0  0  0  0
  -19.7757  -15.3782   18.3718 C   0  0  0  0  0  0  0  0  0  0  0  0
  -30.6369  -27.5301   21.2479 C   0  0  0  0  0  0  0  0  0  0  0  0
  -21.0130  -14.7135   18.9772 C   0  0  0  0  0  0  0  0  0  0  0  0
  -18.9801  -16.1856   19.3881 C   0  0  0  0  0  0  0  0  0  0  0  0
  -21.1987  -16.8560   20.3364 C   0  0  0  0  0  0  0  0  0  0  0  0
  -29.2984  -26.9818   20.7386 C   0  0  1  0  0  0  0  0  0  0  0  0
  -26.7237  -29.7718   20.8807 C   0  0  1  0  0  0  0  0  0  0  0  0
  -21.4397  -15.3384   20.3159 C   0  0  2  0  0  0  0  0  0  0  0  0
  -23.3802  -35.5939   24.7443 C   0  0  0  0  0  0  0  0  0  0  0  0
  -27.5298  -30.4705   25.3776 C   0  0  0  0  0  0  0  0  0  0  0  0
  -26.1469  -32.2570   26.4565 C   0  0  0  0  0  0  0  0  0  0  0  0
  -28.0073  -32.8816   24.9165 C   0  0  0  0  0  0  0  0  0  0  0  0
  -17.8927  -25.5002   20.3269 C   0  0  0  0  0  0  0  0  0  0  0  0
  -18.5729  -27.1790   22.0378 C   0  0  0  0  0  0  0  0  0  0  0  0
  -22.2695  -34.1505   21.4038 C   0  0  0  0  0  0  0  0  0  0  0  0
  -19.0093  -24.7597   22.5065 C   0  0  0  0  0  0  0  0  0  0  0  0
  -20.3436  -25.9858   20.6994 C   0  0  0  0  0  0  0  0  0  1  0  0
  -25.8923  -31.8778   23.9621 C   0  0  1  0  0  0  0  0  0  0  0  0
  -23.5374  -34.8046   23.4539 C   0  0  2  0  0  0  0  0  0  0  0  0
  -26.8821  -31.8526   25.1608 C   0  0  0  0  0  0  0  0  0  0  0  0
  -18.9650  -25.8356   21.3816 C   0  0  0  0  0  0  0  0  0  0  0  0
  -23.8615  -15.8081   20.3184 N   0  0  0  0  0  0  0  0  0  0  0  0
  -22.8695  -14.9739   20.6736 N   0  0  0  0  0  0  0  0  0  0  0  0
  -26.0117  -30.3389   22.0278 N   0  0  0  0  0  0  0  0  0  0  0  0
  -19.8067  -17.2184   20.0195 N   0  0  0  0  0  0  0  0  0  0  0  0
  -21.6330  -23.5717   22.8367 N   0  0  0  0  0  0  0  0  0  0  0  0
  -22.4299  -12.9192   21.7670 N   0  0  0  0  0  0  0  0  0  0  0  0
  -26.9213  -13.3049   22.0404 N   0  0  0  0  0  0  0  0  0  0  0  0
  -20.1149  -19.3878   20.8910 N   0  0  0  0  0  0  0  0  0  0  0  0
  -28.3858  -28.0667   20.4475 N   0  0  0  0  0  0  0  0  0  0  0  0
  -25.2842  -33.1810   23.7164 N   0  0  0  0  0  0  0  0  0  0  0  0
  -22.2503  -34.8664   22.7054 N   0  3  0  0  0  0  0  0  0  0  0  0
  -25.1315  -11.9715   22.5671 O   0  0  0  0  0  0  0  0  0  0  0  0
  -27.5475  -28.3762   22.5978 O   0  0  0  0  0  0  0  0  0  0  0  0
  -27.4957  -32.1256   22.2318 O   0  0  0  0  0  0  0  0  0  0  0  0
  -23.0849  -32.4828   23.9457 O   0  0  0  0  0  0  0  0  0  0  0  0
  -18.0513  -18.7277   20.0393 O   0  0  0  0  0  0  0  0  0  0  0  0
  -29.9937  -17.5025   20.0467 O   0  0  0  0  0  0  0  0  0  0  0  0
  -21.3553  -26.3103   21.6521 O   0  0  0  0  0  0  0  0  0  1  0  0
  -30.5143  -22.8954   21.0714 F   0  0  0  0  0  0  0  0  0  0  0  0
  -31.7518  -18.4167   21.9744 F   0  0  0  0  0  0  0  0  0  0  0  0
  1  2  1  0  0  0  0
  1  5  2  0  0  0  0
  2  6  2  0  0  0  0
  3 10  2  0  0  0  0
  3 18  1  0  0  0  0
  4 11  1  0  0  0  0
  4 18  2  0  0  0  0
  5 20  1  0  0  0  0
  6 22  1  0  0  0  0
  7 12  2  0  0  0  0
  7 21  1  0  0  0  0
  8  9  2  0  0  0  0
  8 24  1  0  0  0  0
  9 25  1  0  0  0  0
 10 27  1  0  0  0  0
 11 27  2  0  0  0  0
 12 28  1  0  0  0  0
 13 14  2  0  0  0  0
 13 29  1  0  0  0  0
 14 30  1  0  0  0  0
 15 23  1  0  0  0  0
 15 28  2  0  0  0  0
 16 25  2  0  0  0  0
 16 26  1  0  0  0  0
 17 30  2  0  0  0  0
 17 31  1  0  0  0  0
 18 32  1  0  0  0  0
 19 32  1  0  0  0  0
 19 33  2  0  0  0  0
 19 34  1  0  0  0  0
 20 22  2  0  0  0  0
 20 39  1  0  0  0  0
 21 23  2  0  0  0  0
 21 40  1  0  0  0  0
 22 48  1  0  0  0  0
 23 41  1  0  0  0  0
 24 26  2  0  0  0  0
 24 58  1  0  0  0  0
 25 71  1  0  0  0  0
 26 68  1  0  0  0  0
 27 80  1  0  0  0  0
 28 81  1  0  0  0  0
 29 31  2  0  0  0  0
 29 80  1  0  0  0  0
 30 82  1  0  0  0  0
 31 83  1  0  0  0  0
 32 64  2  0  0  0  0
 33 65  1  0  0  0  0
 33 69  1  0  0  0  0
 34 70  1  0  0  0  0
 34 75  2  0  0  0  0
 35 49  1  0  0  0  0
 35 72  1  0  0  0  0
 35 76  2  0  0  0  0
 36 60  1  0  0  0  0
 36 66  1  0  0  0  0
 36 77  2  0  0  0  0
 37 61  1  0  0  0  0
 37 73  1  0  0  0  0
 37 78  2  0  0  0  0
 38 67  1  0  0  0  0
 38 71  1  0  0  0  0
 38 79  2  0  0  0  0
 39 42  1  0  0  0  0
 40 49  1  0  0  0  0
 41 66  1  0  0  0  0
 42 44  1  0  0  0  0
 43 45  1  0  0  0  0
 43 46  1  0  0  0  0
 44 48  1  0  0  0  0
 45 50  1  0  0  0  0
 46 67  1  0  0  0  0
 47 50  1  0  0  0  0
 47 67  1  0  0  0  0
 48 72  1  0  0  0  0
 49 66  1  0  0  0  0
 50 65  1  0  0  0  0
 51 61  1  0  0  0  0
 52 62  1  0  0  0  0
 53 62  1  0  0  0  0
 54 62  1  0  0  0  0
 55 63  1  0  0  0  0
 56 63  1  0  0  0  0
 57 74  1  0  0  0  0
 58 63  1  0  0  0  0
 59 63  1  0  0  0  0
 59 81  1  0  0  0  0
 60 62  1  0  0  0  0
 60 73  1  0  0  0  0
 61 74  1  0  0  0  0
 64 65  1  0  0  0  0
M  CHG  1  74   1
M  ISO  4  38 100  59 101  71 100  81 101
M  END
> <Batch ID>
0074

> <Smiles>
CNC(C)C(=O)NC(C(=O)N1Cc2cc([101O:1][101CH2:1]C(C)(C)Cc3ccc([100NH:0][100C:0](=O)N4CCCC(n5nc(-c6ccc(Oc7ccc(F)cc7F)cc6)c(C(N)=O)c5N)C4)cc3N)ccc2CC1C(=O)NC1CCCc2ccccc21)C(C)(C)C

> <Shape>
0.283

> <Color>
0.075

> <Negative vol penalty>
0.000

$$$$

  -OEChem-04042323442D

  0  0  0     0  0  0  0  0  0999 V2000
M  END
$$$$

  -OEChem-04042323443D

 88 97  0     1  0  0  0  0  0999 V2000
  -37.7139  -29.2128   25.4122 C   0  0  0  0  0  0  0  0  0  0  0  0
  -36.6143  -28.3926   25.6436 C   0  0  0  0  0  0  0  0  0  0  0  0
  -23.2417  -10.1675   22.1492 C   0  0  0  0  0  0  0  0  0  0  0  0
  -23.5353   -9.5417   19.8342 C   0  0  0  0  0  0  0  0  0  0  0  0
  -37.5271  -30.5081   24.9312 C   0  0  0  0  0  0  0  0  0  0  0  0
  -35.3271  -28.8676   25.3951 C   0  0  0  0  0  0  0  0  0  0  0  0
  -32.4533  -25.4979   22.9392 C   0  0  0  0  0  0  0  0  0  0  0  0
  -32.3902  -18.4224   22.1829 C   0  0  0  0  0  0  0  0  0  0  0  0
  -31.8812  -17.2175   21.6986 C   0  0  0  0  0  0  0  0  0  0  0  0
  -22.4828   -9.0172   22.3640 C   0  0  0  0  0  0  0  0  0  0  0  0
  -22.7764   -8.3912   20.0490 C   0  0  0  0  0  0  0  0  0  0  0  0
  -31.9152  -24.4532   23.6893 C   0  0  0  0  0  0  0  0  0  0  0  0
  -23.0431   -5.7196   22.8591 C   0  0  0  0  0  0  0  0  0  0  0  0
  -23.3107   -4.9711   24.0052 C   0  0  0  0  0  0  0  0  0  0  0  0
  -29.8072  -25.6215   23.7932 C   0  0  0  0  0  0  0  0  0  0  0  0
  -29.8163  -17.6111   22.8897 C   0  0  0  0  0  0  0  0  0  0  0  0
  -21.0401   -5.3111   24.7574 C   0  0  0  0  0  0  0  0  0  0  0  0
  -23.7680  -10.4298   20.8843 C   0  0  0  0  0  0  0  0  0  0  0  0
  -24.1389  -12.9532   20.8333 C   0  0  0  0  0  0  0  0  0  0  0  0
  -36.2374  -30.9959   24.6675 C   0  0  0  0  0  0  0  0  0  0  0  0
  -31.6743  -26.6192   22.6191 C   0  0  0  0  0  0  0  0  0  0  0  0
  -35.1227  -30.1711   24.9114 C   0  0  0  0  0  0  0  0  0  0  0  0
  -30.3370  -26.6780   23.0367 C   0  0  0  0  0  0  0  0  0  0  0  0
  -31.6123  -19.2217   23.0207 C   0  0  0  0  0  0  0  0  0  0  0  0
  -30.3254  -18.8160   23.3741 C   0  0  0  0  0  0  0  0  0  0  0  0
  -30.5942  -16.8118   22.0519 C   0  0  0  0  0  0  0  0  0  0  0  0
  -22.2501   -8.1290   21.3140 C   0  0  0  0  0  0  0  0  0  0  0  0
  -30.5929  -24.5162   24.1190 C   0  0  0  0  0  0  0  0  0  0  0  0
  -21.7740   -6.2640   22.6621 C   0  0  0  0  0  0  0  0  0  0  0  0
  -22.3092   -4.7668   24.9544 C   0  0  0  0  0  0  0  0  0  0  0  0
  -20.7725   -6.0597   23.6112 C   0  0  0  0  0  0  0  0  0  0  0  0
  -24.5516  -11.6183   20.6617 C   0  0  0  0  0  0  0  0  0  0  0  0
  -25.2411  -13.6996   20.4947 C   0  0  0  0  0  0  0  0  0  0  0  0
  -28.7505  -19.9041   26.5860 C   0  0  0  0  0  0  0  0  0  0  0  0
  -29.1552  -20.9460   23.8679 C   0  0  0  0  0  0  0  0  0  0  0  0
  -28.4746  -19.4328   27.8119 C   0  0  0  0  0  0  0  0  0  0  0  0
  -22.8726  -13.4722   21.2608 C   0  0  0  0  0  0  0  0  0  0  0  0
  -31.8464  -29.7275   23.2615 C   0  0  0  0  0  0  0  0  0  0  0  0
  -29.3277  -29.8910   21.2240 C   0  0  0  0  0  0  0  0  0  0  0  0
  -26.3275  -27.9906   20.5879 C   0  0  0  0  0  0  0  0  0  0  0  0
  -30.7180  -14.6775   20.7193 C   0  0  0  0  0  0  0  0  0  0  0  0
  -36.0825  -32.4191   24.1932 C   0  0  0  0  0  0  0  0  0  0  0  0
  -32.2616  -27.7256   21.7864 C   0  0  0  0  0  0  0  0  0  0  0  0
  -29.4526  -27.8504   22.7023 C   0  0  0  0  0  0  0  0  0  0  0  0
  -28.9047  -21.3715   26.3265 C   0  0  0  0  0  0  0  0  0  0  0  0
  -28.8937  -18.9753   25.4144 C   0  0  0  0  0  0  0  0  0  0  0  0
  -34.7078  -32.7173   23.6002 C   0  0  0  0  0  0  0  0  0  0  0  0
  -29.5865  -12.3408   18.2828 C   0  0  0  0  0  0  0  0  0  0  0  0
  -33.6070  -32.1660   24.5008 C   0  0  0  0  0  0  0  0  0  0  0  0
  -28.1418  -12.0543   18.6986 C   0  0  0  0  0  0  0  0  0  0  0  0
  -30.4990  -12.5269   19.4938 C   0  0  0  0  0  0  0  0  0  0  0  0
  -28.5944  -13.2360   20.8863 C   0  0  0  0  0  0  0  0  0  0  0  0
  -33.7121  -30.6417   24.6306 C   0  0  1  0  0  0  0  0  0  0  0  0
  -31.5305  -29.0537   21.9562 C   0  0  1  0  0  0  0  0  0  0  0  0
  -27.6248  -13.1054   19.7003 C   0  0  2  0  0  0  0  0  0  0  0  0
  -28.3900  -21.7559   24.9308 C   0  0  2  0  0  0  0  0  0  0  0  0
  -32.1835  -20.5073   23.5246 C   0  0  0  0  0  0  0  0  0  0  0  0
  -26.8793  -21.5192   24.7689 C   0  0  0  0  0  0  0  0  0  0  0  0
  -24.9748  -27.7307   18.4903 C   0  0  0  0  0  0  0  0  0  0  0  0
  -27.6658  -32.1856   22.3566 C   0  0  0  0  0  0  0  0  0  0  0  0
  -25.6187  -31.0469   21.4729 C   0  0  0  0  0  0  0  0  0  0  0  0
  -27.3943  -31.8153   19.8982 C   0  0  0  0  0  0  0  0  0  0  0  0
  -26.5440  -25.0403   20.6755 C   0  0  0  0  0  0  0  0  0  0  0  0
  -28.6652  -23.2582   24.7167 C   0  0  0  0  0  0  0  0  0  1  0  0
  -27.8275  -29.8054   21.3695 C   0  0  1  0  0  0  0  0  0  0  0  0
  -26.0446  -27.1163   19.3796 C   0  0  2  0  0  0  0  0  0  0  0  0
  -27.1441  -31.1998   21.2922 C   0  0  0  0  0  0  0  0  0  0  0  0
  -25.8171  -11.5192   20.2461 N   0  0  0  0  0  0  0  0  0  0  0  0
  -26.2091  -12.8014   20.1537 N   0  0  0  0  0  0  0  0  0  0  0  0
  -29.5039  -19.6299   24.2410 N   0  0  0  0  0  0  0  0  0  0  0  0
  -30.0747  -28.9099   21.8912 N   0  0  0  0  0  0  0  0  0  0  0  0
  -29.9479  -13.5402   20.3962 N   0  0  0  0  0  0  0  0  0  0  0  0
  -25.4669  -15.0300   20.4582 N   0  0  0  0  0  0  0  0  0  0  0  0
  -21.8490  -12.5659   21.5695 N   0  0  0  0  0  0  0  0  0  0  0  0
  -30.0776  -15.5877   21.5596 N   0  0  0  0  0  0  0  0  0  0  0  0
  -33.1893  -29.9963   23.4454 N   0  0  0  0  0  0  0  0  0  0  0  0
  -27.3724  -28.8599   20.3560 N   0  0  0  0  0  0  0  0  0  0  0  0
  -25.5784  -25.7688   19.8130 N   0  3  0  0  0  0  0  0  0  0  0  0
  -29.3743  -21.4453   22.7610 O   0  0  0  0  0  0  0  0  0  0  0  0
  -22.6500  -14.7034   21.3502 O   0  0  0  0  0  0  0  0  0  0  0  0
  -30.9388  -29.9857   24.0434 O   0  0  0  0  0  0  0  0  0  0  0  0
  -29.8183  -30.7908   20.5375 O   0  0  0  0  0  0  0  0  0  0  0  0
  -25.6833  -27.9130   21.6317 O   0  0  0  0  0  0  0  0  0  0  0  0
  -31.8509  -14.8458   20.2609 O   0  0  0  0  0  0  0  0  0  0  0  0
  -21.5097   -7.0062   21.5232 O   0  0  0  0  0  0  0  0  0  0  0  0
  -30.0654  -23.4981   24.8519 O   0  0  0  0  0  0  0  0  0  1  0  0
  -22.5658   -4.0467   26.0542 F   0  0  0  0  0  0  0  0  0  0  0  0
  -19.5510   -6.5792   23.4269 F   0  0  0  0  0  0  0  0  0  0  0  0
  1  2  1  0  0  0  0
  1  5  2  0  0  0  0
  2  6  2  0  0  0  0
  3 10  2  0  0  0  0
  3 18  1  0  0  0  0
  4 11  1  0  0  0  0
  4 18  2  0  0  0  0
  5 20  1  0  0  0  0
  6 22  1  0  0  0  0
  7 12  2  0  0  0  0
  7 21  1  0  0  0  0
  8  9  2  0  0  0  0
  8 24  1  0  0  0  0
  9 26  1  0  0  0  0
 10 27  1  0  0  0  0
 11 27  2  0  0  0  0
 12 28  1  0  0  0  0
 13 14  2  0  0  0  0
 13 29  1  0  0  0  0
 14 30  1  0  0  0  0
 15 23  1  0  0  0  0
 15 28  2  0  0  0  0
 16 25  1  0  0  0  0
 16 26  2  0  0  0  0
 17 30  2  0  0  0  0
 17 31  1  0  0  0  0
 18 32  1  0  0  0  0
 19 32  1  0  0  0  0
 19 33  2  0  0  0  0
 19 37  1  0  0  0  0
 20 22  2  0  0  0  0
 20 42  1  0  0  0  0
 21 23  2  0  0  0  0
 21 43  1  0  0  0  0
 22 53  1  0  0  0  0
 23 44  1  0  0  0  0
 24 25  2  0  0  0  0
 24 57  1  0  0  0  0
 25 70  1  0  0  0  0
 26 75  1  0  0  0  0
 27 85  1  0  0  0  0
 28 86  1  0  0  0  0
 29 31  2  0  0  0  0
 29 85  1  0  0  0  0
 30 87  1  0  0  0  0
 31 88  1  0  0  0  0
 32 68  2  0  0  0  0
 33 69  1  0  0  0  0
 33 73  1  0  0  0  0
 34 36  2  0  0  0  0
 34 45  1  0  0  0  0
 34 46  1  0  0  0  0
 35 56  1  0  0  0  0
 35 70  1  0  0  0  0
 35 79  2  0  0  0  0
 37 74  1  0  0  0  0
 37 80  2  0  0  0  0
 38 54  1  0  0  0  0
 38 76  1  0  0  0  0
 38 81  2  0  0  0  0
 39 65  1  0  0  0  0
 39 71  1  0  0  0  0
 39 82  2  0  0  0  0
 40 66  1  0  0  0  0
 40 77  1  0  0  0  0
 40 83  2  0  0  0  0
 41 72  1  0  0  0  0
 41 75  1  0  0  0  0
 41 84  2  0  0  0  0
 42 47  1  0  0  0  0
 43 54  1  0  0  0  0
 44 71  1  0  0  0  0
 45 56  1  0  0  0  0
 46 70  1  0  0  0  0
 47 49  1  0  0  0  0
 48 50  1  0  0  0  0
 48 51  1  0  0  0  0
 49 53  1  0  0  0  0
 50 55  1  0  0  0  0
 51 72  1  0  0  0  0
 52 55  1  0  0  0  0
 52 72  1  0  0  0  0
 53 76  1  0  0  0  0
 54 71  1  0  0  0  0
 55 69  1  0  0  0  0
 56 58  1  0  0  0  0
 56 64  1  0  0  0  0
 59 66  1  0  0  0  0
 60 67  1  0  0  0  0
 61 67  1  0  0  0  0
 62 67  1  0  0  0  0
 63 78  1  0  0  0  0
 64 86  1  0  0  0  0
 65 67  1  0  0  0  0
 65 77  1  0  0  0  0
 66 78  1  0  0  0  0
 68 69  1  0  0  0  0
M  CHG  1  78   1
M  ISO  4  41 100  64 101  75 100  86 101
M  END
> <Batch ID>
0074

> <Smiles>
C=C1CN(c2cc([100NH:0][100C:0](=O)N3CCCC(n4nc(-c5ccc(Oc6ccc(F)cc6F)cc5)c(C(N)=O)c4N)C3)ccc2C)C(=O)C(C)([101CH2:1][101O:1]c2ccc3c(c2)CN(C(=O)C(NC(=O)C(C)NC)C(C)(C)C)C(C(=O)NC2CCCc4ccccc42)C3)C1

> <Shape>
0.233

> <Color>
0.208

> <Negative vol penalty>
0.000

$$$$

  -OEChem-04042323443D

 85 94  0     1  0  0  0  0  0999 V2000
  -26.4901  -35.0587   23.4919 C   0  0  0  0  0  0  0  0  0  0  0  0
  -26.9496  -33.7741   23.2197 C   0  0  0  0  0  0  0  0  0  0  0  0
  -28.9761  -19.9640   23.6054 C   0  0  0  0  0  0  0  0  0  0  0  0
  -23.3098  -10.5122   21.9909 C   0  0  0  0  0  0  0  0  0  0  0  0
  -24.7551   -8.8332   21.0268 C   0  0  0  0  0  0  0  0  0  0  0  0
  -25.1935  -35.2477   23.9684 C   0  0  0  0  0  0  0  0  0  0  0  0
  -26.1130  -32.6776   23.4249 C   0  0  0  0  0  0  0  0  0  0  0  0
  -26.2627  -29.3750   19.5888 C   0  0  0  0  0  0  0  0  0  0  0  0
  -28.8732  -21.1568   22.8897 C   0  0  0  0  0  0  0  0  0  0  0  0
  -28.8948  -18.7414   22.9387 C   0  0  0  0  0  0  0  0  0  0  0  0
  -22.2421   -9.6156   21.9517 C   0  0  0  0  0  0  0  0  0  0  0  0
  -23.6873   -7.9365   20.9877 C   0  0  0  0  0  0  0  0  0  0  0  0
  -27.3603  -28.5173   19.5295 C   0  0  0  0  0  0  0  0  0  0  0  0
  -22.0465   -5.9238   23.1503 C   0  0  0  0  0  0  0  0  0  0  0  0
  -22.2812   -4.6194   23.5852 C   0  0  0  0  0  0  0  0  0  0  0  0
  -26.0304  -26.7576   20.5062 C   0  0  0  0  0  0  0  0  0  0  0  0
  -28.6073  -19.9045   20.8407 C   0  0  0  0  0  0  0  0  0  0  0  0
  -21.6650   -3.7814   21.4046 C   0  0  0  0  0  0  0  0  0  0  0  0
  -24.5664  -10.1210   21.5284 C   0  0  0  0  0  0  0  0  0  0  0  0
  -26.5867  -11.2320   22.6200 C   0  0  0  0  0  0  0  0  0  0  0  0
  -24.3374  -34.1537   24.1703 C   0  0  0  0  0  0  0  0  0  0  0  0
  -25.0418  -28.9329   20.1182 C   0  0  0  0  0  0  0  0  0  0  0  0
  -24.8041  -32.8520   23.9058 C   0  0  0  0  0  0  0  0  0  0  0  0
  -24.9181  -27.6108   20.5688 C   0  0  0  0  0  0  0  0  0  0  0  0
  -28.6888  -21.1271   21.5074 C   0  0  0  0  0  0  0  0  0  0  0  0
  -28.7103  -18.7117   21.5564 C   0  0  0  0  0  0  0  0  0  0  0  0
  -22.4308   -8.3278   21.4501 C   0  0  0  0  0  0  0  0  0  0  0  0
  -27.2451  -27.2093   19.9909 C   0  0  0  0  0  0  0  0  0  0  0  0
  -21.6210   -6.1569   21.8425 C   0  0  0  0  0  0  0  0  0  0  0  0
  -22.0905   -3.5482   22.7124 C   0  0  0  0  0  0  0  0  0  0  0  0
  -21.4303   -5.0858   20.9697 C   0  0  0  0  0  0  0  0  0  0  0  0
  -25.6696  -11.0469   21.5680 C   0  0  0  0  0  0  0  0  0  0  0  0
  -27.4316  -12.2167   22.1696 C   0  0  0  0  0  0  0  0  0  0  0  0
  -28.3466  -24.0226   19.8069 C   0  0  0  0  0  0  0  0  0  0  0  0
  -28.6308  -23.6054   21.1805 C   0  0  0  0  0  0  0  0  0  0  0  0
  -26.6676  -10.5727   23.8906 C   0  0  0  0  0  0  0  0  0  0  0  0
  -28.1958  -25.2237   19.2006 C   0  0  0  0  0  0  0  0  0  1  0  0
  -23.2316  -29.7778   22.5907 C   0  0  0  0  0  0  0  0  0  0  0  0
  -21.1671  -27.6251   21.3157 C   0  0  0  0  0  0  0  0  0  0  0  0
  -20.6981  -24.8655   19.3633 C   0  0  0  0  0  0  0  0  0  0  0  0
  -27.8613  -17.3018   19.6892 C   0  0  0  0  0  0  0  0  0  0  0  0
  -22.9601  -34.4038   24.7317 C   0  0  0  0  0  0  0  0  0  0  0  0
  -23.8597  -29.8624   20.1505 C   0  0  0  0  0  0  0  0  0  0  0  0
  -23.6235  -27.0812   21.1274 C   0  0  0  0  0  0  0  0  0  0  0  0
  -28.2998  -22.5667   19.4033 C   0  0  0  0  0  0  0  0  0  0  0  0
  -22.0108  -33.2198   24.5665 C   0  0  0  0  0  0  0  0  0  0  0  0
  -27.9764  -14.2707   17.5894 C   0  0  0  0  0  0  0  0  0  0  0  0
  -22.6990  -31.9222   24.9781 C   0  0  0  0  0  0  0  0  0  0  0  0
  -27.3987  -13.1968   18.5097 C   0  0  0  0  0  0  0  0  0  0  0  0
  -27.4045  -15.6508   17.8998 C   0  0  0  0  0  0  0  0  0  0  0  0
  -26.9826  -14.9843   20.2467 C   0  0  0  0  0  0  0  0  0  0  0  0
  -23.9182  -31.6393   24.0921 C   0  0  1  0  0  0  0  0  0  0  0  0
  -22.8114  -29.4603   21.1835 C   0  0  1  0  0  0  0  0  0  0  0  0
  -27.5716  -13.5894   19.9872 C   0  0  1  0  0  0  0  0  0  0  0  0
  -27.9011  -25.4050   17.7454 C   0  0  0  0  0  0  0  0  0  0  0  0
  -18.9034  -23.3167   18.5402 C   0  0  0  0  0  0  0  0  0  0  0  0
  -21.0793  -26.2768   24.0515 C   0  0  0  0  0  0  0  0  0  0  0  0
  -20.0761  -24.2645   22.9502 C   0  0  0  0  0  0  0  0  0  0  0  0
  -18.8657  -26.4451   22.8999 C   0  0  0  0  0  0  0  0  0  0  0  0
  -29.5396  -16.3699   21.2654 C   0  0  0  0  0  0  0  0  0  0  0  0
  -21.2323  -25.5615   16.5368 C   0  0  0  0  0  0  0  0  0  0  0  0
  -20.9336  -26.1424   21.4772 C   0  0  1  0  0  0  0  0  0  0  0  0
  -19.7067  -24.5753   18.2510 C   0  0  2  0  0  0  0  0  0  0  0  0
  -20.2638  -25.7924   22.8360 C   0  0  0  0  0  0  0  0  0  0  0  0
  -25.9093  -11.8498   20.5278 N   0  0  0  0  0  0  0  0  0  0  0  0
  -26.9865  -12.5489   20.9239 N   0  0  0  0  0  0  0  0  0  0  0  0
  -28.5878  -22.3039   20.8022 N   0  0  0  0  0  0  0  0  0  0  0  0
  -22.4982  -28.0304   21.1437 N   0  0  0  0  0  0  0  0  0  0  0  0
  -27.5407  -15.9802   19.3191 N   0  0  0  0  0  0  0  0  0  0  0  0
  -28.5045  -12.8223   22.7216 N   0  0  0  0  0  0  0  0  0  0  0  0
  -25.7201   -9.5850   24.1923 N   0  0  0  0  0  0  0  0  0  0  0  0
  -23.5001  -31.1155   22.8094 N   0  0  0  0  0  0  0  0  0  0  0  0
  -20.1700  -25.7196   20.3082 N   0  0  0  0  0  0  0  0  0  0  0  0
  -28.6262  -17.4459   20.8669 N   0  0  0  0  0  0  0  0  0  0  0  0
  -20.4206  -24.3900   16.9560 N   0  3  0  0  0  0  0  0  0  0  0  0
  -28.8160  -24.1803   22.2329 O   0  0  0  0  0  0  0  0  0  0  0  0
  -27.5438  -10.8628   24.7400 O   0  0  0  0  0  0  0  0  0  0  0  0
  -23.3052  -28.8761   23.4173 O   0  0  0  0  0  0  0  0  0  0  0  0
  -20.2031  -28.3946   21.3341 O   0  0  0  0  0  0  0  0  0  0  0  0
  -21.8268  -24.3800   19.3930 O   0  0  0  0  0  0  0  0  0  0  0  0
  -27.5167  -18.2728   19.0050 O   0  0  0  0  0  0  0  0  0  0  0  0
  -21.3891   -7.4525   21.4119 O   0  0  0  0  0  0  0  0  0  0  0  0
  -28.3150  -26.3703   19.9348 O   0  0  0  0  0  0  0  0  0  1  0  0
  -22.3174   -2.2958   23.1298 F   0  0  0  0  0  0  0  0  0  0  0  0
  -21.0227   -5.3036   19.7118 F   0  0  0  0  0  0  0  0  0  0  0  0
  1  2  1  0  0  0  0
  1  6  2  0  0  0  0
  2  7  2  0  0  0  0
  3  9  2  0  0  0  0
  3 10  1  0  0  0  0
  4 11  2  0  0  0  0
  4 19  1  0  0  0  0
  5 12  1  0  0  0  0
  5 19  2  0  0  0  0
  6 21  1  0  0  0  0
  7 23  1  0  0  0  0
  8 13  2  0  0  0  0
  8 22  1  0  0  0  0
  9 25  1  0  0  0  0
 10 26  2  0  0  0  0
 11 27  1  0  0  0  0
 12 27  2  0  0  0  0
 13 28  1  0  0  0  0
 14 15  2  0  0  0  0
 14 29  1  0  0  0  0
 15 30  1  0  0  0  0
 16 24  1  0  0  0  0
 16 28  2  0  0  0  0
 17 25  2  0  0  0  0
 17 26  1  0  0  0  0
 18 30  2  0  0  0  0
 18 31  1  0  0  0  0
 19 32  1  0  0  0  0
 20 32  1  0  0  0  0
 20 33  2  0  0  0  0
 20 36  1  0  0  0  0
 21 23  2  0  0  0  0
 21 42  1  0  0  0  0
 22 24  2  0  0  0  0
 22 43  1  0  0  0  0
 23 52  1  0  0  0  0
 24 44  1  0  0  0  0
 25 67  1  0  0  0  0
 26 74  1  0  0  0  0
 27 82  1  0  0  0  0
 28 83  1  0  0  0  0
 29 31  2  0  0  0  0
 29 82  1  0  0  0  0
 30 84  1  0  0  0  0
 31 85  1  0  0  0  0
 32 65  2  0  0  0  0
 33 66  1  0  0  0  0
 33 70  1  0  0  0  0
 34 35  1  0  0  0  0
 34 37  2  0  0  0  0
 34 45  1  0  0  0  0
 35 67  1  0  0  0  0
 35 76  2  0  0  0  0
 36 71  1  0  0  0  0
 36 77  2  0  0  0  0
 37 55  1  0  0  0  0
 37 83  1  0  0  0  0
 38 53  1  0  0  0  0
 38 72  1  0  0  0  0
 38 78  2  0  0  0  0
 39 62  1  0  0  0  0
 39 68  1  0  0  0  0
 39 79  2  0  0  0  0
 40 63  1  0  0  0  0
 40 73  1  0  0  0  0
 40 80  2  0  0  0  0
 41 69  1  0  0  0  0
 41 74  1  0  0  0  0
 41 81  2  0  0  0  0
 42 46  1  0  0  0  0
 43 53  1  0  0  0  0
 44 68  1  0  0  0  0
 45 67  1  0  0  0  0
 46 48  1  0  0  0  0
 47 49  1  0  0  0  0
 47 50  1  0  0  0  0
 48 52  1  0  0  0  0
 49 54  1  0  0  0  0
 50 69  1  0  0  0  0
 51 54  1  0  0  0  0
 51 69  1  0  0  0  0
 52 72  1  0  0  0  0
 53 68  1  0  0  0  0
 54 66  1  0  0  0  0
 56 63  1  0  0  0  0
 57 64  1  0  0  0  0
 58 64  1  0  0  0  0
 59 64  1  0  0  0  0
 60 74  1  0  0  0  0
 61 75  1  0  0  0  0
 62 64  1  0  0  0  0
 62 73  1  0  0  0  0
 63 75  1  0  0  0  0
 65 66  1  0  0  0  0
M  CHG  1  75   1
M  ISO  4  37 101  41 100  74 100  83 101
M  END
> <Batch ID>
0074

> <Smiles>
CNC(C)C(=O)NC(C(=O)N1Cc2cc([101O:1][101C:1](C)=C3CN(c4cccc([100N:0](C)[100C:0](=O)N5CCCC(n6nc(-c7ccc(Oc8ccc(F)cc8F)cc7)c(C(N)=O)c6N)C5)c4)C3=O)ccc2CC1C(=O)NC1CCCc2ccccc21)C(C)(C)C

> <Shape>
0.312

> <Color>
0.111

> <Negative vol penalty>
0.000

$$$$

  -OEChem-04042323443D

 89 98  0     1  0  0  0  0  0999 V2000
  -18.8276  -26.1406   11.4559 C   0  0  0  0  0  0  0  0  0  0  0  0
  -19.5851  -25.4401   12.3891 C   0  0  0  0  0  0  0  0  0  0  0  0
  -23.1336   -9.9028   20.0255 C   0  0  0  0  0  0  0  0  0  0  0  0
  -23.6625  -10.1019   22.3745 C   0  0  0  0  0  0  0  0  0  0  0  0
  -18.7233  -27.5281   11.5446 C   0  0  0  0  0  0  0  0  0  0  0  0
  -20.2397  -26.1268   13.4110 C   0  0  0  0  0  0  0  0  0  0  0  0
  -19.6856  -23.8897   17.9202 C   0  0  0  0  0  0  0  0  0  0  0  0
  -27.2313  -16.1293   17.2937 C   0  0  0  0  0  0  0  0  0  0  0  0
  -28.2475  -15.1975   17.0826 C   0  0  0  0  0  0  0  0  0  0  0  0
  -22.3390   -8.7895   20.2987 C   0  0  0  0  0  0  0  0  0  0  0  0
  -22.8678   -8.9886   22.6477 C   0  0  0  0  0  0  0  0  0  0  0  0
  -20.4754  -22.7698   18.1767 C   0  0  0  0  0  0  0  0  0  0  0  0
  -19.2418   -8.1763   21.5088 C   0  0  0  0  0  0  0  0  0  0  0  0
  -17.9886   -8.1092   20.9000 C   0  0  0  0  0  0  0  0  0  0  0  0
  -21.9925  -24.1404   19.4569 C   0  0  0  0  0  0  0  0  0  0  0  0
  -26.8149  -13.9787   15.5662 C   0  0  0  0  0  0  0  0  0  0  0  0
  -18.6260   -6.0464   19.8156 C   0  0  0  0  0  0  0  0  0  0  0  0
  -23.7954  -10.5590   21.0634 C   0  0  0  0  0  0  0  0  0  0  0  0
  -24.2128  -13.0571   20.7586 C   0  0  0  0  0  0  0  0  0  0  0  0
  -19.3691  -28.2313   12.5738 C   0  0  0  0  0  0  0  0  0  0  0  0
  -20.0497  -25.1475   18.4219 C   0  0  0  0  0  0  0  0  0  0  0  0
  -20.1450  -27.5252   13.5128 C   0  0  0  0  0  0  0  0  0  0  0  0
  -21.2042  -25.2742   19.2075 C   0  0  0  0  0  0  0  0  0  0  0  0
  -26.0069  -15.9859   16.6411 C   0  0  0  0  0  0  0  0  0  0  0  0
  -28.0394  -14.1222   16.2188 C   0  0  0  0  0  0  0  0  0  0  0  0
  -22.2060   -8.3324   21.6098 C   0  0  0  0  0  0  0  0  0  0  0  0
  -21.6306  -22.8955   18.9427 C   0  0  0  0  0  0  0  0  0  0  0  0
  -20.1871   -7.1785   21.2710 C   0  0  0  0  0  0  0  0  0  0  0  0
  -17.6807   -7.0442   20.0534 C   0  0  0  0  0  0  0  0  0  0  0  0
  -25.7987  -14.9106   15.7773 C   0  0  0  0  0  0  0  0  0  0  0  0
  -19.8792   -6.1136   20.4245 C   0  0  0  0  0  0  0  0  0  0  0  0
  -24.6169  -11.7088   20.7817 C   0  0  0  0  0  0  0  0  0  0  0  0
  -25.3547  -13.7524   20.4435 C   0  0  0  0  0  0  0  0  0  0  0  0
  -25.2131  -18.2901   17.1665 C   0  0  0  0  0  0  0  0  0  0  0  0
  -22.9209  -13.6299   21.0005 C   0  0  0  0  0  0  0  0  0  0  0  0
  -20.8189  -27.9442   17.1216 C   0  0  0  0  0  0  0  0  0  0  0  0
  -20.7980  -28.9435   20.2076 C   0  0  0  0  0  0  0  0  0  0  0  0
  -21.0843  -28.1454   23.5133 C   0  0  0  0  0  0  0  0  0  0  0  0
  -30.0556  -12.8351   16.9733 C   0  0  0  0  0  0  0  0  0  0  0  0
  -19.2657  -29.7357   12.6010 C   0  0  0  0  0  0  0  0  0  0  0  0
  -19.1727  -26.3408   18.1586 C   0  0  0  0  0  0  0  0  0  0  0  0
  -21.6281  -26.5985   19.7863 C   0  0  0  0  0  0  0  0  0  0  0  0
  -19.6842  -30.3510   13.9339 C   0  0  0  0  0  0  0  0  0  0  0  0
  -30.1996  -12.8456   20.6709 C   0  0  0  0  0  0  0  0  0  0  0  0
  -20.9965  -29.7402   14.4152 C   0  0  0  0  0  0  0  0  0  0  0  0
  -28.7463  -12.5929   21.0678 C   0  0  0  0  0  0  0  0  0  0  0  0
  -22.9007  -17.8152   17.4572 C   0  0  0  0  0  0  0  0  0  0  0  0
  -30.5352  -12.2192   19.3208 C   0  0  0  0  0  0  0  0  0  0  0  0
  -23.5583  -16.6729   16.7131 C   0  0  0  0  0  0  0  0  0  0  0  0
  -28.1660  -12.3997   18.6167 C   0  0  0  0  0  0  0  0  0  0  0  0
  -20.8496  -28.2321   14.6503 C   0  0  1  0  0  0  0  0  0  0  0  0
  -23.8525  -18.9730   17.2008 C   0  0  1  0  0  0  0  0  0  0  0  0
  -19.9142  -27.6677   18.2890 C   0  0  1  0  0  0  0  0  0  0  0  0
  -27.7918  -13.0553   19.9545 C   0  0  1  0  0  0  0  0  0  0  0  0
  -30.0987  -13.7046   13.8203 C   0  0  0  0  0  0  0  0  0  0  0  0
  -21.0599  -29.1809   25.7990 C   0  0  0  0  0  0  0  0  0  0  0  0
  -23.6145  -30.0225   19.7462 C   0  0  0  0  0  0  0  0  0  0  0  0
  -23.8899  -30.1694   22.2303 C   0  0  0  0  0  0  0  0  0  0  0  0
  -22.1304  -31.5210   21.0902 C   0  0  0  0  0  0  0  0  0  0  0  0
  -18.7394  -26.5412   24.3419 C   0  0  0  0  0  0  0  0  0  0  0  0
  -29.3189  -12.6924   14.6348 C   0  0  0  0  0  0  0  0  0  0  0  0
  -22.4153  -20.7750   18.2057 C   0  0  0  0  0  0  0  0  0  1  0  0
  -21.8231  -29.0215   21.3130 C   0  0  1  0  0  0  0  0  0  0  0  0
  -20.2312  -28.5094   24.7150 C   0  0  2  0  0  0  0  0  0  0  0  0
  -23.7615  -20.0629   18.2523 C   0  0  2  0  0  0  0  0  0  0  0  0
  -22.8578  -30.1589   21.0826 C   0  0  0  0  0  0  0  0  0  0  0  0
  -25.9140  -11.5543   20.5033 N   0  0  0  0  0  0  0  0  0  0  0  0
  -26.3350  -12.8147   20.3021 N   0  0  0  0  0  0  0  0  0  0  0  0
  -24.9813  -16.9294   16.8565 N   0  0  0  0  0  0  0  0  0  0  0  0
  -20.7410  -27.7369   19.4956 N   0  0  0  0  0  0  0  0  0  0  0  0
  -29.5829  -12.6208   18.2843 N   0  0  0  0  0  0  0  0  0  0  0  0
  -25.6057  -15.0682   20.2762 N   0  0  0  0  0  0  0  0  0  0  0  0
  -21.8573  -12.7720   21.3119 N   0  0  0  0  0  0  0  0  0  0  0  0
  -20.1692  -27.9797   15.9025 N   0  0  0  0  0  0  0  0  0  0  0  0
  -21.0723  -29.1399   22.5583 N   0  0  0  0  0  0  0  0  0  0  0  0
  -29.0904  -13.1586   16.0007 N   0  0  0  0  0  0  0  0  0  0  0  0
  -19.6023  -27.2881   25.2928 N   0  3  0  0  0  0  0  0  0  0  0  0
  -26.2623  -18.8975   17.3241 O   0  0  0  0  0  0  0  0  0  0  0  0
  -22.7121  -14.8646   20.9261 O   0  0  0  0  0  0  0  0  0  0  0  0
  -22.0173  -28.1142   17.3129 O   0  0  0  0  0  0  0  0  0  0  0  0
  -20.0696  -29.9146   19.9887 O   0  0  0  0  0  0  0  0  0  0  0  0
  -21.7028  -27.0865   23.4317 O   0  0  0  0  0  0  0  0  0  0  0  0
  -31.2483  -12.6935   16.6765 O   0  0  0  0  0  0  0  0  0  0  0  0
  -24.8011  -21.0063   17.9973 O   0  0  0  0  0  0  0  0  0  0  0  0
  -21.4305   -7.2462   21.8769 O   0  0  0  0  0  0  0  0  0  0  0  0
  -22.4036  -21.8042   19.1941 O   0  0  0  0  0  0  0  0  0  1  0  0
  -16.4767   -6.9791   19.4700 F   0  0  0  0  0  0  0  0  0  0  0  0
  -24.6256  -14.7623   15.1451 F   0  0  0  0  0  0  0  0  0  0  0  0
  -20.7828   -5.1514   20.1931 F   0  0  0  0  0  0  0  0  0  0  0  0
  1  2  1  0  0  0  0
  1  5  2  0  0  0  0
  2  6  2  0  0  0  0
  3 10  2  0  0  0  0
  3 18  1  0  0  0  0
  4 11  1  0  0  0  0
  4 18  2  0  0  0  0
  5 20  1  0  0  0  0
  6 22  1  0  0  0  0
  7 12  2  0  0  0  0
  7 21  1  0  0  0  0
  8  9  2  0  0  0  0
  8 24  1  0  0  0  0
  9 25  1  0  0  0  0
 10 26  1  0  0  0  0
 11 26  2  0  0  0  0
 12 27  1  0  0  0  0
 13 14  2  0  0  0  0
 13 28  1  0  0  0  0
 14 29  1  0  0  0  0
 15 23  1  0  0  0  0
 15 27  2  0  0  0  0
 16 25  2  0  0  0  0
 16 30  1  0  0  0  0
 17 29  2  0  0  0  0
 17 31  1  0  0  0  0
 18 32  1  0  0  0  0
 19 32  1  0  0  0  0
 19 33  2  0  0  0  0
 19 35  1  0  0  0  0
 20 22  2  0  0  0  0
 20 40  1  0  0  0  0
 21 23  2  0  0  0  0
 21 41  1  0  0  0  0
 22 51  1  0  0  0  0
 23 42  1  0  0  0  0
 24 30  2  0  0  0  0
 24 69  1  0  0  0  0
 25 76  1  0  0  0  0
 26 85  1  0  0  0  0
 27 86  1  0  0  0  0
 28 31  2  0  0  0  0
 28 85  1  0  0  0  0
 29 87  1  0  0  0  0
 30 88  1  0  0  0  0
 31 89  1  0  0  0  0
 32 67  2  0  0  0  0
 33 68  1  0  0  0  0
 33 72  1  0  0  0  0
 34 52  1  0  0  0  0
 34 69  1  0  0  0  0
 34 78  2  0  0  0  0
 35 73  1  0  0  0  0
 35 79  2  0  0  0  0
 36 53  1  0  0  0  0
 36 74  1  0  0  0  0
 36 80  2  0  0  0  0
 37 63  1  0  0  0  0
 37 70  1  0  0  0  0
 37 81  2  0  0  0  0
 38 64  1  0  0  0  0
 38 75  1  0  0  0  0
 38 82  2  0  0  0  0
 39 71  1  0  0  0  0
 39 76  1  0  0  0  0
 39 83  2  0  0  0  0
 40 43  1  0  0  0  0
 41 53  1  0  0  0  0
 42 70  1  0  0  0  0
 43 45  1  0  0  0  0
 44 46  1  0  0  0  0
 44 48  1  0  0  0  0
 45 51  1  0  0  0  0
 46 54  1  0  0  0  0
 47 49  1  0  0  0  0
 47 52  1  0  0  0  0
 48 71  1  0  0  0  0
 49 69  1  0  0  0  0
 50 54  1  0  0  0  0
 50 71  1  0  0  0  0
 51 74  1  0  0  0  0
 52 65  1  0  0  0  0
 53 70  1  0  0  0  0
 54 68  1  0  0  0  0
 55 61  1  0  0  0  0
 56 64  1  0  0  0  0
 57 66  1  0  0  0  0
 58 66  1  0  0  0  0
 59 66  1  0  0  0  0
 60 77  1  0  0  0  0
 61 76  1  0  0  0  0
 62 65  1  0  0  0  0
 62 86  1  0  0  0  0
 63 66  1  0  0  0  0
 63 75  1  0  0  0  0
 64 77  1  0  0  0  0
 65 84  1  0  0  0  0
 67 68  1  0  0  0  0
M  CHG  1  77   1
M  ISO  4  39 100  62 101  76 100  86 101
M  END
> <Batch ID>
0074

> <Smiles>
CC[100N:0](c1ccc(N2CCC(C(O)[101CH2:1][101O:1]c3ccc4c(c3)CN(C(=O)C(NC(=O)C(C)NC)C(C)(C)C)C(C(=O)NC3CCCc5ccccc53)C4)C2=O)c(F)c1)[100C:0](=O)N1CCCC(n2nc(-c3ccc(Oc4ccc(F)cc4F)cc3)c(C(N)=O)c2N)C1

> <Shape>
0.178

> <Color>
0.177

> <Negative vol penalty>
0.000

$$$$

  -OEChem-04042323443D

 85 93  0     1  0  0  0  0  0999 V2000
  -22.3304  -20.4034   22.5002 C   0  0  0  0  0  0  0  0  0  0  0  0
  -23.5567  -20.9413   22.1228 C   0  0  0  0  0  0  0  0  0  0  0  0
  -26.2851  -24.1411   18.1057 C   0  0  0  0  0  0  0  0  0  0  0  0
  -23.4634  -12.6833   20.6349 C   0  0  0  0  0  0  0  0  0  0  0  0
  -22.6795  -14.3567   22.1913 C   0  0  0  0  0  0  0  0  0  0  0  0
  -27.4789  -24.8574   18.0207 C   0  0  0  0  0  0  0  0  0  0  0  0
  -21.1567  -21.1218   22.2763 C   0  0  0  0  0  0  0  0  0  0  0  0
  -23.6098  -22.1976   21.5201 C   0  0  0  0  0  0  0  0  0  0  0  0
  -28.0116  -26.4065   22.1640 C   0  0  0  0  0  0  0  0  0  0  0  0
  -26.2881  -22.8362   18.5986 C   0  0  0  0  0  0  0  0  0  0  0  0
  -22.8412  -11.6893   21.3901 C   0  0  0  0  0  0  0  0  0  0  0  0
  -22.0572  -13.3626   22.9465 C   0  0  0  0  0  0  0  0  0  0  0  0
  -29.1098  -26.7437   21.3741 C   0  0  0  0  0  0  0  0  0  0  0  0
  -19.7144  -10.4750   21.8161 C   0  0  0  0  0  0  0  0  0  0  0  0
  -18.9785   -9.5069   21.1329 C   0  0  0  0  0  0  0  0  0  0  0  0
  -28.6791  -22.9638   18.9214 C   0  0  0  0  0  0  0  0  0  0  0  0
  -27.8237  -28.5090   20.3500 C   0  0  0  0  0  0  0  0  0  0  0  0
  -20.4162   -7.7831   22.0265 C   0  0  0  0  0  0  0  0  0  0  0  0
  -23.3826  -14.0170   21.0355 C   0  0  0  0  0  0  0  0  0  0  0  0
  -28.6759  -24.2687   18.4285 C   0  0  0  0  0  0  0  0  0  0  0  0
  -23.4694  -15.7758   19.1897 C   0  0  0  0  0  0  0  0  0  0  0  0
  -21.1964  -22.3917   21.6793 C   0  0  0  0  0  0  0  0  0  0  0  0
  -26.8057  -27.1123   22.0449 C   0  0  0  0  0  0  0  0  0  0  0  0
  -22.4354  -22.9331   21.2867 C   0  0  0  0  0  0  0  0  0  0  0  0
  -26.7124  -28.1805   21.1414 C   0  0  0  0  0  0  0  0  0  0  0  0
  -27.4852  -22.2476   19.0064 C   0  0  0  0  0  0  0  0  0  0  0  0
  -22.1380  -12.0290   22.5459 C   0  0  0  0  0  0  0  0  0  0  0  0
  -29.0151  -27.7931   20.4648 C   0  0  0  0  0  0  0  0  0  0  0  0
  -20.8013  -10.0971   22.6046 C   0  0  0  0  0  0  0  0  0  0  0  0
  -19.3293   -8.1610   21.2381 C   0  0  0  0  0  0  0  0  0  0  0  0
  -21.1522   -8.7512   22.7098 C   0  0  0  0  0  0  0  0  0  0  0  0
  -24.0257  -15.0442   20.2561 C   0  0  0  0  0  0  0  0  0  0  0  0
  -24.4764  -16.6202   18.7905 C   0  0  0  0  0  0  0  0  0  0  0  0
  -29.9468  -25.0328   18.3374 C   0  0  0  0  0  0  0  0  0  0  0  0
  -22.1595  -15.6990   18.6118 C   0  0  0  0  0  0  0  0  0  0  0  0
  -23.8349  -26.3519   21.2083 C   0  0  0  0  0  0  0  0  0  0  0  0
  -30.9037  -28.3056   17.4214 C   0  0  0  0  0  0  0  0  0  0  0  0
  -23.2183  -29.4115   22.0924 C   0  0  0  0  0  0  0  0  0  0  0  0
  -24.3931  -32.5774   22.5856 C   0  0  0  0  0  0  0  0  0  0  0  0
  -28.5878  -20.1903   19.9541 C   0  0  0  0  0  0  0  0  0  0  0  0
  -19.8970  -23.1103   21.4145 C   0  0  0  0  0  0  0  0  0  0  0  0
  -25.6386  -26.7535   22.9233 C   0  0  0  0  0  0  0  0  0  0  0  0
  -25.4467  -28.9826   20.9897 C   0  0  0  0  0  0  0  0  0  0  0  0
  -20.0734  -24.5960   21.1114 C   0  0  0  0  0  0  0  0  0  0  0  0
  -29.3806  -16.7202   20.0395 C   0  0  0  0  0  0  0  0  0  0  0  0
  -21.1964  -24.8049   20.1005 C   0  0  0  0  0  0  0  0  0  0  0  0
  -28.0124  -16.0350   20.0158 C   0  0  0  0  0  0  0  0  0  0  0  0
  -29.3558  -18.0079   20.8610 C   0  0  0  0  0  0  0  0  0  0  0  0
  -26.9406  -18.2804   20.4590 C   0  0  0  0  0  0  0  0  0  0  0  0
  -22.5362  -24.3036   20.6528 C   0  0  1  0  0  0  0  0  0  0  0  0
  -24.2990  -27.2083   22.3524 C   0  0  1  0  0  0  0  0  0  0  0  0
  -26.8997  -17.0129   19.5899 C   0  0  2  0  0  0  0  0  0  0  0  0
  -31.6784  -26.6325   15.7146 C   0  0  0  0  0  0  0  0  0  0  0  0
  -23.6442  -34.8715   23.2737 C   0  0  0  0  0  0  0  0  0  0  0  0
  -21.9404  -29.8139   19.3510 C   0  0  0  0  0  0  0  0  0  0  0  0
  -22.0799  -32.2853   19.7260 C   0  0  0  0  0  0  0  0  0  0  0  0
  -20.6978  -30.8709   21.2465 C   0  0  0  0  0  0  0  0  0  0  0  0
  -26.2104  -32.5965   24.9215 C   0  0  0  0  0  0  0  0  0  0  0  0
  -29.8113  -28.6801   18.4068 C   0  0  0  0  0  0  0  0  0  1  0  0
  -31.1660  -26.8273   17.1336 C   0  0  2  0  0  0  0  0  0  0  0  0
  -23.2190  -30.7479   21.3903 C   0  0  1  0  0  0  0  0  0  0  0  0
  -24.2237  -33.5459   23.7423 C   0  0  2  0  0  0  0  0  0  0  0  0
  -22.0077  -30.9133   20.4297 C   0  0  0  0  0  0  0  0  0  0  0  0
  -25.2881  -15.3932   20.5177 N   0  0  0  0  0  0  0  0  0  0  0  0
  -25.5335  -16.3532   19.6098 N   0  0  0  0  0  0  0  0  0  0  0  0
  -24.3313  -28.5892   21.8664 N   0  0  0  0  0  0  0  0  0  0  0  0
  -28.2797  -18.8870   20.3984 N   0  0  0  0  0  0  0  0  0  0  0  0
  -24.5518  -17.5575   17.8219 N   0  0  0  0  0  0  0  0  0  0  0  0
  -21.2478  -14.7765   19.1432 N   0  0  0  0  0  0  0  0  0  0  0  0
  -27.4880  -20.9221   19.5073 N   0  0  0  0  0  0  0  0  0  0  0  0
  -29.9971  -26.0198   17.3610 N   0  0  0  0  0  0  0  0  0  0  0  0
  -23.0840  -25.2576   21.5931 N   0  0  0  0  0  0  0  0  0  0  0  0
  -23.2927  -31.7597   22.4388 N   0  0  0  0  0  0  0  0  0  0  0  0
  -25.5381  -33.8111   24.3926 N   0  3  0  0  0  0  0  0  0  0  0  0
  -30.8724  -24.7501   19.0936 O   0  0  0  0  0  0  0  0  0  0  0  0
  -21.8133  -16.4153   17.6420 O   0  0  0  0  0  0  0  0  0  0  0  0
  -24.1345  -26.6619   20.0612 O   0  0  0  0  0  0  0  0  0  0  0  0
  -31.6066  -29.1742   16.8976 O   0  0  0  0  0  0  0  0  0  0  0  0
  -22.2687  -29.1112   22.8202 O   0  0  0  0  0  0  0  0  0  0  0  0
  -25.3994  -32.5516   21.8804 O   0  0  0  0  0  0  0  0  0  0  0  0
  -29.7458  -20.6154   19.9433 O   0  0  0  0  0  0  0  0  0  0  0  0
  -21.5305  -11.0593   23.2829 O   0  0  0  0  0  0  0  0  0  0  0  0
  -30.0853  -28.1238   19.6921 O   0  0  0  0  0  0  0  0  0  1  0  0
  -18.6215   -7.2314   20.5831 F   0  0  0  0  0  0  0  0  0  0  0  0
  -22.1946   -8.3820   23.4666 F   0  0  0  0  0  0  0  0  0  0  0  0
  1  2  1  0  0  0  0
  1  7  2  0  0  0  0
  2  8  2  0  0  0  0
  3  6  2  0  0  0  0
  3 10  1  0  0  0  0
  4 11  2  0  0  0  0
  4 19  1  0  0  0  0
  5 12  1  0  0  0  0
  5 19  2  0  0  0  0
  6 20  1  0  0  0  0
  7 22  1  0  0  0  0
  8 24  1  0  0  0  0
  9 13  2  0  0  0  0
  9 23  1  0  0  0  0
 10 26  2  0  0  0  0
 11 27  1  0  0  0  0
 12 27  2  0  0  0  0
 13 28  1  0  0  0  0
 14 15  2  0  0  0  0
 14 29  1  0  0  0  0
 15 30  1  0  0  0  0
 16 20  2  0  0  0  0
 16 26  1  0  0  0  0
 17 25  1  0  0  0  0
 17 28  2  0  0  0  0
 18 30  2  0  0  0  0
 18 31  1  0  0  0  0
 19 32  1  0  0  0  0
 20 34  1  0  0  0  0
 21 32  1  0  0  0  0
 21 33  2  0  0  0  0
 21 35  1  0  0  0  0
 22 24  2  0  0  0  0
 22 41  1  0  0  0  0
 23 25  2  0  0  0  0
 23 42  1  0  0  0  0
 24 50  1  0  0  0  0
 25 43  1  0  0  0  0
 26 70  1  0  0  0  0
 27 82  1  0  0  0  0
 28 83  1  0  0  0  0
 29 31  2  0  0  0  0
 29 82  1  0  0  0  0
 30 84  1  0  0  0  0
 31 85  1  0  0  0  0
 32 64  2  0  0  0  0
 33 65  1  0  0  0  0
 33 68  1  0  0  0  0
 34 71  1  0  0  0  0
 34 75  2  0  0  0  0
 35 69  1  0  0  0  0
 35 76  2  0  0  0  0
 36 51  1  0  0  0  0
 36 72  1  0  0  0  0
 36 77  2  0  0  0  0
 37 59  1  0  0  0  0
 37 60  1  0  0  0  0
 37 78  2  0  0  0  0
 38 61  1  0  0  0  0
 38 66  1  0  0  0  0
 38 79  2  0  0  0  0
 39 62  1  0  0  0  0
 39 73  1  0  0  0  0
 39 80  2  0  0  0  0
 40 67  1  0  0  0  0
 40 70  1  0  0  0  0
 40 81  2  0  0  0  0
 41 44  1  0  0  0  0
 42 51  1  0  0  0  0
 43 66  1  0  0  0  0
 44 46  1  0  0  0  0
 45 47  1  0  0  0  0
 45 48  1  0  0  0  0
 46 50  1  0  0  0  0
 47 52  1  0  0  0  0
 48 67  1  0  0  0  0
 49 52  1  0  0  0  0
 49 67  1  0  0  0  0
 50 72  1  0  0  0  0
 51 66  1  0  0  0  0
 52 65  1  0  0  0  0
 53 60  1  0  0  0  0
 54 62  1  0  0  0  0
 55 63  1  0  0  0  0
 56 63  1  0  0  0  0
 57 63  1  0  0  0  0
 58 74  1  0  0  0  0
 59 83  1  0  0  0  0
 60 71  1  0  0  0  0
 61 63  1  0  0  0  0
 61 73  1  0  0  0  0
 62 74  1  0  0  0  0
 64 65  1  0  0  0  0
M  CHG  1  74   1
M  ISO  4  40 100  59 101  70 100  83 101
M  END
> <Batch ID>
0074

> <Smiles>
CNC(C)C(=O)NC(C(=O)N1Cc2cc([101O:1][101CH2:1]C(=O)C(C)NC(=O)c3cccc([100NH:0][100C:0](=O)N4CCCC(n5nc(-c6ccc(Oc7ccc(F)cc7F)cc6)c(C(N)=O)c5N)C4)c3)ccc2CC1C(=O)NC1CCCc2ccccc21)C(C)(C)C

> <Shape>
0.222

> <Color>
0.067

> <Negative vol penalty>
0.000

$$$$

  -OEChem-04042323443D

 86 94  0     1  0  0  0  0  0999 V2000
  -28.1166  -10.9636   19.4682 C   0  0  0  0  0  0  0  0  0  0  0  0
  -28.3773  -12.2982   19.1746 C   0  0  0  0  0  0  0  0  0  0  0  0
  -30.3993  -27.6939   17.3201 C   0  0  0  0  0  0  0  0  0  0  0  0
  -19.3523  -27.7927   23.6531 C   0  0  0  0  0  0  0  0  0  0  0  0
  -19.4466  -26.9192   21.4025 C   0  0  0  0  0  0  0  0  0  0  0  0
  -30.5611  -26.3093   17.3671 C   0  0  0  0  0  0  0  0  0  0  0  0
  -26.9064  -10.6047   20.0602 C   0  0  0  0  0  0  0  0  0  0  0  0
  -27.4273  -13.2747   19.4720 C   0  0  0  0  0  0  0  0  0  0  0  0
  -29.4648  -17.3681   21.6486 C   0  0  0  0  0  0  0  0  0  0  0  0
  -29.4793  -28.3176   18.1629 C   0  0  0  0  0  0  0  0  0  0  0  0
  -17.9587  -27.7884   23.5964 C   0  0  0  0  0  0  0  0  0  0  0  0
  -18.0529  -26.9148   21.3458 C   0  0  0  0  0  0  0  0  0  0  0  0
  -30.1223  -18.2718   20.8151 C   0  0  0  0  0  0  0  0  0  0  0  0
  -14.3790  -28.3456   23.9120 C   0  0  0  0  0  0  0  0  0  0  0  0
  -13.7058  -29.4722   24.3841 C   0  0  0  0  0  0  0  0  0  0  0  0
  -28.1724  -19.6920   20.8268 C   0  0  0  0  0  0  0  0  0  0  0  0
  -14.8380  -30.8366   22.7429 C   0  0  0  0  0  0  0  0  0  0  0  0
  -20.0963  -27.3581   22.5561 C   0  0  0  0  0  0  0  0  0  0  0  0
  -29.8028  -25.5483   18.2568 C   0  0  0  0  0  0  0  0  0  0  0  0
  -22.3726  -26.3196   23.0537 C   0  0  0  0  0  0  0  0  0  0  0  0
  -25.9451  -11.5785   20.3738 C   0  0  0  0  0  0  0  0  0  0  0  0
  -28.1501  -17.6147   22.0694 C   0  0  0  0  0  0  0  0  0  0  0  0
  -26.2025  -12.9284   20.0675 C   0  0  0  0  0  0  0  0  0  0  0  0
  -27.5013  -18.7911   21.6677 C   0  0  0  0  0  0  0  0  0  0  0  0
  -28.7210  -27.5567   19.0526 C   0  0  0  0  0  0  0  0  0  0  0  0
  -17.3089  -27.3494   22.4428 C   0  0  0  0  0  0  0  0  0  0  0  0
  -29.4751  -19.4326   20.4017 C   0  0  0  0  0  0  0  0  0  0  0  0
  -15.2819  -28.4644   22.8554 C   0  0  0  0  0  0  0  0  0  0  0  0
  -13.9352  -30.7178   23.7996 C   0  0  0  0  0  0  0  0  0  0  0  0
  -15.5114  -29.7100   22.2708 C   0  0  0  0  0  0  0  0  0  0  0  0
  -28.8828  -26.1720   19.0996 C   0  0  0  0  0  0  0  0  0  0  0  0
  -21.5360  -27.3629   22.6139 C   0  0  0  0  0  0  0  0  0  0  0  0
  -23.6450  -26.8173   22.9129 C   0  0  0  0  0  0  0  0  0  0  0  0
  -31.2734  -20.8831   20.0375 C   0  0  0  0  0  0  0  0  0  1  0  0
  -29.9792  -24.0739   18.3032 C   0  0  0  0  0  0  0  0  0  0  0  0
  -22.0302  -25.0170   23.5453 C   0  0  0  0  0  0  0  0  0  0  0  0
  -32.0076  -21.7684   19.3433 C   0  0  0  0  0  0  0  0  0  0  0  0
  -25.3609  -16.1367   21.6958 C   0  0  0  0  0  0  0  0  0  0  0  0
  -24.3201  -18.4147   23.7573 C   0  0  0  0  0  0  0  0  0  0  0  0
  -24.7568  -21.5189   25.1064 C   0  0  0  0  0  0  0  0  0  0  0  0
  -27.5070  -29.5578   19.9842 C   0  0  0  0  0  0  0  0  0  0  0  0
  -24.6320  -11.1368   20.9700 C   0  0  0  0  0  0  0  0  0  0  0  0
  -27.4643  -16.6430   22.9902 C   0  0  0  0  0  0  0  0  0  0  0  0
  -26.0972  -19.1123   22.1080 C   0  0  0  0  0  0  0  0  0  0  0  0
  -23.8330  -12.2770   21.5959 C   0  0  0  0  0  0  0  0  0  0  0  0
  -25.2546  -31.5141   21.9276 C   0  0  0  0  0  0  0  0  0  0  0  0
  -23.7959  -13.4801   20.6589 C   0  0  0  0  0  0  0  0  0  0  0  0
  -24.1552  -30.5227   22.3156 C   0  0  0  0  0  0  0  0  0  0  0  0
  -25.7752  -31.2592   20.5142 C   0  0  0  0  0  0  0  0  0  0  0  0
  -25.1113  -28.8901   20.6399 C   0  0  0  0  0  0  0  0  0  0  0  0
  -25.2074  -14.0196   20.3977 C   0  0  1  0  0  0  0  0  0  0  0  0
  -25.9429  -16.7447   22.9405 C   0  0  1  0  0  0  0  0  0  0  0  0
  -24.6008  -29.0662   22.0794 C   0  0  2  0  0  0  0  0  0  0  0  0
  -33.2790  -22.3601   19.8936 C   0  0  0  0  0  0  0  0  0  0  0  0
  -32.5947  -21.8894   16.8745 C   0  0  0  0  0  0  0  0  0  0  0  0
  -24.3565  -23.4738   26.6281 C   0  0  0  0  0  0  0  0  0  0  0  0
  -22.1582  -19.0975   21.7153 C   0  0  0  0  0  0  0  0  0  0  0  0
  -21.7874  -21.2537   22.9325 C   0  0  0  0  0  0  0  0  0  0  0  0
  -21.3808  -19.0828   24.0922 C   0  0  0  0  0  0  0  0  0  0  0  0
  -26.5698  -20.4279   27.1756 C   0  0  0  0  0  0  0  0  0  0  0  0
  -31.5653  -22.1975   17.9579 C   0  0  2  0  0  0  0  0  0  0  0  0
  -23.7555  -19.8076   23.6154 C   0  0  1  0  0  0  0  0  0  0  0  0
  -24.7376  -22.0039   26.5448 C   0  0  2  0  0  0  0  0  0  0  0  0
  -22.2962  -19.8037   23.0788 C   0  0  0  0  0  0  0  0  0  0  0  0
  -22.2194  -28.4420   22.2232 N   0  0  0  0  0  0  0  0  0  0  0  0
  -23.4989  -28.0794   22.4170 N   0  0  0  0  0  0  0  0  0  0  0  0
  -25.4666  -18.1280   23.0029 N   0  0  0  0  0  0  0  0  0  0  0  0
  -26.1828  -29.8604   20.3656 N   0  0  0  0  0  0  0  0  0  0  0  0
  -24.8634  -26.2941   23.1663 N   0  0  0  0  0  0  0  0  0  0  0  0
  -20.6752  -24.6678   23.6249 N   0  0  0  0  0  0  0  0  0  0  0  0
  -27.7875  -28.1940   19.9070 N   0  0  0  0  0  0  0  0  0  0  0  0
  -31.2439  -23.6042   17.9817 N   0  0  0  0  0  0  0  0  0  0  0  0
  -25.6671  -14.7999   21.5265 N   0  0  0  0  0  0  0  0  0  0  0  0
  -23.9115  -20.4460   24.9179 N   0  0  0  0  0  0  0  0  0  0  0  0
  -26.0802  -21.8305   27.1679 N   0  3  0  0  0  0  0  0  0  0  0  0
  -29.0204  -23.3639   18.5949 O   0  0  0  0  0  0  0  0  0  0  0  0
  -22.8994  -24.1934   23.9190 O   0  0  0  0  0  0  0  0  0  0  0  0
  -24.6828  -16.8288   20.9454 O   0  0  0  0  0  0  0  0  0  0  0  0
  -23.7685  -17.6129   24.5153 O   0  0  0  0  0  0  0  0  0  0  0  0
  -25.4493  -22.0421   24.2362 O   0  0  0  0  0  0  0  0  0  0  0  0
  -28.3391  -30.4432   19.7702 O   0  0  0  0  0  0  0  0  0  0  0  0
  -15.9490  -27.3448   22.3872 O   0  0  0  0  0  0  0  0  0  0  0  0
  -30.1143  -20.3160   19.5875 O   0  0  0  0  0  0  0  0  0  1  0  0
  -13.2874  -31.7993   24.2521 F   0  0  0  0  0  0  0  0  0  0  0  0
  -16.3767  -29.8302   21.2546 F   0  0  0  0  0  0  0  0  0  0  0  0
  -28.1524  -25.4398   19.9546 F   0  0  0  0  0  0  0  0  0  0  0  0
  1  2  1  0  0  0  0
  1  7  2  0  0  0  0
  2  8  2  0  0  0  0
  3  6  2  0  0  0  0
  3 10  1  0  0  0  0
  4 11  2  0  0  0  0
  4 18  1  0  0  0  0
  5 12  1  0  0  0  0
  5 18  2  0  0  0  0
  6 19  1  0  0  0  0
  7 21  1  0  0  0  0
  8 23  1  0  0  0  0
  9 13  2  0  0  0  0
  9 22  1  0  0  0  0
 10 25  2  0  0  0  0
 11 26  1  0  0  0  0
 12 26  2  0  0  0  0
 13 27  1  0  0  0  0
 14 15  2  0  0  0  0
 14 28  1  0  0  0  0
 15 29  1  0  0  0  0
 16 24  1  0  0  0  0
 16 27  2  0  0  0  0
 17 29  2  0  0  0  0
 17 30  1  0  0  0  0
 18 32  1  0  0  0  0
 19 31  2  0  0  0  0
 19 35  1  0  0  0  0
 20 32  1  0  0  0  0
 20 33  2  0  0  0  0
 20 36  1  0  0  0  0
 21 23  2  0  0  0  0
 21 42  1  0  0  0  0
 22 24  2  0  0  0  0
 22 43  1  0  0  0  0
 23 51  1  0  0  0  0
 24 44  1  0  0  0  0
 25 31  1  0  0  0  0
 25 71  1  0  0  0  0
 26 82  1  0  0  0  0
 27 83  1  0  0  0  0
 28 30  2  0  0  0  0
 28 82  1  0  0  0  0
 29 84  1  0  0  0  0
 30 85  1  0  0  0  0
 31 86  1  0  0  0  0
 32 65  2  0  0  0  0
 33 66  1  0  0  0  0
 33 69  1  0  0  0  0
 34 37  2  0  0  0  0
 34 83  1  0  0  0  0
 35 72  1  0  0  0  0
 35 76  2  0  0  0  0
 36 70  1  0  0  0  0
 36 77  2  0  0  0  0
 37 54  1  0  0  0  0
 37 61  1  0  0  0  0
 38 52  1  0  0  0  0
 38 73  1  0  0  0  0
 38 78  2  0  0  0  0
 39 62  1  0  0  0  0
 39 67  1  0  0  0  0
 39 79  2  0  0  0  0
 40 63  1  0  0  0  0
 40 74  1  0  0  0  0
 40 80  2  0  0  0  0
 41 68  1  0  0  0  0
 41 71  1  0  0  0  0
 41 81  2  0  0  0  0
 42 45  1  0  0  0  0
 43 52  1  0  0  0  0
 44 67  1  0  0  0  0
 45 47  1  0  0  0  0
 46 48  1  0  0  0  0
 46 49  1  0  0  0  0
 47 51  1  0  0  0  0
 48 53  1  0  0  0  0
 49 68  1  0  0  0  0
 50 53  1  0  0  0  0
 50 68  1  0  0  0  0
 51 73  1  0  0  0  0
 52 67  1  0  0  0  0
 53 66  1  0  0  0  0
 55 61  1  0  0  0  0
 56 63  1  0  0  0  0
 57 64  1  0  0  0  0
 58 64  1  0  0  0  0
 59 64  1  0  0  0  0
 60 75  1  0  0  0  0
 61 72  1  0  0  0  0
 62 64  1  0  0  0  0
 62 74  1  0  0  0  0
 63 75  1  0  0  0  0
 65 66  1  0  0  0  0
M  CHG  1  75   1
M  ISO  4  34 101  41 100  71 100  83 101
M  END
> <Batch ID>
0074

> <Smiles>
CNC(C)C(=O)NC(C(=O)N1Cc2cc([101O:1][101CH:1]=C(C)C(C)NC(=O)c3cccc([100NH:0][100C:0](=O)N4CCCC(n5nc(-c6ccc(Oc7ccc(F)cc7F)cc6)c(C(N)=O)c5N)C4)c3F)ccc2CC1C(=O)NC1CCCc2ccccc21)C(C)(C)C

> <Shape>
0.243

> <Color>
0.073

> <Negative vol penalty>
0.000

$$$$

  -OEChem-04042323443D

 85 94  0     1  0  0  0  0  0999 V2000
  -26.0970  -38.5920   20.1755 C   0  0  0  0  0  0  0  0  0  0  0  0
  -26.7825  -37.5378   19.5804 C   0  0  0  0  0  0  0  0  0  0  0  0
  -24.0879   -9.6702   22.0605 C   0  0  0  0  0  0  0  0  0  0  0  0
  -24.7659  -11.1948   23.8077 C   0  0  0  0  0  0  0  0  0  0  0  0
  -25.4547  -38.4025   21.3984 C   0  0  0  0  0  0  0  0  0  0  0  0
  -26.8270  -36.2936   20.2086 C   0  0  0  0  0  0  0  0  0  0  0  0
  -27.0389  -29.2905   18.7159 C   0  0  0  0  0  0  0  0  0  0  0  0
  -30.7899  -20.0963   19.1534 C   0  0  0  0  0  0  0  0  0  0  0  0
  -30.5017  -18.7403   18.9990 C   0  0  0  0  0  0  0  0  0  0  0  0
  -23.7333   -8.7249   23.0228 C   0  0  0  0  0  0  0  0  0  0  0  0
  -24.4113  -10.2495   24.7702 C   0  0  0  0  0  0  0  0  0  0  0  0
  -27.7780  -28.1471   19.0162 C   0  0  0  0  0  0  0  0  0  0  0  0
  -21.1506   -8.1658   25.1323 C   0  0  0  0  0  0  0  0  0  0  0  0
  -19.9315   -7.5066   24.9751 C   0  0  0  0  0  0  0  0  0  0  0  0
  -26.5648  -27.9145   21.0882 C   0  0  0  0  0  0  0  0  0  0  0  0
  -28.4473  -20.5512   19.5307 C   0  0  0  0  0  0  0  0  0  0  0  0
  -21.0898   -5.3888   24.8738 C   0  0  0  0  0  0  0  0  0  0  0  0
  -24.6043  -10.9052   22.4529 C   0  0  0  0  0  0  0  0  0  0  0  0
  -24.1493  -12.8819   20.9058 C   0  0  0  0  0  0  0  0  0  0  0  0
  -25.4832  -37.1528   22.0371 C   0  0  0  0  0  0  0  0  0  0  0  0
  -26.0631  -29.7615   19.6061 C   0  0  0  0  0  0  0  0  0  0  0  0
  -26.1856  -36.0876   21.4418 C   0  0  0  0  0  0  0  0  0  0  0  0
  -25.8130  -29.0626   20.7957 C   0  0  0  0  0  0  0  0  0  0  0  0
  -28.1591  -19.1952   19.3763 C   0  0  0  0  0  0  0  0  0  0  0  0
  -29.7627  -21.0017   19.4193 C   0  0  0  0  0  0  0  0  0  0  0  0
  -29.1864  -18.2897   19.1104 C   0  0  0  0  0  0  0  0  0  0  0  0
  -23.8950   -9.0145   24.3777 C   0  0  0  0  0  0  0  0  0  0  0  0
  -27.5430  -27.4606   20.2038 C   0  0  0  0  0  0  0  0  0  0  0  0
  -22.3394   -7.4365   25.1602 C   0  0  0  0  0  0  0  0  0  0  0  0
  -19.9010   -6.1181   24.8459 C   0  0  0  0  0  0  0  0  0  0  0  0
  -22.3089   -6.0480   25.0309 C   0  0  0  0  0  0  0  0  0  0  0  0
  -24.9713  -11.8819   21.4592 C   0  0  0  0  0  0  0  0  0  0  0  0
  -24.9621  -13.5412   20.0164 C   0  0  0  0  0  0  0  0  0  0  0  0
  -29.1357  -23.4204   19.8503 C   0  0  0  0  0  0  0  0  0  0  0  0
  -22.7740  -13.1875   21.1722 C   0  0  0  0  0  0  0  0  0  0  0  0
  -25.6534  -32.4349   21.2760 C   0  0  0  0  0  0  0  0  0  0  0  0
  -22.7971  -31.0807   22.0040 C   0  0  0  0  0  0  0  0  0  0  0  0
  -20.9346  -28.2384   22.3187 C   0  0  0  0  0  0  0  0  0  0  0  0
  -29.8314  -15.8917   18.6867 C   0  0  0  0  0  0  0  0  0  0  0  0
  -24.8139  -37.0089   23.3810 C   0  0  0  0  0  0  0  0  0  0  0  0
  -25.2559  -30.9811   19.2550 C   0  0  0  0  0  0  0  0  0  0  0  0
  -24.7625  -29.5154   21.7755 C   0  0  0  0  0  0  0  0  0  0  0  0
  -24.5929  -35.5575   23.7991 C   0  0  0  0  0  0  0  0  0  0  0  0
  -29.5632  -12.3666   18.2639 C   0  0  0  0  0  0  0  0  0  0  0  0
  -25.8570  -34.7364   23.5660 C   0  0  0  0  0  0  0  0  0  0  0  0
  -28.2771  -12.0085   19.0119 C   0  0  0  0  0  0  0  0  0  0  0  0
  -31.2473  -24.3921   19.3393 C   0  0  0  0  0  0  0  0  0  0  0  0
  -30.3402  -13.4760   18.9705 C   0  0  0  0  0  0  0  0  0  0  0  0
  -31.4160  -22.8983   19.5318 C   0  0  0  0  0  0  0  0  0  0  0  0
  -28.2775  -14.3290   20.0130 C   0  0  0  0  0  0  0  0  0  0  0  0
  -26.2357  -34.7164   22.0801 C   0  0  1  0  0  0  0  0  0  0  0  0
  -29.9434  -24.6903   20.0650 C   0  0  1  0  0  0  0  0  0  0  0  0
  -24.6435  -31.6636   20.4742 C   0  0  1  0  0  0  0  0  0  0  0  0
  -27.4281  -13.2611   19.3047 C   0  0  2  0  0  0  0  0  0  0  0  0
  -26.7415  -18.7400   19.5028 C   0  0  0  0  0  0  0  0  0  0  0  0
  -18.6436  -27.4463   22.9677 C   0  0  0  0  0  0  0  0  0  0  0  0
  -23.4839  -31.5120   24.9455 C   0  0  0  0  0  0  0  0  0  0  0  0
  -21.6696  -29.8906   25.5349 C   0  0  0  0  0  0  0  0  0  0  0  0
  -21.1077  -32.0099   24.3452 C   0  0  0  0  0  0  0  0  0  0  0  0
  -20.4481  -27.0825   19.6380 C   0  0  0  0  0  0  0  0  0  0  0  0
  -29.2442  -25.9334   19.5482 C   0  0  0  0  0  0  0  0  0  1  0  0
  -22.2956  -30.1628   23.0926 C   0  0  1  0  0  0  0  0  0  0  0  0
  -19.5437  -27.8855   21.8234 C   0  0  2  0  0  0  0  0  0  0  0  0
  -22.1604  -30.8861   24.4622 C   0  0  0  0  0  0  0  0  0  0  0  0
  -26.2111  -11.9004   20.9627 N   0  0  0  0  0  0  0  0  0  0  0  0
  -26.1742  -12.9200   20.0879 N   0  0  0  0  0  0  0  0  0  0  0  0
  -30.0582  -22.3887   19.5800 N   0  0  0  0  0  0  0  0  0  0  0  0
  -24.0040  -30.7169   21.3901 N   0  0  0  0  0  0  0  0  0  0  0  0
  -29.4734  -14.6316   19.2110 N   0  0  0  0  0  0  0  0  0  0  0  0
  -24.7510  -14.5858   19.1877 N   0  0  0  0  0  0  0  0  0  0  0  0
  -22.0874  -12.4108   22.1153 N   0  0  0  0  0  0  0  0  0  0  0  0
  -28.9144  -16.9082   18.9519 N   0  0  0  0  0  0  0  0  0  0  0  0
  -25.3924  -33.7895   21.3561 N   0  0  0  0  0  0  0  0  0  0  0  0
  -21.0515  -29.5838   22.5972 N   0  0  0  0  0  0  0  0  0  0  0  0
  -19.6136  -26.7780   20.8287 N   0  3  0  0  0  0  0  0  0  0  0  0
  -27.9201  -23.3718   19.9708 O   0  0  0  0  0  0  0  0  0  0  0  0
  -22.1672  -14.1114   20.5790 O   0  0  0  0  0  0  0  0  0  0  0  0
  -26.5986  -31.8445   21.7856 O   0  0  0  0  0  0  0  0  0  0  0  0
  -22.1385  -32.0798   21.7045 O   0  0  0  0  0  0  0  0  0  0  0  0
  -21.8269  -27.4034   22.4494 O   0  0  0  0  0  0  0  0  0  0  0  0
  -30.8611  -16.0509   18.0261 O   0  0  0  0  0  0  0  0  0  0  0  0
  -23.5489   -8.0924   25.3171 O   0  0  0  0  0  0  0  0  0  0  0  0
  -28.2634  -26.3446   20.4997 O   0  0  0  0  0  0  0  0  0  1  0  0
  -18.7301   -5.4850   24.6965 F   0  0  0  0  0  0  0  0  0  0  0  0
  -23.4476   -5.3419   25.0581 F   0  0  0  0  0  0  0  0  0  0  0  0
  1  2  1  0  0  0  0
  1  5  2  0  0  0  0
  2  6  2  0  0  0  0
  3 10  2  0  0  0  0
  3 18  1  0  0  0  0
  4 11  1  0  0  0  0
  4 18  2  0  0  0  0
  5 20  1  0  0  0  0
  6 22  1  0  0  0  0
  7 12  2  0  0  0  0
  7 21  1  0  0  0  0
  8  9  2  0  0  0  0
  8 25  1  0  0  0  0
  9 26  1  0  0  0  0
 10 27  1  0  0  0  0
 11 27  2  0  0  0  0
 12 28  1  0  0  0  0
 13 14  2  0  0  0  0
 13 29  1  0  0  0  0
 14 30  1  0  0  0  0
 15 23  1  0  0  0  0
 15 28  2  0  0  0  0
 16 24  1  0  0  0  0
 16 25  2  0  0  0  0
 17 30  2  0  0  0  0
 17 31  1  0  0  0  0
 18 32  1  0  0  0  0
 19 32  1  0  0  0  0
 19 33  2  0  0  0  0
 19 35  1  0  0  0  0
 20 22  2  0  0  0  0
 20 40  1  0  0  0  0
 21 23  2  0  0  0  0
 21 41  1  0  0  0  0
 22 51  1  0  0  0  0
 23 42  1  0  0  0  0
 24 26  2  0  0  0  0
 24 55  1  0  0  0  0
 25 67  1  0  0  0  0
 26 72  1  0  0  0  0
 27 82  1  0  0  0  0
 28 83  1  0  0  0  0
 29 31  2  0  0  0  0
 29 82  1  0  0  0  0
 30 84  1  0  0  0  0
 31 85  1  0  0  0  0
 32 65  2  0  0  0  0
 33 66  1  0  0  0  0
 33 70  1  0  0  0  0
 34 52  1  0  0  0  0
 34 67  1  0  0  0  0
 34 76  2  0  0  0  0
 35 71  1  0  0  0  0
 35 77  2  0  0  0  0
 36 53  1  0  0  0  0
 36 73  1  0  0  0  0
 36 78  2  0  0  0  0
 37 62  1  0  0  0  0
 37 68  1  0  0  0  0
 37 79  2  0  0  0  0
 38 63  1  0  0  0  0
 38 74  1  0  0  0  0
 38 80  2  0  0  0  0
 39 69  1  0  0  0  0
 39 72  1  0  0  0  0
 39 81  2  0  0  0  0
 40 43  1  0  0  0  0
 41 53  1  0  0  0  0
 42 68  1  0  0  0  0
 43 45  1  0  0  0  0
 44 46  1  0  0  0  0
 44 48  1  0  0  0  0
 45 51  1  0  0  0  0
 46 54  1  0  0  0  0
 47 49  1  0  0  0  0
 47 52  1  0  0  0  0
 48 69  1  0  0  0  0
 49 67  1  0  0  0  0
 50 54  1  0  0  0  0
 50 69  1  0  0  0  0
 51 73  1  0  0  0  0
 52 61  1  0  0  0  0
 53 68  1  0  0  0  0
 54 66  1  0  0  0  0
 56 63  1  0  0  0  0
 57 64  1  0  0  0  0
 58 64  1  0  0  0  0
 59 64  1  0  0  0  0
 60 75  1  0  0  0  0
 61 83  1  0  0  0  0
 62 64  1  0  0  0  0
 62 74  1  0  0  0  0
 63 75  1  0  0  0  0
 65 66  1  0  0  0  0
M  CHG  1  75   1
M  ISO  4  39 100  61 101  72 100  83 101
M  END
> <Batch ID>
0074

> <Smiles>
CNC(C)C(=O)NC(C(=O)N1Cc2cc([101O:1][101CH2:1]C3CCN(c4ccc([100NH:0][100C:0](=O)N5CCCC(n6nc(-c7ccc(Oc8ccc(F)cc8F)cc7)c(C(N)=O)c6N)C5)c(C)c4)C3=O)ccc2CC1C(=O)NC1CCCc2ccccc21)C(C)(C)C

> <Shape>
0.342

> <Color>
0.140

> <Negative vol penalty>
0.000

$$$$

  -OEChem-04042323443D

 87 96  0     1  0  0  0  0  0999 V2000
  -21.8952  -32.2731   29.0831 C   0  0  0  0  0  0  0  0  0  0  0  0
  -22.6511  -31.1356   28.8185 C   0  0  0  0  0  0  0  0  0  0  0  0
  -23.0777   -9.8645   19.9419 C   0  0  0  0  0  0  0  0  0  0  0  0
  -23.8337   -9.8770   22.2365 C   0  0  0  0  0  0  0  0  0  0  0  0
  -31.3146  -19.0853   20.5997 C   0  0  0  0  0  0  0  0  0  0  0  0
  -20.6884  -32.4777   28.4154 C   0  0  0  0  0  0  0  0  0  0  0  0
  -22.2001  -30.2013   27.8867 C   0  0  0  0  0  0  0  0  0  0  0  0
  -25.6303  -26.8440   24.0831 C   0  0  0  0  0  0  0  0  0  0  0  0
  -31.1466  -17.7006   20.5950 C   0  0  0  0  0  0  0  0  0  0  0  0
  -22.3341   -8.7114   20.1931 C   0  0  0  0  0  0  0  0  0  0  0  0
  -23.0900   -8.7239   22.4878 C   0  0  0  0  0  0  0  0  0  0  0  0
  -26.0919  -25.5301   24.1489 C   0  0  0  0  0  0  0  0  0  0  0  0
  -19.8614   -7.9254   23.0865 C   0  0  0  0  0  0  0  0  0  0  0  0
  -19.1024   -7.8876   24.2562 C   0  0  0  0  0  0  0  0  0  0  0  0
  -24.2220  -24.8121   22.8046 C   0  0  0  0  0  0  0  0  0  0  0  0
  -29.5130  -17.8928   22.3646 C   0  0  0  0  0  0  0  0  0  0  0  0
  -20.3438   -5.9525   24.9990 C   0  0  0  0  0  0  0  0  0  0  0  0
  -23.8275  -10.4473   20.9636 C   0  0  0  0  0  0  0  0  0  0  0  0
  -30.5818  -19.8738   21.4869 C   0  0  0  0  0  0  0  0  0  0  0  0
  -24.1680  -12.9724   20.8386 C   0  0  0  0  0  0  0  0  0  0  0  0
  -20.2271  -31.5502   27.4680 C   0  0  0  0  0  0  0  0  0  0  0  0
  -24.4531  -27.1507   23.3855 C   0  0  0  0  0  0  0  0  0  0  0  0
  -20.9853  -30.3930   27.2067 C   0  0  0  0  0  0  0  0  0  0  0  0
  -23.7489  -26.1311   22.7293 C   0  0  0  0  0  0  0  0  0  0  0  0
  -29.6810  -19.2775   22.3693 C   0  0  0  0  0  0  0  0  0  0  0  0
  -30.2458  -17.1044   21.4774 C   0  0  0  0  0  0  0  0  0  0  0  0
  -22.3403   -8.1412   21.4661 C   0  0  0  0  0  0  0  0  0  0  0  0
  -25.3862  -24.5135   23.5120 C   0  0  0  0  0  0  0  0  0  0  0  0
  -20.8615   -6.9768   22.8730 C   0  0  0  0  0  0  0  0  0  0  0  0
  -19.3436   -6.9012   25.2125 C   0  0  0  0  0  0  0  0  0  0  0  0
  -21.1027   -5.9904   23.8293 C   0  0  0  0  0  0  0  0  0  0  0  0
  -24.5963  -11.6381   20.7046 C   0  0  0  0  0  0  0  0  0  0  0  0
  -25.2603  -13.7217   20.4756 C   0  0  0  0  0  0  0  0  0  0  0  0
  -27.9984  -21.0777   22.9671 C   0  0  0  0  0  0  0  0  0  0  0  0
  -30.5193  -21.9509   20.3125 C   0  0  0  0  0  0  0  0  0  0  0  0
  -30.7843  -21.3177   21.4622 C   0  0  0  0  0  0  0  0  0  0  0  0
  -22.8964  -13.4883   21.2542 C   0  0  0  0  0  0  0  0  0  0  0  0
  -21.6287  -28.3733   24.1802 C   0  0  0  0  0  0  0  0  0  0  0  0
  -21.1323  -28.3003   20.9754 C   0  0  0  0  0  0  0  0  0  0  0  0
  -21.9219  -26.9286   17.9519 C   0  0  0  0  0  0  0  0  0  0  0  0
  -30.7255  -14.7712   20.6573 C   0  0  0  0  0  0  0  0  0  0  0  0
  -18.8934  -31.7910   26.8062 C   0  0  0  0  0  0  0  0  0  0  0  0
  -23.9829  -28.5770   23.3015 C   0  0  0  0  0  0  0  0  0  0  0  0
  -22.4906  -26.4109   21.9503 C   0  0  0  0  0  0  0  0  0  0  0  0
  -18.6695  -30.9390   25.5594 C   0  0  0  0  0  0  0  0  0  0  0  0
  -29.6167  -12.3515   18.2925 C   0  0  0  0  0  0  0  0  0  0  0  0
  -19.0550  -29.4878   25.8282 C   0  0  0  0  0  0  0  0  0  0  0  0
  -28.1765  -12.0599   18.7202 C   0  0  0  0  0  0  0  0  0  0  0  0
  -28.3649  -21.0870   25.3187 C   0  0  0  0  0  0  0  0  0  0  0  0
  -30.5296  -12.5835   19.4952 C   0  0  0  0  0  0  0  0  0  0  0  0
  -28.9726  -19.8337   24.7213 C   0  0  0  0  0  0  0  0  0  0  0  0
  -28.6198  -13.3098   20.8716 C   0  0  0  0  0  0  0  0  0  0  0  0
  -20.5417  -29.3689   26.1847 C   0  0  1  0  0  0  0  0  0  0  0  0
  -27.3475  -21.5127   24.2701 C   0  0  1  0  0  0  0  0  0  0  0  0
  -22.4933  -28.6980   22.9950 C   0  0  1  0  0  0  0  0  0  0  0  0
  -27.6491  -13.1333   19.6925 C   0  0  2  0  0  0  0  0  0  0  0  0
  -31.2787  -22.0867   22.6534 C   0  0  0  0  0  0  0  0  0  0  0  0
  -21.3221  -27.0470   15.5180 C   0  0  0  0  0  0  0  0  0  0  0  0
  -18.5680  -26.7440   21.5342 C   0  0  0  0  0  0  0  0  0  0  0  0
  -18.5257  -26.0829   19.1197 C   0  0  0  0  0  0  0  0  0  0  0  0
  -18.3622  -28.4896   19.7552 C   0  0  0  0  0  0  0  0  0  0  0  0
  -24.6670  -27.7357   17.1954 C   0  0  0  0  0  0  0  0  0  0  0  0
  -27.0344  -22.9966   24.3112 C   0  0  0  0  0  0  0  0  0  1  0  0
  -20.5738  -27.2898   20.0028 C   0  0  1  0  0  0  0  0  0  0  0  0
  -22.2446  -27.5634   16.6112 C   0  0  2  0  0  0  0  0  0  0  0  0
  -19.0300  -27.1457   20.1192 C   0  0  0  0  0  0  0  0  0  0  0  0
  -25.8619  -11.5421   20.2887 N   0  0  0  0  0  0  0  0  0  0  0  0
  -26.2382  -12.8256   20.1582 N   0  0  0  0  0  0  0  0  0  0  0  0
  -28.9177  -20.0578   23.2887 N   0  0  0  0  0  0  0  0  0  0  0  0
  -22.0679  -27.8203   21.9028 N   0  0  0  0  0  0  0  0  0  0  0  0
  -29.9684  -13.6159   20.3693 N   0  0  0  0  0  0  0  0  0  0  0  0
  -25.4700  -15.0532   20.4000 N   0  0  0  0  0  0  0  0  0  0  0  0
  -21.8845  -12.5792   21.5918 N   0  0  0  0  0  0  0  0  0  0  0  0
  -30.0761  -15.6976   21.4726 N   0  0  0  0  0  0  0  0  0  0  0  0
  -21.3561  -29.4580   24.9918 N   0  0  0  0  0  0  0  0  0  0  0  0
  -21.0380  -27.6959   18.6807 N   0  0  0  0  0  0  0  0  0  0  0  0
  -23.6509  -27.2621   16.2205 N   0  3  0  0  0  0  0  0  0  0  0  0
  -27.6823  -21.5312   21.8767 O   0  0  0  0  0  0  0  0  0  0  0  0
  -22.6593  -14.7189   21.3085 O   0  0  0  0  0  0  0  0  0  0  0  0
  -21.2365  -27.2242   24.3452 O   0  0  0  0  0  0  0  0  0  0  0  0
  -20.7578  -29.4738   20.9098 O   0  0  0  0  0  0  0  0  0  0  0  0
  -22.4028  -25.8573   18.3146 O   0  0  0  0  0  0  0  0  0  0  0  0
  -31.8553  -14.9396   20.1913 O   0  0  0  0  0  0  0  0  0  0  0  0
  -21.6146   -7.0161   21.7116 O   0  0  0  0  0  0  0  0  0  0  0  0
  -25.8343  -23.2301   23.5752 O   0  0  0  0  0  0  0  0  0  1  0  0
  -18.6158   -6.8659   26.3364 F   0  0  0  0  0  0  0  0  0  0  0  0
  -22.0629   -5.0770   23.6303 F   0  0  0  0  0  0  0  0  0  0  0  0
  1  2  1  0  0  0  0
  1  6  2  0  0  0  0
  2  7  2  0  0  0  0
  3 10  2  0  0  0  0
  3 18  1  0  0  0  0
  4 11  1  0  0  0  0
  4 18  2  0  0  0  0
  5  9  2  0  0  0  0
  5 19  1  0  0  0  0
  6 21  1  0  0  0  0
  7 23  1  0  0  0  0
  8 12  2  0  0  0  0
  8 22  1  0  0  0  0
  9 26  1  0  0  0  0
 10 27  1  0  0  0  0
 11 27  2  0  0  0  0
 12 28  1  0  0  0  0
 13 14  2  0  0  0  0
 13 29  1  0  0  0  0
 14 30  1  0  0  0  0
 15 24  1  0  0  0  0
 15 28  2  0  0  0  0
 16 25  1  0  0  0  0
 16 26  2  0  0  0  0
 17 30  2  0  0  0  0
 17 31  1  0  0  0  0
 18 32  1  0  0  0  0
 19 25  2  0  0  0  0
 19 36  1  0  0  0  0
 20 32  1  0  0  0  0
 20 33  2  0  0  0  0
 20 37  1  0  0  0  0
 21 23  2  0  0  0  0
 21 42  1  0  0  0  0
 22 24  2  0  0  0  0
 22 43  1  0  0  0  0
 23 53  1  0  0  0  0
 24 44  1  0  0  0  0
 25 69  1  0  0  0  0
 26 74  1  0  0  0  0
 27 84  1  0  0  0  0
 28 85  1  0  0  0  0
 29 31  2  0  0  0  0
 29 84  1  0  0  0  0
 30 86  1  0  0  0  0
 31 87  1  0  0  0  0
 32 67  2  0  0  0  0
 33 68  1  0  0  0  0
 33 72  1  0  0  0  0
 34 54  1  0  0  0  0
 34 69  1  0  0  0  0
 34 78  2  0  0  0  0
 35 36  2  0  0  0  0
 36 57  1  0  0  0  0
 37 73  1  0  0  0  0
 37 79  2  0  0  0  0
 38 55  1  0  0  0  0
 38 75  1  0  0  0  0
 38 80  2  0  0  0  0
 39 64  1  0  0  0  0
 39 70  1  0  0  0  0
 39 81  2  0  0  0  0
 40 65  1  0  0  0  0
 40 76  1  0  0  0  0
 40 82  2  0  0  0  0
 41 71  1  0  0  0  0
 41 74  1  0  0  0  0
 41 83  2  0  0  0  0
 42 45  1  0  0  0  0
 43 55  1  0  0  0  0
 44 70  1  0  0  0  0
 45 47  1  0  0  0  0
 46 48  1  0  0  0  0
 46 50  1  0  0  0  0
 47 53  1  0  0  0  0
 48 56  1  0  0  0  0
 49 51  1  0  0  0  0
 49 54  1  0  0  0  0
 50 71  1  0  0  0  0
 51 69  1  0  0  0  0
 52 56  1  0  0  0  0
 52 71  1  0  0  0  0
 53 75  1  0  0  0  0
 54 63  1  0  0  0  0
 55 70  1  0  0  0  0
 56 68  1  0  0  0  0
 58 65  1  0  0  0  0
 59 66  1  0  0  0  0
 60 66  1  0  0  0  0
 61 66  1  0  0  0  0
 62 77  1  0  0  0  0
 63 85  1  0  0  0  0
 64 66  1  0  0  0  0
 64 76  1  0  0  0  0
 65 77  1  0  0  0  0
 67 68  1  0  0  0  0
M  CHG  1  77   1
M  ISO  4  41 100  63 101  74 100  85 101
M  END
> <Batch ID>
0074

> <Smiles>
C=C(C)c1ccc([100NH:0][100C:0](=O)N2CCCC(n3nc(-c4ccc(Oc5ccc(F)cc5F)cc4)c(C(N)=O)c3N)C2)cc1N1CCC([101CH2:1][101O:1]c2ccc3c(c2)CN(C(=O)C(NC(=O)C(C)NC)C(C)(C)C)C(C(=O)NC2CCCc4ccccc42)C3)C1=O

> <Shape>
0.242

> <Color>
0.192

> <Negative vol penalty>
0.000

$$$$

  -OEChem-04042323443D

 88 97  0     1  0  0  0  0  0999 V2000
  -33.7921  -30.6690   30.8728 C   0  0  0  0  0  0  0  0  0  0  0  0
  -32.9003  -29.6845   30.4596 C   0  0  0  0  0  0  0  0  0  0  0  0
  -22.6799  -10.1869   20.1778 C   0  0  0  0  0  0  0  0  0  0  0  0
  -24.3201   -9.4558   21.7940 C   0  0  0  0  0  0  0  0  0  0  0  0
  -34.3428  -31.5456   29.9388 C   0  0  0  0  0  0  0  0  0  0  0  0
  -32.5578  -29.5766   29.1122 C   0  0  0  0  0  0  0  0  0  0  0  0
  -32.6014  -24.7850   27.4742 C   0  0  0  0  0  0  0  0  0  0  0  0
  -21.9495   -9.0177   20.3900 C   0  0  0  0  0  0  0  0  0  0  0  0
  -23.5896   -8.2866   22.0064 C   0  0  0  0  0  0  0  0  0  0  0  0
  -31.5076  -23.9878   27.8086 C   0  0  0  0  0  0  0  0  0  0  0  0
  -20.8297   -7.3520   23.7181 C   0  0  0  0  0  0  0  0  0  0  0  0
  -20.6338   -6.9425   25.0370 C   0  0  0  0  0  0  0  0  0  0  0  0
  -30.5843  -24.3422   25.6083 C   0  0  0  0  0  0  0  0  0  0  0  0
  -31.8885  -18.2374   24.3181 C   0  0  0  0  0  0  0  0  0  0  0  0
  -32.0786  -16.5612   22.5886 C   0  0  0  0  0  0  0  0  0  0  0  0
  -21.7733   -4.8659   24.5615 C   0  0  0  0  0  0  0  0  0  0  0  0
  -23.8652  -10.4059   20.8797 C   0  0  0  0  0  0  0  0  0  0  0  0
  -24.1853  -12.9367   20.8625 C   0  0  0  0  0  0  0  0  0  0  0  0
  -34.0143  -31.4423   28.5779 C   0  0  0  0  0  0  0  0  0  0  0  0
  -32.6897  -25.3767   26.2059 C   0  0  0  0  0  0  0  0  0  0  0  0
  -33.1035  -30.4535   28.1593 C   0  0  0  0  0  0  0  0  0  0  0  0
  -31.6815  -25.1444   25.2594 C   0  0  0  0  0  0  0  0  0  0  0  0
  -30.5002  -18.2170   24.1854 C   0  0  0  0  0  0  0  0  0  0  0  0
  -32.6778  -17.4095   23.5197 C   0  0  0  0  0  0  0  0  0  0  0  0
  -30.6902  -16.5407   22.4559 C   0  0  0  0  0  0  0  0  0  0  0  0
  -22.4043   -8.0676   21.3043 C   0  0  0  0  0  0  0  0  0  0  0  0
  -30.4974  -23.7686   26.8766 C   0  0  0  0  0  0  0  0  0  0  0  0
  -21.4973   -6.5184   22.8208 C   0  0  0  0  0  0  0  0  0  0  0  0
  -21.1056   -5.6995   25.4587 C   0  0  0  0  0  0  0  0  0  0  0  0
  -21.9691   -5.2753   23.2425 C   0  0  0  0  0  0  0  0  0  0  0  0
  -29.9010  -17.3686   23.2543 C   0  0  0  0  0  0  0  0  0  0  0  0
  -24.6205  -11.6132   20.6605 C   0  0  0  0  0  0  0  0  0  0  0  0
  -25.2652  -13.7103   20.5134 C   0  0  0  0  0  0  0  0  0  0  0  0
  -28.4502  -19.5640   24.5517 C   0  0  0  0  0  0  0  0  0  0  0  0
  -22.9182  -13.4233   21.3244 C   0  0  0  0  0  0  0  0  0  0  0  0
  -32.7949  -28.3648   25.1270 C   0  0  0  0  0  0  0  0  0  0  0  0
  -33.3020  -26.9043   22.2753 C   0  0  0  0  0  0  0  0  0  0  0  0
  -32.0056  -24.0303   20.5213 C   0  0  0  0  0  0  0  0  0  0  0  0
  -30.7253  -14.7939   20.6411 C   0  0  0  0  0  0  0  0  0  0  0  0
  -34.5985  -32.4426   27.6122 C   0  0  0  0  0  0  0  0  0  0  0  0
  -33.8892  -26.2122   25.8516 C   0  0  0  0  0  0  0  0  0  0  0  0
  -31.7388  -25.7400   23.8773 C   0  0  0  0  0  0  0  0  0  0  0  0
  -27.5230  -20.1642   25.5953 C   0  0  0  0  0  0  0  0  0  0  0  0
  -34.4727  -32.0227   26.1499 C   0  0  0  0  0  0  0  0  0  0  0  0
  -29.5893  -12.4742   18.1904 C   0  0  0  0  0  0  0  0  0  0  0  0
  -33.0613  -31.5235   25.8574 C   0  0  0  0  0  0  0  0  0  0  0  0
  -28.1595  -12.1523   18.6312 C   0  0  0  0  0  0  0  0  0  0  0  0
  -29.2922  -20.0658   27.3066 C   0  0  0  0  0  0  0  0  0  0  0  0
  -30.5231  -12.6591   19.3853 C   0  0  0  0  0  0  0  0  0  0  0  0
  -30.2854  -19.5791   26.2618 C   0  0  0  0  0  0  0  0  0  0  0  0
  -28.6345  -13.3076   20.8281 C   0  0  0  0  0  0  0  0  0  0  0  0
  -32.7264  -30.2889   26.7030 C   0  0  1  0  0  0  0  0  0  0  0  0
  -33.6232  -27.1839   24.7060 C   0  0  1  0  0  0  0  0  0  0  0  0
  -27.6430  -13.1767   19.6605 C   0  0  2  0  0  0  0  0  0  0  0  0
  -28.2134  -20.9645   26.6993 C   0  0  2  0  0  0  0  0  0  0  0  0
  -27.1862  -21.3260   27.7870 C   0  0  0  0  0  0  0  0  0  0  0  0
  -33.0662  -22.5656   18.7814 C   0  0  0  0  0  0  0  0  0  0  0  0
  -31.9321  -28.7692   20.2865 C   0  0  0  0  0  0  0  0  0  0  0  0
  -31.4579  -26.7746   18.8494 C   0  0  0  0  0  0  0  0  0  0  0  0
  -33.8160  -27.4291   19.3328 C   0  0  0  0  0  0  0  0  0  0  0  0
  -31.5027  -21.5833   22.1081 C   0  0  0  0  0  0  0  0  0  0  0  0
  -28.8036  -22.2709   26.1391 C   0  0  0  0  0  0  0  0  0  1  0  0
  -32.4175  -26.3904   21.1651 C   0  0  1  0  0  0  0  0  0  0  0  0
  -32.7314  -22.7236   20.2565 C   0  0  2  0  0  0  0  0  0  0  0  0
  -32.3969  -27.3417   19.9354 C   0  0  0  0  0  0  0  0  0  0  0  0
  -25.8787  -11.5461   20.2173 N   0  0  0  0  0  0  0  0  0  0  0  0
  -26.2434  -12.8372   20.1379 N   0  0  0  0  0  0  0  0  0  0  0  0
  -29.6832  -19.0769   25.0159 N   0  0  0  0  0  0  0  0  0  0  0  0
  -32.9288  -26.5547   23.5808 N   0  0  0  0  0  0  0  0  0  0  0  0
  -29.9712  -13.6467   20.3153 N   0  0  0  0  0  0  0  0  0  0  0  0
  -34.0818  -17.4294   23.6537 N   0  0  0  0  0  0  0  0  0  0  0  0
  -25.4640  -15.0454   20.4941 N   0  0  0  0  0  0  0  0  0  0  0  0
  -22.7347  -13.6065   22.7017 N   0  0  0  0  0  0  0  0  0  0  0  0
  -30.0849  -15.6775   21.5092 N   0  0  0  0  0  0  0  0  0  0  0  0
  -33.3551  -29.1098   26.1471 N   0  0  0  0  0  0  0  0  0  0  0  0
  -32.8796  -25.0390   20.8675 N   0  0  0  0  0  0  0  0  0  0  0  0
  -31.8872  -21.5684   20.6732 N   0  3  0  0  0  0  0  0  0  0  0  0
  -28.0427  -19.4896   23.3892 O   0  0  0  0  0  0  0  0  0  0  0  0
  -21.9712  -13.6722   20.5404 O   0  0  0  0  0  0  0  0  0  0  0  0
  -31.7274  -28.5845   24.5668 O   0  0  0  0  0  0  0  0  0  0  0  0
  -34.2919  -27.5846   21.9942 O   0  0  0  0  0  0  0  0  0  0  0  0
  -30.7856  -24.1457   20.4266 O   0  0  0  0  0  0  0  0  0  0  0  0
  -31.8449  -14.9920   20.1622 O   0  0  0  0  0  0  0  0  0  0  0  0
  -21.6917   -6.9267   21.5119 O   0  0  0  0  0  0  0  0  0  0  0  0
  -29.4284  -22.9914   27.2007 O   0  0  0  0  0  0  0  0  0  1  0  0
  -20.9188   -5.3071   26.7257 F   0  0  0  0  0  0  0  0  0  0  0  0
  -22.6123   -4.4706   22.3854 F   0  0  0  0  0  0  0  0  0  0  0  0
  -28.5653  -17.3476   23.1275 F   0  0  0  0  0  0  0  0  0  0  0  0
  1  2  1  0  0  0  0
  1  5  2  0  0  0  0
  2  6  2  0  0  0  0
  3  8  2  0  0  0  0
  3 17  1  0  0  0  0
  4  9  1  0  0  0  0
  4 17  2  0  0  0  0
  5 19  1  0  0  0  0
  6 21  1  0  0  0  0
  7 10  2  0  0  0  0
  7 20  1  0  0  0  0
  8 26  1  0  0  0  0
  9 26  2  0  0  0  0
 10 27  1  0  0  0  0
 11 12  2  0  0  0  0
 11 28  1  0  0  0  0
 12 29  1  0  0  0  0
 13 22  1  0  0  0  0
 13 27  2  0  0  0  0
 14 23  1  0  0  0  0
 14 24  2  0  0  0  0
 15 24  1  0  0  0  0
 15 25  2  0  0  0  0
 16 29  2  0  0  0  0
 16 30  1  0  0  0  0
 17 32  1  0  0  0  0
 18 32  1  0  0  0  0
 18 33  2  0  0  0  0
 18 35  1  0  0  0  0
 19 21  2  0  0  0  0
 19 40  1  0  0  0  0
 20 22  2  0  0  0  0
 20 41  1  0  0  0  0
 21 52  1  0  0  0  0
 22 42  1  0  0  0  0
 23 31  2  0  0  0  0
 23 68  1  0  0  0  0
 24 71  1  0  0  0  0
 25 31  1  0  0  0  0
 25 74  1  0  0  0  0
 26 84  1  0  0  0  0
 27 85  1  0  0  0  0
 28 30  2  0  0  0  0
 28 84  1  0  0  0  0
 29 86  1  0  0  0  0
 30 87  1  0  0  0  0
 31 88  1  0  0  0  0
 32 66  2  0  0  0  0
 33 67  1  0  0  0  0
 33 72  1  0  0  0  0
 34 43  1  0  0  0  0
 34 68  1  0  0  0  0
 34 78  2  0  0  0  0
 35 73  1  0  0  0  0
 35 79  2  0  0  0  0
 36 53  1  0  0  0  0
 36 75  1  0  0  0  0
 36 80  2  0  0  0  0
 37 63  1  0  0  0  0
 37 69  1  0  0  0  0
 37 81  2  0  0  0  0
 38 64  1  0  0  0  0
 38 76  1  0  0  0  0
 38 82  2  0  0  0  0
 39 70  1  0  0  0  0
 39 74  1  0  0  0  0
 39 83  2  0  0  0  0
 40 44  1  0  0  0  0
 41 53  1  0  0  0  0
 42 69  1  0  0  0  0
 43 55  1  0  0  0  0
 44 46  1  0  0  0  0
 45 47  1  0  0  0  0
 45 49  1  0  0  0  0
 46 52  1  0  0  0  0
 47 54  1  0  0  0  0
 48 50  1  0  0  0  0
 48 55  1  0  0  0  0
 49 70  1  0  0  0  0
 50 68  1  0  0  0  0
 51 54  1  0  0  0  0
 51 70  1  0  0  0  0
 52 75  1  0  0  0  0
 53 69  1  0  0  0  0
 54 67  1  0  0  0  0
 55 56  1  0  0  0  0
 55 62  1  0  0  0  0
 57 64  1  0  0  0  0
 58 65  1  0  0  0  0
 59 65  1  0  0  0  0
 60 65  1  0  0  0  0
 61 77  1  0  0  0  0
 62 85  1  0  0  0  0
 63 65  1  0  0  0  0
 63 76  1  0  0  0  0
 64 77  1  0  0  0  0
 66 67  1  0  0  0  0
M  CHG  1  77   1
M  ISO  4  39 100  62 101  74 100  85 101
M  END
> <Batch ID>
0074

> <Smiles>
CNC(C)C(=O)NC(C(=O)N1Cc2cc([101O:1][101CH2:1]C3(C)CCN(c4cc(N)cc([100NH:0][100C:0](=O)N5CCCC(n6nc(-c7ccc(Oc8ccc(F)cc8F)cc7)c(C(N)=O)c6N)C5)c4F)C(=O)C3)ccc2CC1C(=O)NC1CCCc2ccccc21)C(C)(C)C

> <Shape>
0.199

> <Color>
0.173

> <Negative vol penalty>
0.000

$$$$

  -OEChem-04042323443D

 87 96  0     1  0  0  0  0  0999 V2000
  -31.9969  -35.3088   16.2697 C   0  0  0  0  0  0  0  0  0  0  0  0
  -31.8313  -34.0559   16.8513 C   0  0  0  0  0  0  0  0  0  0  0  0
  -24.5474   -8.3091   20.7757 C   0  0  0  0  0  0  0  0  0  0  0  0
  -23.0119  -10.1547   21.0462 C   0  0  0  0  0  0  0  0  0  0  0  0
  -31.5203  -36.4464   16.9200 C   0  0  0  0  0  0  0  0  0  0  0  0
  -31.1900  -33.9399   18.0840 C   0  0  0  0  0  0  0  0  0  0  0  0
  -27.8296  -30.1526   18.1770 C   0  0  0  0  0  0  0  0  0  0  0  0
  -28.1104  -19.6497   19.3818 C   0  0  0  0  0  0  0  0  0  0  0  0
  -28.1857  -18.2952   19.7065 C   0  0  0  0  0  0  0  0  0  0  0  0
  -23.5180   -7.4112   21.0583 C   0  0  0  0  0  0  0  0  0  0  0  0
  -21.9825   -9.2569   21.3287 C   0  0  0  0  0  0  0  0  0  0  0  0
  -28.3309  -28.8600   18.3243 C   0  0  0  0  0  0  0  0  0  0  0  0
  -21.9046   -6.2528   23.7931 C   0  0  0  0  0  0  0  0  0  0  0  0
  -22.1799   -5.2096   24.6771 C   0  0  0  0  0  0  0  0  0  0  0  0
  -27.7749  -28.9183   20.6710 C   0  0  0  0  0  0  0  0  0  0  0  0
  -29.0577  -18.8661   21.8861 C   0  0  0  0  0  0  0  0  0  0  0  0
  -21.6524   -3.6058   22.9489 C   0  0  0  0  0  0  0  0  0  0  0  0
  -24.2944   -9.6808   20.7697 C   0  0  0  0  0  0  0  0  0  0  0  0
  -25.7306  -11.1047   19.2149 C   0  0  0  0  0  0  0  0  0  0  0  0
  -30.8642  -36.3433   18.1567 C   0  0  0  0  0  0  0  0  0  0  0  0
  -27.3062  -30.8430   19.2797 C   0  0  0  0  0  0  0  0  0  0  0  0
  -30.7054  -35.0773   18.7521 C   0  0  0  0  0  0  0  0  0  0  0  0
  -27.2652  -30.2186   20.5345 C   0  0  0  0  0  0  0  0  0  0  0  0
  -28.5089  -20.6124   20.3093 C   0  0  0  0  0  0  0  0  0  0  0  0
  -28.6593  -17.9034   20.9586 C   0  0  0  0  0  0  0  0  0  0  0  0
  -22.2355   -7.8851   21.3347 C   0  0  0  0  0  0  0  0  0  0  0  0
  -28.3063  -28.2438   19.5720 C   0  0  0  0  0  0  0  0  0  0  0  0
  -21.5030   -5.9725   22.4870 C   0  0  0  0  0  0  0  0  0  0  0  0
  -22.0539   -3.8861   24.2550 C   0  0  0  0  0  0  0  0  0  0  0  0
  -28.9825  -20.2206   21.5614 C   0  0  0  0  0  0  0  0  0  0  0  0
  -21.3769   -4.6490   22.0649 C   0  0  0  0  0  0  0  0  0  0  0  0
  -25.3574  -10.6088   20.4785 C   0  0  0  0  0  0  0  0  0  0  0  0
  -26.7854  -11.9454   19.4738 C   0  0  0  0  0  0  0  0  0  0  0  0
  -27.5551  -23.9310   18.7182 C   0  0  0  0  0  0  0  0  0  0  0  0
  -28.6141  -24.6859   19.0462 C   0  0  0  0  0  0  0  0  0  0  0  0
  -29.6692  -24.1315   19.8797 C   0  0  0  0  0  0  0  0  0  0  0  0
  -27.4551  -22.4890   19.0803 C   0  0  0  0  0  0  0  0  0  0  0  0
  -30.9205  -24.6163   19.9351 C   0  0  0  0  0  0  0  0  0  0  0  0
  -25.1735  -10.8300   17.9227 C   0  0  0  0  0  0  0  0  0  0  0  0
  -28.0625  -33.5223   20.8137 C   0  0  0  0  0  0  0  0  0  0  0  0
  -25.3193  -32.9091   22.4326 C   0  0  0  0  0  0  0  0  0  0  0  0
  -23.0173  -30.6116   23.4668 C   0  0  0  0  0  0  0  0  0  0  0  0
  -29.1816  -15.9691   22.4856 C   0  0  0  0  0  0  0  0  0  0  0  0
  -30.4082  -37.6059   18.8440 C   0  0  0  0  0  0  0  0  0  0  0  0
  -26.7449  -32.2267   19.0987 C   0  0  0  0  0  0  0  0  0  0  0  0
  -26.6954  -30.9091   21.7456 C   0  0  0  0  0  0  0  0  0  0  0  0
  -29.2518  -22.9640   20.7347 C   0  0  0  0  0  0  0  0  0  0  0  0
  -29.4076  -37.3591   19.9702 C   0  0  0  0  0  0  0  0  0  0  0  0
  -29.4878  -12.6354   23.6979 C   0  0  0  0  0  0  0  0  0  0  0  0
  -29.8818  -36.2185   20.8652 C   0  0  0  0  0  0  0  0  0  0  0  0
  -28.4712  -11.8517   22.8645 C   0  0  0  0  0  0  0  0  0  0  0  0
  -28.9837  -14.0372   24.0361 C   0  0  0  0  0  0  0  0  0  0  0  0
  -27.5260  -14.0495   22.0501 C   0  0  0  0  0  0  0  0  0  0  0  0
  -29.9930  -34.9081   20.0765 C   0  0  1  0  0  0  0  0  0  0  0  0
  -26.7060  -33.0300   20.3950 C   0  0  1  0  0  0  0  0  0  0  0  0
  -28.0164  -12.6543   21.6298 C   0  0  2  0  0  0  0  0  0  0  0  0
  -20.9063  -30.4042   24.8077 C   0  0  0  0  0  0  0  0  0  0  0  0
  -26.9370  -33.1357   25.0098 C   0  0  0  0  0  0  0  0  0  0  0  0
  -25.0518  -32.0074   26.2102 C   0  0  0  0  0  0  0  0  0  0  0  0
  -24.6797  -34.2087   25.0973 C   0  0  0  0  0  0  0  0  0  0  0  0
  -21.4907  -29.6315   21.1284 C   0  0  0  0  0  0  0  0  0  0  0  0
  -28.7057  -26.1154   18.5889 C   0  0  0  0  0  0  0  0  0  1  0  0
  -24.9637  -32.1350   23.6790 C   0  0  1  0  0  0  0  0  0  0  0  0
  -21.4999  -30.6164   23.4237 C   0  0  2  0  0  0  0  0  0  0  0  0
  -25.4206  -32.8591   24.9768 C   0  0  0  0  0  0  0  0  0  0  0  0
  -26.1138  -11.0939   21.4667 N   0  0  0  0  0  0  0  0  0  0  0  0
  -26.9729  -11.9033   20.8241 N   0  0  0  0  0  0  0  0  0  0  0  0
  -28.4300  -22.0130   19.9706 N   0  0  0  0  0  0  0  0  0  0  0  0
  -26.1644  -32.2634   21.5190 N   0  0  0  0  0  0  0  0  0  0  0  0
  -28.5746  -14.7394   22.8177 N   0  0  0  0  0  0  0  0  0  0  0  0
  -27.5617  -12.7090   18.6759 N   0  0  0  0  0  0  0  0  0  0  0  0
  -24.0924   -9.9423   17.8361 N   0  0  0  0  0  0  0  0  0  0  0  0
  -28.7356  -16.5275   21.2882 N   0  0  0  0  0  0  0  0  0  0  0  0
  -28.6833  -34.3259   19.8765 N   0  0  0  0  0  0  0  0  0  0  0  0
  -23.5282  -31.8845   23.6083 N   0  0  0  0  0  0  0  0  0  0  0  0
  -21.0036  -29.5333   22.5284 N   0  3  0  0  0  0  0  0  0  0  0  0
  -26.5290  -21.8452   18.5887 O   0  0  0  0  0  0  0  0  0  0  0  0
  -25.6317  -11.3435   16.8739 O   0  0  0  0  0  0  0  0  0  0  0  0
  -28.5120  -33.1983   21.9067 O   0  0  0  0  0  0  0  0  0  0  0  0
  -24.8583  -34.0419   22.2722 O   0  0  0  0  0  0  0  0  0  0  0  0
  -23.6827  -29.5814   23.3868 O   0  0  0  0  0  0  0  0  0  0  0  0
  -30.0539  -16.4750   23.1964 O   0  0  0  0  0  0  0  0  0  0  0  0
  -21.2307   -7.0093   21.6102 O   0  0  0  0  0  0  0  0  0  0  0  0
  -28.7956  -26.9824   19.7187 O   0  0  0  0  0  0  0  0  0  1  0  0
  -22.3198   -2.8845   25.1036 F   0  0  0  0  0  0  0  0  0  0  0  0
  -29.3689  -21.1372   22.4606 F   0  0  0  0  0  0  0  0  0  0  0  0
  -20.9927   -4.3736   20.8110 F   0  0  0  0  0  0  0  0  0  0  0  0
  1  2  1  0  0  0  0
  1  5  2  0  0  0  0
  2  6  2  0  0  0  0
  3 10  2  0  0  0  0
  3 18  1  0  0  0  0
  4 11  1  0  0  0  0
  4 18  2  0  0  0  0
  5 20  1  0  0  0  0
  6 22  1  0  0  0  0
  7 12  2  0  0  0  0
  7 21  1  0  0  0  0
  8  9  2  0  0  0  0
  8 24  1  0  0  0  0
  9 25  1  0  0  0  0
 10 26  1  0  0  0  0
 11 26  2  0  0  0  0
 12 27  1  0  0  0  0
 13 14  2  0  0  0  0
 13 28  1  0  0  0  0
 14 29  1  0  0  0  0
 15 23  1  0  0  0  0
 15 27  2  0  0  0  0
 16 25  2  0  0  0  0
 16 30  1  0  0  0  0
 17 29  2  0  0  0  0
 17 31  1  0  0  0  0
 18 32  1  0  0  0  0
 19 32  1  0  0  0  0
 19 33  2  0  0  0  0
 19 39  1  0  0  0  0
 20 22  2  0  0  0  0
 20 44  1  0  0  0  0
 21 23  2  0  0  0  0
 21 45  1  0  0  0  0
 22 54  1  0  0  0  0
 23 46  1  0  0  0  0
 24 30  2  0  0  0  0
 24 68  1  0  0  0  0
 25 73  1  0  0  0  0
 26 83  1  0  0  0  0
 27 84  1  0  0  0  0
 28 31  2  0  0  0  0
 28 83  1  0  0  0  0
 29 85  1  0  0  0  0
 30 86  1  0  0  0  0
 31 87  1  0  0  0  0
 32 66  2  0  0  0  0
 33 67  1  0  0  0  0
 33 71  1  0  0  0  0
 34 35  2  0  0  0  0
 34 37  1  0  0  0  0
 35 36  1  0  0  0  0
 35 62  1  0  0  0  0
 36 38  2  0  0  0  0
 36 47  1  0  0  0  0
 37 68  1  0  0  0  0
 37 77  2  0  0  0  0
 39 72  1  0  0  0  0
 39 78  2  0  0  0  0
 40 55  1  0  0  0  0
 40 74  1  0  0  0  0
 40 79  2  0  0  0  0
 41 63  1  0  0  0  0
 41 69  1  0  0  0  0
 41 80  2  0  0  0  0
 42 64  1  0  0  0  0
 42 75  1  0  0  0  0
 42 81  2  0  0  0  0
 43 70  1  0  0  0  0
 43 73  1  0  0  0  0
 43 82  2  0  0  0  0
 44 48  1  0  0  0  0
 45 55  1  0  0  0  0
 46 69  1  0  0  0  0
 47 68  1  0  0  0  0
 48 50  1  0  0  0  0
 49 51  1  0  0  0  0
 49 52  1  0  0  0  0
 50 54  1  0  0  0  0
 51 56  1  0  0  0  0
 52 70  1  0  0  0  0
 53 56  1  0  0  0  0
 53 70  1  0  0  0  0
 54 74  1  0  0  0  0
 55 69  1  0  0  0  0
 56 67  1  0  0  0  0
 57 64  1  0  0  0  0
 58 65  1  0  0  0  0
 59 65  1  0  0  0  0
 60 65  1  0  0  0  0
 61 76  1  0  0  0  0
 62 84  1  0  0  0  0
 63 65  1  0  0  0  0
 63 75  1  0  0  0  0
 64 76  1  0  0  0  0
 66 67  1  0  0  0  0
M  CHG  1  76   1
M  ISO  4  43 100  62 101  73 100  84 101
M  END
> <Batch ID>
0074

> <Smiles>
C=C1CN(c2ccc([100NH:0][100C:0](=O)N3CCCC(n4nc(-c5ccc(Oc6ccc(F)cc6F)cc5)c(C(N)=O)c4N)C3)cc2F)C(=O)C=C1[101CH2:1][101O:1]c1ccc2c(c1)CN(C(=O)C(NC(=O)C(C)NC)C(C)(C)C)C(C(=O)NC1CCCc3ccccc31)C2

> <Shape>
0.282

> <Color>
0.097

> <Negative vol penalty>
0.000

$$$$

  -OEChem-04042323443D

 88 97  0     1  0  0  0  0  0999 V2000
  -18.0552  -13.6312   21.7522 C   0  0  0  0  0  0  0  0  0  0  0  0
  -18.5339  -14.1669   22.9425 C   0  0  0  0  0  0  0  0  0  0  0  0
  -23.1979   -9.8533   19.9555 C   0  0  0  0  0  0  0  0  0  0  0  0
  -23.9046   -9.9371   22.2644 C   0  0  0  0  0  0  0  0  0  0  0  0
  -18.1468  -14.3687   20.5737 C   0  0  0  0  0  0  0  0  0  0  0  0
  -19.0935  -15.4450   22.9569 C   0  0  0  0  0  0  0  0  0  0  0  0
  -21.7482  -18.5562   27.4736 C   0  0  0  0  0  0  0  0  0  0  0  0
  -29.7355  -15.8047   24.8591 C   0  0  0  0  0  0  0  0  0  0  0  0
  -29.0112  -16.6682   25.6809 C   0  0  0  0  0  0  0  0  0  0  0  0
  -22.5046   -8.6702   20.2106 C   0  0  0  0  0  0  0  0  0  0  0  0
  -23.2111   -8.7540   22.5195 C   0  0  0  0  0  0  0  0  0  0  0  0
  -23.0343  -18.7395   27.9797 C   0  0  0  0  0  0  0  0  0  0  0  0
  -20.2507   -5.8208   20.3380 C   0  0  0  0  0  0  0  0  0  0  0  0
  -18.9602   -5.7015   19.8224 C   0  0  0  0  0  0  0  0  0  0  0  0
  -23.2416  -20.7735   26.6994 C   0  0  0  0  0  0  0  0  0  0  0  0
  -30.0079  -18.5655   24.5655 C   0  0  0  0  0  0  0  0  0  0  0  0
  -18.2732   -7.6377   21.0937 C   0  0  0  0  0  0  0  0  0  0  0  0
  -23.8980  -10.4867   20.9824 C   0  0  0  0  0  0  0  0  0  0  0  0
  -24.1215  -13.0229   20.8229 C   0  0  0  0  0  0  0  0  0  0  0  0
  -18.7192  -15.6514   20.5723 C   0  0  0  0  0  0  0  0  0  0  0  0
  -21.2024  -19.4760   26.5667 C   0  0  0  0  0  0  0  0  0  0  0  0
  -19.1731  -16.2148   21.7823 C   0  0  0  0  0  0  0  0  0  0  0  0
  -21.9474  -20.6010   26.1853 C   0  0  0  0  0  0  0  0  0  0  0  0
  -30.5960  -16.3215   23.8905 C   0  0  0  0  0  0  0  0  0  0  0  0
  -29.1474  -18.0486   25.5341 C   0  0  0  0  0  0  0  0  0  0  0  0
  -22.5111   -8.1206   21.4926 C   0  0  0  0  0  0  0  0  0  0  0  0
  -23.7823  -19.8468   27.5904 C   0  0  0  0  0  0  0  0  0  0  0  0
  -20.5525   -6.8486   21.2316 C   0  0  0  0  0  0  0  0  0  0  0  0
  -17.9714   -6.6099   20.2002 C   0  0  0  0  0  0  0  0  0  0  0  0
  -30.7322  -17.7019   23.7437 C   0  0  0  0  0  0  0  0  0  0  0  0
  -19.5637   -7.7570   21.6094 C   0  0  0  0  0  0  0  0  0  0  0  0
  -24.6150  -11.7086   20.7193 C   0  0  0  0  0  0  0  0  0  0  0  0
  -25.1845  -13.8177   20.4696 C   0  0  0  0  0  0  0  0  0  0  0  0
  -27.5473  -18.6754   27.3493 C   0  0  0  0  0  0  0  0  0  0  0  0
  -32.2518  -14.4544   23.7967 C   0  0  0  0  0  0  0  0  0  0  0  0
  -22.8187  -13.4842   21.2044 C   0  0  0  0  0  0  0  0  0  0  0  0
  -20.1850  -19.3264   23.5590 C   0  0  0  0  0  0  0  0  0  0  0  0
  -19.2568  -22.3815   24.1313 C   0  0  0  0  0  0  0  0  0  0  0  0
  -19.6639  -25.2408   25.9494 C   0  0  0  0  0  0  0  0  0  0  0  0
  -30.9475  -14.0541   20.9665 C   0  0  0  0  0  0  0  0  0  0  0  0
  -18.7860  -16.4090   19.2697 C   0  0  0  0  0  0  0  0  0  0  0  0
  -19.8035  -19.2781   26.0506 C   0  0  0  0  0  0  0  0  0  0  0  0
  -21.3995  -21.6284   25.2299 C   0  0  0  0  0  0  0  0  0  0  0  0
  -19.7881  -17.5583   19.3011 C   0  0  0  0  0  0  0  0  0  0  0  0
  -29.3617  -13.1180   17.9193 C   0  0  0  0  0  0  0  0  0  0  0  0
  -19.5651  -18.4086   20.5428 C   0  0  0  0  0  0  0  0  0  0  0  0
  -27.9301  -12.7813   18.3403 C   0  0  0  0  0  0  0  0  0  0  0  0
  -30.3763  -12.6918   18.9779 C   0  0  0  0  0  0  0  0  0  0  0  0
  -28.6782  -12.8700   20.7551 C   0  0  0  0  0  0  0  0  0  0  0  0
  -28.3932  -20.3569   26.4027 C   0  0  0  0  0  0  0  0  0  0  0  0
  -19.8135  -17.5907   21.8165 C   0  0  1  0  0  0  0  0  0  0  0  0
  -19.5433  -20.0060   24.7354 C   0  0  1  0  0  0  0  0  0  0  0  0
  -27.6145  -13.3315   19.7442 C   0  0  2  0  0  0  0  0  0  0  0  0
  -27.3661  -20.2057   27.5648 C   0  0  2  0  0  0  0  0  0  0  0  0
  -27.8613  -20.7007   28.9193 C   0  0  0  0  0  0  0  0  0  0  0  0
  -18.7859  -27.5820   26.1615 C   0  0  0  0  0  0  0  0  0  0  0  0
  -20.8202  -23.1910   21.6392 C   0  0  0  0  0  0  0  0  0  0  0  0
  -20.7089  -25.5653   22.4257 C   0  0  0  0  0  0  0  0  0  0  0  0
  -18.6079  -24.3282   21.8981 C   0  0  0  0  0  0  0  0  0  0  0  0
  -18.7591  -24.7735   28.7282 C   0  0  0  0  0  0  0  0  0  0  0  0
  -25.9718  -20.7087   27.2452 C   0  0  0  0  0  0  0  0  0  1  0  0
  -31.3672  -15.3946   23.0125 C   0  0  1  0  0  0  0  0  0  0  0  0
  -19.9014  -23.7391   23.9890 C   0  0  1  0  0  0  0  0  0  0  0  0
  -18.6609  -26.1449   26.6429 C   0  0  2  0  0  0  0  0  0  0  0  0
  -20.0209  -24.1857   22.5045 C   0  0  0  0  0  0  0  0  0  0  0  0
  -25.8921  -11.6665   20.3305 N   0  0  0  0  0  0  0  0  0  0  0  0
  -33.5242  -14.3926   23.5883 N   0  0  0  0  0  0  0  0  0  0  0  0
  -26.2101  -12.9643   20.1866 N   0  0  0  0  0  0  0  0  0  0  0  0
  -28.4347  -18.9001   26.3456 N   0  0  0  0  0  0  0  0  0  0  0  0
  -20.0295  -21.3872   24.7480 N   0  0  0  0  0  0  0  0  0  0  0  0
  -30.0204  -13.2480   20.2856 N   0  0  0  0  0  0  0  0  0  0  0  0
  -25.3327  -15.1562   20.3765 N   0  0  0  0  0  0  0  0  0  0  0  0
  -21.8440  -12.5334   21.5365 N   0  0  0  0  0  0  0  0  0  0  0  0
  -19.3920  -18.3639   22.9638 N   0  0  0  0  0  0  0  0  0  0  0  0
  -19.1265  -24.6486   24.8261 N   0  0  0  0  0  0  0  0  0  0  0  0
  -30.5279  -14.5459   22.1965 N   0  0  0  0  0  0  0  0  0  0  0  0
  -18.8764  -26.1227   28.1173 N   0  3  0  0  0  0  0  0  0  0  0  0
  -27.1036  -17.6648   27.8452 O   0  0  0  0  0  0  0  0  0  0  0  0
  -22.5226  -14.7028   21.2338 O   0  0  0  0  0  0  0  0  0  0  0  0
  -21.3153  -19.6522   23.2157 O   0  0  0  0  0  0  0  0  0  0  0  0
  -18.1074  -22.2113   23.7172 O   0  0  0  0  0  0  0  0  0  0  0  0
  -20.8107  -25.0791   26.3607 O   0  0  0  0  0  0  0  0  0  0  0  0
  -32.0642  -14.3206   20.5096 O   0  0  0  0  0  0  0  0  0  0  0  0
  -21.8344   -6.9663   21.7420 O   0  0  0  0  0  0  0  0  0  0  0  0
  -25.0381  -20.0277   28.0824 O   0  0  0  0  0  0  0  0  0  1  0  0
  -16.7326   -6.4960   19.7038 F   0  0  0  0  0  0  0  0  0  0  0  0
  -31.5564  -18.2080   22.8159 F   0  0  0  0  0  0  0  0  0  0  0  0
  -19.8479   -8.7472   22.4665 F   0  0  0  0  0  0  0  0  0  0  0  0
  1  2  1  0  0  0  0
  1  5  2  0  0  0  0
  2  6  2  0  0  0  0
  3 10  2  0  0  0  0
  3 18  1  0  0  0  0
  4 11  1  0  0  0  0
  4 18  2  0  0  0  0
  5 20  1  0  0  0  0
  6 22  1  0  0  0  0
  7 12  2  0  0  0  0
  7 21  1  0  0  0  0
  8  9  2  0  0  0  0
  8 24  1  0  0  0  0
  9 25  1  0  0  0  0
 10 26  1  0  0  0  0
 11 26  2  0  0  0  0
 12 27  1  0  0  0  0
 13 14  2  0  0  0  0
 13 28  1  0  0  0  0
 14 29  1  0  0  0  0
 15 23  1  0  0  0  0
 15 27  2  0  0  0  0
 16 25  2  0  0  0  0
 16 30  1  0  0  0  0
 17 29  2  0  0  0  0
 17 31  1  0  0  0  0
 18 32  1  0  0  0  0
 19 32  1  0  0  0  0
 19 33  2  0  0  0  0
 19 36  1  0  0  0  0
 20 22  2  0  0  0  0
 20 41  1  0  0  0  0
 21 23  2  0  0  0  0
 21 42  1  0  0  0  0
 22 51  1  0  0  0  0
 23 43  1  0  0  0  0
 24 30  2  0  0  0  0
 24 62  1  0  0  0  0
 25 69  1  0  0  0  0
 26 84  1  0  0  0  0
 27 85  1  0  0  0  0
 28 31  2  0  0  0  0
 28 84  1  0  0  0  0
 29 86  1  0  0  0  0
 30 87  1  0  0  0  0
 31 88  1  0  0  0  0
 32 66  2  0  0  0  0
 33 68  1  0  0  0  0
 33 72  1  0  0  0  0
 34 54  1  0  0  0  0
 34 69  1  0  0  0  0
 34 78  2  0  0  0  0
 35 62  1  0  0  0  0
 35 67  2  0  0  0  0
 36 73  1  0  0  0  0
 36 79  2  0  0  0  0
 37 52  1  0  0  0  0
 37 74  1  0  0  0  0
 37 80  2  0  0  0  0
 38 63  1  0  0  0  0
 38 70  1  0  0  0  0
 38 81  2  0  0  0  0
 39 64  1  0  0  0  0
 39 75  1  0  0  0  0
 39 82  2  0  0  0  0
 40 71  1  0  0  0  0
 40 76  1  0  0  0  0
 40 83  2  0  0  0  0
 41 44  1  0  0  0  0
 42 52  1  0  0  0  0
 43 70  1  0  0  0  0
 44 46  1  0  0  0  0
 45 47  1  0  0  0  0
 45 48  1  0  0  0  0
 46 51  1  0  0  0  0
 47 53  1  0  0  0  0
 48 71  1  0  0  0  0
 49 53  1  0  0  0  0
 49 71  1  0  0  0  0
 50 54  1  0  0  0  0
 50 69  1  0  0  0  0
 51 74  1  0  0  0  0
 52 70  1  0  0  0  0
 53 68  1  0  0  0  0
 54 55  1  0  0  0  0
 54 61  1  0  0  0  0
 56 64  1  0  0  0  0
 57 65  1  0  0  0  0
 58 65  1  0  0  0  0
 59 65  1  0  0  0  0
 60 77  1  0  0  0  0
 61 85  1  0  0  0  0
 62 76  1  0  0  0  0
 63 65  1  0  0  0  0
 63 75  1  0  0  0  0
 64 77  1  0  0  0  0
 66 68  1  0  0  0  0
M  CHG  1  77   1
M  ISO  4  40 100  61 101  76 100  85 101
M  END
> <Batch ID>
0074

> <Smiles>
CNC(C)C(=O)NC(C(=O)N1Cc2cc([101O:1][101CH2:1]C3(C)CN(c4ccc(C(C=N)[100NH:0][100C:0](=O)N5CCCC(n6nc(-c7ccc(Oc8ccc(F)cc8F)cc7)c(C(N)=O)c6N)C5)c(F)c4)C3=O)ccc2CC1C(=O)NC1CCCc2ccccc21)C(C)(C)C

> <Shape>
0.144

> <Color>
0.177

> <Negative vol penalty>
0.000

$$$$

  -OEChem-04042323443D

 88 97  0     1  0  0  0  0  0999 V2000
  -18.0454  -32.5379   23.6240 C   0  0  0  0  0  0  0  0  0  0  0  0
  -17.9096  -31.6527   22.5593 C   0  0  0  0  0  0  0  0  0  0  0  0
  -26.4170  -13.5110   19.3276 C   0  0  0  0  0  0  0  0  0  0  0  0
  -26.4929  -12.8352   21.6460 C   0  0  0  0  0  0  0  0  0  0  0  0
  -19.3136  -32.8512   24.1111 C   0  0  0  0  0  0  0  0  0  0  0  0
  -19.0421  -31.0811   21.9805 C   0  0  0  0  0  0  0  0  0  0  0  0
  -20.8725  -23.5580   20.9417 C   0  0  0  0  0  0  0  0  0  0  0  0
  -30.9471  -23.6575   20.9027 C   0  0  0  0  0  0  0  0  0  0  0  0
  -30.9254  -22.3900   21.4845 C   0  0  0  0  0  0  0  0  0  0  0  0
  -25.1431  -12.9558   19.2075 C   0  0  0  0  0  0  0  0  0  0  0  0
  -25.2190  -12.2801   21.5258 C   0  0  0  0  0  0  0  0  0  0  0  0
  -21.3781  -22.2614   20.8454 C   0  0  0  0  0  0  0  0  0  0  0  0
  -23.8397   -9.4551   20.2816 C   0  0  0  0  0  0  0  0  0  0  0  0
  -23.6303   -8.1891   20.8284 C   0  0  0  0  0  0  0  0  0  0  0  0
  -23.6358  -23.1247   20.9210 C   0  0  0  0  0  0  0  0  0  0  0  0
  -28.8916  -23.1570   19.7358 C   0  0  0  0  0  0  0  0  0  0  0  0
  -21.9262   -9.0978   22.2800 C   0  0  0  0  0  0  0  0  0  0  0  0
  -27.0920  -13.4507   20.5469 C   0  0  0  0  0  0  0  0  0  0  0  0
  -29.5616  -13.6691   19.9463 C   0  0  0  0  0  0  0  0  0  0  0  0
  -20.4617  -32.2757   23.5442 C   0  0  0  0  0  0  0  0  0  0  0  0
  -21.7476  -24.6430   21.0437 C   0  0  0  0  0  0  0  0  0  0  0  0
  -20.3270  -31.3880   22.4596 C   0  0  0  0  0  0  0  0  0  0  0  0
  -23.1350  -24.4247   21.0303 C   0  0  0  0  0  0  0  0  0  0  0  0
  -28.8700  -21.8894   20.3176 C   0  0  0  0  0  0  0  0  0  0  0  0
  -29.9301  -24.0410   20.0283 C   0  0  0  0  0  0  0  0  0  0  0  0
  -29.8869  -21.5059   21.1920 C   0  0  0  0  0  0  0  0  0  0  0  0
  -24.5440  -12.3403   20.3066 C   0  0  0  0  0  0  0  0  0  0  0  0
  -22.7564  -22.0453   20.8349 C   0  0  0  0  0  0  0  0  0  0  0  0
  -23.0923  -10.5425   20.7341 C   0  0  0  0  0  0  0  0  0  0  0  0
  -22.6735   -8.0104   21.8276 C   0  0  0  0  0  0  0  0  0  0  0  0
  -22.1356  -10.3639   21.7333 C   0  0  0  0  0  0  0  0  0  0  0  0
  -28.4082  -14.0235   20.6714 C   0  0  0  0  0  0  0  0  0  0  0  0
  -30.5415  -14.4997   20.4325 C   0  0  0  0  0  0  0  0  0  0  0  0
  -25.8639  -19.5157   20.5466 C   0  0  0  0  0  0  0  0  0  0  0  0
  -25.9523  -18.9225   19.3402 C   0  0  0  0  0  0  0  0  0  0  0  0
  -26.9265  -20.4954   20.9907 C   0  0  0  0  0  0  0  0  0  0  0  0
  -29.7321  -12.6779   18.9245 C   0  0  0  0  0  0  0  0  0  0  0  0
  -22.1457  -28.3585   21.3794 C   0  0  0  0  0  0  0  0  0  0  0  0
  -24.2620  -27.0686   23.1872 C   0  0  0  0  0  0  0  0  0  0  0  0
  -26.5067  -26.3367   25.6494 C   0  0  0  0  0  0  0  0  0  0  0  0
  -30.4138  -19.8753   23.0386 C   0  0  0  0  0  0  0  0  0  0  0  0
  -21.8143  -32.6813   24.0740 C   0  0  0  0  0  0  0  0  0  0  0  0
  -21.2481  -26.0616   21.0873 C   0  0  0  0  0  0  0  0  0  0  0  0
  -24.0388  -25.6248   21.1072 C   0  0  0  0  0  0  0  0  0  0  0  0
  -27.0266  -19.3043   18.3647 C   0  0  0  0  0  0  0  0  0  0  0  0
  -22.9413  -31.7437   23.6486 C   0  0  0  0  0  0  0  0  0  0  0  0
  -31.8041  -16.8877   24.3870 C   0  0  0  0  0  0  0  0  0  0  0  0
  -22.8472  -31.4383   22.1570 C   0  0  0  0  0  0  0  0  0  0  0  0
  -31.2008  -15.7824   23.5173 C   0  0  0  0  0  0  0  0  0  0  0  0
  -27.4964  -20.7307   18.5889 C   0  0  0  0  0  0  0  0  0  0  0  0
  -30.8074  -18.0172   24.6409 C   0  0  0  0  0  0  0  0  0  0  0  0
  -29.5935  -17.4841   22.5645 C   0  0  0  0  0  0  0  0  0  0  0  0
  -21.5301  -30.7284   21.8212 C   0  0  1  0  0  0  0  0  0  0  0  0
  -22.1136  -26.9792   21.9694 C   0  0  1  0  0  0  0  0  0  0  0  0
  -30.5812  -16.3551   22.2275 C   0  0  2  0  0  0  0  0  0  0  0  0
  -25.0319  -17.8403   18.8438 C   0  0  0  0  0  0  0  0  0  0  0  0
  -28.5323  -27.2615   26.8067 C   0  0  0  0  0  0  0  0  0  0  0  0
  -25.9715  -26.3416   20.7679 C   0  0  0  0  0  0  0  0  0  0  0  0
  -27.9775  -26.3707   22.2657 C   0  0  0  0  0  0  0  0  0  0  0  0
  -26.6464  -28.4529   21.9262 C   0  0  0  0  0  0  0  0  0  0  0  0
  -25.1349  -26.3738   28.2716 C   0  0  0  0  0  0  0  0  0  0  0  0
  -24.7840  -19.2540   21.5609 C   0  0  0  0  0  0  0  0  0  0  0  0
  -25.6816  -26.5790   23.3224 C   0  0  1  0  0  0  0  0  0  0  0  0
  -27.0155  -27.1527   26.8240 C   0  0  2  0  0  0  0  0  0  0  0  0
  -26.5471  -26.9192   22.0764 C   0  0  0  0  0  0  0  0  0  0  0  0
  -28.6330  -15.0027   21.5515 N   0  0  0  0  0  0  0  0  0  0  0  0
  -29.9390  -15.2708   21.3826 N   0  0  0  0  0  0  0  0  0  0  0  0
  -27.7858  -20.9926   19.9984 N   0  0  0  0  0  0  0  0  0  0  0  0
  -23.5244  -26.5781   22.1028 N   0  0  0  0  0  0  0  0  0  0  0  0
  -30.2652  -18.5129   23.3740 N   0  0  0  0  0  0  0  0  0  0  0  0
  -29.9523  -25.3225   19.4398 N   0  0  0  0  0  0  0  0  0  0  0  0
  -31.8512  -14.6383   20.1359 N   0  0  0  0  0  0  0  0  0  0  0  0
  -28.6213  -11.9123   18.5444 N   0  0  0  0  0  0  0  0  0  0  0  0
  -29.8873  -20.2238   21.7952 N   0  0  0  0  0  0  0  0  0  0  0  0
  -21.5994  -29.3318   22.1941 N   0  0  0  0  0  0  0  0  0  0  0  0
  -26.1882  -27.1361   24.5720 N   0  0  0  0  0  0  0  0  0  0  0  0
  -24.0603  -20.4659   21.9178 N   0  0  0  0  0  0  0  0  0  1  0  0
  -26.6042  -26.5217   28.1100 N   0  3  0  0  0  0  0  0  0  0  0  0
  -26.9491  -20.8215   22.1790 O   0  0  0  0  0  0  0  0  0  0  0  0
  -30.8404  -12.4658   18.3766 O   0  0  0  0  0  0  0  0  0  0  0  0
  -22.6317  -28.5287   20.2674 O   0  0  0  0  0  0  0  0  0  0  0  0
  -23.8183  -27.8685   24.0158 O   0  0  0  0  0  0  0  0  0  0  0  0
  -26.4057  -25.1123   25.6829 O   0  0  0  0  0  0  0  0  0  0  0  0
  -30.9915  -20.6685   23.7864 O   0  0  0  0  0  0  0  0  0  0  0  0
  -23.3009  -11.7987   20.1898 O   0  0  0  0  0  0  0  0  0  0  0  0
  -23.2432  -20.7766   20.7452 O   0  0  0  0  0  0  0  0  0  1  0  0
  -22.4715   -6.7943   22.3514 F   0  0  0  0  0  0  0  0  0  0  0  0
  -21.4138  -11.4046   22.1712 F   0  0  0  0  0  0  0  0  0  0  0  0
  1  2  1  0  0  0  0
  1  5  2  0  0  0  0
  2  6  2  0  0  0  0
  3 10  2  0  0  0  0
  3 18  1  0  0  0  0
  4 11  1  0  0  0  0
  4 18  2  0  0  0  0
  5 20  1  0  0  0  0
  6 22  1  0  0  0  0
  7 12  2  0  0  0  0
  7 21  1  0  0  0  0
  8  9  2  0  0  0  0
  8 25  1  0  0  0  0
  9 26  1  0  0  0  0
 10 27  1  0  0  0  0
 11 27  2  0  0  0  0
 12 28  1  0  0  0  0
 13 14  2  0  0  0  0
 13 29  1  0  0  0  0
 14 30  1  0  0  0  0
 15 23  1  0  0  0  0
 15 28  2  0  0  0  0
 16 24  1  0  0  0  0
 16 25  2  0  0  0  0
 17 30  2  0  0  0  0
 17 31  1  0  0  0  0
 18 32  1  0  0  0  0
 19 32  1  0  0  0  0
 19 33  2  0  0  0  0
 19 37  1  0  0  0  0
 20 22  2  0  0  0  0
 20 42  1  0  0  0  0
 21 23  2  0  0  0  0
 21 43  1  0  0  0  0
 22 53  1  0  0  0  0
 23 44  1  0  0  0  0
 24 26  2  0  0  0  0
 24 68  1  0  0  0  0
 25 71  1  0  0  0  0
 26 74  1  0  0  0  0
 27 85  1  0  0  0  0
 28 86  1  0  0  0  0
 29 31  2  0  0  0  0
 29 85  1  0  0  0  0
 30 87  1  0  0  0  0
 31 88  1  0  0  0  0
 32 66  2  0  0  0  0
 33 67  1  0  0  0  0
 33 72  1  0  0  0  0
 34 35  2  0  0  0  0
 34 36  1  0  0  0  0
 34 62  1  0  0  0  0
 35 45  1  0  0  0  0
 35 56  1  0  0  0  0
 36 68  1  0  0  0  0
 36 79  2  0  0  0  0
 37 73  1  0  0  0  0
 37 80  2  0  0  0  0
 38 54  1  0  0  0  0
 38 75  1  0  0  0  0
 38 81  2  0  0  0  0
 39 63  1  0  0  0  0
 39 69  1  0  0  0  0
 39 82  2  0  0  0  0
 40 64  1  0  0  0  0
 40 76  1  0  0  0  0
 40 83  2  0  0  0  0
 41 70  1  0  0  0  0
 41 74  1  0  0  0  0
 41 84  2  0  0  0  0
 42 46  1  0  0  0  0
 43 54  1  0  0  0  0
 44 69  1  0  0  0  0
 45 50  1  0  0  0  0
 46 48  1  0  0  0  0
 47 49  1  0  0  0  0
 47 51  1  0  0  0  0
 48 53  1  0  0  0  0
 49 55  1  0  0  0  0
 50 68  1  0  0  0  0
 51 70  1  0  0  0  0
 52 55  1  0  0  0  0
 52 70  1  0  0  0  0
 53 75  1  0  0  0  0
 54 69  1  0  0  0  0
 55 67  1  0  0  0  0
 57 64  1  0  0  0  0
 58 65  1  0  0  0  0
 59 65  1  0  0  0  0
 60 65  1  0  0  0  0
 61 78  1  0  0  0  0
 62 77  1  0  0  0  0
 63 65  1  0  0  0  0
 63 76  1  0  0  0  0
 64 78  1  0  0  0  0
 66 67  1  0  0  0  0
 77 86  1  0  0  0  0
M  CHG  1  78   1
M  ISO  4  41 100  74 100  77 101  86 101
M  END
> <Batch ID>
0074

> <Smiles>
C=C1CCN(c2cc(N)ccc2[100NH:0][100C:0](=O)N2CCCC(n3nc(-c4ccc(Oc5ccc(F)cc5F)cc4)c(C(N)=O)c3N)C2)C(=O)C1C[101NH:1][101O:1]c1ccc2c(c1)CN(C(=O)C(NC(=O)C(C)NC)C(C)(C)C)C(C(=O)NC1CCCc3ccccc31)C2

> <Shape>
0.229

> <Color>
0.080

> <Negative vol penalty>
0.000

$$$$

  -OEChem-04042323443D

 92101  0     1  0  0  0  0  0999 V2000
  -28.1139  -36.4436   24.2195 C   0  0  0  0  0  0  0  0  0  0  0  0
  -28.5345  -35.3106   23.5304 C   0  0  0  0  0  0  0  0  0  0  0  0
  -22.7290  -11.8274   21.2791 C   0  0  0  0  0  0  0  0  0  0  0  0
  -23.5140   -9.5953   20.7907 C   0  0  0  0  0  0  0  0  0  0  0  0
  -27.0358  -36.3624   25.1000 C   0  0  0  0  0  0  0  0  0  0  0  0
  -27.8779  -34.0955   23.7221 C   0  0  0  0  0  0  0  0  0  0  0  0
  -26.9064  -29.7348   19.5332 C   0  0  0  0  0  0  0  0  0  0  0  0
  -29.0785  -20.1980   21.7084 C   0  0  0  0  0  0  0  0  0  0  0  0
  -29.0765  -18.8035   21.7373 C   0  0  0  0  0  0  0  0  0  0  0  0
  -21.4388  -11.4565   20.9006 C   0  0  0  0  0  0  0  0  0  0  0  0
  -22.2237   -9.2243   20.4122 C   0  0  0  0  0  0  0  0  0  0  0  0
  -27.5709  -28.5426   19.2489 C   0  0  0  0  0  0  0  0  0  0  0  0
  -19.0649   -7.5890   19.6601 C   0  0  0  0  0  0  0  0  0  0  0  0
  -18.5765   -6.3691   20.1279 C   0  0  0  0  0  0  0  0  0  0  0  0
  -25.9799  -27.3395   20.6056 C   0  0  0  0  0  0  0  0  0  0  0  0
  -28.9477  -18.7536   19.3253 C   0  0  0  0  0  0  0  0  0  0  0  0
  -18.8444   -7.1347   22.4037 C   0  0  0  0  0  0  0  0  0  0  0  0
  -23.7667  -10.8968   21.2241 C   0  0  0  0  0  0  0  0  0  0  0  0
  -25.6657  -11.1969   22.9008 C   0  0  0  0  0  0  0  0  0  0  0  0
  -26.3596  -35.1478   25.2953 C   0  0  0  0  0  0  0  0  0  0  0  0
  -25.7782  -29.7398   20.3661 C   0  0  0  0  0  0  0  0  0  0  0  0
  -26.7906  -33.9977   24.6070 C   0  0  0  0  0  0  0  0  0  0  0  0
  -25.3014  -28.5327   20.8968 C   0  0  0  0  0  0  0  0  0  0  0  0
  -29.0150  -20.8704   20.4879 C   0  0  0  0  0  0  0  0  0  0  0  0
  -29.0111  -18.0813   20.5458 C   0  0  0  0  0  0  0  0  0  0  0  0
  -21.1861  -10.1550   20.4672 C   0  0  0  0  0  0  0  0  0  0  0  0
  -27.1094  -27.3451   19.7874 C   0  0  0  0  0  0  0  0  0  0  0  0
  -19.4432   -8.5817   20.5640 C   0  0  0  0  0  0  0  0  0  0  0  0
  -18.4662   -6.1419   21.4997 C   0  0  0  0  0  0  0  0  0  0  0  0
  -28.9496  -20.1482   19.2963 C   0  0  0  0  0  0  0  0  0  0  0  0
  -19.3329   -8.3546   21.9359 C   0  0  0  0  0  0  0  0  0  0  0  0
  -25.0998  -11.2795   21.6144 C   0  0  0  0  0  0  0  0  0  0  0  0
  -26.9424  -11.6789   22.7458 C   0  0  0  0  0  0  0  0  0  0  0  0
  -29.0721  -23.1771   21.4494 C   0  0  0  0  0  0  0  0  0  0  0  0
  -25.0888  -10.7264   24.1262 C   0  0  0  0  0  0  0  0  0  0  0  0
  -30.2661  -25.1697   20.4623 C   0  0  0  0  0  0  0  0  0  0  0  0
  -25.0602  -31.0700   23.1623 C   0  0  0  0  0  0  0  0  0  0  0  0
  -26.7703  -15.3948   23.4435 C   0  0  0  0  0  0  0  0  0  0  0  0
  -22.1138  -29.8656   22.5372 C   0  0  0  0  0  0  0  0  0  0  0  0
  -20.2188  -27.5505   20.8952 C   0  0  0  0  0  0  0  0  0  0  0  0
  -29.5546  -15.8813   19.5162 C   0  0  0  0  0  0  0  0  0  0  0  0
  -25.2296  -35.0984   26.2929 C   0  0  0  0  0  0  0  0  0  0  0  0
  -25.0569  -31.0307   20.6415 C   0  0  0  0  0  0  0  0  0  0  0  0
  -24.0826  -28.4814   21.7802 C   0  0  0  0  0  0  0  0  0  0  0  0
  -24.3507  -33.8577   26.1568 C   0  0  0  0  0  0  0  0  0  0  0  0
  -30.0226  -12.2684   18.9348 C   0  0  0  0  0  0  0  0  0  0  0  0
  -25.2117  -32.6053   26.0262 C   0  0  0  0  0  0  0  0  0  0  0  0
  -28.8125  -11.6515   19.6342 C   0  0  0  0  0  0  0  0  0  0  0  0
  -29.7216  -13.6700   18.4122 C   0  0  0  0  0  0  0  0  0  0  0  0
  -27.9909  -13.9837   20.1549 C   0  0  0  0  0  0  0  0  0  0  0  0
  -28.9177  -23.1822   19.3504 C   0  0  0  0  0  0  0  0  0  0  0  0
  -26.0883  -32.6671   24.7695 C   0  0  1  0  0  0  0  0  0  0  0  0
  -24.2222  -30.9882   21.9177 C   0  0  1  0  0  0  0  0  0  0  0  0
  -28.2758  -12.5881   20.7303 C   0  0  1  0  0  0  0  0  0  0  0  0
  -28.9739  -24.3262   20.4068 C   0  0  1  0  0  0  0  0  0  0  0  0
  -30.5892  -25.8269   21.7768 C   0  0  0  0  0  0  0  0  0  0  0  0
  -25.3056  -15.4455   23.7941 C   0  0  0  0  0  0  0  0  0  0  0  0
  -17.8437  -26.7914   20.6124 C   0  0  0  0  0  0  0  0  0  0  0  0
  -22.2208  -28.5197   25.2734 C   0  0  0  0  0  0  0  0  0  0  0  0
  -20.3230  -27.0557   24.5501 C   0  0  0  0  0  0  0  0  0  0  0  0
  -20.0064  -29.5260   24.6917 C   0  0  0  0  0  0  0  0  0  0  0  0
  -20.2564  -28.1317   17.9936 C   0  0  0  0  0  0  0  0  0  0  0  0
  -27.1752  -16.1058   22.1617 C   0  0  0  0  0  0  0  0  0  0  0  0
  -27.7120  -25.1608   20.5099 C   0  0  0  0  0  0  0  0  0  1  0  0
  -28.6543  -15.9645   21.8297 C   0  0  0  0  0  0  0  0  0  0  0  0
  -21.4094  -28.5613   22.8227 C   0  0  1  0  0  0  0  0  0  0  0  0
  -18.9489  -27.6870   20.0748 C   0  0  2  0  0  0  0  0  0  0  0  0
  -21.0140  -28.4165   24.3195 C   0  0  0  0  0  0  0  0  0  0  0  0
  -25.9475  -11.7752   20.7091 N   0  0  0  0  0  0  0  0  0  0  0  0
  -27.0590  -12.0085   21.4275 N   0  0  0  0  0  0  0  0  0  0  0  0
  -29.0171  -22.2456   20.4623 N   0  0  0  0  0  0  0  0  0  0  0  0
  -23.4156  -29.7708   22.0253 N   0  0  0  0  0  0  0  0  0  0  0  0
  -29.1701  -14.5265   19.4629 N   0  0  0  0  0  0  0  0  0  0  0  0
  -27.9655  -11.8489   23.6101 N   0  0  0  0  0  0  0  0  0  0  0  0
  -23.7653  -10.2657   24.1080 N   0  0  0  0  0  0  0  0  0  0  0  0
  -25.3054  -32.3604   23.5916 N   0  0  0  0  0  0  0  0  0  0  0  0
  -20.2830  -28.4948   21.8980 N   0  0  0  0  0  0  0  0  0  0  0  0
  -29.0090  -16.6377   20.5760 N   0  0  0  0  0  0  0  0  0  0  0  0
  -19.2069  -27.3145   18.6551 N   0  3  0  0  0  0  0  0  0  0  0  0
  -29.1551  -23.0938   22.6539 O   0  0  0  0  0  0  0  0  0  0  0  0
  -25.7227  -10.7302   25.2086 O   0  0  0  0  0  0  0  0  0  0  0  0
  -30.9965  -25.2964   19.4808 O   0  0  0  0  0  0  0  0  0  0  0  0
  -25.4538  -30.0388   23.6945 O   0  0  0  0  0  0  0  0  0  0  0  0
  -27.5719  -14.7974   24.1599 O   0  0  0  0  0  0  0  0  0  0  0  0
  -21.5278  -30.9293   22.7535 O   0  0  0  0  0  0  0  0  0  0  0  0
  -21.0671  -26.6898   20.6715 O   0  0  0  0  0  0  0  0  0  0  0  0
  -30.3457  -16.3677   18.6994 O   0  0  0  0  0  0  0  0  0  0  0  0
  -19.9272   -9.7926   20.0980 O   0  0  0  0  0  0  0  0  0  0  0  0
  -27.7564  -26.1800   19.5121 O   0  0  0  0  0  0  0  0  0  1  0  0
  -17.9957   -4.9710   21.9489 F   0  0  0  0  0  0  0  0  0  0  0  0
  -28.8877  -20.7839   18.1174 F   0  0  0  0  0  0  0  0  0  0  0  0
  -19.6935   -9.3049   22.8091 F   0  0  0  0  0  0  0  0  0  0  0  0
  1  2  1  0  0  0  0
  1  5  2  0  0  0  0
  2  6  2  0  0  0  0
  3 10  2  0  0  0  0
  3 18  1  0  0  0  0
  4 11  1  0  0  0  0
  4 18  2  0  0  0  0
  5 20  1  0  0  0  0
  6 22  1  0  0  0  0
  7 12  2  0  0  0  0
  7 21  1  0  0  0  0
  8  9  2  0  0  0  0
  8 24  1  0  0  0  0
  9 25  1  0  0  0  0
 10 26  1  0  0  0  0
 11 26  2  0  0  0  0
 12 27  1  0  0  0  0
 13 14  2  0  0  0  0
 13 28  1  0  0  0  0
 14 29  1  0  0  0  0
 15 23  1  0  0  0  0
 15 27  2  0  0  0  0
 16 25  2  0  0  0  0
 16 30  1  0  0  0  0
 17 29  2  0  0  0  0
 17 31  1  0  0  0  0
 18 32  1  0  0  0  0
 19 32  1  0  0  0  0
 19 33  2  0  0  0  0
 19 35  1  0  0  0  0
 20 22  2  0  0  0  0
 20 42  1  0  0  0  0
 21 23  2  0  0  0  0
 21 43  1  0  0  0  0
 22 52  1  0  0  0  0
 23 44  1  0  0  0  0
 24 30  2  0  0  0  0
 24 71  1  0  0  0  0
 25 78  1  0  0  0  0
 26 88  1  0  0  0  0
 27 89  1  0  0  0  0
 28 31  2  0  0  0  0
 28 88  1  0  0  0  0
 29 90  1  0  0  0  0
 30 91  1  0  0  0  0
 31 92  1  0  0  0  0
 32 69  2  0  0  0  0
 33 70  1  0  0  0  0
 33 74  1  0  0  0  0
 34 55  1  0  0  0  0
 34 71  1  0  0  0  0
 34 80  2  0  0  0  0
 35 75  1  0  0  0  0
 35 81  2  0  0  0  0
 36 55  1  0  0  0  0
 36 56  1  0  0  0  0
 36 82  2  0  0  0  0
 37 53  1  0  0  0  0
 37 76  1  0  0  0  0
 37 83  2  0  0  0  0
 38 57  1  0  0  0  0
 38 63  1  0  0  0  0
 38 84  2  0  0  0  0
 39 66  1  0  0  0  0
 39 72  1  0  0  0  0
 39 85  2  0  0  0  0
 40 67  1  0  0  0  0
 40 77  1  0  0  0  0
 40 86  2  0  0  0  0
 41 73  1  0  0  0  0
 41 78  1  0  0  0  0
 41 87  2  0  0  0  0
 42 45  1  0  0  0  0
 43 53  1  0  0  0  0
 44 72  1  0  0  0  0
 45 47  1  0  0  0  0
 46 48  1  0  0  0  0
 46 49  1  0  0  0  0
 47 52  1  0  0  0  0
 48 54  1  0  0  0  0
 49 73  1  0  0  0  0
 50 54  1  0  0  0  0
 50 73  1  0  0  0  0
 51 55  1  0  0  0  0
 51 71  1  0  0  0  0
 52 76  1  0  0  0  0
 53 72  1  0  0  0  0
 54 70  1  0  0  0  0
 55 64  1  0  0  0  0
 58 67  1  0  0  0  0
 59 68  1  0  0  0  0
 60 68  1  0  0  0  0
 61 68  1  0  0  0  0
 62 79  1  0  0  0  0
 63 65  1  0  0  0  0
 64 89  1  0  0  0  0
 65 78  1  0  0  0  0
 66 68  1  0  0  0  0
 66 77  1  0  0  0  0
 67 79  1  0  0  0  0
 69 70  1  0  0  0  0
M  CHG  1  79   1
M  ISO  4  41 100  64 101  78 100  89 101
M  END
> <Batch ID>
0074

> <Smiles>
CNC(C)C(=O)NC(C(=O)N1Cc2cc([101O:1][101CH2:1]C3(C(C)=O)CN(c4ccc([100N:0](CCC(C)=O)[100C:0](=O)N5CCCC(n6nc(-c7ccc(Oc8ccc(F)cc8F)cc7)c(C(N)=O)c6N)C5)cc4F)C3=O)ccc2CC1C(=O)NC1CCCc2ccccc21)C(C)(C)C

> <Shape>
0.334

> <Color>
0.099

> <Negative vol penalty>
0.000

$$$$

  -OEChem-04042323443D

 86 95  0     1  0  0  0  0  0999 V2000
  -24.3758  -35.8514   24.4865 C   0  0  0  0  0  0  0  0  0  0  0  0
  -25.2639  -34.8938   24.0073 C   0  0  0  0  0  0  0  0  0  0  0  0
  -22.9761  -12.1446   22.8670 C   0  0  0  0  0  0  0  0  0  0  0  0
  -22.0949  -13.5008   21.0722 C   0  0  0  0  0  0  0  0  0  0  0  0
  -23.1155  -35.4659   24.9416 C   0  0  0  0  0  0  0  0  0  0  0  0
  -24.8926  -33.5499   23.9839 C   0  0  0  0  0  0  0  0  0  0  0  0
  -26.4772  -29.3649   19.8029 C   0  0  0  0  0  0  0  0  0  0  0  0
  -21.7289  -12.1604   23.4913 C   0  0  0  0  0  0  0  0  0  0  0  0
  -20.8476  -13.5165   21.6965 C   0  0  0  0  0  0  0  0  0  0  0  0
  -27.4637  -28.3798   19.7889 C   0  0  0  0  0  0  0  0  0  0  0  0
  -18.7560  -10.5846   23.1573 C   0  0  0  0  0  0  0  0  0  0  0  0
  -18.2672   -9.3787   23.6596 C   0  0  0  0  0  0  0  0  0  0  0  0
  -25.8439  -26.7556   20.5355 C   0  0  0  0  0  0  0  0  0  0  0  0
  -26.9945  -21.6521   17.3266 C   0  0  0  0  0  0  0  0  0  0  0  0
  -28.3060  -20.2991   18.8388 C   0  0  0  0  0  0  0  0  0  0  0  0
  -26.5710  -19.2799   17.5016 C   0  0  0  0  0  0  0  0  0  0  0  0
  -18.1920  -10.3331   25.8779 C   0  0  0  0  0  0  0  0  0  0  0  0
  -23.1591  -12.8148   21.6574 C   0  0  0  0  0  0  0  0  0  0  0  0
  -24.9166  -11.8616   20.0730 C   0  0  0  0  0  0  0  0  0  0  0  0
  -22.7251  -34.1178   24.9149 C   0  0  0  0  0  0  0  0  0  0  0  0
  -25.1670  -29.0546   20.1944 C   0  0  0  0  0  0  0  0  0  0  0  0
  -23.6265  -33.1459   24.4404 C   0  0  0  0  0  0  0  0  0  0  0  0
  -24.8420  -27.7380   20.5511 C   0  0  0  0  0  0  0  0  0  0  0  0
  -28.0100  -21.5408   18.2764 C   0  0  0  0  0  0  0  0  0  0  0  0
  -26.2750  -20.5216   16.9392 C   0  0  0  0  0  0  0  0  0  0  0  0
  -27.5865  -19.1687   18.4513 C   0  0  0  0  0  0  0  0  0  0  0  0
  -20.6647  -12.8463   22.9061 C   0  0  0  0  0  0  0  0  0  0  0  0
  -27.1478  -27.0756   20.1580 C   0  0  0  0  0  0  0  0  0  0  0  0
  -18.9629  -11.6648   24.0153 C   0  0  0  0  0  0  0  0  0  0  0  0
  -17.9852   -9.2529   25.0199 C   0  0  0  0  0  0  0  0  0  0  0  0
  -18.6809  -11.5390   25.3756 C   0  0  0  0  0  0  0  0  0  0  0  0
  -24.4474  -12.7994   21.0123 C   0  0  0  0  0  0  0  0  0  0  0  0
  -26.1869  -12.2862   19.7690 C   0  0  0  0  0  0  0  0  0  0  0  0
  -28.5689  -24.0131   18.1973 C   0  0  0  0  0  0  0  0  0  0  0  0
  -24.2625  -10.7097   19.5244 C   0  0  0  0  0  0  0  0  0  0  0  0
  -23.2449  -29.9977   22.5439 C   0  0  0  0  0  0  0  0  0  0  0  0
  -21.0663  -28.1877   20.9629 C   0  0  0  0  0  0  0  0  0  0  0  0
  -20.4554  -25.6090   18.8127 C   0  0  0  0  0  0  0  0  0  0  0  0
  -28.8659  -17.6234   19.9750 C   0  0  0  0  0  0  0  0  0  0  0  0
  -21.3701  -33.7435   25.4614 C   0  0  0  0  0  0  0  0  0  0  0  0
  -24.1082  -30.1228   20.1785 C   0  0  0  0  0  0  0  0  0  0  0  0
  -23.4457  -27.3488   20.9599 C   0  0  0  0  0  0  0  0  0  0  0  0
  -20.9143  -32.3447   25.0542 C   0  0  0  0  0  0  0  0  0  0  0  0
  -29.8946  -14.6581   21.6561 C   0  0  0  0  0  0  0  0  0  0  0  0
  -22.0417  -31.3367   25.2534 C   0  0  0  0  0  0  0  0  0  0  0  0
  -28.6591  -13.7573   21.5910 C   0  0  0  0  0  0  0  0  0  0  0  0
  -30.0863  -24.0579   20.0349 C   0  0  0  0  0  0  0  0  0  0  0  0
  -29.5168  -16.1258   21.8482 C   0  0  0  0  0  0  0  0  0  0  0  0
  -29.8462  -22.6199   19.6169 C   0  0  0  0  0  0  0  0  0  0  0  0
  -27.3145  -15.7496   20.8102 C   0  0  0  0  0  0  0  0  0  0  0  0
  -23.2512  -31.6813   24.3760 C   0  0  1  0  0  0  0  0  0  0  0  0
  -22.9255  -29.8055   21.0884 C   0  0  1  0  0  0  0  0  0  0  0  0
  -27.6421  -14.2698   20.5524 C   0  0  2  0  0  0  0  0  0  0  0  0
  -29.6757  -24.8729   18.8058 C   0  0  1  0  0  0  0  0  0  0  0  0
  -30.8245  -24.9922   17.7975 C   0  0  0  0  0  0  0  0  0  0  0  0
  -18.5733  -24.3411   17.7415 C   0  0  0  0  0  0  0  0  0  0  0  0
  -20.5559  -26.7279   23.5932 C   0  0  0  0  0  0  0  0  0  0  0  0
  -19.4264  -24.9149   22.2873 C   0  0  0  0  0  0  0  0  0  0  0  0
  -18.4988  -27.2304   22.2628 C   0  0  0  0  0  0  0  0  0  0  0  0
  -21.3365  -26.3707   16.0920 C   0  0  0  0  0  0  0  0  0  0  0  0
  -29.1618  -26.2572   19.1936 C   0  0  0  0  0  0  0  0  0  1  0  0
  -20.6410  -26.7401   21.0128 C   0  0  1  0  0  0  0  0  0  0  0  0
  -19.5466  -25.5011   17.6015 C   0  0  2  0  0  0  0  0  0  0  0  0
  -19.8074  -26.4107   22.2832 C   0  0  0  0  0  0  0  0  0  0  0  0
  -25.3465  -13.7481   21.2870 N   0  0  0  0  0  0  0  0  0  0  0  0
  -26.3935  -13.4086   20.5158 N   0  0  0  0  0  0  0  0  0  0  0  0
  -28.7478  -22.6973   18.6726 N   0  0  0  0  0  0  0  0  0  0  0  0
  -22.4469  -28.4302   20.9343 N   0  0  0  0  0  0  0  0  0  0  0  0
  -28.5539  -16.5422   20.8262 N   0  0  0  0  0  0  0  0  0  0  0  0
  -25.2481  -20.6335   15.9789 N   0  0  0  0  0  0  0  0  0  0  0  0
  -27.1362  -11.8052   18.9384 N   0  0  0  0  0  0  0  0  0  0  0  0
  -22.9580  -10.4181   19.9456 N   0  0  0  0  0  0  0  0  0  0  0  0
  -27.8886  -17.9072   19.0216 N   0  0  0  0  0  0  0  0  0  0  0  0
  -23.0130  -31.2791   23.0064 N   0  0  0  0  0  0  0  0  0  0  0  0
  -19.9468  -26.4751   19.7573 N   0  0  0  0  0  0  0  0  0  0  0  0
  -20.3530  -25.2915   16.3659 N   0  3  0  0  0  0  0  0  0  0  0  0
  -27.7501  -24.4482   17.3995 O   0  0  0  0  0  0  0  0  0  0  0  0
  -24.8245   -9.9518   18.6977 O   0  0  0  0  0  0  0  0  0  0  0  0
  -23.6690  -29.0531   23.1993 O   0  0  0  0  0  0  0  0  0  0  0  0
  -20.2051  -29.0707   20.9427 O   0  0  0  0  0  0  0  0  0  0  0  0
  -21.5091  -24.9843   18.9125 O   0  0  0  0  0  0  0  0  0  0  0  0
  -29.9340  -18.2339   20.0662 O   0  0  0  0  0  0  0  0  0  0  0  0
  -19.4474  -12.8617   23.5150 O   0  0  0  0  0  0  0  0  0  0  0  0
  -28.1089  -26.1123   20.1458 O   0  0  0  0  0  0  0  0  0  1  0  0
  -17.5144   -8.0952   25.5018 F   0  0  0  0  0  0  0  0  0  0  0  0
  -18.8765  -12.5736   26.2045 F   0  0  0  0  0  0  0  0  0  0  0  0
  1  2  1  0  0  0  0
  1  5  2  0  0  0  0
  2  6  2  0  0  0  0
  3  8  2  0  0  0  0
  3 18  1  0  0  0  0
  4  9  1  0  0  0  0
  4 18  2  0  0  0  0
  5 20  1  0  0  0  0
  6 22  1  0  0  0  0
  7 10  2  0  0  0  0
  7 21  1  0  0  0  0
  8 27  1  0  0  0  0
  9 27  2  0  0  0  0
 10 28  1  0  0  0  0
 11 12  2  0  0  0  0
 11 29  1  0  0  0  0
 12 30  1  0  0  0  0
 13 23  1  0  0  0  0
 13 28  2  0  0  0  0
 14 24  1  0  0  0  0
 14 25  2  0  0  0  0
 15 24  2  0  0  0  0
 15 26  1  0  0  0  0
 16 25  1  0  0  0  0
 16 26  2  0  0  0  0
 17 30  2  0  0  0  0
 17 31  1  0  0  0  0
 18 32  1  0  0  0  0
 19 32  1  0  0  0  0
 19 33  2  0  0  0  0
 19 35  1  0  0  0  0
 20 22  2  0  0  0  0
 20 40  1  0  0  0  0
 21 23  2  0  0  0  0
 21 41  1  0  0  0  0
 22 51  1  0  0  0  0
 23 42  1  0  0  0  0
 24 67  1  0  0  0  0
 25 70  1  0  0  0  0
 26 73  1  0  0  0  0
 27 83  1  0  0  0  0
 28 84  1  0  0  0  0
 29 31  2  0  0  0  0
 29 83  1  0  0  0  0
 30 85  1  0  0  0  0
 31 86  1  0  0  0  0
 32 65  2  0  0  0  0
 33 66  1  0  0  0  0
 33 71  1  0  0  0  0
 34 54  1  0  0  0  0
 34 67  1  0  0  0  0
 34 77  2  0  0  0  0
 35 72  1  0  0  0  0
 35 78  2  0  0  0  0
 36 52  1  0  0  0  0
 36 74  1  0  0  0  0
 36 79  2  0  0  0  0
 37 62  1  0  0  0  0
 37 68  1  0  0  0  0
 37 80  2  0  0  0  0
 38 63  1  0  0  0  0
 38 75  1  0  0  0  0
 38 81  2  0  0  0  0
 39 69  1  0  0  0  0
 39 73  1  0  0  0  0
 39 82  2  0  0  0  0
 40 43  1  0  0  0  0
 41 52  1  0  0  0  0
 42 68  1  0  0  0  0
 43 45  1  0  0  0  0
 44 46  1  0  0  0  0
 44 48  1  0  0  0  0
 45 51  1  0  0  0  0
 46 53  1  0  0  0  0
 47 49  1  0  0  0  0
 47 54  1  0  0  0  0
 48 69  1  0  0  0  0
 49 67  1  0  0  0  0
 50 53  1  0  0  0  0
 50 69  1  0  0  0  0
 51 74  1  0  0  0  0
 52 68  1  0  0  0  0
 53 66  1  0  0  0  0
 54 55  1  0  0  0  0
 54 61  1  0  0  0  0
 56 63  1  0  0  0  0
 57 64  1  0  0  0  0
 58 64  1  0  0  0  0
 59 64  1  0  0  0  0
 60 76  1  0  0  0  0
 61 84  1  0  0  0  0
 62 64  1  0  0  0  0
 62 75  1  0  0  0  0
 63 76  1  0  0  0  0
 65 66  1  0  0  0  0
M  CHG  1  76   1
M  ISO  4  39 100  61 101  73 100  84 101
M  END
> <Batch ID>
0074

> <Smiles>
CNC(C)C(=O)NC(C(=O)N1Cc2cc([101O:1][101CH2:1]C3(C)CCN(c4cc(N)cc([100NH:0][100C:0](=O)N5CCCC(n6nc(-c7ccc(Oc8ccc(F)cc8F)cc7)c(C(N)=O)c6N)C5)c4)C3=O)ccc2CC1C(=O)NC1CCCc2ccccc21)C(C)(C)C

> <Shape>
0.288

> <Color>
0.077

> <Negative vol penalty>
0.000

$$$$

  -OEChem-04042323443D

 87 95  0     1  0  0  0  0  0999 V2000
  -28.3800  -31.6580   27.4902 C   0  0  0  0  0  0  0  0  0  0  0  0
  -28.3298  -30.6228   26.5623 C   0  0  0  0  0  0  0  0  0  0  0  0
  -23.5577   -8.8286   20.2448 C   0  0  0  0  0  0  0  0  0  0  0  0
  -23.1167  -10.6440   21.7767 C   0  0  0  0  0  0  0  0  0  0  0  0
  -30.8961  -19.2338   20.0675 C   0  0  0  0  0  0  0  0  0  0  0  0
  -27.2249  -32.3777   27.7931 C   0  0  0  0  0  0  0  0  0  0  0  0
  -27.1242  -30.3059   25.9374 C   0  0  0  0  0  0  0  0  0  0  0  0
  -27.6524  -29.5737   20.9544 C   0  0  0  0  0  0  0  0  0  0  0  0
  -30.7381  -17.8491   20.0127 C   0  0  0  0  0  0  0  0  0  0  0  0
  -22.6863   -8.0103   20.9635 C   0  0  0  0  0  0  0  0  0  0  0  0
  -22.2452   -9.8257   22.4955 C   0  0  0  0  0  0  0  0  0  0  0  0
  -28.1790  -28.3501   20.5429 C   0  0  0  0  0  0  0  0  0  0  0  0
  -22.7504   -6.2079   23.8222 C   0  0  0  0  0  0  0  0  0  0  0  0
  -23.1691   -4.9081   24.1063 C   0  0  0  0  0  0  0  0  0  0  0  0
  -28.7840  -19.5200   18.9299 C   0  0  0  0  0  0  0  0  0  0  0  0
  -25.9523  -27.5653   20.0478 C   0  0  0  0  0  0  0  0  0  0  0  0
  -21.2740   -4.0318   22.8907 C   0  0  0  0  0  0  0  0  0  0  0  0
  -23.7730  -10.1454   20.6514 C   0  0  0  0  0  0  0  0  0  0  0  0
  -29.9190  -20.0693   19.5262 C   0  0  0  0  0  0  0  0  0  0  0  0
  -24.3532  -11.8289   18.8247 C   0  0  0  0  0  0  0  0  0  0  0  0
  -26.0066  -32.0759   27.1645 C   0  0  0  0  0  0  0  0  0  0  0  0
  -26.2686  -29.7989   20.9259 C   0  0  0  0  0  0  0  0  0  0  0  0
  -25.9514  -31.0214   26.2331 C   0  0  0  0  0  0  0  0  0  0  0  0
  -25.4109  -28.7936   20.4570 C   0  0  0  0  0  0  0  0  0  0  0  0
  -29.6031  -17.2997   19.4164 C   0  0  0  0  0  0  0  0  0  0  0  0
  -22.0300   -8.5089   22.0889 C   0  0  0  0  0  0  0  0  0  0  0  0
  -27.3287  -27.3447   20.0923 C   0  0  0  0  0  0  0  0  0  0  0  0
  -21.5934   -6.4197   23.0723 C   0  0  0  0  0  0  0  0  0  0  0  0
  -22.4310   -3.8201   23.6406 C   0  0  0  0  0  0  0  0  0  0  0  0
  -28.6260  -18.1352   18.8750 C   0  0  0  0  0  0  0  0  0  0  0  0
  -20.8553   -5.3317   22.6065 C   0  0  0  0  0  0  0  0  0  0  0  0
  -24.6735  -10.9910   19.9096 C   0  0  0  0  0  0  0  0  0  0  0  0
  -25.5470  -12.4129   18.4778 C   0  0  0  0  0  0  0  0  0  0  0  0
  -30.0854  -21.5354   19.5840 C   0  0  0  0  0  0  0  0  0  0  0  0
  -23.0895  -12.0590   18.1876 C   0  0  0  0  0  0  0  0  0  0  0  0
  -24.0558  -30.4466   23.1139 C   0  0  0  0  0  0  0  0  0  0  0  0
  -29.1195  -24.1984   20.3392 C   0  0  0  0  0  0  0  0  0  0  0  0
  -22.1417  -30.7777   20.5161 C   0  0  0  0  0  0  0  0  0  0  0  0
  -21.5355  -30.0079   17.2470 C   0  0  0  0  0  0  0  0  0  0  0  0
  -30.3220  -14.9251   19.8530 C   0  0  0  0  0  0  0  0  0  0  0  0
  -24.7744  -32.8508   27.5593 C   0  0  0  0  0  0  0  0  0  0  0  0
  -25.7186  -31.1337   21.3479 C   0  0  0  0  0  0  0  0  0  0  0  0
  -23.9196  -28.9922   20.3877 C   0  0  0  0  0  0  0  0  0  0  0  0
  -23.6171  -32.6971   26.5758 C   0  0  0  0  0  0  0  0  0  0  0  0
  -30.2761  -11.3661   19.9481 C   0  0  0  0  0  0  0  0  0  0  0  0
  -23.4213  -31.2300   26.2068 C   0  0  0  0  0  0  0  0  0  0  0  0
  -28.7880  -11.0202   19.8573 C   0  0  0  0  0  0  0  0  0  0  0  0
  -30.5157  -12.6266   20.7773 C   0  0  0  0  0  0  0  0  0  0  0  0
  -28.2523  -13.4555   20.2685 C   0  0  0  0  0  0  0  0  0  0  0  0
  -24.6677  -30.6639   25.5158 C   0  0  1  0  0  0  0  0  0  0  0  0
  -24.2516  -31.0717   21.7617 C   0  0  1  0  0  0  0  0  0  0  0  0
  -27.9558  -12.2300   19.3889 C   0  0  2  0  0  0  0  0  0  0  0  0
  -19.8730  -30.3955   15.4076 C   0  0  0  0  0  0  0  0  0  0  0  0
  -31.6461  -23.9657   20.2680 C   0  0  0  0  0  0  0  0  0  0  0  0
  -30.4100  -23.8386   22.4680 C   0  0  0  0  0  0  0  0  0  0  0  0
  -20.2358  -28.7847   21.8220 C   0  0  0  0  0  0  0  0  0  0  0  0
  -19.1275  -28.4923   19.5961 C   0  0  0  0  0  0  0  0  0  0  0  0
  -19.1155  -30.7244   20.7098 C   0  0  0  0  0  0  0  0  0  0  0  0
  -23.5600  -31.3258   15.5372 C   0  0  0  0  0  0  0  0  0  0  0  0
  -29.0474  -25.7162   20.3159 C   0  0  0  0  0  0  0  0  0  1  0  0
  -21.2661  -29.8506   19.7082 C   0  0  1  0  0  0  0  0  0  0  0  0
  -21.1593  -30.8770   16.0606 C   0  0  2  0  0  0  0  0  0  0  0  0
  -30.3570  -23.5601   20.9710 C   0  0  0  0  0  0  0  0  0  0  0  0
  -19.9641  -29.4583   20.4620 C   0  0  0  0  0  0  0  0  0  0  0  0
  -25.9692  -11.0356   20.2306 N   0  0  0  0  0  0  0  0  0  0  0  0
  -26.4737  -11.9085   19.3420 N   0  0  0  0  0  0  0  0  0  0  0  0
  -23.4295  -30.3124   20.8173 N   0  0  0  0  0  0  0  0  0  0  0  0
  -29.6975  -13.7316   20.2731 N   0  0  0  0  0  0  0  0  0  0  0  0
  -25.8839  -13.3033   17.5207 N   0  0  0  0  0  0  0  0  0  0  0  0
  -30.1230  -22.2091   18.4344 N   0  0  0  0  0  0  0  0  0  0  0  0
  -21.9640  -11.3774   18.6702 N   0  0  0  0  0  0  0  0  0  0  0  0
  -29.4456  -15.8926   19.3625 N   0  0  0  0  0  0  0  0  0  0  0  0
  -24.7211  -31.0966   24.1359 N   0  0  0  0  0  0  0  0  0  0  0  0
  -21.0390  -30.5149   18.4293 N   0  0  0  0  0  0  0  0  0  0  0  0
  -30.1920  -22.1107   20.7843 N   0  3  0  0  0  0  0  0  0  0  0  0
  -22.2428  -30.8543   15.0376 N   0  3  0  0  0  0  0  0  0  0  0  0
  -22.9652  -12.8333   17.2085 O   0  0  0  0  0  0  0  0  0  0  0  0
  -23.3520  -29.4493   23.2224 O   0  0  0  0  0  0  0  0  0  0  0  0
  -28.1979  -23.5164   19.8857 O   0  0  0  0  0  0  0  0  0  0  0  0
  -21.7017  -31.8773   20.8610 O   0  0  0  0  0  0  0  0  0  0  0  0
  -22.1999  -28.9800   17.1357 O   0  0  0  0  0  0  0  0  0  0  0  0
  -31.5466  -15.0673   19.8978 O   0  0  0  0  0  0  0  0  0  0  0  0
  -21.1794   -7.7108   22.7904 O   0  0  0  0  0  0  0  0  0  0  0  0
  -27.8399  -26.1492   19.6907 O   0  0  0  0  0  0  0  0  0  1  0  0
  -22.8341   -2.5719   23.9122 F   0  0  0  0  0  0  0  0  0  0  0  0
  -27.5317  -17.6181   18.2983 F   0  0  0  0  0  0  0  0  0  0  0  0
  -19.7436   -5.5289   21.8847 F   0  0  0  0  0  0  0  0  0  0  0  0
  1  2  1  0  0  0  0
  1  6  2  0  0  0  0
  2  7  2  0  0  0  0
  3 10  2  0  0  0  0
  3 18  1  0  0  0  0
  4 11  1  0  0  0  0
  4 18  2  0  0  0  0
  5  9  2  0  0  0  0
  5 19  1  0  0  0  0
  6 21  1  0  0  0  0
  7 23  1  0  0  0  0
  8 12  2  0  0  0  0
  8 22  1  0  0  0  0
  9 25  1  0  0  0  0
 10 26  1  0  0  0  0
 11 26  2  0  0  0  0
 12 27  1  0  0  0  0
 13 14  2  0  0  0  0
 13 28  1  0  0  0  0
 14 29  1  0  0  0  0
 15 19  2  0  0  0  0
 15 30  1  0  0  0  0
 16 24  1  0  0  0  0
 16 27  2  0  0  0  0
 17 29  2  0  0  0  0
 17 31  1  0  0  0  0
 18 32  1  0  0  0  0
 19 34  1  0  0  0  0
 20 32  1  0  0  0  0
 20 33  2  0  0  0  0
 20 35  1  0  0  0  0
 21 23  2  0  0  0  0
 21 41  1  0  0  0  0
 22 24  2  0  0  0  0
 22 42  1  0  0  0  0
 23 50  1  0  0  0  0
 24 43  1  0  0  0  0
 25 30  2  0  0  0  0
 25 72  1  0  0  0  0
 26 83  1  0  0  0  0
 27 84  1  0  0  0  0
 28 31  2  0  0  0  0
 28 83  1  0  0  0  0
 29 85  1  0  0  0  0
 30 86  1  0  0  0  0
 31 87  1  0  0  0  0
 32 65  2  0  0  0  0
 33 66  1  0  0  0  0
 33 69  1  0  0  0  0
 34 70  1  0  0  0  0
 34 75  2  0  0  0  0
 35 71  1  0  0  0  0
 35 77  2  0  0  0  0
 36 51  1  0  0  0  0
 36 73  1  0  0  0  0
 36 78  2  0  0  0  0
 37 60  1  0  0  0  0
 37 63  1  0  0  0  0
 37 79  2  0  0  0  0
 38 61  1  0  0  0  0
 38 67  1  0  0  0  0
 38 80  2  0  0  0  0
 39 62  1  0  0  0  0
 39 74  1  0  0  0  0
 39 81  2  0  0  0  0
 40 68  1  0  0  0  0
 40 72  1  0  0  0  0
 40 82  2  0  0  0  0
 41 44  1  0  0  0  0
 42 51  1  0  0  0  0
 43 67  1  0  0  0  0
 44 46  1  0  0  0  0
 45 47  1  0  0  0  0
 45 48  1  0  0  0  0
 46 50  1  0  0  0  0
 47 52  1  0  0  0  0
 48 68  1  0  0  0  0
 49 52  1  0  0  0  0
 49 68  1  0  0  0  0
 50 73  1  0  0  0  0
 51 67  1  0  0  0  0
 52 66  1  0  0  0  0
 53 62  1  0  0  0  0
 54 63  1  0  0  0  0
 55 63  1  0  0  0  0
 56 64  1  0  0  0  0
 57 64  1  0  0  0  0
 58 64  1  0  0  0  0
 59 76  1  0  0  0  0
 60 84  1  0  0  0  0
 61 64  1  0  0  0  0
 61 74  1  0  0  0  0
 62 76  1  0  0  0  0
 63 75  1  0  0  0  0
 65 66  1  0  0  0  0
M  CHG  2  75   1  76   1
M  ISO  4  40 100  60 101  72 100  84 101
M  END
> <Batch ID>
0074

> <Smiles>
CNC(C)C(=O)NC(C(=O)N1Cc2cc([101O:1][101CH2:1]C(=O)C(C)(C)NC(=N)c3ccc([100NH:0][100C:0](=O)N4CCCC(n5nc(-c6ccc(Oc7ccc(F)cc7F)cc6)c(C(N)=O)c5N)C4)c(F)c3)ccc2CC1C(=O)NC1CCCc2ccccc21)C(C)(C)C

> <Shape>
0.324

> <Color>
0.125

> <Negative vol penalty>
0.000

$$$$

  -OEChem-04042323443D

 87 95  0     1  0  0  0  0  0999 V2000
  -26.8748  -34.8382   24.0298 C   0  0  0  0  0  0  0  0  0  0  0  0
  -27.2647  -33.5585   23.6478 C   0  0  0  0  0  0  0  0  0  0  0  0
  -24.3127   -9.2333   20.5139 C   0  0  0  0  0  0  0  0  0  0  0  0
  -22.9410  -11.1919   20.8592 C   0  0  0  0  0  0  0  0  0  0  0  0
  -29.7705  -20.6232   22.1371 C   0  0  0  0  0  0  0  0  0  0  0  0
  -25.5981  -35.0511   24.5482 C   0  0  0  0  0  0  0  0  0  0  0  0
  -26.3784  -32.4908   23.7850 C   0  0  0  0  0  0  0  0  0  0  0  0
  -26.2935  -29.4992   19.6999 C   0  0  0  0  0  0  0  0  0  0  0  0
  -29.7137  -19.2503   22.3767 C   0  0  0  0  0  0  0  0  0  0  0  0
  -23.1994   -8.4178   20.7163 C   0  0  0  0  0  0  0  0  0  0  0  0
  -21.8276  -10.3764   21.0616 C   0  0  0  0  0  0  0  0  0  0  0  0
  -27.3457  -28.5971   19.5493 C   0  0  0  0  0  0  0  0  0  0  0  0
  -20.5056   -7.3958   18.9465 C   0  0  0  0  0  0  0  0  0  0  0  0
  -20.3072   -6.3378   18.0595 C   0  0  0  0  0  0  0  0  0  0  0  0
  -28.9159  -20.2691   19.9053 C   0  0  0  0  0  0  0  0  0  0  0  0
  -25.9479  -26.8316   20.4145 C   0  0  0  0  0  0  0  0  0  0  0  0
  -20.4453   -4.7729   19.8950 C   0  0  0  0  0  0  0  0  0  0  0  0
  -24.1836  -10.6203   20.5855 C   0  0  0  0  0  0  0  0  0  0  0  0
  -29.3716  -21.1327   20.9014 C   0  0  0  0  0  0  0  0  0  0  0  0
  -25.7866  -11.9962   19.1555 C   0  0  0  0  0  0  0  0  0  0  0  0
  -24.6924  -33.9870   24.6829 C   0  0  0  0  0  0  0  0  0  0  0  0
  -25.0619  -29.0759   20.2200 C   0  0  0  0  0  0  0  0  0  0  0  0
  -25.0889  -32.6894   24.3070 C   0  0  0  0  0  0  0  0  0  0  0  0
  -24.8808  -27.7298   20.5683 C   0  0  0  0  0  0  0  0  0  0  0  0
  -29.2580  -18.3868   21.3806 C   0  0  0  0  0  0  0  0  0  0  0  0
  -21.9568   -8.9893   20.9901 C   0  0  0  0  0  0  0  0  0  0  0  0
  -27.1740  -27.2637   19.9094 C   0  0  0  0  0  0  0  0  0  0  0  0
  -20.6740   -7.1424   20.3078 C   0  0  0  0  0  0  0  0  0  0  0  0
  -20.2770   -5.0264   18.5337 C   0  0  0  0  0  0  0  0  0  0  0  0
  -28.8591  -18.8962   20.1448 C   0  0  0  0  0  0  0  0  0  0  0  0
  -20.6438   -5.8310   20.7821 C   0  0  0  0  0  0  0  0  0  0  0  0
  -25.3334  -11.4633   20.3771 C   0  0  0  0  0  0  0  0  0  0  0  0
  -26.9042  -12.7209   19.4905 C   0  0  0  0  0  0  0  0  0  0  0  0
  -32.6499  -25.4191   19.3725 C   0  0  0  0  0  0  0  0  0  0  0  0
  -31.7326  -24.6565   18.7662 C   0  0  0  0  0  0  0  0  0  0  0  0
  -28.3084  -25.7107   18.5782 C   0  0  0  0  0  0  0  0  0  1  0  0
  -29.4312  -22.5860   20.6469 C   0  0  0  0  0  0  0  0  0  0  0  0
  -25.2456  -11.8495   17.8358 C   0  0  0  0  0  0  0  0  0  0  0  0
  -29.2677  -24.8136   18.2967 C   0  0  0  0  0  0  0  0  0  0  0  0
  -23.3415  -29.8084   22.7905 C   0  0  0  0  0  0  0  0  0  0  0  0
  -21.1494  -27.8655   21.3969 C   0  0  0  0  0  0  0  0  0  0  0  0
  -20.5081  -25.2952   19.2454 C   0  0  0  0  0  0  0  0  0  0  0  0
  -29.5601  -16.3269   22.7990 C   0  0  0  0  0  0  0  0  0  0  0  0
  -23.3397  -34.2579   25.2925 C   0  0  0  0  0  0  0  0  0  0  0  0
  -23.9283  -30.0558   20.3511 C   0  0  0  0  0  0  0  0  0  0  0  0
  -23.5719  -27.2206   21.1123 C   0  0  0  0  0  0  0  0  0  0  0  0
  -22.3298  -33.1378   25.0562 C   0  0  0  0  0  0  0  0  0  0  0  0
  -29.5313  -12.9139   23.8129 C   0  0  0  0  0  0  0  0  0  0  0  0
  -22.9601  -31.7801   25.3496 C   0  0  0  0  0  0  0  0  0  0  0  0
  -28.4739  -12.2761   22.9089 C   0  0  0  0  0  0  0  0  0  0  0  0
  -29.1447  -14.3336   24.2236 C   0  0  0  0  0  0  0  0  0  0  0  0
  -27.7533  -14.5946   22.2074 C   0  0  0  0  0  0  0  0  0  0  0  0
  -24.1473  -31.5099   24.4174 C   0  0  1  0  0  0  0  0  0  0  0  0
  -22.8804  -29.6241   21.3724 C   0  0  1  0  0  0  0  0  0  0  0  0
  -28.1293  -13.1876   21.7148 C   0  0  2  0  0  0  0  0  0  0  0  0
  -29.2875  -24.1386   16.9497 C   0  0  0  0  0  0  0  0  0  0  0  0
  -18.6238  -23.9048   18.3435 C   0  0  0  0  0  0  0  0  0  0  0  0
  -21.0447  -26.3104   24.0200 C   0  0  0  0  0  0  0  0  0  0  0  0
  -19.9227  -24.4425   22.7871 C   0  0  0  0  0  0  0  0  0  0  0  0
  -18.8215  -26.6760   22.9345 C   0  0  0  0  0  0  0  0  0  0  0  0
  -21.0245  -26.1864   16.4709 C   0  0  0  0  0  0  0  0  0  0  0  0
  -30.3433  -24.4407   19.2960 C   0  0  1  0  0  0  0  0  0  0  0  0
  -20.8455  -26.3876   21.4470 C   0  0  1  0  0  0  0  0  0  0  0  0
  -19.4833  -25.1421   18.1360 C   0  0  2  0  0  0  0  0  0  0  0  0
  -20.1840  -25.9638   22.7888 C   0  0  0  0  0  0  0  0  0  0  0  0
  -26.1006  -11.8189   21.4110 N   0  0  0  0  0  0  0  0  0  0  0  0
  -27.0471  -12.5831   20.8399 N   0  0  0  0  0  0  0  0  0  0  0  0
  -22.4957  -28.2186   21.2278 N   0  0  0  0  0  0  0  0  0  0  0  0
  -28.8361  -15.1402   23.0408 N   0  0  0  0  0  0  0  0  0  0  0  0
  -27.7688  -13.4562   18.7596 N   0  0  0  0  0  0  0  0  0  0  0  0
  -28.7131  -23.3909   21.4301 N   0  0  0  0  0  0  0  0  0  0  0  0
  -24.0925  -11.0703   17.6692 N   0  0  0  0  0  0  0  0  0  0  0  0
  -29.2014  -16.9926   21.6274 N   0  0  0  0  0  0  0  0  0  0  0  0
  -23.6803  -31.1101   23.1072 N   0  0  0  0  0  0  0  0  0  0  0  0
  -20.0405  -26.0962   20.2657 N   0  0  0  0  0  0  0  0  0  0  0  0
  -30.1994  -23.0194   19.6442 N   0  3  0  0  0  0  0  0  0  0  0  0
  -20.1633  -25.0259   16.8150 N   0  3  0  0  0  0  0  0  0  0  0  0
  -25.7786  -12.3797   16.8317 O   0  0  0  0  0  0  0  0  0  0  0  0
  -23.3853  -28.8416   23.5421 O   0  0  0  0  0  0  0  0  0  0  0  0
  -20.2255  -28.6767   21.4968 O   0  0  0  0  0  0  0  0  0  0  0  0
  -21.6116  -24.7550   19.2120 O   0  0  0  0  0  0  0  0  0  0  0  0
  -30.4527  -16.7089   23.5602 O   0  0  0  0  0  0  0  0  0  0  0  0
  -20.8701   -8.1939   21.1873 O   0  0  0  0  0  0  0  0  0  0  0  0
  -28.1996  -26.3812   19.7641 O   0  0  0  0  0  0  0  0  0  1  0  0
  -20.0849   -4.0106   17.6819 F   0  0  0  0  0  0  0  0  0  0  0  0
  -28.4207  -18.0753   19.1797 F   0  0  0  0  0  0  0  0  0  0  0  0
  -20.8037   -5.5813   22.0889 F   0  0  0  0  0  0  0  0  0  0  0  0
  1  2  1  0  0  0  0
  1  6  2  0  0  0  0
  2  7  2  0  0  0  0
  3 10  2  0  0  0  0
  3 18  1  0  0  0  0
  4 11  1  0  0  0  0
  4 18  2  0  0  0  0
  5  9  2  0  0  0  0
  5 19  1  0  0  0  0
  6 21  1  0  0  0  0
  7 23  1  0  0  0  0
  8 12  2  0  0  0  0
  8 22  1  0  0  0  0
  9 25  1  0  0  0  0
 10 26  1  0  0  0  0
 11 26  2  0  0  0  0
 12 27  1  0  0  0  0
 13 14  2  0  0  0  0
 13 28  1  0  0  0  0
 14 29  1  0  0  0  0
 15 19  2  0  0  0  0
 15 30  1  0  0  0  0
 16 24  1  0  0  0  0
 16 27  2  0  0  0  0
 17 29  2  0  0  0  0
 17 31  1  0  0  0  0
 18 32  1  0  0  0  0
 19 37  1  0  0  0  0
 20 32  1  0  0  0  0
 20 33  2  0  0  0  0
 20 38  1  0  0  0  0
 21 23  2  0  0  0  0
 21 44  1  0  0  0  0
 22 24  2  0  0  0  0
 22 45  1  0  0  0  0
 23 53  1  0  0  0  0
 24 46  1  0  0  0  0
 25 30  2  0  0  0  0
 25 73  1  0  0  0  0
 26 83  1  0  0  0  0
 27 84  1  0  0  0  0
 28 31  2  0  0  0  0
 28 83  1  0  0  0  0
 29 85  1  0  0  0  0
 30 86  1  0  0  0  0
 31 87  1  0  0  0  0
 32 66  2  0  0  0  0
 33 67  1  0  0  0  0
 33 70  1  0  0  0  0
 34 35  2  0  0  0  0
 35 62  1  0  0  0  0
 36 39  2  0  0  0  0
 36 84  1  0  0  0  0
 37 71  1  0  0  0  0
 37 76  2  0  0  0  0
 38 72  1  0  0  0  0
 38 78  2  0  0  0  0
 39 56  1  0  0  0  0
 39 62  1  0  0  0  0
 40 54  1  0  0  0  0
 40 74  1  0  0  0  0
 40 79  2  0  0  0  0
 41 63  1  0  0  0  0
 41 68  1  0  0  0  0
 41 80  2  0  0  0  0
 42 64  1  0  0  0  0
 42 75  1  0  0  0  0
 42 81  2  0  0  0  0
 43 69  1  0  0  0  0
 43 73  1  0  0  0  0
 43 82  2  0  0  0  0
 44 47  1  0  0  0  0
 45 54  1  0  0  0  0
 46 68  1  0  0  0  0
 47 49  1  0  0  0  0
 48 50  1  0  0  0  0
 48 51  1  0  0  0  0
 49 53  1  0  0  0  0
 50 55  1  0  0  0  0
 51 69  1  0  0  0  0
 52 55  1  0  0  0  0
 52 69  1  0  0  0  0
 53 74  1  0  0  0  0
 54 68  1  0  0  0  0
 55 67  1  0  0  0  0
 57 64  1  0  0  0  0
 58 65  1  0  0  0  0
 59 65  1  0  0  0  0
 60 65  1  0  0  0  0
 61 77  1  0  0  0  0
 62 76  1  0  0  0  0
 63 65  1  0  0  0  0
 63 75  1  0  0  0  0
 64 77  1  0  0  0  0
 66 67  1  0  0  0  0
M  CHG  2  76   1  77   1
M  ISO  4  36 101  43 100  73 100  84 101
M  END
> <Batch ID>
0074

> <Smiles>
C=CC(NC(=N)c1ccc([100NH:0][100C:0](=O)N2CCCC(n3nc(-c4ccc(Oc5ccc(F)cc5F)cc4)c(C(N)=O)c3N)C2)c(F)c1)C(C)=[101CH:1][101O:1]c1ccc2c(c1)CN(C(=O)C(NC(=O)C(C)NC)C(C)(C)C)C(C(=O)NC1CCCc3ccccc31)C2

> <Shape>
0.323

> <Color>
0.076

> <Negative vol penalty>
0.000

$$$$

  -OEChem-04042323443D

 88 97  0     1  0  0  0  0  0999 V2000
  -18.6810  -27.3418   23.1335 C   0  0  0  0  0  0  0  0  0  0  0  0
  -19.9302  -26.8300   23.4696 C   0  0  0  0  0  0  0  0  0  0  0  0
  -23.1894   -9.7863   19.9591 C   0  0  0  0  0  0  0  0  0  0  0  0
  -23.8844   -9.8687   22.2715 C   0  0  0  0  0  0  0  0  0  0  0  0
  -18.4579  -27.8484   21.8539 C   0  0  0  0  0  0  0  0  0  0  0  0
  -20.9568  -26.8237   22.5259 C   0  0  0  0  0  0  0  0  0  0  0  0
  -26.9361  -27.6188   23.5849 C   0  0  0  0  0  0  0  0  0  0  0  0
  -31.3588  -19.0773   23.2342 C   0  0  0  0  0  0  0  0  0  0  0  0
  -31.1739  -17.6974   23.1500 C   0  0  0  0  0  0  0  0  0  0  0  0
  -22.4931   -8.6041   20.2105 C   0  0  0  0  0  0  0  0  0  0  0  0
  -23.1881   -8.6865   22.5230 C   0  0  0  0  0  0  0  0  0  0  0  0
  -27.9918  -26.7189   23.7242 C   0  0  0  0  0  0  0  0  0  0  0  0
  -19.9849   -7.7492   23.0535 C   0  0  0  0  0  0  0  0  0  0  0  0
  -19.1985   -7.6942   24.2042 C   0  0  0  0  0  0  0  0  0  0  0  0
  -28.5492  -27.0219   21.3968 C   0  0  0  0  0  0  0  0  0  0  0  0
  -30.1347  -17.9687   20.9858 C   0  0  0  0  0  0  0  0  0  0  0  0
  -20.5075   -5.8301   25.0098 C   0  0  0  0  0  0  0  0  0  0  0  0
  -23.8851  -10.4186   20.9896 C   0  0  0  0  0  0  0  0  0  0  0  0
  -24.1128  -12.9545   20.8316 C   0  0  0  0  0  0  0  0  0  0  0  0
  -19.4850  -27.8572   20.8970 C   0  0  0  0  0  0  0  0  0  0  0  0
  -26.6719  -28.2197   22.3457 C   0  0  0  0  0  0  0  0  0  0  0  0
  -20.7468  -27.3297   21.2319 C   0  0  0  0  0  0  0  0  0  0  0  0
  -27.4912  -27.9310   21.2451 C   0  0  0  0  0  0  0  0  0  0  0  0
  -30.9316  -19.9030   22.1943 C   0  0  0  0  0  0  0  0  0  0  0  0
  -30.5619  -17.1431   22.0258 C   0  0  0  0  0  0  0  0  0  0  0  0
  -22.4924   -8.0542   21.4925 C   0  0  0  0  0  0  0  0  0  0  0  0
  -28.7968  -26.4181   22.6294 C   0  0  0  0  0  0  0  0  0  0  0  0
  -21.0325   -6.8445   22.8809 C   0  0  0  0  0  0  0  0  0  0  0  0
  -19.4598   -6.7348   25.1824 C   0  0  0  0  0  0  0  0  0  0  0  0
  -30.3196  -19.3487   21.0701 C   0  0  0  0  0  0  0  0  0  0  0  0
  -21.2938   -5.8850   23.8590 C   0  0  0  0  0  0  0  0  0  0  0  0
  -24.6050  -11.6395   20.7304 C   0  0  0  0  0  0  0  0  0  0  0  0
  -25.1787  -13.7478   20.4838 C   0  0  0  0  0  0  0  0  0  0  0  0
  -30.3343  -22.2494   21.7287 C   0  0  0  0  0  0  0  0  0  0  0  0
  -30.7728  -23.4785   22.0244 C   0  0  0  0  0  0  0  0  0  0  0  0
  -29.6069  -15.3752   24.1789 C   0  0  0  0  0  0  0  0  0  0  0  0
  -30.1859  -14.9236   23.0641 C   0  0  0  0  0  0  0  0  0  0  0  0
  -22.8087  -13.4175   21.2066 C   0  0  0  0  0  0  0  0  0  0  0  0
  -24.2196  -28.2057   20.3234 C   0  0  0  0  0  0  0  0  0  0  0  0
  -25.9947  -30.4294   18.7657 C   0  0  0  0  0  0  0  0  0  0  0  0
  -29.0749  -31.7596   18.1416 C   0  0  0  0  0  0  0  0  0  0  0  0
  -30.5319  -15.0740   20.6801 C   0  0  0  0  0  0  0  0  0  0  0  0
  -19.1825  -28.3720   19.5120 C   0  0  0  0  0  0  0  0  0  0  0  0
  -25.5457  -29.2087   22.2185 C   0  0  0  0  0  0  0  0  0  0  0  0
  -27.2620  -28.5647   19.8981 C   0  0  0  0  0  0  0  0  0  0  0  0
  -20.4317  -28.6719   18.6874 C   0  0  0  0  0  0  0  0  0  0  0  0
  -29.6335  -12.5729   18.4162 C   0  0  0  0  0  0  0  0  0  0  0  0
  -21.4304  -27.5239   18.7945 C   0  0  0  0  0  0  0  0  0  0  0  0
  -28.2067  -12.2037   18.8211 C   0  0  0  0  0  0  0  0  0  0  0  0
  -30.5039  -12.8195   19.6431 C   0  0  0  0  0  0  0  0  0  0  0  0
  -32.2065  -21.8595   23.0665 C   0  0  0  0  0  0  0  0  0  0  0  0
  -28.5379  -13.5111   20.9773 C   0  0  0  0  0  0  0  0  0  0  0  0
  -21.8927  -27.3282   20.2434 C   0  0  1  0  0  0  0  0  0  0  0  0
  -32.0023  -23.3842   22.8877 C   0  0  1  0  0  0  0  0  0  0  0  0
  -25.0509  -29.3694   20.7844 C   0  0  1  0  0  0  0  0  0  0  0  0
  -27.6117  -13.2584   19.7707 C   0  0  2  0  0  0  0  0  0  0  0  0
  -30.2135  -33.5454   16.7956 C   0  0  0  0  0  0  0  0  0  0  0  0
  -25.7143  -28.7145   16.2577 C   0  0  0  0  0  0  0  0  0  0  0  0
  -27.6042  -30.0082   15.2462 C   0  0  0  0  0  0  0  0  0  0  0  0
  -25.4893  -31.1748   15.8697 C   0  0  0  0  0  0  0  0  0  0  0  0
  -30.0656  -33.1238   20.5740 C   0  0  0  0  0  0  0  0  0  0  0  0
  -34.1481  -24.3146   23.1176 C   0  0  0  0  0  0  0  0  0  0  0  0
  -30.1844  -24.7776   21.6099 C   0  0  0  0  0  0  0  0  0  1  0  0
  -27.0557  -30.3902   17.6925 C   0  0  1  0  0  0  0  0  0  0  0  0
  -29.5681  -33.1952   18.1273 C   0  0  2  0  0  0  0  0  0  0  0  0
  -26.4692  -30.0583   16.2913 C   0  0  0  0  0  0  0  0  0  0  0  0
  -25.8841  -11.5957   20.3480 N   0  0  0  0  0  0  0  0  0  0  0  0
  -26.2045  -12.8930   20.2059 N   0  0  0  0  0  0  0  0  0  0  0  0
  -31.1135  -21.2604   22.2807 N   0  0  0  0  0  0  0  0  0  0  0  0
  -26.1446  -29.5204   19.8226 N   0  0  0  0  0  0  0  0  0  0  0  0
  -29.9025  -13.8233   20.5217 N   0  0  0  0  0  0  0  0  0  0  0  0
  -25.3292  -15.0862   20.3916 N   0  0  0  0  0  0  0  0  0  0  0  0
  -21.8310  -12.4680   21.5336 N   0  0  0  0  0  0  0  0  0  0  0  0
  -22.8719  -28.3319   20.6015 N   0  0  0  0  0  0  0  0  0  0  0  0
  -27.7528  -31.6699   17.7607 N   0  0  0  0  0  0  0  0  0  0  0  0
  -30.3701  -15.7101   21.9384 N   0  0  0  0  0  0  0  0  0  0  0  0
  -30.5729  -33.4085   19.2071 N   0  3  0  0  0  0  0  0  0  0  0  0
  -22.5142  -14.6365   21.2346 O   0  0  0  0  0  0  0  0  0  0  0  0
  -24.7606  -27.2638   19.7561 O   0  0  0  0  0  0  0  0  0  0  0  0
  -25.0710  -31.2417   18.6735 O   0  0  0  0  0  0  0  0  0  0  0  0
  -29.7920  -30.8120   18.4553 O   0  0  0  0  0  0  0  0  0  0  0  0
  -31.2082  -15.5817   19.7762 O   0  0  0  0  0  0  0  0  0  0  0  0
  -21.8128   -6.9008   21.7382 O   0  0  0  0  0  0  0  0  0  0  0  0
  -29.8275  -25.5396   22.7625 O   0  0  0  0  0  0  0  0  0  1  0  0
  -33.1070  -23.9640   22.2140 O   0  0  0  0  0  0  0  0  0  0  0  0
  -18.7055   -6.6831   26.2881 F   0  0  0  0  0  0  0  0  0  0  0  0
  -29.9040  -20.1335   20.0657 F   0  0  0  0  0  0  0  0  0  0  0  0
  -22.2996   -5.0140   23.6993 F   0  0  0  0  0  0  0  0  0  0  0  0
  1  2  1  0  0  0  0
  1  5  2  0  0  0  0
  2  6  2  0  0  0  0
  3 10  2  0  0  0  0
  3 18  1  0  0  0  0
  4 11  1  0  0  0  0
  4 18  2  0  0  0  0
  5 20  1  0  0  0  0
  6 22  1  0  0  0  0
  7 12  2  0  0  0  0
  7 21  1  0  0  0  0
  8  9  2  0  0  0  0
  8 24  1  0  0  0  0
  9 25  1  0  0  0  0
 10 26  1  0  0  0  0
 11 26  2  0  0  0  0
 12 27  1  0  0  0  0
 13 14  2  0  0  0  0
 13 28  1  0  0  0  0
 14 29  1  0  0  0  0
 15 23  1  0  0  0  0
 15 27  2  0  0  0  0
 16 25  2  0  0  0  0
 16 30  1  0  0  0  0
 17 29  2  0  0  0  0
 17 31  1  0  0  0  0
 18 32  1  0  0  0  0
 19 32  1  0  0  0  0
 19 33  2  0  0  0  0
 19 38  1  0  0  0  0
 20 22  2  0  0  0  0
 20 43  1  0  0  0  0
 21 23  2  0  0  0  0
 21 44  1  0  0  0  0
 22 53  1  0  0  0  0
 23 45  1  0  0  0  0
 24 30  2  0  0  0  0
 24 69  1  0  0  0  0
 25 76  1  0  0  0  0
 26 83  1  0  0  0  0
 27 84  1  0  0  0  0
 28 31  2  0  0  0  0
 28 83  1  0  0  0  0
 29 86  1  0  0  0  0
 30 87  1  0  0  0  0
 31 88  1  0  0  0  0
 32 67  2  0  0  0  0
 33 68  1  0  0  0  0
 33 72  1  0  0  0  0
 34 35  2  0  0  0  0
 34 69  1  0  0  0  0
 35 54  1  0  0  0  0
 35 63  1  0  0  0  0
 36 37  2  0  0  0  0
 37 76  1  0  0  0  0
 38 73  1  0  0  0  0
 38 78  2  0  0  0  0
 39 55  1  0  0  0  0
 39 74  1  0  0  0  0
 39 79  2  0  0  0  0
 40 64  1  0  0  0  0
 40 70  1  0  0  0  0
 40 80  2  0  0  0  0
 41 65  1  0  0  0  0
 41 75  1  0  0  0  0
 41 81  2  0  0  0  0
 42 71  1  0  0  0  0
 42 76  1  0  0  0  0
 42 82  2  0  0  0  0
 43 46  1  0  0  0  0
 44 55  1  0  0  0  0
 45 70  1  0  0  0  0
 46 48  1  0  0  0  0
 47 49  1  0  0  0  0
 47 50  1  0  0  0  0
 48 53  1  0  0  0  0
 49 56  1  0  0  0  0
 50 71  1  0  0  0  0
 51 54  1  0  0  0  0
 51 69  1  0  0  0  0
 52 56  1  0  0  0  0
 52 71  1  0  0  0  0
 53 74  1  0  0  0  0
 54 85  1  0  0  0  0
 55 70  1  0  0  0  0
 56 68  1  0  0  0  0
 57 65  1  0  0  0  0
 58 66  1  0  0  0  0
 59 66  1  0  0  0  0
 60 66  1  0  0  0  0
 61 77  1  0  0  0  0
 62 85  1  0  0  0  0
 63 84  1  0  0  0  0
 64 66  1  0  0  0  0
 64 75  1  0  0  0  0
 65 77  1  0  0  0  0
 67 68  1  0  0  0  0
M  CHG  1  77   1
M  ISO  4  42 100  63 101  76 100  84 101
M  END
> <Batch ID>
0074

> <Smiles>
C=C[100N:0](c1ccc(N2C=C([101CH2:1][101O:1]c3ccc4c(c3)CN(C(=O)C(NC(=O)C(C)NC)C(C)(C)C)C(C(=O)NC3CCCc5ccccc53)C4)C(OC)C2)c(F)c1)[100C:0](=O)N1CCCC(n2nc(-c3ccc(Oc4ccc(F)cc4F)cc3)c(C(N)=O)c2N)C1

> <Shape>
0.288

> <Color>
0.205

> <Negative vol penalty>
0.000

$$$$

  -OEChem-04042323443D

 86 94  0     1  0  0  0  0  0999 V2000
  -24.4379  -33.2222   28.2471 C   0  0  0  0  0  0  0  0  0  0  0  0
  -25.3424  -32.5079   27.4679 C   0  0  0  0  0  0  0  0  0  0  0  0
  -25.6478  -12.7120   21.9361 C   0  0  0  0  0  0  0  0  0  0  0  0
  -25.9298  -13.9693   19.8925 C   0  0  0  0  0  0  0  0  0  0  0  0
  -31.4500  -22.6970   20.7893 C   0  0  0  0  0  0  0  0  0  0  0  0
  -23.0756  -32.9352   28.1714 C   0  0  0  0  0  0  0  0  0  0  0  0
  -24.8851  -31.5055   26.6132 C   0  0  0  0  0  0  0  0  0  0  0  0
  -27.1844  -30.0023   21.1397 C   0  0  0  0  0  0  0  0  0  0  0  0
  -31.4616  -21.4931   21.4937 C   0  0  0  0  0  0  0  0  0  0  0  0
  -24.2878  -12.5697   21.6610 C   0  0  0  0  0  0  0  0  0  0  0  0
  -24.5698  -13.8270   19.6172 C   0  0  0  0  0  0  0  0  0  0  0  0
  -28.0578  -28.9941   20.7340 C   0  0  0  0  0  0  0  0  0  0  0  0
  -22.3351  -10.6478   19.6795 C   0  0  0  0  0  0  0  0  0  0  0  0
  -21.7667   -9.3863   19.8556 C   0  0  0  0  0  0  0  0  0  0  0  0
  -31.0236  -21.4931   18.7385 C   0  0  0  0  0  0  0  0  0  0  0  0
  -26.1743  -27.6186   20.1179 C   0  0  0  0  0  0  0  0  0  0  0  0
  -20.2417  -10.3017   21.4907 C   0  0  0  0  0  0  0  0  0  0  0  0
  -26.4688  -13.4119   21.0519 C   0  0  0  0  0  0  0  0  0  0  0  0
  -31.2309  -22.6970   19.4117 C   0  0  0  0  0  0  0  0  0  0  0  0
  -28.9150  -12.6956   20.9477 C   0  0  0  0  0  0  0  0  0  0  0  0
  -22.6004  -31.9353   27.3083 C   0  0  0  0  0  0  0  0  0  0  0  0
  -25.7968  -29.8216   21.0475 C   0  0  0  0  0  0  0  0  0  0  0  0
  -23.5153  -31.2040   26.5269 C   0  0  0  0  0  0  0  0  0  0  0  0
  -25.2855  -28.6270   20.5207 C   0  0  0  0  0  0  0  0  0  0  0  0
  -31.2543  -20.2892   20.8205 C   0  0  0  0  0  0  0  0  0  0  0  0
  -23.7488  -13.1271   20.5015 C   0  0  0  0  0  0  0  0  0  0  0  0
  -27.5528  -27.8010   20.2257 C   0  0  0  0  0  0  0  0  0  0  0  0
  -21.8569  -11.7363   20.4091 C   0  0  0  0  0  0  0  0  0  0  0  0
  -20.7199   -9.2132   20.7611 C   0  0  0  0  0  0  0  0  0  0  0  0
  -31.0353  -20.2892   19.4429 C   0  0  0  0  0  0  0  0  0  0  0  0
  -20.8102  -11.5632   21.3146 C   0  0  0  0  0  0  0  0  0  0  0  0
  -27.8737  -13.5597   21.3359 C   0  0  0  0  0  0  0  0  0  0  0  0
  -30.0505  -13.2745   21.4595 C   0  0  0  0  0  0  0  0  0  0  0  0
  -31.2183  -23.9710   18.6653 C   0  0  0  0  0  0  0  0  0  0  0  0
  -28.8607  -11.4784   20.1919 C   0  0  0  0  0  0  0  0  0  0  0  0
  -23.4017  -29.7411   23.1357 C   0  0  0  0  0  0  0  0  0  0  0  0
  -29.2899  -26.0128   17.1386 C   0  0  0  0  0  0  0  0  0  0  0  0
  -21.5838  -29.5869   20.4536 C   0  0  0  0  0  0  0  0  0  0  0  0
  -21.3624  -28.7741   17.1465 C   0  0  0  0  0  0  0  0  0  0  0  0
  -31.4695  -18.8954   22.9079 C   0  0  0  0  0  0  0  0  0  0  0  0
  -21.1238  -31.6288   27.2957 C   0  0  0  0  0  0  0  0  0  0  0  0
  -24.8685  -30.9292   21.4645 C   0  0  0  0  0  0  0  0  0  0  0  0
  -23.8043  -28.3914   20.3821 C   0  0  0  0  0  0  0  0  0  0  0  0
  -20.6827  -30.8064   26.0877 C   0  0  0  0  0  0  0  0  0  0  0  0
  -31.5367  -16.0600   25.0604 C   0  0  0  0  0  0  0  0  0  0  0  0
  -21.6331  -29.6344   25.8639 C   0  0  0  0  0  0  0  0  0  0  0  0
  -30.7048  -15.0164   24.3114 C   0  0  0  0  0  0  0  0  0  0  0  0
  -30.9738  -17.4689   24.8813 C   0  0  0  0  0  0  0  0  0  0  0  0
  -29.9346  -16.8384   22.7385 C   0  0  0  0  0  0  0  0  0  0  0  0
  -23.0554  -30.1261   25.5694 C   0  0  1  0  0  0  0  0  0  0  0  0
  -23.4655  -30.4364   21.8052 C   0  0  1  0  0  0  0  0  0  0  0  0
  -30.5001  -15.4121   22.8359 C   0  0  2  0  0  0  0  0  0  0  0  0
  -29.5940  -26.8432   15.9174 C   0  0  0  0  0  0  0  0  0  0  0  0
  -19.7373  -28.7234   15.2349 C   0  0  0  0  0  0  0  0  0  0  0  0
  -20.2798  -27.0926   21.6316 C   0  0  0  0  0  0  0  0  0  0  0  0
  -19.3969  -26.5614   19.3498 C   0  0  0  0  0  0  0  0  0  0  0  0
  -18.6958  -28.6617   20.4987 C   0  0  0  0  0  0  0  0  0  0  0  0
  -22.9912  -30.6682   15.5596 C   0  0  0  0  0  0  0  0  0  0  0  0
  -29.6788  -27.2182   19.3334 C   0  0  0  0  0  0  0  0  0  1  0  0
  -30.2010  -26.1967   18.3367 C   0  0  1  0  0  0  0  0  0  0  0  0
  -21.0470  -28.4723   19.5886 C   0  0  1  0  0  0  0  0  0  0  0  0
  -20.8018  -29.5339   15.9578 C   0  0  2  0  0  0  0  0  0  0  0  0
  -19.8828  -27.7004   20.2714 C   0  0  0  0  0  0  0  0  0  0  0  0
  -28.3090  -14.6078   22.0402 N   0  0  0  0  0  0  0  0  0  0  0  0
  -29.6363  -14.4060   22.0986 N   0  0  0  0  0  0  0  0  0  0  0  0
  -22.9373  -29.5019   20.8093 N   0  0  0  0  0  0  0  0  0  0  0  0
  -30.8109  -17.7756   23.4586 N   0  0  0  0  0  0  0  0  0  0  0  0
  -31.3527  -12.9210   21.4209 N   0  0  0  0  0  0  0  0  0  0  0  0
  -32.1114  -24.1363   17.6896 N   0  0  0  0  0  0  0  0  0  0  0  0
  -27.6127  -11.0261   19.7423 N   0  0  0  0  0  0  0  0  0  0  0  0
  -31.2665  -19.0681   21.5391 N   0  0  0  0  0  0  0  0  0  0  0  0
  -23.1579  -30.5866   24.2012 N   0  0  0  0  0  0  0  0  0  0  0  0
  -20.6918  -29.0816   18.3114 N   0  0  0  0  0  0  0  0  0  0  0  0
  -30.3143  -24.8985   19.0043 N   0  3  0  0  0  0  0  0  0  0  0  0
  -21.8878  -29.8537   14.9886 N   0  3  0  0  0  0  0  0  0  0  0  0
  -29.8866  -10.8030   19.9372 O   0  0  0  0  0  0  0  0  0  0  0  0
  -23.5603  -28.5273   23.1913 O   0  0  0  0  0  0  0  0  0  0  0  0
  -28.3392  -25.2304   17.1439 O   0  0  0  0  0  0  0  0  0  0  0  0
  -20.8317  -30.5032   20.7950 O   0  0  0  0  0  0  0  0  0  0  0  0
  -22.2988  -27.9839   17.0504 O   0  0  0  0  0  0  0  0  0  0  0  0
  -32.1844  -19.6301   23.5941 O   0  0  0  0  0  0  0  0  0  0  0  0
  -22.4218  -12.9882   20.2326 O   0  0  0  0  0  0  0  0  0  0  0  0
  -28.4030  -26.8151   19.8295 O   0  0  0  0  0  0  0  0  0  1  0  0
  -20.1731   -8.0020   20.9290 F   0  0  0  0  0  0  0  0  0  0  0  0
  -30.8362  -19.1379   18.7854 F   0  0  0  0  0  0  0  0  0  0  0  0
  -20.3457  -12.6054   22.0175 F   0  0  0  0  0  0  0  0  0  0  0  0
  1  2  1  0  0  0  0
  1  6  2  0  0  0  0
  2  7  2  0  0  0  0
  3 10  2  0  0  0  0
  3 18  1  0  0  0  0
  4 11  1  0  0  0  0
  4 18  2  0  0  0  0
  5  9  2  0  0  0  0
  5 19  1  0  0  0  0
  6 21  1  0  0  0  0
  7 23  1  0  0  0  0
  8 12  2  0  0  0  0
  8 22  1  0  0  0  0
  9 25  1  0  0  0  0
 10 26  1  0  0  0  0
 11 26  2  0  0  0  0
 12 27  1  0  0  0  0
 13 14  2  0  0  0  0
 13 28  1  0  0  0  0
 14 29  1  0  0  0  0
 15 19  2  0  0  0  0
 15 30  1  0  0  0  0
 16 24  1  0  0  0  0
 16 27  2  0  0  0  0
 17 29  2  0  0  0  0
 17 31  1  0  0  0  0
 18 32  1  0  0  0  0
 19 34  1  0  0  0  0
 20 32  1  0  0  0  0
 20 33  2  0  0  0  0
 20 35  1  0  0  0  0
 21 23  2  0  0  0  0
 21 41  1  0  0  0  0
 22 24  2  0  0  0  0
 22 42  1  0  0  0  0
 23 50  1  0  0  0  0
 24 43  1  0  0  0  0
 25 30  2  0  0  0  0
 25 71  1  0  0  0  0
 26 82  1  0  0  0  0
 27 83  1  0  0  0  0
 28 31  2  0  0  0  0
 28 82  1  0  0  0  0
 29 84  1  0  0  0  0
 30 85  1  0  0  0  0
 31 86  1  0  0  0  0
 32 64  2  0  0  0  0
 33 65  1  0  0  0  0
 33 68  1  0  0  0  0
 34 69  1  0  0  0  0
 34 74  2  0  0  0  0
 35 70  1  0  0  0  0
 35 76  2  0  0  0  0
 36 51  1  0  0  0  0
 36 72  1  0  0  0  0
 36 77  2  0  0  0  0
 37 53  1  0  0  0  0
 37 60  1  0  0  0  0
 37 78  2  0  0  0  0
 38 61  1  0  0  0  0
 38 66  1  0  0  0  0
 38 79  2  0  0  0  0
 39 62  1  0  0  0  0
 39 73  1  0  0  0  0
 39 80  2  0  0  0  0
 40 67  1  0  0  0  0
 40 71  1  0  0  0  0
 40 81  2  0  0  0  0
 41 44  1  0  0  0  0
 42 51  1  0  0  0  0
 43 66  1  0  0  0  0
 44 46  1  0  0  0  0
 45 47  1  0  0  0  0
 45 48  1  0  0  0  0
 46 50  1  0  0  0  0
 47 52  1  0  0  0  0
 48 67  1  0  0  0  0
 49 52  1  0  0  0  0
 49 67  1  0  0  0  0
 50 72  1  0  0  0  0
 51 66  1  0  0  0  0
 52 65  1  0  0  0  0
 54 62  1  0  0  0  0
 55 63  1  0  0  0  0
 56 63  1  0  0  0  0
 57 63  1  0  0  0  0
 58 75  1  0  0  0  0
 59 60  1  0  0  0  0
 59 83  1  0  0  0  0
 60 74  1  0  0  0  0
 61 63  1  0  0  0  0
 61 73  1  0  0  0  0
 62 75  1  0  0  0  0
 64 65  1  0  0  0  0
M  CHG  2  74   1  75   1
M  ISO  4  40 100  59 101  71 100  83 101
M  END
> <Batch ID>
0074

> <Smiles>
CNC(C)C(=O)NC(C(=O)N1Cc2cc([101O:1][101CH2:1]C(NC(=N)c3ccc([100NH:0][100C:0](=O)N4CCCC(n5nc(-c6ccc(Oc7ccc(F)cc7F)cc6)c(C(N)=O)c5N)C4)c(F)c3)C(C)=O)ccc2CC1C(=O)NC1CCCc2ccccc21)C(C)(C)C

> <Shape>
0.254

> <Color>
0.067

> <Negative vol penalty>
0.000

$$$$

  -OEChem-04042323443D

 87 96  0     1  0  0  0  0  0999 V2000
  -17.0498  -28.9876   24.4476 C   0  0  0  0  0  0  0  0  0  0  0  0
  -17.2226  -27.8004   23.7432 C   0  0  0  0  0  0  0  0  0  0  0  0
  -25.7441  -14.0215   21.1645 C   0  0  0  0  0  0  0  0  0  0  0  0
  -24.6407  -15.0488   23.0524 C   0  0  0  0  0  0  0  0  0  0  0  0
  -17.8217  -30.1042   24.1296 C   0  0  0  0  0  0  0  0  0  0  0  0
  -18.1668  -27.7295   22.7195 C   0  0  0  0  0  0  0  0  0  0  0  0
  -22.7116  -23.1380   19.6245 C   0  0  0  0  0  0  0  0  0  0  0  0
  -28.9238  -18.4276   16.6141 C   0  0  0  0  0  0  0  0  0  0  0  0
  -28.7151  -20.5467   17.7556 C   0  0  0  0  0  0  0  0  0  0  0  0
  -30.0642  -18.1367   17.3626 C   0  0  0  0  0  0  0  0  0  0  0  0
  -29.8555  -20.2558   18.5042 C   0  0  0  0  0  0  0  0  0  0  0  0
  -25.2990  -12.7686   21.5860 C   0  0  0  0  0  0  0  0  0  0  0  0
  -24.1955  -13.7959   23.4740 C   0  0  0  0  0  0  0  0  0  0  0  0
  -23.0518  -22.6423   18.3667 C   0  0  0  0  0  0  0  0  0  0  0  0
  -22.4374  -10.9714   21.4650 C   0  0  0  0  0  0  0  0  0  0  0  0
  -21.9022  -10.1159   20.5020 C   0  0  0  0  0  0  0  0  0  0  0  0
  -24.3840  -24.6114   17.9577 C   0  0  0  0  0  0  0  0  0  0  0  0
  -23.6124   -8.4840   21.0015 C   0  0  0  0  0  0  0  0  0  0  0  0
  -25.4150  -15.1616   21.8977 C   0  0  0  0  0  0  0  0  0  0  0  0
  -25.2149  -17.3450   20.5937 C   0  0  0  0  0  0  0  0  0  0  0  0
  -18.7825  -30.0442   23.1079 C   0  0  0  0  0  0  0  0  0  0  0  0
  -23.1970  -24.3813   20.0548 C   0  0  0  0  0  0  0  0  0  0  0  0
  -18.9513  -28.8468   22.3866 C   0  0  0  0  0  0  0  0  0  0  0  0
  -24.0505  -25.1195   19.2225 C   0  0  0  0  0  0  0  0  0  0  0  0
  -28.2492  -19.6327   16.8105 C   0  0  0  0  0  0  0  0  0  0  0  0
  -30.5301  -19.0507   18.3077 C   0  0  0  0  0  0  0  0  0  0  0  0
  -24.5246  -12.6558   22.7408 C   0  0  0  0  0  0  0  0  0  0  0  0
  -23.8858  -23.3803   17.5319 C   0  0  0  0  0  0  0  0  0  0  0  0
  -23.5602  -10.5833   22.1961 C   0  0  0  0  0  0  0  0  0  0  0  0
  -22.4897   -8.8721   20.2703 C   0  0  0  0  0  0  0  0  0  0  0  0
  -24.1476   -9.3396   21.9644 C   0  0  0  0  0  0  0  0  0  0  0  0
  -25.8751  -16.4560   21.4630 C   0  0  0  0  0  0  0  0  0  0  0  0
  -26.0590  -18.4245   20.5007 C   0  0  0  0  0  0  0  0  0  0  0  0
  -26.1999  -18.9725   15.5546 C   0  0  0  0  0  0  0  0  0  0  0  0
  -26.6979  -21.2193   15.6755 C   0  0  0  0  0  0  0  0  0  0  0  0
  -23.9516  -17.2073   19.9298 C   0  0  0  0  0  0  0  0  0  0  0  0
  -21.8641  -27.1475   20.8762 C   0  0  0  0  0  0  0  0  0  0  0  0
  -24.9106  -27.9357   21.6633 C   0  0  0  0  0  0  0  0  0  0  0  0
  -28.2506  -27.3973   21.2145 C   0  0  0  0  0  0  0  0  0  0  0  0
  -31.9176  -19.2288   20.3896 C   0  0  0  0  0  0  0  0  0  0  0  0
  -19.5602  -31.2911   22.7685 C   0  0  0  0  0  0  0  0  0  0  0  0
  -22.8422  -24.8897   21.4252 C   0  0  0  0  0  0  0  0  0  0  0  0
  -24.6146  -26.4504   19.6454 C   0  0  0  0  0  0  0  0  0  0  0  0
  -25.2102  -19.6682   14.6619 C   0  0  0  0  0  0  0  0  0  0  0  0
  -20.8009  -31.0232   21.9204 C   0  0  0  0  0  0  0  0  0  0  0  0
  -29.7558  -20.2424   23.2167 C   0  0  0  0  0  0  0  0  0  0  0  0
  -20.4662  -30.0828   20.7670 C   0  0  0  0  0  0  0  0  0  0  0  0
  -28.5081  -19.3848   23.0141 C   0  0  0  0  0  0  0  0  0  0  0  0
  -31.0056  -19.5633   22.6648 C   0  0  0  0  0  0  0  0  0  0  0  0
  -29.6342  -18.3100   21.0246 C   0  0  0  0  0  0  0  0  0  0  0  0
  -19.9827  -28.7233   21.2860 C   0  0  1  0  0  0  0  0  0  0  0  0
  -22.9793  -26.4036   21.5549 C   0  0  1  0  0  0  0  0  0  0  0  0
  -28.3553  -18.9900   21.5359 C   0  0  1  0  0  0  0  0  0  0  0  0
  -25.3072  -21.1350   15.0726 C   0  0  2  0  0  0  0  0  0  0  0  0
  -25.1590  -22.0687   13.8737 C   0  0  0  0  0  0  0  0  0  0  0  0
  -30.4976  -28.2217   21.9686 C   0  0  0  0  0  0  0  0  0  0  0  0
  -24.5973  -30.4012   19.8932 C   0  0  0  0  0  0  0  0  0  0  0  0
  -27.0883  -30.6510   19.9199 C   0  0  0  0  0  0  0  0  0  0  0  0
  -25.7977  -30.8102   22.0487 C   0  0  0  0  0  0  0  0  0  0  0  0
  -32.8451  -18.1428   18.3916 C   0  0  0  0  0  0  0  0  0  0  0  0
  -28.9763  -24.7530   22.3280 C   0  0  0  0  0  0  0  0  0  0  0  0
  -24.2791  -21.4810   16.1556 C   0  0  0  0  0  0  0  0  0  1  0  0
  -26.0764  -28.5583   20.9336 C   0  0  1  0  0  0  0  0  0  0  0  0
  -29.3838  -27.2143   22.2079 C   0  0  2  0  0  0  0  0  0  0  0  0
  -25.8779  -30.0810   20.6898 C   0  0  0  0  0  0  0  0  0  0  0  0
  -27.0481  -16.9297   21.8916 N   0  0  0  0  0  0  0  0  0  0  0  0
  -27.1318  -18.1280   21.2889 N   0  0  0  0  0  0  0  0  0  0  0  0
  -27.0785  -19.9317   16.0418 N   0  0  0  0  0  0  0  0  0  0  0  0
  -24.2335  -26.9078   20.9919 N   0  0  0  0  0  0  0  0  0  0  0  0
  -30.8243  -19.1392   21.2756 N   0  0  0  0  0  0  0  0  0  0  0  0
  -25.9808  -19.5890   19.8222 N   0  0  0  0  0  0  0  0  0  0  0  0
  -23.2131  -16.0341   20.1355 N   0  0  0  0  0  0  0  0  0  0  0  0
  -21.1043  -27.9239   21.7303 N   0  0  0  0  0  0  0  0  0  0  0  0
  -27.2670  -28.2275   21.7090 N   0  0  0  0  0  0  0  0  0  0  0  0
  -31.7095  -18.7502   19.0820 N   0  0  0  0  0  0  0  0  0  0  0  0
  -29.9572  -25.8436   22.0929 N   0  3  0  0  0  0  0  0  0  0  0  0
  -26.1609  -17.7666   15.7576 O   0  0  0  0  0  0  0  0  0  0  0  0
  -27.3173  -22.2699   15.7831 O   0  0  0  0  0  0  0  0  0  0  0  0
  -23.4990  -18.0912   19.1633 O   0  0  0  0  0  0  0  0  0  0  0  0
  -21.7056  -27.0273   19.6670 O   0  0  0  0  0  0  0  0  0  0  0  0
  -24.6163  -28.3414   22.7904 O   0  0  0  0  0  0  0  0  0  0  0  0
  -28.2409  -26.8606   20.1089 O   0  0  0  0  0  0  0  0  0  0  0  0
  -33.0211  -19.6543   20.7528 O   0  0  0  0  0  0  0  0  0  0  0  0
  -24.0899  -11.4335   23.1523 O   0  0  0  0  0  0  0  0  0  0  0  0
  -24.2190  -22.8991   16.3033 O   0  0  0  0  0  0  0  0  0  1  0  0
  -21.9747   -8.0500   19.3467 F   0  0  0  0  0  0  0  0  0  0  0  0
  -25.2257   -8.9607   22.6644 F   0  0  0  0  0  0  0  0  0  0  0  0
  1  2  1  0  0  0  0
  1  5  2  0  0  0  0
  2  6  2  0  0  0  0
  3 12  2  0  0  0  0
  3 19  1  0  0  0  0
  4 13  1  0  0  0  0
  4 19  2  0  0  0  0
  5 21  1  0  0  0  0
  6 23  1  0  0  0  0
  7 14  2  0  0  0  0
  7 22  1  0  0  0  0
  8 10  2  0  0  0  0
  8 25  1  0  0  0  0
  9 11  1  0  0  0  0
  9 25  2  0  0  0  0
 10 26  1  0  0  0  0
 11 26  2  0  0  0  0
 12 27  1  0  0  0  0
 13 27  2  0  0  0  0
 14 28  1  0  0  0  0
 15 16  2  0  0  0  0
 15 29  1  0  0  0  0
 16 30  1  0  0  0  0
 17 24  1  0  0  0  0
 17 28  2  0  0  0  0
 18 30  2  0  0  0  0
 18 31  1  0  0  0  0
 19 32  1  0  0  0  0
 20 32  1  0  0  0  0
 20 33  2  0  0  0  0
 20 36  1  0  0  0  0
 21 23  2  0  0  0  0
 21 41  1  0  0  0  0
 22 24  2  0  0  0  0
 22 42  1  0  0  0  0
 23 51  1  0  0  0  0
 24 43  1  0  0  0  0
 25 68  1  0  0  0  0
 26 75  1  0  0  0  0
 27 84  1  0  0  0  0
 28 85  1  0  0  0  0
 29 31  2  0  0  0  0
 29 84  1  0  0  0  0
 30 86  1  0  0  0  0
 31 87  1  0  0  0  0
 32 66  2  0  0  0  0
 33 67  1  0  0  0  0
 33 71  1  0  0  0  0
 34 44  1  0  0  0  0
 34 68  1  0  0  0  0
 34 77  2  0  0  0  0
 35 54  1  0  0  0  0
 35 68  1  0  0  0  0
 35 78  2  0  0  0  0
 36 72  1  0  0  0  0
 36 79  2  0  0  0  0
 37 52  1  0  0  0  0
 37 73  1  0  0  0  0
 37 80  2  0  0  0  0
 38 63  1  0  0  0  0
 38 69  1  0  0  0  0
 38 81  2  0  0  0  0
 39 64  1  0  0  0  0
 39 74  1  0  0  0  0
 39 82  2  0  0  0  0
 40 70  1  0  0  0  0
 40 75  1  0  0  0  0
 40 83  2  0  0  0  0
 41 45  1  0  0  0  0
 42 52  1  0  0  0  0
 43 69  1  0  0  0  0
 44 54  1  0  0  0  0
 45 47  1  0  0  0  0
 46 48  1  0  0  0  0
 46 49  1  0  0  0  0
 47 51  1  0  0  0  0
 48 53  1  0  0  0  0
 49 70  1  0  0  0  0
 50 53  1  0  0  0  0
 50 70  1  0  0  0  0
 51 73  1  0  0  0  0
 52 69  1  0  0  0  0
 53 67  1  0  0  0  0
 54 55  1  0  0  0  0
 54 62  1  0  0  0  0
 56 64  1  0  0  0  0
 57 65  1  0  0  0  0
 58 65  1  0  0  0  0
 59 65  1  0  0  0  0
 60 75  1  0  0  0  0
 61 76  1  0  0  0  0
 62 85  1  0  0  0  0
 63 65  1  0  0  0  0
 63 74  1  0  0  0  0
 64 76  1  0  0  0  0
 66 67  1  0  0  0  0
M  CHG  1  76   1
M  ISO  4  40 100  62 101  75 100  85 101
M  END
> <Batch ID>
0074

> <Smiles>
CNC(C)C(=O)NC(C(=O)N1Cc2cc([101O:1][101CH2:1]C3(C)CC(=O)N(c4ccc([100N:0](C)[100C:0](=O)N5CCCC(n6nc(-c7ccc(Oc8ccc(F)cc8F)cc7)c(C(N)=O)c6N)C5)cc4)C3=O)ccc2CC1C(=O)NC1CCCc2ccccc21)C(C)(C)C

> <Shape>
0.188

> <Color>
0.052

> <Negative vol penalty>
0.000

$$$$

  -OEChem-04042323443D

 85 94  0     1  0  0  0  0  0999 V2000
  -27.8722  -37.3033   25.6935 C   0  0  0  0  0  0  0  0  0  0  0  0
  -28.4229  -36.4826   24.7144 C   0  0  0  0  0  0  0  0  0  0  0  0
  -24.3997   -8.6740   21.4370 C   0  0  0  0  0  0  0  0  0  0  0  0
  -24.3775  -10.2339   23.2817 C   0  0  0  0  0  0  0  0  0  0  0  0
  -26.8652  -36.8152   26.5251 C   0  0  0  0  0  0  0  0  0  0  0  0
  -27.9674  -35.1729   24.5670 C   0  0  0  0  0  0  0  0  0  0  0  0
  -26.8848  -30.1693   19.5562 C   0  0  0  0  0  0  0  0  0  0  0  0
  -29.4467  -20.2794   20.0223 C   0  0  0  0  0  0  0  0  0  0  0  0
  -29.4791  -18.8998   19.8193 C   0  0  0  0  0  0  0  0  0  0  0  0
  -24.0292   -7.6450   22.3026 C   0  0  0  0  0  0  0  0  0  0  0  0
  -24.0069   -9.2049   24.1474 C   0  0  0  0  0  0  0  0  0  0  0  0
  -27.1928  -28.8380   19.2792 C   0  0  0  0  0  0  0  0  0  0  0  0
  -21.2018   -6.5386   23.7908 C   0  0  0  0  0  0  0  0  0  0  0  0
  -20.1943   -5.6699   23.3714 C   0  0  0  0  0  0  0  0  0  0  0  0
  -25.3933  -28.1281   20.7204 C   0  0  0  0  0  0  0  0  0  0  0  0
  -27.0362  -20.2464   19.8620 C   0  0  0  0  0  0  0  0  0  0  0  0
  -21.7268   -3.8100   23.5421 C   0  0  0  0  0  0  0  0  0  0  0  0
  -24.5739   -9.9685   21.9265 C   0  0  0  0  0  0  0  0  0  0  0  0
  -24.1018  -11.8805   20.3052 C   0  0  0  0  0  0  0  0  0  0  0  0
  -26.3904  -35.5019   26.3815 C   0  0  0  0  0  0  0  0  0  0  0  0
  -25.8339  -30.4903   20.4274 C   0  0  0  0  0  0  0  0  0  0  0  0
  -26.9540  -34.6663   25.3984 C   0  0  0  0  0  0  0  0  0  0  0  0
  -25.0723  -29.4642   21.0048 C   0  0  0  0  0  0  0  0  0  0  0  0
  -28.2252  -20.9527   20.0437 C   0  0  0  0  0  0  0  0  0  0  0  0
  -28.2901  -18.1935   19.6376 C   0  0  0  0  0  0  0  0  0  0  0  0
  -23.8327   -7.9104   23.6578 C   0  0  0  0  0  0  0  0  0  0  0  0
  -26.4489  -27.8172   19.8636 C   0  0  0  0  0  0  0  0  0  0  0  0
  -22.4719   -6.0430   24.0858 C   0  0  0  0  0  0  0  0  0  0  0  0
  -20.4568   -4.3056   23.2471 C   0  0  0  0  0  0  0  0  0  0  0  0
  -27.0687  -18.8667   19.6589 C   0  0  0  0  0  0  0  0  0  0  0  0
  -22.7344   -4.6787   23.9614 C   0  0  0  0  0  0  0  0  0  0  0  0
  -24.9573  -11.0318   21.0329 C   0  0  0  0  0  0  0  0  0  0  0  0
  -24.9492  -12.7115   19.6139 C   0  0  0  0  0  0  0  0  0  0  0  0
  -27.0872  -23.1300   20.2948 C   0  0  0  0  0  0  0  0  0  0  0  0
  -27.4067  -24.4140   20.5065 C   0  0  0  0  0  0  0  0  0  0  0  0
  -28.8545  -24.5114   20.6140 C   0  0  0  0  0  0  0  0  0  0  0  0
  -29.5848  -25.6110   20.8247 C   0  0  0  0  0  0  0  0  0  0  0  0
  -22.6692  -11.9148   20.2583 C   0  0  0  0  0  0  0  0  0  0  0  0
  -25.6126  -32.0065   23.2124 C   0  0  0  0  0  0  0  0  0  0  0  0
  -22.4284  -31.6305   22.7209 C   0  0  0  0  0  0  0  0  0  0  0  0
  -19.9168  -29.8867   21.2049 C   0  0  0  0  0  0  0  0  0  0  0  0
  -29.4550  -15.9745   19.3819 C   0  0  0  0  0  0  0  0  0  0  0  0
  -25.3333  -35.0038   27.3349 C   0  0  0  0  0  0  0  0  0  0  0  0
  -25.4973  -31.9316   20.6950 C   0  0  0  0  0  0  0  0  0  0  0  0
  -23.9212  -29.7562   21.9311 C   0  0  0  0  0  0  0  0  0  0  0  0
  -29.4163  -23.1097   20.4411 C   0  0  0  0  0  0  0  0  0  0  0  0
  -24.6455  -33.7238   26.8671 C   0  0  0  0  0  0  0  0  0  0  0  0
  -29.9594  -12.4788   18.9316 C   0  0  0  0  0  0  0  0  0  0  0  0
  -25.6775  -32.7077   26.3882 C   0  0  0  0  0  0  0  0  0  0  0  0
  -28.6327  -11.8605   19.3783 C   0  0  0  0  0  0  0  0  0  0  0  0
  -30.3382  -13.6872   19.7860 C   0  0  0  0  0  0  0  0  0  0  0  0
  -27.9741  -14.1027   20.3404 C   0  0  0  0  0  0  0  0  0  0  0  0
  -26.4693  -33.2478   25.1912 C   0  0  1  0  0  0  0  0  0  0  0  0
  -24.7340  -32.1346   22.0002 C   0  0  1  0  0  0  0  0  0  0  0  0
  -27.5184  -12.9216   19.4681 C   0  0  2  0  0  0  0  0  0  0  0  0
  -17.4157  -29.7908   21.0242 C   0  0  0  0  0  0  0  0  0  0  0  0
  -22.2803  -30.3466   25.4849 C   0  0  0  0  0  0  0  0  0  0  0  0
  -20.0316  -29.4369   24.8653 C   0  0  0  0  0  0  0  0  0  0  0  0
  -20.3958  -31.9031   24.9553 C   0  0  0  0  0  0  0  0  0  0  0  0
  -19.9920  -30.3927   18.2899 C   0  0  0  0  0  0  0  0  0  0  0  0
  -26.4717  -25.5624   20.6196 C   0  0  0  0  0  0  0  0  0  1  0  0
  -21.4118  -30.5684   23.0636 C   0  0  1  0  0  0  0  0  0  0  0  0
  -18.6982  -30.3477   20.4260 C   0  0  2  0  0  0  0  0  0  0  0  0
  -21.0527  -30.5579   24.5764 C   0  0  0  0  0  0  0  0  0  0  0  0
  -26.2491  -11.2989   20.8233 N   0  0  0  0  0  0  0  0  0  0  0  0
  -26.2116  -12.3248   19.9560 N   0  0  0  0  0  0  0  0  0  0  0  0
  -28.1934  -22.3096   20.2440 N   0  0  0  0  0  0  0  0  0  0  0  0
  -23.6352  -31.1811   22.1666 N   0  0  0  0  0  0  0  0  0  0  0  0
  -29.2367  -14.6516   19.8215 N   0  0  0  0  0  0  0  0  0  0  0  0
  -24.7303  -13.7278   18.7528 N   0  0  0  0  0  0  0  0  0  0  0  0
  -21.9531  -10.9901   21.0306 N   0  0  0  0  0  0  0  0  0  0  0  0
  -28.3265  -16.7921   19.4311 N   0  0  0  0  0  0  0  0  0  0  0  0
  -25.6823  -33.1531   23.9804 N   0  0  0  0  0  0  0  0  0  0  0  0
  -20.2725  -30.7937   22.1807 N   0  0  0  0  0  0  0  0  0  0  0  0
  -18.7892  -29.8982   19.0080 N   0  3  0  0  0  0  0  0  0  0  0  0
  -22.0429  -12.7303   19.5398 O   0  0  0  0  0  0  0  0  0  0  0  0
  -26.1837  -30.9454   23.4352 O   0  0  0  0  0  0  0  0  0  0  0  0
  -22.1586  -32.8158   22.9304 O   0  0  0  0  0  0  0  0  0  0  0  0
  -20.4932  -28.8261   20.9736 O   0  0  0  0  0  0  0  0  0  0  0  0
  -30.5549  -16.3465   18.9649 O   0  0  0  0  0  0  0  0  0  0  0  0
  -23.4709   -6.9065   24.5028 O   0  0  0  0  0  0  0  0  0  0  0  0
  -26.7478  -26.5169   19.5954 O   0  0  0  0  0  0  0  0  0  1  0  0
  -19.4887   -3.4713   22.8458 F   0  0  0  0  0  0  0  0  0  0  0  0
  -25.9198  -18.1979   19.4850 F   0  0  0  0  0  0  0  0  0  0  0  0
  -23.9522   -4.1965   24.2445 F   0  0  0  0  0  0  0  0  0  0  0  0
  1  2  1  0  0  0  0
  1  5  2  0  0  0  0
  2  6  2  0  0  0  0
  3 10  2  0  0  0  0
  3 18  1  0  0  0  0
  4 11  1  0  0  0  0
  4 18  2  0  0  0  0
  5 20  1  0  0  0  0
  6 22  1  0  0  0  0
  7 12  2  0  0  0  0
  7 21  1  0  0  0  0
  8  9  2  0  0  0  0
  8 24  1  0  0  0  0
  9 25  1  0  0  0  0
 10 26  1  0  0  0  0
 11 26  2  0  0  0  0
 12 27  1  0  0  0  0
 13 14  2  0  0  0  0
 13 28  1  0  0  0  0
 14 29  1  0  0  0  0
 15 23  1  0  0  0  0
 15 27  2  0  0  0  0
 16 24  2  0  0  0  0
 16 30  1  0  0  0  0
 17 29  2  0  0  0  0
 17 31  1  0  0  0  0
 18 32  1  0  0  0  0
 19 32  1  0  0  0  0
 19 33  2  0  0  0  0
 19 38  1  0  0  0  0
 20 22  2  0  0  0  0
 20 43  1  0  0  0  0
 21 23  2  0  0  0  0
 21 44  1  0  0  0  0
 22 53  1  0  0  0  0
 23 45  1  0  0  0  0
 24 67  1  0  0  0  0
 25 30  2  0  0  0  0
 25 72  1  0  0  0  0
 26 81  1  0  0  0  0
 27 82  1  0  0  0  0
 28 31  2  0  0  0  0
 28 81  1  0  0  0  0
 29 83  1  0  0  0  0
 30 84  1  0  0  0  0
 31 85  1  0  0  0  0
 32 65  2  0  0  0  0
 33 66  1  0  0  0  0
 33 70  1  0  0  0  0
 34 35  2  0  0  0  0
 34 67  1  0  0  0  0
 35 36  1  0  0  0  0
 35 61  1  0  0  0  0
 36 37  2  0  0  0  0
 36 46  1  0  0  0  0
 38 71  1  0  0  0  0
 38 76  2  0  0  0  0
 39 54  1  0  0  0  0
 39 73  1  0  0  0  0
 39 77  2  0  0  0  0
 40 62  1  0  0  0  0
 40 68  1  0  0  0  0
 40 78  2  0  0  0  0
 41 63  1  0  0  0  0
 41 74  1  0  0  0  0
 41 79  2  0  0  0  0
 42 69  1  0  0  0  0
 42 72  1  0  0  0  0
 42 80  2  0  0  0  0
 43 47  1  0  0  0  0
 44 54  1  0  0  0  0
 45 68  1  0  0  0  0
 46 67  1  0  0  0  0
 47 49  1  0  0  0  0
 48 50  1  0  0  0  0
 48 51  1  0  0  0  0
 49 53  1  0  0  0  0
 50 55  1  0  0  0  0
 51 69  1  0  0  0  0
 52 55  1  0  0  0  0
 52 69  1  0  0  0  0
 53 73  1  0  0  0  0
 54 68  1  0  0  0  0
 55 66  1  0  0  0  0
 56 63  1  0  0  0  0
 57 64  1  0  0  0  0
 58 64  1  0  0  0  0
 59 64  1  0  0  0  0
 60 75  1  0  0  0  0
 61 82  1  0  0  0  0
 62 64  1  0  0  0  0
 62 74  1  0  0  0  0
 63 75  1  0  0  0  0
 65 66  1  0  0  0  0
M  CHG  1  75   1
M  ISO  4  42 100  61 101  72 100  82 101
M  END
> <Batch ID>
0074

> <Smiles>
C=C1CN(c2ccc([100NH:0][100C:0](=O)N3CCCC(n4nc(-c5ccc(Oc6ccc(F)cc6F)cc5)c(C(N)=O)c4N)C3)c(F)c2)C=C1[101CH2:1][101O:1]c1ccc2c(c1)CN(C(=O)C(NC(=O)C(C)NC)C(C)(C)C)C(C(=O)NC1CCCc3ccccc31)C2

> <Shape>
0.328

> <Color>
0.094

> <Negative vol penalty>
0.000

$$$$

  -OEChem-04042323443D

 86 95  0     1  0  0  0  0  0999 V2000
  -17.1314  -33.5558   20.6442 C   0  0  0  0  0  0  0  0  0  0  0  0
  -17.8373  -32.5852   19.9407 C   0  0  0  0  0  0  0  0  0  0  0  0
  -24.5311   -8.6367   20.8221 C   0  0  0  0  0  0  0  0  0  0  0  0
  -22.8052  -10.3250   20.7325 C   0  0  0  0  0  0  0  0  0  0  0  0
  -17.7702  -34.2994   21.6356 C   0  0  0  0  0  0  0  0  0  0  0  0
  -19.1829  -32.3583   20.2275 C   0  0  0  0  0  0  0  0  0  0  0  0
  -22.1328  -26.9945   20.0430 C   0  0  0  0  0  0  0  0  0  0  0  0
  -23.5722   -7.6731   21.1343 C   0  0  0  0  0  0  0  0  0  0  0  0
  -21.8463   -9.3614   21.0447 C   0  0  0  0  0  0  0  0  0  0  0  0
  -22.9510  -26.4067   19.0793 C   0  0  0  0  0  0  0  0  0  0  0  0
  -21.8343   -6.6801   23.8579 C   0  0  0  0  0  0  0  0  0  0  0  0
  -22.1272   -5.7850   24.8868 C   0  0  0  0  0  0  0  0  0  0  0  0
  -24.8989  -27.2313   20.2389 C   0  0  0  0  0  0  0  0  0  0  0  0
  -27.8733  -19.6738   20.9333 C   0  0  0  0  0  0  0  0  0  0  0  0
  -27.0893  -20.0526   18.2829 C   0  0  0  0  0  0  0  0  0  0  0  0
  -21.9192   -3.9400   23.3408 C   0  0  0  0  0  0  0  0  0  0  0  0
  -24.1476   -9.9627   20.6212 C   0  0  0  0  0  0  0  0  0  0  0  0
  -25.5756  -11.3386   19.0164 C   0  0  0  0  0  0  0  0  0  0  0  0
  -19.1218  -34.0748   21.9414 C   0  0  0  0  0  0  0  0  0  0  0  0
  -22.6921  -27.7156   21.1077 C   0  0  0  0  0  0  0  0  0  0  0  0
  -19.8408  -33.1004   21.2230 C   0  0  0  0  0  0  0  0  0  0  0  0
  -24.0857  -27.8251   21.2162 C   0  0  0  0  0  0  0  0  0  0  0  0
  -27.6978  -20.9650   20.4357 C   0  0  0  0  0  0  0  0  0  0  0  0
  -27.3058  -21.1544   19.1105 C   0  0  0  0  0  0  0  0  0  0  0  0
  -27.6568  -18.5720   20.1057 C   0  0  0  0  0  0  0  0  0  0  0  0
  -22.2298   -8.0354   21.2456 C   0  0  0  0  0  0  0  0  0  0  0  0
  -24.3342  -26.5274   19.1755 C   0  0  0  0  0  0  0  0  0  0  0  0
  -21.5837   -6.2052   22.5705 C   0  0  0  0  0  0  0  0  0  0  0  0
  -22.1697   -4.4150   24.6282 C   0  0  0  0  0  0  0  0  0  0  0  0
  -27.2648  -18.7614   18.7806 C   0  0  0  0  0  0  0  0  0  0  0  0
  -21.6262   -4.8352   22.3120 C   0  0  0  0  0  0  0  0  0  0  0  0
  -25.1377  -10.9588   20.2993 C   0  0  0  0  0  0  0  0  0  0  0  0
  -26.5154  -12.3128   19.2488 C   0  0  0  0  0  0  0  0  0  0  0  0
  -27.9720  -23.4753   18.4642 C   0  0  0  0  0  0  0  0  0  0  0  0
  -25.1691  -10.8540   17.7296 C   0  0  0  0  0  0  0  0  0  0  0  0
  -22.5361  -30.7307   22.1019 C   0  0  0  0  0  0  0  0  0  0  0  0
  -24.2443  -29.5830   24.6093 C   0  0  0  0  0  0  0  0  0  0  0  0
  -26.3654  -27.2001   25.8217 C   0  0  0  0  0  0  0  0  0  0  0  0
  -28.2220  -16.9001   21.9035 C   0  0  0  0  0  0  0  0  0  0  0  0
  -19.7819  -34.9361   22.9888 C   0  0  0  0  0  0  0  0  0  0  0  0
  -21.7967  -28.3211   22.1537 C   0  0  0  0  0  0  0  0  0  0  0  0
  -24.7366  -28.5715   22.3510 C   0  0  0  0  0  0  0  0  0  0  0  0
  -21.1104  -34.3753   23.4896 C   0  0  0  0  0  0  0  0  0  0  0  0
  -28.7378  -13.7863   23.5513 C   0  0  0  0  0  0  0  0  0  0  0  0
  -21.9772  -33.9281   22.3168 C   0  0  0  0  0  0  0  0  0  0  0  0
  -27.8832  -12.8044   22.7466 C   0  0  0  0  0  0  0  0  0  0  0  0
  -28.0709  -15.1559   23.6669 C   0  0  0  0  0  0  0  0  0  0  0  0
  -26.8078  -14.7752   21.5863 C   0  0  0  0  0  0  0  0  0  0  0  0
  -25.9532  -23.0631   18.0247 C   0  0  0  0  0  0  0  0  0  0  0  0
  -21.2951  -32.8079   21.5223 C   0  0  1  0  0  0  0  0  0  0  0  0
  -22.4558  -29.4684   22.9130 C   0  0  1  0  0  0  0  0  0  0  0  0
  -27.4681  -13.4011   21.3875 C   0  0  2  0  0  0  0  0  0  0  0  0
  -26.8395  -24.3290   17.8243 C   0  0  2  0  0  0  0  0  0  0  0  0
  -27.9369  -22.1269   21.3445 C   0  0  0  0  0  0  0  0  0  0  0  0
  -27.0958  -24.7016   16.3682 C   0  0  0  0  0  0  0  0  0  0  0  0
  -27.6175  -26.5491   27.8967 C   0  0  0  0  0  0  0  0  0  0  0  0
  -26.2847  -31.7857   24.0664 C   0  0  0  0  0  0  0  0  0  0  0  0
  -27.9135  -30.5335   25.4971 C   0  0  0  0  0  0  0  0  0  0  0  0
  -25.7916  -31.3940   26.4867 C   0  0  0  0  0  0  0  0  0  0  0  0
  -24.9319  -24.6183   26.0164 C   0  0  0  0  0  0  0  0  0  0  0  0
  -26.4287  -25.5265   18.6590 C   0  0  0  0  0  0  0  0  0  1  0  0
  -25.7132  -29.4152   24.9150 C   0  0  1  0  0  0  0  0  0  0  0  0
  -26.3343  -26.3793   27.0983 C   0  0  2  0  0  0  0  0  0  0  0  0
  -26.4137  -30.7696   25.2187 C   0  0  0  0  0  0  0  0  0  0  0  0
  -25.7493  -11.6364   21.2744 N   0  0  0  0  0  0  0  0  0  0  0  0
  -26.5811  -12.4517   20.6040 N   0  0  0  0  0  0  0  0  0  0  0  0
  -27.1284  -22.4195   18.6010 N   0  0  0  0  0  0  0  0  0  0  0  0
  -23.8184  -29.1512   23.3452 N   0  0  0  0  0  0  0  0  0  0  0  0
  -27.7094  -15.6603   22.3404 N   0  0  0  0  0  0  0  0  0  0  0  0
  -27.2839  -13.0556   18.4241 N   0  0  0  0  0  0  0  0  0  0  0  0
  -24.1919   -9.8510   17.6716 N   0  0  0  0  0  0  0  0  0  0  0  0
  -27.8359  -17.2611   20.6130 N   0  0  0  0  0  0  0  0  0  0  0  0
  -21.4253  -31.5446   22.2163 N   0  0  0  0  0  0  0  0  0  0  0  0
  -25.7960  -28.4432   25.9997 N   0  0  0  0  0  0  0  0  0  0  0  0
  -26.1665  -24.9331   26.7803 N   0  3  0  0  0  0  0  0  0  0  0  0
  -29.1377  -23.6395   18.7445 O   0  0  0  0  0  0  0  0  0  0  0  0
  -25.6697  -11.2859   16.6636 O   0  0  0  0  0  0  0  0  0  0  0  0
  -23.5328  -30.9507   21.4238 O   0  0  0  0  0  0  0  0  0  0  0  0
  -23.5009  -30.0723   25.4634 O   0  0  0  0  0  0  0  0  0  0  0  0
  -26.8500  -26.7818   24.7725 O   0  0  0  0  0  0  0  0  0  0  0  0
  -28.9719  -17.5779   22.6108 O   0  0  0  0  0  0  0  0  0  0  0  0
  -21.2938   -7.0952   21.5500 O   0  0  0  0  0  0  0  0  0  0  0  0
  -25.1351  -25.9552   18.2359 O   0  0  0  0  0  0  0  0  0  1  0  0
  -22.4525   -3.5556   25.6160 F   0  0  0  0  0  0  0  0  0  0  0  0
  -27.0534  -17.7092   17.9771 F   0  0  0  0  0  0  0  0  0  0  0  0
  -21.3876   -4.3731   21.0769 F   0  0  0  0  0  0  0  0  0  0  0  0
  1  2  1  0  0  0  0
  1  5  2  0  0  0  0
  2  6  2  0  0  0  0
  3  8  2  0  0  0  0
  3 17  1  0  0  0  0
  4  9  1  0  0  0  0
  4 17  2  0  0  0  0
  5 19  1  0  0  0  0
  6 21  1  0  0  0  0
  7 10  2  0  0  0  0
  7 20  1  0  0  0  0
  8 26  1  0  0  0  0
  9 26  2  0  0  0  0
 10 27  1  0  0  0  0
 11 12  2  0  0  0  0
 11 28  1  0  0  0  0
 12 29  1  0  0  0  0
 13 22  1  0  0  0  0
 13 27  2  0  0  0  0
 14 23  1  0  0  0  0
 14 25  2  0  0  0  0
 15 24  1  0  0  0  0
 15 30  2  0  0  0  0
 16 29  2  0  0  0  0
 16 31  1  0  0  0  0
 17 32  1  0  0  0  0
 18 32  1  0  0  0  0
 18 33  2  0  0  0  0
 18 35  1  0  0  0  0
 19 21  2  0  0  0  0
 19 40  1  0  0  0  0
 20 22  2  0  0  0  0
 20 41  1  0  0  0  0
 21 50  1  0  0  0  0
 22 42  1  0  0  0  0
 23 24  2  0  0  0  0
 23 54  1  0  0  0  0
 24 67  1  0  0  0  0
 25 30  1  0  0  0  0
 25 72  1  0  0  0  0
 26 82  1  0  0  0  0
 27 83  1  0  0  0  0
 28 31  2  0  0  0  0
 28 82  1  0  0  0  0
 29 84  1  0  0  0  0
 30 85  1  0  0  0  0
 31 86  1  0  0  0  0
 32 65  2  0  0  0  0
 33 66  1  0  0  0  0
 33 70  1  0  0  0  0
 34 53  1  0  0  0  0
 34 67  1  0  0  0  0
 34 76  2  0  0  0  0
 35 71  1  0  0  0  0
 35 77  2  0  0  0  0
 36 51  1  0  0  0  0
 36 73  1  0  0  0  0
 36 78  2  0  0  0  0
 37 62  1  0  0  0  0
 37 68  1  0  0  0  0
 37 79  2  0  0  0  0
 38 63  1  0  0  0  0
 38 74  1  0  0  0  0
 38 80  2  0  0  0  0
 39 69  1  0  0  0  0
 39 72  1  0  0  0  0
 39 81  2  0  0  0  0
 40 43  1  0  0  0  0
 41 51  1  0  0  0  0
 42 68  1  0  0  0  0
 43 45  1  0  0  0  0
 44 46  1  0  0  0  0
 44 47  1  0  0  0  0
 45 50  1  0  0  0  0
 46 52  1  0  0  0  0
 47 69  1  0  0  0  0
 48 52  1  0  0  0  0
 48 69  1  0  0  0  0
 49 53  1  0  0  0  0
 49 67  1  0  0  0  0
 50 73  1  0  0  0  0
 51 68  1  0  0  0  0
 52 66  1  0  0  0  0
 53 55  1  0  0  0  0
 53 61  1  0  0  0  0
 56 63  1  0  0  0  0
 57 64  1  0  0  0  0
 58 64  1  0  0  0  0
 59 64  1  0  0  0  0
 60 75  1  0  0  0  0
 61 83  1  0  0  0  0
 62 64  1  0  0  0  0
 62 74  1  0  0  0  0
 63 75  1  0  0  0  0
 65 66  1  0  0  0  0
M  CHG  1  75   1
M  ISO  4  39 100  61 101  72 100  83 101
M  END
> <Batch ID>
0074

> <Smiles>
CNC(C)C(=O)NC(C(=O)N1Cc2cc([101O:1][101CH2:1]C3(C)CN(c4cc(F)c([100NH:0][100C:0](=O)N5CCCC(n6nc(-c7ccc(Oc8ccc(F)cc8F)cc7)c(C(N)=O)c6N)C5)cc4C)C3=O)ccc2CC1C(=O)NC1CCCc2ccccc21)C(C)(C)C

> <Shape>
0.239

> <Color>
0.098

> <Negative vol penalty>
0.000

$$$$

  -OEChem-04042323443D

 89 98  0     1  0  0  0  0  0999 V2000
  -22.9040  -23.7917   23.3809 C   0  0  0  0  0  0  0  0  0  0  0  0
  -23.9177  -22.8527   23.2186 C   0  0  0  0  0  0  0  0  0  0  0  0
  -23.0077  -30.4482   20.2718 C   0  0  0  0  0  0  0  0  0  0  0  0
  -23.3988  -29.0171   22.1786 C   0  0  0  0  0  0  0  0  0  0  0  0
  -21.6843  -23.4098   23.9380 C   0  0  0  0  0  0  0  0  0  0  0  0
  -23.7125  -21.5315   23.6144 C   0  0  0  0  0  0  0  0  0  0  0  0
  -25.3560  -18.1962   20.1764 C   0  0  0  0  0  0  0  0  0  0  0  0
  -30.5952  -21.9529   20.6943 C   0  0  0  0  0  0  0  0  0  0  0  0
  -30.5711  -20.6160   21.0913 C   0  0  0  0  0  0  0  0  0  0  0  0
  -21.8091  -30.8787   20.8407 C   0  0  0  0  0  0  0  0  0  0  0  0
  -22.2002  -29.4476   22.7476 C   0  0  0  0  0  0  0  0  0  0  0  0
  -26.7290  -17.9598   20.1243 C   0  0  0  0  0  0  0  0  0  0  0  0
  -18.8995  -28.8132   22.3819 C   0  0  0  0  0  0  0  0  0  0  0  0
  -18.0595  -27.8456   22.9331 C   0  0  0  0  0  0  0  0  0  0  0  0
  -26.4227  -15.9351   21.3994 C   0  0  0  0  0  0  0  0  0  0  0  0
  -31.6406  -21.3157   18.6115 C   0  0  0  0  0  0  0  0  0  0  0  0
  -18.2256  -28.9282   25.0866 C   0  0  0  0  0  0  0  0  0  0  0  0
  -23.8025  -29.5174   20.9407 C   0  0  0  0  0  0  0  0  0  0  0  0
  -26.3156  -29.6441   20.5215 C   0  0  0  0  0  0  0  0  0  0  0  0
  -21.4607  -22.0811   24.3319 C   0  0  0  0  0  0  0  0  0  0  0  0
  -24.5060  -17.3080   20.8509 C   0  0  0  0  0  0  0  0  0  0  0  0
  -22.4891  -21.1318   24.1785 C   0  0  0  0  0  0  0  0  0  0  0  0
  -25.0390  -16.1611   21.4564 C   0  0  0  0  0  0  0  0  0  0  0  0
  -31.1299  -22.3028   19.4544 C   0  0  0  0  0  0  0  0  0  0  0  0
  -31.0818  -19.6289   20.2484 C   0  0  0  0  0  0  0  0  0  0  0  0
  -21.4053  -30.3784   22.0786 C   0  0  0  0  0  0  0  0  0  0  0  0
  -27.2630  -16.8306   20.7383 C   0  0  0  0  0  0  0  0  0  0  0  0
  -19.4027  -29.8382   23.1830 C   0  0  0  0  0  0  0  0  0  0  0  0
  -17.7225  -27.9032   24.2854 C   0  0  0  0  0  0  0  0  0  0  0  0
  -31.6166  -19.9788   19.0085 C   0  0  0  0  0  0  0  0  0  0  0  0
  -19.0657  -29.8957   24.5354 C   0  0  0  0  0  0  0  0  0  0  0  0
  -25.0405  -29.0719   20.3533 C   0  0  0  0  0  0  0  0  0  0  0  0
  -27.1475  -28.8582   19.7620 C   0  0  0  0  0  0  0  0  0  0  0  0
  -31.3937  -16.0143   20.6866 C   0  0  0  0  0  0  0  0  0  0  0  0
  -26.7127  -30.7841   21.2951 C   0  0  0  0  0  0  0  0  0  0  0  0
  -22.5578  -17.5309   23.3526 C   0  0  0  0  0  0  0  0  0  0  0  0
  -21.7539  -14.5053   22.5029 C   0  0  0  0  0  0  0  0  0  0  0  0
  -22.6287  -11.6114   20.9196 C   0  0  0  0  0  0  0  0  0  0  0  0
  -28.8766  -23.8349   18.0527 C   0  0  0  0  0  0  0  0  0  0  0  0
  -20.1424  -21.7260   24.9728 C   0  0  0  0  0  0  0  0  0  0  0  0
  -23.0239  -17.5633   20.8752 C   0  0  0  0  0  0  0  0  0  0  0  0
  -24.1668  -15.1661   22.1758 C   0  0  0  0  0  0  0  0  0  0  0  0
  -31.5733  -17.2262   19.8125 C   0  0  0  0  0  0  0  0  0  0  0  0
  -19.8735  -20.2241   25.0209 C   0  0  0  0  0  0  0  0  0  0  0  0
  -26.0863  -25.2639   16.3649 C   0  0  0  0  0  0  0  0  0  0  0  0
  -21.1066  -19.4767   25.5184 C   0  0  0  0  0  0  0  0  0  0  0  0
  -25.6672  -26.4246   17.2688 C   0  0  0  0  0  0  0  0  0  0  0  0
  -26.5713  -24.0640   17.1754 C   0  0  0  0  0  0  0  0  0  0  0  0
  -27.2202  -25.5248   19.0513 C   0  0  0  0  0  0  0  0  0  0  0  0
  -30.7528  -17.8741   22.0094 C   0  0  0  0  0  0  0  0  0  0  0  0
  -22.2959  -19.6835   24.5727 C   0  0  1  0  0  0  0  0  0  0  0  0
  -22.3154  -16.8612   22.0296 C   0  0  1  0  0  0  0  0  0  0  0  0
  -26.7763  -26.7782   18.2778 C   0  0  2  0  0  0  0  0  0  0  0  0
  -30.6339  -16.3385   21.9570 C   0  0  2  0  0  0  0  0  0  0  0  0
  -31.2762  -15.6784   23.1726 C   0  0  0  0  0  0  0  0  0  0  0  0
  -21.7807   -9.3015   20.4270 C   0  0  0  0  0  0  0  0  0  0  0  0
  -31.7745  -24.0102   17.6274 C   0  0  0  0  0  0  0  0  0  0  0  0
  -31.9683  -24.5878   20.0432 C   0  0  0  0  0  0  0  0  0  0  0  0
  -22.3727  -13.6690   25.3712 C   0  0  0  0  0  0  0  0  0  0  0  0
  -22.4362  -11.2911   24.5903 C   0  0  0  0  0  0  0  0  0  0  0  0
  -20.3284  -12.6106   24.3940 C   0  0  0  0  0  0  0  0  0  0  0  0
  -22.7125  -12.0781   17.9983 C   0  0  0  0  0  0  0  0  0  0  0  0
  -29.1801  -15.8931   21.7879 C   0  0  0  0  0  0  0  0  0  1  0  0
  -22.2623  -13.1268   22.8494 C   0  0  1  0  0  0  0  0  0  0  0  0
  -21.8774  -10.7364   19.9325 C   0  0  2  0  0  0  0  0  0  0  0  0
  -31.1555  -23.7322   19.0300 C   0  0  0  0  0  0  0  0  0  0  0  0
  -21.8669  -12.6939   24.2894 C   0  0  0  0  0  0  0  0  0  0  0  0
  -25.0560  -28.0049   19.5499 N   0  0  0  0  0  0  0  0  0  0  0  0
  -26.3511  -27.9005   19.2065 N   0  0  0  0  0  0  0  0  0  0  0  0
  -31.0568  -18.3034   20.6444 N   0  0  3  0  0  0  0  0  0  0  0  0
  -22.7248  -15.4631   22.1774 N   0  0  0  0  0  0  0  0  0  0  0  0
  -27.6234  -24.4667   18.1118 N   0  0  0  0  0  0  0  0  0  0  0  0
  -28.4753  -28.8999   19.5219 N   0  0  0  0  0  0  0  0  0  0  0  0
  -25.7307  -31.4773   22.0159 N   0  0  0  0  0  0  0  0  0  0  0  0
  -22.1566  -18.8525   23.3961 N   0  0  0  0  0  0  0  0  0  0  0  0
  -21.7733  -12.2363   21.8023 N   0  0  0  0  0  0  0  0  0  0  0  0
  -29.8189  -24.2807   18.9714 N   0  0  0  0  0  0  0  0  0  0  0  0
  -22.5690  -10.7331   18.6125 N   0  3  0  0  0  0  0  0  0  0  0  0
  -31.7821  -14.8952   20.3750 O   0  0  0  0  0  0  0  0  0  0  0  0
  -27.9003  -31.1862   21.3326 O   0  0  0  0  0  0  0  0  0  0  0  0
  -23.0694  -16.8952   24.2668 O   0  0  0  0  0  0  0  0  0  0  0  0
  -20.5397  -14.7225   22.5134 O   0  0  0  0  0  0  0  0  0  0  0  0
  -23.8524  -11.7259   20.9111 O   0  0  0  0  0  0  0  0  0  0  0  0
  -29.1381  -22.9435   17.2378 O   0  0  0  0  0  0  0  0  0  0  0  0
  -20.2359  -30.7984   22.6342 O   0  0  0  0  0  0  0  0  0  0  0  0
  -28.6028  -16.5978   20.6894 O   0  0  0  0  0  0  0  0  0  1  0  0
  -16.9145  -26.9749   24.8142 F   0  0  0  0  0  0  0  0  0  0  0  0
  -32.1100  -19.0382   18.1904 F   0  0  0  0  0  0  0  0  0  0  0  0
  -19.5451  -30.8787   25.3098 F   0  0  0  0  0  0  0  0  0  0  0  0
  1  2  1  0  0  0  0
  1  5  2  0  0  0  0
  2  6  2  0  0  0  0
  3 10  2  0  0  0  0
  3 18  1  0  0  0  0
  4 11  1  0  0  0  0
  4 18  2  0  0  0  0
  5 20  1  0  0  0  0
  6 22  1  0  0  0  0
  7 12  2  0  0  0  0
  7 21  1  0  0  0  0
  8  9  2  0  0  0  0
  8 24  1  0  0  0  0
  9 25  1  0  0  0  0
 10 26  1  0  0  0  0
 11 26  2  0  0  0  0
 12 27  1  0  0  0  0
 13 14  2  0  0  0  0
 13 28  1  0  0  0  0
 14 29  1  0  0  0  0
 15 23  1  0  0  0  0
 15 27  2  0  0  0  0
 16 24  2  0  0  0  0
 16 30  1  0  0  0  0
 17 29  2  0  0  0  0
 17 31  1  0  0  0  0
 18 32  1  0  0  0  0
 19 32  1  0  0  0  0
 19 33  2  0  0  0  0
 19 35  1  0  0  0  0
 20 22  2  0  0  0  0
 20 40  1  0  0  0  0
 21 23  2  0  0  0  0
 21 41  1  0  0  0  0
 22 51  1  0  0  0  0
 23 42  1  0  0  0  0
 24 66  1  0  0  0  0
 25 30  2  0  0  0  0
 25 70  1  0  0  0  0
 26 85  1  0  0  0  0
 27 86  1  0  0  0  0
 28 31  2  0  0  0  0
 28 85  1  0  0  0  0
 29 87  1  0  0  0  0
 30 88  1  0  0  0  0
 31 89  1  0  0  0  0
 32 68  2  0  0  0  0
 33 69  1  0  0  0  0
 33 73  1  0  0  0  0
 34 43  1  0  0  0  0
 34 54  1  0  0  0  0
 34 79  2  0  0  0  0
 35 74  1  0  0  0  0
 35 80  2  0  0  0  0
 36 52  1  0  0  0  0
 36 75  1  0  0  0  0
 36 81  2  0  0  0  0
 37 64  1  0  0  0  0
 37 71  1  0  0  0  0
 37 82  2  0  0  0  0
 38 65  1  0  0  0  0
 38 76  1  0  0  0  0
 38 83  2  0  0  0  0
 39 72  1  0  0  0  0
 39 77  1  0  0  0  0
 39 84  2  0  0  0  0
 40 44  1  0  0  0  0
 41 52  1  0  0  0  0
 42 71  1  0  0  0  0
 43 70  1  0  0  0  0
 44 46  1  0  0  0  0
 45 47  1  0  0  0  0
 45 48  1  0  0  0  0
 46 51  1  0  0  0  0
 47 53  1  0  0  0  0
 48 72  1  0  0  0  0
 49 53  1  0  0  0  0
 49 72  1  0  0  0  0
 50 54  1  0  0  0  0
 50 70  1  0  0  0  0
 51 75  1  0  0  0  0
 52 71  1  0  0  0  0
 53 69  1  0  0  0  0
 54 55  1  0  0  0  0
 54 63  1  0  0  0  0
 56 65  1  0  0  0  0
 57 66  1  0  0  0  0
 58 66  1  0  0  0  0
 59 67  1  0  0  0  0
 60 67  1  0  0  0  0
 61 67  1  0  0  0  0
 62 78  1  0  0  0  0
 63 86  1  0  0  0  0
 64 67  1  0  0  0  0
 64 76  1  0  0  0  0
 65 78  1  0  0  0  0
 66 77  1  0  0  0  0
 68 69  1  0  0  0  0
M  CHG  1  78   1
M  ISO  4  39 100  63 101  77 100  86 101
M  END
> <Batch ID>
0074

> <Smiles>
CNC(C)C(=O)NC(C(=O)N1Cc2cc([101O:1][101CH2:1]C3(C)CN(c4ccc(C(C)(C)[100NH:0][100C:0](=O)N5CCCC(n6nc(-c7ccc(Oc8ccc(F)cc8F)cc7)c(C(N)=O)c6N)C5)cc4F)CC3=O)ccc2CC1C(=O)NC1CCCc2ccccc21)C(C)(C)C

> <Shape>
0.230

> <Color>
0.052

> <Negative vol penalty>
0.000

$$$$

  -OEChem-04042323443D

 85 93  0     1  0  0  0  0  0999 V2000
  -18.3796  -32.7846   20.4460 C   0  0  0  0  0  0  0  0  0  0  0  0
  -19.7678  -32.7767   20.3544 C   0  0  0  0  0  0  0  0  0  0  0  0
  -26.7025  -12.5492   21.3573 C   0  0  0  0  0  0  0  0  0  0  0  0
  -25.8668  -13.8265   19.4846 C   0  0  0  0  0  0  0  0  0  0  0  0
  -30.0500  -24.2985   19.5337 C   0  0  0  0  0  0  0  0  0  0  0  0
  -17.7365  -31.9340   21.3442 C   0  0  0  0  0  0  0  0  0  0  0  0
  -20.5137  -31.9188   21.1619 C   0  0  0  0  0  0  0  0  0  0  0  0
  -25.7445  -29.0953   19.6875 C   0  0  0  0  0  0  0  0  0  0  0  0
  -30.1088  -22.9506   19.8875 C   0  0  0  0  0  0  0  0  0  0  0  0
  -25.4197  -12.0543   21.5922 C   0  0  0  0  0  0  0  0  0  0  0  0
  -24.5840  -13.3315   19.7194 C   0  0  0  0  0  0  0  0  0  0  0  0
  -27.0795  -29.3933   19.9571 C   0  0  0  0  0  0  0  0  0  0  0  0
  -23.3911   -9.6783   20.2990 C   0  0  0  0  0  0  0  0  0  0  0  0
  -23.2593   -8.3128   20.5512 C   0  0  0  0  0  0  0  0  0  0  0  0
  -27.0224  -27.9041   21.8540 C   0  0  0  0  0  0  0  0  0  0  0  0
  -31.9954  -23.4102   21.3251 C   0  0  0  0  0  0  0  0  0  0  0  0
  -22.3009   -8.8048   22.7137 C   0  0  0  0  0  0  0  0  0  0  0  0
  -26.9260  -13.4354   20.3036 C   0  0  0  0  0  0  0  0  0  0  0  0
  -30.9640  -25.2023   20.0755 C   0  0  0  0  0  0  0  0  0  0  0  0
  -29.2416  -13.3844   19.2344 C   0  0  0  0  0  0  0  0  0  0  0  0
  -18.4745  -31.0584   22.1562 C   0  0  0  0  0  0  0  0  0  0  0  0
  -25.0340  -28.2064   20.5070 C   0  0  0  0  0  0  0  0  0  0  0  0
  -19.8800  -31.0566   22.0728 C   0  0  0  0  0  0  0  0  0  0  0  0
  -25.6792  -27.5946   21.5912 C   0  0  0  0  0  0  0  0  0  0  0  0
  -31.0814  -22.5065   20.7832 C   0  0  0  0  0  0  0  0  0  0  0  0
  -24.3605  -12.4454   20.7732 C   0  0  0  0  0  0  0  0  0  0  0  0
  -27.7178  -28.7999   21.0422 C   0  0  0  0  0  0  0  0  0  0  0  0
  -22.9779  -10.6071   21.2542 C   0  0  0  0  0  0  0  0  0  0  0  0
  -22.7141   -7.8761   21.7585 C   0  0  0  0  0  0  0  0  0  0  0  0
  -31.9367  -24.7582   20.9712 C   0  0  0  0  0  0  0  0  0  0  0  0
  -22.4327  -10.1703   22.4615 C   0  0  0  0  0  0  0  0  0  0  0  0
  -28.2508  -13.9475   20.0608 C   0  0  0  0  0  0  0  0  0  0  0  0
  -30.3081  -14.2431   19.3431 C   0  0  0  0  0  0  0  0  0  0  0  0
  -30.8993  -26.6366   19.6935 C   0  0  0  0  0  0  0  0  0  0  0  0
  -29.2015  -12.1918   18.4395 C   0  0  0  0  0  0  0  0  0  0  0  0
  -22.4666  -28.4345   22.3671 C   0  0  0  0  0  0  0  0  0  0  0  0
  -22.8674  -25.2280   22.6500 C   0  0  0  0  0  0  0  0  0  0  0  0
  -24.9720  -22.5461   22.4913 C   0  0  0  0  0  0  0  0  0  0  0  0
  -30.3136  -20.1006   20.7016 C   0  0  0  0  0  0  0  0  0  0  0  0
  -17.7374  -30.1911   23.1458 C   0  0  0  0  0  0  0  0  0  0  0  0
  -23.6022  -27.8750   20.1869 C   0  0  0  0  0  0  0  0  0  0  0  0
  -24.9669  -26.6178   22.4895 C   0  0  0  0  0  0  0  0  0  0  0  0
  -18.5812  -29.0452   23.6982 C   0  0  0  0  0  0  0  0  0  0  0  0
  -31.6498  -17.2469   22.8914 C   0  0  0  0  0  0  0  0  0  0  0  0
  -19.9594  -29.5494   24.1143 C   0  0  0  0  0  0  0  0  0  0  0  0
  -31.5805  -16.1010   21.8847 C   0  0  0  0  0  0  0  0  0  0  0  0
  -31.7251  -18.6086   22.2123 C   0  0  0  0  0  0  0  0  0  0  0  0
  -29.8294  -17.6674   20.8795 C   0  0  0  0  0  0  0  0  0  0  0  0
  -20.7226  -30.1226   22.9141 C   0  0  1  0  0  0  0  0  0  0  0  0
  -22.8268  -27.3502   21.3913 C   0  0  1  0  0  0  0  0  0  0  0  0
  -30.7134  -16.4310   20.6536 C   0  0  2  0  0  0  0  0  0  0  0  0
  -25.0190  -20.0574   22.8103 C   0  0  0  0  0  0  0  0  0  0  0  0
  -22.8418  -25.6178   25.6761 C   0  0  0  0  0  0  0  0  0  0  0  0
  -23.8229  -23.3263   25.9096 C   0  0  0  0  0  0  0  0  0  0  0  0
  -21.5737  -23.6182   24.8710 C   0  0  0  0  0  0  0  0  0  0  0  0
  -31.8382  -29.6653   21.7001 C   0  0  0  0  0  0  0  0  0  0  0  0
  -32.1968  -29.3056   19.2452 C   0  0  0  0  0  0  0  0  0  0  0  0
  -25.7612  -22.0837   19.6767 C   0  0  0  0  0  0  0  0  0  0  0  0
  -29.8516  -29.4230   20.1969 C   0  0  0  0  0  0  0  0  0  1  0  0
  -23.6333  -24.3248   23.5862 C   0  0  1  0  0  0  0  0  0  0  0  0
  -24.8308  -21.1934   21.8169 C   0  0  2  0  0  0  0  0  0  0  0  0
  -22.9811  -24.2416   24.9951 C   0  0  0  0  0  0  0  0  0  0  0  0
  -31.3008  -28.9673   20.4436 C   0  0  0  0  0  0  0  0  0  0  0  0
  -28.6521  -15.0764   20.6511 N   0  0  0  0  0  0  0  0  0  0  0  0
  -29.9069  -15.2296   20.1951 N   0  0  0  0  0  0  0  0  0  0  0  0
  -23.5660  -26.3311   22.1391 N   0  0  0  0  0  0  0  0  0  0  0  0
  -30.6356  -18.8357   21.2517 N   0  0  0  0  0  0  0  0  0  0  0  0
  -31.5405  -14.2428   18.7921 N   0  0  0  0  0  0  0  0  0  0  0  0
  -28.0275  -11.4262   18.4421 N   0  0  0  0  0  0  0  0  0  0  0  0
  -31.1410  -21.1367   21.1427 N   0  0  0  0  0  0  0  0  0  0  0  0
  -31.3264  -27.5296   20.6569 N   0  0  0  0  0  0  0  0  0  0  0  0
  -21.2606  -29.0539   22.1000 N   0  0  0  0  0  0  0  0  0  0  0  0
  -23.7531  -23.0395   22.9064 N   0  0  0  0  0  0  0  0  0  0  0  0
  -25.8457  -21.0453   20.7357 N   0  3  0  0  0  0  0  0  0  0  0  0
  -30.4648  -26.9437   18.5865 O   0  0  0  0  0  0  0  0  0  0  0  0
  -30.1835  -11.8075   17.7602 O   0  0  0  0  0  0  0  0  0  0  0  0
  -23.2260  -28.6893   23.2946 O   0  0  0  0  0  0  0  0  0  0  0  0
  -21.6947  -24.9605   22.3762 O   0  0  0  0  0  0  0  0  0  0  0  0
  -26.0555  -23.1071   22.6387 O   0  0  0  0  0  0  0  0  0  0  0  0
  -29.3892  -20.2412   19.8982 O   0  0  0  0  0  0  0  0  0  0  0  0
  -23.1087  -11.9624   21.0020 O   0  0  0  0  0  0  0  0  0  0  0  0
  -29.0207  -29.0894   21.3080 O   0  0  0  0  0  0  0  0  0  1  0  0
  -22.5862   -6.5648   21.9999 F   0  0  0  0  0  0  0  0  0  0  0  0
  -32.8205  -25.6178   21.4978 F   0  0  0  0  0  0  0  0  0  0  0  0
  -22.0329  -11.0578   23.3825 F   0  0  0  0  0  0  0  0  0  0  0  0
  1  2  1  0  0  0  0
  1  6  2  0  0  0  0
  2  7  2  0  0  0  0
  3 10  2  0  0  0  0
  3 18  1  0  0  0  0
  4 11  1  0  0  0  0
  4 18  2  0  0  0  0
  5  9  2  0  0  0  0
  5 19  1  0  0  0  0
  6 21  1  0  0  0  0
  7 23  1  0  0  0  0
  8 12  2  0  0  0  0
  8 22  1  0  0  0  0
  9 25  1  0  0  0  0
 10 26  1  0  0  0  0
 11 26  2  0  0  0  0
 12 27  1  0  0  0  0
 13 14  2  0  0  0  0
 13 28  1  0  0  0  0
 14 29  1  0  0  0  0
 15 24  1  0  0  0  0
 15 27  2  0  0  0  0
 16 25  2  0  0  0  0
 16 30  1  0  0  0  0
 17 29  2  0  0  0  0
 17 31  1  0  0  0  0
 18 32  1  0  0  0  0
 19 30  2  0  0  0  0
 19 34  1  0  0  0  0
 20 32  1  0  0  0  0
 20 33  2  0  0  0  0
 20 35  1  0  0  0  0
 21 23  2  0  0  0  0
 21 40  1  0  0  0  0
 22 24  2  0  0  0  0
 22 41  1  0  0  0  0
 23 49  1  0  0  0  0
 24 42  1  0  0  0  0
 25 70  1  0  0  0  0
 26 81  1  0  0  0  0
 27 82  1  0  0  0  0
 28 31  2  0  0  0  0
 28 81  1  0  0  0  0
 29 83  1  0  0  0  0
 30 84  1  0  0  0  0
 31 85  1  0  0  0  0
 32 64  2  0  0  0  0
 33 65  1  0  0  0  0
 33 68  1  0  0  0  0
 34 71  1  0  0  0  0
 34 75  2  0  0  0  0
 35 69  1  0  0  0  0
 35 76  2  0  0  0  0
 36 50  1  0  0  0  0
 36 72  1  0  0  0  0
 36 77  2  0  0  0  0
 37 60  1  0  0  0  0
 37 66  1  0  0  0  0
 37 78  2  0  0  0  0
 38 61  1  0  0  0  0
 38 73  1  0  0  0  0
 38 79  2  0  0  0  0
 39 67  1  0  0  0  0
 39 70  1  0  0  0  0
 39 80  2  0  0  0  0
 40 43  1  0  0  0  0
 41 50  1  0  0  0  0
 42 66  1  0  0  0  0
 43 45  1  0  0  0  0
 44 46  1  0  0  0  0
 44 47  1  0  0  0  0
 45 49  1  0  0  0  0
 46 51  1  0  0  0  0
 47 67  1  0  0  0  0
 48 51  1  0  0  0  0
 48 67  1  0  0  0  0
 49 72  1  0  0  0  0
 50 66  1  0  0  0  0
 51 65  1  0  0  0  0
 52 61  1  0  0  0  0
 53 62  1  0  0  0  0
 54 62  1  0  0  0  0
 55 62  1  0  0  0  0
 56 63  1  0  0  0  0
 57 63  1  0  0  0  0
 58 74  1  0  0  0  0
 59 63  1  0  0  0  0
 59 82  1  0  0  0  0
 60 62  1  0  0  0  0
 60 73  1  0  0  0  0
 61 74  1  0  0  0  0
 63 71  1  0  0  0  0
 64 65  1  0  0  0  0
M  CHG  1  74   1
M  ISO  4  39 100  59 101  70 100  82 101
M  END
> <Batch ID>
0074

> <Smiles>
CNC(C)C(=O)NC(C(=O)N1Cc2cc([101O:1][101CH2:1]C(C)(C)NC(=O)c3ccc([100NH:0][100C:0](=O)N4CCCC(n5nc(-c6ccc(Oc7ccc(F)cc7F)cc6)c(C(N)=O)c5N)C4)cc3F)ccc2CC1C(=O)NC1CCCc2ccccc21)C(C)(C)C

> <Shape>
0.266

> <Color>
0.101

> <Negative vol penalty>
0.000

$$$$

  -OEChem-04042323443D

 85 94  0     1  0  0  0  0  0999 V2000
  -30.3093  -12.1365   19.8345 C   0  0  0  0  0  0  0  0  0  0  0  0
  -30.1387  -13.4974   20.0675 C   0  0  0  0  0  0  0  0  0  0  0  0
  -18.3562  -27.6582   23.2044 C   0  0  0  0  0  0  0  0  0  0  0  0
  -19.1133  -28.8134   23.3987 C   0  0  0  0  0  0  0  0  0  0  0  0
  -29.7413  -23.7411   19.9375 C   0  0  0  0  0  0  0  0  0  0  0  0
  -27.9859  -22.7082   21.2370 C   0  0  0  0  0  0  0  0  0  0  0  0
  -29.2369  -11.3677   19.3841 C   0  0  0  0  0  0  0  0  0  0  0  0
  -28.8957  -14.0905   19.8492 C   0  0  0  0  0  0  0  0  0  0  0  0
  -24.6874  -19.3185   22.3541 C   0  0  0  0  0  0  0  0  0  0  0  0
  -18.8229  -26.6525   22.3580 C   0  0  0  0  0  0  0  0  0  0  0  0
  -20.3371  -28.9631   22.7464 C   0  0  0  0  0  0  0  0  0  0  0  0
  -30.6818  -22.9124   20.5491 C   0  0  0  0  0  0  0  0  0  0  0  0
  -28.9265  -21.8794   21.8486 C   0  0  0  0  0  0  0  0  0  0  0  0
  -23.9733  -20.4313   21.9121 C   0  0  0  0  0  0  0  0  0  0  0  0
  -30.8169  -19.2432   23.4902 C   0  0  0  0  0  0  0  0  0  0  0  0
  -30.5046  -17.8897   23.6170 C   0  0  0  0  0  0  0  0  0  0  0  0
  -22.1720  -18.9889   21.2093 C   0  0  0  0  0  0  0  0  0  0  0  0
  -30.3206  -17.7071   21.2149 C   0  0  0  0  0  0  0  0  0  0  0  0
  -28.3933  -23.6391   20.2815 C   0  0  0  0  0  0  0  0  0  0  0  0
  -26.6995  -24.2364   18.4699 C   0  0  0  0  0  0  0  0  0  0  0  0
  -27.9777  -11.9498   19.1695 C   0  0  0  0  0  0  0  0  0  0  0  0
  -24.1528  -18.0293   22.2169 C   0  0  0  0  0  0  0  0  0  0  0  0
  -27.8058  -13.3290   19.3943 C   0  0  0  0  0  0  0  0  0  0  0  0
  -22.8802  -17.8615   21.6528 C   0  0  0  0  0  0  0  0  0  0  0  0
  -20.0468  -26.8022   21.7058 C   0  0  0  0  0  0  0  0  0  0  0  0
  -20.8039  -27.9574   21.9000 C   0  0  0  0  0  0  0  0  0  0  0  0
  -30.2744  -21.9815   21.5047 C   0  0  0  0  0  0  0  0  0  0  0  0
  -22.7167  -20.2664   21.3369 C   0  0  0  0  0  0  0  0  0  0  0  0
  -30.8810  -19.8287   22.2258 C   0  0  0  0  0  0  0  0  0  0  0  0
  -30.2565  -17.1217   22.4794 C   0  0  0  0  0  0  0  0  0  0  0  0
  -30.6328  -19.0607   21.0882 C   0  0  0  0  0  0  0  0  0  0  0  0
  -27.4214  -24.4954   19.6504 C   0  0  0  0  0  0  0  0  0  0  0  0
  -25.9145  -25.3500   18.2962 C   0  0  0  0  0  0  0  0  0  0  0  0
  -21.2860  -24.7019   21.2781 C   0  0  0  0  0  0  0  0  0  0  0  0
  -21.7454  -23.7004   20.5037 C   0  0  0  0  0  0  0  0  0  0  0  0
  -21.3549  -23.6572   19.0931 C   0  0  0  0  0  0  0  0  0  0  0  0
  -21.9518  -22.8913   18.1658 C   0  0  0  0  0  0  0  0  0  0  0  0
  -26.7353  -23.0916   17.6075 C   0  0  0  0  0  0  0  0  0  0  0  0
  -25.0170  -15.3968   20.6591 C   0  0  0  0  0  0  0  0  0  0  0  0
  -22.4999  -14.1019   22.2433 C   0  0  0  0  0  0  0  0  0  0  0  0
  -19.5143  -14.5828   23.8250 C   0  0  0  0  0  0  0  0  0  0  0  0
  -22.9083  -29.2264   21.3452 C   0  0  0  0  0  0  0  0  0  0  0  0
  -26.8606  -11.0875   18.6371 C   0  0  0  0  0  0  0  0  0  0  0  0
  -24.9243  -16.8415   22.7232 C   0  0  0  0  0  0  0  0  0  0  0  0
  -22.2531  -16.5006   21.5011 C   0  0  0  0  0  0  0  0  0  0  0  0
  -20.1853  -24.5445   18.7225 C   0  0  0  0  0  0  0  0  0  0  0  0
  -25.4789  -11.7185   18.7887 C   0  0  0  0  0  0  0  0  0  0  0  0
  -26.0777  -30.0180   19.9291 C   0  0  0  0  0  0  0  0  0  0  0  0
  -25.5040  -13.1743   18.3341 C   0  0  0  0  0  0  0  0  0  0  0  0
  -26.6781  -28.6501   19.5967 C   0  0  0  0  0  0  0  0  0  0  0  0
  -20.2416  -25.9182   19.4056 C   0  0  0  0  0  0  0  0  0  0  0  0
  -25.2721  -29.9837   21.2266 C   0  0  0  0  0  0  0  0  0  0  0  0
  -24.8401  -27.5733   20.9566 C   0  0  0  0  0  0  0  0  0  0  0  0
  -26.4663  -14.0039   19.1928 C   0  0  1  0  0  0  0  0  0  0  0  0
  -24.5036  -15.5311   22.0649 C   0  0  1  0  0  0  0  0  0  0  0  0
  -25.6066  -27.5426   19.6242 C   0  0  2  0  0  0  0  0  0  0  0  0
  -17.6742  -13.3297   24.9830 C   0  0  0  0  0  0  0  0  0  0  0  0
  -21.4449  -13.1580   19.5403 C   0  0  0  0  0  0  0  0  0  0  0  0
  -19.2183  -12.7785   20.6202 C   0  0  0  0  0  0  0  0  0  0  0  0
  -21.2117  -11.4919   21.3907 C   0  0  0  0  0  0  0  0  0  0  0  0
  -19.9724  -16.0276   26.3669 C   0  0  0  0  0  0  0  0  0  0  0  0
  -22.6323  -22.6281   21.0701 C   0  0  0  0  0  0  0  0  0  1  0  0
  -21.0247  -13.9476   21.9623 C   0  0  1  0  0  0  0  0  0  0  0  0
  -18.9867  -14.0782   25.1559 C   0  0  2  0  0  0  0  0  0  0  0  0
  -20.7373  -12.8696   20.8793 C   0  0  0  0  0  0  0  0  0  0  0  0
  -27.1217  -25.6805   20.1886 N   0  0  0  0  0  0  0  0  0  0  0  0
  -26.2029  -26.1762   19.3423 N   0  0  0  0  0  0  0  0  0  0  0  0
  -20.5019  -25.7658   20.8492 N   0  0  0  0  0  0  0  0  0  0  0  0
  -23.0494  -15.3697   22.0056 N   0  0  0  0  0  0  0  0  0  0  0  0
  -24.2739  -28.9131   21.1786 N   0  0  0  0  0  0  0  0  0  0  0  0
  -25.0126  -25.6933   17.3522 N   0  0  0  0  0  0  0  0  0  0  0  0
  -27.5984  -22.0364   17.9332 N   0  0  0  0  0  0  0  0  0  0  0  0
  -22.0495  -28.1320   21.2475 N   0  0  0  0  0  0  0  0  0  0  0  0
  -25.8610  -14.3194   20.4690 N   0  0  0  0  0  0  0  0  0  0  0  0
  -20.3892  -13.6860   23.2492 N   0  0  0  0  0  0  0  0  0  0  0  0
  -18.7583  -15.2180   26.0884 N   0  3  0  0  0  0  0  0  0  0  0  0
  -26.0351  -23.0139   16.5696 O   0  0  0  0  0  0  0  0  0  0  0  0
  -24.6717  -16.2096   19.8096 O   0  0  0  0  0  0  0  0  0  0  0  0
  -23.1395  -13.1352   22.6652 O   0  0  0  0  0  0  0  0  0  0  0  0
  -19.1806  -15.6628   23.3424 O   0  0  0  0  0  0  0  0  0  0  0  0
  -22.5262  -30.3845   21.5317 O   0  0  0  0  0  0  0  0  0  0  0  0
  -31.1919  -21.1724   22.1015 O   0  0  0  0  0  0  0  0  0  0  0  0
  -22.0179  -21.3509   20.9040 O   0  0  0  0  0  0  0  0  0  1  0  0
  -29.9581  -15.8215   22.6012 F   0  0  0  0  0  0  0  0  0  0  0  0
  -30.6940  -19.6173   19.8707 F   0  0  0  0  0  0  0  0  0  0  0  0
  1  2  1  0  0  0  0
  1  7  2  0  0  0  0
  2  8  2  0  0  0  0
  3  4  1  0  0  0  0
  3 10  2  0  0  0  0
  4 11  2  0  0  0  0
  5 12  2  0  0  0  0
  5 19  1  0  0  0  0
  6 13  1  0  0  0  0
  6 19  2  0  0  0  0
  7 21  1  0  0  0  0
  8 23  1  0  0  0  0
  9 14  2  0  0  0  0
  9 22  1  0  0  0  0
 10 25  1  0  0  0  0
 11 26  1  0  0  0  0
 12 27  1  0  0  0  0
 13 27  2  0  0  0  0
 14 28  1  0  0  0  0
 15 16  2  0  0  0  0
 15 29  1  0  0  0  0
 16 30  1  0  0  0  0
 17 24  1  0  0  0  0
 17 28  2  0  0  0  0
 18 30  2  0  0  0  0
 18 31  1  0  0  0  0
 19 32  1  0  0  0  0
 20 32  1  0  0  0  0
 20 33  2  0  0  0  0
 20 38  1  0  0  0  0
 21 23  2  0  0  0  0
 21 43  1  0  0  0  0
 22 24  2  0  0  0  0
 22 44  1  0  0  0  0
 23 54  1  0  0  0  0
 24 45  1  0  0  0  0
 25 26  2  0  0  0  0
 25 68  1  0  0  0  0
 26 73  1  0  0  0  0
 27 82  1  0  0  0  0
 28 83  1  0  0  0  0
 29 31  2  0  0  0  0
 29 82  1  0  0  0  0
 30 84  1  0  0  0  0
 31 85  1  0  0  0  0
 32 66  2  0  0  0  0
 33 67  1  0  0  0  0
 33 71  1  0  0  0  0
 34 35  2  0  0  0  0
 34 68  1  0  0  0  0
 35 36  1  0  0  0  0
 35 62  1  0  0  0  0
 36 37  2  0  0  0  0
 36 46  1  0  0  0  0
 38 72  1  0  0  0  0
 38 77  2  0  0  0  0
 39 55  1  0  0  0  0
 39 74  1  0  0  0  0
 39 78  2  0  0  0  0
 40 63  1  0  0  0  0
 40 69  1  0  0  0  0
 40 79  2  0  0  0  0
 41 64  1  0  0  0  0
 41 75  1  0  0  0  0
 41 80  2  0  0  0  0
 42 70  1  0  0  0  0
 42 73  1  0  0  0  0
 42 81  2  0  0  0  0
 43 47  1  0  0  0  0
 44 55  1  0  0  0  0
 45 69  1  0  0  0  0
 46 51  1  0  0  0  0
 47 49  1  0  0  0  0
 48 50  1  0  0  0  0
 48 52  1  0  0  0  0
 49 54  1  0  0  0  0
 50 56  1  0  0  0  0
 51 68  1  0  0  0  0
 52 70  1  0  0  0  0
 53 56  1  0  0  0  0
 53 70  1  0  0  0  0
 54 74  1  0  0  0  0
 55 69  1  0  0  0  0
 56 67  1  0  0  0  0
 57 64  1  0  0  0  0
 58 65  1  0  0  0  0
 59 65  1  0  0  0  0
 60 65  1  0  0  0  0
 61 76  1  0  0  0  0
 62 83  1  0  0  0  0
 63 65  1  0  0  0  0
 63 75  1  0  0  0  0
 64 76  1  0  0  0  0
 66 67  1  0  0  0  0
M  CHG  1  76   1
M  ISO  4  42 100  62 101  73 100  83 101
M  END
> <Batch ID>
0074

> <Smiles>
C=C1CCN(c2ccccc2[100NH:0][100C:0](=O)N2CCCC(n3nc(-c4ccc(Oc5ccc(F)cc5F)cc4)c(C(N)=O)c3N)C2)C=C1[101CH2:1][101O:1]c1ccc2c(c1)CN(C(=O)C(NC(=O)C(C)NC)C(C)(C)C)C(C(=O)NC1CCCc3ccccc31)C2

> <Shape>
0.232

> <Color>
0.060

> <Negative vol penalty>
0.000

$$$$

  -OEChem-04042323443D

 87 96  0     1  0  0  0  0  0999 V2000
  -28.4285  -37.8847   21.1660 C   0  0  0  0  0  0  0  0  0  0  0  0
  -28.8409  -36.5982   20.8343 C   0  0  0  0  0  0  0  0  0  0  0  0
  -24.6409  -10.9113   23.6239 C   0  0  0  0  0  0  0  0  0  0  0  0
  -24.2011  -13.0669   24.6225 C   0  0  0  0  0  0  0  0  0  0  0  0
  -27.4601  -38.0727   22.1513 C   0  0  0  0  0  0  0  0  0  0  0  0
  -28.2860  -35.4988   21.4885 C   0  0  0  0  0  0  0  0  0  0  0  0
  -27.1361  -29.9823   19.0903 C   0  0  0  0  0  0  0  0  0  0  0  0
  -29.7898  -21.1474   22.8925 C   0  0  0  0  0  0  0  0  0  0  0  0
  -29.8476  -19.7566   22.9824 C   0  0  0  0  0  0  0  0  0  0  0  0
  -24.2692  -10.2844   24.8132 C   0  0  0  0  0  0  0  0  0  0  0  0
  -23.8293  -12.4400   25.8119 C   0  0  0  0  0  0  0  0  0  0  0  0
  -27.8383  -28.7785   19.1275 C   0  0  0  0  0  0  0  0  0  0  0  0
  -21.4016   -9.4637   26.4057 C   0  0  0  0  0  0  0  0  0  0  0  0
  -20.5595   -8.3552   26.3185 C   0  0  0  0  0  0  0  0  0  0  0  0
  -26.4828  -28.0520   20.9860 C   0  0  0  0  0  0  0  0  0  0  0  0
  -29.8472  -19.6008   20.5714 C   0  0  0  0  0  0  0  0  0  0  0  0
  -22.2457   -6.9906   27.3823 C   0  0  0  0  0  0  0  0  0  0  0  0
  -24.6069  -12.3025   23.5286 C   0  0  0  0  0  0  0  0  0  0  0  0
  -24.1562  -13.2826   21.2168 C   0  0  0  0  0  0  0  0  0  0  0  0
  -26.8860  -36.9747   22.8111 C   0  0  0  0  0  0  0  0  0  0  0  0
  -26.1074  -30.2349   20.0093 C   0  0  0  0  0  0  0  0  0  0  0  0
  -27.3100  -35.6724   22.4845 C   0  0  0  0  0  0  0  0  0  0  0  0
  -25.7673  -29.2588   20.9568 C   0  0  0  0  0  0  0  0  0  0  0  0
  -29.7606  -21.7648   21.6421 C   0  0  0  0  0  0  0  0  0  0  0  0
  -29.8764  -18.9833   21.8219 C   0  0  0  0  0  0  0  0  0  0  0  0
  -23.8634  -11.0488   25.9072 C   0  0  0  0  0  0  0  0  0  0  0  0
  -27.5137  -27.8143   20.0772 C   0  0  0  0  0  0  0  0  0  0  0  0
  -22.6658   -9.3357   26.9812 C   0  0  0  0  0  0  0  0  0  0  0  0
  -20.9816   -7.1186   26.8068 C   0  0  0  0  0  0  0  0  0  0  0  0
  -29.7894  -20.9915   20.4816 C   0  0  0  0  0  0  0  0  0  0  0  0
  -23.0878   -8.0992   27.4695 C   0  0  0  0  0  0  0  0  0  0  0  0
  -24.9913  -12.9507   22.3005 C   0  0  0  0  0  0  0  0  0  0  0  0
  -24.9953  -13.8766   20.3061 C   0  0  0  0  0  0  0  0  0  0  0  0
  -29.6660  -24.1095   22.5033 C   0  0  0  0  0  0  0  0  0  0  0  0
  -30.5763  -15.7085   23.3131 C   0  0  0  0  0  0  0  0  0  0  0  0
  -29.9669  -16.8828   23.1352 C   0  0  0  0  0  0  0  0  0  0  0  0
  -22.7479  -13.0727   21.0486 C   0  0  0  0  0  0  0  0  0  0  0  0
  -25.6175  -32.3936   22.2905 C   0  0  0  0  0  0  0  0  0  0  0  0
  -22.7011  -30.9833   22.4578 C   0  0  0  0  0  0  0  0  0  0  0  0
  -20.7858  -28.2141   21.9008 C   0  0  0  0  0  0  0  0  0  0  0  0
  -30.1275  -16.7845   20.7290 C   0  0  0  0  0  0  0  0  0  0  0  0
  -25.8769  -37.2301   23.9026 C   0  0  0  0  0  0  0  0  0  0  0  0
  -25.3417  -31.5276   19.9389 C   0  0  0  0  0  0  0  0  0  0  0  0
  -24.6578  -29.4728   21.9526 C   0  0  0  0  0  0  0  0  0  0  0  0
  -25.0673  -35.9937   24.2850 C   0  0  0  0  0  0  0  0  0  0  0  0
  -29.5436  -13.9003   18.8504 C   0  0  0  0  0  0  0  0  0  0  0  0
  -25.9850  -34.7882   24.4614 C   0  0  0  0  0  0  0  0  0  0  0  0
  -28.2337  -13.3511   19.4149 C   0  0  0  0  0  0  0  0  0  0  0  0
  -30.4332  -14.4439   19.9625 C   0  0  0  0  0  0  0  0  0  0  0  0
  -28.4652  -14.9593   21.3714 C   0  0  0  0  0  0  0  0  0  0  0  0
  -29.6650  -24.0221   20.3983 C   0  0  0  0  0  0  0  0  0  0  0  0
  -26.7137  -34.4535   23.1543 C   0  0  1  0  0  0  0  0  0  0  0  0
  -24.6555  -31.8879   21.2530 C   0  0  1  0  0  0  0  0  0  0  0  0
  -27.5232  -14.4030   20.2848 C   0  0  2  0  0  0  0  0  0  0  0  0
  -29.6187  -25.2106   21.4051 C   0  0  2  0  0  0  0  0  0  0  0  0
  -30.8483  -26.1118   21.3818 C   0  0  0  0  0  0  0  0  0  0  0  0
  -18.4459  -27.3498   22.1745 C   0  0  0  0  0  0  0  0  0  0  0  0
  -23.1896  -30.6146   25.4470 C   0  0  0  0  0  0  0  0  0  0  0  0
  -21.3188  -28.9509   25.4766 C   0  0  0  0  0  0  0  0  0  0  0  0
  -20.8667  -31.3225   24.8490 C   0  0  0  0  0  0  0  0  0  0  0  0
  -20.4703  -27.8097   18.9860 C   0  0  0  0  0  0  0  0  0  0  0  0
  -28.3262  -26.0035   21.3875 C   0  0  0  0  0  0  0  0  0  1  0  0
  -22.1145  -29.8295   23.2348 C   0  0  1  0  0  0  0  0  0  0  0  0
  -19.4280  -28.0441   21.2437 C   0  0  2  0  0  0  0  0  0  0  0  0
  -21.8947  -30.1758   24.7345 C   0  0  0  0  0  0  0  0  0  0  0  0
  -26.2634  -13.3044   22.0984 N   0  0  0  0  0  0  0  0  0  0  0  0
  -26.2338  -13.8646   20.8772 N   0  0  0  0  0  0  0  0  0  0  0  0
  -29.7036  -23.1363   21.5564 N   0  0  0  0  0  0  0  0  0  0  0  0
  -23.9427  -30.7554   21.8475 N   0  0  0  0  0  0  0  0  0  0  0  0
  -29.7209  -15.4359   20.7687 N   0  0  0  0  0  0  0  0  0  0  0  0
  -24.7872  -14.4028   19.0804 N   0  0  0  0  0  0  0  0  0  0  0  0
  -22.0373  -12.4478   22.0825 N   0  0  0  0  0  0  0  0  0  0  0  0
  -25.8275  -33.7586   22.2453 N   0  0  0  0  0  0  0  0  0  0  0  0
  -20.9002  -29.4368   22.5279 N   0  0  0  0  0  0  0  0  0  0  0  0
  -29.9364  -17.5392   21.9155 N   0  0  0  0  0  0  0  0  0  0  0  0
  -19.5521  -27.2315   20.0007 N   0  3  0  0  0  0  0  0  0  0  0  0
  -29.6699  -24.0818   23.7130 O   0  0  0  0  0  0  0  0  0  0  0  0
  -22.1408  -13.4138   20.0053 O   0  0  0  0  0  0  0  0  0  0  0  0
  -26.1302  -31.6040   23.0749 O   0  0  0  0  0  0  0  0  0  0  0  0
  -22.0773  -32.0452   22.3887 O   0  0  0  0  0  0  0  0  0  0  0  0
  -21.6565  -27.3474   21.8647 O   0  0  0  0  0  0  0  0  0  0  0  0
  -30.6438  -17.2794   19.7187 O   0  0  0  0  0  0  0  0  0  0  0  0
  -23.5003  -10.4374   27.0678 O   0  0  0  0  0  0  0  0  0  0  0  0
  -28.1980  -26.6387   20.1161 O   0  0  0  0  0  0  0  0  0  1  0  0
  -20.1722   -6.0545   26.7244 F   0  0  0  0  0  0  0  0  0  0  0  0
  -29.7611  -21.5742   19.2742 F   0  0  0  0  0  0  0  0  0  0  0  0
  -24.3008   -7.9703   28.0245 F   0  0  0  0  0  0  0  0  0  0  0  0
  1  2  1  0  0  0  0
  1  5  2  0  0  0  0
  2  6  2  0  0  0  0
  3 10  2  0  0  0  0
  3 18  1  0  0  0  0
  4 11  1  0  0  0  0
  4 18  2  0  0  0  0
  5 20  1  0  0  0  0
  6 22  1  0  0  0  0
  7 12  2  0  0  0  0
  7 21  1  0  0  0  0
  8  9  2  0  0  0  0
  8 24  1  0  0  0  0
  9 25  1  0  0  0  0
 10 26  1  0  0  0  0
 11 26  2  0  0  0  0
 12 27  1  0  0  0  0
 13 14  2  0  0  0  0
 13 28  1  0  0  0  0
 14 29  1  0  0  0  0
 15 23  1  0  0  0  0
 15 27  2  0  0  0  0
 16 25  2  0  0  0  0
 16 30  1  0  0  0  0
 17 29  2  0  0  0  0
 17 31  1  0  0  0  0
 18 32  1  0  0  0  0
 19 32  1  0  0  0  0
 19 33  2  0  0  0  0
 19 37  1  0  0  0  0
 20 22  2  0  0  0  0
 20 42  1  0  0  0  0
 21 23  2  0  0  0  0
 21 43  1  0  0  0  0
 22 52  1  0  0  0  0
 23 44  1  0  0  0  0
 24 30  2  0  0  0  0
 24 68  1  0  0  0  0
 25 75  1  0  0  0  0
 26 83  1  0  0  0  0
 27 84  1  0  0  0  0
 28 31  2  0  0  0  0
 28 83  1  0  0  0  0
 29 85  1  0  0  0  0
 30 86  1  0  0  0  0
 31 87  1  0  0  0  0
 32 66  2  0  0  0  0
 33 67  1  0  0  0  0
 33 71  1  0  0  0  0
 34 55  1  0  0  0  0
 34 68  1  0  0  0  0
 34 77  2  0  0  0  0
 35 36  2  0  0  0  0
 36 75  1  0  0  0  0
 37 72  1  0  0  0  0
 37 78  2  0  0  0  0
 38 53  1  0  0  0  0
 38 73  1  0  0  0  0
 38 79  2  0  0  0  0
 39 63  1  0  0  0  0
 39 69  1  0  0  0  0
 39 80  2  0  0  0  0
 40 64  1  0  0  0  0
 40 74  1  0  0  0  0
 40 81  2  0  0  0  0
 41 70  1  0  0  0  0
 41 75  1  0  0  0  0
 41 82  2  0  0  0  0
 42 45  1  0  0  0  0
 43 53  1  0  0  0  0
 44 69  1  0  0  0  0
 45 47  1  0  0  0  0
 46 48  1  0  0  0  0
 46 49  1  0  0  0  0
 47 52  1  0  0  0  0
 48 54  1  0  0  0  0
 49 70  1  0  0  0  0
 50 54  1  0  0  0  0
 50 70  1  0  0  0  0
 51 55  1  0  0  0  0
 51 68  1  0  0  0  0
 52 73  1  0  0  0  0
 53 69  1  0  0  0  0
 54 67  1  0  0  0  0
 55 56  1  0  0  0  0
 55 62  1  0  0  0  0
 57 64  1  0  0  0  0
 58 65  1  0  0  0  0
 59 65  1  0  0  0  0
 60 65  1  0  0  0  0
 61 76  1  0  0  0  0
 62 84  1  0  0  0  0
 63 65  1  0  0  0  0
 63 74  1  0  0  0  0
 64 76  1  0  0  0  0
 66 67  1  0  0  0  0
M  CHG  1  76   1
M  ISO  4  41 100  62 101  75 100  84 101
M  END
> <Batch ID>
0074

> <Smiles>
C=C[100N:0](c1ccc(N2CC(C)([101CH2:1][101O:1]c3ccc4c(c3)CN(C(=O)C(NC(=O)C(C)NC)C(C)(C)C)C(C(=O)NC3CCCc5ccccc53)C4)C2=O)c(F)c1)[100C:0](=O)N1CCCC(n2nc(-c3ccc(Oc4ccc(F)cc4F)cc3)c(C(N)=O)c2N)C1

> <Shape>
0.287

> <Color>
0.101

> <Negative vol penalty>
0.000

$$$$

  -OEChem-04042323443D

 86 95  0     1  0  0  0  0  0999 V2000
  -30.3481  -23.5366   15.3355 C   0  0  0  0  0  0  0  0  0  0  0  0
  -29.1270  -24.2030   15.3485 C   0  0  0  0  0  0  0  0  0  0  0  0
  -26.2650  -14.0635   19.1517 C   0  0  0  0  0  0  0  0  0  0  0  0
  -25.0194  -14.3208   21.2058 C   0  0  0  0  0  0  0  0  0  0  0  0
  -30.9892  -23.2351   16.5364 C   0  0  0  0  0  0  0  0  0  0  0  0
  -28.5457  -24.5674   16.5625 C   0  0  0  0  0  0  0  0  0  0  0  0
  -24.4771  -29.6847   19.4908 C   0  0  0  0  0  0  0  0  0  0  0  0
  -21.3668  -24.6756   21.3865 C   0  0  0  0  0  0  0  0  0  0  0  0
  -22.4006  -25.4718   23.4199 C   0  0  0  0  0  0  0  0  0  0  0  0
  -22.4005  -23.7537   21.2219 C   0  0  0  0  0  0  0  0  0  0  0  0
  -23.4343  -24.5498   23.2553 C   0  0  0  0  0  0  0  0  0  0  0  0
  -26.2461  -12.6782   19.3137 C   0  0  0  0  0  0  0  0  0  0  0  0
  -25.0005  -12.9355   21.3679 C   0  0  0  0  0  0  0  0  0  0  0  0
  -23.3123  -29.8367   20.2417 C   0  0  0  0  0  0  0  0  0  0  0  0
  -23.2758  -10.3075   20.1270 C   0  0  0  0  0  0  0  0  0  0  0  0
  -22.0675   -9.7161   20.4955 C   0  0  0  0  0  0  0  0  0  0  0  0
  -24.5492  -29.3341   22.2509 C   0  0  0  0  0  0  0  0  0  0  0  0
  -23.1002   -8.8579   22.5040 C   0  0  0  0  0  0  0  0  0  0  0  0
  -25.6517  -14.8848   20.0978 C   0  0  0  0  0  0  0  0  0  0  0  0
  -25.1398  -17.0541   18.8569 C   0  0  0  0  0  0  0  0  0  0  0  0
  -30.4202  -23.6046   17.7653 C   0  0  0  0  0  0  0  0  0  0  0  0
  -25.6865  -29.3451   20.1140 C   0  0  0  0  0  0  0  0  0  0  0  0
  -29.1792  -24.2694   17.7809 C   0  0  0  0  0  0  0  0  0  0  0  0
  -25.7285  -29.1810   21.5059 C   0  0  0  0  0  0  0  0  0  0  0  0
  -21.3669  -25.5347   22.4855 C   0  0  0  0  0  0  0  0  0  0  0  0
  -23.4342  -23.6907   22.1564 C   0  0  0  0  0  0  0  0  0  0  0  0
  -25.6139  -12.1142   20.4218 C   0  0  0  0  0  0  0  0  0  0  0  0
  -23.3476  -29.6585   21.6216 C   0  0  0  0  0  0  0  0  0  0  0  0
  -24.3963  -10.1741   20.9469 C   0  0  0  0  0  0  0  0  0  0  0  0
  -21.9796   -8.9913   21.6840 C   0  0  0  0  0  0  0  0  0  0  0  0
  -24.3085   -9.4493   22.1355 C   0  0  0  0  0  0  0  0  0  0  0  0
  -25.6714  -16.3159   19.9313 C   0  0  0  0  0  0  0  0  0  0  0  0
  -25.4132  -18.3629   19.1710 C   0  0  0  0  0  0  0  0  0  0  0  0
  -18.9980  -26.2345   22.1869 C   0  0  0  0  0  0  0  0  0  0  0  0
  -24.4597  -16.5975   17.6802 C   0  0  0  0  0  0  0  0  0  0  0  0
  -27.6966  -26.8902   19.9225 C   0  0  0  0  0  0  0  0  0  0  0  0
  -29.5048  -28.7193   21.8991 C   0  0  0  0  0  0  0  0  0  0  0  0
  -28.9532  -30.8262   24.7756 C   0  0  0  0  0  0  0  0  0  0  0  0
  -25.5851  -22.5618   22.8238 C   0  0  0  0  0  0  0  0  0  0  0  0
  -31.1276  -23.2152   19.0391 C   0  0  0  0  0  0  0  0  0  0  0  0
  -26.9397  -29.2111   19.2931 C   0  0  0  0  0  0  0  0  0  0  0  0
  -27.0057  -28.8357   22.2255 C   0  0  0  0  0  0  0  0  0  0  0  0
  -18.0475  -27.3810   22.4310 C   0  0  0  0  0  0  0  0  0  0  0  0
  -30.6263  -23.9681   20.2688 C   0  0  0  0  0  0  0  0  0  0  0  0
  -28.3648  -20.3372   22.7783 C   0  0  0  0  0  0  0  0  0  0  0  0
  -29.1013  -23.9808   20.3021 C   0  0  0  0  0  0  0  0  0  0  0  0
  -27.8681  -19.1534   21.9452 C   0  0  0  0  0  0  0  0  0  0  0  0
  -27.2561  -20.9200   23.6529 C   0  0  0  0  0  0  0  0  0  0  0  0
  -25.5274  -20.0929   22.1048 C   0  0  0  0  0  0  0  0  0  0  0  0
  -20.5232  -27.6978   23.4528 C   0  0  0  0  0  0  0  0  0  0  0  0
  -28.5288  -24.7032   19.0767 C   0  0  1  0  0  0  0  0  0  0  0  0
  -28.0090  -28.3591   19.9697 C   0  0  1  0  0  0  0  0  0  0  0  0
  -26.5921  -19.5134   21.1592 C   0  0  2  0  0  0  0  0  0  0  0  0
  -19.9858  -28.9724   22.7655 C   0  0  1  0  0  0  0  0  0  0  0  0
  -19.7025  -30.0618   23.8049 C   0  0  0  0  0  0  0  0  0  0  0  0
  -30.2527  -32.7965   25.6280 C   0  0  0  0  0  0  0  0  0  0  0  0
  -30.9238  -26.6597   23.6468 C   0  0  0  0  0  0  0  0  0  0  0  0
  -30.9396  -28.3446   25.4985 C   0  0  0  0  0  0  0  0  0  0  0  0
  -32.1541  -28.8196   23.3720 C   0  0  0  0  0  0  0  0  0  0  0  0
  -26.5587  -32.5653   24.7465 C   0  0  0  0  0  0  0  0  0  0  0  0
  -20.9772  -29.4899   21.7150 C   0  0  0  0  0  0  0  0  0  1  0  0
  -29.6266  -28.8778   23.3955 C   0  0  1  0  0  0  0  0  0  0  0  0
  -29.0451  -32.3407   24.8238 C   0  0  2  0  0  0  0  0  0  0  0  0
  -30.8865  -28.1675   23.9660 C   0  0  0  0  0  0  0  0  0  0  0  0
  -26.2396  -17.0913   20.8586 N   0  0  0  0  0  0  0  0  0  0  0  0
  -26.0668  -18.3303   20.3677 N   0  0  0  0  0  0  0  0  0  0  0  0
  -20.3019  -26.4852   22.6550 N   0  0  0  0  0  0  0  0  0  0  0  0
  -28.2031  -28.7093   21.3783 N   0  0  0  0  0  0  0  0  0  0  0  0
  -26.0811  -21.2410   22.8399 N   0  0  0  0  0  0  0  0  0  0  0  0
  -25.1561  -19.5269   18.5376 N   0  0  0  0  0  0  0  0  0  0  0  0
  -23.0648  -16.4683   17.7225 N   0  0  0  0  0  0  0  0  0  0  0  0
  -24.4845  -22.7543   21.9895 N   0  0  0  0  0  0  0  0  0  0  0  0
  -28.6335  -26.1373   19.2407 N   0  0  0  0  0  0  0  0  0  0  0  0
  -29.5782  -30.3118   23.6593 N   0  0  0  0  0  0  0  0  0  0  0  0
  -18.6921  -28.6660   22.0450 N   0  3  0  0  0  0  0  0  0  0  0  0
  -27.8201  -32.9143   25.4493 N   0  3  0  0  0  0  0  0  0  0  0  0
  -18.5807  -25.1905   21.6878 O   0  0  0  0  0  0  0  0  0  0  0  0
  -25.0724  -16.2969   16.6277 O   0  0  0  0  0  0  0  0  0  0  0  0
  -26.6814  -26.4706   20.4658 O   0  0  0  0  0  0  0  0  0  0  0  0
  -30.5272  -28.6155   21.2168 O   0  0  0  0  0  0  0  0  0  0  0  0
  -28.3871  -30.1653   25.6435 O   0  0  0  0  0  0  0  0  0  0  0  0
  -26.1157  -23.4622   23.4794 O   0  0  0  0  0  0  0  0  0  0  0  0
  -25.5950  -10.7625   20.5801 O   0  0  0  0  0  0  0  0  0  0  0  0
  -22.2120  -29.8055   22.3569 O   0  0  0  0  0  0  0  0  0  1  0  0
  -20.8188   -8.4247   22.0385 F   0  0  0  0  0  0  0  0  0  0  0  0
  -25.3812   -9.3186   22.9279 F   0  0  0  0  0  0  0  0  0  0  0  0
  1  2  1  0  0  0  0
  1  5  2  0  0  0  0
  2  6  2  0  0  0  0
  3 12  2  0  0  0  0
  3 19  1  0  0  0  0
  4 13  1  0  0  0  0
  4 19  2  0  0  0  0
  5 21  1  0  0  0  0
  6 23  1  0  0  0  0
  7 14  2  0  0  0  0
  7 22  1  0  0  0  0
  8 10  2  0  0  0  0
  8 25  1  0  0  0  0
  9 11  1  0  0  0  0
  9 25  2  0  0  0  0
 10 26  1  0  0  0  0
 11 26  2  0  0  0  0
 12 27  1  0  0  0  0
 13 27  2  0  0  0  0
 14 28  1  0  0  0  0
 15 16  2  0  0  0  0
 15 29  1  0  0  0  0
 16 30  1  0  0  0  0
 17 24  1  0  0  0  0
 17 28  2  0  0  0  0
 18 30  2  0  0  0  0
 18 31  1  0  0  0  0
 19 32  1  0  0  0  0
 20 32  1  0  0  0  0
 20 33  2  0  0  0  0
 20 35  1  0  0  0  0
 21 23  2  0  0  0  0
 21 40  1  0  0  0  0
 22 24  2  0  0  0  0
 22 41  1  0  0  0  0
 23 51  1  0  0  0  0
 24 42  1  0  0  0  0
 25 67  1  0  0  0  0
 26 72  1  0  0  0  0
 27 83  1  0  0  0  0
 28 84  1  0  0  0  0
 29 31  2  0  0  0  0
 29 83  1  0  0  0  0
 30 85  1  0  0  0  0
 31 86  1  0  0  0  0
 32 65  2  0  0  0  0
 33 66  1  0  0  0  0
 33 70  1  0  0  0  0
 34 43  1  0  0  0  0
 34 67  1  0  0  0  0
 34 77  2  0  0  0  0
 35 71  1  0  0  0  0
 35 78  2  0  0  0  0
 36 52  1  0  0  0  0
 36 73  1  0  0  0  0
 36 79  2  0  0  0  0
 37 62  1  0  0  0  0
 37 68  1  0  0  0  0
 37 80  2  0  0  0  0
 38 63  1  0  0  0  0
 38 74  1  0  0  0  0
 38 81  2  0  0  0  0
 39 69  1  0  0  0  0
 39 72  1  0  0  0  0
 39 82  2  0  0  0  0
 40 44  1  0  0  0  0
 41 52  1  0  0  0  0
 42 68  1  0  0  0  0
 43 75  1  0  0  0  0
 44 46  1  0  0  0  0
 45 47  1  0  0  0  0
 45 48  1  0  0  0  0
 46 51  1  0  0  0  0
 47 53  1  0  0  0  0
 48 69  1  0  0  0  0
 49 53  1  0  0  0  0
 49 69  1  0  0  0  0
 50 54  1  0  0  0  0
 50 67  1  0  0  0  0
 51 73  1  0  0  0  0
 52 68  1  0  0  0  0
 53 66  1  0  0  0  0
 54 55  1  0  0  0  0
 54 61  1  0  0  0  0
 54 75  1  0  0  0  0
 56 63  1  0  0  0  0
 57 64  1  0  0  0  0
 58 64  1  0  0  0  0
 59 64  1  0  0  0  0
 60 76  1  0  0  0  0
 61 84  1  0  0  0  0
 62 64  1  0  0  0  0
 62 74  1  0  0  0  0
 63 76  1  0  0  0  0
 65 66  1  0  0  0  0
M  CHG  2  75   1  76   1
M  ISO  4  39 100  61 101  72 100  84 101
M  END
> <Batch ID>
0074

> <Smiles>
CNC(C)C(=O)NC(C(=O)N1Cc2cc([101O:1][101CH2:1]C3(C)CN(c4ccc([100NH:0][100C:0](=O)N5CCCC(n6nc(-c7ccc(Oc8ccc(F)cc8F)cc7)c(C(N)=O)c6N)C5)cc4)C(=O)CN3)ccc2CC1C(=O)NC1CCCc2ccccc21)C(C)(C)C

> <Shape>
0.271

> <Color>
0.065

> <Negative vol penalty>
0.000

$$$$

  -OEChem-04042323443D

 87 95  0     1  0  0  0  0  0999 V2000
  -18.5016  -25.8842   19.7419 C   0  0  0  0  0  0  0  0  0  0  0  0
  -19.6250  -26.5169   19.2195 C   0  0  0  0  0  0  0  0  0  0  0  0
  -26.8497  -15.4427   20.2934 C   0  0  0  0  0  0  0  0  0  0  0  0
  -27.3521  -15.8447   17.9647 C   0  0  0  0  0  0  0  0  0  0  0  0
  -18.1480  -26.0832   21.0758 C   0  0  0  0  0  0  0  0  0  0  0  0
  -20.3951  -27.3498   20.0305 C   0  0  0  0  0  0  0  0  0  0  0  0
  -25.3641  -26.5400   19.4845 C   0  0  0  0  0  0  0  0  0  0  0  0
  -30.1231  -23.0428   15.3825 C   0  0  0  0  0  0  0  0  0  0  0  0
  -25.7582  -14.6575   19.9224 C   0  0  0  0  0  0  0  0  0  0  0  0
  -26.2606  -15.0595   17.5936 C   0  0  0  0  0  0  0  0  0  0  0  0
  -25.9776  -27.0832   18.3565 C   0  0  0  0  0  0  0  0  0  0  0  0
  -25.2180  -11.5146   18.7984 C   0  0  0  0  0  0  0  0  0  0  0  0
  -29.9624  -23.7732   14.2052 C   0  0  0  0  0  0  0  0  0  0  0  0
  -25.0429  -10.2963   19.4547 C   0  0  0  0  0  0  0  0  0  0  0  0
  -29.4931  -24.9852   16.6737 C   0  0  0  0  0  0  0  0  0  0  0  0
  -26.7986  -28.9159   19.6931 C   0  0  0  0  0  0  0  0  0  0  0  0
  -22.8793  -11.0305   20.2400 C   0  0  0  0  0  0  0  0  0  0  0  0
  -27.6467  -16.0364   19.3145 C   0  0  0  0  0  0  0  0  0  0  0  0
  -29.3325  -25.7157   15.4963 C   0  0  0  0  0  0  0  0  0  0  0  0
  -30.0979  -16.4188   19.9085 C   0  0  0  0  0  0  0  0  0  0  0  0
  -18.9196  -26.9113   21.9062 C   0  0  0  0  0  0  0  0  0  0  0  0
  -25.4543  -27.1875   20.7251 C   0  0  0  0  0  0  0  0  0  0  0  0
  -20.0508  -27.5610   21.3765 C   0  0  0  0  0  0  0  0  0  0  0  0
  -26.1875  -28.3775   20.8358 C   0  0  0  0  0  0  0  0  0  0  0  0
  -29.8884  -23.6487   16.6168 C   0  0  0  0  0  0  0  0  0  0  0  0
  -25.4637  -14.4658   18.5725 C   0  0  0  0  0  0  0  0  0  0  0  0
  -26.6925  -28.2729   18.4601 C   0  0  0  0  0  0  0  0  0  0  0  0
  -24.2238  -12.4908   18.8629 C   0  0  0  0  0  0  0  0  0  0  0  0
  -23.8736  -10.0543   20.1755 C   0  0  0  0  0  0  0  0  0  0  0  0
  -29.5671  -25.1097   14.2620 C   0  0  0  0  0  0  0  0  0  0  0  0
  -23.0544  -12.2487   19.5837 C   0  0  0  0  0  0  0  0  0  0  0  0
  -28.7740  -16.8481   19.6972 C   0  0  0  0  0  0  0  0  0  0  0  0
  -30.7787  -17.5612   20.2518 C   0  0  0  0  0  0  0  0  0  0  0  0
  -28.9147  -27.1306   15.5593 C   0  0  0  0  0  0  0  0  0  0  0  0
  -30.6619  -15.1048   19.8038 C   0  0  0  0  0  0  0  0  0  0  0  0
  -23.3608  -28.4754   22.7406 C   0  0  0  0  0  0  0  0  0  0  0  0
  -25.9760  -28.8116   24.6299 C   0  0  0  0  0  0  0  0  0  0  0  0
  -29.3711  -29.0738   24.8580 C   0  0  0  0  0  0  0  0  0  0  0  0
  -29.8612  -23.3560   19.1188 C   0  0  0  0  0  0  0  0  0  0  0  0
  -18.4710  -27.1332   23.3289 C   0  0  0  0  0  0  0  0  0  0  0  0
  -24.8093  -26.5745   21.9378 C   0  0  0  0  0  0  0  0  0  0  0  0
  -26.3314  -29.1010   22.1489 C   0  0  0  0  0  0  0  0  0  0  0  0
  -19.5530  -27.7348   24.2220 C   0  0  0  0  0  0  0  0  0  0  0  0
  -30.1267  -21.8290   22.3242 C   0  0  0  0  0  0  0  0  0  0  0  0
  -20.2325  -28.9072   23.5214 C   0  0  0  0  0  0  0  0  0  0  0  0
  -29.9365  -20.3387   22.0328 C   0  0  0  0  0  0  0  0  0  0  0  0
  -29.2411  -22.6987   21.4336 C   0  0  0  0  0  0  0  0  0  0  0  0
  -29.1721  -20.9476   19.7021 C   0  0  0  0  0  0  0  0  0  0  0  0
  -20.9254  -28.4524   22.2312 C   0  0  1  0  0  0  0  0  0  0  0  0
  -24.5343  -27.5877   23.0447 C   0  0  1  0  0  0  0  0  0  0  0  0
  -30.0911  -20.0343   20.5298 C   0  0  2  0  0  0  0  0  0  0  0  0
  -31.2153  -29.3772   26.5325 C   0  0  0  0  0  0  0  0  0  0  0  0
  -25.2662  -31.7692   24.8722 C   0  0  0  0  0  0  0  0  0  0  0  0
  -27.5845  -32.1845   25.7213 C   0  0  0  0  0  0  0  0  0  0  0  0
  -26.0366  -30.7036   26.9995 C   0  0  0  0  0  0  0  0  0  0  0  0
  -30.4039  -31.7397   16.4335 C   0  0  0  0  0  0  0  0  0  0  0  0
  -31.5027  -29.8837   17.6794 C   0  0  0  0  0  0  0  0  0  0  0  0
  -31.6135  -29.9411   15.1810 C   0  0  0  0  0  0  0  0  0  0  0  0
  -30.6054  -26.4811   24.1415 C   0  0  0  0  0  0  0  0  0  0  0  0
  -28.4787  -29.5686   17.5732 C   0  0  0  0  0  0  0  0  0  1  0  0
  -27.0251  -29.8798   24.8232 C   0  0  1  0  0  0  0  0  0  0  0  0
  -30.3774  -28.3748   25.7542 C   0  0  2  0  0  0  0  0  0  0  0  0
  -29.3866  -29.4212   16.3513 C   0  0  1  0  0  0  0  0  0  0  0  0
  -26.4740  -31.1219   25.5788 C   0  0  0  0  0  0  0  0  0  0  0  0
  -30.7165  -30.2283   16.3988 C   0  0  0  0  0  0  0  0  0  0  0  0
  -28.6205  -18.1608   19.8903 N   0  0  0  0  0  0  0  0  0  0  0  0
  -29.8569  -18.5662   20.2265 N   0  0  0  0  0  0  0  0  0  0  0  0
  -25.6774  -28.4652   23.3045 N   0  0  0  0  0  0  0  0  0  0  0  0
  -29.4443  -22.3572   20.0240 N   0  0  0  0  0  0  0  0  0  0  0  0
  -32.0698  -17.7941   20.5698 N   0  0  0  0  0  0  0  0  0  0  0  0
  -27.7783  -27.4776   14.9549 N   0  0  0  0  0  0  0  0  0  0  0  0
  -29.8214  -14.0439   19.4400 N   0  0  0  0  0  0  0  0  0  0  0  0
  -30.0529  -22.9067   17.8127 N   0  0  0  0  0  0  0  0  0  0  0  0
  -22.1771  -27.7926   22.5353 N   0  0  0  0  0  0  0  0  0  0  0  0
  -28.1523  -29.2303   25.4835 N   0  0  0  0  0  0  0  0  0  0  0  0
  -29.6985  -27.9850   16.2157 N   0  3  0  0  0  0  0  0  0  0  0  0
  -31.2942  -27.5269   24.9409 N   0  3  0  0  0  0  0  0  0  0  0  0
  -31.8719  -14.8754   20.0421 O   0  0  0  0  0  0  0  0  0  0  0  0
  -23.5173  -29.6900   22.6969 O   0  0  0  0  0  0  0  0  0  0  0  0
  -25.4464  -28.2983   25.6186 O   0  0  0  0  0  0  0  0  0  0  0  0
  -29.6404  -29.4471   23.7185 O   0  0  0  0  0  0  0  0  0  0  0  0
  -30.0615  -24.5180   19.4816 O   0  0  0  0  0  0  0  0  0  0  0  0
  -24.3988  -13.6995   18.2101 O   0  0  0  0  0  0  0  0  0  0  0  0
  -27.2917  -28.8056   17.3605 O   0  0  0  0  0  0  0  0  0  1  0  0
  -23.7049   -8.8837   20.8045 F   0  0  0  0  0  0  0  0  0  0  0  0
  -29.4156  -25.8037   13.1254 F   0  0  0  0  0  0  0  0  0  0  0  0
  -22.0952  -13.1823   19.6483 F   0  0  0  0  0  0  0  0  0  0  0  0
  1  2  1  0  0  0  0
  1  5  2  0  0  0  0
  2  6  2  0  0  0  0
  3  9  2  0  0  0  0
  3 18  1  0  0  0  0
  4 10  1  0  0  0  0
  4 18  2  0  0  0  0
  5 21  1  0  0  0  0
  6 23  1  0  0  0  0
  7 11  2  0  0  0  0
  7 22  1  0  0  0  0
  8 13  2  0  0  0  0
  8 25  1  0  0  0  0
  9 26  1  0  0  0  0
 10 26  2  0  0  0  0
 11 27  1  0  0  0  0
 12 14  2  0  0  0  0
 12 28  1  0  0  0  0
 13 30  1  0  0  0  0
 14 29  1  0  0  0  0
 15 19  1  0  0  0  0
 15 25  2  0  0  0  0
 16 24  1  0  0  0  0
 16 27  2  0  0  0  0
 17 29  2  0  0  0  0
 17 31  1  0  0  0  0
 18 32  1  0  0  0  0
 19 30  2  0  0  0  0
 19 34  1  0  0  0  0
 20 32  1  0  0  0  0
 20 33  2  0  0  0  0
 20 35  1  0  0  0  0
 21 23  2  0  0  0  0
 21 40  1  0  0  0  0
 22 24  2  0  0  0  0
 22 41  1  0  0  0  0
 23 49  1  0  0  0  0
 24 42  1  0  0  0  0
 25 73  1  0  0  0  0
 26 83  1  0  0  0  0
 27 84  1  0  0  0  0
 28 31  2  0  0  0  0
 28 83  1  0  0  0  0
 29 85  1  0  0  0  0
 30 86  1  0  0  0  0
 31 87  1  0  0  0  0
 32 66  2  0  0  0  0
 33 67  1  0  0  0  0
 33 70  1  0  0  0  0
 34 71  1  0  0  0  0
 34 76  2  0  0  0  0
 35 72  1  0  0  0  0
 35 78  2  0  0  0  0
 36 50  1  0  0  0  0
 36 74  1  0  0  0  0
 36 79  2  0  0  0  0
 37 61  1  0  0  0  0
 37 68  1  0  0  0  0
 37 80  2  0  0  0  0
 38 62  1  0  0  0  0
 38 75  1  0  0  0  0
 38 81  2  0  0  0  0
 39 69  1  0  0  0  0
 39 73  1  0  0  0  0
 39 82  2  0  0  0  0
 40 43  1  0  0  0  0
 41 50  1  0  0  0  0
 42 68  1  0  0  0  0
 43 45  1  0  0  0  0
 44 46  1  0  0  0  0
 44 47  1  0  0  0  0
 45 49  1  0  0  0  0
 46 51  1  0  0  0  0
 47 69  1  0  0  0  0
 48 51  1  0  0  0  0
 48 69  1  0  0  0  0
 49 74  1  0  0  0  0
 50 68  1  0  0  0  0
 51 67  1  0  0  0  0
 52 62  1  0  0  0  0
 53 64  1  0  0  0  0
 54 64  1  0  0  0  0
 55 64  1  0  0  0  0
 56 65  1  0  0  0  0
 57 65  1  0  0  0  0
 58 65  1  0  0  0  0
 59 77  1  0  0  0  0
 60 63  1  0  0  0  0
 60 84  1  0  0  0  0
 61 64  1  0  0  0  0
 61 75  1  0  0  0  0
 62 77  1  0  0  0  0
 63 65  1  0  0  0  0
 63 76  1  0  0  0  0
 66 67  1  0  0  0  0
M  CHG  2  76   1  77   1
M  ISO  4  39 100  60 101  73 100  84 101
M  END
> <Batch ID>
0074

> <Smiles>
CNC(C)C(=O)NC(C(=O)N1Cc2cc([101O:1][101CH2:1]C(NC(=N)c3cc([100NH:0][100C:0](=O)N4CCCC(n5nc(-c6ccc(Oc7ccc(F)cc7F)cc6)c(C(N)=O)c5N)C4)ccc3F)C(C)(C)C)ccc2CC1C(=O)NC1CCCc2ccccc21)C(C)(C)C

> <Shape>
0.254

> <Color>
0.074

> <Negative vol penalty>
0.000

$$$$

  -OEChem-04042323443D

 87 95  0     1  0  0  0  0  0999 V2000
  -19.7341  -26.2824   26.2612 C   0  0  0  0  0  0  0  0  0  0  0  0
  -20.9924  -26.0528   25.7141 C   0  0  0  0  0  0  0  0  0  0  0  0
  -23.7056   -9.6227   21.8638 C   0  0  0  0  0  0  0  0  0  0  0  0
  -22.5307  -11.4426   20.7940 C   0  0  0  0  0  0  0  0  0  0  0  0
  -18.7388  -26.8816   25.4903 C   0  0  0  0  0  0  0  0  0  0  0  0
  -21.2559  -26.4213   24.3953 C   0  0  0  0  0  0  0  0  0  0  0  0
  -26.5544  -28.5112   22.1451 C   0  0  0  0  0  0  0  0  0  0  0  0
  -26.4476  -18.0311   18.0728 C   0  0  0  0  0  0  0  0  0  0  0  0
  -26.1117  -19.3816   17.9785 C   0  0  0  0  0  0  0  0  0  0  0  0
  -22.6370   -9.4498   22.7435 C   0  0  0  0  0  0  0  0  0  0  0  0
  -21.4620  -11.2697   21.6736 C   0  0  0  0  0  0  0  0  0  0  0  0
  -27.5901  -27.8870   21.4512 C   0  0  0  0  0  0  0  0  0  0  0  0
  -21.4535  -10.9253   25.5447 C   0  0  0  0  0  0  0  0  0  0  0  0
  -21.7494  -10.7523   26.8967 C   0  0  0  0  0  0  0  0  0  0  0  0
  -26.6249  -28.6184   19.3649 C   0  0  0  0  0  0  0  0  0  0  0  0
  -28.5043  -18.6210   19.1949 C   0  0  0  0  0  0  0  0  0  0  0  0
  -20.6676   -8.5924   26.8571 C   0  0  0  0  0  0  0  0  0  0  0  0
  -23.6525  -10.6192   20.8891 C   0  0  0  0  0  0  0  0  0  0  0  0
  -24.9366  -10.1796   18.7291 C   0  0  0  0  0  0  0  0  0  0  0  0
  -18.9931  -27.2665   24.1644 C   0  0  0  0  0  0  0  0  0  0  0  0
  -25.5386  -29.1856   21.4525 C   0  0  0  0  0  0  0  0  0  0  0  0
  -20.2626  -27.0250   23.6055 C   0  0  0  0  0  0  0  0  0  0  0  0
  -25.5789  -29.2526   20.0525 C   0  0  0  0  0  0  0  0  0  0  0  0
  -27.6439  -17.6508   18.6810 C   0  0  0  0  0  0  0  0  0  0  0  0
  -26.9720  -20.3518   18.4924 C   0  0  0  0  0  0  0  0  0  0  0  0
  -21.5152  -10.2733   22.6483 C   0  0  0  0  0  0  0  0  0  0  0  0
  -27.6239  -27.9381   20.0607 C   0  0  0  0  0  0  0  0  0  0  0  0
  -20.7645   -9.9318   24.8488 C   0  0  0  0  0  0  0  0  0  0  0  0
  -21.3565   -9.5858   27.5530 C   0  0  0  0  0  0  0  0  0  0  0  0
  -20.3716   -8.7654   25.5051 C   0  0  0  0  0  0  0  0  0  0  0  0
  -28.1684  -19.9716   19.1006 C   0  0  0  0  0  0  0  0  0  0  0  0
  -24.7563  -10.7986   19.9806 C   0  0  0  0  0  0  0  0  0  0  0  0
  -26.1296  -10.6795   18.2674 C   0  0  0  0  0  0  0  0  0  0  0  0
  -24.1003   -9.2370   18.0451 C   0  0  0  0  0  0  0  0  0  0  0  0
  -22.3904  -28.8356   21.1874 C   0  0  0  0  0  0  0  0  0  0  0  0
  -22.6143  -31.6100   19.5216 C   0  0  0  0  0  0  0  0  0  0  0  0
  -29.7567  -25.2360   18.9215 C   0  0  0  0  0  0  0  0  0  0  0  0
  -24.5404  -33.7238   17.6591 C   0  0  0  0  0  0  0  0  0  0  0  0
  -29.1315  -15.7312   19.3508 C   0  0  0  0  0  0  0  0  0  0  0  0
  -17.8714  -27.8678   23.3552 C   0  0  0  0  0  0  0  0  0  0  0  0
  -24.4429  -29.8766   22.2169 C   0  0  0  0  0  0  0  0  0  0  0  0
  -24.5234  -29.9811   19.2627 C   0  0  0  0  0  0  0  0  0  0  0  0
  -18.3450  -28.5695   22.0850 C   0  0  0  0  0  0  0  0  0  0  0  0
  -30.3176  -12.4070   19.8199 C   0  0  0  0  0  0  0  0  0  0  0  0
  -19.3467  -27.6972   21.3350 C   0  0  0  0  0  0  0  0  0  0  0  0
  -29.0431  -11.5603   19.7944 C   0  0  0  0  0  0  0  0  0  0  0  0
  -30.0912  -13.7523   20.5075 C   0  0  0  0  0  0  0  0  0  0  0  0
  -27.6906  -13.6890   19.9578 C   0  0  0  0  0  0  0  0  0  0  0  0
  -20.5944  -27.4332   22.1865 C   0  0  1  0  0  0  0  0  0  0  0  0
  -23.1823  -30.0970   21.3864 C   0  0  1  0  0  0  0  0  0  0  0  0
  -27.8526  -12.3513   19.2175 C   0  0  2  0  0  0  0  0  0  0  0  0
  -24.4351  -35.8940   16.4037 C   0  0  0  0  0  0  0  0  0  0  0  0
  -21.1226  -30.2212   17.2509 C   0  0  0  0  0  0  0  0  0  0  0  0
  -21.8749  -32.0589   15.7260 C   0  0  0  0  0  0  0  0  0  0  0  0
  -20.4109  -32.5805   17.6773 C   0  0  0  0  0  0  0  0  0  0  0  0
  -26.5975  -34.9594   19.3914 C   0  0  0  0  0  0  0  0  0  0  0  0
  -29.2146  -26.1720   19.9805 C   0  0  0  0  0  0  0  0  0  1  0  0
  -30.9407  -23.0609   18.6923 C   0  0  0  0  0  0  0  0  0  0  0  0
  -29.9422  -21.9767   18.3346 C   0  0  0  0  0  0  0  0  0  0  0  0
  -22.8328  -31.9723   18.0725 C   0  0  1  0  0  0  0  0  0  0  0  0
  -24.7486  -35.2256   17.7332 C   0  0  2  0  0  0  0  0  0  0  0  0
  -21.5793  -31.6928   17.1962 C   0  0  0  0  0  0  0  0  0  0  0  0
  -25.7550  -11.6283   20.2940 N   0  0  0  0  0  0  0  0  0  0  0  0
  -26.5743  -11.5340   19.2329 N   0  0  0  0  0  0  0  0  0  0  0  0
  -23.4693  -30.6354   20.0553 N   0  0  0  0  0  0  0  0  0  0  0  0
  -28.9507  -14.4467   19.9058 N   0  0  0  0  0  0  0  0  0  0  0  0
  -26.6107  -21.7128   18.3823 N   0  0  0  0  0  0  0  0  0  0  0  0
  -26.8312  -10.4671   17.1338 N   0  0  0  0  0  0  0  0  0  0  0  0
  -22.9094   -8.8297   18.6618 N   0  0  0  0  0  0  0  0  0  0  0  0
  -27.9839  -16.2787   18.7782 N   0  0  0  0  0  0  0  0  0  0  0  0
  -21.4633  -28.5905   22.1823 N   0  0  0  0  0  0  0  0  0  0  0  0
  -30.3436  -24.1126   19.4824 N   0  0  0  0  0  0  0  0  0  0  0  0
  -23.2716  -33.3636   18.0612 N   0  0  0  0  0  0  0  0  0  0  0  0
  -26.1611  -35.5356   18.0935 N   0  3  0  0  0  0  0  0  0  0  0  0
  -24.4082   -8.7573   16.9278 O   0  0  0  0  0  0  0  0  0  0  0  0
  -22.6037  -28.1373   20.2033 O   0  0  0  0  0  0  0  0  0  0  0  0
  -21.7225  -32.1763   20.1586 O   0  0  0  0  0  0  0  0  0  0  0  0
  -29.6723  -25.4727   17.7194 O   0  0  0  0  0  0  0  0  0  0  0  0
  -25.4146  -32.9480   17.2788 O   0  0  0  0  0  0  0  0  0  0  0  0
  -30.2303  -16.2921   19.3571 O   0  0  0  0  0  0  0  0  0  0  0  0
  -28.4890  -22.1255   20.5120 O   0  0  0  0  0  0  0  0  0  0  0  0
  -30.3750  -20.4587   20.4088 O   0  0  0  0  0  0  0  0  0  0  0  0
  -20.4721  -10.1047   23.5063 O   0  0  0  0  0  0  0  0  0  0  0  0
  -28.6333  -27.3291   19.3809 O   0  0  0  0  0  0  0  0  0  1  0  0
  -21.6421   -9.4192   28.8510 F   0  0  0  0  0  0  0  0  0  0  0  0
  -19.7105   -7.8070   24.8416 F   0  0  0  0  0  0  0  0  0  0  0  0
  -29.2864  -21.1707   19.7622 S   0  0  0  0  0  0  0  0  0  0  0  0
  1  2  1  0  0  0  0
  1  5  2  0  0  0  0
  2  6  2  0  0  0  0
  3 10  2  0  0  0  0
  3 18  1  0  0  0  0
  4 11  1  0  0  0  0
  4 18  2  0  0  0  0
  5 20  1  0  0  0  0
  6 22  1  0  0  0  0
  7 12  2  0  0  0  0
  7 21  1  0  0  0  0
  8  9  2  0  0  0  0
  8 24  1  0  0  0  0
  9 25  1  0  0  0  0
 10 26  1  0  0  0  0
 11 26  2  0  0  0  0
 12 27  1  0  0  0  0
 13 14  2  0  0  0  0
 13 28  1  0  0  0  0
 14 29  1  0  0  0  0
 15 23  1  0  0  0  0
 15 27  2  0  0  0  0
 16 24  2  0  0  0  0
 16 31  1  0  0  0  0
 17 29  2  0  0  0  0
 17 30  1  0  0  0  0
 18 32  1  0  0  0  0
 19 32  1  0  0  0  0
 19 33  2  0  0  0  0
 19 34  1  0  0  0  0
 20 22  2  0  0  0  0
 20 40  1  0  0  0  0
 21 23  2  0  0  0  0
 21 41  1  0  0  0  0
 22 49  1  0  0  0  0
 23 42  1  0  0  0  0
 24 70  1  0  0  0  0
 25 31  2  0  0  0  0
 25 67  1  0  0  0  0
 26 83  1  0  0  0  0
 27 84  1  0  0  0  0
 28 30  2  0  0  0  0
 28 83  1  0  0  0  0
 29 85  1  0  0  0  0
 30 86  1  0  0  0  0
 31 87  1  0  0  0  0
 32 63  2  0  0  0  0
 33 64  1  0  0  0  0
 33 68  1  0  0  0  0
 34 69  1  0  0  0  0
 34 75  2  0  0  0  0
 35 50  1  0  0  0  0
 35 71  1  0  0  0  0
 35 76  2  0  0  0  0
 36 60  1  0  0  0  0
 36 65  1  0  0  0  0
 36 77  2  0  0  0  0
 37 57  1  0  0  0  0
 37 72  1  0  0  0  0
 37 78  2  0  0  0  0
 38 61  1  0  0  0  0
 38 73  1  0  0  0  0
 38 79  2  0  0  0  0
 39 66  1  0  0  0  0
 39 70  1  0  0  0  0
 39 80  2  0  0  0  0
 40 43  1  0  0  0  0
 41 50  1  0  0  0  0
 42 65  1  0  0  0  0
 43 45  1  0  0  0  0
 44 46  1  0  0  0  0
 44 47  1  0  0  0  0
 45 49  1  0  0  0  0
 46 51  1  0  0  0  0
 47 66  1  0  0  0  0
 48 51  1  0  0  0  0
 48 66  1  0  0  0  0
 49 71  1  0  0  0  0
 50 65  1  0  0  0  0
 51 64  1  0  0  0  0
 52 61  1  0  0  0  0
 53 62  1  0  0  0  0
 54 62  1  0  0  0  0
 55 62  1  0  0  0  0
 56 74  1  0  0  0  0
 57 84  1  0  0  0  0
 58 59  1  0  0  0  0
 58 72  1  0  0  0  0
 59 87  1  0  0  0  0
 60 62  1  0  0  0  0
 60 73  1  0  0  0  0
 61 74  1  0  0  0  0
 63 64  1  0  0  0  0
 81 87  2  0  0  0  0
 82 87  2  0  0  0  0
M  CHG  1  74   1
M  ISO  4  39 100  57 101  70 100  84 101
M  END
> <Batch ID>
0074

> <Smiles>
CNC(C)C(=O)NC(C(=O)N1Cc2cc([101O:1][101CH2:1]C(=O)NCCS(=O)(=O)c3cc([100NH:0][100C:0](=O)N4CCCC(n5nc(-c6ccc(Oc7ccc(F)cc7F)cc6)c(C(N)=O)c5N)C4)ccc3N)ccc2CC1C(=O)NC1CCCc2ccccc21)C(C)(C)C

> <Shape>
0.252

> <Color>
0.101

> <Negative vol penalty>
0.000

$$$$

  -OEChem-04042323443D

 88 97  0     1  0  0  0  0  0999 V2000
  -24.2892  -28.9394   23.5838 C   0  0  0  0  0  0  0  0  0  0  0  0
  -24.2710  -27.5483   23.5764 C   0  0  0  0  0  0  0  0  0  0  0  0
  -25.6511  -10.7215   21.4810 C   0  0  0  0  0  0  0  0  0  0  0  0
  -19.4035  -21.4145   23.3542 C   0  0  0  0  0  0  0  0  0  0  0  0
  -19.9124  -20.7494   21.0879 C   0  0  0  0  0  0  0  0  0  0  0  0
  -24.8553  -29.6336   22.5154 C   0  0  0  0  0  0  0  0  0  0  0  0
  -24.8179  -26.8507   22.5000 C   0  0  0  0  0  0  0  0  0  0  0  0
  -27.7504  -21.4781   22.7028 C   0  0  0  0  0  0  0  0  0  0  0  0
  -24.2847  -10.9351   21.2997 C   0  0  0  0  0  0  0  0  0  0  0  0
  -26.5506  -11.7732   21.3061 C   0  0  0  0  0  0  0  0  0  0  0  0
  -19.9235  -22.6833   23.0986 C   0  0  0  0  0  0  0  0  0  0  0  0
  -20.4323  -22.0183   20.8323 C   0  0  0  0  0  0  0  0  0  0  0  0
  -27.3342  -20.1721   22.4478 C   0  0  0  0  0  0  0  0  0  0  0  0
  -20.7875  -26.2106   22.9357 C   0  0  0  0  0  0  0  0  0  0  0  0
  -20.0569  -27.3125   23.3805 C   0  0  0  0  0  0  0  0  0  0  0  0
  -28.1869  -20.3461   20.1979 C   0  0  0  0  0  0  0  0  0  0  0  0
  -24.7173  -13.2520   20.7686 C   0  0  0  0  0  0  0  0  0  0  0  0
  -18.1891  -26.6275   22.0096 C   0  0  0  0  0  0  0  0  0  0  0  0
  -19.3980  -20.4475   22.3488 C   0  0  0  0  0  0  0  0  0  0  0  0
  -17.5308  -18.7117   22.4381 C   0  0  0  0  0  0  0  0  0  0  0  0
  -25.4181  -28.9441   21.4298 C   0  0  0  0  0  0  0  0  0  0  0  0
  -28.3792  -22.2329   21.7022 C   0  0  0  0  0  0  0  0  0  0  0  0
  -25.3908  -27.5364   21.4154 C   0  0  0  0  0  0  0  0  0  0  0  0
  -28.6124  -21.6606   20.4436 C   0  0  0  0  0  0  0  0  0  0  0  0
  -23.8178  -12.2003   20.9435 C   0  0  0  0  0  0  0  0  0  0  0  0
  -26.0838  -13.0384   20.9499 C   0  0  0  0  0  0  0  0  0  0  0  0
  -20.4379  -22.9852   21.8377 C   0  0  0  0  0  0  0  0  0  0  0  0
  -27.5499  -19.6069   21.1943 C   0  0  0  0  0  0  0  0  0  0  0  0
  -20.2189  -25.3172   22.0279 C   0  0  0  0  0  0  0  0  0  0  0  0
  -18.7578  -27.5209   22.9174 C   0  0  0  0  0  0  0  0  0  0  0  0
  -18.9197  -25.5256   21.5648 C   0  0  0  0  0  0  0  0  0  0  0  0
  -18.8615  -19.1365   22.6124 C   0  0  0  0  0  0  0  0  0  0  0  0
  -17.5374  -17.3940   22.8254 C   0  0  0  0  0  0  0  0  0  0  0  0
  -28.9217  -15.3524   20.6447 C   0  0  0  0  0  0  0  0  0  0  0  0
  -27.8842  -16.1448   20.3490 C   0  0  0  0  0  0  0  0  0  0  0  0
  -28.3690  -14.0027   20.9285 C   0  0  0  0  0  0  0  0  0  0  0  0
  -16.3905  -19.4429   21.9680 C   0  0  0  0  0  0  0  0  0  0  0  0
  -27.7026  -24.9357   20.1723 C   0  0  0  0  0  0  0  0  0  0  0  0
  -30.6587  -24.5040   18.9086 C   0  0  0  0  0  0  0  0  0  0  0  0
  -33.1818  -22.3491   18.1102 C   0  0  0  0  0  0  0  0  0  0  0  0
  -21.8335  -13.2288   23.0398 C   0  0  0  0  0  0  0  0  0  0  0  0
  -25.9763  -29.7385   20.2758 C   0  0  0  0  0  0  0  0  0  0  0  0
  -28.8461  -23.6311   22.0015 C   0  0  0  0  0  0  0  0  0  0  0  0
  -29.3014  -22.4218   19.3416 C   0  0  0  0  0  0  0  0  0  0  0  0
  -26.5787  -15.4241   20.4046 C   0  0  0  0  0  0  0  0  0  0  0  0
  -26.8705  -28.9195   19.3484 C   0  0  0  0  0  0  0  0  0  0  0  0
  -19.8118  -14.3602   25.7433 C   0  0  0  0  0  0  0  0  0  0  0  0
  -26.2121  -27.5849   19.0136 C   0  0  0  0  0  0  0  0  0  0  0  0
  -19.2189  -15.6743   25.2318 C   0  0  0  0  0  0  0  0  0  0  0  0
  -21.2461  -14.1615   25.2582 C   0  0  0  0  0  0  0  0  0  0  0  0
  -20.8335  -15.5815   23.2867 C   0  0  0  0  0  0  0  0  0  0  0  0
  -25.9964  -26.7437   20.2774 C   0  0  1  0  0  0  0  0  0  0  0  0
  -29.0149  -24.4856   20.7490 C   0  0  1  0  0  0  0  0  0  0  0  0
  -19.3690  -15.7998   23.7037 C   0  0  2  0  0  0  0  0  0  0  0  0
  -30.3776  -15.6223   20.7157 C   0  0  0  0  0  0  0  0  0  0  0  0
  -35.4565  -22.2846   17.0524 C   0  0  0  0  0  0  0  0  0  0  0  0
  -21.4434  -11.1853   20.9706 C   0  0  0  0  0  0  0  0  0  0  0  0
  -22.0695  -12.9299   19.3059 C   0  0  0  0  0  0  0  0  0  0  0  0
  -29.3806  -24.7624   16.1501 C   0  0  0  0  0  0  0  0  0  0  0  0
  -31.4571  -23.7635   15.1711 C   0  0  0  0  0  0  0  0  0  0  0  0
  -31.5767  -25.9332   16.3961 C   0  0  0  0  0  0  0  0  0  0  0  0
  -34.4364  -21.3439   20.5951 C   0  0  0  0  0  0  0  0  0  0  0  0
  -27.9010  -17.5861   19.9906 C   0  0  0  0  0  0  0  0  0  1  0  0
  -31.2095  -23.7953   17.6947 C   0  0  1  0  0  0  0  0  0  0  0  0
  -34.6788  -22.4168   18.3526 C   0  0  2  0  0  0  0  0  0  0  0  0
  -22.3569  -12.4281   20.7498 C   0  0  0  0  0  0  0  0  0  0  0  0
  -30.8912  -24.5497   16.3730 C   0  0  0  0  0  0  0  0  0  0  0  0
  -19.6558  -18.1672   23.0746 N   0  0  0  0  0  0  0  0  0  0  0  0
  -18.8217  -17.1203   23.1941 N   0  0  0  0  0  0  0  0  0  0  0  0
  -26.9800  -14.0859   20.7765 N   0  0  0  0  0  0  0  0  0  0  0  0
  -29.7337  -23.7875   19.6812 N   0  0  0  0  0  0  0  0  0  0  0  0
  -21.3193  -14.2915   23.8009 N   0  0  0  0  0  0  0  0  0  0  0  0
  -16.5699  -16.4542   22.8831 N   0  0  0  0  0  0  0  0  0  0  0  0
  -16.5596  -20.7879   21.6120 N   0  0  0  0  0  0  0  0  0  0  0  0
  -27.2386  -26.1285   20.6933 N   0  0  0  0  0  0  0  0  0  0  0  0
  -32.6338  -23.6036   17.9453 N   0  0  0  0  0  0  0  0  0  0  0  0
  -21.8617  -13.4317   21.6655 N   0  0  0  0  0  0  0  0  0  0  0  0
  -35.1053  -21.3215   19.2688 N   0  3  0  0  0  0  0  0  0  0  0  0
  -29.0444  -13.0327   21.2342 O   0  0  0  0  0  0  0  0  0  0  0  0
  -15.2519  -18.9236   21.8821 O   0  0  0  0  0  0  0  0  0  0  0  0
  -27.1524  -24.2523   19.3168 O   0  0  0  0  0  0  0  0  0  0  0  0
  -31.0408  -25.6482   19.1660 O   0  0  0  0  0  0  0  0  0  0  0  0
  -32.5612  -21.2891   18.0676 O   0  0  0  0  0  0  0  0  0  0  0  0
  -22.2326  -12.1750   23.5470 O   0  0  0  0  0  0  0  0  0  0  0  0
  -20.9451  -24.2233   21.5879 O   0  0  0  0  0  0  0  0  0  0  0  0
  -27.1441  -18.3326   20.9425 O   0  0  0  0  0  0  0  0  0  1  0  0
  -18.0558  -28.5783   23.3458 F   0  0  0  0  0  0  0  0  0  0  0  0
  -18.3677  -24.6701   20.6935 F   0  0  0  0  0  0  0  0  0  0  0  0
  1  2  1  0  0  0  0
  1  6  2  0  0  0  0
  2  7  2  0  0  0  0
  3  9  1  0  0  0  0
  3 10  2  0  0  0  0
  4 11  2  0  0  0  0
  4 19  1  0  0  0  0
  5 12  1  0  0  0  0
  5 19  2  0  0  0  0
  6 21  1  0  0  0  0
  7 23  1  0  0  0  0
  8 13  2  0  0  0  0
  8 22  1  0  0  0  0
  9 25  2  0  0  0  0
 10 26  1  0  0  0  0
 11 27  1  0  0  0  0
 12 27  2  0  0  0  0
 13 28  1  0  0  0  0
 14 15  2  0  0  0  0
 14 29  1  0  0  0  0
 15 30  1  0  0  0  0
 16 24  1  0  0  0  0
 16 28  2  0  0  0  0
 17 25  1  0  0  0  0
 17 26  2  0  0  0  0
 18 30  2  0  0  0  0
 18 31  1  0  0  0  0
 19 32  1  0  0  0  0
 20 32  1  0  0  0  0
 20 33  2  0  0  0  0
 20 37  1  0  0  0  0
 21 23  2  0  0  0  0
 21 42  1  0  0  0  0
 22 24  2  0  0  0  0
 22 43  1  0  0  0  0
 23 52  1  0  0  0  0
 24 44  1  0  0  0  0
 25 66  1  0  0  0  0
 26 70  1  0  0  0  0
 27 85  1  0  0  0  0
 28 86  1  0  0  0  0
 29 31  2  0  0  0  0
 29 85  1  0  0  0  0
 30 87  1  0  0  0  0
 31 88  1  0  0  0  0
 32 68  2  0  0  0  0
 33 69  1  0  0  0  0
 33 73  1  0  0  0  0
 34 35  2  0  0  0  0
 34 36  1  0  0  0  0
 34 55  1  0  0  0  0
 35 45  1  0  0  0  0
 35 63  1  0  0  0  0
 36 70  1  0  0  0  0
 36 79  2  0  0  0  0
 37 74  1  0  0  0  0
 37 80  2  0  0  0  0
 38 53  1  0  0  0  0
 38 75  1  0  0  0  0
 38 81  2  0  0  0  0
 39 64  1  0  0  0  0
 39 71  1  0  0  0  0
 39 82  2  0  0  0  0
 40 65  1  0  0  0  0
 40 76  1  0  0  0  0
 40 83  2  0  0  0  0
 41 72  1  0  0  0  0
 41 77  1  0  0  0  0
 41 84  2  0  0  0  0
 42 46  1  0  0  0  0
 43 53  1  0  0  0  0
 44 71  1  0  0  0  0
 45 70  1  0  0  0  0
 46 48  1  0  0  0  0
 47 49  1  0  0  0  0
 47 50  1  0  0  0  0
 48 52  1  0  0  0  0
 49 54  1  0  0  0  0
 50 72  1  0  0  0  0
 51 54  1  0  0  0  0
 51 72  1  0  0  0  0
 52 75  1  0  0  0  0
 53 71  1  0  0  0  0
 54 69  1  0  0  0  0
 56 65  1  0  0  0  0
 57 66  1  0  0  0  0
 58 66  1  0  0  0  0
 59 67  1  0  0  0  0
 60 67  1  0  0  0  0
 61 67  1  0  0  0  0
 62 78  1  0  0  0  0
 63 86  1  0  0  0  0
 64 67  1  0  0  0  0
 64 76  1  0  0  0  0
 65 78  1  0  0  0  0
 66 77  1  0  0  0  0
 68 69  1  0  0  0  0
M  CHG  1  78   1
M  ISO  4  41 100  63 101  77 100  86 101
M  END
> <Batch ID>
0074

> <Smiles>
CNC(C)C(=O)NC(C(=O)N1Cc2cc([101O:1][101CH2:1]C3=C(C)C(=O)N(c4cccc(C(C)(C)[100NH:0][100C:0](=O)N5CCCC(n6nc(-c7ccc(Oc8ccc(F)cc8F)cc7)c(C(N)=O)c6N)C5)c4)C3)ccc2CC1C(=O)NC1CCCc2ccccc21)C(C)(C)C

> <Shape>
0.223

> <Color>
0.057

> <Negative vol penalty>
0.000

$$$$

  -OEChem-04042323443D

 83 91  0     1  0  0  0  0  0999 V2000
  -23.5153   -7.0324   23.5408 C   0  0  0  0  0  0  0  0  0  0  0  0
  -24.1775   -7.8551   22.6353 C   0  0  0  0  0  0  0  0  0  0  0  0
  -24.9108  -30.9433   21.0497 C   0  0  0  0  0  0  0  0  0  0  0  0
  -24.8540  -29.2426   22.7648 C   0  0  0  0  0  0  0  0  0  0  0  0
  -29.5285  -20.0581   19.2024 C   0  0  0  0  0  0  0  0  0  0  0  0
  -27.7149  -18.8667   18.1402 C   0  0  0  0  0  0  0  0  0  0  0  0
  -22.1344   -7.1419   23.6997 C   0  0  0  0  0  0  0  0  0  0  0  0
  -23.4590   -8.7871   21.8872 C   0  0  0  0  0  0  0  0  0  0  0  0
  -25.7178  -13.3172   21.7405 C   0  0  0  0  0  0  0  0  0  0  0  0
  -28.9036  -21.2703   18.9099 C   0  0  0  0  0  0  0  0  0  0  0  0
  -27.0899  -20.0789   17.8476 C   0  0  0  0  0  0  0  0  0  0  0  0
  -24.2631  -31.8311   21.9086 C   0  0  0  0  0  0  0  0  0  0  0  0
  -24.2063  -30.1305   23.6238 C   0  0  0  0  0  0  0  0  0  0  0  0
  -26.7977  -13.4623   20.8707 C   0  0  0  0  0  0  0  0  0  0  0  0
  -22.9473  -34.6602   23.7741 C   0  0  0  0  0  0  0  0  0  0  0  0
  -23.4388  -35.9633   23.8509 C   0  0  0  0  0  0  0  0  0  0  0  0
  -25.3540  -14.5422   19.2680 C   0  0  0  0  0  0  0  0  0  0  0  0
  -25.5722  -35.1144   24.6025 C   0  0  0  0  0  0  0  0  0  0  0  0
  -25.2062  -29.6490   21.4778 C   0  0  0  0  0  0  0  0  0  0  0  0
  -28.9342  -18.8563   18.8175 C   0  0  0  0  0  0  0  0  0  0  0  0
  -27.2629  -28.5432   20.4506 C   0  0  0  0  0  0  0  0  0  0  0  0
  -21.4000   -8.0824   22.9602 C   0  0  0  0  0  0  0  0  0  0  0  0
  -24.4434  -13.7744   21.3754 C   0  0  0  0  0  0  0  0  0  0  0  0
  -22.0669   -8.9084   22.0353 C   0  0  0  0  0  0  0  0  0  0  0  0
  -24.2601  -14.4039   20.1359 C   0  0  0  0  0  0  0  0  0  0  0  0
  -27.6842  -21.2807   18.2325 C   0  0  0  0  0  0  0  0  0  0  0  0
  -23.9109  -31.4248   23.1956 C   0  0  0  0  0  0  0  0  0  0  0  0
  -26.6153  -14.0723   19.6331 C   0  0  0  0  0  0  0  0  0  0  0  0
  -23.7682  -33.5841   24.1116 C   0  0  0  0  0  0  0  0  0  0  0  0
  -24.7513  -36.1904   24.2650 C   0  0  0  0  0  0  0  0  0  0  0  0
  -25.0807  -33.8112   24.5258 C   0  0  0  0  0  0  0  0  0  0  0  0
  -25.8748  -28.7311   20.5908 C   0  0  0  0  0  0  0  0  0  0  0  0
  -27.3821  -27.5690   19.4898 C   0  0  0  0  0  0  0  0  0  0  0  0
  -29.6000  -17.5652   19.1289 C   0  0  0  0  0  0  0  0  0  0  0  0
  -28.3475  -29.1912   21.1284 C   0  0  0  0  0  0  0  0  0  0  0  0
  -21.6134  -12.4012   20.9184 C   0  0  0  0  0  0  0  0  0  0  0  0
  -20.6144  -15.4694   20.5857 C   0  0  0  0  0  0  0  0  0  0  0  0
  -21.3955  -18.7051   19.8330 C   0  0  0  0  0  0  0  0  0  0  0  0
  -25.8388  -22.7008   17.2712 C   0  0  0  0  0  0  0  0  0  0  0  0
  -19.9024   -8.1314   23.1318 C   0  0  0  0  0  0  0  0  0  0  0  0
  -23.2944  -13.6343   22.3359 C   0  0  0  0  0  0  0  0  0  0  0  0
  -22.9164  -14.9302   19.7049 C   0  0  0  0  0  0  0  0  0  0  0  0
  -19.2667   -9.4021   22.5736 C   0  0  0  0  0  0  0  0  0  0  0  0
  -23.9250  -25.5681   16.3807 C   0  0  0  0  0  0  0  0  0  0  0  0
  -19.8124   -9.7050   21.1818 C   0  0  0  0  0  0  0  0  0  0  0  0
  -24.3758  -26.6311   17.3851 C   0  0  0  0  0  0  0  0  0  0  0  0
  -23.8586  -24.1801   17.0154 C   0  0  0  0  0  0  0  0  0  0  0  0
  -25.5355  -24.8145   18.7050 C   0  0  0  0  0  0  0  0  0  0  0  0
  -21.3258   -9.9487   21.2237 C   0  0  1  0  0  0  0  0  0  0  0  0
  -21.9329  -13.6748   21.6489 C   0  0  1  0  0  0  0  0  0  0  0  0
  -25.6801  -26.2184   18.0952 C   0  0  2  0  0  0  0  0  0  0  0  0
  -20.3611  -20.9805   19.6097 C   0  0  0  0  0  0  0  0  0  0  0  0
  -30.0539  -14.5157   17.1057 C   0  0  0  0  0  0  0  0  0  0  0  0
  -19.3997  -14.6518   17.9087 C   0  0  0  0  0  0  0  0  0  0  0  0
  -19.2380  -17.0798   17.3197 C   0  0  0  0  0  0  0  0  0  0  0  0
  -17.9744  -16.1859   19.2760 C   0  0  0  0  0  0  0  0  0  0  0  0
  -23.1117  -19.8225   21.9697 C   0  0  0  0  0  0  0  0  0  0  0  0
  -28.9614  -14.3568   19.3669 C   0  0  0  0  0  0  0  0  0  1  0  0
  -20.4859  -16.4325   19.4303 C   0  0  1  0  0  0  0  0  0  0  0  0
  -21.0728  -20.0097   20.5390 C   0  0  2  0  0  0  0  0  0  0  0  0
  -29.8615  -15.1910   18.4572 C   0  0  2  0  0  0  0  0  0  0  0  0
  -19.2995  -16.0759   18.4907 C   0  0  0  0  0  0  0  0  0  0  0  0
  -25.1632  -27.9400   19.7835 N   0  0  0  0  0  0  0  0  0  0  0  0
  -26.1079  -27.2455   19.1267 N   0  0  0  0  0  0  0  0  0  0  0  0
  -21.8227  -14.7640   20.6764 N   0  0  0  0  0  0  0  0  0  0  0  0
  -25.1303  -23.8555   17.6653 N   0  0  0  0  0  0  0  0  0  0  0  0
  -28.4517  -26.9662   18.9284 N   0  0  0  0  0  0  0  0  0  0  0  0
  -28.0477  -30.1688   22.0868 N   0  0  0  0  0  0  0  0  0  0  0  0
  -27.0501  -22.5127   17.9360 N   0  0  0  0  0  0  0  0  0  0  0  0
  -29.3114  -16.5147   18.2724 N   0  0  0  0  0  0  0  0  0  0  0  0
  -21.6103  -11.2772   21.7222 N   0  0  0  0  0  0  0  0  0  0  0  0
  -20.4034  -17.7655   20.0174 N   0  0  0  0  0  0  0  0  0  0  0  0
  -22.3230  -20.6574   21.0274 N   0  3  0  0  0  0  0  0  0  0  0  0
  -30.3336  -17.4899   20.1110 O   0  0  0  0  0  0  0  0  0  0  0  0
  -29.5474  -28.9232   20.8794 O   0  0  0  0  0  0  0  0  0  0  0  0
  -21.3850  -12.4359   19.7149 O   0  0  0  0  0  0  0  0  0  0  0  0
  -19.6801  -15.3527   21.3825 O   0  0  0  0  0  0  0  0  0  0  0  0
  -22.4232  -18.5377   19.1799 O   0  0  0  0  0  0  0  0  0  0  0  0
  -25.4162  -21.9499   16.3883 O   0  0  0  0  0  0  0  0  0  0  0  0
  -23.2790  -32.2910   24.0341 O   0  0  0  0  0  0  0  0  0  0  0  0
  -27.6676  -14.2146   18.7820 O   0  0  0  0  0  0  0  0  0  1  0  0
  -25.2236  -37.4418   24.3372 F   0  0  0  0  0  0  0  0  0  0  0  0
  -25.8745  -32.7814   24.8501 F   0  0  0  0  0  0  0  0  0  0  0  0
  1  2  1  0  0  0  0
  1  7  2  0  0  0  0
  2  8  2  0  0  0  0
  3 12  2  0  0  0  0
  3 19  1  0  0  0  0
  4 13  1  0  0  0  0
  4 19  2  0  0  0  0
  5 10  2  0  0  0  0
  5 20  1  0  0  0  0
  6 11  1  0  0  0  0
  6 20  2  0  0  0  0
  7 22  1  0  0  0  0
  8 24  1  0  0  0  0
  9 14  2  0  0  0  0
  9 23  1  0  0  0  0
 10 26  1  0  0  0  0
 11 26  2  0  0  0  0
 12 27  1  0  0  0  0
 13 27  2  0  0  0  0
 14 28  1  0  0  0  0
 15 16  2  0  0  0  0
 15 29  1  0  0  0  0
 16 30  1  0  0  0  0
 17 25  1  0  0  0  0
 17 28  2  0  0  0  0
 18 30  2  0  0  0  0
 18 31  1  0  0  0  0
 19 32  1  0  0  0  0
 20 34  1  0  0  0  0
 21 32  1  0  0  0  0
 21 33  2  0  0  0  0
 21 35  1  0  0  0  0
 22 24  2  0  0  0  0
 22 40  1  0  0  0  0
 23 25  2  0  0  0  0
 23 41  1  0  0  0  0
 24 49  1  0  0  0  0
 25 42  1  0  0  0  0
 26 69  1  0  0  0  0
 27 80  1  0  0  0  0
 28 81  1  0  0  0  0
 29 31  2  0  0  0  0
 29 80  1  0  0  0  0
 30 82  1  0  0  0  0
 31 83  1  0  0  0  0
 32 63  2  0  0  0  0
 33 64  1  0  0  0  0
 33 67  1  0  0  0  0
 34 70  1  0  0  0  0
 34 74  2  0  0  0  0
 35 68  1  0  0  0  0
 35 75  2  0  0  0  0
 36 50  1  0  0  0  0
 36 71  1  0  0  0  0
 36 76  2  0  0  0  0
 37 59  1  0  0  0  0
 37 65  1  0  0  0  0
 37 77  2  0  0  0  0
 38 60  1  0  0  0  0
 38 72  1  0  0  0  0
 38 78  2  0  0  0  0
 39 66  1  0  0  0  0
 39 69  1  0  0  0  0
 39 79  2  0  0  0  0
 40 43  1  0  0  0  0
 41 50  1  0  0  0  0
 42 65  1  0  0  0  0
 43 45  1  0  0  0  0
 44 46  1  0  0  0  0
 44 47  1  0  0  0  0
 45 49  1  0  0  0  0
 46 51  1  0  0  0  0
 47 66  1  0  0  0  0
 48 51  1  0  0  0  0
 48 66  1  0  0  0  0
 49 71  1  0  0  0  0
 50 65  1  0  0  0  0
 51 64  1  0  0  0  0
 52 60  1  0  0  0  0
 53 61  1  0  0  0  0
 54 62  1  0  0  0  0
 55 62  1  0  0  0  0
 56 62  1  0  0  0  0
 57 73  1  0  0  0  0
 58 61  1  0  0  0  0
 58 81  1  0  0  0  0
 59 62  1  0  0  0  0
 59 72  1  0  0  0  0
 60 73  1  0  0  0  0
 61 70  1  0  0  0  0
 63 64  1  0  0  0  0
M  CHG  1  73   1
M  ISO  4  39 100  58 101  69 100  81 101
M  END
> <Batch ID>
0074

> <Smiles>
CNC(C)C(=O)NC(C(=O)N1Cc2cc([101O:1][101CH2:1]C(C)NC(=O)c3ccc([100NH:0][100C:0](=O)N4CCCC(n5nc(-c6ccc(Oc7ccc(F)cc7F)cc6)c(C(N)=O)c5N)C4)cc3)ccc2CC1C(=O)NC1CCCc2ccccc21)C(C)(C)C

> <Shape>
0.244

> <Color>
0.063

> <Negative vol penalty>
0.000

$$$$

  -OEChem-04042323443D

 86 95  0     1  0  0  0  0  0999 V2000
  -32.6804  -31.2038   22.6866 C   0  0  0  0  0  0  0  0  0  0  0  0
  -31.8770  -30.1893   22.1758 C   0  0  0  0  0  0  0  0  0  0  0  0
  -27.6134  -11.3476   20.8892 C   0  0  0  0  0  0  0  0  0  0  0  0
  -27.5639  -12.3313   23.0953 C   0  0  0  0  0  0  0  0  0  0  0  0
  -32.2387  -31.9627   23.7696 C   0  0  0  0  0  0  0  0  0  0  0  0
  -30.6319  -29.9324   22.7486 C   0  0  0  0  0  0  0  0  0  0  0  0
  -26.9978  -29.2757   19.2834 C   0  0  0  0  0  0  0  0  0  0  0  0
  -25.4660  -20.1298   15.1968 C   0  0  0  0  0  0  0  0  0  0  0  0
  -26.6506  -10.4179   21.2821 C   0  0  0  0  0  0  0  0  0  0  0  0
  -26.6010  -11.4017   23.4882 C   0  0  0  0  0  0  0  0  0  0  0  0
  -26.9482  -28.0403   18.6390 C   0  0  0  0  0  0  0  0  0  0  0  0
  -23.3003  -10.3405   21.7320 C   0  0  0  0  0  0  0  0  0  0  0  0
  -26.0148  -18.8489   15.1378 C   0  0  0  0  0  0  0  0  0  0  0  0
  -22.2380  -10.0999   20.8607 C   0  0  0  0  0  0  0  0  0  0  0  0
  -25.1603  -27.3538   20.1058 C   0  0  0  0  0  0  0  0  0  0  0  0
  -26.6503  -20.5421   17.2619 C   0  0  0  0  0  0  0  0  0  0  0  0
  -22.8768   -7.7738   20.7244 C   0  0  0  0  0  0  0  0  0  0  0  0
  -28.0701  -12.3042   21.7958 C   0  0  0  0  0  0  0  0  0  0  0  0
  -30.3665  -12.9955   20.9261 C   0  0  0  0  0  0  0  0  0  0  0  0
  -30.9834  -31.7213   24.3498 C   0  0  0  0  0  0  0  0  0  0  0  0
  -26.1349  -29.5558   20.3528 C   0  0  0  0  0  0  0  0  0  0  0  0
  -30.1736  -30.6879   23.8412 C   0  0  0  0  0  0  0  0  0  0  0  0
  -25.1992  -28.5944   20.7604 C   0  0  0  0  0  0  0  0  0  0  0  0
  -25.7838  -20.9765   16.2588 C   0  0  0  0  0  0  0  0  0  0  0  0
  -27.1990  -19.2611   17.2029 C   0  0  0  0  0  0  0  0  0  0  0  0
  -26.1444  -10.4450   22.5816 C   0  0  0  0  0  0  0  0  0  0  0  0
  -26.0313  -27.0781   19.0521 C   0  0  0  0  0  0  0  0  0  0  0  0
  -24.1509   -9.2978   22.0995 C   0  0  0  0  0  0  0  0  0  0  0  0
  -22.0262   -8.8165   20.3569 C   0  0  0  0  0  0  0  0  0  0  0  0
  -26.8813  -18.4145   16.1408 C   0  0  0  0  0  0  0  0  0  0  0  0
  -23.9391   -8.0145   21.5957 C   0  0  0  0  0  0  0  0  0  0  0  0
  -29.0651  -13.2644   21.3907 C   0  0  0  0  0  0  0  0  0  0  0  0
  -30.9046  -14.2343   20.6761 C   0  0  0  0  0  0  0  0  0  0  0  0
  -24.0796  -24.9174   16.4757 C   0  0  0  0  0  0  0  0  0  0  0  0
  -31.0296  -11.7384   20.7372 C   0  0  0  0  0  0  0  0  0  0  0  0
  -26.5279  -30.2484   23.4300 C   0  0  0  0  0  0  0  0  0  0  0  0
  -23.3177  -30.7047   23.3363 C   0  0  0  0  0  0  0  0  0  0  0  0
  -20.4676  -29.0673   21.8487 C   0  0  0  0  0  0  0  0  0  0  0  0
  -28.4961  -19.5382   19.3447 C   0  0  0  0  0  0  0  0  0  0  0  0
  -30.5692  -32.5366   25.5491 C   0  0  0  0  0  0  0  0  0  0  0  0
  -26.1828  -30.9030   21.0200 C   0  0  0  0  0  0  0  0  0  0  0  0
  -24.2371  -28.8531   21.8900 C   0  0  0  0  0  0  0  0  0  0  0  0
  -23.2223  -23.6749   16.4666 C   0  0  0  0  0  0  0  0  0  0  0  0
  -29.0773  -32.4476   25.8602 C   0  0  0  0  0  0  0  0  0  0  0  0
  -30.6222  -18.7970   22.1028 C   0  0  0  0  0  0  0  0  0  0  0  0
  -28.6084  -30.9968   25.8162 C   0  0  0  0  0  0  0  0  0  0  0  0
  -30.5874  -17.2693   22.1872 C   0  0  0  0  0  0  0  0  0  0  0  0
  -23.9166  -22.5290   15.7405 C   0  0  0  0  0  0  0  0  0  0  0  0
  -29.2657  -19.3739   21.7017 C   0  0  0  0  0  0  0  0  0  0  0  0
  -25.9752  -23.3544   16.9517 C   0  0  0  0  0  0  0  0  0  0  0  0
  -28.6520  -17.2778   20.5621 C   0  0  0  0  0  0  0  0  0  0  0  0
  -28.8061  -30.3952   24.4196 C   0  0  1  0  0  0  0  0  0  0  0  0
  -25.5818  -24.7125   16.3558 C   0  0  2  0  0  0  0  0  0  0  0  0
  -25.6064  -30.8911   22.4324 C   0  0  1  0  0  0  0  0  0  0  0  0
  -30.0127  -16.6468   20.8996 C   0  0  2  0  0  0  0  0  0  0  0  0
  -18.2390  -29.9858   21.1505 C   0  0  0  0  0  0  0  0  0  0  0  0
  -22.4093  -29.8220   26.1122 C   0  0  0  0  0  0  0  0  0  0  0  0
  -20.2300  -29.1198   25.0994 C   0  0  0  0  0  0  0  0  0  0  0  0
  -20.9272  -31.5135   25.0184 C   0  0  0  0  0  0  0  0  0  0  0  0
  -20.7779  -28.0395   19.0907 C   0  0  0  0  0  0  0  0  0  0  0  0
  -26.3445  -25.8404   17.0456 C   0  0  0  0  0  0  0  0  0  1  0  0
  -22.1067  -29.8285   23.5481 C   0  0  1  0  0  0  0  0  0  0  0  0
  -19.6294  -29.5765   20.6900 C   0  0  2  0  0  0  0  0  0  0  0  0
  -21.4429  -30.0603   24.9348 C   0  0  0  0  0  0  0  0  0  0  0  0
  -28.7930  -14.5714   21.4345 N   0  0  0  0  0  0  0  0  0  0  0  0
  -29.9309  -15.1347   20.9942 N   0  0  0  0  0  0  0  0  0  0  0  0
  -25.2355  -22.2575   16.3174 N   0  0  3  0  0  0  0  0  0  0  0  0
  -24.3272  -30.1831   22.5149 N   0  0  0  0  0  0  0  0  0  0  0  0
  -28.7860  -18.7402   20.4716 N   0  0  0  0  0  0  0  0  0  0  0  0
  -32.1110  -14.6301   20.2175 N   0  0  0  0  0  0  0  0  0  0  0  0
  -31.7616  -11.2020   21.8053 N   0  0  0  0  0  0  0  0  0  0  0  0
  -28.0790  -18.8221   18.2231 N   0  0  0  0  0  0  0  0  0  0  0  0
  -27.7677  -30.8519   23.5209 N   0  0  0  0  0  0  0  0  0  0  0  0
  -21.2224  -30.0733   22.4139 N   0  0  0  0  0  0  0  0  0  0  0  0
  -19.4876  -28.5192   19.6493 N   0  3  0  0  0  0  0  0  0  0  0  0
  -23.5698  -26.0331   16.5762 O   0  0  0  0  0  0  0  0  0  0  0  0
  -30.9881  -11.1174   19.6481 O   0  0  0  0  0  0  0  0  0  0  0  0
  -26.1422  -29.2778   24.0710 O   0  0  0  0  0  0  0  0  0  0  0  0
  -23.3631  -31.8140   23.8739 O   0  0  0  0  0  0  0  0  0  0  0  0
  -20.4513  -27.8952   22.2181 O   0  0  0  0  0  0  0  0  0  0  0  0
  -28.6357  -20.7638   19.3641 O   0  0  0  0  0  0  0  0  0  0  0  0
  -25.2047   -9.5382   22.9652 O   0  0  0  0  0  0  0  0  0  0  0  0
  -25.9813  -25.8713   18.4252 O   0  0  0  0  0  0  0  0  0  1  0  0
  -21.0051   -8.5853   19.5214 F   0  0  0  0  0  0  0  0  0  0  0  0
  -27.4026  -17.1811   16.0739 F   0  0  0  0  0  0  0  0  0  0  0  0
  -24.7522   -7.0085   21.9460 F   0  0  0  0  0  0  0  0  0  0  0  0
  1  2  1  0  0  0  0
  1  5  2  0  0  0  0
  2  6  2  0  0  0  0
  3  9  2  0  0  0  0
  3 18  1  0  0  0  0
  4 10  1  0  0  0  0
  4 18  2  0  0  0  0
  5 20  1  0  0  0  0
  6 22  1  0  0  0  0
  7 11  2  0  0  0  0
  7 21  1  0  0  0  0
  8 13  2  0  0  0  0
  8 24  1  0  0  0  0
  9 26  1  0  0  0  0
 10 26  2  0  0  0  0
 11 27  1  0  0  0  0
 12 14  2  0  0  0  0
 12 28  1  0  0  0  0
 13 30  1  0  0  0  0
 14 29  1  0  0  0  0
 15 23  1  0  0  0  0
 15 27  2  0  0  0  0
 16 24  2  0  0  0  0
 16 25  1  0  0  0  0
 17 29  2  0  0  0  0
 17 31  1  0  0  0  0
 18 32  1  0  0  0  0
 19 32  1  0  0  0  0
 19 33  2  0  0  0  0
 19 35  1  0  0  0  0
 20 22  2  0  0  0  0
 20 40  1  0  0  0  0
 21 23  2  0  0  0  0
 21 41  1  0  0  0  0
 22 52  1  0  0  0  0
 23 42  1  0  0  0  0
 24 67  1  0  0  0  0
 25 30  2  0  0  0  0
 25 72  1  0  0  0  0
 26 82  1  0  0  0  0
 27 83  1  0  0  0  0
 28 31  2  0  0  0  0
 28 82  1  0  0  0  0
 29 84  1  0  0  0  0
 30 85  1  0  0  0  0
 31 86  1  0  0  0  0
 32 65  2  0  0  0  0
 33 66  1  0  0  0  0
 33 70  1  0  0  0  0
 34 43  1  0  0  0  0
 34 53  1  0  0  0  0
 34 76  2  0  0  0  0
 35 71  1  0  0  0  0
 35 77  2  0  0  0  0
 36 54  1  0  0  0  0
 36 73  1  0  0  0  0
 36 78  2  0  0  0  0
 37 62  1  0  0  0  0
 37 68  1  0  0  0  0
 37 79  2  0  0  0  0
 38 63  1  0  0  0  0
 38 74  1  0  0  0  0
 38 80  2  0  0  0  0
 39 69  1  0  0  0  0
 39 72  1  0  0  0  0
 39 81  2  0  0  0  0
 40 44  1  0  0  0  0
 41 54  1  0  0  0  0
 42 68  1  0  0  0  0
 43 48  1  0  0  0  0
 44 46  1  0  0  0  0
 45 47  1  0  0  0  0
 45 49  1  0  0  0  0
 46 52  1  0  0  0  0
 47 55  1  0  0  0  0
 48 67  1  0  0  0  0
 49 69  1  0  0  0  0
 50 53  1  0  0  0  0
 50 67  1  0  0  0  0
 51 55  1  0  0  0  0
 51 69  1  0  0  0  0
 52 73  1  0  0  0  0
 53 61  1  0  0  0  0
 54 68  1  0  0  0  0
 55 66  1  0  0  0  0
 56 63  1  0  0  0  0
 57 64  1  0  0  0  0
 58 64  1  0  0  0  0
 59 64  1  0  0  0  0
 60 75  1  0  0  0  0
 61 83  1  0  0  0  0
 62 64  1  0  0  0  0
 62 74  1  0  0  0  0
 63 75  1  0  0  0  0
 65 66  1  0  0  0  0
M  CHG  1  75   1
M  ISO  4  39 100  61 101  72 100  83 101
M  END
> <Batch ID>
0074

> <Smiles>
CNC(C)C(=O)NC(C(=O)N1Cc2cc([101O:1][101CH2:1]C3CN(c4ccc(F)c([100NH:0][100C:0](=O)N5CCCC(n6nc(-c7ccc(Oc8ccc(F)cc8F)cc7)c(C(N)=O)c6N)C5)c4)CCC3=O)ccc2CC1C(=O)NC1CCCc2ccccc21)C(C)(C)C

> <Shape>
0.247

> <Color>
0.099

> <Negative vol penalty>
0.000

$$$$

  -OEChem-04042323443D

 86 95  0     1  0  0  0  0  0999 V2000
  -29.5051  -32.5842   25.8118 C   0  0  0  0  0  0  0  0  0  0  0  0
  -29.3406  -31.5276   24.9220 C   0  0  0  0  0  0  0  0  0  0  0  0
  -26.2563  -12.6504   21.3228 C   0  0  0  0  0  0  0  0  0  0  0  0
  -26.2859  -12.9424   18.9247 C   0  0  0  0  0  0  0  0  0  0  0  0
  -28.4223  -33.0336   26.5664 C   0  0  0  0  0  0  0  0  0  0  0  0
  -28.0933  -30.9189   24.7870 C   0  0  0  0  0  0  0  0  0  0  0  0
  -26.8338  -30.1223   19.9472 C   0  0  0  0  0  0  0  0  0  0  0  0
  -28.6388  -21.8137   14.4237 C   0  0  0  0  0  0  0  0  0  0  0  0
  -25.0321  -11.9888   21.2272 C   0  0  0  0  0  0  0  0  0  0  0  0
  -25.0618  -12.2806   18.8290 C   0  0  0  0  0  0  0  0  0  0  0  0
  -27.4257  -29.0350   19.3059 C   0  0  0  0  0  0  0  0  0  0  0  0
  -23.9257   -8.9061   20.3868 C   0  0  0  0  0  0  0  0  0  0  0  0
  -28.8664  -20.4400   14.3422 C   0  0  0  0  0  0  0  0  0  0  0  0
  -23.7653   -7.7304   21.1200 C   0  0  0  0  0  0  0  0  0  0  0  0
  -25.4183  -27.7438   19.6553 C   0  0  0  0  0  0  0  0  0  0  0  0
  -29.0742  -21.7448   16.7992 C   0  0  0  0  0  0  0  0  0  0  0  0
  -21.9139   -8.7259   22.3111 C   0  0  0  0  0  0  0  0  0  0  0  0
  -26.8832  -13.1273   20.1716 C   0  0  0  0  0  0  0  0  0  0  0  0
  -29.4315  -13.2367   20.2156 C   0  0  0  0  0  0  0  0  0  0  0  0
  -27.1588  -32.4365   26.4336 C   0  0  0  0  0  0  0  0  0  0  0  0
  -25.5315  -30.0248   20.4579 C   0  0  0  0  0  0  0  0  0  0  0  0
  -26.9929  -31.3598   25.5416 C   0  0  0  0  0  0  0  0  0  0  0  0
  -24.8112  -28.8321   20.3004 C   0  0  0  0  0  0  0  0  0  0  0  0
  -28.7428  -22.4662   15.6523 C   0  0  0  0  0  0  0  0  0  0  0  0
  -29.3018  -20.3711   16.7177 C   0  0  0  0  0  0  0  0  0  0  0  0
  -24.4348  -11.8038   19.9803 C   0  0  0  0  0  0  0  0  0  0  0  0
  -26.7191  -27.8446   19.1624 C   0  0  0  0  0  0  0  0  0  0  0  0
  -23.0803   -9.9918   20.6158 C   0  0  0  0  0  0  0  0  0  0  0  0
  -22.7594   -7.6403   22.0821 C   0  0  0  0  0  0  0  0  0  0  0  0
  -29.1978  -19.7186   15.4891 C   0  0  0  0  0  0  0  0  0  0  0  0
  -22.0744   -9.9016   21.5779 C   0  0  0  0  0  0  0  0  0  0  0  0
  -28.1475  -13.8114   20.2698 C   0  0  0  0  0  0  0  0  0  0  0  0
  -30.2897  -14.2999   20.3548 C   0  0  0  0  0  0  0  0  0  0  0  0
  -28.0295  -26.0430   15.2064 C   0  0  0  0  0  0  0  0  0  0  0  0
  -28.2744  -25.9704   16.5204 C   0  0  0  0  0  0  0  0  0  0  0  0
  -28.1778  -24.6688   14.6614 C   0  0  0  0  0  0  0  0  0  0  0  0
  -29.8142  -11.8644   20.0537 C   0  0  0  0  0  0  0  0  0  0  0  0
  -24.2350  -30.2405   23.3521 C   0  0  0  0  0  0  0  0  0  0  0  0
  -21.4543  -30.0197   21.6964 C   0  0  0  0  0  0  0  0  0  0  0  0
  -19.8392  -28.9984   18.8688 C   0  0  0  0  0  0  0  0  0  0  0  0
  -29.7824  -20.1366   19.1794 C   0  0  0  0  0  0  0  0  0  0  0  0
  -26.0294  -32.9257   27.3052 C   0  0  0  0  0  0  0  0  0  0  0  0
  -24.8974  -31.2153   21.1234 C   0  0  0  0  0  0  0  0  0  0  0  0
  -23.4029  -28.6826   20.8130 C   0  0  0  0  0  0  0  0  0  0  0  0
  -28.5999  -24.5842   16.9667 C   0  0  0  0  0  0  0  0  0  0  0  0
  -24.6518  -32.4721   26.8288 C   0  0  0  0  0  0  0  0  0  0  0  0
  -30.5651  -18.6574   22.3221 C   0  0  0  0  0  0  0  0  0  0  0  0
  -24.6675  -30.9851   26.4890 C   0  0  0  0  0  0  0  0  0  0  0  0
  -30.1565  -17.1932   22.1455 C   0  0  0  0  0  0  0  0  0  0  0  0
  -29.6079  -19.6044   21.6005 C   0  0  0  0  0  0  0  0  0  0  0  0
  -28.9786  -17.8367   20.0041 C   0  0  0  0  0  0  0  0  0  0  0  0
  -25.6496  -30.6900   25.3489 C   0  0  1  0  0  0  0  0  0  0  0  0
  -23.7539  -30.8377   22.0599 C   0  0  1  0  0  0  0  0  0  0  0  0
  -29.9499  -16.8411   20.6593 C   0  0  2  0  0  0  0  0  0  0  0  0
  -27.6719  -27.1866   14.3335 C   0  0  0  0  0  0  0  0  0  0  0  0
  -17.5604  -28.9210   17.8208 C   0  0  0  0  0  0  0  0  0  0  0  0
  -20.6938  -27.7001   23.5271 C   0  0  0  0  0  0  0  0  0  0  0  0
  -18.9183  -27.0717   21.8776 C   0  0  0  0  0  0  0  0  0  0  0  0
  -18.8272  -29.2861   23.0225 C   0  0  0  0  0  0  0  0  0  0  0  0
  -20.7048  -30.6716   16.5862 C   0  0  0  0  0  0  0  0  0  0  0  0
  -28.2549  -27.0676   17.5213 C   0  0  0  0  0  0  0  0  0  1  0  0
  -20.5711  -28.8851   21.2365 C   0  0  1  0  0  0  0  0  0  0  0  0
  -18.8535  -29.7094   17.9593 C   0  0  2  0  0  0  0  0  0  0  0  0
  -19.7798  -28.2376   22.4079 C   0  0  0  0  0  0  0  0  0  0  0  0
  -28.1822  -15.1368   20.4311 N   0  0  0  0  0  0  0  0  0  0  0  0
  -29.4985  -15.4038   20.4795 N   0  0  0  0  0  0  0  0  0  0  0  0
  -28.5160  -23.8346   15.7333 N   0  0  0  0  0  0  0  0  0  0  0  0
  -22.8288  -29.8729   21.4620 N   0  0  0  0  0  0  0  0  0  0  0  0
  -29.4646  -19.2120   20.1968 N   0  0  0  0  0  0  0  0  0  0  0  0
  -31.6365  -14.3889   20.3815 N   0  0  0  0  0  0  0  0  0  0  0  0
  -28.8052  -10.9002   19.9246 N   0  0  0  0  0  0  0  0  0  0  0  0
  -29.6386  -19.6405   17.8841 N   0  0  0  0  0  0  0  0  0  0  0  0
  -25.0738  -31.0665   24.0757 N   0  0  0  0  0  0  0  0  0  0  0  0
  -19.7300  -29.4270   20.1748 N   0  0  0  0  0  0  0  0  0  0  0  0
  -19.4402  -29.8922   16.6016 N   0  3  0  0  0  0  0  0  0  0  0  0
  -28.0230  -24.3738   13.4868 O   0  0  0  0  0  0  0  0  0  0  0  0
  -31.0150  -11.5020   20.0409 O   0  0  0  0  0  0  0  0  0  0  0  0
  -23.8708  -29.1144   23.6698 O   0  0  0  0  0  0  0  0  0  0  0  0
  -20.9426  -31.0033   22.2371 O   0  0  0  0  0  0  0  0  0  0  0  0
  -20.6249  -28.1453   18.4620 O   0  0  0  0  0  0  0  0  0  0  0  0
  -30.1807  -21.2751   19.4385 O   0  0  0  0  0  0  0  0  0  0  0  0
  -23.2404  -11.1580   19.8865 O   0  0  0  0  0  0  0  0  0  0  0  0
  -27.2947  -26.7816   18.5375 O   0  0  0  0  0  0  0  0  0  1  0  0
  -22.6044   -6.5107   22.7851 F   0  0  0  0  0  0  0  0  0  0  0  0
  -29.4139  -18.3988   15.3986 F   0  0  0  0  0  0  0  0  0  0  0  0
  -21.2584  -10.9408   21.8015 F   0  0  0  0  0  0  0  0  0  0  0  0
  1  2  1  0  0  0  0
  1  5  2  0  0  0  0
  2  6  2  0  0  0  0
  3  9  2  0  0  0  0
  3 18  1  0  0  0  0
  4 10  1  0  0  0  0
  4 18  2  0  0  0  0
  5 20  1  0  0  0  0
  6 22  1  0  0  0  0
  7 11  2  0  0  0  0
  7 21  1  0  0  0  0
  8 13  2  0  0  0  0
  8 24  1  0  0  0  0
  9 26  1  0  0  0  0
 10 26  2  0  0  0  0
 11 27  1  0  0  0  0
 12 14  2  0  0  0  0
 12 28  1  0  0  0  0
 13 30  1  0  0  0  0
 14 29  1  0  0  0  0
 15 23  1  0  0  0  0
 15 27  2  0  0  0  0
 16 24  2  0  0  0  0
 16 25  1  0  0  0  0
 17 29  2  0  0  0  0
 17 31  1  0  0  0  0
 18 32  1  0  0  0  0
 19 32  1  0  0  0  0
 19 33  2  0  0  0  0
 19 37  1  0  0  0  0
 20 22  2  0  0  0  0
 20 42  1  0  0  0  0
 21 23  2  0  0  0  0
 21 43  1  0  0  0  0
 22 52  1  0  0  0  0
 23 44  1  0  0  0  0
 24 67  1  0  0  0  0
 25 30  2  0  0  0  0
 25 72  1  0  0  0  0
 26 82  1  0  0  0  0
 27 83  1  0  0  0  0
 28 31  2  0  0  0  0
 28 82  1  0  0  0  0
 29 84  1  0  0  0  0
 30 85  1  0  0  0  0
 31 86  1  0  0  0  0
 32 65  2  0  0  0  0
 33 66  1  0  0  0  0
 33 70  1  0  0  0  0
 34 35  2  0  0  0  0
 34 36  1  0  0  0  0
 34 55  1  0  0  0  0
 35 45  1  0  0  0  0
 35 61  1  0  0  0  0
 36 67  1  0  0  0  0
 36 76  2  0  0  0  0
 37 71  1  0  0  0  0
 37 77  2  0  0  0  0
 38 53  1  0  0  0  0
 38 73  1  0  0  0  0
 38 78  2  0  0  0  0
 39 62  1  0  0  0  0
 39 68  1  0  0  0  0
 39 79  2  0  0  0  0
 40 63  1  0  0  0  0
 40 74  1  0  0  0  0
 40 80  2  0  0  0  0
 41 69  1  0  0  0  0
 41 72  1  0  0  0  0
 41 81  2  0  0  0  0
 42 46  1  0  0  0  0
 43 53  1  0  0  0  0
 44 68  1  0  0  0  0
 45 67  1  0  0  0  0
 46 48  1  0  0  0  0
 47 49  1  0  0  0  0
 47 50  1  0  0  0  0
 48 52  1  0  0  0  0
 49 54  1  0  0  0  0
 50 69  1  0  0  0  0
 51 54  1  0  0  0  0
 51 69  1  0  0  0  0
 52 73  1  0  0  0  0
 53 68  1  0  0  0  0
 54 66  1  0  0  0  0
 56 63  1  0  0  0  0
 57 64  1  0  0  0  0
 58 64  1  0  0  0  0
 59 64  1  0  0  0  0
 60 75  1  0  0  0  0
 61 83  1  0  0  0  0
 62 64  1  0  0  0  0
 62 74  1  0  0  0  0
 63 75  1  0  0  0  0
 65 66  1  0  0  0  0
M  CHG  1  75   1
M  ISO  4  41 100  61 101  72 100  83 101
M  END
> <Batch ID>
0074

> <Smiles>
CNC(C)C(=O)NC(C(=O)N1Cc2cc([101O:1][101CH2:1]C3=C(C)C(=O)N(c4ccc(F)c([100NH:0][100C:0](=O)N5CCCC(n6nc(-c7ccc(Oc8ccc(F)cc8F)cc7)c(C(N)=O)c6N)C5)c4)C3)ccc2CC1C(=O)NC1CCCc2ccccc21)C(C)(C)C

> <Shape>
0.321

> <Color>
0.085

> <Negative vol penalty>
0.000

$$$$

  -OEChem-04042323443D

 85 94  0     1  0  0  0  0  0999 V2000
  -18.0942  -33.4297   24.4019 C   0  0  0  0  0  0  0  0  0  0  0  0
  -19.2865  -33.1491   25.0616 C   0  0  0  0  0  0  0  0  0  0  0  0
  -24.4661   -9.6207   21.5738 C   0  0  0  0  0  0  0  0  0  0  0  0
  -24.8289  -10.7919   23.6556 C   0  0  0  0  0  0  0  0  0  0  0  0
  -17.6643  -32.6071   23.3615 C   0  0  0  0  0  0  0  0  0  0  0  0
  -20.0490  -32.0451   24.6819 C   0  0  0  0  0  0  0  0  0  0  0  0
  -26.8533  -29.8551   24.2112 C   0  0  0  0  0  0  0  0  0  0  0  0
  -30.2901  -20.9456   21.5782 C   0  0  0  0  0  0  0  0  0  0  0  0
  -30.1750  -19.6319   21.1237 C   0  0  0  0  0  0  0  0  0  0  0  0
  -24.1239   -8.4686   22.2816 C   0  0  0  0  0  0  0  0  0  0  0  0
  -24.4866   -9.6397   24.3634 C   0  0  0  0  0  0  0  0  0  0  0  0
  -27.6742  -28.7983   24.6025 C   0  0  0  0  0  0  0  0  0  0  0  0
  -22.8056   -5.3239   23.5420 C   0  0  0  0  0  0  0  0  0  0  0  0
  -21.6800   -4.6152   23.1221 C   0  0  0  0  0  0  0  0  0  0  0  0
  -26.8723  -27.4932   22.7389 C   0  0  0  0  0  0  0  0  0  0  0  0
  -27.7709  -19.7762   21.3158 C   0  0  0  0  0  0  0  0  0  0  0  0
  -20.3057   -6.5618   23.5211 C   0  0  0  0  0  0  0  0  0  0  0  0
  -24.8187  -10.7824   22.2608 C   0  0  0  0  0  0  0  0  0  0  0  0
  -24.3072  -12.9980   21.1045 C   0  0  0  0  0  0  0  0  0  0  0  0
  -18.4267  -31.4980   22.9625 C   0  0  0  0  0  0  0  0  0  0  0  0
  -26.0263  -29.7347   23.0852 C   0  0  0  0  0  0  0  0  0  0  0  0
  -19.6282  -31.2061   23.6361 C   0  0  0  0  0  0  0  0  0  0  0  0
  -26.0438  -28.5509   22.3339 C   0  0  0  0  0  0  0  0  0  0  0  0
  -27.8861  -21.0899   21.7703 C   0  0  0  0  0  0  0  0  0  0  0  0
  -29.1457  -21.6746   21.9015 C   0  0  0  0  0  0  0  0  0  0  0  0
  -28.9154  -19.0472   20.9925 C   0  0  0  0  0  0  0  0  0  0  0  0
  -24.1341   -8.4780   23.6764 C   0  0  0  0  0  0  0  0  0  0  0  0
  -27.6816  -27.6161   23.8680 C   0  0  0  0  0  0  0  0  0  0  0  0
  -22.6813   -6.6515   23.9515 C   0  0  0  0  0  0  0  0  0  0  0  0
  -20.4300   -5.2342   23.1116 C   0  0  0  0  0  0  0  0  0  0  0  0
  -21.4314   -7.2705   23.9411 C   0  0  0  0  0  0  0  0  0  0  0  0
  -25.1728  -11.9727   21.5303 C   0  0  0  0  0  0  0  0  0  0  0  0
  -25.1257  -13.8927   20.4596 C   0  0  0  0  0  0  0  0  0  0  0  0
  -29.4062  -24.8783   22.9317 C   0  0  0  0  0  0  0  0  0  0  0  0
  -28.5371  -23.7295   23.1895 C   0  0  0  0  0  0  0  0  0  0  0  0
  -22.8899  -13.1299   21.2768 C   0  0  0  0  0  0  0  0  0  0  0  0
  -29.4279  -26.1434   23.3657 C   0  0  0  0  0  0  0  0  0  1  0  0
  -22.8878  -29.8173   22.5880 C   0  0  0  0  0  0  0  0  0  0  0  0
  -23.7712  -29.6744   19.4701 C   0  0  0  0  0  0  0  0  0  0  0  0
  -26.1238  -28.7855   17.1632 C   0  0  0  0  0  0  0  0  0  0  0  0
  -29.8333  -16.8517   20.1659 C   0  0  0  0  0  0  0  0  0  0  0  0
  -17.8975  -30.6106   21.8638 C   0  0  0  0  0  0  0  0  0  0  0  0
  -25.1665  -30.8936   22.6607 C   0  0  0  0  0  0  0  0  0  0  0  0
  -25.1897  -28.3786   21.1054 C   0  0  0  0  0  0  0  0  0  0  0  0
  -30.2217  -24.0165   21.9952 C   0  0  0  0  0  0  0  0  0  0  0  0
  -18.9512  -29.6763   21.2747 C   0  0  0  0  0  0  0  0  0  0  0  0
  -29.9595  -13.4850   19.0140 C   0  0  0  0  0  0  0  0  0  0  0  0
  -19.7458  -28.9991   22.3867 C   0  0  0  0  0  0  0  0  0  0  0  0
  -28.6543  -12.8758   19.5309 C   0  0  0  0  0  0  0  0  0  0  0  0
  -30.5549  -14.4789   20.0097 C   0  0  0  0  0  0  0  0  0  0  0  0
  -28.3323  -14.9256   20.9737 C   0  0  0  0  0  0  0  0  0  0  0  0
  -20.4954  -30.0320   23.2369 C   0  0  1  0  0  0  0  0  0  0  0  0
  -23.9825  -30.4737   21.7952 C   0  0  1  0  0  0  0  0  0  0  0  0
  -27.6610  -13.9667   19.9769 C   0  0  2  0  0  0  0  0  0  0  0  0
  -26.6436  -21.8474   22.1100 C   0  0  0  0  0  0  0  0  0  0  0  0
  -30.4498  -27.1474   22.9390 C   0  0  0  0  0  0  0  0  0  0  0  0
  -26.5452  -28.7576   14.6895 C   0  0  0  0  0  0  0  0  0  0  0  0
  -21.9107  -27.2732   19.1826 C   0  0  0  0  0  0  0  0  0  0  0  0
  -23.0676  -26.7224   17.0318 C   0  0  0  0  0  0  0  0  0  0  0  0
  -21.8413  -28.8817   17.2689 C   0  0  0  0  0  0  0  0  0  0  0  0
  -28.4763  -30.5618   17.4266 C   0  0  0  0  0  0  0  0  0  0  0  0
  -24.0355  -28.5626   18.4836 C   0  0  1  0  0  0  0  0  0  0  0  0
  -26.7130  -29.5382   15.9838 C   0  0  2  0  0  0  0  0  0  0  0  0
  -22.7285  -27.8622   18.0159 C   0  0  0  0  0  0  0  0  0  0  0  0
  -26.4439  -12.1944   21.1847 N   0  0  0  0  0  0  0  0  0  0  0  0
  -26.3829  -13.3692   20.5349 N   0  0  0  0  0  0  0  0  0  0  0  0
  -29.2801  -22.9688   22.3481 N   0  0  0  0  0  0  0  0  0  0  0  0
  -24.3614  -29.5379   20.7345 N   0  0  0  0  0  0  0  0  0  0  0  0
  -29.5584  -15.4850   20.3833 N   0  0  0  0  0  0  0  0  0  0  0  0
  -24.8856  -15.0683   19.8409 N   0  0  0  0  0  0  0  0  0  0  0  0
  -22.2035  -12.1195   21.9640 N   0  0  0  0  0  0  0  0  0  0  0  0
  -28.7988  -17.7130   20.5300 N   0  0  0  0  0  0  0  0  0  0  0  0
  -21.6816  -30.4902   22.5460 N   0  0  0  0  0  0  0  0  0  0  0  0
  -24.8167  -29.1534   17.4024 N   0  0  0  0  0  0  0  0  0  0  0  0
  -28.1671  -29.7831   16.1999 N   0  3  0  0  0  0  0  0  0  0  0  0
  -27.5485  -23.5338   23.8654 O   0  0  0  0  0  0  0  0  0  0  0  0
  -22.2487  -14.1066   20.8202 O   0  0  0  0  0  0  0  0  0  0  0  0
  -23.1200  -28.7766   23.1919 O   0  0  0  0  0  0  0  0  0  0  0  0
  -23.0729  -30.6323   19.1288 O   0  0  0  0  0  0  0  0  0  0  0  0
  -26.7584  -27.9516   17.8054 O   0  0  0  0  0  0  0  0  0  0  0  0
  -30.8966  -17.2282   19.6663 O   0  0  0  0  0  0  0  0  0  0  0  0
  -23.7999   -7.3540   24.3673 O   0  0  0  0  0  0  0  0  0  0  0  0
  -28.4814  -26.5828   24.2482 O   0  0  0  0  0  0  0  0  0  1  0  0
  -19.3494   -4.5540   22.7069 F   0  0  0  0  0  0  0  0  0  0  0  0
  -21.3059   -8.5460   24.3322 F   0  0  0  0  0  0  0  0  0  0  0  0
  1  2  1  0  0  0  0
  1  5  2  0  0  0  0
  2  6  2  0  0  0  0
  3 10  2  0  0  0  0
  3 18  1  0  0  0  0
  4 11  1  0  0  0  0
  4 18  2  0  0  0  0
  5 20  1  0  0  0  0
  6 22  1  0  0  0  0
  7 12  2  0  0  0  0
  7 21  1  0  0  0  0
  8  9  2  0  0  0  0
  8 25  1  0  0  0  0
  9 26  1  0  0  0  0
 10 27  1  0  0  0  0
 11 27  2  0  0  0  0
 12 28  1  0  0  0  0
 13 14  2  0  0  0  0
 13 29  1  0  0  0  0
 14 30  1  0  0  0  0
 15 23  1  0  0  0  0
 15 28  2  0  0  0  0
 16 24  1  0  0  0  0
 16 26  2  0  0  0  0
 17 30  2  0  0  0  0
 17 31  1  0  0  0  0
 18 32  1  0  0  0  0
 19 32  1  0  0  0  0
 19 33  2  0  0  0  0
 19 36  1  0  0  0  0
 20 22  2  0  0  0  0
 20 42  1  0  0  0  0
 21 23  2  0  0  0  0
 21 43  1  0  0  0  0
 22 52  1  0  0  0  0
 23 44  1  0  0  0  0
 24 25  2  0  0  0  0
 24 55  1  0  0  0  0
 25 67  1  0  0  0  0
 26 72  1  0  0  0  0
 27 82  1  0  0  0  0
 28 83  1  0  0  0  0
 29 31  2  0  0  0  0
 29 82  1  0  0  0  0
 30 84  1  0  0  0  0
 31 85  1  0  0  0  0
 32 65  2  0  0  0  0
 33 66  1  0  0  0  0
 33 70  1  0  0  0  0
 34 35  1  0  0  0  0
 34 37  2  0  0  0  0
 34 45  1  0  0  0  0
 35 67  1  0  0  0  0
 35 76  2  0  0  0  0
 36 71  1  0  0  0  0
 36 77  2  0  0  0  0
 37 56  1  0  0  0  0
 37 83  1  0  0  0  0
 38 53  1  0  0  0  0
 38 73  1  0  0  0  0
 38 78  2  0  0  0  0
 39 62  1  0  0  0  0
 39 68  1  0  0  0  0
 39 79  2  0  0  0  0
 40 63  1  0  0  0  0
 40 74  1  0  0  0  0
 40 80  2  0  0  0  0
 41 69  1  0  0  0  0
 41 72  1  0  0  0  0
 41 81  2  0  0  0  0
 42 46  1  0  0  0  0
 43 53  1  0  0  0  0
 44 68  1  0  0  0  0
 45 67  1  0  0  0  0
 46 48  1  0  0  0  0
 47 49  1  0  0  0  0
 47 50  1  0  0  0  0
 48 52  1  0  0  0  0
 49 54  1  0  0  0  0
 50 69  1  0  0  0  0
 51 54  1  0  0  0  0
 51 69  1  0  0  0  0
 52 73  1  0  0  0  0
 53 68  1  0  0  0  0
 54 66  1  0  0  0  0
 57 63  1  0  0  0  0
 58 64  1  0  0  0  0
 59 64  1  0  0  0  0
 60 64  1  0  0  0  0
 61 75  1  0  0  0  0
 62 64  1  0  0  0  0
 62 74  1  0  0  0  0
 63 75  1  0  0  0  0
 65 66  1  0  0  0  0
M  CHG  1  75   1
M  ISO  4  37 101  41 100  72 100  83 101
M  END
> <Batch ID>
0074

> <Smiles>
CNC(C)C(=O)NC(C(=O)N1Cc2cc([101O:1][101C:1](C)=C3CN(c4ccc([100NH:0][100C:0](=O)N5CCCC(n6nc(-c7ccc(Oc8ccc(F)cc8F)cc7)c(C(N)=O)c6N)C5)cc4C)C3=O)ccc2CC1C(=O)NC1CCCc2ccccc21)C(C)(C)C

> <Shape>
0.261

> <Color>
0.128

> <Negative vol penalty>
0.000

$$$$

  -OEChem-04042323443D

 90 99  0     1  0  0  0  0  0999 V2000
  -27.4135  -31.8373   27.9234 C   0  0  0  0  0  0  0  0  0  0  0  0
  -27.5641  -30.8152   26.9917 C   0  0  0  0  0  0  0  0  0  0  0  0
  -24.6007   -8.4843   21.3176 C   0  0  0  0  0  0  0  0  0  0  0  0
  -23.8527  -10.5372   22.3487 C   0  0  0  0  0  0  0  0  0  0  0  0
  -26.1666  -32.4338   28.1066 C   0  0  0  0  0  0  0  0  0  0  0  0
  -26.4677  -30.3883   26.2434 C   0  0  0  0  0  0  0  0  0  0  0  0
  -27.5796  -29.7819   21.3402 C   0  0  0  0  0  0  0  0  0  0  0  0
  -29.3066  -19.6216   17.0349 C   0  0  0  0  0  0  0  0  0  0  0  0
  -27.7137  -18.7490   18.6281 C   0  0  0  0  0  0  0  0  0  0  0  0
  -29.3112  -20.8431   17.7085 C   0  0  0  0  0  0  0  0  0  0  0  0
  -27.7183  -19.9705   19.3017 C   0  0  0  0  0  0  0  0  0  0  0  0
  -24.0407   -7.7538   22.3657 C   0  0  0  0  0  0  0  0  0  0  0  0
  -23.2927   -9.8067   23.3968 C   0  0  0  0  0  0  0  0  0  0  0  0
  -28.2665  -28.6229   20.9817 C   0  0  0  0  0  0  0  0  0  0  0  0
  -20.9692   -6.6927   23.3000 C   0  0  0  0  0  0  0  0  0  0  0  0
  -20.2248   -5.5589   22.9747 C   0  0  0  0  0  0  0  0  0  0  0  0
  -26.1934  -27.6266   20.2543 C   0  0  0  0  0  0  0  0  0  0  0  0
  -21.7463   -4.1912   24.2599 C   0  0  0  0  0  0  0  0  0  0  0  0
  -24.5068   -9.8760   21.3092 C   0  0  0  0  0  0  0  0  0  0  0  0
  -24.4601  -11.0080   19.0235 C   0  0  0  0  0  0  0  0  0  0  0  0
  -25.0565  -32.0205   27.3533 C   0  0  0  0  0  0  0  0  0  0  0  0
  -26.1905  -29.8681   21.1683 C   0  0  0  0  0  0  0  0  0  0  0  0
  -25.2046  -30.9789   26.4176 C   0  0  0  0  0  0  0  0  0  0  0  0
  -25.4916  -28.7888   20.6090 C   0  0  0  0  0  0  0  0  0  0  0  0
  -28.5078  -18.5746   17.4947 C   0  0  0  0  0  0  0  0  0  0  0  0
  -28.5171  -21.0175   18.8419 C   0  0  0  0  0  0  0  0  0  0  0  0
  -23.3866   -8.4150   23.4052 C   0  0  0  0  0  0  0  0  0  0  0  0
  -27.5730  -27.5439   20.4413 C   0  0  0  0  0  0  0  0  0  0  0  0
  -22.1023   -6.5758   24.1052 C   0  0  0  0  0  0  0  0  0  0  0  0
  -20.6133   -4.3081   23.4547 C   0  0  0  0  0  0  0  0  0  0  0  0
  -22.4908   -5.3251   24.5852 C   0  0  0  0  0  0  0  0  0  0  0  0
  -25.0856  -10.6311   20.2271 C   0  0  0  0  0  0  0  0  0  0  0  0
  -25.4254  -11.7047   18.3385 C   0  0  0  0  0  0  0  0  0  0  0  0
  -27.8615  -22.6577   20.6106 C   0  0  0  0  0  0  0  0  0  0  0  0
  -27.7791  -16.9093   14.4052 C   0  0  0  0  0  0  0  0  0  0  0  0
  -23.1259  -10.7512   18.5658 C   0  0  0  0  0  0  0  0  0  0  0  0
  -27.4402  -17.1491   15.6832 C   0  0  0  0  0  0  0  0  0  0  0  0
  -29.3839  -24.3417   21.7138 C   0  0  0  0  0  0  0  0  0  0  0  0
  -23.7093  -30.2611   23.1158 C   0  0  0  0  0  0  0  0  0  0  0  0
  -22.0506  -30.4355   20.3337 C   0  0  0  0  0  0  0  0  0  0  0  0
  -21.8664  -29.6546   17.0166 C   0  0  0  0  0  0  0  0  0  0  0  0
  -29.5097  -15.5054   18.2014 C   0  0  0  0  0  0  0  0  0  0  0  0
  -23.7183  -32.6629   27.6201 C   0  0  0  0  0  0  0  0  0  0  0  0
  -25.4681  -31.1353   21.5352 C   0  0  0  0  0  0  0  0  0  0  0  0
  -24.0030  -28.8384   20.3852 C   0  0  0  0  0  0  0  0  0  0  0  0
  -22.6903  -32.4081   26.5208 C   0  0  0  0  0  0  0  0  0  0  0  0
  -30.3788  -12.2096   19.2305 C   0  0  0  0  0  0  0  0  0  0  0  0
  -22.6827  -30.9341   26.1283 C   0  0  0  0  0  0  0  0  0  0  0  0
  -29.0283  -11.5388   19.4881 C   0  0  0  0  0  0  0  0  0  0  0  0
  -30.3657  -13.6804   19.6412 C   0  0  0  0  0  0  0  0  0  0  0  0
  -27.9278  -13.8090   19.3042 C   0  0  0  0  0  0  0  0  0  0  0  0
  -29.2171  -23.4699   19.2204 C   0  0  0  0  0  0  0  0  0  0  0  0
  -24.0445  -30.5050   25.5692 C   0  0  1  0  0  0  0  0  0  0  0  0
  -23.9799  -30.9214   21.7935 C   0  0  1  0  0  0  0  0  0  0  0  0
  -27.8747  -12.3390   18.8540 C   0  0  2  0  0  0  0  0  0  0  0  0
  -28.5071  -24.0654   20.4732 C   0  0  1  0  0  0  0  0  0  0  0  0
  -25.9953  -17.3225   16.0684 C   0  0  0  0  0  0  0  0  0  0  0  0
  -28.6899  -24.3307   23.0490 C   0  0  0  0  0  0  0  0  0  0  0  0
  -20.3726  -29.8997   15.0151 C   0  0  0  0  0  0  0  0  0  0  0  0
  -20.2304  -28.2441   21.4268 C   0  0  0  0  0  0  0  0  0  0  0  0
  -19.3935  -27.8735   19.0965 C   0  0  0  0  0  0  0  0  0  0  0  0
  -19.0414  -30.0775   20.2105 C   0  0  0  0  0  0  0  0  0  0  0  0
  -23.9137  -31.1917   15.5318 C   0  0  0  0  0  0  0  0  0  0  0  0
  -27.5232  -25.1808   20.1779 C   0  0  0  0  0  0  0  0  0  1  0  0
  -28.5029  -17.2687   16.7744 C   0  0  2  0  0  0  0  0  0  0  0  0
  -21.3611  -29.4369   19.4356 C   0  0  1  0  0  0  0  0  0  0  0  0
  -21.5293  -30.4982   15.8004 C   0  0  2  0  0  0  0  0  0  0  0  0
  -20.0344  -28.9060   20.0482 C   0  0  0  0  0  0  0  0  0  0  0  0
  -26.3504  -11.0533   20.3051 N   0  0  0  0  0  0  0  0  0  0  0  0
  -26.5275  -11.7026   19.1419 N   0  0  0  0  0  0  0  0  0  0  0  0
  -28.5216  -22.2217   19.5064 N   0  0  0  0  0  0  0  0  0  0  0  0
  -23.3407  -30.0969   20.7659 N   0  0  0  0  0  0  0  0  0  0  0  0
  -29.2490  -14.3828   19.0044 N   0  0  0  0  0  0  0  0  0  0  0  0
  -25.4305  -12.3128   17.1332 N   0  0  0  0  0  0  0  0  0  0  0  0
  -22.2642  -10.0200   19.3947 N   0  0  0  0  0  0  0  0  0  0  0  0
  -24.1964  -30.9600   24.2038 N   0  0  0  0  0  0  0  0  0  0  0  0
  -21.2017  -30.0929   18.1423 N   0  0  0  0  0  0  0  0  0  0  0  0
  -28.3956  -16.1083   17.6304 N   0  0  0  0  0  0  0  0  0  0  0  0
  -22.7095  -30.5980   14.8959 N   0  3  0  0  0  0  0  0  0  0  0  0
  -27.0805  -22.1236   21.3652 O   0  0  0  0  0  0  0  0  0  0  0  0
  -22.7153  -11.1441   17.4475 O   0  0  0  0  0  0  0  0  0  0  0  0
  -30.5907  -24.5581   21.6157 O   0  0  0  0  0  0  0  0  0  0  0  0
  -23.1022  -29.1970   23.1468 O   0  0  0  0  0  0  0  0  0  0  0  0
  -21.4688  -31.4807   20.6346 O   0  0  0  0  0  0  0  0  0  0  0  0
  -22.6390  -28.6998   16.9716 O   0  0  0  0  0  0  0  0  0  0  0  0
  -30.6512  -15.9351   18.0033 O   0  0  0  0  0  0  0  0  0  0  0  0
  -22.8398   -7.7026   24.4279 O   0  0  0  0  0  0  0  0  0  0  0  0
  -28.2409  -26.4111   20.0911 O   0  0  0  0  0  0  0  0  0  1  0  0
  -19.8975   -3.2196   23.1435 F   0  0  0  0  0  0  0  0  0  0  0  0
  -23.5777   -5.2067   25.3601 F   0  0  0  0  0  0  0  0  0  0  0  0
  1  2  1  0  0  0  0
  1  5  2  0  0  0  0
  2  6  2  0  0  0  0
  3 12  2  0  0  0  0
  3 19  1  0  0  0  0
  4 13  1  0  0  0  0
  4 19  2  0  0  0  0
  5 21  1  0  0  0  0
  6 23  1  0  0  0  0
  7 14  2  0  0  0  0
  7 22  1  0  0  0  0
  8 10  2  0  0  0  0
  8 25  1  0  0  0  0
  9 11  1  0  0  0  0
  9 25  2  0  0  0  0
 10 26  1  0  0  0  0
 11 26  2  0  0  0  0
 12 27  1  0  0  0  0
 13 27  2  0  0  0  0
 14 28  1  0  0  0  0
 15 16  2  0  0  0  0
 15 29  1  0  0  0  0
 16 30  1  0  0  0  0
 17 24  1  0  0  0  0
 17 28  2  0  0  0  0
 18 30  2  0  0  0  0
 18 31  1  0  0  0  0
 19 32  1  0  0  0  0
 20 32  1  0  0  0  0
 20 33  2  0  0  0  0
 20 36  1  0  0  0  0
 21 23  2  0  0  0  0
 21 43  1  0  0  0  0
 22 24  2  0  0  0  0
 22 44  1  0  0  0  0
 23 53  1  0  0  0  0
 24 45  1  0  0  0  0
 25 65  1  0  0  0  0
 26 71  1  0  0  0  0
 27 87  1  0  0  0  0
 28 88  1  0  0  0  0
 29 31  2  0  0  0  0
 29 87  1  0  0  0  0
 30 89  1  0  0  0  0
 31 90  1  0  0  0  0
 32 69  2  0  0  0  0
 33 70  1  0  0  0  0
 33 74  1  0  0  0  0
 34 56  1  0  0  0  0
 34 71  1  0  0  0  0
 34 80  2  0  0  0  0
 35 37  2  0  0  0  0
 36 75  1  0  0  0  0
 36 81  2  0  0  0  0
 37 57  1  0  0  0  0
 37 65  1  0  0  0  0
 38 56  1  0  0  0  0
 38 58  1  0  0  0  0
 38 82  2  0  0  0  0
 39 54  1  0  0  0  0
 39 76  1  0  0  0  0
 39 83  2  0  0  0  0
 40 66  1  0  0  0  0
 40 72  1  0  0  0  0
 40 84  2  0  0  0  0
 41 67  1  0  0  0  0
 41 77  1  0  0  0  0
 41 85  2  0  0  0  0
 42 73  1  0  0  0  0
 42 78  1  0  0  0  0
 42 86  2  0  0  0  0
 43 46  1  0  0  0  0
 44 54  1  0  0  0  0
 45 72  1  0  0  0  0
 46 48  1  0  0  0  0
 47 49  1  0  0  0  0
 47 50  1  0  0  0  0
 48 53  1  0  0  0  0
 49 55  1  0  0  0  0
 50 73  1  0  0  0  0
 51 55  1  0  0  0  0
 51 73  1  0  0  0  0
 52 56  1  0  0  0  0
 52 71  1  0  0  0  0
 53 76  1  0  0  0  0
 54 72  1  0  0  0  0
 55 70  1  0  0  0  0
 56 64  1  0  0  0  0
 59 67  1  0  0  0  0
 60 68  1  0  0  0  0
 61 68  1  0  0  0  0
 62 68  1  0  0  0  0
 63 79  1  0  0  0  0
 64 88  1  0  0  0  0
 65 78  1  0  0  0  0
 66 68  1  0  0  0  0
 66 77  1  0  0  0  0
 67 79  1  0  0  0  0
 69 70  1  0  0  0  0
M  CHG  1  79   1
M  ISO  4  42 100  64 101  78 100  88 101
M  END
> <Batch ID>
0074

> <Smiles>
C=C(C)C([100NH:0][100C:0](=O)N1CCCC(n2nc(-c3ccc(Oc4ccc(F)cc4F)cc3)c(C(N)=O)c2N)C1)c1ccc(N2CC(C(C)=O)([101CH2:1][101O:1]c3ccc4c(c3)CN(C(=O)C(NC(=O)C(C)NC)C(C)(C)C)C(C(=O)NC3CCCc5ccccc53)C4)C2=O)cc1

> <Shape>
0.275

> <Color>
0.101

> <Negative vol penalty>
0.000

$$$$

  -OEChem-04042323443D

 82 90  0     1  0  0  0  0  0999 V2000
  -18.4885  -32.6281   20.4571 C   0  0  0  0  0  0  0  0  0  0  0  0
  -19.7922  -32.3806   20.0393 C   0  0  0  0  0  0  0  0  0  0  0  0
  -28.5725  -10.6940   21.5317 C   0  0  0  0  0  0  0  0  0  0  0  0
  -27.0125  -11.9981   20.2268 C   0  0  0  0  0  0  0  0  0  0  0  0
  -30.8262  -22.0945   18.6733 C   0  0  0  0  0  0  0  0  0  0  0  0
  -30.0313  -23.3108   20.6035 C   0  0  0  0  0  0  0  0  0  0  0  0
  -18.0603  -32.1775   21.7051 C   0  0  0  0  0  0  0  0  0  0  0  0
  -20.6688  -31.6832   20.8698 C   0  0  0  0  0  0  0  0  0  0  0  0
  -25.0646  -27.7862   19.1390 C   0  0  0  0  0  0  0  0  0  0  0  0
  -30.8371  -20.9165   19.4200 C   0  0  0  0  0  0  0  0  0  0  0  0
  -30.0421  -22.1327   21.3503 C   0  0  0  0  0  0  0  0  0  0  0  0
  -27.7156   -9.5958   21.4586 C   0  0  0  0  0  0  0  0  0  0  0  0
  -26.1556  -10.8999   20.1536 C   0  0  0  0  0  0  0  0  0  0  0  0
  -26.4400  -27.9390   18.9691 C   0  0  0  0  0  0  0  0  0  0  0  0
  -23.3923   -8.5498   19.9279 C   0  0  0  0  0  0  0  0  0  0  0  0
  -22.0338   -8.7712   20.1538 C   0  0  0  0  0  0  0  0  0  0  0  0
  -26.8042  -27.0776   21.1927 C   0  0  0  0  0  0  0  0  0  0  0  0
  -22.5357   -9.5872   22.3718 C   0  0  0  0  0  0  0  0  0  0  0  0
  -28.2209  -11.8952   20.9158 C   0  0  0  0  0  0  0  0  0  0  0  0
  -30.4233  -23.2917   19.2650 C   0  0  0  0  0  0  0  0  0  0  0  0
  -30.1365  -13.3656   20.0937 C   0  0  0  0  0  0  0  0  0  0  0  0
  -18.9292  -31.4659   22.5473 C   0  0  0  0  0  0  0  0  0  0  0  0
  -24.5473  -27.2873   20.3431 C   0  0  0  0  0  0  0  0  0  0  0  0
  -20.2522  -31.2238   22.1308 C   0  0  0  0  0  0  0  0  0  0  0  0
  -25.4221  -26.9170   21.3744 C   0  0  0  0  0  0  0  0  0  0  0  0
  -30.4451  -20.9355   20.7585 C   0  0  0  0  0  0  0  0  0  0  0  0
  -26.5072   -9.6987   20.7696 C   0  0  0  0  0  0  0  0  0  0  0  0
  -27.3098  -27.5874   19.9971 C   0  0  0  0  0  0  0  0  0  0  0  0
  -24.3225   -8.8469   20.9240 C   0  0  0  0  0  0  0  0  0  0  0  0
  -21.6055   -9.2899   21.3758 C   0  0  0  0  0  0  0  0  0  0  0  0
  -23.8942   -9.3657   22.1459 C   0  0  0  0  0  0  0  0  0  0  0  0
  -29.1054  -13.0301   20.9914 C   0  0  0  0  0  0  0  0  0  0  0  0
  -30.6741  -14.5216   20.6047 C   0  0  0  0  0  0  0  0  0  0  0  0
  -30.4119  -24.5465   18.4698 C   0  0  0  0  0  0  0  0  0  0  0  0
  -30.5696  -12.6925   18.9041 C   0  0  0  0  0  0  0  0  0  0  0  0
  -22.6213  -28.4275   22.6002 C   0  0  0  0  0  0  0  0  0  0  0  0
  -22.8510  -25.4117   23.7727 C   0  0  0  0  0  0  0  0  0  0  0  0
  -24.6281  -22.5044   23.9621 C   0  0  0  0  0  0  0  0  0  0  0  0
  -30.0981  -19.5821   22.8547 C   0  0  0  0  0  0  0  0  0  0  0  0
  -18.4351  -31.0400   23.9071 C   0  0  0  0  0  0  0  0  0  0  0  0
  -23.0627  -27.1035   20.5006 C   0  0  0  0  0  0  0  0  0  0  0  0
  -24.9184  -26.3578   22.6790 C   0  0  0  0  0  0  0  0  0  0  0  0
  -19.3136  -29.9825   24.5706 C   0  0  0  0  0  0  0  0  0  0  0  0
  -29.9535  -16.7972   25.0684 C   0  0  0  0  0  0  0  0  0  0  0  0
  -20.7860  -30.3655   24.4597 C   0  0  0  0  0  0  0  0  0  0  0  0
  -29.8048  -15.5964   24.1312 C   0  0  0  0  0  0  0  0  0  0  0  0
  -29.1878  -18.0154   24.5552 C   0  0  0  0  0  0  0  0  0  0  0  0
  -29.3442  -17.2024   22.2349 C   0  0  0  0  0  0  0  0  0  0  0  0
  -21.2252  -30.4492   22.9929 C   0  0  1  0  0  0  0  0  0  0  0  0
  -22.6165  -27.0686   21.9591 C   0  0  1  0  0  0  0  0  0  0  0  0
  -30.1511  -15.9706   22.6767 C   0  0  2  0  0  0  0  0  0  0  0  0
  -24.5812  -20.2327   25.0273 C   0  0  0  0  0  0  0  0  0  0  0  0
  -23.6954  -26.6444   26.4330 C   0  0  0  0  0  0  0  0  0  0  0  0
  -24.5337  -24.3911   27.1315 C   0  0  0  0  0  0  0  0  0  0  0  0
  -22.1119  -24.7189   26.6314 C   0  0  0  0  0  0  0  0  0  0  0  0
  -24.5686  -21.1454   21.3337 C   0  0  0  0  0  0  0  0  0  0  0  0
  -30.5635  -27.0213   18.5620 C   0  0  0  0  0  0  0  0  0  0  0  0
  -29.1642  -27.6080   18.5082 C   0  0  0  0  0  0  0  0  0  1  0  0
  -23.7792  -24.7050   24.7308 C   0  0  1  0  0  0  0  0  0  0  0  0
  -24.2074  -21.0544   23.8035 C   0  0  2  0  0  0  0  0  0  0  0  0
  -23.5397  -25.1272   26.2079 C   0  0  0  0  0  0  0  0  0  0  0  0
  -28.9929  -13.9024   21.9967 N   0  0  0  0  0  0  0  0  0  0  0  0
  -29.9603  -14.7973   21.7337 N   0  0  0  0  0  0  0  0  0  0  0  0
  -23.4583  -26.2027   22.7872 N   0  0  0  0  0  0  0  0  0  0  0  0
  -29.5704  -18.3129   23.1732 N   0  0  0  0  0  0  0  0  0  0  0  0
  -31.6831  -15.3189   20.1940 N   0  0  0  0  0  0  0  0  0  0  0  0
  -29.9077  -11.5175   18.5226 N   0  0  0  0  0  0  0  0  0  0  0  0
  -30.4564  -19.7382   21.5161 N   0  0  0  0  0  0  0  0  0  0  0  0
  -30.5763  -25.7251   19.1866 N   0  0  0  0  0  0  0  0  0  0  0  0
  -21.4368  -29.1236   22.4522 N   0  0  0  0  0  0  0  0  0  0  0  0
  -23.6118  -23.2771   24.4829 N   0  0  0  0  0  0  0  0  0  0  0  0
  -24.8684  -20.4506   22.6121 N   0  3  0  0  0  0  0  0  0  0  0  0
  -30.2419  -24.4854   17.2549 O   0  0  0  0  0  0  0  0  0  0  0  0
  -31.5263  -13.1114   18.2093 O   0  0  0  0  0  0  0  0  0  0  0  0
  -23.6248  -28.8151   23.1870 O   0  0  0  0  0  0  0  0  0  0  0  0
  -21.6322  -25.2616   23.8898 O   0  0  0  0  0  0  0  0  0  0  0  0
  -25.7477  -22.9101   23.6581 O   0  0  0  0  0  0  0  0  0  0  0  0
  -30.2482  -20.4563   23.7122 O   0  0  0  0  0  0  0  0  0  0  0  0
  -25.6710   -8.6272   20.6979 O   0  0  0  0  0  0  0  0  0  0  0  0
  -28.6527  -27.7361   19.8342 O   0  0  0  0  0  0  0  0  0  1  0  0
  -20.3011   -9.5040   21.5920 F   0  0  0  0  0  0  0  0  0  0  0  0
  -24.7833   -9.6542   23.1062 F   0  0  0  0  0  0  0  0  0  0  0  0
  1  2  1  0  0  0  0
  1  7  2  0  0  0  0
  2  8  2  0  0  0  0
  3 12  2  0  0  0  0
  3 19  1  0  0  0  0
  4 13  1  0  0  0  0
  4 19  2  0  0  0  0
  5 10  2  0  0  0  0
  5 20  1  0  0  0  0
  6 11  1  0  0  0  0
  6 20  2  0  0  0  0
  7 22  1  0  0  0  0
  8 24  1  0  0  0  0
  9 14  2  0  0  0  0
  9 23  1  0  0  0  0
 10 26  1  0  0  0  0
 11 26  2  0  0  0  0
 12 27  1  0  0  0  0
 13 27  2  0  0  0  0
 14 28  1  0  0  0  0
 15 16  2  0  0  0  0
 15 29  1  0  0  0  0
 16 30  1  0  0  0  0
 17 25  1  0  0  0  0
 17 28  2  0  0  0  0
 18 30  2  0  0  0  0
 18 31  1  0  0  0  0
 19 32  1  0  0  0  0
 20 34  1  0  0  0  0
 21 32  1  0  0  0  0
 21 33  2  0  0  0  0
 21 35  1  0  0  0  0
 22 24  2  0  0  0  0
 22 40  1  0  0  0  0
 23 25  2  0  0  0  0
 23 41  1  0  0  0  0
 24 49  1  0  0  0  0
 25 42  1  0  0  0  0
 26 68  1  0  0  0  0
 27 79  1  0  0  0  0
 28 80  1  0  0  0  0
 29 31  2  0  0  0  0
 29 79  1  0  0  0  0
 30 81  1  0  0  0  0
 31 82  1  0  0  0  0
 32 62  2  0  0  0  0
 33 63  1  0  0  0  0
 33 66  1  0  0  0  0
 34 69  1  0  0  0  0
 34 73  2  0  0  0  0
 35 67  1  0  0  0  0
 35 74  2  0  0  0  0
 36 50  1  0  0  0  0
 36 70  1  0  0  0  0
 36 75  2  0  0  0  0
 37 59  1  0  0  0  0
 37 64  1  0  0  0  0
 37 76  2  0  0  0  0
 38 60  1  0  0  0  0
 38 71  1  0  0  0  0
 38 77  2  0  0  0  0
 39 65  1  0  0  0  0
 39 68  1  0  0  0  0
 39 78  2  0  0  0  0
 40 43  1  0  0  0  0
 41 50  1  0  0  0  0
 42 64  1  0  0  0  0
 43 45  1  0  0  0  0
 44 46  1  0  0  0  0
 44 47  1  0  0  0  0
 45 49  1  0  0  0  0
 46 51  1  0  0  0  0
 47 65  1  0  0  0  0
 48 51  1  0  0  0  0
 48 65  1  0  0  0  0
 49 70  1  0  0  0  0
 50 64  1  0  0  0  0
 51 63  1  0  0  0  0
 52 60  1  0  0  0  0
 53 61  1  0  0  0  0
 54 61  1  0  0  0  0
 55 61  1  0  0  0  0
 56 72  1  0  0  0  0
 57 58  1  0  0  0  0
 57 69  1  0  0  0  0
 58 80  1  0  0  0  0
 59 61  1  0  0  0  0
 59 71  1  0  0  0  0
 60 72  1  0  0  0  0
 62 63  1  0  0  0  0
M  CHG  1  72   1
M  ISO  4  39 100  58 101  68 100  80 101
M  END
> <Batch ID>
0074

> <Smiles>
CNC(C)C(=O)NC(C(=O)N1Cc2cc([101O:1][101CH2:1]CNC(=O)c3ccc([100NH:0][100C:0](=O)N4CCCC(n5nc(-c6ccc(Oc7ccc(F)cc7F)cc6)c(C(N)=O)c5N)C4)cc3)ccc2CC1C(=O)NC1CCCc2ccccc21)C(C)(C)C

> <Shape>
0.229

> <Color>
0.084

> <Negative vol penalty>
0.000

$$$$

  -OEChem-04042323443D

 87 96  0     1  0  0  0  0  0999 V2000
  -19.4084   -8.7459   20.7194 C   0  0  0  0  0  0  0  0  0  0  0  0
  -19.4997  -10.0906   21.0643 C   0  0  0  0  0  0  0  0  0  0  0  0
  -24.8564  -26.6959   23.1063 C   0  0  0  0  0  0  0  0  0  0  0  0
  -22.7258  -28.9838   22.0125 C   0  0  0  0  0  0  0  0  0  0  0  0
  -23.9862  -28.8900   19.9534 C   0  0  0  0  0  0  0  0  0  0  0  0
  -20.5611   -7.9642   20.6546 C   0  0  0  0  0  0  0  0  0  0  0  0
  -20.7438  -10.6541   21.3456 C   0  0  0  0  0  0  0  0  0  0  0  0
  -22.5641  -16.3672   20.0992 C   0  0  0  0  0  0  0  0  0  0  0  0
  -24.2252  -25.5451   23.5783 C   0  0  0  0  0  0  0  0  0  0  0  0
  -25.9405  -26.5893   22.2351 C   0  0  0  0  0  0  0  0  0  0  0  0
  -21.6063  -28.4804   21.3502 C   0  0  0  0  0  0  0  0  0  0  0  0
  -22.8666  -28.3866   19.2911 C   0  0  0  0  0  0  0  0  0  0  0  0
  -22.6353  -17.5202   20.8796 C   0  0  0  0  0  0  0  0  0  0  0  0
  -20.4890  -25.4747   20.2774 C   0  0  0  0  0  0  0  0  0  0  0  0
  -19.7669  -24.4594   20.9046 C   0  0  0  0  0  0  0  0  0  0  0  0
  -24.9633  -17.0693   21.3227 C   0  0  0  0  0  0  0  0  0  0  0  0
  -25.7622  -24.1810   22.3079 C   0  0  0  0  0  0  0  0  0  0  0  0
  -17.7994  -25.8616   20.9092 C   0  0  0  0  0  0  0  0  0  0  0  0
  -23.9158  -29.1887   21.3141 C   0  0  0  0  0  0  0  0  0  0  0  0
  -25.1812  -30.9436   22.6656 C   0  0  0  0  0  0  0  0  0  0  0  0
  -21.8210   -8.5208   20.9259 C   0  0  0  0  0  0  0  0  0  0  0  0
  -23.6910  -15.5493   19.9332 C   0  0  0  0  0  0  0  0  0  0  0  0
  -21.9143   -9.8789   21.2857 C   0  0  0  0  0  0  0  0  0  0  0  0
  -24.9045  -15.9078   20.5375 C   0  0  0  0  0  0  0  0  0  0  0  0
  -24.6781  -24.2876   23.1791 C   0  0  0  0  0  0  0  0  0  0  0  0
  -26.3935  -25.3318   21.8359 C   0  0  0  0  0  0  0  0  0  0  0  0
  -21.6766  -28.1817   19.9895 C   0  0  0  0  0  0  0  0  0  0  0  0
  -23.8343  -17.8699   21.4939 C   0  0  0  0  0  0  0  0  0  0  0  0
  -19.8663  -26.6835   19.9662 C   0  0  0  0  0  0  0  0  0  0  0  0
  -18.4221  -24.6528   21.2205 C   0  0  0  0  0  0  0  0  0  0  0  0
  -18.5216  -26.8769   20.2821 C   0  0  0  0  0  0  0  0  0  0  0  0
  -25.0725  -29.7092   21.9976 C   0  0  0  0  0  0  0  0  0  0  0  0
  -26.4692  -30.9640   23.1420 C   0  0  0  0  0  0  0  0  0  0  0  0
  -22.2762  -21.1122   24.4296 C   0  0  0  0  0  0  0  0  0  0  0  0
  -22.9633  -20.9430   23.2877 C   0  0  0  0  0  0  0  0  0  0  0  0
  -24.2051  -31.9793   22.8399 C   0  0  0  0  0  0  0  0  0  0  0  0
  -24.4026  -12.5370   20.6567 C   0  0  0  0  0  0  0  0  0  0  0  0
  -27.1156  -13.1904   19.0030 C   0  0  0  0  0  0  0  0  0  0  0  0
  -27.6494  -24.1543   20.0374 C   0  0  0  0  0  0  0  0  0  0  0  0
  -29.3209  -15.5323   17.8632 C   0  0  0  0  0  0  0  0  0  0  0  0
  -28.3317  -26.3640   20.7747 C   0  0  0  0  0  0  0  0  0  0  0  0
  -23.0336   -7.6248   20.8890 C   0  0  0  0  0  0  0  0  0  0  0  0
  -23.6048  -14.3231   19.0664 C   0  0  0  0  0  0  0  0  0  0  0  0
  -26.1484  -15.0745   20.3741 C   0  0  0  0  0  0  0  0  0  0  0  0
  -22.5255  -22.2567   25.3609 C   0  0  0  0  0  0  0  0  0  0  0  0
  -24.0172  -21.9220   22.8227 C   0  0  0  0  0  0  0  0  0  0  0  0
  -24.3541   -8.3888   20.8364 C   0  0  0  0  0  0  0  0  0  0  0  0
  -28.1313  -27.1756   24.3719 C   0  0  0  0  0  0  0  0  0  0  0  0
  -24.3597   -9.5165   21.8637 C   0  0  0  0  0  0  0  0  0  0  0  0
  -28.5810  -28.6317   24.3888 C   0  0  0  0  0  0  0  0  0  0  0  0
  -23.8596  -22.9515   25.0936 C   0  0  0  0  0  0  0  0  0  0  0  0
  -28.8321  -26.3785   23.2767 C   0  0  0  0  0  0  0  0  0  0  0  0
  -29.0729  -28.4435   21.9028 C   0  0  0  0  0  0  0  0  0  0  0  0
  -23.2484  -10.5325   21.5737 C   0  0  1  0  0  0  0  0  0  0  0  0
  -24.6798  -13.2888   19.3857 C   0  0  1  0  0  0  0  0  0  0  0  0
  -28.4515  -29.3074   23.0152 C   0  0  1  0  0  0  0  0  0  0  0  0
  -26.4250  -23.2934   19.8138 C   0  0  0  0  0  0  0  0  0  0  0  0
  -31.4611  -15.7595   16.5728 C   0  0  0  0  0  0  0  0  0  0  0  0
  -28.6825  -12.2250   21.4367 C   0  0  0  0  0  0  0  0  0  0  0  0
  -30.7118  -13.3415   20.4861 C   0  0  0  0  0  0  0  0  0  0  0  0
  -29.6119  -11.4838   19.2364 C   0  0  0  0  0  0  0  0  0  0  0  0
  -28.0194  -17.1673   15.7675 C   0  0  0  0  0  0  0  0  0  0  0  0
  -22.7152  -19.7698   22.3850 C   0  0  0  0  0  0  0  0  0  1  0  0
  -28.4767  -13.7397   19.3560 C   0  0  1  0  0  0  0  0  0  0  0  0
  -29.9424  -15.7491   16.4953 C   0  0  2  0  0  0  0  0  0  0  0  0
  -29.3470  -12.7124   20.1336 C   0  0  0  0  0  0  0  0  0  0  0  0
  -26.2015  -28.9970   22.0433 N   0  0  0  0  0  0  0  0  0  0  0  0
  -27.0319  -29.7865   22.7456 N   0  0  0  0  0  0  0  0  0  0  0  0
  -24.0453  -23.1354   23.6514 N   0  0  1  0  0  0  0  0  0  0  0  0
  -26.0118  -13.8816   19.5221 N   0  0  0  0  0  0  0  0  0  0  0  0
  -28.7146  -27.0233   21.9625 N   0  0  0  0  0  0  0  0  0  0  0  0
  -27.1641  -31.8740   23.8571 N   0  0  0  0  0  0  0  0  0  0  0  0
  -24.1283  -32.9940   21.8762 N   0  0  0  0  0  0  0  0  0  0  0  0
  -23.6318  -11.4033   20.4832 N   0  0  0  0  0  0  0  0  0  0  0  0
  -29.0691  -14.1982   18.1041 N   0  0  0  0  0  0  0  0  0  0  0  0
  -27.5158  -25.2220   20.9357 N   0  0  0  0  0  0  0  0  0  0  0  0
  -29.4922  -17.0489   15.9219 N   0  3  0  0  0  0  0  0  0  0  0  0
  -23.4352  -32.0131   23.8297 O   0  0  0  0  0  0  0  0  0  0  0  0
  -24.8558  -12.9537   21.7163 O   0  0  0  0  0  0  0  0  0  0  0  0
  -27.0347  -12.1891   18.2871 O   0  0  0  0  0  0  0  0  0  0  0  0
  -28.7075  -23.8688   19.4697 O   0  0  0  0  0  0  0  0  0  0  0  0
  -29.0859  -16.4538   18.6417 O   0  0  0  0  0  0  0  0  0  0  0  0
  -28.7331  -26.7173   19.6590 O   0  0  0  0  0  0  0  0  0  0  0  0
  -20.5844  -27.6902   19.3429 O   0  0  0  0  0  0  0  0  0  0  0  0
  -23.9063  -18.9945   22.2567 O   0  0  0  0  0  0  0  0  0  1  0  0
  -17.7284  -23.6772   21.8213 F   0  0  0  0  0  0  0  0  0  0  0  0
  -17.9176  -28.0356   19.9845 F   0  0  0  0  0  0  0  0  0  0  0  0
  1  2  1  0  0  0  0
  1  6  2  0  0  0  0
  2  7  2  0  0  0  0
  3  9  2  0  0  0  0
  3 10  1  0  0  0  0
  4 11  2  0  0  0  0
  4 19  1  0  0  0  0
  5 12  1  0  0  0  0
  5 19  2  0  0  0  0
  6 21  1  0  0  0  0
  7 23  1  0  0  0  0
  8 13  2  0  0  0  0
  8 22  1  0  0  0  0
  9 25  1  0  0  0  0
 10 26  2  0  0  0  0
 11 27  1  0  0  0  0
 12 27  2  0  0  0  0
 13 28  1  0  0  0  0
 14 15  2  0  0  0  0
 14 29  1  0  0  0  0
 15 30  1  0  0  0  0
 16 24  1  0  0  0  0
 16 28  2  0  0  0  0
 17 25  2  0  0  0  0
 17 26  1  0  0  0  0
 18 30  2  0  0  0  0
 18 31  1  0  0  0  0
 19 32  1  0  0  0  0
 20 32  1  0  0  0  0
 20 33  2  0  0  0  0
 20 36  1  0  0  0  0
 21 23  2  0  0  0  0
 21 42  1  0  0  0  0
 22 24  2  0  0  0  0
 22 43  1  0  0  0  0
 23 54  1  0  0  0  0
 24 44  1  0  0  0  0
 25 69  1  0  0  0  0
 26 76  1  0  0  0  0
 27 84  1  0  0  0  0
 28 85  1  0  0  0  0
 29 31  2  0  0  0  0
 29 84  1  0  0  0  0
 30 86  1  0  0  0  0
 31 87  1  0  0  0  0
 32 67  2  0  0  0  0
 33 68  1  0  0  0  0
 33 72  1  0  0  0  0
 34 35  2  0  0  0  0
 34 45  1  0  0  0  0
 35 46  1  0  0  0  0
 35 63  1  0  0  0  0
 36 73  1  0  0  0  0
 36 78  2  0  0  0  0
 37 55  1  0  0  0  0
 37 74  1  0  0  0  0
 37 79  2  0  0  0  0
 38 64  1  0  0  0  0
 38 70  1  0  0  0  0
 38 80  2  0  0  0  0
 39 57  1  0  0  0  0
 39 76  1  0  0  0  0
 39 81  2  0  0  0  0
 40 65  1  0  0  0  0
 40 75  1  0  0  0  0
 40 82  2  0  0  0  0
 41 71  1  0  0  0  0
 41 76  1  0  0  0  0
 41 83  2  0  0  0  0
 42 47  1  0  0  0  0
 43 55  1  0  0  0  0
 44 70  1  0  0  0  0
 45 51  1  0  0  0  0
 46 69  1  0  0  0  0
 47 49  1  0  0  0  0
 48 50  1  0  0  0  0
 48 52  1  0  0  0  0
 49 54  1  0  0  0  0
 50 56  1  0  0  0  0
 51 69  1  0  0  0  0
 52 71  1  0  0  0  0
 53 56  1  0  0  0  0
 53 71  1  0  0  0  0
 54 74  1  0  0  0  0
 55 70  1  0  0  0  0
 56 68  1  0  0  0  0
 58 65  1  0  0  0  0
 59 66  1  0  0  0  0
 60 66  1  0  0  0  0
 61 66  1  0  0  0  0
 62 77  1  0  0  0  0
 63 85  1  0  0  0  0
 64 66  1  0  0  0  0
 64 75  1  0  0  0  0
 65 77  1  0  0  0  0
 67 68  1  0  0  0  0
M  CHG  1  77   1
M  ISO  4  41 100  63 101  76 100  85 101
M  END
> <Batch ID>
0074

> <Smiles>
CNC(C)C(=O)NC(C(=O)N1Cc2cc([101O:1][101CH2:1]C3=CCCN(c4cccc([100N:0](C(C)=O)[100C:0](=O)N5CCCC(n6nc(-c7ccc(Oc8ccc(F)cc8F)cc7)c(C(N)=O)c6N)C5)c4)C3)ccc2CC1C(=O)NC1CCCc2ccccc21)C(C)(C)C

> <Shape>
0.229

> <Color>
0.060

> <Negative vol penalty>
0.000

$$$$

  -OEChem-04042323443D

 85 93  0     1  0  0  0  0  0999 V2000
  -29.7452  -34.6142   26.1851 C   0  0  0  0  0  0  0  0  0  0  0  0
  -29.2962  -33.3500   25.8168 C   0  0  0  0  0  0  0  0  0  0  0  0
  -24.2786   -8.5156   20.3978 C   0  0  0  0  0  0  0  0  0  0  0  0
  -22.9296  -10.4430   20.9477 C   0  0  0  0  0  0  0  0  0  0  0  0
  -29.4344  -20.1584   20.2188 C   0  0  0  0  0  0  0  0  0  0  0  0
  -28.1251  -19.6449   18.2544 C   0  0  0  0  0  0  0  0  0  0  0  0
  -28.8419  -35.6714   26.2863 C   0  0  0  0  0  0  0  0  0  0  0  0
  -27.9434  -33.1421   25.5504 C   0  0  0  0  0  0  0  0  0  0  0  0
  -27.1876  -30.3938   21.3646 C   0  0  0  0  0  0  0  0  0  0  0  0
  -29.4962  -18.8007   20.5326 C   0  0  0  0  0  0  0  0  0  0  0  0
  -28.1869  -18.2871   18.5681 C   0  0  0  0  0  0  0  0  0  0  0  0
  -23.2756   -7.6756   20.8816 C   0  0  0  0  0  0  0  0  0  0  0  0
  -21.9266   -9.6030   21.4315 C   0  0  0  0  0  0  0  0  0  0  0  0
  -27.3721  -29.0156   21.4659 C   0  0  0  0  0  0  0  0  0  0  0  0
  -22.1630   -6.5993   23.8863 C   0  0  0  0  0  0  0  0  0  0  0  0
  -22.5467   -5.5393   24.7077 C   0  0  0  0  0  0  0  0  0  0  0  0
  -24.9854  -28.7156   21.6480 C   0  0  0  0  0  0  0  0  0  0  0  0
  -21.6053   -3.9735   23.1269 C   0  0  0  0  0  0  0  0  0  0  0  0
  -24.1056   -9.8993   20.4309 C   0  0  0  0  0  0  0  0  0  0  0  0
  -28.7488  -20.5805   19.0797 C   0  0  0  0  0  0  0  0  0  0  0  0
  -25.2888  -11.2463   18.6162 C   0  0  0  0  0  0  0  0  0  0  0  0
  -27.4788  -35.4786   26.0116 C   0  0  0  0  0  0  0  0  0  0  0  0
  -25.8992  -30.9451   21.4153 C   0  0  0  0  0  0  0  0  0  0  0  0
  -27.0207  -34.1974   25.6492 C   0  0  0  0  0  0  0  0  0  0  0  0
  -24.7871  -30.1009   21.5446 C   0  0  0  0  0  0  0  0  0  0  0  0
  -28.8724  -17.8651   19.7072 C   0  0  0  0  0  0  0  0  0  0  0  0
  -22.0996   -8.2192   21.3984 C   0  0  0  0  0  0  0  0  0  0  0  0
  -26.2711  -28.1765   21.6105 C   0  0  0  0  0  0  0  0  0  0  0  0
  -21.5003   -6.3464   22.6852 C   0  0  0  0  0  0  0  0  0  0  0  0
  -22.2679   -4.2264   24.3280 C   0  0  0  0  0  0  0  0  0  0  0  0
  -21.2215   -5.0335   22.3055 C   0  0  0  0  0  0  0  0  0  0  0  0
  -25.1415  -10.7676   19.9318 C   0  0  0  0  0  0  0  0  0  0  0  0
  -26.4187  -12.0260   18.6590 C   0  0  0  0  0  0  0  0  0  0  0  0
  -27.0579  -26.1836   20.6724 C   0  0  0  0  0  0  0  0  0  1  0  0
  -28.6833  -22.0183   18.7473 C   0  0  0  0  0  0  0  0  0  0  0  0
  -24.4768  -11.0076   17.4589 C   0  0  0  0  0  0  0  0  0  0  0  0
  -27.2830  -24.8650   20.6638 C   0  0  0  0  0  0  0  0  0  0  0  0
  -27.9515  -24.2708   19.4822 C   0  0  0  0  0  0  0  0  0  0  0  0
  -24.3968  -32.9607   23.3605 C   0  0  0  0  0  0  0  0  0  0  0  0
  -22.0404  -32.7320   21.1430 C   0  0  0  0  0  0  0  0  0  0  0  0
  -20.5798  -30.9250   18.6433 C   0  0  0  0  0  0  0  0  0  0  0  0
  -29.5737  -15.8993   21.1180 C   0  0  0  0  0  0  0  0  0  0  0  0
  -26.5327  -36.6410   26.1803 C   0  0  0  0  0  0  0  0  0  0  0  0
  -25.7153  -32.4316   21.2778 C   0  0  0  0  0  0  0  0  0  0  0  0
  -23.3818  -30.6412   21.5840 C   0  0  0  0  0  0  0  0  0  0  0  0
  -25.1752  -36.4226   25.5171 C   0  0  0  0  0  0  0  0  0  0  0  0
  -29.9246  -12.5495   22.2724 C   0  0  0  0  0  0  0  0  0  0  0  0
  -24.6334  -35.0369   25.8536 C   0  0  0  0  0  0  0  0  0  0  0  0
  -28.7236  -11.8266   21.6582 C   0  0  0  0  0  0  0  0  0  0  0  0
  -29.5742  -13.9761   22.6916 C   0  0  0  0  0  0  0  0  0  0  0  0
  -27.7613  -14.0765   21.0266 C   0  0  0  0  0  0  0  0  0  0  0  0
  -25.5648  -33.9379   25.3281 C   0  0  1  0  0  0  0  0  0  0  0  0
  -24.3941  -32.9264   21.8583 C   0  0  1  0  0  0  0  0  0  0  0  0
  -28.0826  -12.6577   20.5294 C   0  0  2  0  0  0  0  0  0  0  0  0
  -18.6459  -30.9787   17.0451 C   0  0  0  0  0  0  0  0  0  0  0  0
  -20.1441  -31.9938   23.4165 C   0  0  0  0  0  0  0  0  0  0  0  0
  -18.5272  -31.1507   21.7010 C   0  0  0  0  0  0  0  0  0  0  0  0
  -19.1799  -33.5582   21.7202 C   0  0  0  0  0  0  0  0  0  0  0  0
  -22.3736  -30.8782   16.2898 C   0  0  0  0  0  0  0  0  0  0  0  0
  -20.8490  -31.8277   20.9383 C   0  0  1  0  0  0  0  0  0  0  0  0
  -20.1127  -31.3215   17.2544 C   0  0  2  0  0  0  0  0  0  0  0  0
  -19.7015  -32.1223   21.9453 C   0  0  0  0  0  0  0  0  0  0  0  0
  -26.1012  -11.2063   20.7507 N   0  0  0  0  0  0  0  0  0  0  0  0
  -26.8624  -11.9688   19.9474 N   0  0  0  0  0  0  0  0  0  0  0  0
  -23.2542  -32.1019   21.4521 N   0  0  0  0  0  0  0  0  0  0  0  0
  -28.9756  -14.7042   21.5708 N   0  0  0  0  0  0  0  0  0  0  0  0
  -27.0661  -12.7479   17.7198 N   0  0  0  0  0  0  0  0  0  0  0  0
  -23.3520  -10.1818   17.5906 N   0  0  0  0  0  0  0  0  0  0  0  0
  -28.9351  -16.4858   20.0259 N   0  0  0  0  0  0  0  0  0  0  0  0
  -28.1163  -22.8467   19.6356 N   0  0  0  0  0  0  0  0  0  0  0  0
  -25.3841  -33.7608   23.9032 N   0  0  0  0  0  0  0  0  0  0  0  0
  -20.4657  -31.9682   19.5377 N   0  0  0  0  0  0  0  0  0  0  0  0
  -29.1951  -22.4095   17.5808 N   0  3  0  0  0  0  0  0  0  0  0  0
  -20.9137  -30.6128   16.2166 N   0  3  0  0  0  0  0  0  0  0  0  0
  -24.7501  -11.4984   16.3373 O   0  0  0  0  0  0  0  0  0  0  0  0
  -28.3279  -24.8750   18.4913 O   0  0  0  0  0  0  0  0  0  0  0  0
  -23.5638  -32.3107   23.9812 O   0  0  0  0  0  0  0  0  0  0  0  0
  -21.9008  -33.9520   21.0256 O   0  0  0  0  0  0  0  0  0  0  0  0
  -21.0001  -29.8011   18.9092 O   0  0  0  0  0  0  0  0  0  0  0  0
  -30.5941  -16.3533   21.6420 O   0  0  0  0  0  0  0  0  0  0  0  0
  -26.9220  -24.0341   21.7016 O   0  0  0  0  0  0  0  0  0  0  0  0
  -21.1207   -7.3998   21.8704 O   0  0  0  0  0  0  0  0  0  0  0  0
  -26.4484  -26.8310   21.7103 O   0  0  0  0  0  0  0  0  0  1  0  0
  -22.6379   -3.2085   25.1162 F   0  0  0  0  0  0  0  0  0  0  0  0
  -20.5863   -4.7843   21.1521 F   0  0  0  0  0  0  0  0  0  0  0  0
  1  2  1  0  0  0  0
  1  7  2  0  0  0  0
  2  8  2  0  0  0  0
  3 12  2  0  0  0  0
  3 19  1  0  0  0  0
  4 13  1  0  0  0  0
  4 19  2  0  0  0  0
  5 10  2  0  0  0  0
  5 20  1  0  0  0  0
  6 11  1  0  0  0  0
  6 20  2  0  0  0  0
  7 22  1  0  0  0  0
  8 24  1  0  0  0  0
  9 14  2  0  0  0  0
  9 23  1  0  0  0  0
 10 26  1  0  0  0  0
 11 26  2  0  0  0  0
 12 27  1  0  0  0  0
 13 27  2  0  0  0  0
 14 28  1  0  0  0  0
 15 16  2  0  0  0  0
 15 29  1  0  0  0  0
 16 30  1  0  0  0  0
 17 25  1  0  0  0  0
 17 28  2  0  0  0  0
 18 30  2  0  0  0  0
 18 31  1  0  0  0  0
 19 32  1  0  0  0  0
 20 35  1  0  0  0  0
 21 32  1  0  0  0  0
 21 33  2  0  0  0  0
 21 36  1  0  0  0  0
 22 24  2  0  0  0  0
 22 43  1  0  0  0  0
 23 25  2  0  0  0  0
 23 44  1  0  0  0  0
 24 52  1  0  0  0  0
 25 45  1  0  0  0  0
 26 69  1  0  0  0  0
 27 82  1  0  0  0  0
 28 83  1  0  0  0  0
 29 31  2  0  0  0  0
 29 82  1  0  0  0  0
 30 84  1  0  0  0  0
 31 85  1  0  0  0  0
 32 63  2  0  0  0  0
 33 64  1  0  0  0  0
 33 67  1  0  0  0  0
 34 37  2  0  0  0  0
 34 83  1  0  0  0  0
 35 70  1  0  0  0  0
 35 73  2  0  0  0  0
 36 68  1  0  0  0  0
 36 75  2  0  0  0  0
 37 38  1  0  0  0  0
 37 81  1  0  0  0  0
 38 70  1  0  0  0  0
 38 76  2  0  0  0  0
 39 53  1  0  0  0  0
 39 71  1  0  0  0  0
 39 77  2  0  0  0  0
 40 60  1  0  0  0  0
 40 65  1  0  0  0  0
 40 78  2  0  0  0  0
 41 61  1  0  0  0  0
 41 72  1  0  0  0  0
 41 79  2  0  0  0  0
 42 66  1  0  0  0  0
 42 69  1  0  0  0  0
 42 80  2  0  0  0  0
 43 46  1  0  0  0  0
 44 53  1  0  0  0  0
 45 65  1  0  0  0  0
 46 48  1  0  0  0  0
 47 49  1  0  0  0  0
 47 50  1  0  0  0  0
 48 52  1  0  0  0  0
 49 54  1  0  0  0  0
 50 66  1  0  0  0  0
 51 54  1  0  0  0  0
 51 66  1  0  0  0  0
 52 71  1  0  0  0  0
 53 65  1  0  0  0  0
 54 64  1  0  0  0  0
 55 61  1  0  0  0  0
 56 62  1  0  0  0  0
 57 62  1  0  0  0  0
 58 62  1  0  0  0  0
 59 74  1  0  0  0  0
 60 62  1  0  0  0  0
 60 72  1  0  0  0  0
 61 74  1  0  0  0  0
 63 64  1  0  0  0  0
M  CHG  2  73   1  74   1
M  ISO  4  34 101  42 100  69 100  83 101
M  END
> <Batch ID>
0074

> <Smiles>
CNC(C)C(=O)NC(C(=O)N1Cc2cc([101O:1][101CH2:1]C(=O)C(=O)NC(=N)c3ccc([100NH:0][100C:0](=O)N4CCCC(n5nc(-c6ccc(Oc7ccc(F)cc7F)cc6)c(C(N)=O)c5N)C4)cc3)ccc2CC1C(=O)NC1CCCc2ccccc21)C(C)(C)C

> <Shape>
0.279

> <Color>
0.098

> <Negative vol penalty>
0.000

$$$$

  -OEChem-04042323443D

 84 93  0     1  0  0  0  0  0999 V2000
  -27.3760  -37.7449   23.8602 C   0  0  0  0  0  0  0  0  0  0  0  0
  -27.9646  -36.8012   23.0246 C   0  0  0  0  0  0  0  0  0  0  0  0
  -24.1838   -9.2870   22.1900 C   0  0  0  0  0  0  0  0  0  0  0  0
  -22.9184  -11.2676   21.6306 C   0  0  0  0  0  0  0  0  0  0  0  0
  -26.4881  -37.3366   24.8546 C   0  0  0  0  0  0  0  0  0  0  0  0
  -27.6666  -35.4483   23.1837 C   0  0  0  0  0  0  0  0  0  0  0  0
  -26.9147  -29.4144   19.3965 C   0  0  0  0  0  0  0  0  0  0  0  0
  -28.5675  -19.7717   19.8358 C   0  0  0  0  0  0  0  0  0  0  0  0
  -28.8333  -18.4103   19.6890 C   0  0  0  0  0  0  0  0  0  0  0  0
  -23.3139   -9.0306   23.2498 C   0  0  0  0  0  0  0  0  0  0  0  0
  -22.0485  -11.0112   22.6904 C   0  0  0  0  0  0  0  0  0  0  0  0
  -27.3679  -28.0962   19.3695 C   0  0  0  0  0  0  0  0  0  0  0  0
  -20.2247   -7.7239   23.6765 C   0  0  0  0  0  0  0  0  0  0  0  0
  -19.7694   -6.4156   23.8394 C   0  0  0  0  0  0  0  0  0  0  0  0
  -25.7587  -27.5146   21.0700 C   0  0  0  0  0  0  0  0  0  0  0  0
  -26.2900  -19.4044   19.1180 C   0  0  0  0  0  0  0  0  0  0  0  0
  -20.7574   -6.3460   26.0430 C   0  0  0  0  0  0  0  0  0  0  0  0
  -23.9860  -10.4056   21.3804 C   0  0  0  0  0  0  0  0  0  0  0  0
  -24.7639  -10.2195   18.9581 C   0  0  0  0  0  0  0  0  0  0  0  0
  -26.1716  -35.9789   25.0197 C   0  0  0  0  0  0  0  0  0  0  0  0
  -25.8859  -29.7956   20.2697 C   0  0  0  0  0  0  0  0  0  0  0  0
  -26.7747  -35.0213   24.1821 C   0  0  0  0  0  0  0  0  0  0  0  0
  -25.2926  -28.8377   21.1043 C   0  0  0  0  0  0  0  0  0  0  0  0
  -27.2958  -20.2688   19.5503 C   0  0  0  0  0  0  0  0  0  0  0  0
  -27.8275  -17.5460   19.2567 C   0  0  0  0  0  0  0  0  0  0  0  0
  -22.2463   -9.8926   23.5000 C   0  0  0  0  0  0  0  0  0  0  0  0
  -26.7918  -27.1467   20.2083 C   0  0  0  0  0  0  0  0  0  0  0  0
  -20.9465   -8.3433   24.6969 C   0  0  0  0  0  0  0  0  0  0  0  0
  -20.0357   -5.7266   25.0226 C   0  0  0  0  0  0  0  0  0  0  0  0
  -26.5558  -18.0430   18.9712 C   0  0  0  0  0  0  0  0  0  0  0  0
  -21.2128   -7.6544   25.8801 C   0  0  0  0  0  0  0  0  0  0  0  0
  -24.8846  -10.6713   20.2859 C   0  0  0  0  0  0  0  0  0  0  0  0
  -25.8612  -10.7405   18.3170 C   0  0  0  0  0  0  0  0  0  0  0  0
  -26.6615  -23.5741   19.8055 C   0  0  0  0  0  0  0  0  0  0  0  0
  -25.9167  -22.3537   19.4937 C   0  0  0  0  0  0  0  0  0  0  0  0
  -26.3377  -24.8788   19.8603 C   0  0  0  0  0  0  0  0  0  1  0  0
  -23.7505   -9.4020   18.3578 C   0  0  0  0  0  0  0  0  0  0  0  0
  -25.6448  -31.8311   22.6991 C   0  0  0  0  0  0  0  0  0  0  0  0
  -22.5079  -31.0167   22.5622 C   0  0  0  0  0  0  0  0  0  0  0  0
  -20.1455  -28.7306   21.6459 C   0  0  0  0  0  0  0  0  0  0  0  0
  -29.3089  -15.5105   19.3492 C   0  0  0  0  0  0  0  0  0  0  0  0
  -25.2427  -35.5810   26.1393 C   0  0  0  0  0  0  0  0  0  0  0  0
  -25.3902  -31.2158   20.2676 C   0  0  0  0  0  0  0  0  0  0  0  0
  -24.1713  -29.1915   22.0455 C   0  0  0  0  0  0  0  0  0  0  0  0
  -27.8975  -22.7317   20.0228 C   0  0  0  0  0  0  0  0  0  0  0  0
  -24.6918  -34.1643   25.9992 C   0  0  0  0  0  0  0  0  0  0  0  0
  -30.3733  -12.1194   19.1378 C   0  0  0  0  0  0  0  0  0  0  0  0
  -25.8111  -33.1882   25.6509 C   0  0  0  0  0  0  0  0  0  0  0  0
  -29.0748  -11.3223   19.2813 C   0  0  0  0  0  0  0  0  0  0  0  0
  -30.3731  -13.3672   20.0192 C   0  0  0  0  0  0  0  0  0  0  0  0
  -27.9110  -13.4497   19.9930 C   0  0  0  0  0  0  0  0  0  0  0  0
  -26.4576  -33.5469   24.3074 C   0  0  1  0  0  0  0  0  0  0  0  0
  -24.6866  -31.6050   21.5640 C   0  0  1  0  0  0  0  0  0  0  0  0
  -27.8378  -12.2183   19.0754 C   0  0  2  0  0  0  0  0  0  0  0  0
  -17.6691  -28.3279   21.6984 C   0  0  0  0  0  0  0  0  0  0  0  0
  -22.6841  -30.3354   25.5312 C   0  0  0  0  0  0  0  0  0  0  0  0
  -20.5322  -29.0770   25.2988 C   0  0  0  0  0  0  0  0  0  0  0  0
  -20.5935  -31.5314   24.8576 C   0  0  0  0  0  0  0  0  0  0  0  0
  -19.9842  -28.6165   18.6929 C   0  0  0  0  0  0  0  0  0  0  0  0
  -21.6525  -29.9466   23.1965 C   0  0  1  0  0  0  0  0  0  0  0  0
  -18.8351  -28.8822   20.8946 C   0  0  2  0  0  0  0  0  0  0  0  0
  -21.3880  -30.2160   24.7048 C   0  0  0  0  0  0  0  0  0  0  0  0
  -25.9728  -11.4216   20.4784 N   0  0  0  0  0  0  0  0  0  0  0  0
  -26.5459  -11.4450   19.2630 N   0  0  0  0  0  0  0  0  0  0  0  0
  -27.0337  -21.6114   19.6944 N   0  0  0  0  0  0  0  0  0  0  0  0
  -23.7259  -30.5943   22.0111 N   0  0  0  0  0  0  0  0  0  0  0  0
  -29.1742  -14.1695   19.7665 N   0  0  0  0  0  0  0  0  0  0  0  0
  -26.2976  -10.6601   17.0420 N   0  0  0  0  0  0  0  0  0  0  0  0
  -22.6930   -8.9520   19.1600 N   0  0  0  0  0  0  0  0  0  0  0  0
  -28.1006  -16.1636   19.1081 N   0  0  0  0  0  0  0  0  0  0  0  0
  -25.6178  -33.1144   23.2110 N   0  0  0  0  0  0  0  0  0  0  0  0
  -20.4436  -29.8559   22.3848 N   0  0  0  0  0  0  0  0  0  0  0  0
  -18.8966  -28.1567   19.5943 N   0  3  0  0  0  0  0  0  0  0  0  0
  -24.7738  -22.1021   19.1729 O   0  0  0  0  0  0  0  0  0  0  0  0
  -23.7905   -9.0664   17.1497 O   0  0  0  0  0  0  0  0  0  0  0  0
  -26.3549  -30.9092   23.0832 O   0  0  0  0  0  0  0  0  0  0  0  0
  -22.1067  -32.1831   22.5497 O   0  0  0  0  0  0  0  0  0  0  0  0
  -20.8337  -27.7141   21.5863 O   0  0  0  0  0  0  0  0  0  0  0  0
  -30.4153  -16.0323   19.1893 O   0  0  0  0  0  0  0  0  0  0  0  0
  -21.3971   -9.6425   24.5339 O   0  0  0  0  0  0  0  0  0  0  0  0
  -27.2326  -25.8594   20.1845 O   0  0  0  0  0  0  0  0  0  1  0  0
  -19.5971   -4.4708   25.1795 F   0  0  0  0  0  0  0  0  0  0  0  0
  -25.5817  -17.2218   18.5536 F   0  0  0  0  0  0  0  0  0  0  0  0
  -21.9047   -8.2446   26.8644 F   0  0  0  0  0  0  0  0  0  0  0  0
  1  2  1  0  0  0  0
  1  5  2  0  0  0  0
  2  6  2  0  0  0  0
  3 10  2  0  0  0  0
  3 18  1  0  0  0  0
  4 11  1  0  0  0  0
  4 18  2  0  0  0  0
  5 20  1  0  0  0  0
  6 22  1  0  0  0  0
  7 12  2  0  0  0  0
  7 21  1  0  0  0  0
  8  9  2  0  0  0  0
  8 24  1  0  0  0  0
  9 25  1  0  0  0  0
 10 26  1  0  0  0  0
 11 26  2  0  0  0  0
 12 27  1  0  0  0  0
 13 14  2  0  0  0  0
 13 28  1  0  0  0  0
 14 29  1  0  0  0  0
 15 23  1  0  0  0  0
 15 27  2  0  0  0  0
 16 24  2  0  0  0  0
 16 30  1  0  0  0  0
 17 29  2  0  0  0  0
 17 31  1  0  0  0  0
 18 32  1  0  0  0  0
 19 32  1  0  0  0  0
 19 33  2  0  0  0  0
 19 37  1  0  0  0  0
 20 22  2  0  0  0  0
 20 42  1  0  0  0  0
 21 23  2  0  0  0  0
 21 43  1  0  0  0  0
 22 52  1  0  0  0  0
 23 44  1  0  0  0  0
 24 65  1  0  0  0  0
 25 30  2  0  0  0  0
 25 70  1  0  0  0  0
 26 80  1  0  0  0  0
 27 81  1  0  0  0  0
 28 31  2  0  0  0  0
 28 80  1  0  0  0  0
 29 82  1  0  0  0  0
 30 83  1  0  0  0  0
 31 84  1  0  0  0  0
 32 63  2  0  0  0  0
 33 64  1  0  0  0  0
 33 68  1  0  0  0  0
 34 35  1  0  0  0  0
 34 36  2  0  0  0  0
 34 45  1  0  0  0  0
 35 65  1  0  0  0  0
 35 74  2  0  0  0  0
 36 81  1  0  0  0  0
 37 69  1  0  0  0  0
 37 75  2  0  0  0  0
 38 53  1  0  0  0  0
 38 71  1  0  0  0  0
 38 76  2  0  0  0  0
 39 60  1  0  0  0  0
 39 66  1  0  0  0  0
 39 77  2  0  0  0  0
 40 61  1  0  0  0  0
 40 72  1  0  0  0  0
 40 78  2  0  0  0  0
 41 67  1  0  0  0  0
 41 70  1  0  0  0  0
 41 79  2  0  0  0  0
 42 46  1  0  0  0  0
 43 53  1  0  0  0  0
 44 66  1  0  0  0  0
 45 65  1  0  0  0  0
 46 48  1  0  0  0  0
 47 49  1  0  0  0  0
 47 50  1  0  0  0  0
 48 52  1  0  0  0  0
 49 54  1  0  0  0  0
 50 67  1  0  0  0  0
 51 54  1  0  0  0  0
 51 67  1  0  0  0  0
 52 71  1  0  0  0  0
 53 66  1  0  0  0  0
 54 64  1  0  0  0  0
 55 61  1  0  0  0  0
 56 62  1  0  0  0  0
 57 62  1  0  0  0  0
 58 62  1  0  0  0  0
 59 73  1  0  0  0  0
 60 62  1  0  0  0  0
 60 72  1  0  0  0  0
 61 73  1  0  0  0  0
 63 64  1  0  0  0  0
M  CHG  1  73   1
M  ISO  4  36 101  41 100  70 100  81 101
M  END
> <Batch ID>
0074

> <Smiles>
CNC(C)C(=O)NC(C(=O)N1Cc2cc([101O:1][101CH:1]=C3CN(c4ccc([100NH:0][100C:0](=O)N5CCCC(n6nc(-c7ccc(Oc8ccc(F)cc8F)cc7)c(C(N)=O)c6N)C5)c(F)c4)C3=O)ccc2CC1C(=O)NC1CCCc2ccccc21)C(C)(C)C

> <Shape>
0.291

> <Color>
0.088

> <Negative vol penalty>
0.000

$$$$

  -OEChem-04042323443D

 87 96  0     1  0  0  0  0  0999 V2000
  -28.0814  -31.9991   27.1117 C   0  0  0  0  0  0  0  0  0  0  0  0
  -27.9680  -30.6129   27.0794 C   0  0  0  0  0  0  0  0  0  0  0  0
  -22.6679  -10.3096   20.1671 C   0  0  0  0  0  0  0  0  0  0  0  0
  -24.3438   -9.4117   21.6578 C   0  0  0  0  0  0  0  0  0  0  0  0
  -27.8163  -32.7460   25.9647 C   0  0  0  0  0  0  0  0  0  0  0  0
  -27.5883  -29.9728   25.9001 C   0  0  0  0  0  0  0  0  0  0  0  0
  -30.4271  -25.9004   24.8994 C   0  0  0  0  0  0  0  0  0  0  0  0
  -32.3056  -16.2513   22.7405 C   0  0  0  0  0  0  0  0  0  0  0  0
  -21.9155   -9.1440   20.3109 C   0  0  0  0  0  0  0  0  0  0  0  0
  -23.5913   -8.2461   21.8017 C   0  0  0  0  0  0  0  0  0  0  0  0
  -30.1451  -24.7366   25.6133 C   0  0  0  0  0  0  0  0  0  0  0  0
  -20.8693   -7.2383   23.5325 C   0  0  0  0  0  0  0  0  0  0  0  0
  -32.9559  -17.0078   23.7153 C   0  0  0  0  0  0  0  0  0  0  0  0
  -20.7089   -6.7272   24.8203 C   0  0  0  0  0  0  0  0  0  0  0  0
  -28.9121  -23.8833   23.7236 C   0  0  0  0  0  0  0  0  0  0  0  0
  -30.1716  -17.0485   23.5453 C   0  0  0  0  0  0  0  0  0  0  0  0
  -21.7773   -4.6707   24.1372 C   0  0  0  0  0  0  0  0  0  0  0  0
  -23.8822  -10.4435   20.8405 C   0  0  0  0  0  0  0  0  0  0  0  0
  -24.2665  -12.9593   21.0159 C   0  0  0  0  0  0  0  0  0  0  0  0
  -27.4426  -32.1141   24.7681 C   0  0  0  0  0  0  0  0  0  0  0  0
  -29.9438  -26.0693   23.5939 C   0  0  0  0  0  0  0  0  0  0  0  0
  -27.3167  -30.7121   24.7363 C   0  0  0  0  0  0  0  0  0  0  0  0
  -29.1916  -25.0491   22.9943 C   0  0  0  0  0  0  0  0  0  0  0  0
  -30.8220  -17.8051   24.5202 C   0  0  0  0  0  0  0  0  0  0  0  0
  -30.9134  -16.2717   22.6554 C   0  0  0  0  0  0  0  0  0  0  0  0
  -22.3771   -8.1123   21.1282 C   0  0  0  0  0  0  0  0  0  0  0  0
  -29.3850  -23.7290   25.0265 C   0  0  0  0  0  0  0  0  0  0  0  0
  -21.4837   -6.4656   22.5469 C   0  0  0  0  0  0  0  0  0  0  0  0
  -21.1629   -5.4434   25.1227 C   0  0  0  0  0  0  0  0  0  0  0  0
  -32.2141  -17.7847   24.6052 C   0  0  0  0  0  0  0  0  0  0  0  0
  -21.9377   -5.1819   22.8493 C   0  0  0  0  0  0  0  0  0  0  0  0
  -24.6602  -11.6471   20.6919 C   0  0  0  0  0  0  0  0  0  0  0  0
  -25.3533  -13.7339   20.6910 C   0  0  0  0  0  0  0  0  0  0  0  0
  -23.0292  -13.4354   21.5618 C   0  0  0  0  0  0  0  0  0  0  0  0
  -27.9828  -28.1313   22.1773 C   0  0  0  0  0  0  0  0  0  0  0  0
  -28.8977  -26.5580   19.4921 C   0  0  0  0  0  0  0  0  0  0  0  0
  -29.4858  -23.1344   18.5173 C   0  0  0  0  0  0  0  0  0  0  0  0
  -30.8406  -14.6784   20.7054 C   0  0  0  0  0  0  0  0  0  0  0  0
  -27.1204  -32.9669   23.5667 C   0  0  0  0  0  0  0  0  0  0  0  0
  -30.2793  -27.3193   22.8275 C   0  0  0  0  0  0  0  0  0  0  0  0
  -28.6663  -25.1729   21.5882 C   0  0  0  0  0  0  0  0  0  0  0  0
  -27.0874  -32.1851   22.2560 C   0  0  0  0  0  0  0  0  0  0  0  0
  -29.5608  -12.5930   18.1188 C   0  0  0  0  0  0  0  0  0  0  0  0
  -26.2878  -30.8969   22.4227 C   0  0  0  0  0  0  0  0  0  0  0  0
  -28.1394  -12.2689   18.5843 C   0  0  0  0  0  0  0  0  0  0  0  0
  -30.5399  -12.6585   19.2896 C   0  0  0  0  0  0  0  0  0  0  0  0
  -28.7309  -18.1605   25.7937 C   0  0  0  0  0  0  0  0  0  0  0  0
  -28.7199  -13.2300   20.8484 C   0  0  0  0  0  0  0  0  0  0  0  0
  -30.3246  -20.0273   25.4311 C   0  0  0  0  0  0  0  0  0  0  0  0
  -28.3571  -18.7239   27.1554 C   0  0  0  0  0  0  0  0  0  0  0  0
  -26.9315  -29.9795   23.4694 C   0  0  1  0  0  0  0  0  0  0  0  0
  -29.3027  -27.6033   21.6905 C   0  0  1  0  0  0  0  0  0  0  0  0
  -27.6854  -13.2174   19.7112 C   0  0  2  0  0  0  0  0  0  0  0  0
  -30.0127  -20.6379   26.8157 C   0  0  1  0  0  0  0  0  0  0  0  0
  -31.0268  -20.1672   27.8697 C   0  0  0  0  0  0  0  0  0  0  0  0
  -30.9793  -22.1770   16.7424 C   0  0  0  0  0  0  0  0  0  0  0  0
  -26.3978  -26.6536   17.7453 C   0  0  0  0  0  0  0  0  0  0  0  0
  -27.0996  -24.4695   16.7426 C   0  0  0  0  0  0  0  0  0  0  0  0
  -28.5484  -26.4831   16.4804 C   0  0  0  0  0  0  0  0  0  0  0  0
  -28.0508  -20.7870   28.4925 C   0  0  0  0  0  0  0  0  0  0  0  0
  -30.8720  -21.3870   20.4627 C   0  0  0  0  0  0  0  0  0  0  0  0
  -30.0696  -22.1707   26.6875 C   0  0  0  0  0  0  0  0  0  1  0  0
  -28.3951  -25.3518   18.7362 C   0  0  1  0  0  0  0  0  0  0  0  0
  -30.8290  -22.4913   18.2227 C   0  0  2  0  0  0  0  0  0  0  0  0
  -27.6066  -25.7420   17.4542 C   0  0  0  0  0  0  0  0  0  0  0  0
  -25.9002  -11.5876   20.1989 N   0  0  0  0  0  0  0  0  0  0  0  0
  -26.2950  -12.8722   20.2106 N   0  0  0  0  0  0  0  0  0  0  0  0
  -30.0762  -18.5822   25.4119 N   0  0  2  0  0  0  0  0  0  0  0  0
  -29.0158  -26.4166   20.8820 N   0  0  0  0  0  0  0  0  0  0  0  0
  -30.0463  -13.5792   20.3160 N   0  0  0  0  0  0  0  0  0  0  0  0
  -25.5855  -15.0612   20.7723 N   0  0  0  0  0  0  0  0  0  0  0  0
  -22.8984  -13.5097   22.9552 N   0  0  0  0  0  0  0  0  0  0  0  0
  -30.2536  -15.5027   21.6649 N   0  0  0  0  0  0  0  0  0  0  0  0
  -28.0795  -29.3000   22.9082 N   0  0  0  0  0  0  0  0  0  0  0  0
  -29.5611  -24.5108   18.4877 N   0  0  0  0  0  0  0  0  0  0  0  0
  -28.5801  -20.2200   27.1959 N   0  3  2  0  0  0  0  0  0  0  0  0
  -30.9751  -21.2220   18.9899 N   0  3  0  0  0  0  0  0  0  0  0  0
  -22.0622  -13.7690   20.8357 O   0  0  0  0  0  0  0  0  0  0  0  0
  -26.9529  -27.5241   21.9084 O   0  0  0  0  0  0  0  0  0  0  0  0
  -29.1819  -27.5854   18.8714 O   0  0  0  0  0  0  0  0  0  0  0  0
  -28.4705  -22.4809   18.7469 O   0  0  0  0  0  0  0  0  0  0  0  0
  -31.9476  -14.8894   20.2034 O   0  0  0  0  0  0  0  0  0  0  0  0
  -21.6430   -6.9748   21.2690 O   0  0  0  0  0  0  0  0  0  0  0  0
  -29.1077  -22.5923   25.7214 O   0  0  0  0  0  0  0  0  0  1  0  0
  -21.0101   -4.9532   26.3599 F   0  0  0  0  0  0  0  0  0  0  0  0
  -32.8492  -18.5064   25.5396 F   0  0  0  0  0  0  0  0  0  0  0  0
  -22.5298   -4.4353   21.9070 F   0  0  0  0  0  0  0  0  0  0  0  0
  1  2  1  0  0  0  0
  1  5  2  0  0  0  0
  2  6  2  0  0  0  0
  3  9  2  0  0  0  0
  3 18  1  0  0  0  0
  4 10  1  0  0  0  0
  4 18  2  0  0  0  0
  5 20  1  0  0  0  0
  6 22  1  0  0  0  0
  7 11  2  0  0  0  0
  7 21  1  0  0  0  0
  8 13  2  0  0  0  0
  8 25  1  0  0  0  0
  9 26  1  0  0  0  0
 10 26  2  0  0  0  0
 11 27  1  0  0  0  0
 12 14  2  0  0  0  0
 12 28  1  0  0  0  0
 13 30  1  0  0  0  0
 14 29  1  0  0  0  0
 15 23  1  0  0  0  0
 15 27  2  0  0  0  0
 16 24  1  0  0  0  0
 16 25  2  0  0  0  0
 17 29  2  0  0  0  0
 17 31  1  0  0  0  0
 18 32  1  0  0  0  0
 19 32  1  0  0  0  0
 19 33  2  0  0  0  0
 19 34  1  0  0  0  0
 20 22  2  0  0  0  0
 20 39  1  0  0  0  0
 21 23  2  0  0  0  0
 21 40  1  0  0  0  0
 22 51  1  0  0  0  0
 23 41  1  0  0  0  0
 24 30  2  0  0  0  0
 24 68  1  0  0  0  0
 25 73  1  0  0  0  0
 26 83  1  0  0  0  0
 27 84  1  0  0  0  0
 28 31  2  0  0  0  0
 28 83  1  0  0  0  0
 29 85  1  0  0  0  0
 30 86  1  0  0  0  0
 31 87  1  0  0  0  0
 32 66  2  0  0  0  0
 33 67  1  0  0  0  0
 33 71  1  0  0  0  0
 34 72  1  0  0  0  0
 34 78  2  0  0  0  0
 35 52  1  0  0  0  0
 35 74  1  0  0  0  0
 35 79  2  0  0  0  0
 36 63  1  0  0  0  0
 36 69  1  0  0  0  0
 36 80  2  0  0  0  0
 37 64  1  0  0  0  0
 37 75  1  0  0  0  0
 37 81  2  0  0  0  0
 38 70  1  0  0  0  0
 38 73  1  0  0  0  0
 38 82  2  0  0  0  0
 39 42  1  0  0  0  0
 40 52  1  0  0  0  0
 41 69  1  0  0  0  0
 42 44  1  0  0  0  0
 43 45  1  0  0  0  0
 43 46  1  0  0  0  0
 44 51  1  0  0  0  0
 45 53  1  0  0  0  0
 46 70  1  0  0  0  0
 47 50  1  0  0  0  0
 47 68  1  0  0  0  0
 48 53  1  0  0  0  0
 48 70  1  0  0  0  0
 49 54  1  0  0  0  0
 49 68  1  0  0  0  0
 50 76  1  0  0  0  0
 51 74  1  0  0  0  0
 52 69  1  0  0  0  0
 53 67  1  0  0  0  0
 54 55  1  0  0  0  0
 54 62  1  0  0  0  0
 54 76  1  0  0  0  0
 56 64  1  0  0  0  0
 57 65  1  0  0  0  0
 58 65  1  0  0  0  0
 59 65  1  0  0  0  0
 60 76  1  0  0  0  0
 61 77  1  0  0  0  0
 62 84  1  0  0  0  0
 63 65  1  0  0  0  0
 63 75  1  0  0  0  0
 64 77  1  0  0  0  0
 66 67  1  0  0  0  0
M  CHG  2  76   1  77   1
M  ISO  4  38 100  62 101  73 100  84 101
M  END
> <Batch ID>
0074

> <Smiles>
CNC(C)C(=O)NC(C(=O)N1Cc2cc([101O:1][101CH2:1]C3(C)CN(c4cc([100NH:0][100C:0](=O)N5CCCC(n6nc(-c7ccc(Oc8ccc(F)cc8F)cc7)c(C(N)=O)c6N)C5)ccc4F)CCN3C)ccc2CC1C(=O)NC1CCCc2ccccc21)C(C)(C)C

> <Shape>
0.317

> <Color>
0.188

> <Negative vol penalty>
0.000

$$$$

  -OEChem-04042323443D

 88 97  0     1  0  0  0  0  0999 V2000
  -27.2359  -33.5896   26.3427 C   0  0  0  0  0  0  0  0  0  0  0  0
  -27.5627  -32.4673   25.5883 C   0  0  0  0  0  0  0  0  0  0  0  0
  -24.5846   -8.6180   20.9083 C   0  0  0  0  0  0  0  0  0  0  0  0
  -23.0111  -10.4483   21.0126 C   0  0  0  0  0  0  0  0  0  0  0  0
  -25.9223  -33.7846   26.7671 C   0  0  0  0  0  0  0  0  0  0  0  0
  -26.5761  -31.5387   25.2588 C   0  0  0  0  0  0  0  0  0  0  0  0
  -26.8097  -30.0934   20.4109 C   0  0  0  0  0  0  0  0  0  0  0  0
  -28.8168  -20.6054   21.5844 C   0  0  0  0  0  0  0  0  0  0  0  0
  -28.8811  -19.2581   21.9398 C   0  0  0  0  0  0  0  0  0  0  0  0
  -23.5508   -7.7151   21.1565 C   0  0  0  0  0  0  0  0  0  0  0  0
  -21.9773   -9.5454   21.2607 C   0  0  0  0  0  0  0  0  0  0  0  0
  -27.7898  -29.1620   20.0708 C   0  0  0  0  0  0  0  0  0  0  0  0
  -21.7789   -6.6294   23.8222 C   0  0  0  0  0  0  0  0  0  0  0  0
  -22.0100   -5.6224   24.7592 C   0  0  0  0  0  0  0  0  0  0  0  0
  -28.0931  -19.9853   19.3643 C   0  0  0  0  0  0  0  0  0  0  0  0
  -26.1347  -27.4080   20.1290 C   0  0  0  0  0  0  0  0  0  0  0  0
  -21.6162   -3.9507   23.0599 C   0  0  0  0  0  0  0  0  0  0  0  0
  -24.3148   -9.9846   20.8364 C   0  0  0  0  0  0  0  0  0  0  0  0
  -28.1574  -18.6380   19.7197 C   0  0  0  0  0  0  0  0  0  0  0  0
  -25.8301  -11.3745   19.3265 C   0  0  0  0  0  0  0  0  0  0  0  0
  -24.9171  -32.8628   26.4344 C   0  0  0  0  0  0  0  0  0  0  0  0
  -25.4847  -29.6867   20.6238 C   0  0  0  0  0  0  0  0  0  0  0  0
  -25.2479  -31.7208   25.6803 C   0  0  0  0  0  0  0  0  0  0  0  0
  -25.1392  -28.3366   20.4693 C   0  0  0  0  0  0  0  0  0  0  0  0
  -28.4227  -20.9690   20.2967 C   0  0  0  0  0  0  0  0  0  0  0  0
  -28.5515  -18.2744   21.0074 C   0  0  0  0  0  0  0  0  0  0  0  0
  -22.2471   -8.1788   21.3327 C   0  0  0  0  0  0  0  0  0  0  0  0
  -27.4529  -27.8187   19.9326 C   0  0  0  0  0  0  0  0  0  0  0  0
  -21.4664   -6.2971   22.5040 C   0  0  0  0  0  0  0  0  0  0  0  0
  -21.9286   -4.2830   24.3781 C   0  0  0  0  0  0  0  0  0  0  0  0
  -21.3851   -4.9578   22.1228 C   0  0  0  0  0  0  0  0  0  0  0  0
  -25.3824  -10.9179   20.5806 C   0  0  0  0  0  0  0  0  0  0  0  0
  -26.8550  -12.2398   19.6220 C   0  0  0  0  0  0  0  0  0  0  0  0
  -28.4813  -24.6145   20.0819 C   0  0  0  0  0  0  0  0  0  0  0  0
  -28.0359  -24.2287   18.7235 C   0  0  0  0  0  0  0  0  0  0  0  0
  -27.8065  -17.6348   18.7221 C   0  0  0  0  0  0  0  0  0  0  0  0
  -25.3614  -11.0459   18.0119 C   0  0  0  0  0  0  0  0  0  0  0  0
  -28.6493  -25.8827   20.4727 C   0  0  0  0  0  0  0  0  0  1  0  0
  -23.4881  -29.7513   23.0963 C   0  0  0  0  0  0  0  0  0  0  0  0
  -21.3543  -28.6767   20.9021 C   0  0  0  0  0  0  0  0  0  0  0  0
  -20.8022  -27.0626   17.9463 C   0  0  0  0  0  0  0  0  0  0  0  0
  -28.9989  -16.4034   22.6338 C   0  0  0  0  0  0  0  0  0  0  0  0
  -23.5206  -33.0919   26.9560 C   0  0  0  0  0  0  0  0  0  0  0  0
  -24.4339  -30.7078   20.9640 C   0  0  0  0  0  0  0  0  0  0  0  0
  -23.7269  -27.8518   20.6670 C   0  0  0  0  0  0  0  0  0  0  0  0
  -28.6916  -23.3683   20.8770 C   0  0  0  0  0  0  0  0  0  0  0  0
  -27.9514  -22.7332   18.6219 C   0  0  0  0  0  0  0  0  0  0  0  0
  -22.4604  -32.2531   26.2469 C   0  0  0  0  0  0  0  0  0  0  0  0
  -29.2691  -13.1195   23.9832 C   0  0  0  0  0  0  0  0  0  0  0  0
  -22.9217  -30.8045   26.1215 C   0  0  0  0  0  0  0  0  0  0  0  0
  -28.3188  -12.2916   23.1151 C   0  0  0  0  0  0  0  0  0  0  0  0
  -28.7261  -14.5246   24.2373 C   0  0  0  0  0  0  0  0  0  0  0  0
  -27.3999  -14.4446   22.1626 C   0  0  0  0  0  0  0  0  0  0  0  0
  -24.2007  -30.7036   25.2817 C   0  0  1  0  0  0  0  0  0  0  0  0
  -23.2183  -30.1047   21.6610 C   0  0  1  0  0  0  0  0  0  0  0  0
  -27.9345  -13.0431   21.8254 C   0  0  2  0  0  0  0  0  0  0  0  0
  -26.7937  -18.0179   17.6847 C   0  0  0  0  0  0  0  0  0  0  0  0
  -29.0988  -26.2738   21.8436 C   0  0  0  0  0  0  0  0  0  0  0  0
  -18.9505  -26.3033   16.4324 C   0  0  0  0  0  0  0  0  0  0  0  0
  -20.7434  -26.3738   22.8082 C   0  0  0  0  0  0  0  0  0  0  0  0
  -19.6486  -25.1774   20.9008 C   0  0  0  0  0  0  0  0  0  0  0  0
  -18.7370  -27.3617   21.6889 C   0  0  0  0  0  0  0  0  0  0  0  0
  -21.7823  -28.7407   15.7143 C   0  0  0  0  0  0  0  0  0  0  0  0
  -20.9183  -27.3173   20.4113 C   0  0  1  0  0  0  0  0  0  0  0  0
  -19.9354  -27.4172   16.7516 C   0  0  2  0  0  0  0  0  0  0  0  0
  -20.0389  -26.5661   21.4504 C   0  0  0  0  0  0  0  0  0  0  0  0
  -26.0669  -11.4490   21.5972 N   0  0  0  0  0  0  0  0  0  0  0  0
  -26.9552  -12.2483   20.9822 N   0  0  0  0  0  0  0  0  0  0  0  0
  -28.3602  -22.2811   19.9511 N   0  0  3  0  0  0  0  0  0  0  0  0
  -22.7366  -28.8875   21.0049 N   0  0  0  0  0  0  0  0  0  0  0  0
  -28.3877  -15.1771   22.9705 N   0  0  0  0  0  0  0  0  0  0  0  0
  -27.6713  -12.9866   18.8484 N   0  0  0  0  0  0  0  0  0  0  0  0
  -24.2997  -10.1393   17.8884 N   0  0  0  0  0  0  0  0  0  0  0  0
  -28.6242  -16.9123   21.3908 N   0  0  0  0  0  0  0  0  0  0  0  0
  -23.8910  -30.8209   23.8729 N   0  0  0  0  0  0  0  0  0  0  0  0
  -20.2665  -27.5375   19.1248 N   0  0  0  0  0  0  0  0  0  0  0  0
  -20.7830  -27.6540   15.5489 N   0  3  0  0  0  0  0  0  0  0  0  0
  -27.7754  -25.0081   17.8209 O   0  0  0  0  0  0  0  0  0  0  0  0
  -28.2762  -16.4980   18.6727 O   0  0  0  0  0  0  0  0  0  0  0  0
  -25.8798  -11.5290   16.9769 O   0  0  0  0  0  0  0  0  0  0  0  0
  -23.3403  -28.5942   23.4717 O   0  0  0  0  0  0  0  0  0  0  0  0
  -20.4999  -29.5230   21.1772 O   0  0  0  0  0  0  0  0  0  0  0  0
  -21.8478  -26.4247   17.8448 O   0  0  0  0  0  0  0  0  0  0  0  0
  -29.8167  -16.9473   23.3803 O   0  0  0  0  0  0  0  0  0  0  0  0
  -21.2381   -7.2980   21.5746 O   0  0  0  0  0  0  0  0  0  0  0  0
  -28.4078  -26.9074   19.6012 O   0  0  0  0  0  0  0  0  0  1  0  0
  -22.1521   -3.3161   25.2778 F   0  0  0  0  0  0  0  0  0  0  0  0
  -21.0864   -4.6324   20.8576 F   0  0  0  0  0  0  0  0  0  0  0  0
  1  2  1  0  0  0  0
  1  5  2  0  0  0  0
  2  6  2  0  0  0  0
  3 10  2  0  0  0  0
  3 18  1  0  0  0  0
  4 11  1  0  0  0  0
  4 18  2  0  0  0  0
  5 21  1  0  0  0  0
  6 23  1  0  0  0  0
  7 12  2  0  0  0  0
  7 22  1  0  0  0  0
  8  9  2  0  0  0  0
  8 25  1  0  0  0  0
  9 26  1  0  0  0  0
 10 27  1  0  0  0  0
 11 27  2  0  0  0  0
 12 28  1  0  0  0  0
 13 14  2  0  0  0  0
 13 29  1  0  0  0  0
 14 30  1  0  0  0  0
 15 19  1  0  0  0  0
 15 25  2  0  0  0  0
 16 24  1  0  0  0  0
 16 28  2  0  0  0  0
 17 30  2  0  0  0  0
 17 31  1  0  0  0  0
 18 32  1  0  0  0  0
 19 26  2  0  0  0  0
 19 36  1  0  0  0  0
 20 32  1  0  0  0  0
 20 33  2  0  0  0  0
 20 37  1  0  0  0  0
 21 23  2  0  0  0  0
 21 43  1  0  0  0  0
 22 24  2  0  0  0  0
 22 44  1  0  0  0  0
 23 54  1  0  0  0  0
 24 45  1  0  0  0  0
 25 69  1  0  0  0  0
 26 74  1  0  0  0  0
 27 85  1  0  0  0  0
 28 86  1  0  0  0  0
 29 31  2  0  0  0  0
 29 85  1  0  0  0  0
 30 87  1  0  0  0  0
 31 88  1  0  0  0  0
 32 67  2  0  0  0  0
 33 68  1  0  0  0  0
 33 72  1  0  0  0  0
 34 35  1  0  0  0  0
 34 38  2  0  0  0  0
 34 46  1  0  0  0  0
 35 47  1  0  0  0  0
 35 78  2  0  0  0  0
 36 57  1  0  0  0  0
 36 79  2  0  0  0  0
 37 73  1  0  0  0  0
 37 80  2  0  0  0  0
 38 58  1  0  0  0  0
 38 86  1  0  0  0  0
 39 55  1  0  0  0  0
 39 75  1  0  0  0  0
 39 81  2  0  0  0  0
 40 64  1  0  0  0  0
 40 70  1  0  0  0  0
 40 82  2  0  0  0  0
 41 65  1  0  0  0  0
 41 76  1  0  0  0  0
 41 83  2  0  0  0  0
 42 71  1  0  0  0  0
 42 74  1  0  0  0  0
 42 84  2  0  0  0  0
 43 48  1  0  0  0  0
 44 55  1  0  0  0  0
 45 70  1  0  0  0  0
 46 69  1  0  0  0  0
 47 69  1  0  0  0  0
 48 50  1  0  0  0  0
 49 51  1  0  0  0  0
 49 52  1  0  0  0  0
 50 54  1  0  0  0  0
 51 56  1  0  0  0  0
 52 71  1  0  0  0  0
 53 56  1  0  0  0  0
 53 71  1  0  0  0  0
 54 75  1  0  0  0  0
 55 70  1  0  0  0  0
 56 68  1  0  0  0  0
 59 65  1  0  0  0  0
 60 66  1  0  0  0  0
 61 66  1  0  0  0  0
 62 66  1  0  0  0  0
 63 77  1  0  0  0  0
 64 66  1  0  0  0  0
 64 76  1  0  0  0  0
 65 77  1  0  0  0  0
 67 68  1  0  0  0  0
M  CHG  1  77   1
M  ISO  4  38 101  42 100  74 100  86 101
M  END
> <Batch ID>
0074

> <Smiles>
CNC(C)C(=O)NC(C(=O)N1Cc2cc([101O:1][101C:1](C)=C3CN(c4ccc([100NH:0][100C:0](=O)N5CCCC(n6nc(-c7ccc(Oc8ccc(F)cc8F)cc7)c(C(N)=O)c6N)C5)c(C(C)=O)c4)CC3=O)ccc2CC1C(=O)NC1CCCc2ccccc21)C(C)(C)C

> <Shape>
0.344

> <Color>
0.113

> <Negative vol penalty>
0.000

$$$$

  -OEChem-04042323443D

 84 92  0     1  0  0  0  0  0999 V2000
  -16.2546  -27.3892   21.1168 C   0  0  0  0  0  0  0  0  0  0  0  0
  -16.7873  -26.3899   20.3088 C   0  0  0  0  0  0  0  0  0  0  0  0
  -29.0297  -23.5344   18.6911 C   0  0  0  0  0  0  0  0  0  0  0  0
  -27.2271  -23.4319   20.2965 C   0  0  0  0  0  0  0  0  0  0  0  0
  -17.0428  -27.9810   22.1029 C   0  0  0  0  0  0  0  0  0  0  0  0
  -18.1091  -25.9825   20.4857 C   0  0  0  0  0  0  0  0  0  0  0  0
  -20.3442  -20.3251   19.7752 C   0  0  0  0  0  0  0  0  0  0  0  0
  -22.3282  -14.4968   16.5595 C   0  0  0  0  0  0  0  0  0  0  0  0
  -29.1423  -24.9081   18.9052 C   0  0  0  0  0  0  0  0  0  0  0  0
  -27.3397  -24.8056   20.5106 C   0  0  0  0  0  0  0  0  0  0  0  0
  -21.0199  -19.7088   18.7229 C   0  0  0  0  0  0  0  0  0  0  0  0
  -26.3930  -27.6551   18.9565 C   0  0  0  0  0  0  0  0  0  0  0  0
  -22.0146  -13.5175   17.5020 C   0  0  0  0  0  0  0  0  0  0  0  0
  -25.2165  -28.4034   18.9958 C   0  0  0  0  0  0  0  0  0  0  0  0
  -24.2663  -15.1257   17.8578 C   0  0  0  0  0  0  0  0  0  0  0  0
  -23.1250  -20.2106   19.7887 C   0  0  0  0  0  0  0  0  0  0  0  0
  -25.7322  -29.0956   21.2523 C   0  0  0  0  0  0  0  0  0  0  0  0
  -28.0721  -22.7963   19.3867 C   0  0  0  0  0  0  0  0  0  0  0  0
  -23.9527  -14.1464   18.8003 C   0  0  0  0  0  0  0  0  0  0  0  0
  -27.6619  -20.7274   17.9517 C   0  0  0  0  0  0  0  0  0  0  0  0
  -18.3720  -27.5739   22.2984 C   0  0  0  0  0  0  0  0  0  0  0  0
  -21.0555  -20.8994   20.8386 C   0  0  0  0  0  0  0  0  0  0  0  0
  -18.9163  -26.5703   21.4745 C   0  0  0  0  0  0  0  0  0  0  0  0
  -22.4559  -20.8313   20.8545 C   0  0  0  0  0  0  0  0  0  0  0  0
  -23.4541  -15.3009   16.7374 C   0  0  0  0  0  0  0  0  0  0  0  0
  -28.2973  -25.5437   19.8149 C   0  0  0  0  0  0  0  0  0  0  0  0
  -22.4106  -19.6540   18.7281 C   0  0  0  0  0  0  0  0  0  0  0  0
  -27.2390  -27.6269   20.0651 C   0  0  0  0  0  0  0  0  0  0  0  0
  -24.8861  -29.1237   20.1437 C   0  0  0  0  0  0  0  0  0  0  0  0
  -22.8268  -13.3423   18.6224 C   0  0  0  0  0  0  0  0  0  0  0  0
  -26.9087  -28.3472   21.2130 C   0  0  0  0  0  0  0  0  0  0  0  0
  -27.9549  -21.3773   19.1656 C   0  0  0  0  0  0  0  0  0  0  0  0
  -27.6646  -19.3909   18.2683 C   0  0  0  0  0  0  0  0  0  0  0  0
  -24.8198  -13.9625   19.9924 C   0  0  0  0  0  0  0  0  0  0  0  0
  -27.4100  -21.2823   16.6538 C   0  0  0  0  0  0  0  0  0  0  0  0
  -21.3424  -23.8370   22.0184 C   0  0  0  0  0  0  0  0  0  0  0  0
  -23.2948  -17.4893   15.9129 C   0  0  0  0  0  0  0  0  0  0  0  0
  -23.0471  -22.3235   24.3262 C   0  0  0  0  0  0  0  0  0  0  0  0
  -24.9239  -19.6243   25.2420 C   0  0  0  0  0  0  0  0  0  0  0  0
  -26.2948  -15.1625   21.5761 C   0  0  0  0  0  0  0  0  0  0  0  0
  -19.1996  -28.2759   23.3457 C   0  0  0  0  0  0  0  0  0  0  0  0
  -20.3108  -21.5369   21.9794 C   0  0  0  0  0  0  0  0  0  0  0  0
  -23.2654  -21.4147   21.9827 C   0  0  0  0  0  0  0  0  0  0  0  0
  -20.4760  -27.5254   23.7172 C   0  0  0  0  0  0  0  0  0  0  0  0
  -29.1791  -17.0009   22.4693 C   0  0  0  0  0  0  0  0  0  0  0  0
  -21.2043  -27.0567   22.4616 C   0  0  0  0  0  0  0  0  0  0  0  0
  -29.1007  -18.2481   21.5846 C   0  0  0  0  0  0  0  0  0  0  0  0
  -27.7990  -16.5655   22.9598 C   0  0  0  0  0  0  0  0  0  0  0  0
  -26.7131  -17.6369   21.0282 C   0  0  0  0  0  0  0  0  0  0  0  0
  -20.3382  -26.0838   21.6523 C   0  0  1  0  0  0  0  0  0  0  0  0
  -21.1553  -22.5418   22.7568 C   0  0  1  0  0  0  0  0  0  0  0  0
  -28.0694  -18.0741   20.4517 C   0  0  1  0  0  0  0  0  0  0  0  0
  -23.6963  -18.5064   14.8709 C   0  0  0  0  0  0  0  0  0  0  0  0
  -26.2122  -18.6873   27.1810 C   0  0  0  0  0  0  0  0  0  0  0  0
  -25.3098  -24.2939   23.7719 C   0  0  0  0  0  0  0  0  0  0  0  0
  -26.8551  -22.7594   25.0070 C   0  0  0  0  0  0  0  0  0  0  0  0
  -24.9245  -23.8023   26.1935 C   0  0  0  0  0  0  0  0  0  0  0  0
  -23.1924  -17.2283   25.3842 C   0  0  0  0  0  0  0  0  0  0  0  0
  -22.4050  -17.9820   17.0368 C   0  0  0  0  0  0  0  0  0  1  0  0
  -24.4995  -21.9584   24.5167 C   0  0  1  0  0  0  0  0  0  0  0  0
  -24.8703  -18.7290   26.4667 C   0  0  2  0  0  0  0  0  0  0  0  0
  -25.3823  -23.1941   24.8499 C   0  0  0  0  0  0  0  0  0  0  0  0
  -28.1307  -20.5239   20.1780 N   0  0  0  0  0  0  0  0  0  0  0  0
  -23.7683  -16.2857   15.7895 N   0  0  0  0  0  0  0  0  0  0  0  0
  -27.9477  -19.3241   19.6008 N   0  0  0  0  0  0  0  0  0  0  0  0
  -22.4917  -22.0330   23.0720 N   0  0  0  0  0  0  0  0  0  0  0  0
  -26.8847  -16.4137   21.8266 N   0  0  0  0  0  0  0  0  0  0  0  0
  -27.4524  -18.2781   17.5341 N   0  0  0  0  0  0  0  0  0  0  0  0
  -26.0895  -21.5998   16.3078 N   0  0  0  0  0  0  0  0  0  0  0  0
  -25.4710  -15.1098   20.4462 N   0  0  0  0  0  0  0  0  0  0  0  0
  -20.3520  -24.7700   22.2591 N   0  0  0  0  0  0  0  0  0  0  0  0
  -24.5275  -20.9124   25.5333 N   0  0  0  0  0  0  0  0  0  0  0  0
  -24.5024  -17.3386   26.0762 N   0  3  0  0  0  0  0  0  0  0  0  0
  -24.8833  -12.8558   20.5208 O   0  0  0  0  0  0  0  0  0  0  0  0
  -28.3266  -21.4750   15.8194 O   0  0  0  0  0  0  0  0  0  0  0  0
  -22.3143  -23.9797   21.2857 O   0  0  0  0  0  0  0  0  0  0  0  0
  -22.4262  -22.8405   25.2583 O   0  0  0  0  0  0  0  0  0  0  0  0
  -25.2852  -19.2222   24.1382 O   0  0  0  0  0  0  0  0  0  0  0  0
  -26.5126  -14.1681   22.2755 O   0  0  0  0  0  0  0  0  0  0  0  0
  -28.4070  -26.8841   20.0242 O   0  0  0  0  0  0  0  0  0  0  0  0
  -23.0726  -19.0537   17.7018 O   0  0  0  0  0  0  0  0  0  1  0  0
  -23.7571  -29.8435   20.1807 F   0  0  0  0  0  0  0  0  0  0  0  0
  -22.5149  -12.3993   19.5227 F   0  0  0  0  0  0  0  0  0  0  0  0
  -27.7181  -28.3250   22.2808 F   0  0  0  0  0  0  0  0  0  0  0  0
  1  2  1  0  0  0  0
  1  5  2  0  0  0  0
  2  6  2  0  0  0  0
  3  9  2  0  0  0  0
  3 18  1  0  0  0  0
  4 10  1  0  0  0  0
  4 18  2  0  0  0  0
  5 21  1  0  0  0  0
  6 23  1  0  0  0  0
  7 11  2  0  0  0  0
  7 22  1  0  0  0  0
  8 13  2  0  0  0  0
  8 25  1  0  0  0  0
  9 26  1  0  0  0  0
 10 26  2  0  0  0  0
 11 27  1  0  0  0  0
 12 14  2  0  0  0  0
 12 28  1  0  0  0  0
 13 30  1  0  0  0  0
 14 29  1  0  0  0  0
 15 19  1  0  0  0  0
 15 25  2  0  0  0  0
 16 24  1  0  0  0  0
 16 27  2  0  0  0  0
 17 29  2  0  0  0  0
 17 31  1  0  0  0  0
 18 32  1  0  0  0  0
 19 30  2  0  0  0  0
 19 34  1  0  0  0  0
 20 32  1  0  0  0  0
 20 33  2  0  0  0  0
 20 35  1  0  0  0  0
 21 23  2  0  0  0  0
 21 41  1  0  0  0  0
 22 24  2  0  0  0  0
 22 42  1  0  0  0  0
 23 50  1  0  0  0  0
 24 43  1  0  0  0  0
 25 64  1  0  0  0  0
 26 80  1  0  0  0  0
 27 81  1  0  0  0  0
 28 31  2  0  0  0  0
 28 80  1  0  0  0  0
 29 82  1  0  0  0  0
 30 83  1  0  0  0  0
 31 84  1  0  0  0  0
 32 63  2  0  0  0  0
 33 65  1  0  0  0  0
 33 68  1  0  0  0  0
 34 70  1  0  0  0  0
 34 74  2  0  0  0  0
 35 69  1  0  0  0  0
 35 75  2  0  0  0  0
 36 51  1  0  0  0  0
 36 71  1  0  0  0  0
 36 76  2  0  0  0  0
 37 53  1  0  0  0  0
 37 59  1  0  0  0  0
 37 64  2  0  0  0  0
 38 60  1  0  0  0  0
 38 66  1  0  0  0  0
 38 77  2  0  0  0  0
 39 61  1  0  0  0  0
 39 72  1  0  0  0  0
 39 78  2  0  0  0  0
 40 67  1  0  0  0  0
 40 70  1  0  0  0  0
 40 79  2  0  0  0  0
 41 44  1  0  0  0  0
 42 51  1  0  0  0  0
 43 66  1  0  0  0  0
 44 46  1  0  0  0  0
 45 47  1  0  0  0  0
 45 48  1  0  0  0  0
 46 50  1  0  0  0  0
 47 52  1  0  0  0  0
 48 67  1  0  0  0  0
 49 52  1  0  0  0  0
 49 67  1  0  0  0  0
 50 71  1  0  0  0  0
 51 66  1  0  0  0  0
 52 65  1  0  0  0  0
 54 61  1  0  0  0  0
 55 62  1  0  0  0  0
 56 62  1  0  0  0  0
 57 62  1  0  0  0  0
 58 73  1  0  0  0  0
 59 81  1  0  0  0  0
 60 62  1  0  0  0  0
 60 72  1  0  0  0  0
 61 73  1  0  0  0  0
 63 65  1  0  0  0  0
M  CHG  1  73   1
M  ISO  4  40 100  59 101  70 100  81 101
M  END
> <Batch ID>
0074

> <Smiles>
C=C(Nc1ccc(F)c(C(=O)[100NH:0][100C:0](=O)N2CCCC(n3nc(-c4ccc(Oc5ccc(F)cc5F)cc4)c(C(N)=O)c3N)C2)c1)[101CH2:1][101O:1]c1ccc2c(c1)CN(C(=O)C(NC(=O)C(C)NC)C(C)(C)C)C(C(=O)NC1CCCc3ccccc31)C2

> <Shape>
0.172

> <Color>
0.076

> <Negative vol penalty>
0.000

$$$$

  -OEChem-04042323443D

 87 96  0     1  0  0  0  0  0999 V2000
  -17.4848  -26.4924   21.0021 C   0  0  0  0  0  0  0  0  0  0  0  0
  -18.5428  -25.8601   21.6472 C   0  0  0  0  0  0  0  0  0  0  0  0
  -23.1368   -9.8115   20.1839 C   0  0  0  0  0  0  0  0  0  0  0  0
  -23.8038  -10.1029   22.4876 C   0  0  0  0  0  0  0  0  0  0  0  0
  -17.6924  -27.7089   20.3532 C   0  0  0  0  0  0  0  0  0  0  0  0
  -19.8094  -26.4434   21.6429 C   0  0  0  0  0  0  0  0  0  0  0  0
  -23.9665  -26.2509   26.1359 C   0  0  0  0  0  0  0  0  0  0  0  0
  -22.4089   -8.6756   20.5383 C   0  0  0  0  0  0  0  0  0  0  0  0
  -23.0759   -8.9670   22.8421 C   0  0  0  0  0  0  0  0  0  0  0  0
  -25.0912  -25.4526   26.3396 C   0  0  0  0  0  0  0  0  0  0  0  0
  -19.8444   -8.1593   23.4125 C   0  0  0  0  0  0  0  0  0  0  0  0
  -19.0422   -8.2347   24.5511 C   0  0  0  0  0  0  0  0  0  0  0  0
  -26.4798  -27.1735   25.3754 C   0  0  0  0  0  0  0  0  0  0  0  0
  -29.6389  -17.8962   22.7289 C   0  0  0  0  0  0  0  0  0  0  0  0
  -31.5480  -18.9659   23.7526 C   0  0  0  0  0  0  0  0  0  0  0  0
  -31.8627  -17.0429   22.3242 C   0  0  0  0  0  0  0  0  0  0  0  0
  -20.2951   -6.4285   25.5535 C   0  0  0  0  0  0  0  0  0  0  0  0
  -23.8343  -10.5251   21.1585 C   0  0  0  0  0  0  0  0  0  0  0  0
  -24.1254  -13.0277   20.7586 C   0  0  0  0  0  0  0  0  0  0  0  0
  -18.9599  -28.3122   20.3492 C   0  0  0  0  0  0  0  0  0  0  0  0
  -24.0888  -27.5142   25.5395 C   0  0  0  0  0  0  0  0  0  0  0  0
  -20.0344  -27.6685   20.9922 C   0  0  0  0  0  0  0  0  0  0  0  0
  -25.3554  -27.9869   25.1676 C   0  0  0  0  0  0  0  0  0  0  0  0
  -30.1704  -18.8937   23.5463 C   0  0  0  0  0  0  0  0  0  0  0  0
  -30.4851  -16.9707   22.1179 C   0  0  0  0  0  0  0  0  0  0  0  0
  -22.3784   -8.2534   21.8674 C   0  0  0  0  0  0  0  0  0  0  0  0
  -26.3477  -25.9127   25.9567 C   0  0  0  0  0  0  0  0  0  0  0  0
  -20.8719   -7.2184   23.3444 C   0  0  0  0  0  0  0  0  0  0  0  0
  -19.2676   -7.3693   25.6216 C   0  0  0  0  0  0  0  0  0  0  0  0
  -32.3942  -18.0405   23.1416 C   0  0  0  0  0  0  0  0  0  0  0  0
  -21.0973   -6.3530   24.4149 C   0  0  0  0  0  0  0  0  0  0  0  0
  -24.5869  -11.6981   20.7929 C   0  0  0  0  0  0  0  0  0  0  0  0
  -25.2146  -13.7588   20.3516 C   0  0  0  0  0  0  0  0  0  0  0  0
  -29.6892  -20.9002   25.0204 C   0  0  0  0  0  0  0  0  0  0  0  0
  -22.8282  -13.5547   21.0671 C   0  0  0  0  0  0  0  0  0  0  0  0
  -22.9814  -28.8553   22.8789 C   0  0  0  0  0  0  0  0  0  0  0  0
  -24.3448  -31.5240   24.1205 C   0  0  0  0  0  0  0  0  0  0  0  0
  -26.6812  -32.8824   26.2044 C   0  0  0  0  0  0  0  0  0  0  0  0
  -30.6452  -14.9612   20.6071 C   0  0  0  0  0  0  0  0  0  0  0  0
  -19.1464  -29.6044   19.5941 C   0  0  0  0  0  0  0  0  0  0  0  0
  -22.8692  -28.3741   25.3511 C   0  0  0  0  0  0  0  0  0  0  0  0
  -25.5430  -29.3440   24.5419 C   0  0  0  0  0  0  0  0  0  0  0  0
  -20.4339  -30.3406   19.9555 C   0  0  0  0  0  0  0  0  0  0  0  0
  -29.6796  -12.2618   18.4957 C   0  0  0  0  0  0  0  0  0  0  0  0
  -21.6143  -29.3746   19.9731 C   0  0  0  0  0  0  0  0  0  0  0  0
  -28.2307  -11.9839   18.9023 C   0  0  0  0  0  0  0  0  0  0  0  0
  -27.3724  -21.1265   24.5080 C   0  0  0  0  0  0  0  0  0  0  0  0
  -30.5407  -12.6517   19.6958 C   0  0  0  0  0  0  0  0  0  0  0  0
  -27.8626  -19.7734   24.0296 C   0  0  0  0  0  0  0  0  0  0  0  0
  -28.5645  -13.4801   20.9115 C   0  0  0  0  0  0  0  0  0  0  0  0
  -21.4173  -28.2819   21.0308 C   0  0  1  0  0  0  0  0  0  0  0  0
  -23.0454  -29.4311   24.2652 C   0  0  1  0  0  0  0  0  0  0  0  0
  -27.6437  -13.1466   19.7264 C   0  0  2  0  0  0  0  0  0  0  0  0
  -28.4109  -21.5476   25.5509 C   0  0  1  0  0  0  0  0  0  0  0  0
  -28.0934  -20.9633   26.9324 C   0  0  0  0  0  0  0  0  0  0  0  0
  -27.5827  -35.0925   26.9790 C   0  0  0  0  0  0  0  0  0  0  0  0
  -25.8424  -31.8356   21.4804 C   0  0  0  0  0  0  0  0  0  0  0  0
  -27.3867  -33.4392   22.6259 C   0  0  0  0  0  0  0  0  0  0  0  0
  -24.9568  -33.9705   22.4357 C   0  0  0  0  0  0  0  0  0  0  0  0
  -25.9253  -32.3375   29.0134 C   0  0  0  0  0  0  0  0  0  0  0  0
  -28.5434  -23.0664   25.6329 C   0  0  0  0  0  0  0  0  0  0  0  0
  -27.2581  -23.7213   26.1152 C   0  0  0  0  0  0  0  0  0  1  0  0
  -25.7091  -32.1650   24.0377 C   0  0  1  0  0  0  0  0  0  0  0  0
  -26.5828  -33.9790   27.2494 C   0  0  2  0  0  0  0  0  0  0  0  0
  -25.9703  -32.8261   22.6549 C   0  0  0  0  0  0  0  0  0  0  0  0
  -25.8693  -11.5881   20.4361 N   0  0  0  0  0  0  0  0  0  0  0  0
  -26.2229  -12.8577   20.1735 N   0  0  0  0  0  0  0  0  0  0  0  0
  -29.3047  -19.8410   24.1722 N   0  0  0  0  0  0  0  0  0  0  0  0
  -24.3194  -30.1450   24.3727 N   0  0  0  0  0  0  0  0  0  0  0  0
  -29.9246  -13.7618   20.4260 N   0  0  0  0  0  0  0  0  0  0  0  0
  -25.3986  -15.0780   20.1322 N   0  0  0  0  0  0  0  0  0  0  0  0
  -21.8237  -12.6641   21.4698 N   0  0  0  0  0  0  0  0  0  0  0  0
  -29.9455  -15.9571   21.2878 N   0  0  0  0  0  0  0  0  0  0  0  0
  -21.7054  -28.7989   22.3514 N   0  0  0  0  0  0  0  0  0  0  0  0
  -25.7968  -33.0854   25.1662 N   0  0  0  0  0  0  0  0  0  0  0  0
  -26.8508  -33.4263   28.6072 N   0  3  0  0  0  0  0  0  0  0  0  0
  -30.8080  -21.2539   25.3662 O   0  0  0  0  0  0  0  0  0  0  0  0
  -22.5630  -14.7770   20.9721 O   0  0  0  0  0  0  0  0  0  0  0  0
  -24.0134  -28.4905   22.3279 O   0  0  0  0  0  0  0  0  0  0  0  0
  -23.3386  -32.2224   23.9740 O   0  0  0  0  0  0  0  0  0  0  0  0
  -27.4668  -31.9419   26.2978 O   0  0  0  0  0  0  0  0  0  0  0  0
  -31.7882  -15.1045   20.1655 O   0  0  0  0  0  0  0  0  0  0  0  0
  -21.6680   -7.1453   22.2136 O   0  0  0  0  0  0  0  0  0  0  0  0
  -27.4471  -25.1352   26.1538 O   0  0  0  0  0  0  0  0  0  1  0  0
  -18.4981   -7.4429   26.7156 F   0  0  0  0  0  0  0  0  0  0  0  0
  -33.7171  -18.1091   23.3402 F   0  0  0  0  0  0  0  0  0  0  0  0
  -22.0837   -5.4479   24.3557 F   0  0  0  0  0  0  0  0  0  0  0  0
  1  2  1  0  0  0  0
  1  5  2  0  0  0  0
  2  6  2  0  0  0  0
  3  8  2  0  0  0  0
  3 18  1  0  0  0  0
  4  9  1  0  0  0  0
  4 18  2  0  0  0  0
  5 20  1  0  0  0  0
  6 22  1  0  0  0  0
  7 10  2  0  0  0  0
  7 21  1  0  0  0  0
  8 26  1  0  0  0  0
  9 26  2  0  0  0  0
 10 27  1  0  0  0  0
 11 12  2  0  0  0  0
 11 28  1  0  0  0  0
 12 29  1  0  0  0  0
 13 23  1  0  0  0  0
 13 27  2  0  0  0  0
 14 24  2  0  0  0  0
 14 25  1  0  0  0  0
 15 24  1  0  0  0  0
 15 30  2  0  0  0  0
 16 25  2  0  0  0  0
 16 30  1  0  0  0  0
 17 29  2  0  0  0  0
 17 31  1  0  0  0  0
 18 32  1  0  0  0  0
 19 32  1  0  0  0  0
 19 33  2  0  0  0  0
 19 35  1  0  0  0  0
 20 22  2  0  0  0  0
 20 40  1  0  0  0  0
 21 23  2  0  0  0  0
 21 41  1  0  0  0  0
 22 51  1  0  0  0  0
 23 42  1  0  0  0  0
 24 68  1  0  0  0  0
 25 73  1  0  0  0  0
 26 83  1  0  0  0  0
 27 84  1  0  0  0  0
 28 31  2  0  0  0  0
 28 83  1  0  0  0  0
 29 85  1  0  0  0  0
 30 86  1  0  0  0  0
 31 87  1  0  0  0  0
 32 66  2  0  0  0  0
 33 67  1  0  0  0  0
 33 71  1  0  0  0  0
 34 54  1  0  0  0  0
 34 68  1  0  0  0  0
 34 77  2  0  0  0  0
 35 72  1  0  0  0  0
 35 78  2  0  0  0  0
 36 52  1  0  0  0  0
 36 74  1  0  0  0  0
 36 79  2  0  0  0  0
 37 63  1  0  0  0  0
 37 69  1  0  0  0  0
 37 80  2  0  0  0  0
 38 64  1  0  0  0  0
 38 75  1  0  0  0  0
 38 81  2  0  0  0  0
 39 70  1  0  0  0  0
 39 73  1  0  0  0  0
 39 82  2  0  0  0  0
 40 43  1  0  0  0  0
 41 52  1  0  0  0  0
 42 69  1  0  0  0  0
 43 45  1  0  0  0  0
 44 46  1  0  0  0  0
 44 48  1  0  0  0  0
 45 51  1  0  0  0  0
 46 53  1  0  0  0  0
 47 49  1  0  0  0  0
 47 54  1  0  0  0  0
 48 70  1  0  0  0  0
 49 68  1  0  0  0  0
 50 53  1  0  0  0  0
 50 70  1  0  0  0  0
 51 74  1  0  0  0  0
 52 69  1  0  0  0  0
 53 67  1  0  0  0  0
 54 55  1  0  0  0  0
 54 61  1  0  0  0  0
 56 64  1  0  0  0  0
 57 65  1  0  0  0  0
 58 65  1  0  0  0  0
 59 65  1  0  0  0  0
 60 76  1  0  0  0  0
 61 62  1  0  0  0  0
 62 84  1  0  0  0  0
 63 65  1  0  0  0  0
 63 75  1  0  0  0  0
 64 76  1  0  0  0  0
 66 67  1  0  0  0  0
M  CHG  1  76   1
M  ISO  4  39 100  62 101  73 100  84 101
M  END
> <Batch ID>
0074

> <Smiles>
CNC(C)C(=O)NC(C(=O)N1Cc2cc([101O:1][101CH2:1]CC3(C)CCN(c4cc(F)cc([100NH:0][100C:0](=O)N5CCCC(n6nc(-c7ccc(Oc8ccc(F)cc8F)cc7)c(C(N)=O)c6N)C5)c4)C3=O)ccc2CC1C(=O)NC1CCCc2ccccc21)C(C)(C)C

> <Shape>
0.291

> <Color>
0.233

> <Negative vol penalty>
0.000

$$$$

  -OEChem-04042323443D

 85 93  0     1  0  0  0  0  0999 V2000
  -23.7327  -18.4812   25.0630 C   0  0  0  0  0  0  0  0  0  0  0  0
  -24.7336  -19.2378   24.4620 C   0  0  0  0  0  0  0  0  0  0  0  0
  -24.5220  -12.2802   21.5716 C   0  0  0  0  0  0  0  0  0  0  0  0
  -26.2337  -12.2002   19.8685 C   0  0  0  0  0  0  0  0  0  0  0  0
  -22.3932  -18.7637   24.7989 C   0  0  0  0  0  0  0  0  0  0  0  0
  -24.3954  -20.2768   23.5956 C   0  0  0  0  0  0  0  0  0  0  0  0
  -27.3634  -25.5854   22.8780 C   0  0  0  0  0  0  0  0  0  0  0  0
  -31.3829  -21.7886   19.1664 C   0  0  0  0  0  0  0  0  0  0  0  0
  -30.2533  -21.0644   19.5473 C   0  0  0  0  0  0  0  0  0  0  0  0
  -24.1911  -10.9523   21.3015 C   0  0  0  0  0  0  0  0  0  0  0  0
  -25.9029  -10.8723   19.5983 C   0  0  0  0  0  0  0  0  0  0  0  0
  -28.2910  -26.0211   21.9328 C   0  0  0  0  0  0  0  0  0  0  0  0
  -25.4081   -7.8837   22.0331 C   0  0  0  0  0  0  0  0  0  0  0  0
  -25.2182   -7.0292   23.1190 C   0  0  0  0  0  0  0  0  0  0  0  0
  -26.5124  -27.0541   20.6724 C   0  0  0  0  0  0  0  0  0  0  0  0
  -28.9185  -22.3172   17.9706 C   0  0  0  0  0  0  0  0  0  0  0  0
  -22.9498   -6.6161   22.3973 C   0  0  0  0  0  0  0  0  0  0  0  0
  -25.5432  -12.9041   20.8550 C   0  0  0  0  0  0  0  0  0  0  0  0
  -26.8325  -14.7442   22.0632 C   0  0  0  0  0  0  0  0  0  0  0  0
  -22.0383  -19.8128   23.9363 C   0  0  0  0  0  0  0  0  0  0  0  0
  -25.9997  -25.8720   22.7216 C   0  0  0  0  0  0  0  0  0  0  0  0
  -23.0499  -20.5727   23.3186 C   0  0  0  0  0  0  0  0  0  0  0  0
  -25.5699  -26.6231   21.6183 C   0  0  0  0  0  0  0  0  0  0  0  0
  -31.2803  -22.7772   18.1876 C   0  0  0  0  0  0  0  0  0  0  0  0
  -29.0211  -21.3287   18.9495 C   0  0  0  0  0  0  0  0  0  0  0  0
  -24.8816  -10.2484   20.3149 C   0  0  0  0  0  0  0  0  0  0  0  0
  -27.8653  -26.7531   20.8282 C   0  0  0  0  0  0  0  0  0  0  0  0
  -24.3688   -8.1045   21.1293 C   0  0  0  0  0  0  0  0  0  0  0  0
  -23.9890   -6.3954   23.3011 C   0  0  0  0  0  0  0  0  0  0  0  0
  -30.0481  -23.0414   17.5897 C   0  0  0  0  0  0  0  0  0  0  0  0
  -23.1397   -7.4707   21.3114 C   0  0  0  0  0  0  0  0  0  0  0  0
  -25.8850  -14.2760   21.1332 C   0  0  0  0  0  0  0  0  0  0  0  0
  -26.7814  -16.1118   21.9464 C   0  0  0  0  0  0  0  0  0  0  0  0
  -27.6828  -14.0087   22.9530 C   0  0  0  0  0  0  0  0  0  0  0  0
  -23.3681  -24.1265   22.3582 C   0  0  0  0  0  0  0  0  0  0  0  0
  -21.8937  -27.0055   22.6024 C   0  0  0  0  0  0  0  0  0  0  0  0
  -32.7335  -25.5813   19.1860 C   0  0  0  0  0  0  0  0  0  0  0  0
  -22.0875  -30.3969   22.2738 C   0  0  0  0  0  0  0  0  0  0  0  0
  -26.5760  -20.7313   18.8447 C   0  0  0  0  0  0  0  0  0  0  0  0
  -20.5777  -20.0501   23.6445 C   0  0  0  0  0  0  0  0  0  0  0  0
  -25.0151  -25.4177   23.7640 C   0  0  0  0  0  0  0  0  0  0  0  0
  -24.1195  -26.9746   21.4148 C   0  0  0  0  0  0  0  0  0  0  0  0
  -20.2969  -21.4083   23.0068 C   0  0  0  0  0  0  0  0  0  0  0  0
  -23.4886  -19.0894   19.5149 C   0  0  0  0  0  0  0  0  0  0  0  0
  -21.2805  -21.6794   21.8729 C   0  0  0  0  0  0  0  0  0  0  0  0
  -23.9147  -17.7293   20.0722 C   0  0  0  0  0  0  0  0  0  0  0  0
  -24.4250  -19.5668   18.4063 C   0  0  0  0  0  0  0  0  0  0  0  0
  -26.2762  -18.2209   19.3179 C   0  0  0  0  0  0  0  0  0  0  0  0
  -22.7226  -21.7238   22.3923 C   0  0  1  0  0  0  0  0  0  0  0  0
  -23.5865  -25.3257   23.2367 C   0  0  1  0  0  0  0  0  0  0  0  0
  -25.4006  -17.7286   20.4818 C   0  0  2  0  0  0  0  0  0  0  0  0
  -20.7090  -32.4807   22.5086 C   0  0  0  0  0  0  0  0  0  0  0  0
  -20.4833  -26.3657   19.9734 C   0  0  0  0  0  0  0  0  0  0  0  0
  -19.8920  -28.7909   19.7810 C   0  0  0  0  0  0  0  0  0  0  0  0
  -19.0324  -27.4478   21.6993 C   0  0  0  0  0  0  0  0  0  0  0  0
  -23.8771  -31.4843   24.3652 C   0  0  0  0  0  0  0  0  0  0  0  0
  -32.4990  -23.5530   17.7791 C   0  0  0  0  0  0  0  0  0  0  0  0
  -32.4540  -27.0735   19.1642 C   0  0  0  0  0  0  0  0  0  0  0  0
  -30.9734  -27.3867   18.9807 C   0  0  0  0  0  0  0  0  0  0  0  0
  -30.1364  -26.8404   20.1282 C   0  0  0  0  0  0  0  0  0  1  0  0
  -21.4791  -28.0804   21.6269 C   0  0  1  0  0  0  0  0  0  0  0  0
  -21.6681  -31.5242   23.2000 C   0  0  2  0  0  0  0  0  0  0  0  0
  -20.2489  -27.6631   20.7727 C   0  0  0  0  0  0  0  0  0  0  0  0
  -25.2764  -15.2657   20.4744 N   0  0  0  0  0  0  0  0  0  0  0  0
  -25.8428  -16.3695   20.9911 N   0  0  0  0  0  0  0  0  0  0  0  0
  -23.1945  -26.5023   22.4582 N   0  0  0  0  0  0  0  0  0  0  0  0
  -25.8147  -19.5435   18.8679 N   0  0  0  0  0  0  0  0  0  0  0  0
  -27.4482  -17.1069   22.5689 N   0  0  0  0  0  0  0  0  0  0  0  0
  -27.6078  -12.6092   22.9444 N   0  0  0  0  0  0  0  0  0  0  0  0
  -27.8732  -20.5944   19.3378 N   0  0  0  0  0  0  0  0  0  0  0  0
  -22.9865  -22.9889   23.0436 N   0  0  0  0  0  0  0  0  0  0  0  0
  -32.3384  -24.9698   18.0051 N   0  0  0  0  0  0  0  0  0  0  0  0
  -21.2761  -29.2910   22.4154 N   0  0  0  0  0  0  0  0  0  0  0  0
  -22.8608  -32.2970   23.6484 N   0  3  0  0  0  0  0  0  0  0  0  0
  -28.4735  -14.5763   23.7442 O   0  0  0  0  0  0  0  0  0  0  0  0
  -23.5323  -24.2262   21.1479 O   0  0  0  0  0  0  0  0  0  0  0  0
  -21.0955  -26.6313   23.4651 O   0  0  0  0  0  0  0  0  0  0  0  0
  -33.2476  -25.0050   20.1408 O   0  0  0  0  0  0  0  0  0  0  0  0
  -23.0373  -30.4895   21.4994 O   0  0  0  0  0  0  0  0  0  0  0  0
  -26.1026  -21.7978   18.4441 O   0  0  0  0  0  0  0  0  0  0  0  0
  -24.5592   -8.9526   20.0512 O   0  0  0  0  0  0  0  0  0  0  0  0
  -28.7685  -27.1790   19.9038 O   0  0  0  0  0  0  0  0  0  1  0  0
  -23.8073   -5.5736   24.3432 F   0  0  0  0  0  0  0  0  0  0  0  0
  -29.9396  -23.9892   16.6483 F   0  0  0  0  0  0  0  0  0  0  0  0
  -22.1379   -7.6781   20.4457 F   0  0  0  0  0  0  0  0  0  0  0  0
  1  2  1  0  0  0  0
  1  5  2  0  0  0  0
  2  6  2  0  0  0  0
  3 10  2  0  0  0  0
  3 18  1  0  0  0  0
  4 11  1  0  0  0  0
  4 18  2  0  0  0  0
  5 20  1  0  0  0  0
  6 22  1  0  0  0  0
  7 12  2  0  0  0  0
  7 21  1  0  0  0  0
  8  9  2  0  0  0  0
  8 24  1  0  0  0  0
  9 25  1  0  0  0  0
 10 26  1  0  0  0  0
 11 26  2  0  0  0  0
 12 27  1  0  0  0  0
 13 14  2  0  0  0  0
 13 28  1  0  0  0  0
 14 29  1  0  0  0  0
 15 23  1  0  0  0  0
 15 27  2  0  0  0  0
 16 25  2  0  0  0  0
 16 30  1  0  0  0  0
 17 29  2  0  0  0  0
 17 31  1  0  0  0  0
 18 32  1  0  0  0  0
 19 32  1  0  0  0  0
 19 33  2  0  0  0  0
 19 34  1  0  0  0  0
 20 22  2  0  0  0  0
 20 40  1  0  0  0  0
 21 23  2  0  0  0  0
 21 41  1  0  0  0  0
 22 49  1  0  0  0  0
 23 42  1  0  0  0  0
 24 30  2  0  0  0  0
 24 57  1  0  0  0  0
 25 70  1  0  0  0  0
 26 81  1  0  0  0  0
 27 82  1  0  0  0  0
 28 31  2  0  0  0  0
 28 81  1  0  0  0  0
 29 83  1  0  0  0  0
 30 84  1  0  0  0  0
 31 85  1  0  0  0  0
 32 64  2  0  0  0  0
 33 65  1  0  0  0  0
 33 68  1  0  0  0  0
 34 69  1  0  0  0  0
 34 75  2  0  0  0  0
 35 50  1  0  0  0  0
 35 71  1  0  0  0  0
 35 76  2  0  0  0  0
 36 61  1  0  0  0  0
 36 66  1  0  0  0  0
 36 77  2  0  0  0  0
 37 58  1  0  0  0  0
 37 72  1  0  0  0  0
 37 78  2  0  0  0  0
 38 62  1  0  0  0  0
 38 73  1  0  0  0  0
 38 79  2  0  0  0  0
 39 67  1  0  0  0  0
 39 70  1  0  0  0  0
 39 80  2  0  0  0  0
 40 43  1  0  0  0  0
 41 50  1  0  0  0  0
 42 66  1  0  0  0  0
 43 45  1  0  0  0  0
 44 46  1  0  0  0  0
 44 47  1  0  0  0  0
 45 49  1  0  0  0  0
 46 51  1  0  0  0  0
 47 67  1  0  0  0  0
 48 51  1  0  0  0  0
 48 67  1  0  0  0  0
 49 71  1  0  0  0  0
 50 66  1  0  0  0  0
 51 65  1  0  0  0  0
 52 62  1  0  0  0  0
 53 63  1  0  0  0  0
 54 63  1  0  0  0  0
 55 63  1  0  0  0  0
 56 74  1  0  0  0  0
 57 72  1  0  0  0  0
 58 59  1  0  0  0  0
 59 60  1  0  0  0  0
 60 82  1  0  0  0  0
 61 63  1  0  0  0  0
 61 73  1  0  0  0  0
 62 74  1  0  0  0  0
 64 65  1  0  0  0  0
M  CHG  1  74   1
M  ISO  4  39 100  60 101  70 100  82 101
M  END
> <Batch ID>
0074

> <Smiles>
CNC(C)C(=O)NC(C(=O)N1Cc2cc([101O:1][101CH2:1]CCC(=O)NCc3ccc([100NH:0][100C:0](=O)N4CCCC(n5nc(-c6ccc(Oc7ccc(F)cc7F)cc6)c(C(N)=O)c5N)C4)cc3F)ccc2CC1C(=O)NC1CCCc2ccccc21)C(C)(C)C

> <Shape>
0.194

> <Color>
0.056

> <Negative vol penalty>
0.000

$$$$

  -OEChem-04042323443D

 86 94  0     1  0  0  0  0  0999 V2000
  -29.8710  -35.7042   25.6325 C   0  0  0  0  0  0  0  0  0  0  0  0
  -29.6449  -34.3442   25.4461 C   0  0  0  0  0  0  0  0  0  0  0  0
  -23.9361   -9.8750   22.4050 C   0  0  0  0  0  0  0  0  0  0  0  0
  -24.2869  -11.6620   23.9927 C   0  0  0  0  0  0  0  0  0  0  0  0
  -30.8729  -20.0368   19.1231 C   0  0  0  0  0  0  0  0  0  0  0  0
  -28.7933  -36.5864   25.6967 C   0  0  0  0  0  0  0  0  0  0  0  0
  -28.3408  -33.8655   25.3250 C   0  0  0  0  0  0  0  0  0  0  0  0
  -27.8393  -30.5283   21.5491 C   0  0  0  0  0  0  0  0  0  0  0  0
  -30.6502  -18.6599   19.1297 C   0  0  0  0  0  0  0  0  0  0  0  0
  -23.4357   -9.0665   23.4255 C   0  0  0  0  0  0  0  0  0  0  0  0
  -23.7864  -10.8535   25.0132 C   0  0  0  0  0  0  0  0  0  0  0  0
  -28.2868  -29.2290   21.7841 C   0  0  0  0  0  0  0  0  0  0  0  0
  -20.5396   -8.7209   25.1361 C   0  0  0  0  0  0  0  0  0  0  0  0
  -19.3738   -7.9996   24.8790 C   0  0  0  0  0  0  0  0  0  0  0  0
  -28.4896  -20.4221   19.0324 C   0  0  0  0  0  0  0  0  0  0  0  0
  -26.0171  -28.5306   22.2087 C   0  0  0  0  0  0  0  0  0  0  0  0
  -20.5604   -5.9355   25.2894 C   0  0  0  0  0  0  0  0  0  0  0  0
  -24.3618  -11.1727   22.6886 C   0  0  0  0  0  0  0  0  0  0  0  0
  -29.7926  -20.9179   19.0746 C   0  0  0  0  0  0  0  0  0  0  0  0
  -24.1503  -12.8850   20.8095 C   0  0  0  0  0  0  0  0  0  0  0  0
  -27.4758  -36.1195   25.5666 C   0  0  0  0  0  0  0  0  0  0  0  0
  -26.4764  -30.8415   21.6530 C   0  0  0  0  0  0  0  0  0  0  0  0
  -27.2444  -34.7421   25.3889 C   0  0  0  0  0  0  0  0  0  0  0  0
  -25.5546  -29.8341   21.9720 C   0  0  0  0  0  0  0  0  0  0  0  0
  -29.3471  -18.1641   19.0875 C   0  0  0  0  0  0  0  0  0  0  0  0
  -23.3608   -9.5557   24.7296 C   0  0  0  0  0  0  0  0  0  0  0  0
  -27.3760  -28.2305   22.1168 C   0  0  0  0  0  0  0  0  0  0  0  0
  -21.7159   -8.0496   25.4698 C   0  0  0  0  0  0  0  0  0  0  0  0
  -19.3841   -6.6069   24.9556 C   0  0  0  0  0  0  0  0  0  0  0  0
  -28.2668  -19.0451   19.0389 C   0  0  0  0  0  0  0  0  0  0  0  0
  -21.7262   -6.6569   25.5465 C   0  0  0  0  0  0  0  0  0  0  0  0
  -24.8794  -12.0082   21.6349 C   0  0  0  0  0  0  0  0  0  0  0  0
  -25.0936  -13.4388   19.9789 C   0  0  0  0  0  0  0  0  0  0  0  0
  -28.4602  -26.3103   21.3368 C   0  0  0  0  0  0  0  0  0  1  0  0
  -30.0277  -22.3768   19.0678 C   0  0  0  0  0  0  0  0  0  0  0  0
  -22.7458  -13.1731   20.7948 C   0  0  0  0  0  0  0  0  0  0  0  0
  -28.9368  -25.0601   21.4346 C   0  0  0  0  0  0  0  0  0  0  0  0
  -29.6213  -24.5364   20.2165 C   0  0  0  0  0  0  0  0  0  0  0  0
  -24.7540  -32.7803   23.4909 C   0  0  0  0  0  0  0  0  0  0  0  0
  -22.3404  -31.8592   21.5293 C   0  0  0  0  0  0  0  0  0  0  0  0
  -21.0833  -29.5234   19.3820 C   0  0  0  0  0  0  0  0  0  0  0  0
  -30.0865  -15.7564   19.1404 C   0  0  0  0  0  0  0  0  0  0  0  0
  -26.3408  -37.1051   25.6900 C   0  0  0  0  0  0  0  0  0  0  0  0
  -26.0066  -32.2421   21.3702 C   0  0  0  0  0  0  0  0  0  0  0  0
  -24.0784  -30.1141   22.0763 C   0  0  0  0  0  0  0  0  0  0  0  0
  -25.0077  -36.5662   25.1776 C   0  0  0  0  0  0  0  0  0  0  0  0
  -29.9409  -12.1996   19.2109 C   0  0  0  0  0  0  0  0  0  0  0  0
  -24.7607  -35.1584   25.7106 C   0  0  0  0  0  0  0  0  0  0  0  0
  -28.5511  -11.9048   19.7799 C   0  0  0  0  0  0  0  0  0  0  0  0
  -30.5716  -13.4288   19.8628 C   0  0  0  0  0  0  0  0  0  0  0  0
  -28.3506  -14.3444   20.4087 C   0  0  0  0  0  0  0  0  0  0  0  0
  -25.8455  -34.1877   25.2284 C   0  0  1  0  0  0  0  0  0  0  0  0
  -24.6576  -32.5600   22.0077 C   0  0  1  0  0  0  0  0  0  0  0  0
  -27.6482  -13.1532   19.7369 C   0  0  2  0  0  0  0  0  0  0  0  0
  -28.8199  -24.2303   22.6758 C   0  0  0  0  0  0  0  0  0  0  0  0
  -19.0716  -29.0305   17.9650 C   0  0  0  0  0  0  0  0  0  0  0  0
  -20.7734  -31.0807   24.0290 C   0  0  0  0  0  0  0  0  0  0  0  0
  -19.2337  -29.7548   22.5662 C   0  0  0  0  0  0  0  0  0  0  0  0
  -19.4204  -32.2239   22.2635 C   0  0  0  0  0  0  0  0  0  0  0  0
  -22.6925  -29.5075   16.8982 C   0  0  0  0  0  0  0  0  0  0  0  0
  -21.3300  -30.7375   21.5313 C   0  0  1  0  0  0  0  0  0  0  0  0
  -20.4581  -29.6542   18.0048 C   0  0  2  0  0  0  0  0  0  0  0  0
  -20.2174  -30.9441   22.5975 C   0  0  0  0  0  0  0  0  0  0  0  0
  -26.1852  -12.0019   21.3542 N   0  0  0  0  0  0  0  0  0  0  0  0
  -26.2840  -12.8815   20.3430 N   0  0  0  0  0  0  0  0  0  0  0  0
  -23.6691  -31.5004   21.7969 N   0  0  0  0  0  0  0  0  0  0  0  0
  -29.6613  -14.5730   19.7804 N   0  0  0  0  0  0  0  0  0  0  0  0
  -25.0127  -14.3432   18.9800 N   0  0  0  0  0  0  0  0  0  0  0  0
  -21.9193  -12.5157   21.7162 N   0  0  0  0  0  0  0  0  0  0  0  0
  -29.1243  -16.7647   19.0944 N   0  0  0  0  0  0  0  0  0  0  0  0
  -29.5066  -23.1044   20.0674 N   0  0  0  0  0  0  0  0  0  0  0  0
  -25.6067  -33.8056   23.8531 N   0  0  0  0  0  0  0  0  0  0  0  0
  -20.8344  -30.6320   20.1632 N   0  0  0  0  0  0  0  0  0  0  0  0
  -30.7487  -22.8821   18.0670 N   0  3  0  0  0  0  0  0  0  0  0  0
  -21.3073  -28.9776   16.9841 N   0  3  0  0  0  0  0  0  0  0  0  0
  -22.2365  -13.9771   19.9777 O   0  0  0  0  0  0  0  0  0  0  0  0
  -30.2293  -25.2180   19.4049 O   0  0  0  0  0  0  0  0  0  0  0  0
  -24.1019  -32.0735   24.2504 O   0  0  0  0  0  0  0  0  0  0  0  0
  -21.9657  -33.0102   21.2917 O   0  0  0  0  0  0  0  0  0  0  0  0
  -21.7248  -28.5350   19.7311 O   0  0  0  0  0  0  0  0  0  0  0  0
  -31.2113  -15.8574   18.6438 O   0  0  0  0  0  0  0  0  0  0  0  0
  -22.8723   -8.7672   25.7256 O   0  0  0  0  0  0  0  0  0  0  0  0
  -27.8102  -26.9615   22.3473 O   0  0  0  0  0  0  0  0  0  1  0  0
  -18.2642   -5.9144   24.7101 F   0  0  0  0  0  0  0  0  0  0  0  0
  -27.0102  -18.5796   18.9967 F   0  0  0  0  0  0  0  0  0  0  0  0
  -22.8529   -6.0064   25.8678 F   0  0  0  0  0  0  0  0  0  0  0  0
  1  2  1  0  0  0  0
  1  6  2  0  0  0  0
  2  7  2  0  0  0  0
  3 10  2  0  0  0  0
  3 18  1  0  0  0  0
  4 11  1  0  0  0  0
  4 18  2  0  0  0  0
  5  9  2  0  0  0  0
  5 19  1  0  0  0  0
  6 21  1  0  0  0  0
  7 23  1  0  0  0  0
  8 12  2  0  0  0  0
  8 22  1  0  0  0  0
  9 25  1  0  0  0  0
 10 26  1  0  0  0  0
 11 26  2  0  0  0  0
 12 27  1  0  0  0  0
 13 14  2  0  0  0  0
 13 28  1  0  0  0  0
 14 29  1  0  0  0  0
 15 19  2  0  0  0  0
 15 30  1  0  0  0  0
 16 24  1  0  0  0  0
 16 27  2  0  0  0  0
 17 29  2  0  0  0  0
 17 31  1  0  0  0  0
 18 32  1  0  0  0  0
 19 35  1  0  0  0  0
 20 32  1  0  0  0  0
 20 33  2  0  0  0  0
 20 36  1  0  0  0  0
 21 23  2  0  0  0  0
 21 43  1  0  0  0  0
 22 24  2  0  0  0  0
 22 44  1  0  0  0  0
 23 52  1  0  0  0  0
 24 45  1  0  0  0  0
 25 30  2  0  0  0  0
 25 70  1  0  0  0  0
 26 82  1  0  0  0  0
 27 83  1  0  0  0  0
 28 31  2  0  0  0  0
 28 82  1  0  0  0  0
 29 84  1  0  0  0  0
 30 85  1  0  0  0  0
 31 86  1  0  0  0  0
 32 64  2  0  0  0  0
 33 65  1  0  0  0  0
 33 68  1  0  0  0  0
 34 37  2  0  0  0  0
 34 83  1  0  0  0  0
 35 71  1  0  0  0  0
 35 74  2  0  0  0  0
 36 69  1  0  0  0  0
 36 76  2  0  0  0  0
 37 38  1  0  0  0  0
 37 55  1  0  0  0  0
 38 71  1  0  0  0  0
 38 77  2  0  0  0  0
 39 53  1  0  0  0  0
 39 72  1  0  0  0  0
 39 78  2  0  0  0  0
 40 61  1  0  0  0  0
 40 66  1  0  0  0  0
 40 79  2  0  0  0  0
 41 62  1  0  0  0  0
 41 73  1  0  0  0  0
 41 80  2  0  0  0  0
 42 67  1  0  0  0  0
 42 70  1  0  0  0  0
 42 81  2  0  0  0  0
 43 46  1  0  0  0  0
 44 53  1  0  0  0  0
 45 66  1  0  0  0  0
 46 48  1  0  0  0  0
 47 49  1  0  0  0  0
 47 50  1  0  0  0  0
 48 52  1  0  0  0  0
 49 54  1  0  0  0  0
 50 67  1  0  0  0  0
 51 54  1  0  0  0  0
 51 67  1  0  0  0  0
 52 72  1  0  0  0  0
 53 66  1  0  0  0  0
 54 65  1  0  0  0  0
 56 62  1  0  0  0  0
 57 63  1  0  0  0  0
 58 63  1  0  0  0  0
 59 63  1  0  0  0  0
 60 75  1  0  0  0  0
 61 63  1  0  0  0  0
 61 73  1  0  0  0  0
 62 75  1  0  0  0  0
 64 65  1  0  0  0  0
M  CHG  2  74   1  75   1
M  ISO  4  34 101  42 100  70 100  83 101
M  END
> <Batch ID>
0074

> <Smiles>
CNC(C)C(=O)NC(C(=O)N1Cc2cc([101O:1][101CH:1]=C(C)C(=O)NC(=N)c3ccc([100NH:0][100C:0](=O)N4CCCC(n5nc(-c6ccc(Oc7ccc(F)cc7F)cc6)c(C(N)=O)c5N)C4)c(F)c3)ccc2CC1C(=O)NC1CCCc2ccccc21)C(C)(C)C

> <Shape>
0.291

> <Color>
0.114

> <Negative vol penalty>
0.000

$$$$
