
  -OEChem-04042323473D

 89 98  0     1  0  0  0  0  0999 V2000
  -18.1968  -11.9921   21.4818 C   0  0  0  0  0  0  0  0  0  0  0  0
  -18.5640  -13.1831   20.8638 C   0  0  0  0  0  0  0  0  0  0  0  0
  -22.8559  -29.6306   22.0093 C   0  0  0  0  0  0  0  0  0  0  0  0
  -23.1325  -27.3384   21.2977 C   0  0  0  0  0  0  0  0  0  0  0  0
  -19.0277  -11.4235   22.4463 C   0  0  0  0  0  0  0  0  0  0  0  0
  -19.7618  -13.8070   21.2107 C   0  0  0  0  0  0  0  0  0  0  0  0
  -25.0020  -17.7935   18.3886 C   0  0  0  0  0  0  0  0  0  0  0  0
  -30.4531  -25.8200   14.1083 C   0  0  0  0  0  0  0  0  0  0  0  0
  -30.2912  -26.7617   15.1245 C   0  0  0  0  0  0  0  0  0  0  0  0
  -21.4727  -29.5033   21.8818 C   0  0  0  0  0  0  0  0  0  0  0  0
  -21.7493  -27.2111   21.1702 C   0  0  0  0  0  0  0  0  0  0  0  0
  -25.6883  -18.9861   18.6136 C   0  0  0  0  0  0  0  0  0  0  0  0
  -18.9197  -28.1725   23.6549 C   0  0  0  0  0  0  0  0  0  0  0  0
  -18.1247  -28.6758   24.6846 C   0  0  0  0  0  0  0  0  0  0  0  0
  -27.0821  -17.8708   20.2361 C   0  0  0  0  0  0  0  0  0  0  0  0
  -29.5268  -24.1117   15.5438 C   0  0  0  0  0  0  0  0  0  0  0  0
  -17.0508  -30.1743   23.1231 C   0  0  0  0  0  0  0  0  0  0  0  0
  -23.6858  -28.5482   21.7172 C   0  0  0  0  0  0  0  0  0  0  0  0
  -25.8910  -28.4173   22.9930 C   0  0  0  0  0  0  0  0  0  0  0  0
  -20.2410  -12.0357   22.7983 C   0  0  0  0  0  0  0  0  0  0  0  0
  -25.3441  -16.6313   19.0949 C   0  0  0  0  0  0  0  0  0  0  0  0
  -20.6091  -13.2468   22.1818 C   0  0  0  0  0  0  0  0  0  0  0  0
  -26.4003  -16.6642   20.0164 C   0  0  0  0  0  0  0  0  0  0  0  0
  -29.3649  -25.0533   16.5600 C   0  0  0  0  0  0  0  0  0  0  0  0
  -30.0708  -24.4950   14.3180 C   0  0  0  0  0  0  0  0  0  0  0  0
  -29.7472  -26.3784   16.3503 C   0  0  0  0  0  0  0  0  0  0  0  0
  -20.9194  -28.2936   21.4622 C   0  0  0  0  0  0  0  0  0  0  0  0
  -26.7266  -19.0256   19.5395 C   0  0  0  0  0  0  0  0  0  0  0  0
  -18.7803  -28.6702   22.3593 C   0  0  0  0  0  0  0  0  0  0  0  0
  -17.1903  -29.6767   24.4188 C   0  0  0  0  0  0  0  0  0  0  0  0
  -17.8458  -29.6710   22.0934 C   0  0  0  0  0  0  0  0  0  0  0  0
  -25.1147  -28.6792   21.8482 C   0  0  0  0  0  0  0  0  0  0  0  0
  -27.1793  -28.6924   22.6045 C   0  0  0  0  0  0  0  0  0  0  0  0
  -29.4247  -24.7140   19.0704 C   0  0  0  0  0  0  0  0  0  0  0  0
  -25.4839  -27.9655   24.2914 C   0  0  0  0  0  0  0  0  0  0  0  0
  -28.8924  -22.6303   20.3638 C   0  0  0  0  0  0  0  0  0  0  0  0
  -23.8322  -14.7199   21.1355 C   0  0  0  0  0  0  0  0  0  0  0  0
  -26.5257  -12.9344   20.8539 C   0  0  0  0  0  0  0  0  0  0  0  0
  -29.8541  -12.8093   20.1105 C   0  0  0  0  0  0  0  0  0  0  0  0
  -29.9290  -28.7049   17.2994 C   0  0  0  0  0  0  0  0  0  0  0  0
  -21.0835  -11.4082   23.8805 C   0  0  0  0  0  0  0  0  0  0  0  0
  -24.6116  -15.3464   18.8212 C   0  0  0  0  0  0  0  0  0  0  0  0
  -26.8199  -15.4392   20.7858 C   0  0  0  0  0  0  0  0  0  0  0  0
  -22.5151  -11.9366   23.9212 C   0  0  0  0  0  0  0  0  0  0  0  0
  -29.6710  -31.4348   19.5705 C   0  0  0  0  0  0  0  0  0  0  0  0
  -22.5247  -13.4595   23.8344 C   0  0  0  0  0  0  0  0  0  0  0  0
  -28.5480  -31.0115   20.5202 C   0  0  0  0  0  0  0  0  0  0  0  0
  -27.1405  -24.0701   19.3595 C   0  0  0  0  0  0  0  0  0  0  0  0
  -29.4006  -30.9843   18.1360 C   0  0  0  0  0  0  0  0  0  0  0  0
  -27.5099  -23.9944   17.8897 C   0  0  0  0  0  0  0  0  0  0  0  0
  -27.9851  -29.1305   18.9290 C   0  0  0  0  0  0  0  0  0  0  0  0
  -21.9125  -13.9406   22.5133 C   0  0  1  0  0  0  0  0  0  0  0  0
  -24.7060  -14.3483   19.9711 C   0  0  1  0  0  0  0  0  0  0  0  0
  -28.2439  -29.5055   20.3973 C   0  0  2  0  0  0  0  0  0  0  0  0
  -28.4897  -24.0518   20.0765 C   0  0  2  0  0  0  0  0  0  0  0  0
  -28.4479  -24.8274   21.3896 C   0  0  0  0  0  0  0  0  0  0  0  0
  -31.7911  -11.2171   20.0076 C   0  0  0  0  0  0  0  0  0  0  0  0
  -26.7331  -12.9938   23.8975 C   0  0  0  0  0  0  0  0  0  0  0  0
  -29.1121  -12.2443   23.6804 C   0  0  0  0  0  0  0  0  0  0  0  0
  -27.2657  -10.7821   22.8585 C   0  0  0  0  0  0  0  0  0  0  0  0
  -30.2298  -13.2716   17.2116 C   0  0  0  0  0  0  0  0  0  0  0  0
  -28.0222  -21.8776   21.3580 C   0  0  0  0  0  0  0  0  0  0  0  0
  -27.9386  -20.3871   21.0670 C   0  0  0  0  0  0  0  0  0  1  0  0
  -27.8517  -12.8790   21.5733 C   0  0  1  0  0  0  0  0  0  0  0  0
  -30.6552  -11.8656   19.2318 C   0  0  2  0  0  0  0  0  0  0  0  0
  -27.7317  -12.2486   22.9895 C   0  0  0  0  0  0  0  0  0  0  0  0
  -25.8485  -29.0895   20.8103 N   0  0  0  0  0  0  0  0  0  0  0  0
  -27.0995  -29.0874   21.3015 N   0  0  0  0  0  0  0  0  0  0  0  0
  -28.8069  -24.6365   17.8062 N   0  0  0  0  0  0  0  0  0  0  0  0
  -26.0691  -14.2084   20.4876 N   0  0  0  0  0  0  0  0  0  0  0  0
  -29.1249  -29.5465   18.0968 N   0  0  0  0  0  0  0  0  0  0  0  0
  -30.2349  -23.5429   13.2905 N   0  0  0  0  0  0  0  0  0  0  0  0
  -28.3614  -28.6327   23.2538 N   0  0  0  0  0  0  0  0  0  0  0  0
  -24.1212  -27.7308   24.5203 N   0  0  0  0  0  0  0  0  0  0  0  0
  -29.5931  -27.3531   17.3671 N   0  0  0  0  0  0  0  0  0  0  0  0
  -22.8597  -13.7835   21.4305 N   0  0  0  0  0  0  0  0  0  0  0  0
  -28.7703  -12.1778   20.6829 N   0  0  0  0  0  0  0  0  0  0  0  0
  -31.2373  -12.6036   18.0752 N   0  3  0  0  0  0  0  0  0  0  0  0
  -30.5270  -25.1498   19.3728 O   0  0  0  0  0  0  0  0  0  0  0  0
  -26.3023  -27.7913   25.2259 O   0  0  0  0  0  0  0  0  0  0  0  0
  -29.8716  -22.1269   19.8156 O   0  0  0  0  0  0  0  0  0  0  0  0
  -24.0267  -15.7771   21.7237 O   0  0  0  0  0  0  0  0  0  0  0  0
  -25.9209  -11.8853   20.6190 O   0  0  0  0  0  0  0  0  0  0  0  0
  -30.1614  -13.9878   20.2759 O   0  0  0  0  0  0  0  0  0  0  0  0
  -30.8653  -29.1470   16.6286 O   0  0  0  0  0  0  0  0  0  0  0  0
  -19.5697  -28.1689   21.3379 O   0  0  0  0  0  0  0  0  0  0  0  0
  -27.3977  -20.1884   19.7615 O   0  0  0  0  0  0  0  0  0  1  0  0
  -16.4259  -30.1588   25.4074 F   0  0  0  0  0  0  0  0  0  0  0  0
  -17.7065  -30.1523   20.8505 F   0  0  0  0  0  0  0  0  0  0  0  0
  1  2  1  0  0  0  0
  1  5  2  0  0  0  0
  2  6  2  0  0  0  0
  3 10  2  0  0  0  0
  3 18  1  0  0  0  0
  4 11  1  0  0  0  0
  4 18  2  0  0  0  0
  5 20  1  0  0  0  0
  6 22  1  0  0  0  0
  7 12  2  0  0  0  0
  7 21  1  0  0  0  0
  8  9  2  0  0  0  0
  8 25  1  0  0  0  0
  9 26  1  0  0  0  0
 10 27  1  0  0  0  0
 11 27  2  0  0  0  0
 12 28  1  0  0  0  0
 13 14  2  0  0  0  0
 13 29  1  0  0  0  0
 14 30  1  0  0  0  0
 15 23  1  0  0  0  0
 15 28  2  0  0  0  0
 16 24  1  0  0  0  0
 16 25  2  0  0  0  0
 17 30  2  0  0  0  0
 17 31  1  0  0  0  0
 18 32  1  0  0  0  0
 19 32  1  0  0  0  0
 19 33  2  0  0  0  0
 19 35  1  0  0  0  0
 20 22  2  0  0  0  0
 20 41  1  0  0  0  0
 21 23  2  0  0  0  0
 21 42  1  0  0  0  0
 22 52  1  0  0  0  0
 23 43  1  0  0  0  0
 24 26  2  0  0  0  0
 24 69  1  0  0  0  0
 25 72  1  0  0  0  0
 26 75  1  0  0  0  0
 27 86  1  0  0  0  0
 28 87  1  0  0  0  0
 29 31  2  0  0  0  0
 29 86  1  0  0  0  0
 30 88  1  0  0  0  0
 31 89  1  0  0  0  0
 32 67  2  0  0  0  0
 33 68  1  0  0  0  0
 33 73  1  0  0  0  0
 34 55  1  0  0  0  0
 34 69  1  0  0  0  0
 34 79  2  0  0  0  0
 35 74  1  0  0  0  0
 35 80  2  0  0  0  0
 36 55  1  0  0  0  0
 36 62  1  0  0  0  0
 36 81  2  0  0  0  0
 37 53  1  0  0  0  0
 37 76  1  0  0  0  0
 37 82  2  0  0  0  0
 38 64  1  0  0  0  0
 38 70  1  0  0  0  0
 38 83  2  0  0  0  0
 39 65  1  0  0  0  0
 39 77  1  0  0  0  0
 39 84  2  0  0  0  0
 40 71  1  0  0  0  0
 40 75  1  0  0  0  0
 40 85  2  0  0  0  0
 41 44  1  0  0  0  0
 42 53  1  0  0  0  0
 43 70  1  0  0  0  0
 44 46  1  0  0  0  0
 45 47  1  0  0  0  0
 45 49  1  0  0  0  0
 46 52  1  0  0  0  0
 47 54  1  0  0  0  0
 48 50  1  0  0  0  0
 48 55  1  0  0  0  0
 49 71  1  0  0  0  0
 50 69  1  0  0  0  0
 51 54  1  0  0  0  0
 51 71  1  0  0  0  0
 52 76  1  0  0  0  0
 53 70  1  0  0  0  0
 54 68  1  0  0  0  0
 55 56  1  0  0  0  0
 57 65  1  0  0  0  0
 58 66  1  0  0  0  0
 59 66  1  0  0  0  0
 60 66  1  0  0  0  0
 61 78  1  0  0  0  0
 62 63  1  0  0  0  0
 63 87  1  0  0  0  0
 64 66  1  0  0  0  0
 64 77  1  0  0  0  0
 65 78  1  0  0  0  0
 67 68  1  0  0  0  0
M  CHG  1  78   1
M  ISO  4  40 100  63 101  75 100  87 101
M  END
> <Batch ID>
0075

> <Smiles>
CNC(C)C(=O)NC(C(=O)N1Cc2cc([101O:1][101CH2:1]CC(=O)C3(C)CCN(c4cc(N)ccc4[100NH:0][100C:0](=O)N4CCCC(n5nc(-c6ccc(Oc7ccc(F)cc7F)cc6)c(C(N)=O)c5N)C4)C3=O)ccc2CC1C(=O)NC1CCCc2ccccc21)C(C)(C)C

> <Shape>
0.236

> <Color>
0.057

> <Negative vol penalty>
0.000

$$$$

  -OEChem-04042323473D

 86 94  0     1  0  0  0  0  0999 V2000
  -31.4807  -35.5603   22.3220 C   0  0  0  0  0  0  0  0  0  0  0  0
  -31.2814  -34.1980   22.1225 C   0  0  0  0  0  0  0  0  0  0  0  0
  -24.4317   -8.4362   20.6038 C   0  0  0  0  0  0  0  0  0  0  0  0
  -22.9673  -10.3044   21.0536 C   0  0  0  0  0  0  0  0  0  0  0  0
  -29.1770  -20.2357   21.2422 C   0  0  0  0  0  0  0  0  0  0  0  0
  -30.6111  -36.2781   23.1421 C   0  0  0  0  0  0  0  0  0  0  0  0
  -30.2130  -33.5525   22.7438 C   0  0  0  0  0  0  0  0  0  0  0  0
  -27.7330  -30.4432   19.6090 C   0  0  0  0  0  0  0  0  0  0  0  0
  -29.2509  -18.8720   21.5259 C   0  0  0  0  0  0  0  0  0  0  0  0
  -23.4134   -7.5521   20.9601 C   0  0  0  0  0  0  0  0  0  0  0  0
  -21.9489   -9.4203   21.4099 C   0  0  0  0  0  0  0  0  0  0  0  0
  -28.3180  -29.2055   19.3452 C   0  0  0  0  0  0  0  0  0  0  0  0
  -22.0316   -6.3614   23.8057 C   0  0  0  0  0  0  0  0  0  0  0  0
  -22.3640   -5.2926   24.6380 C   0  0  0  0  0  0  0  0  0  0  0  0
  -28.0972  -19.7395   19.1386 C   0  0  0  0  0  0  0  0  0  0  0  0
  -26.8385  -28.1719   20.9457 C   0  0  0  0  0  0  0  0  0  0  0  0
  -21.6467   -3.7403   22.9313 C   0  0  0  0  0  0  0  0  0  0  0  0
  -24.2087   -9.8123   20.6506 C   0  0  0  0  0  0  0  0  0  0  0  0
  -28.6001  -20.6695   20.0485 C   0  0  0  0  0  0  0  0  0  0  0  0
  -25.5274  -11.2441   19.0018 C   0  0  0  0  0  0  0  0  0  0  0  0
  -29.5259  -35.6430   23.7661 C   0  0  0  0  0  0  0  0  0  0  0  0
  -26.7020  -30.5565   20.5527 C   0  0  0  0  0  0  0  0  0  0  0  0
  -29.3288  -34.2622   23.5741 C   0  0  0  0  0  0  0  0  0  0  0  0
  -26.2403  -29.4117   21.2178 C   0  0  0  0  0  0  0  0  0  0  0  0
  -28.7481  -17.9421   20.6159 C   0  0  0  0  0  0  0  0  0  0  0  0
  -22.1720   -8.0441   21.3631 C   0  0  0  0  0  0  0  0  0  0  0  0
  -27.8728  -28.0701   20.0157 C   0  0  0  0  0  0  0  0  0  0  0  0
  -21.5067   -6.1196   22.5361 C   0  0  0  0  0  0  0  0  0  0  0  0
  -22.1716   -3.9821   24.2009 C   0  0  0  0  0  0  0  0  0  0  0  0
  -28.1712  -18.3758   19.4223 C   0  0  0  0  0  0  0  0  0  0  0  0
  -21.3143   -4.8091   22.0989 C   0  0  0  0  0  0  0  0  0  0  0  0
  -25.2605  -10.7261   20.2833 C   0  0  0  0  0  0  0  0  0  0  0  0
  -26.6192  -12.0579   19.1810 C   0  0  0  0  0  0  0  0  0  0  0  0
  -29.0439  -26.2018   20.7958 C   0  0  0  0  0  0  0  0  0  1  0  0
  -28.5213  -22.1130   19.7474 C   0  0  0  0  0  0  0  0  0  0  0  0
  -24.8490  -11.0106   17.7604 C   0  0  0  0  0  0  0  0  0  0  0  0
  -29.6441  -25.0051   20.6901 C   0  0  0  0  0  0  0  0  0  0  0  0
  -26.3391  -32.1080   23.3031 C   0  0  0  0  0  0  0  0  0  0  0  0
  -23.2996  -30.9968   23.0802 C   0  0  0  0  0  0  0  0  0  0  0  0
  -21.1539  -28.6612   21.8203 C   0  0  0  0  0  0  0  0  0  0  0  0
  -29.3659  -15.9627   22.0466 C   0  0  0  0  0  0  0  0  0  0  0  0
  -28.6404  -36.4510   24.6815 C   0  0  0  0  0  0  0  0  0  0  0  0
  -26.0632  -31.8944   20.8063 C   0  0  0  0  0  0  0  0  0  0  0  0
  -25.1226  -29.4765   22.2253 C   0  0  0  0  0  0  0  0  0  0  0  0
  -27.3135  -35.7685   25.0039 C   0  0  0  0  0  0  0  0  0  0  0  0
  -29.7097  -12.5962   23.1535 C   0  0  0  0  0  0  0  0  0  0  0  0
  -27.5416  -34.3071   25.3767 C   0  0  0  0  0  0  0  0  0  0  0  0
  -28.6048  -11.8521   22.4000 C   0  0  0  0  0  0  0  0  0  0  0  0
  -29.2688  -13.9992   23.5666 C   0  0  0  0  0  0  0  0  0  0  0  0
  -27.6366  -14.0863   21.7233 C   0  0  0  0  0  0  0  0  0  0  0  0
  -28.1667  -33.5314   24.2110 C   0  0  1  0  0  0  0  0  0  0  0  0
  -25.3696  -31.9780   22.1625 C   0  0  1  0  0  0  0  0  0  0  0  0
  -28.0566  -12.6921   21.2298 C   0  0  2  0  0  0  0  0  0  0  0  0
  -30.2748  -24.3736   21.9028 C   0  0  0  0  0  0  0  0  0  0  0  0
  -30.9717  -24.5330   18.5769 C   0  0  0  0  0  0  0  0  0  0  0  0
  -18.7355  -27.9918   21.8443 C   0  0  0  0  0  0  0  0  0  0  0  0
  -23.6501  -29.8400   25.8818 C   0  0  0  0  0  0  0  0  0  0  0  0
  -21.6321  -28.4163   25.4707 C   0  0  0  0  0  0  0  0  0  0  0  0
  -21.4251  -30.9022   25.4625 C   0  0  0  0  0  0  0  0  0  0  0  0
  -20.9007  -29.0379   18.8958 C   0  0  0  0  0  0  0  0  0  0  0  0
  -29.7117  -24.2453   19.3837 C   0  0  1  0  0  0  0  0  0  0  0  0
  -22.5818  -29.7484   23.5330 C   0  0  1  0  0  0  0  0  0  0  0  0
  -19.8091  -28.7975   21.1295 C   0  0  2  0  0  0  0  0  0  0  0  0
  -22.3447  -29.7255   25.0695 C   0  0  0  0  0  0  0  0  0  0  0  0
  -26.1141  -11.1731   21.2082 N   0  0  0  0  0  0  0  0  0  0  0  0
  -26.9281  -11.9806   20.5072 N   0  0  0  0  0  0  0  0  0  0  0  0
  -24.5344  -30.8084   22.4432 N   0  0  0  0  0  0  0  0  0  0  0  0
  -28.7654  -14.7376   22.4063 N   0  0  0  0  0  0  0  0  0  0  0  0
  -27.3357  -12.8248   18.3319 N   0  0  0  0  0  0  0  0  0  0  0  0
  -27.3157  -22.6513   19.5636 N   0  0  0  0  0  0  0  0  0  0  0  0
  -23.7457  -10.1463   17.7542 N   0  0  0  0  0  0  0  0  0  0  0  0
  -28.8247  -16.5575   20.9073 N   0  0  0  0  0  0  0  0  0  0  0  0
  -27.1624  -33.2145   23.2184 N   0  0  0  0  0  0  0  0  0  0  0  0
  -21.3608  -29.6687   22.7387 N   0  0  0  0  0  0  0  0  0  0  0  0
  -29.6612  -22.8056   19.6723 N   0  3  0  0  0  0  0  0  0  0  0  0
  -19.8987  -28.3163   19.7218 N   0  3  0  0  0  0  0  0  0  0  0  0
  -25.2206  -11.5396   16.6854 O   0  0  0  0  0  0  0  0  0  0  0  0
  -26.3390  -31.2674   24.1949 O   0  0  0  0  0  0  0  0  0  0  0  0
  -22.7805  -32.0982   23.2777 O   0  0  0  0  0  0  0  0  0  0  0  0
  -21.9405  -27.7498   21.5730 O   0  0  0  0  0  0  0  0  0  0  0  0
  -30.3100  -16.4348   22.6851 O   0  0  0  0  0  0  0  0  0  0  0  0
  -21.1779   -7.1818   21.7106 O   0  0  0  0  0  0  0  0  0  0  0  0
  -28.4425  -26.8608   19.7606 O   0  0  0  0  0  0  0  0  0  1  0  0
  -22.4923   -2.9559   24.9997 F   0  0  0  0  0  0  0  0  0  0  0  0
  -27.6859  -17.4908   18.5398 F   0  0  0  0  0  0  0  0  0  0  0  0
  -20.8115   -4.5706   20.8799 F   0  0  0  0  0  0  0  0  0  0  0  0
  1  2  1  0  0  0  0
  1  6  2  0  0  0  0
  2  7  2  0  0  0  0
  3 10  2  0  0  0  0
  3 18  1  0  0  0  0
  4 11  1  0  0  0  0
  4 18  2  0  0  0  0
  5  9  2  0  0  0  0
  5 19  1  0  0  0  0
  6 21  1  0  0  0  0
  7 23  1  0  0  0  0
  8 12  2  0  0  0  0
  8 22  1  0  0  0  0
  9 25  1  0  0  0  0
 10 26  1  0  0  0  0
 11 26  2  0  0  0  0
 12 27  1  0  0  0  0
 13 14  2  0  0  0  0
 13 28  1  0  0  0  0
 14 29  1  0  0  0  0
 15 19  2  0  0  0  0
 15 30  1  0  0  0  0
 16 24  1  0  0  0  0
 16 27  2  0  0  0  0
 17 29  2  0  0  0  0
 17 31  1  0  0  0  0
 18 32  1  0  0  0  0
 19 35  1  0  0  0  0
 20 32  1  0  0  0  0
 20 33  2  0  0  0  0
 20 36  1  0  0  0  0
 21 23  2  0  0  0  0
 21 42  1  0  0  0  0
 22 24  2  0  0  0  0
 22 43  1  0  0  0  0
 23 51  1  0  0  0  0
 24 44  1  0  0  0  0
 25 30  2  0  0  0  0
 25 72  1  0  0  0  0
 26 82  1  0  0  0  0
 27 83  1  0  0  0  0
 28 31  2  0  0  0  0
 28 82  1  0  0  0  0
 29 84  1  0  0  0  0
 30 85  1  0  0  0  0
 31 86  1  0  0  0  0
 32 65  2  0  0  0  0
 33 66  1  0  0  0  0
 33 69  1  0  0  0  0
 34 37  2  0  0  0  0
 34 83  1  0  0  0  0
 35 70  1  0  0  0  0
 35 75  2  0  0  0  0
 36 71  1  0  0  0  0
 36 77  2  0  0  0  0
 37 54  1  0  0  0  0
 37 61  1  0  0  0  0
 38 52  1  0  0  0  0
 38 73  1  0  0  0  0
 38 78  2  0  0  0  0
 39 62  1  0  0  0  0
 39 67  1  0  0  0  0
 39 79  2  0  0  0  0
 40 63  1  0  0  0  0
 40 74  1  0  0  0  0
 40 80  2  0  0  0  0
 41 68  1  0  0  0  0
 41 72  1  0  0  0  0
 41 81  2  0  0  0  0
 42 45  1  0  0  0  0
 43 52  1  0  0  0  0
 44 67  1  0  0  0  0
 45 47  1  0  0  0  0
 46 48  1  0  0  0  0
 46 49  1  0  0  0  0
 47 51  1  0  0  0  0
 48 53  1  0  0  0  0
 49 68  1  0  0  0  0
 50 53  1  0  0  0  0
 50 68  1  0  0  0  0
 51 73  1  0  0  0  0
 52 67  1  0  0  0  0
 53 66  1  0  0  0  0
 55 61  1  0  0  0  0
 56 63  1  0  0  0  0
 57 64  1  0  0  0  0
 58 64  1  0  0  0  0
 59 64  1  0  0  0  0
 60 76  1  0  0  0  0
 61 75  1  0  0  0  0
 62 64  1  0  0  0  0
 62 74  1  0  0  0  0
 63 76  1  0  0  0  0
 65 66  1  0  0  0  0
M  CHG  2  75   1  76   1
M  ISO  4  34 101  41 100  72 100  83 101
M  END
> <Batch ID>
0075

> <Smiles>
CNC(C)C(=O)NC(C(=O)N1Cc2cc([101O:1][101CH:1]=C(C)C(C)NC(=N)c3ccc([100NH:0][100C:0](=O)N4CCCC(n5nc(-c6ccc(Oc7ccc(F)cc7F)cc6)c(C(N)=O)c5N)C4)c(F)c3)ccc2CC1C(=O)NC1CCCc2ccccc21)C(C)(C)C

> <Shape>
0.336

> <Color>
0.104

> <Negative vol penalty>
0.000

$$$$

  -OEChem-04042323473D

 84 92  0     1  0  0  0  0  0999 V2000
  -16.5444  -29.1220   23.3121 C   0  0  0  0  0  0  0  0  0  0  0  0
  -17.4297  -29.0496   22.2414 C   0  0  0  0  0  0  0  0  0  0  0  0
  -26.3724  -12.5386   21.7831 C   0  0  0  0  0  0  0  0  0  0  0  0
  -25.8923  -14.3926   20.3103 C   0  0  0  0  0  0  0  0  0  0  0  0
  -17.0312  -29.1239   24.6187 C   0  0  0  0  0  0  0  0  0  0  0  0
  -18.8024  -28.9803   22.4766 C   0  0  0  0  0  0  0  0  0  0  0  0
  -24.7953  -26.1457   19.7624 C   0  0  0  0  0  0  0  0  0  0  0  0
  -25.0252  -12.1778   21.7683 C   0  0  0  0  0  0  0  0  0  0  0  0
  -24.5449  -14.0318   20.2954 C   0  0  0  0  0  0  0  0  0  0  0  0
  -26.0795  -26.5175   19.3670 C   0  0  0  0  0  0  0  0  0  0  0  0
  -22.9020  -10.5618   19.6914 C   0  0  0  0  0  0  0  0  0  0  0  0
  -22.5942   -9.2119   19.5226 C   0  0  0  0  0  0  0  0  0  0  0  0
  -26.8015  -26.4481   21.6677 C   0  0  0  0  0  0  0  0  0  0  0  0
  -21.4645   -9.2023   21.6581 C   0  0  0  0  0  0  0  0  0  0  0  0
  -31.5076  -22.2271   22.4838 C   0  0  0  0  0  0  0  0  0  0  0  0
  -26.8060  -13.6460   21.0542 C   0  0  0  0  0  0  0  0  0  0  0  0
  -29.2051  -13.5815   20.1894 C   0  0  0  0  0  0  0  0  0  0  0  0
  -18.4100  -29.0448   24.8702 C   0  0  0  0  0  0  0  0  0  0  0  0
  -24.5013  -25.9326   21.1169 C   0  0  0  0  0  0  0  0  0  0  0  0
  -19.3081  -28.9825   23.7876 C   0  0  0  0  0  0  0  0  0  0  0  0
  -25.5134  -26.0712   22.0774 C   0  0  0  0  0  0  0  0  0  0  0  0
  -24.1114  -12.9244   21.0244 C   0  0  0  0  0  0  0  0  0  0  0  0
  -27.0821  -26.6716   20.3200 C   0  0  0  0  0  0  0  0  0  0  0  0
  -22.4911  -11.2320   20.8437 C   0  0  0  0  0  0  0  0  0  0  0  0
  -21.8755   -8.5321   20.5059 C   0  0  0  0  0  0  0  0  0  0  0  0
  -21.7723  -10.5523   21.8270 C   0  0  0  0  0  0  0  0  0  0  0  0
  -31.3480  -23.3794   21.6610 C   0  0  0  0  0  0  0  0  0  0  0  0
  -28.1975  -14.0196   21.0696 C   0  0  0  0  0  0  0  0  0  0  0  0
  -30.5240  -23.1363   20.5843 C   0  0  0  0  0  0  0  0  0  0  0  0
  -30.3410  -14.2208   20.6224 C   0  0  0  0  0  0  0  0  0  0  0  0
  -30.7992  -21.1471   22.0045 C   0  0  0  0  0  0  0  0  0  0  0  0
  -29.1217  -12.6777   19.0796 C   0  0  0  0  0  0  0  0  0  0  0  0
  -30.1073  -24.0640   19.5013 C   0  0  0  0  0  0  0  0  0  0  0  0
  -22.5360  -27.2749   23.2239 C   0  0  0  0  0  0  0  0  0  0  0  0
  -23.5551  -24.8560   25.1298 C   0  0  0  0  0  0  0  0  0  0  0  0
  -25.9749  -22.5610   25.8541 C   0  0  0  0  0  0  0  0  0  0  0  0
  -31.2715  -19.2922   23.6424 C   0  0  0  0  0  0  0  0  0  0  0  0
  -18.8916  -29.0978   26.2984 C   0  0  0  0  0  0  0  0  0  0  0  0
  -23.1177  -25.5060   21.5243 C   0  0  0  0  0  0  0  0  0  0  0  0
  -25.2544  -25.8343   23.5421 C   0  0  0  0  0  0  0  0  0  0  0  0
  -20.3388  -28.6437   26.4705 C   0  0  0  0  0  0  0  0  0  0  0  0
  -32.3432  -16.0287   24.5793 C   0  0  0  0  0  0  0  0  0  0  0  0
  -21.2307  -29.2924   25.4166 C   0  0  0  0  0  0  0  0  0  0  0  0
  -31.4978  -15.1034   23.7011 C   0  0  0  0  0  0  0  0  0  0  0  0
  -31.5540  -17.2543   25.0361 C   0  0  0  0  0  0  0  0  0  0  0  0
  -30.0660  -17.0910   23.0795 C   0  0  0  0  0  0  0  0  0  0  0  0
  -20.8026  -28.8811   24.0027 C   0  0  1  0  0  0  0  0  0  0  0  0
  -22.8026  -25.8157   22.9845 C   0  0  1  0  0  0  0  0  0  0  0  0
  -30.8377  -15.8750   22.5416 C   0  0  2  0  0  0  0  0  0  0  0  0
  -26.5430  -20.7482   27.4938 C   0  0  0  0  0  0  0  0  0  0  0  0
  -24.2830  -26.9677   27.2085 C   0  0  0  0  0  0  0  0  0  0  0  0
  -25.6773  -25.2431   28.3704 C   0  0  0  0  0  0  0  0  0  0  0  0
  -23.2158  -24.9081   28.1432 C   0  0  0  0  0  0  0  0  0  0  0  0
  -31.0079  -27.6719   18.9985 C   0  0  0  0  0  0  0  0  0  0  0  0
  -30.7447  -25.9168   17.2278 C   0  0  0  0  0  0  0  0  0  0  0  0
  -26.0398  -20.5005   23.7306 C   0  0  0  0  0  0  0  0  0  0  0  0
  -28.7628  -26.6257   18.6380 C   0  0  0  0  0  0  0  0  0  1  0  0
  -24.6925  -24.6698   26.1049 C   0  0  1  0  0  0  0  0  0  0  0  0
  -25.8960  -21.0756   26.1570 C   0  0  2  0  0  0  0  0  0  0  0  0
  -24.4719  -25.4536   27.4294 C   0  0  0  0  0  0  0  0  0  0  0  0
  -30.2813  -26.3754   18.6164 C   0  0  0  0  0  0  0  0  0  0  0  0
  -28.6532  -14.8712   21.9922 N   0  0  0  0  0  0  0  0  0  0  0  0
  -29.9597  -14.9733   21.6941 N   0  0  0  0  0  0  0  0  0  0  0  0
  -23.8840  -25.4249   23.8913 N   0  0  0  0  0  0  0  0  0  0  0  0
  -30.9612  -17.9372   23.8841 N   0  0  0  0  0  0  0  0  0  0  0  0
  -31.6188  -14.2070   20.1873 N   0  0  0  0  0  0  0  0  0  0  0  0
  -27.8776  -12.1102   18.7721 N   0  0  0  0  0  0  0  0  0  0  0  0
  -30.6750  -19.8255   22.5003 N   0  0  0  0  0  0  0  0  0  0  0  0
  -30.6158  -25.3455   19.5861 N   0  0  0  0  0  0  0  0  0  0  0  0
  -21.2680  -27.5439   23.7027 N   0  0  0  0  0  0  0  0  0  0  0  0
  -24.8473  -23.2299   26.2813 N   0  0  0  0  0  0  0  0  0  0  0  0
  -26.5893  -20.2929   25.0951 N   0  3  0  0  0  0  0  0  0  0  0  0
  -30.1241  -12.3693   18.3914 O   0  0  0  0  0  0  0  0  0  0  0  0
  -29.3419  -23.6625   18.6287 O   0  0  0  0  0  0  0  0  0  0  0  0
  -23.4160  -28.0958   22.9928 O   0  0  0  0  0  0  0  0  0  0  0  0
  -22.4181  -24.5029   25.4524 O   0  0  0  0  0  0  0  0  0  0  0  0
  -26.9418  -23.0770   25.2979 O   0  0  0  0  0  0  0  0  0  0  0  0
  -32.0335  -19.9247   24.3782 O   0  0  0  0  0  0  0  0  0  0  0  0
  -22.7967  -12.5725   21.0095 O   0  0  0  0  0  0  0  0  0  0  0  0
  -28.3363  -27.0350   19.9368 O   0  0  0  0  0  0  0  0  0  1  0  0
  -21.5787   -7.2361   20.3429 F   0  0  0  0  0  0  0  0  0  0  0  0
  -21.3738  -11.1911   22.9356 F   0  0  0  0  0  0  0  0  0  0  0  0
  -31.9311  -24.5536   21.9097 F   0  0  0  0  0  0  0  0  0  0  0  0
  -29.9465  -21.5242   20.5682 S   0  0  0  0  0  0  0  0  0  0  0  0
  1  2  1  0  0  0  0
  1  5  2  0  0  0  0
  2  6  2  0  0  0  0
  3  8  2  0  0  0  0
  3 16  1  0  0  0  0
  4  9  1  0  0  0  0
  4 16  2  0  0  0  0
  5 18  1  0  0  0  0
  6 20  1  0  0  0  0
  7 10  2  0  0  0  0
  7 19  1  0  0  0  0
  8 22  1  0  0  0  0
  9 22  2  0  0  0  0
 10 23  1  0  0  0  0
 11 12  2  0  0  0  0
 11 24  1  0  0  0  0
 12 25  1  0  0  0  0
 13 21  1  0  0  0  0
 13 23  2  0  0  0  0
 14 25  2  0  0  0  0
 14 26  1  0  0  0  0
 15 27  1  0  0  0  0
 15 31  2  0  0  0  0
 16 28  1  0  0  0  0
 17 28  1  0  0  0  0
 17 30  2  0  0  0  0
 17 32  1  0  0  0  0
 18 20  2  0  0  0  0
 18 38  1  0  0  0  0
 19 21  2  0  0  0  0
 19 39  1  0  0  0  0
 20 47  1  0  0  0  0
 21 40  1  0  0  0  0
 22 79  1  0  0  0  0
 23 80  1  0  0  0  0
 24 26  2  0  0  0  0
 24 79  1  0  0  0  0
 25 81  1  0  0  0  0
 26 82  1  0  0  0  0
 27 29  2  0  0  0  0
 27 83  1  0  0  0  0
 28 62  2  0  0  0  0
 29 33  1  0  0  0  0
 29 84  1  0  0  0  0
 30 63  1  0  0  0  0
 30 66  1  0  0  0  0
 31 68  1  0  0  0  0
 31 84  1  0  0  0  0
 32 67  1  0  0  0  0
 32 73  2  0  0  0  0
 33 69  1  0  0  0  0
 33 74  2  0  0  0  0
 34 48  1  0  0  0  0
 34 70  1  0  0  0  0
 34 75  2  0  0  0  0
 35 58  1  0  0  0  0
 35 64  1  0  0  0  0
 35 76  2  0  0  0  0
 36 59  1  0  0  0  0
 36 71  1  0  0  0  0
 36 77  2  0  0  0  0
 37 65  1  0  0  0  0
 37 68  1  0  0  0  0
 37 78  2  0  0  0  0
 38 41  1  0  0  0  0
 39 48  1  0  0  0  0
 40 64  1  0  0  0  0
 41 43  1  0  0  0  0
 42 44  1  0  0  0  0
 42 45  1  0  0  0  0
 43 47  1  0  0  0  0
 44 49  1  0  0  0  0
 45 65  1  0  0  0  0
 46 49  1  0  0  0  0
 46 65  1  0  0  0  0
 47 70  1  0  0  0  0
 48 64  1  0  0  0  0
 49 63  1  0  0  0  0
 50 59  1  0  0  0  0
 51 60  1  0  0  0  0
 52 60  1  0  0  0  0
 53 60  1  0  0  0  0
 54 61  1  0  0  0  0
 55 61  1  0  0  0  0
 56 72  1  0  0  0  0
 57 61  1  0  0  0  0
 57 80  1  0  0  0  0
 58 60  1  0  0  0  0
 58 71  1  0  0  0  0
 59 72  1  0  0  0  0
 61 69  1  0  0  0  0
 62 63  1  0  0  0  0
M  CHG  1  72   1
M  ISO  4  37 100  57 101  68 100  80 101
M  END
> <Batch ID>
0075

> <Smiles>
CNC(C)C(=O)NC(C(=O)N1Cc2cc([101O:1][101CH2:1]C(C)(C)NC(=O)c3sc([100NH:0][100C:0](=O)N4CCCC(n5nc(-c6ccc(Oc7ccc(F)cc7F)cc6)c(C(N)=O)c5N)C4)cc3F)ccc2CC1C(=O)NC1CCCc2ccccc21)C(C)(C)C

> <Shape>
0.241

> <Color>
0.084

> <Negative vol penalty>
0.000

$$$$

  -OEChem-04042323473D

 88 95  0     1  0  0  0  0  0999 V2000
  -31.9182  -33.8522   23.1733 C   0  0  0  0  0  0  0  0  0  0  0  0
  -31.5804  -32.7457   22.4007 C   0  0  0  0  0  0  0  0  0  0  0  0
  -22.4846  -15.5728   23.6067 C   0  0  0  0  0  0  0  0  0  0  0  0
  -22.3144  -16.2441   21.2921 C   0  0  0  0  0  0  0  0  0  0  0  0
  -31.2007  -34.1353   24.3348 C   0  0  0  0  0  0  0  0  0  0  0  0
  -30.5255  -31.9209   22.7899 C   0  0  0  0  0  0  0  0  0  0  0  0
  -26.6070  -28.9763   19.1184 C   0  0  0  0  0  0  0  0  0  0  0  0
  -21.3590  -16.3381   23.9115 C   0  0  0  0  0  0  0  0  0  0  0  0
  -21.1888  -17.0094   21.5968 C   0  0  0  0  0  0  0  0  0  0  0  0
  -26.5589  -27.6603   18.6605 C   0  0  0  0  0  0  0  0  0  0  0  0
  -18.0567  -18.8529   21.6973 C   0  0  0  0  0  0  0  0  0  0  0  0
  -16.9599  -18.7643   20.8402 C   0  0  0  0  0  0  0  0  0  0  0  0
  -25.0274  -27.1038   20.4393 C   0  0  0  0  0  0  0  0  0  0  0  0
  -16.7973  -16.3967   21.2930 C   0  0  0  0  0  0  0  0  0  0  0  0
  -22.9623  -15.5258   22.2970 C   0  0  0  0  0  0  0  0  0  0  0  0
  -24.1540  -13.3847   21.5875 C   0  0  0  0  0  0  0  0  0  0  0  0
  -30.1304  -33.3191   24.7332 C   0  0  0  0  0  0  0  0  0  0  0  0
  -25.8729  -29.3640   20.2485 C   0  0  0  0  0  0  0  0  0  0  0  0
  -29.7939  -32.1926   23.9585 C   0  0  0  0  0  0  0  0  0  0  0  0
  -25.0659  -28.4259   20.9079 C   0  0  0  0  0  0  0  0  0  0  0  0
  -20.7111  -17.0564   22.9065 C   0  0  0  0  0  0  0  0  0  0  0  0
  -25.7713  -26.7231   19.3227 C   0  0  0  0  0  0  0  0  0  0  0  0
  -18.5239  -17.7134   22.3523 C   0  0  0  0  0  0  0  0  0  0  0  0
  -16.3302  -17.5362   20.6380 C   0  0  0  0  0  0  0  0  0  0  0  0
  -17.8942  -16.4853   22.1501 C   0  0  0  0  0  0  0  0  0  0  0  0
  -24.1254  -14.7359   21.9817 C   0  0  0  0  0  0  0  0  0  0  0  0
  -25.4872  -13.1075   21.4082 C   0  0  0  0  0  0  0  0  0  0  0  0
  -23.0721  -12.4627   21.4000 C   0  0  0  0  0  0  0  0  0  0  0  0
  -26.6131  -30.5099   23.1195 C   0  0  0  0  0  0  0  0  0  0  0  0
  -23.3942  -30.7884   23.4084 C   0  0  0  0  0  0  0  0  0  0  0  0
  -28.6330  -20.2405   18.7304 C   0  0  0  0  0  0  0  0  0  0  0  0
  -20.2963  -29.7486   22.4244 C   0  0  0  0  0  0  0  0  0  0  0  0
  -26.4272  -23.1611   18.7681 C   0  0  0  0  0  0  0  0  0  0  0  0
  -30.2270  -16.5326   20.1221 C   0  0  0  0  0  0  0  0  0  0  0  0
  -29.4146  -33.6382   26.0218 C   0  0  0  0  0  0  0  0  0  0  0  0
  -25.9146  -30.7937   20.7138 C   0  0  0  0  0  0  0  0  0  0  0  0
  -24.2429  -28.7962   22.1138 C   0  0  0  0  0  0  0  0  0  0  0  0
  -28.0708  -32.9281   26.1641 C   0  0  0  0  0  0  0  0  0  0  0  0
  -29.8236  -14.4114   22.9530 C   0  0  0  0  0  0  0  0  0  0  0  0
  -28.2043  -31.4540   25.7951 C   0  0  0  0  0  0  0  0  0  0  0  0
  -28.3200  -14.1321   22.9895 C   0  0  0  0  0  0  0  0  0  0  0  0
  -30.1217  -15.8382   22.4976 C   0  0  0  0  0  0  0  0  0  0  0  0
  -27.9975  -15.9422   21.2523 C   0  0  0  0  0  0  0  0  0  0  0  0
  -28.6402  -31.2882   24.3343 C   0  0  1  0  0  0  0  0  0  0  0  0
  -25.5282  -30.9562   22.1807 C   0  0  1  0  0  0  0  0  0  0  0  0
  -27.6491  -14.4982   21.6520 C   0  0  2  0  0  0  0  0  0  0  0  0
  -17.8564  -30.1342   22.8664 C   0  0  0  0  0  0  0  0  0  0  0  0
  -24.7954  -20.1371   19.1804 C   0  0  0  0  0  0  0  0  0  0  0  0
  -26.4003  -20.1534   21.1069 C   0  0  0  0  0  0  0  0  0  0  0  0
  -30.9782  -19.1509   16.3165 C   0  0  0  0  0  0  0  0  0  0  0  0
  -26.4973  -24.4781   20.9314 C   0  0  0  0  0  0  0  0  0  0  0  0
  -28.0630  -25.0647   19.0439 C   0  0  0  0  0  0  0  0  0  0  0  0
  -23.6148  -29.1959   26.0017 C   0  0  0  0  0  0  0  0  0  0  0  0
  -21.1451  -28.8013   25.8879 C   0  0  0  0  0  0  0  0  0  0  0  0
  -22.0268  -31.1257   26.0945 C   0  0  0  0  0  0  0  0  0  0  0  0
  -28.0257  -18.9818   16.6486 C   0  0  0  0  0  0  0  0  0  0  0  0
  -19.8097  -30.6167   19.6372 C   0  0  0  0  0  0  0  0  0  0  0  0
  -30.1725  -17.1972   17.7316 C   0  0  0  0  0  0  0  0  0  0  0  0
  -22.2837  -29.8929   23.9021 C   0  0  1  0  0  0  0  0  0  0  0  0
  -27.2048  -20.7960   18.7513 C   0  0  1  0  0  0  0  0  0  0  0  0
  -19.0561  -30.5233   22.0167 C   0  0  2  0  0  0  0  0  0  0  0  0
  -26.2532  -19.9223   19.5987 C   0  0  0  0  0  0  0  0  0  0  0  0
  -30.2776  -18.7180   17.6003 C   0  0  2  0  0  0  0  0  0  0  0  0
  -26.6825  -24.5284   19.4157 C   0  0  0  0  0  0  0  0  0  1  0  0
  -22.2845  -29.7462   25.4500 C   0  0  0  0  0  0  0  0  0  0  0  0
  -25.3437  -15.2792   22.0492 N   0  0  0  0  0  0  0  0  0  0  0  0
  -26.1503  -14.2643   21.6951 N   0  0  0  0  0  0  0  0  0  0  0  0
  -24.3220  -30.2049   22.5340 N   0  0  0  0  0  0  0  0  0  0  0  0
  -29.4576  -16.1210   21.2229 N   0  0  0  0  0  0  0  0  0  0  0  0
  -26.1453  -11.9895   21.0348 N   0  0  0  0  0  0  0  0  0  0  0  0
  -21.7642  -12.9122   21.6273 N   0  0  0  0  0  0  0  0  0  0  0  0
  -27.5188  -31.5016   23.4449 N   0  0  0  0  0  0  0  0  0  0  0  0
  -21.0461  -30.4374   23.3542 N   0  0  0  0  0  0  0  0  0  0  0  0
  -27.2710  -22.1603   19.2240 N   0  0  0  0  0  0  0  0  0  0  0  0
  -29.5200  -16.7737   18.9505 N   0  0  0  0  0  0  0  0  0  0  0  0
  -28.9641  -19.3508   17.7025 N   0  0  0  0  0  0  0  0  0  0  0  0
  -18.7260  -30.2579   20.5879 N   0  3  0  0  0  0  0  0  0  0  0  0
  -23.2608  -11.2708   21.0575 O   0  0  0  0  0  0  0  0  0  0  0  0
  -26.6267  -29.3519   23.5203 O   0  0  0  0  0  0  0  0  0  0  0  0
  -23.4329  -31.9643   23.7792 O   0  0  0  0  0  0  0  0  0  0  0  0
  -29.4269  -20.5545   19.6245 O   0  0  0  0  0  0  0  0  0  0  0  0
  -20.5704  -28.6414   21.9667 O   0  0  0  0  0  0  0  0  0  0  0  0
  -25.5456  -22.9960   17.9252 O   0  0  0  0  0  0  0  0  0  0  0  0
  -31.4538  -16.6696   20.1777 O   0  0  0  0  0  0  0  0  0  0  0  0
  -19.6125  -17.8031   23.2035 O   0  0  0  0  0  0  0  0  0  0  0  0
  -25.7231  -25.4378   18.8783 O   0  0  0  0  0  0  0  0  0  1  0  0
  -15.2759  -17.4516   19.8161 F   0  0  0  0  0  0  0  0  0  0  0  0
  -18.3378  -15.3873   22.7774 F   0  0  0  0  0  0  0  0  0  0  0  0
  1  2  1  0  0  0  0
  1  5  2  0  0  0  0
  2  6  2  0  0  0  0
  3  8  2  0  0  0  0
  3 15  1  0  0  0  0
  4  9  1  0  0  0  0
  4 15  2  0  0  0  0
  5 17  1  0  0  0  0
  6 19  1  0  0  0  0
  7 10  2  0  0  0  0
  7 18  1  0  0  0  0
  8 21  1  0  0  0  0
  9 21  2  0  0  0  0
 10 22  1  0  0  0  0
 11 12  2  0  0  0  0
 11 23  1  0  0  0  0
 12 24  1  0  0  0  0
 13 20  1  0  0  0  0
 13 22  2  0  0  0  0
 14 24  2  0  0  0  0
 14 25  1  0  0  0  0
 15 26  1  0  0  0  0
 16 26  1  0  0  0  0
 16 27  2  0  0  0  0
 16 28  1  0  0  0  0
 17 19  2  0  0  0  0
 17 35  1  0  0  0  0
 18 20  2  0  0  0  0
 18 36  1  0  0  0  0
 19 44  1  0  0  0  0
 20 37  1  0  0  0  0
 21 85  1  0  0  0  0
 22 86  1  0  0  0  0
 23 25  2  0  0  0  0
 23 85  1  0  0  0  0
 24 87  1  0  0  0  0
 25 88  1  0  0  0  0
 26 66  2  0  0  0  0
 27 67  1  0  0  0  0
 27 70  1  0  0  0  0
 28 71  1  0  0  0  0
 28 78  2  0  0  0  0
 29 45  1  0  0  0  0
 29 72  1  0  0  0  0
 29 79  2  0  0  0  0
 30 59  1  0  0  0  0
 30 68  1  0  0  0  0
 30 80  2  0  0  0  0
 31 60  1  0  0  0  0
 31 76  1  0  0  0  0
 31 81  2  0  0  0  0
 32 61  1  0  0  0  0
 32 73  1  0  0  0  0
 32 82  2  0  0  0  0
 33 64  1  0  0  0  0
 33 74  1  0  0  0  0
 33 83  2  0  0  0  0
 34 69  1  0  0  0  0
 34 75  1  0  0  0  0
 34 84  2  0  0  0  0
 35 38  1  0  0  0  0
 36 45  1  0  0  0  0
 37 68  1  0  0  0  0
 38 40  1  0  0  0  0
 39 41  1  0  0  0  0
 39 42  1  0  0  0  0
 40 44  1  0  0  0  0
 41 46  1  0  0  0  0
 42 69  1  0  0  0  0
 43 46  1  0  0  0  0
 43 69  1  0  0  0  0
 44 72  1  0  0  0  0
 45 68  1  0  0  0  0
 46 67  1  0  0  0  0
 47 61  1  0  0  0  0
 48 62  1  0  0  0  0
 49 62  1  0  0  0  0
 50 63  1  0  0  0  0
 51 64  1  0  0  0  0
 52 64  1  0  0  0  0
 53 65  1  0  0  0  0
 54 65  1  0  0  0  0
 55 65  1  0  0  0  0
 56 76  1  0  0  0  0
 57 77  1  0  0  0  0
 58 63  1  0  0  0  0
 58 75  1  0  0  0  0
 59 65  1  0  0  0  0
 59 73  1  0  0  0  0
 60 62  1  0  0  0  0
 60 74  1  0  0  0  0
 61 77  1  0  0  0  0
 63 76  1  0  0  0  0
 64 86  1  0  0  0  0
 66 67  1  0  0  0  0
M  CHG  1  77   1
M  ISO  4  34 100  64 101  75 100  86 101
M  END
> <Batch ID>
0075

> <Smiles>
CNC(C)C(=O)NC(C(=O)N1Cc2cc([101O:1][101C:1](C)(C)C(=O)NC(C(=O)N(C)C(C)C[100NH:0][100C:0](=O)N3CCCC(n4nc(-c5ccc(Oc6ccc(F)cc6F)cc5)c(C(N)=O)c4N)C3)C(C)C)ccc2CC1C(=O)NC1CCCc2ccccc21)C(C)(C)C

> <Shape>
0.206

> <Color>
0.096

> <Negative vol penalty>
0.000

$$$$

  -OEChem-04042323473D

 87 96  0     1  0  0  0  0  0999 V2000
  -28.6592  -37.2184   22.8259 C   0  0  0  0  0  0  0  0  0  0  0  0
  -29.1214  -35.9723   22.4147 C   0  0  0  0  0  0  0  0  0  0  0  0
  -23.0025   -9.9202   19.8820 C   0  0  0  0  0  0  0  0  0  0  0  0
  -24.6006   -9.1732   21.5328 C   0  0  0  0  0  0  0  0  0  0  0  0
  -27.5789  -37.3052   23.7030 C   0  0  0  0  0  0  0  0  0  0  0  0
  -28.5042  -34.8122   22.8813 C   0  0  0  0  0  0  0  0  0  0  0  0
  -25.5951  -30.0644   18.3111 C   0  0  0  0  0  0  0  0  0  0  0  0
  -27.8365  -19.9981   18.4344 C   0  0  0  0  0  0  0  0  0  0  0  0
  -28.1723  -18.7202   18.8816 C   0  0  0  0  0  0  0  0  0  0  0  0
  -21.9605   -9.4292   20.6686 C   0  0  0  0  0  0  0  0  0  0  0  0
  -23.5586   -8.6822   22.3194 C   0  0  0  0  0  0  0  0  0  0  0  0
  -25.2022  -29.0061   17.4916 C   0  0  0  0  0  0  0  0  0  0  0  0
  -21.5500   -5.9633   22.3792 C   0  0  0  0  0  0  0  0  0  0  0  0
  -21.7006   -4.6928   22.9349 C   0  0  0  0  0  0  0  0  0  0  0  0
  -24.4759  -27.7590   19.4320 C   0  0  0  0  0  0  0  0  0  0  0  0
  -25.9751  -17.9270   18.2649 C   0  0  0  0  0  0  0  0  0  0  0  0
  -21.4954   -5.6371   25.1493 C   0  0  0  0  0  0  0  0  0  0  0  0
  -24.3226   -9.7922   20.3141 C   0  0  0  0  0  0  0  0  0  0  0  0
  -25.7280   -9.9122   18.1885 C   0  0  0  0  0  0  0  0  0  0  0  0
  -26.9420  -36.1459   24.1730 C   0  0  0  0  0  0  0  0  0  0  0  0
  -25.4155  -29.9802   19.6946 C   0  0  0  0  0  0  0  0  0  0  0  0
  -27.4152  -34.8836   23.7665 C   0  0  0  0  0  0  0  0  0  0  0  0
  -24.8561  -28.8210   20.2569 C   0  0  0  0  0  0  0  0  0  0  0  0
  -26.5699  -20.2404   17.9026 C   0  0  0  0  0  0  0  0  0  0  0  0
  -27.2416  -17.6847   18.7968 C   0  0  0  0  0  0  0  0  0  0  0  0
  -22.2385   -8.8103   21.8873 C   0  0  0  0  0  0  0  0  0  0  0  0
  -24.6442  -27.8562   18.0507 C   0  0  0  0  0  0  0  0  0  0  0  0
  -21.3721   -7.0707   23.2085 C   0  0  0  0  0  0  0  0  0  0  0  0
  -21.6733   -4.5297   24.3200 C   0  0  0  0  0  0  0  0  0  0  0  0
  -25.6392  -19.2049   17.8178 C   0  0  0  0  0  0  0  0  0  0  0  0
  -21.3448   -6.9076   24.5935 C   0  0  0  0  0  0  0  0  0  0  0  0
  -25.3995  -10.2986   19.5017 C   0  0  0  0  0  0  0  0  0  0  0  0
  -26.8199  -10.6811   17.8673 C   0  0  0  0  0  0  0  0  0  0  0  0
  -25.1021   -8.9448   17.3352 C   0  0  0  0  0  0  0  0  0  0  0  0
  -24.9473  -25.1832   15.7029 C   0  0  0  0  0  0  0  0  0  0  0  0
  -25.7917  -31.6460   23.0352 C   0  0  0  0  0  0  0  0  0  0  0  0
  -23.0815  -30.2092   23.0561 C   0  0  0  0  0  0  0  0  0  0  0  0
  -20.0000  -28.8467   22.5219 C   0  0  0  0  0  0  0  0  0  0  0  0
  -28.7954  -15.9771   19.8048 C   0  0  0  0  0  0  0  0  0  0  0  0
  -25.8080  -36.2888   25.1569 C   0  0  0  0  0  0  0  0  0  0  0  0
  -25.8807  -31.0706   20.6211 C   0  0  0  0  0  0  0  0  0  0  0  0
  -24.7138  -28.7606   21.7532 C   0  0  0  0  0  0  0  0  0  0  0  0
  -24.9715  -35.0211   25.3107 C   0  0  0  0  0  0  0  0  0  0  0  0
  -30.5660  -12.8889   19.8738 C   0  0  0  0  0  0  0  0  0  0  0  0
  -25.8743  -33.8019   25.4698 C   0  0  0  0  0  0  0  0  0  0  0  0
  -29.4728  -11.8393   19.6606 C   0  0  0  0  0  0  0  0  0  0  0  0
  -26.6888  -23.4578   15.9990 C   0  0  0  0  0  0  0  0  0  0  0  0
  -24.4895  -23.2394   17.1718 C   0  0  0  0  0  0  0  0  0  0  0  0
  -30.0731  -14.0559   20.7276 C   0  0  0  0  0  0  0  0  0  0  0  0
  -27.2864  -22.4009   16.9269 C   0  0  0  0  0  0  0  0  0  0  0  0
  -25.0942  -22.1895   18.1016 C   0  0  0  0  0  0  0  0  0  0  0  0
  -27.7433  -13.6422   20.0422 C   0  0  0  0  0  0  0  0  0  0  0  0
  -26.7563  -33.6030   24.2312 C   0  0  1  0  0  0  0  0  0  0  0  0
  -25.5511  -24.2184   16.6759 C   0  0  0  0  0  0  0  0  0  0  0  0
  -24.9660  -31.2531   21.8456 C   0  0  1  0  0  0  0  0  0  0  0  0
  -28.1730  -12.4785   19.1339 C   0  0  2  0  0  0  0  0  0  0  0  0
  -17.7982  -28.4491   23.6582 C   0  0  0  0  0  0  0  0  0  0  0  0
  -24.3249  -27.9326   24.6609 C   0  0  0  0  0  0  0  0  0  0  0  0
  -22.0226  -27.0100   25.0017 C   0  0  0  0  0  0  0  0  0  0  0  0
  -22.6063  -29.2638   25.8974 C   0  0  0  0  0  0  0  0  0  0  0  0
  -18.5427  -30.4689   20.5210 C   0  0  0  0  0  0  0  0  0  0  0  0
  -24.9830  -26.6519   16.0277 C   0  0  0  0  0  0  0  0  0  1  0  0
  -22.3158  -28.9579   23.4046 C   0  0  1  0  0  0  0  0  0  0  0  0
  -18.6030  -29.3860   22.7710 C   0  0  2  0  0  0  0  0  0  0  0  0
  -22.8275  -28.2955   24.7149 C   0  0  0  0  0  0  0  0  0  0  0  0
  -26.2166  -11.2397   19.9820 N   0  0  0  0  0  0  0  0  0  0  0  0
  -24.3716  -24.7817   14.6169 N   0  0  0  0  0  0  0  0  0  0  0  0
  -27.0694  -11.4511   18.9651 N   0  0  0  0  0  0  0  0  0  0  0  0
  -26.2352  -21.5246   17.4560 N   0  0  0  0  0  0  0  0  0  0  0  0
  -24.2251  -30.0510   22.2639 N   0  0  0  0  0  0  0  0  0  0  0  0
  -28.8412  -14.6138   20.1656 N   0  0  0  0  0  0  0  0  0  0  0  0
  -27.5812  -10.7668   16.7559 N   0  0  0  0  0  0  0  0  0  0  0  0
  -23.9907   -8.2438   17.8226 N   0  0  0  0  0  0  0  0  0  0  0  0
  -27.5830  -16.3866   19.2509 N   0  0  0  0  0  0  0  0  0  0  0  0
  -25.9914  -33.0079   23.1564 N   0  0  0  0  0  0  0  0  0  0  0  0
  -20.9074  -29.3369   23.4371 N   0  0  0  0  0  0  0  0  0  0  0  0
  -17.8748  -29.5533   21.4815 N   0  3  0  0  0  0  0  0  0  0  0  0
  -25.5262   -8.6973   16.1809 O   0  0  0  0  0  0  0  0  0  0  0  0
  -26.2159  -30.7783   23.7895 O   0  0  0  0  0  0  0  0  0  0  0  0
  -22.6820  -31.2979   23.4783 O   0  0  0  0  0  0  0  0  0  0  0  0
  -20.2596  -28.0656   21.6092 O   0  0  0  0  0  0  0  0  0  0  0  0
  -29.7699  -16.7198   19.9496 O   0  0  0  0  0  0  0  0  0  0  0  0
  -21.2220   -8.3312   22.6552 O   0  0  0  0  0  0  0  0  0  0  0  0
  -24.2586  -26.8285   17.2444 O   0  0  0  0  0  0  0  0  0  1  0  0
  -21.8164   -3.3094   24.8534 F   0  0  0  0  0  0  0  0  0  0  0  0
  -24.4188  -19.4275   17.3097 F   0  0  0  0  0  0  0  0  0  0  0  0
  -21.1731   -7.9675   25.3953 F   0  0  0  0  0  0  0  0  0  0  0  0
  1  2  1  0  0  0  0
  1  5  2  0  0  0  0
  2  6  2  0  0  0  0
  3 10  2  0  0  0  0
  3 18  1  0  0  0  0
  4 11  1  0  0  0  0
  4 18  2  0  0  0  0
  5 20  1  0  0  0  0
  6 22  1  0  0  0  0
  7 12  2  0  0  0  0
  7 21  1  0  0  0  0
  8  9  2  0  0  0  0
  8 24  1  0  0  0  0
  9 25  1  0  0  0  0
 10 26  1  0  0  0  0
 11 26  2  0  0  0  0
 12 27  1  0  0  0  0
 13 14  2  0  0  0  0
 13 28  1  0  0  0  0
 14 29  1  0  0  0  0
 15 23  1  0  0  0  0
 15 27  2  0  0  0  0
 16 25  2  0  0  0  0
 16 30  1  0  0  0  0
 17 29  2  0  0  0  0
 17 31  1  0  0  0  0
 18 32  1  0  0  0  0
 19 32  1  0  0  0  0
 19 33  2  0  0  0  0
 19 34  1  0  0  0  0
 20 22  2  0  0  0  0
 20 40  1  0  0  0  0
 21 23  2  0  0  0  0
 21 41  1  0  0  0  0
 22 53  1  0  0  0  0
 23 42  1  0  0  0  0
 24 30  2  0  0  0  0
 24 69  1  0  0  0  0
 25 74  1  0  0  0  0
 26 83  1  0  0  0  0
 27 84  1  0  0  0  0
 28 31  2  0  0  0  0
 28 83  1  0  0  0  0
 29 85  1  0  0  0  0
 30 86  1  0  0  0  0
 31 87  1  0  0  0  0
 32 66  2  0  0  0  0
 33 68  1  0  0  0  0
 33 72  1  0  0  0  0
 34 73  1  0  0  0  0
 34 78  2  0  0  0  0
 35 54  1  0  0  0  0
 35 62  1  0  0  0  0
 35 67  2  0  0  0  0
 36 55  1  0  0  0  0
 36 75  1  0  0  0  0
 36 79  2  0  0  0  0
 37 63  1  0  0  0  0
 37 70  1  0  0  0  0
 37 80  2  0  0  0  0
 38 64  1  0  0  0  0
 38 76  1  0  0  0  0
 38 81  2  0  0  0  0
 39 71  1  0  0  0  0
 39 74  1  0  0  0  0
 39 82  2  0  0  0  0
 40 43  1  0  0  0  0
 41 55  1  0  0  0  0
 42 70  1  0  0  0  0
 43 45  1  0  0  0  0
 44 46  1  0  0  0  0
 44 49  1  0  0  0  0
 45 53  1  0  0  0  0
 46 56  1  0  0  0  0
 47 50  1  0  0  0  0
 47 54  1  0  0  0  0
 48 51  1  0  0  0  0
 48 54  1  0  0  0  0
 49 71  1  0  0  0  0
 50 69  1  0  0  0  0
 51 69  1  0  0  0  0
 52 56  1  0  0  0  0
 52 71  1  0  0  0  0
 53 75  1  0  0  0  0
 55 70  1  0  0  0  0
 56 68  1  0  0  0  0
 57 64  1  0  0  0  0
 58 65  1  0  0  0  0
 59 65  1  0  0  0  0
 60 65  1  0  0  0  0
 61 77  1  0  0  0  0
 62 84  1  0  0  0  0
 63 65  1  0  0  0  0
 63 76  1  0  0  0  0
 64 77  1  0  0  0  0
 66 68  1  0  0  0  0
M  CHG  1  77   1
M  ISO  4  39 100  62 101  74 100  84 101
M  END
> <Batch ID>
0075

> <Smiles>
CNC(C)C(=O)NC(C(=O)N1Cc2cc([101O:1][101CH2:1]C(=N)C3CCN(c4ccc([100NH:0][100C:0](=O)N5CCCC(n6nc(-c7ccc(Oc8ccc(F)cc8F)cc7)c(C(N)=O)c6N)C5)cc4F)CC3)ccc2CC1C(=O)NC1CCCc2ccccc21)C(C)(C)C

> <Shape>
0.290

> <Color>
0.090

> <Negative vol penalty>
0.000

$$$$

  -OEChem-04042323473D

 87 96  0     1  0  0  0  0  0999 V2000
  -20.0557  -32.0930   14.9990 C   0  0  0  0  0  0  0  0  0  0  0  0
  -21.0217  -31.1190   15.2307 C   0  0  0  0  0  0  0  0  0  0  0  0
  -25.1398  -10.8424   23.2510 C   0  0  0  0  0  0  0  0  0  0  0  0
  -23.1372  -10.6674   21.9108 C   0  0  0  0  0  0  0  0  0  0  0  0
  -29.4959  -20.5359   18.1383 C   0  0  0  0  0  0  0  0  0  0  0  0
  -20.1328  -33.3200   15.6565 C   0  0  0  0  0  0  0  0  0  0  0  0
  -22.0661  -31.3721   16.1194 C   0  0  0  0  0  0  0  0  0  0  0  0
  -24.7912  -27.3433   19.8408 C   0  0  0  0  0  0  0  0  0  0  0  0
  -29.5875  -21.9198   17.9901 C   0  0  0  0  0  0  0  0  0  0  0  0
  -24.6303   -9.8926   24.1363 C   0  0  0  0  0  0  0  0  0  0  0  0
  -22.6277   -9.7175   22.7961 C   0  0  0  0  0  0  0  0  0  0  0  0
  -25.9771  -26.6186   19.7313 C   0  0  0  0  0  0  0  0  0  0  0  0
  -23.0380   -6.4210   23.4170 C   0  0  0  0  0  0  0  0  0  0  0  0
  -22.4486   -5.2801   22.8724 C   0  0  0  0  0  0  0  0  0  0  0  0
  -27.1208  -28.3070   21.0198 C   0  0  0  0  0  0  0  0  0  0  0  0
  -30.4173  -22.1069   20.2514 C   0  0  0  0  0  0  0  0  0  0  0  0
  -20.3645   -5.8377   23.9598 C   0  0  0  0  0  0  0  0  0  0  0  0
  -24.3931  -11.2299   22.1382 C   0  0  0  0  0  0  0  0  0  0  0  0
  -29.8649  -19.9375   19.3430 C   0  0  0  0  0  0  0  0  0  0  0  0
  -25.7044  -11.9733   20.0802 C   0  0  0  0  0  0  0  0  0  0  0  0
  -21.1733  -33.5846   16.5609 C   0  0  0  0  0  0  0  0  0  0  0  0
  -24.7635  -28.5628   20.5325 C   0  0  0  0  0  0  0  0  0  0  0  0
  -22.1580  -32.6043   16.7885 C   0  0  0  0  0  0  0  0  0  0  0  0
  -25.9327  -29.0441   21.1388 C   0  0  0  0  0  0  0  0  0  0  0  0
  -30.0482  -22.7053   19.0467 C   0  0  0  0  0  0  0  0  0  0  0  0
  -23.3743   -9.3300   23.9088 C   0  0  0  0  0  0  0  0  0  0  0  0
  -27.1429  -27.1018   20.3184 C   0  0  0  0  0  0  0  0  0  0  0  0
  -22.2907   -7.2702   24.2331 C   0  0  0  0  0  0  0  0  0  0  0  0
  -21.1119   -4.9885   23.1438 C   0  0  0  0  0  0  0  0  0  0  0  0
  -30.3256  -20.7230   20.3996 C   0  0  0  0  0  0  0  0  0  0  0  0
  -20.9539   -6.9786   24.5045 C   0  0  0  0  0  0  0  0  0  0  0  0
  -24.9186  -12.2115   21.2236 C   0  0  0  0  0  0  0  0  0  0  0  0
  -25.9420  -13.2223   19.5605 C   0  0  0  0  0  0  0  0  0  0  0  0
  -30.0812  -26.2005   17.9845 C   0  0  0  0  0  0  0  0  0  0  0  0
  -26.1773  -10.7338   19.5363 C   0  0  0  0  0  0  0  0  0  0  0  0
  -29.7659  -18.4750   19.4952 C   0  0  0  0  0  0  0  0  0  0  0  0
  -24.1214  -31.5745   19.7444 C   0  0  0  0  0  0  0  0  0  0  0  0
  -24.4255  -32.0648   22.9365 C   0  0  0  0  0  0  0  0  0  0  0  0
  -25.7252  -31.0264   25.9164 C   0  0  0  0  0  0  0  0  0  0  0  0
  -27.3794  -18.6005   20.3606 C   0  0  0  0  0  0  0  0  0  0  0  0
  -21.2411  -34.9433   17.2121 C   0  0  0  0  0  0  0  0  0  0  0  0
  -23.4702  -29.3194   20.6643 C   0  0  0  0  0  0  0  0  0  0  0  0
  -25.9514  -30.3379   21.9096 C   0  0  0  0  0  0  0  0  0  0  0  0
  -29.7712  -24.7643   17.6720 C   0  0  0  0  0  0  0  0  0  0  0  0
  -22.1708  -34.9933   18.4218 C   0  0  0  0  0  0  0  0  0  0  0  0
  -23.9142  -17.7053   20.6675 C   0  0  0  0  0  0  0  0  0  0  0  0
  -23.4985  -34.3132   18.1032 C   0  0  0  0  0  0  0  0  0  0  0  0
  -23.9319  -16.1836   20.7887 C   0  0  0  0  0  0  0  0  0  0  0  0
  -25.1247  -18.3267   21.3540 C   0  0  0  0  0  0  0  0  0  0  0  0
  -30.7671  -24.9520   19.8882 C   0  0  0  0  0  0  0  0  0  0  0  0
  -26.4662  -16.2797   20.9529 C   0  0  0  0  0  0  0  0  0  0  0  0
  -23.2923  -32.8320   17.7640 C   0  0  1  0  0  0  0  0  0  0  0  0
  -30.5603  -26.3906   19.4006 C   0  0  2  0  0  0  0  0  0  0  0  0
  -23.6729  -30.8035   20.9536 C   0  0  1  0  0  0  0  0  0  0  0  0
  -25.2595  -15.6105   20.2673 C   0  0  1  0  0  0  0  0  0  0  0  0
  -25.8324  -31.6529   28.3440 C   0  0  0  0  0  0  0  0  0  0  0  0
  -26.4554  -34.2466   22.2814 C   0  0  0  0  0  0  0  0  0  0  0  0
  -27.2082  -34.1658   24.6678 C   0  0  0  0  0  0  0  0  0  0  0  0
  -24.8638  -34.8214   24.1228 C   0  0  0  0  0  0  0  0  0  0  0  0
  -24.3982  -28.5135   26.7429 C   0  0  0  0  0  0  0  0  0  0  0  0
  -29.5183  -27.1428   20.2122 C   0  0  0  0  0  0  0  0  0  1  0  0
  -25.5684  -32.4074   23.8615 C   0  0  1  0  0  0  0  0  0  0  0  0
  -25.0922  -30.8509   27.2849 C   0  0  2  0  0  0  0  0  0  0  0  0
  -26.0244  -33.8869   23.7173 C   0  0  0  0  0  0  0  0  0  0  0  0
  -24.6735  -13.5098   21.4195 N   0  0  0  0  0  0  0  0  0  0  0  0
  -25.3090  -14.0986   20.3921 N   0  0  0  0  0  0  0  0  0  0  0  0
  -30.1393  -24.0782   18.8999 N   0  0  3  0  0  0  0  0  0  0  0  0
  -24.6632  -31.0442   22.0050 N   0  0  0  0  0  0  0  0  0  0  0  0
  -26.3777  -17.7470   20.8647 N   0  0  0  0  0  0  0  0  0  0  0  0
  -26.6286  -13.6455   18.4780 N   0  0  0  0  0  0  0  0  0  0  0  0
  -25.8411   -9.5435   20.1954 N   0  0  0  0  0  0  0  0  0  0  0  0
  -28.5658  -17.9439   19.9775 N   0  0  0  0  0  0  0  0  0  0  0  0
  -23.0848  -32.0613   18.9712 N   0  0  0  0  0  0  0  0  0  0  0  0
  -25.1288  -32.0459   25.2048 N   0  0  0  0  0  0  0  0  0  0  0  0
  -25.1111  -29.4152   27.6841 N   0  3  0  0  0  0  0  0  0  0  0  0
  -29.9305  -27.1151   17.1834 O   0  0  0  0  0  0  0  0  0  0  0  0
  -26.8909  -10.6845   18.5058 O   0  0  0  0  0  0  0  0  0  0  0  0
  -25.3193  -31.7186   19.5298 O   0  0  0  0  0  0  0  0  0  0  0  0
  -23.3587  -32.6752   23.0416 O   0  0  0  0  0  0  0  0  0  0  0  0
  -26.6581  -30.3314   25.5198 O   0  0  0  0  0  0  0  0  0  0  0  0
  -27.2533  -19.8269   20.3096 O   0  0  0  0  0  0  0  0  0  0  0  0
  -22.8770   -8.4029   24.7724 O   0  0  0  0  0  0  0  0  0  0  0  0
  -28.3019  -26.3967   20.2125 O   0  0  0  0  0  0  0  0  0  1  0  0
  -20.5456   -3.8937   22.6195 F   0  0  0  0  0  0  0  0  0  0  0  0
  -30.6805  -20.1584   21.5625 F   0  0  0  0  0  0  0  0  0  0  0  0
  -20.2305   -7.7913   25.2868 F   0  0  0  0  0  0  0  0  0  0  0  0
  -31.0276  -17.4527   19.0625 S   0  0  0  0  0  0  0  0  0  0  0  0
  1  2  1  0  0  0  0
  1  6  2  0  0  0  0
  2  7  2  0  0  0  0
  3 10  2  0  0  0  0
  3 18  1  0  0  0  0
  4 11  1  0  0  0  0
  4 18  2  0  0  0  0
  5  9  2  0  0  0  0
  5 19  1  0  0  0  0
  6 21  1  0  0  0  0
  7 23  1  0  0  0  0
  8 12  2  0  0  0  0
  8 22  1  0  0  0  0
  9 25  1  0  0  0  0
 10 26  1  0  0  0  0
 11 26  2  0  0  0  0
 12 27  1  0  0  0  0
 13 14  2  0  0  0  0
 13 28  1  0  0  0  0
 14 29  1  0  0  0  0
 15 24  1  0  0  0  0
 15 27  2  0  0  0  0
 16 25  2  0  0  0  0
 16 30  1  0  0  0  0
 17 29  2  0  0  0  0
 17 31  1  0  0  0  0
 18 32  1  0  0  0  0
 19 30  2  0  0  0  0
 19 36  1  0  0  0  0
 20 32  1  0  0  0  0
 20 33  2  0  0  0  0
 20 35  1  0  0  0  0
 21 23  2  0  0  0  0
 21 41  1  0  0  0  0
 22 24  2  0  0  0  0
 22 42  1  0  0  0  0
 23 52  1  0  0  0  0
 24 43  1  0  0  0  0
 25 67  1  0  0  0  0
 26 82  1  0  0  0  0
 27 83  1  0  0  0  0
 28 31  2  0  0  0  0
 28 82  1  0  0  0  0
 29 84  1  0  0  0  0
 30 85  1  0  0  0  0
 31 86  1  0  0  0  0
 32 65  2  0  0  0  0
 33 66  1  0  0  0  0
 33 70  1  0  0  0  0
 34 44  1  0  0  0  0
 34 53  1  0  0  0  0
 34 76  2  0  0  0  0
 35 71  1  0  0  0  0
 35 77  2  0  0  0  0
 36 72  1  0  0  0  0
 36 87  2  0  0  0  0
 37 54  1  0  0  0  0
 37 73  1  0  0  0  0
 37 78  2  0  0  0  0
 38 62  1  0  0  0  0
 38 68  1  0  0  0  0
 38 79  2  0  0  0  0
 39 63  1  0  0  0  0
 39 74  1  0  0  0  0
 39 80  2  0  0  0  0
 40 69  1  0  0  0  0
 40 72  1  0  0  0  0
 40 81  2  0  0  0  0
 41 45  1  0  0  0  0
 42 54  1  0  0  0  0
 43 68  1  0  0  0  0
 44 67  1  0  0  0  0
 45 47  1  0  0  0  0
 46 48  1  0  0  0  0
 46 49  1  0  0  0  0
 47 52  1  0  0  0  0
 48 55  1  0  0  0  0
 49 69  1  0  0  0  0
 50 53  1  0  0  0  0
 50 67  1  0  0  0  0
 51 55  1  0  0  0  0
 51 69  1  0  0  0  0
 52 73  1  0  0  0  0
 53 61  1  0  0  0  0
 54 68  1  0  0  0  0
 55 66  1  0  0  0  0
 56 63  1  0  0  0  0
 57 64  1  0  0  0  0
 58 64  1  0  0  0  0
 59 64  1  0  0  0  0
 60 75  1  0  0  0  0
 61 83  1  0  0  0  0
 62 64  1  0  0  0  0
 62 74  1  0  0  0  0
 63 75  1  0  0  0  0
 65 66  1  0  0  0  0
M  CHG  1  75   1
M  ISO  4  40 100  61 101  72 100  83 101
M  END
> <Batch ID>
0075

> <Smiles>
CNC(C)C(=O)NC(C(=O)N1Cc2cc([101O:1][101CH2:1]C3CN(c4ccc(C(=S)[100NH:0][100C:0](=O)N5CCCC(n6nc(-c7ccc(Oc8ccc(F)cc8F)cc7)c(C(N)=O)c6N)C5)c(F)c4)CC3=O)ccc2CC1C(=O)NC1CCCc2ccccc21)C(C)(C)C

> <Shape>
0.318

> <Color>
0.086

> <Negative vol penalty>
0.000

$$$$

  -OEChem-04042323473D

 87 95  0     1  0  0  0  0  0999 V2000
  -30.2458  -36.2941   16.6339 C   0  0  0  0  0  0  0  0  0  0  0  0
  -29.8366  -34.9674   16.5448 C   0  0  0  0  0  0  0  0  0  0  0  0
  -23.1744   -9.6956   20.0054 C   0  0  0  0  0  0  0  0  0  0  0  0
  -23.8536   -9.8744   22.3170 C   0  0  0  0  0  0  0  0  0  0  0  0
  -31.0205  -19.2664   20.3536 C   0  0  0  0  0  0  0  0  0  0  0  0
  -30.7047  -36.8007   17.8491 C   0  0  0  0  0  0  0  0  0  0  0  0
  -29.8872  -34.1463   17.6707 C   0  0  0  0  0  0  0  0  0  0  0  0
  -25.9832  -29.6603   19.1337 C   0  0  0  0  0  0  0  0  0  0  0  0
  -30.9055  -17.8784   20.4296 C   0  0  0  0  0  0  0  0  0  0  0  0
  -22.4687   -8.5298   20.3028 C   0  0  0  0  0  0  0  0  0  0  0  0
  -23.1478   -8.7086   22.6145 C   0  0  0  0  0  0  0  0  0  0  0  0
  -26.0414  -28.2766   18.9728 C   0  0  0  0  0  0  0  0  0  0  0  0
  -19.9350   -7.8150   23.1618 C   0  0  0  0  0  0  0  0  0  0  0  0
  -19.1401   -7.8151   24.3080 C   0  0  0  0  0  0  0  0  0  0  0  0
  -29.3235  -19.5004   22.0572 C   0  0  0  0  0  0  0  0  0  0  0  0
  -26.8590  -28.0544   21.2315 C   0  0  0  0  0  0  0  0  0  0  0  0
  -20.4312   -5.9798   25.2034 C   0  0  0  0  0  0  0  0  0  0  0  0
  -23.8669  -10.3679   21.0124 C   0  0  0  0  0  0  0  0  0  0  0  0
  -30.2296  -20.0774   21.1674 C   0  0  0  0  0  0  0  0  0  0  0  0
  -24.1122  -12.8931   20.7460 C   0  0  0  0  0  0  0  0  0  0  0  0
  -30.7518  -35.9881   18.9928 C   0  0  0  0  0  0  0  0  0  0  0  0
  -26.3735  -30.2532   20.3431 C   0  0  0  0  0  0  0  0  0  0  0  0
  -30.3484  -34.6422   18.9020 C   0  0  0  0  0  0  0  0  0  0  0  0
  -26.8024  -29.4456   21.4060 C   0  0  0  0  0  0  0  0  0  0  0  0
  -29.9994  -17.3014   21.3194 C   0  0  0  0  0  0  0  0  0  0  0  0
  -22.4554   -8.0363   21.6074 C   0  0  0  0  0  0  0  0  0  0  0  0
  -26.4821  -27.4737   20.0208 C   0  0  0  0  0  0  0  0  0  0  0  0
  -20.9779   -6.8973   23.0363 C   0  0  0  0  0  0  0  0  0  0  0  0
  -19.3882   -6.8975   25.3288 C   0  0  0  0  0  0  0  0  0  0  0  0
  -29.2084  -18.1124   22.1332 C   0  0  0  0  0  0  0  0  0  0  0  0
  -21.2260   -5.9797   24.0572 C   0  0  0  0  0  0  0  0  0  0  0  0
  -24.5966  -11.5719   20.7057 C   0  0  0  0  0  0  0  0  0  0  0  0
  -25.1857  -13.6639   20.3719 C   0  0  0  0  0  0  0  0  0  0  0  0
  -30.3509  -21.5476   21.0877 C   0  0  0  0  0  0  0  0  0  0  0  0
  -22.8085  -13.3800   21.0909 C   0  0  0  0  0  0  0  0  0  0  0  0
  -28.6354  -32.3139   21.2037 C   0  0  0  0  0  0  0  0  0  0  0  0
  -27.1327  -32.1655   24.0746 C   0  0  0  0  0  0  0  0  0  0  0  0
  -25.1296  -30.4108   26.2089 C   0  0  0  0  0  0  0  0  0  0  0  0
  -29.1822  -23.6913   20.6044 C   0  0  0  0  0  0  0  0  0  0  0  0
  -30.5967  -14.9455   20.6563 C   0  0  0  0  0  0  0  0  0  0  0  0
  -31.3000  -36.5673   20.2729 C   0  0  0  0  0  0  0  0  0  0  0  0
  -26.2794  -31.7451   20.5097 C   0  0  0  0  0  0  0  0  0  0  0  0
  -27.2133  -30.0314   22.7314 C   0  0  0  0  0  0  0  0  0  0  0  0
  -30.9693  -35.7347   21.5089 C   0  0  0  0  0  0  0  0  0  0  0  0
  -29.6617  -12.3471   18.4089 C   0  0  0  0  0  0  0  0  0  0  0  0
  -31.2438  -34.2573   21.2463 C   0  0  0  0  0  0  0  0  0  0  0  0
  -28.2207  -12.0225   18.8094 C   0  0  0  0  0  0  0  0  0  0  0  0
  -30.5248  -12.6869   19.6226 C   0  0  0  0  0  0  0  0  0  0  0  0
  -28.5439  -13.4142   20.8940 C   0  0  0  0  0  0  0  0  0  0  0  0
  -30.3651  -33.7269   20.1070 C   0  0  1  0  0  0  0  0  0  0  0  0
  -27.1893  -32.2819   21.6103 C   0  0  1  0  0  0  0  0  0  0  0  0
  -27.6201  -13.1288   19.6987 C   0  0  2  0  0  0  0  0  0  0  0  0
  -24.1080  -30.5299   28.4980 C   0  0  0  0  0  0  0  0  0  0  0  0
  -27.3829  -23.6156   18.8591 C   0  0  0  0  0  0  0  0  0  0  0  0
  -26.7756  -23.8964   21.2962 C   0  0  0  0  0  0  0  0  0  0  0  0
  -29.8368  -31.4863   25.3141 C   0  0  0  0  0  0  0  0  0  0  0  0
  -28.6239  -30.6988   27.3579 C   0  0  0  0  0  0  0  0  0  0  0  0
  -28.4497  -33.0838   26.6477 C   0  0  0  0  0  0  0  0  0  0  0  0
  -22.3816  -30.3090   25.1146 C   0  0  0  0  0  0  0  0  0  0  0  0
  -27.2617  -31.3009   25.3054 C   0  0  1  0  0  0  0  0  0  0  0  0
  -23.9139  -30.8244   27.0186 C   0  0  2  0  0  0  0  0  0  0  0  0
  -27.8022  -24.2099   20.2052 C   0  0  0  0  0  0  0  0  0  0  0  0
  -28.5372  -31.6312   26.1308 C   0  0  0  0  0  0  0  0  0  0  0  0
  -25.8780  -11.5036   20.3350 N   0  0  0  0  0  0  0  0  0  0  0  0
  -26.2079  -12.7915   20.1389 N   0  0  0  0  0  0  0  0  0  0  0  0
  -27.1097  -31.4957   22.8431 N   0  0  0  0  0  0  0  0  0  0  0  0
  -29.8953  -13.7452   20.4155 N   0  0  0  0  0  0  0  0  0  0  0  0
  -25.3455  -14.9960   20.2226 N   0  0  0  0  0  0  0  0  0  0  0  0
  -21.8224  -12.4517   21.4516 N   0  0  0  0  0  0  0  0  0  0  0  0
  -29.8852  -15.8910   21.3942 N   0  0  0  0  0  0  0  0  0  0  0  0
  -29.2627  -22.2518   20.7465 N   0  0  0  0  0  0  0  0  0  0  0  0
  -29.0182  -33.4851   20.5782 N   0  0  0  0  0  0  0  0  0  0  0  0
  -26.0141  -31.4559   26.0457 N   0  0  0  0  0  0  0  0  0  0  0  0
  -27.9131  -25.6536   20.0535 N   0  0  0  0  0  0  0  0  0  1  0  0
  -31.5378  -22.0872   21.3638 N   0  3  0  0  0  0  0  0  0  0  0  0
  -22.7045  -30.0915   26.5483 N   0  3  0  0  0  0  0  0  0  0  0  0
  -22.5218  -14.6009   21.0636 O   0  0  0  0  0  0  0  0  0  0  0  0
  -29.3514  -31.3482   21.4413 O   0  0  0  0  0  0  0  0  0  0  0  0
  -27.0481  -33.3896   24.2017 O   0  0  0  0  0  0  0  0  0  0  0  0
  -25.2812  -29.2734   25.7687 O   0  0  0  0  0  0  0  0  0  0  0  0
  -30.1667  -24.3922   20.8004 O   0  0  0  0  0  0  0  0  0  0  0  0
  -31.7337  -15.1324   20.2156 O   0  0  0  0  0  0  0  0  0  0  0  0
  -21.7666   -6.8989   21.8981 O   0  0  0  0  0  0  0  0  0  0  0  0
  -26.5405  -26.1229   19.8662 O   0  0  0  0  0  0  0  0  0  1  0  0
  -18.6258   -6.8988   26.4301 F   0  0  0  0  0  0  0  0  0  0  0  0
  -28.3333  -17.5686   22.9911 F   0  0  0  0  0  0  0  0  0  0  0  0
  -22.2273   -5.0964   23.9429 F   0  0  0  0  0  0  0  0  0  0  0  0
  1  2  1  0  0  0  0
  1  6  2  0  0  0  0
  2  7  2  0  0  0  0
  3 10  2  0  0  0  0
  3 18  1  0  0  0  0
  4 11  1  0  0  0  0
  4 18  2  0  0  0  0
  5  9  2  0  0  0  0
  5 19  1  0  0  0  0
  6 21  1  0  0  0  0
  7 23  1  0  0  0  0
  8 12  2  0  0  0  0
  8 22  1  0  0  0  0
  9 25  1  0  0  0  0
 10 26  1  0  0  0  0
 11 26  2  0  0  0  0
 12 27  1  0  0  0  0
 13 14  2  0  0  0  0
 13 28  1  0  0  0  0
 14 29  1  0  0  0  0
 15 19  2  0  0  0  0
 15 30  1  0  0  0  0
 16 24  1  0  0  0  0
 16 27  2  0  0  0  0
 17 29  2  0  0  0  0
 17 31  1  0  0  0  0
 18 32  1  0  0  0  0
 19 34  1  0  0  0  0
 20 32  1  0  0  0  0
 20 33  2  0  0  0  0
 20 35  1  0  0  0  0
 21 23  2  0  0  0  0
 21 41  1  0  0  0  0
 22 24  2  0  0  0  0
 22 42  1  0  0  0  0
 23 50  1  0  0  0  0
 24 43  1  0  0  0  0
 25 30  2  0  0  0  0
 25 70  1  0  0  0  0
 26 83  1  0  0  0  0
 27 84  1  0  0  0  0
 28 31  2  0  0  0  0
 28 83  1  0  0  0  0
 29 85  1  0  0  0  0
 30 86  1  0  0  0  0
 31 87  1  0  0  0  0
 32 64  2  0  0  0  0
 33 65  1  0  0  0  0
 33 68  1  0  0  0  0
 34 71  1  0  0  0  0
 34 75  2  0  0  0  0
 35 69  1  0  0  0  0
 35 77  2  0  0  0  0
 36 51  1  0  0  0  0
 36 72  1  0  0  0  0
 36 78  2  0  0  0  0
 37 60  1  0  0  0  0
 37 66  1  0  0  0  0
 37 79  2  0  0  0  0
 38 61  1  0  0  0  0
 38 73  1  0  0  0  0
 38 80  2  0  0  0  0
 39 62  1  0  0  0  0
 39 71  1  0  0  0  0
 39 81  2  0  0  0  0
 40 67  1  0  0  0  0
 40 70  1  0  0  0  0
 40 82  2  0  0  0  0
 41 44  1  0  0  0  0
 42 51  1  0  0  0  0
 43 66  1  0  0  0  0
 44 46  1  0  0  0  0
 45 47  1  0  0  0  0
 45 48  1  0  0  0  0
 46 50  1  0  0  0  0
 47 52  1  0  0  0  0
 48 67  1  0  0  0  0
 49 52  1  0  0  0  0
 49 67  1  0  0  0  0
 50 72  1  0  0  0  0
 51 66  1  0  0  0  0
 52 65  1  0  0  0  0
 53 61  1  0  0  0  0
 54 62  1  0  0  0  0
 55 62  1  0  0  0  0
 56 63  1  0  0  0  0
 57 63  1  0  0  0  0
 58 63  1  0  0  0  0
 59 76  1  0  0  0  0
 60 63  1  0  0  0  0
 60 73  1  0  0  0  0
 61 76  1  0  0  0  0
 62 74  1  0  0  0  0
 64 65  1  0  0  0  0
 74 84  1  0  0  0  0
M  CHG  2  75   1  76   1
M  ISO  4  40 100  70 100  74 101  84 101
M  END
> <Batch ID>
0075

> <Smiles>
CNC(C)C(=O)NC(C(=O)N1Cc2cc([101O:1][101NH:1]C(C)(C)C(=O)NC(=N)c3ccc([100NH:0][100C:0](=O)N4CCCC(n5nc(-c6ccc(Oc7ccc(F)cc7F)cc6)c(C(N)=O)c5N)C4)c(F)c3)ccc2CC1C(=O)NC1CCCc2ccccc21)C(C)(C)C

> <Shape>
0.325

> <Color>
0.197

> <Negative vol penalty>
0.000

$$$$

  -OEChem-04042323473D

 87 96  0     1  0  0  0  0  0999 V2000
  -30.1586  -24.5090   18.2172 C   0  0  0  0  0  0  0  0  0  0  0  0
  -28.7792  -24.6811   18.1622 C   0  0  0  0  0  0  0  0  0  0  0  0
  -23.2792  -12.9241   19.4566 C   0  0  0  0  0  0  0  0  0  0  0  0
  -24.4294  -14.3686   21.0146 C   0  0  0  0  0  0  0  0  0  0  0  0
  -30.8722  -24.9572   19.3279 C   0  0  0  0  0  0  0  0  0  0  0  0
  -28.1124  -25.3007   19.2186 C   0  0  0  0  0  0  0  0  0  0  0  0
  -23.2039  -28.9437   18.8434 C   0  0  0  0  0  0  0  0  0  0  0  0
  -17.8988  -23.8267   23.9124 C   0  0  0  0  0  0  0  0  0  0  0  0
  -17.8764  -22.4839   24.2891 C   0  0  0  0  0  0  0  0  0  0  0  0
  -24.4219  -12.1318   19.3474 C   0  0  0  0  0  0  0  0  0  0  0  0
  -25.5722  -13.5763   20.9055 C   0  0  0  0  0  0  0  0  0  0  0  0
  -21.8430  -28.7061   19.0306 C   0  0  0  0  0  0  0  0  0  0  0  0
  -28.1166  -13.1617   18.7180 C   0  0  0  0  0  0  0  0  0  0  0  0
  -29.3422  -13.8097   18.5648 C   0  0  0  0  0  0  0  0  0  0  0  0
  -22.0250  -29.4900   21.3046 C   0  0  0  0  0  0  0  0  0  0  0  0
  -18.5371  -23.1876   21.6716 C   0  0  0  0  0  0  0  0  0  0  0  0
  -30.1363  -12.7906   20.6063 C   0  0  0  0  0  0  0  0  0  0  0  0
  -23.2829  -14.0425   20.2902 C   0  0  0  0  0  0  0  0  0  0  0  0
  -21.0477  -14.7104   21.3225 C   0  0  0  0  0  0  0  0  0  0  0  0
  -30.2151  -25.5912   20.3942 C   0  0  0  0  0  0  0  0  0  0  0  0
  -23.9892  -29.4469   19.8906 C   0  0  0  0  0  0  0  0  0  0  0  0
  -28.8177  -25.7566   20.3453 C   0  0  0  0  0  0  0  0  0  0  0  0
  -23.3951  -29.7356   21.1274 C   0  0  0  0  0  0  0  0  0  0  0  0
  -18.2290  -24.1786   22.6036 C   0  0  0  0  0  0  0  0  0  0  0  0
  -18.1845  -21.4929   23.3571 C   0  0  0  0  0  0  0  0  0  0  0  0
  -18.5148  -21.8447   22.0483 C   0  0  0  0  0  0  0  0  0  0  0  0
  -25.5685  -12.4579   20.0719 C   0  0  0  0  0  0  0  0  0  0  0  0
  -21.2538  -28.9765   20.2622 C   0  0  0  0  0  0  0  0  0  0  0  0
  -27.9008  -12.3281   19.8154 C   0  0  0  0  0  0  0  0  0  0  0  0
  -30.3521  -13.6241   19.5089 C   0  0  0  0  0  0  0  0  0  0  0  0
  -28.9106  -12.1426   20.7596 C   0  0  0  0  0  0  0  0  0  0  0  0
  -22.1029  -14.8617   20.4029 C   0  0  0  0  0  0  0  0  0  0  0  0
  -20.1793  -15.7303   21.0193 C   0  0  0  0  0  0  0  0  0  0  0  0
  -17.9913  -26.6571   22.9239 C   0  0  0  0  0  0  0  0  0  0  0  0
  -18.5305  -26.1209   21.0417 C   0  0  0  0  0  0  0  0  0  0  0  0
  -20.8687  -13.7352   22.3581 C   0  0  0  0  0  0  0  0  0  0  0  0
  -26.4997  -28.3818   21.5235 C   0  0  0  0  0  0  0  0  0  0  0  0
  -26.4147  -31.3482   22.8333 C   0  0  0  0  0  0  0  0  0  0  0  0
  -24.5876  -34.1290   23.5919 C   0  0  0  0  0  0  0  0  0  0  0  0
  -19.1763  -21.0578   19.7484 C   0  0  0  0  0  0  0  0  0  0  0  0
  -31.0228  -26.0165   21.5948 C   0  0  0  0  0  0  0  0  0  0  0  0
  -25.4504  -29.7229   19.6644 C   0  0  0  0  0  0  0  0  0  0  0  0
  -24.1901  -30.2958   22.2775 C   0  0  0  0  0  0  0  0  0  0  0  0
  -30.2901  -26.9990   22.5048 C   0  0  0  0  0  0  0  0  0  0  0  0
  -20.0598  -18.8894   17.0661 C   0  0  0  0  0  0  0  0  0  0  0  0
  -28.8641  -26.5241   22.7649 C   0  0  0  0  0  0  0  0  0  0  0  0
  -20.5833  -17.6358   17.7708 C   0  0  0  0  0  0  0  0  0  0  0  0
  -20.4510  -20.1641   17.8115 C   0  0  0  0  0  0  0  0  0  0  0  0
  -20.6133  -18.9332   19.9394 C   0  0  0  0  0  0  0  0  0  0  0  0
  -28.0619  -26.4462   21.4603 C   0  0  1  0  0  0  0  0  0  0  0  0
  -26.2599  -29.7527   20.9572 C   0  0  1  0  0  0  0  0  0  0  0  0
  -20.1889  -17.6206   19.2607 C   0  0  2  0  0  0  0  0  0  0  0  0
  -18.2769  -27.5143   21.6668 C   0  0  0  0  0  0  0  0  0  0  0  0
  -16.4827  -29.1970   22.1120 C   0  0  0  0  0  0  0  0  0  0  0  0
  -24.7831  -36.3735   24.6971 C   0  0  0  0  0  0  0  0  0  0  0  0
  -26.3666  -30.0017   25.5709 C   0  0  0  0  0  0  0  0  0  0  0  0
  -25.6142  -32.1791   26.5513 C   0  0  0  0  0  0  0  0  0  0  0  0
  -27.8354  -32.0208   25.4271 C   0  0  0  0  0  0  0  0  0  0  0  0
  -23.8806  -35.5498   21.0939 C   0  0  0  0  0  0  0  0  0  0  0  0
  -17.0666  -28.2523   21.1109 C   0  0  0  0  0  0  0  0  0  0  0  0
  -19.5050  -28.3982   21.7665 C   0  0  0  0  0  0  0  0  0  1  0  0
  -25.7311  -31.9708   24.0266 C   0  0  1  0  0  0  0  0  0  0  0  0
  -24.8696  -35.6065   23.3868 C   0  0  2  0  0  0  0  0  0  0  0  0
  -26.3720  -31.5307   25.3731 C   0  0  0  0  0  0  0  0  0  0  0  0
  -21.9231  -15.8961   19.5774 N   0  0  0  0  0  0  0  0  0  0  0  0
  -20.7448  -16.4041   19.9770 N   0  0  0  0  0  0  0  0  0  0  0  0
  -18.2480  -25.5021   22.2318 N   0  0  0  0  0  0  0  0  0  0  0  0
  -25.6164  -30.5426   22.0089 N   0  0  0  0  0  0  0  0  0  0  0  0
  -20.0421  -20.0796   19.2153 N   0  0  0  0  0  0  0  0  0  0  0  0
  -18.1578  -20.1391   23.7611 N   0  0  0  0  0  0  0  0  0  0  0  0
  -18.9946  -16.1076   21.5453 N   0  0  0  0  0  0  0  0  0  0  0  0
  -21.8575  -12.7575   22.5334 N   0  0  0  0  0  0  0  0  0  0  0  0
  -18.8307  -20.8556   21.0841 N   0  0  0  0  0  0  0  0  0  0  0  0
  -27.6416  -27.7676   21.0458 N   0  0  0  0  0  0  0  0  0  0  0  0
  -25.7468  -33.4119   23.8001 N   0  0  0  0  0  0  0  0  0  0  0  0
  -23.8869  -36.1938   22.4326 N   0  3  0  0  0  0  0  0  0  0  0  0
  -17.6697  -26.8710   24.0711 O   0  0  0  0  0  0  0  0  0  0  0  0
  -18.8493  -25.6976   19.9534 O   0  0  0  0  0  0  0  0  0  0  0  0
  -19.8538  -13.7210   23.0953 O   0  0  0  0  0  0  0  0  0  0  0  0
  -25.7082  -27.9164   22.3351 O   0  0  0  0  0  0  0  0  0  0  0  0
  -27.6112  -31.5743   22.6358 O   0  0  0  0  0  0  0  0  0  0  0  0
  -23.4523  -33.6587   23.5733 O   0  0  0  0  0  0  0  0  0  0  0  0
  -18.7495  -21.9900   19.0622 O   0  0  0  0  0  0  0  0  0  0  0  0
  -26.6837  -11.6849   19.9657 O   0  0  0  0  0  0  0  0  0  0  0  0
  -19.9258  -28.7449   20.4478 O   0  0  0  0  0  0  0  0  0  1  0  0
  -31.5296  -14.2453   19.3608 F   0  0  0  0  0  0  0  0  0  0  0  0
  -28.7096  -11.3421   21.8153 F   0  0  0  0  0  0  0  0  0  0  0  0
  1  2  1  0  0  0  0
  1  5  2  0  0  0  0
  2  6  2  0  0  0  0
  3 10  2  0  0  0  0
  3 18  1  0  0  0  0
  4 11  1  0  0  0  0
  4 18  2  0  0  0  0
  5 20  1  0  0  0  0
  6 22  1  0  0  0  0
  7 12  2  0  0  0  0
  7 21  1  0  0  0  0
  8  9  2  0  0  0  0
  8 24  1  0  0  0  0
  9 25  1  0  0  0  0
 10 27  1  0  0  0  0
 11 27  2  0  0  0  0
 12 28  1  0  0  0  0
 13 14  2  0  0  0  0
 13 29  1  0  0  0  0
 14 30  1  0  0  0  0
 15 23  1  0  0  0  0
 15 28  2  0  0  0  0
 16 24  2  0  0  0  0
 16 26  1  0  0  0  0
 17 30  2  0  0  0  0
 17 31  1  0  0  0  0
 18 32  1  0  0  0  0
 19 32  1  0  0  0  0
 19 33  2  0  0  0  0
 19 36  1  0  0  0  0
 20 22  2  0  0  0  0
 20 41  1  0  0  0  0
 21 23  2  0  0  0  0
 21 42  1  0  0  0  0
 22 50  1  0  0  0  0
 23 43  1  0  0  0  0
 24 67  1  0  0  0  0
 25 26  2  0  0  0  0
 25 70  1  0  0  0  0
 26 73  1  0  0  0  0
 27 84  1  0  0  0  0
 28 85  1  0  0  0  0
 29 31  2  0  0  0  0
 29 84  1  0  0  0  0
 30 86  1  0  0  0  0
 31 87  1  0  0  0  0
 32 65  2  0  0  0  0
 33 66  1  0  0  0  0
 33 71  1  0  0  0  0
 34 53  1  0  0  0  0
 34 67  1  0  0  0  0
 34 77  2  0  0  0  0
 35 53  1  0  0  0  0
 35 67  1  0  0  0  0
 35 78  2  0  0  0  0
 36 72  1  0  0  0  0
 36 79  2  0  0  0  0
 37 51  1  0  0  0  0
 37 74  1  0  0  0  0
 37 80  2  0  0  0  0
 38 62  1  0  0  0  0
 38 68  1  0  0  0  0
 38 81  2  0  0  0  0
 39 63  1  0  0  0  0
 39 75  1  0  0  0  0
 39 82  2  0  0  0  0
 40 69  1  0  0  0  0
 40 73  1  0  0  0  0
 40 83  2  0  0  0  0
 41 44  1  0  0  0  0
 42 51  1  0  0  0  0
 43 68  1  0  0  0  0
 44 46  1  0  0  0  0
 45 47  1  0  0  0  0
 45 48  1  0  0  0  0
 46 50  1  0  0  0  0
 47 52  1  0  0  0  0
 48 69  1  0  0  0  0
 49 52  1  0  0  0  0
 49 69  1  0  0  0  0
 50 74  1  0  0  0  0
 51 68  1  0  0  0  0
 52 66  1  0  0  0  0
 53 60  1  0  0  0  0
 53 61  1  0  0  0  0
 54 60  1  0  0  0  0
 55 63  1  0  0  0  0
 56 64  1  0  0  0  0
 57 64  1  0  0  0  0
 58 64  1  0  0  0  0
 59 76  1  0  0  0  0
 61 85  1  0  0  0  0
 62 64  1  0  0  0  0
 62 75  1  0  0  0  0
 63 76  1  0  0  0  0
 65 66  1  0  0  0  0
M  CHG  1  76   1
M  ISO  4  40 100  61 101  73 100  85 101
M  END
> <Batch ID>
0075

> <Smiles>
CCC1([101CH2:1][101O:1]c2ccc3c(c2)CN(C(=O)C(NC(=O)C(C)NC)C(C)(C)C)C(C(=O)NC2CCCc4ccccc42)C3)C(=O)N(c2ccc(N)c([100NH:0][100C:0](=O)N3CCCC(n4nc(-c5ccc(Oc6ccc(F)cc6F)cc5)c(C(N)=O)c4N)C3)c2)C1=O

> <Shape>
0.303

> <Color>
0.091

> <Negative vol penalty>
0.000

$$$$

  -OEChem-04042323473D

 82 90  0     1  0  0  0  0  0999 V2000
  -28.5955  -34.4515   24.4906 C   0  0  0  0  0  0  0  0  0  0  0  0
  -28.6754  -33.1033   24.1569 C   0  0  0  0  0  0  0  0  0  0  0  0
  -24.1702  -10.1465   22.7952 C   0  0  0  0  0  0  0  0  0  0  0  0
  -24.4745  -12.1335   24.1354 C   0  0  0  0  0  0  0  0  0  0  0  0
  -27.9185  -20.4288   17.9530 C   0  0  0  0  0  0  0  0  0  0  0  0
  -30.3236  -20.2001   17.9752 C   0  0  0  0  0  0  0  0  0  0  0  0
  -27.3626  -35.0164   24.8145 C   0  0  0  0  0  0  0  0  0  0  0  0
  -27.5226  -32.3188   24.1481 C   0  0  0  0  0  0  0  0  0  0  0  0
  -27.2308  -29.3402   20.0630 C   0  0  0  0  0  0  0  0  0  0  0  0
  -27.7860  -19.0526   18.1374 C   0  0  0  0  0  0  0  0  0  0  0  0
  -30.1910  -18.8239   18.1596 C   0  0  0  0  0  0  0  0  0  0  0  0
  -23.7622   -9.4441   23.9291 C   0  0  0  0  0  0  0  0  0  0  0  0
  -24.0665  -11.4311   25.2694 C   0  0  0  0  0  0  0  0  0  0  0  0
  -28.0092  -28.1835   20.0615 C   0  0  0  0  0  0  0  0  0  0  0  0
  -20.9646   -9.1516   25.8054 C   0  0  0  0  0  0  0  0  0  0  0  0
  -19.8359   -8.3397   25.6937 C   0  0  0  0  0  0  0  0  0  0  0  0
  -26.0736  -26.8874   20.6881 C   0  0  0  0  0  0  0  0  0  0  0  0
  -21.1629   -6.4123   26.2947 C   0  0  0  0  0  0  0  0  0  0  0  0
  -24.5264  -11.4912   22.8983 C   0  0  0  0  0  0  0  0  0  0  0  0
  -29.1873  -21.0026   17.8718 C   0  0  0  0  0  0  0  0  0  0  0  0
  -24.1340  -12.9425   20.8374 C   0  0  0  0  0  0  0  0  0  0  0  0
  -26.1927  -34.2407   24.8003 C   0  0  0  0  0  0  0  0  0  0  0  0
  -25.8681  -29.2806   20.3883 C   0  0  0  0  0  0  0  0  0  0  0  0
  -26.2731  -32.8736   24.4735 C   0  0  0  0  0  0  0  0  0  0  0  0
  -25.2795  -28.0444   20.6905 C   0  0  0  0  0  0  0  0  0  0  0  0
  -28.9222  -18.2501   18.2407 C   0  0  0  0  0  0  0  0  0  0  0  0
  -23.7103  -10.0864   25.1662 C   0  0  0  0  0  0  0  0  0  0  0  0
  -27.4313  -26.9573   20.3769 C   0  0  0  0  0  0  0  0  0  0  0  0
  -22.1925   -8.5938   26.1616 C   0  0  0  0  0  0  0  0  0  0  0  0
  -19.9350   -6.9701   25.9384 C   0  0  0  0  0  0  0  0  0  0  0  0
  -22.2916   -7.2242   26.4063 C   0  0  0  0  0  0  0  0  0  0  0  0
  -24.9486  -12.2171   21.7275 C   0  0  0  0  0  0  0  0  0  0  0  0
  -25.0071  -13.4410   19.9016 C   0  0  0  0  0  0  0  0  0  0  0  0
  -28.5354  -23.7117   19.3887 C   0  0  0  0  0  0  0  0  0  0  0  0
  -29.3289  -22.4716   17.6748 C   0  0  0  0  0  0  0  0  0  0  0  0
  -22.7151  -13.1473   20.8550 C   0  0  0  0  0  0  0  0  0  0  0  0
  -24.0525  -30.5268   22.6806 C   0  0  0  0  0  0  0  0  0  0  0  0
  -21.6451  -29.2065   20.9532 C   0  0  0  0  0  0  0  0  0  0  0  0
  -20.6542  -26.8413   18.7014 C   0  0  0  0  0  0  0  0  0  0  0  0
  -29.8098  -15.9129   18.5502 C   0  0  0  0  0  0  0  0  0  0  0  0
  -24.8899  -34.8846   25.2037 C   0  0  0  0  0  0  0  0  0  0  0  0
  -25.0362  -30.5335   20.3593 C   0  0  0  0  0  0  0  0  0  0  0  0
  -23.8164  -27.9237   21.0269 C   0  0  0  0  0  0  0  0  0  0  0  0
  -23.6601  -34.0720   24.8065 C   0  0  0  0  0  0  0  0  0  0  0  0
  -29.8863  -12.3898   19.0591 C   0  0  0  0  0  0  0  0  0  0  0  0
  -23.8483  -32.6040   25.1757 C   0  0  0  0  0  0  0  0  0  0  0  0
  -28.5415  -12.0904   19.7255 C   0  0  0  0  0  0  0  0  0  0  0  0
  -30.4661  -13.7238   19.5260 C   0  0  0  0  0  0  0  0  0  0  0  0
  -28.2170  -14.5741   20.0621 C   0  0  0  0  0  0  0  0  0  0  0  0
  -25.0413  -31.9957   24.4286 C   0  0  1  0  0  0  0  0  0  0  0  0
  -23.7723  -30.4313   21.2075 C   0  0  1  0  0  0  0  0  0  0  0  0
  -27.5625  -13.2712   19.5744 C   0  0  2  0  0  0  0  0  0  0  0  0
  -18.6172  -25.9844   17.5123 C   0  0  0  0  0  0  0  0  0  0  0  0
  -20.7382  -27.8166   23.5136 C   0  0  0  0  0  0  0  0  0  0  0  0
  -19.3455  -26.2846   22.1060 C   0  0  0  0  0  0  0  0  0  0  0  0
  -18.8822  -28.7357   22.1119 C   0  0  0  0  0  0  0  0  0  0  0  0
  -21.7949  -27.4766   16.0454 C   0  0  0  0  0  0  0  0  0  0  0  0
  -27.5301  -24.6035   20.0517 C   0  0  0  0  0  0  0  0  0  1  0  0
  -20.9478  -27.8676   20.9408 C   0  0  1  0  0  0  0  0  0  0  0  0
  -19.8008  -26.9372   17.4496 C   0  0  2  0  0  0  0  0  0  0  0  0
  -20.0064  -27.6784   22.1637 C   0  0  0  0  0  0  0  0  0  0  0  0
  -26.2398  -12.2493   21.3875 N   0  0  0  0  0  0  0  0  0  0  0  0
  -28.3513  -23.2961   18.1775 N   0  0  0  0  0  0  0  0  0  0  0  0
  -26.2433  -13.0008   20.2734 N   0  0  0  0  0  0  0  0  0  0  0  0
  -23.0464  -29.1780   20.9913 N   0  0  0  0  0  0  0  0  0  0  0  0
  -29.4845  -14.7961   19.3488 N   0  0  0  0  0  0  0  0  0  0  0  0
  -24.8302  -14.2085   18.8053 N   0  0  0  0  0  0  0  0  0  0  0  0
  -21.9685  -12.5641   21.8879 N   0  0  0  0  0  0  0  0  0  0  0  0
  -28.7864  -16.8522   18.4282 N   0  0  0  0  0  0  0  0  0  0  0  0
  -24.6812  -31.6977   23.0589 N   0  0  0  0  0  0  0  0  0  0  0  0
  -20.2767  -27.7689   19.6492 N   0  0  0  0  0  0  0  0  0  0  0  0
  -30.3072  -22.9894   17.0196 N   0  3  0  0  0  0  0  0  0  0  0  0
  -20.6103  -26.6023   16.2440 N   0  3  0  0  0  0  0  0  0  0  0  0
  -22.1245  -13.8139   19.9715 O   0  0  0  0  0  0  0  0  0  0  0  0
  -23.7214  -29.6070   23.4195 O   0  0  0  0  0  0  0  0  0  0  0  0
  -20.9716  -30.2395   20.9228 O   0  0  0  0  0  0  0  0  0  0  0  0
  -21.5622  -26.0227   18.8274 O   0  0  0  0  0  0  0  0  0  0  0  0
  -30.9053  -16.0144   17.9919 O   0  0  0  0  0  0  0  0  0  0  0  0
  -23.3120   -9.4013   26.2728 O   0  0  0  0  0  0  0  0  0  0  0  0
  -28.1889  -25.8269   20.3768 O   0  0  0  0  0  0  0  0  0  1  0  0
  -18.8507   -6.1908   25.8327 F   0  0  0  0  0  0  0  0  0  0  0  0
  -23.4683   -6.6828   26.7500 F   0  0  0  0  0  0  0  0  0  0  0  0
  1  2  1  0  0  0  0
  1  7  2  0  0  0  0
  2  8  2  0  0  0  0
  3 12  2  0  0  0  0
  3 19  1  0  0  0  0
  4 13  1  0  0  0  0
  4 19  2  0  0  0  0
  5 10  2  0  0  0  0
  5 20  1  0  0  0  0
  6 11  1  0  0  0  0
  6 20  2  0  0  0  0
  7 22  1  0  0  0  0
  8 24  1  0  0  0  0
  9 14  2  0  0  0  0
  9 23  1  0  0  0  0
 10 26  1  0  0  0  0
 11 26  2  0  0  0  0
 12 27  1  0  0  0  0
 13 27  2  0  0  0  0
 14 28  1  0  0  0  0
 15 16  2  0  0  0  0
 15 29  1  0  0  0  0
 16 30  1  0  0  0  0
 17 25  1  0  0  0  0
 17 28  2  0  0  0  0
 18 30  2  0  0  0  0
 18 31  1  0  0  0  0
 19 32  1  0  0  0  0
 20 35  1  0  0  0  0
 21 32  1  0  0  0  0
 21 33  2  0  0  0  0
 21 36  1  0  0  0  0
 22 24  2  0  0  0  0
 22 41  1  0  0  0  0
 23 25  2  0  0  0  0
 23 42  1  0  0  0  0
 24 50  1  0  0  0  0
 25 43  1  0  0  0  0
 26 69  1  0  0  0  0
 27 79  1  0  0  0  0
 28 80  1  0  0  0  0
 29 31  2  0  0  0  0
 29 79  1  0  0  0  0
 30 81  1  0  0  0  0
 31 82  1  0  0  0  0
 32 62  2  0  0  0  0
 33 64  1  0  0  0  0
 33 67  1  0  0  0  0
 34 58  1  0  0  0  0
 34 63  2  0  0  0  0
 35 63  1  0  0  0  0
 35 72  2  0  0  0  0
 36 68  1  0  0  0  0
 36 74  2  0  0  0  0
 37 51  1  0  0  0  0
 37 70  1  0  0  0  0
 37 75  2  0  0  0  0
 38 59  1  0  0  0  0
 38 65  1  0  0  0  0
 38 76  2  0  0  0  0
 39 60  1  0  0  0  0
 39 71  1  0  0  0  0
 39 77  2  0  0  0  0
 40 66  1  0  0  0  0
 40 69  1  0  0  0  0
 40 78  2  0  0  0  0
 41 44  1  0  0  0  0
 42 51  1  0  0  0  0
 43 65  1  0  0  0  0
 44 46  1  0  0  0  0
 45 47  1  0  0  0  0
 45 48  1  0  0  0  0
 46 50  1  0  0  0  0
 47 52  1  0  0  0  0
 48 66  1  0  0  0  0
 49 52  1  0  0  0  0
 49 66  1  0  0  0  0
 50 70  1  0  0  0  0
 51 65  1  0  0  0  0
 52 64  1  0  0  0  0
 53 60  1  0  0  0  0
 54 61  1  0  0  0  0
 55 61  1  0  0  0  0
 56 61  1  0  0  0  0
 57 73  1  0  0  0  0
 58 80  1  0  0  0  0
 59 61  1  0  0  0  0
 59 71  1  0  0  0  0
 60 73  1  0  0  0  0
 62 64  1  0  0  0  0
M  CHG  2  72   1  73   1
M  ISO  4  40 100  58 101  69 100  80 101
M  END
> <Batch ID>
0075

> <Smiles>
CNC(C)C(=O)NC(C(=O)N1Cc2cc([101O:1][101CH:1]=CNC(=N)c3ccc([100NH:0][100C:0](=O)N4CCCC(n5nc(-c6ccc(Oc7ccc(F)cc7F)cc6)c(C(N)=O)c5N)C4)cc3)ccc2CC1C(=O)NC1CCCc2ccccc21)C(C)(C)C

> <Shape>
0.285

> <Color>
0.107

> <Negative vol penalty>
0.000

$$$$

  -OEChem-04042323473D

 84 93  0     1  0  0  0  0  0999 V2000
  -31.7187  -31.5142   24.6812 C   0  0  0  0  0  0  0  0  0  0  0  0
  -31.5799  -30.3954   23.8662 C   0  0  0  0  0  0  0  0  0  0  0  0
  -30.3324  -17.1457   22.5578 C   0  0  0  0  0  0  0  0  0  0  0  0
  -22.6318  -10.4423   20.7187 C   0  0  0  0  0  0  0  0  0  0  0  0
  -24.5447   -9.2085   21.5285 C   0  0  0  0  0  0  0  0  0  0  0  0
  -30.7573  -16.0392   21.8225 C   0  0  0  0  0  0  0  0  0  0  0  0
  -30.7403  -31.8105   25.6292 C   0  0  0  0  0  0  0  0  0  0  0  0
  -30.4629  -29.5714   23.9996 C   0  0  0  0  0  0  0  0  0  0  0  0
  -27.5568  -26.5573   19.5301 C   0  0  0  0  0  0  0  0  0  0  0  0
  -29.5051  -18.1004   21.9663 C   0  0  0  0  0  0  0  0  0  0  0  0
  -21.8492   -9.2917   20.8144 C   0  0  0  0  0  0  0  0  0  0  0  0
  -23.7620   -8.0579   21.6242 C   0  0  0  0  0  0  0  0  0  0  0  0
  -27.6227  -25.2348   19.0938 C   0  0  0  0  0  0  0  0  0  0  0  0
  -21.4713   -6.7756   23.7523 C   0  0  0  0  0  0  0  0  0  0  0  0
  -21.5888   -6.0084   24.9112 C   0  0  0  0  0  0  0  0  0  0  0  0
  -29.5277  -16.8420   19.9040 C   0  0  0  0  0  0  0  0  0  0  0  0
  -25.7054  -24.6965   20.4553 C   0  0  0  0  0  0  0  0  0  0  0  0
  -22.2982   -4.1164   23.5867 C   0  0  0  0  0  0  0  0  0  0  0  0
  -23.9796  -10.4007   21.0757 C   0  0  0  0  0  0  0  0  0  0  0  0
  -30.3550  -15.8874   20.4956 C   0  0  0  0  0  0  0  0  0  0  0  0
  -24.9954  -12.5622   21.9722 C   0  0  0  0  0  0  0  0  0  0  0  0
  -29.6060  -30.9951   25.7677 C   0  0  0  0  0  0  0  0  0  0  0  0
  -26.5697  -26.9576   20.4422 C   0  0  0  0  0  0  0  0  0  0  0  0
  -29.4690  -29.8562   24.9513 C   0  0  0  0  0  0  0  0  0  0  0  0
  -25.6276  -26.0253   20.8996 C   0  0  0  0  0  0  0  0  0  0  0  0
  -29.1028  -17.9485   20.6394 C   0  0  0  0  0  0  0  0  0  0  0  0
  -22.4142   -8.0995   21.2672 C   0  0  0  0  0  0  0  0  0  0  0  0
  -26.6987  -24.3035   19.5587 C   0  0  0  0  0  0  0  0  0  0  0  0
  -21.7672   -6.2133   22.5106 C   0  0  0  0  0  0  0  0  0  0  0  0
  -22.0023   -4.6788   24.8284 C   0  0  0  0  0  0  0  0  0  0  0  0
  -22.1807   -4.8837   22.4277 C   0  0  0  0  0  0  0  0  0  0  0  0
  -24.7888  -11.5887   20.9765 C   0  0  0  0  0  0  0  0  0  0  0  0
  -25.8350  -13.4786   21.3876 C   0  0  0  0  0  0  0  0  0  0  0  0
  -27.7800  -20.0298   20.6291 C   0  0  0  0  0  0  0  0  0  0  0  0
  -27.0169  -20.7313   19.7834 C   0  0  0  0  0  0  0  0  0  0  0  0
  -30.7977  -14.7336   19.7289 C   0  0  0  0  0  0  0  0  0  0  0  0
  -24.4749  -12.6318   23.3064 C   0  0  0  0  0  0  0  0  0  0  0  0
  -30.3890  -14.5423   18.3183 C   0  0  0  0  0  0  0  0  0  0  0  0
  -26.5890  -28.1474   23.3897 C   0  0  0  0  0  0  0  0  0  0  0  0
  -23.3961  -28.4153   22.8837 C   0  0  0  0  0  0  0  0  0  0  0  0
  -20.6312  -27.3476   21.1920 C   0  0  0  0  0  0  0  0  0  0  0  0
  -28.5982  -31.3292   26.8389 C   0  0  0  0  0  0  0  0  0  0  0  0
  -26.4957  -28.3940   20.8824 C   0  0  0  0  0  0  0  0  0  0  0  0
  -24.5359  -26.4088   21.8637 C   0  0  0  0  0  0  0  0  0  0  0  0
  -26.9578  -20.0352   18.4527 C   0  0  0  0  0  0  0  0  0  0  0  0
  -27.2608  -30.6150   26.6609 C   0  0  0  0  0  0  0  0  0  0  0  0
  -27.2925  -14.0307   16.5843 C   0  0  0  0  0  0  0  0  0  0  0  0
  -27.4814  -29.1365   26.3574 C   0  0  0  0  0  0  0  0  0  0  0  0
  -26.3951  -13.3936   17.6447 C   0  0  0  0  0  0  0  0  0  0  0  0
  -27.8331  -18.7781   18.6632 C   0  0  0  0  0  0  0  0  0  0  0  0
  -28.7451  -13.5949   16.7471 C   0  0  0  0  0  0  0  0  0  0  0  0
  -28.4084  -13.2215   19.1753 C   0  0  0  0  0  0  0  0  0  0  0  0
  -28.2594  -28.9520   25.0489 C   0  0  1  0  0  0  0  0  0  0  0  0
  -25.7643  -28.5754   22.2089 C   0  0  1  0  0  0  0  0  0  0  0  0
  -26.9380  -13.6599   19.0600 C   0  0  2  0  0  0  0  0  0  0  0  0
  -18.1566  -27.7283   21.0222 C   0  0  0  0  0  0  0  0  0  0  0  0
  -22.9815  -26.8606   25.4762 C   0  0  0  0  0  0  0  0  0  0  0  0
  -20.6138  -26.4533   24.7716 C   0  0  0  0  0  0  0  0  0  0  0  0
  -21.4167  -28.7843   25.1517 C   0  0  0  0  0  0  0  0  0  0  0  0
  -20.8356  -28.1740   18.3575 C   0  0  0  0  0  0  0  0  0  0  0  0
  -26.3034  -22.0084   20.0405 C   0  0  0  0  0  0  0  0  0  1  0  0
  -22.1998  -27.5218   23.1060 C   0  0  1  0  0  0  0  0  0  0  0  0
  -19.5265  -28.1108   20.4838 C   0  0  2  0  0  0  0  0  0  0  0  0
  -21.8246  -27.3970   24.6097 C   0  0  0  0  0  0  0  0  0  0  0  0
  -25.4442  -11.8614   19.8450 N   0  0  0  0  0  0  0  0  0  0  0  0
  -31.5729  -13.8033   20.2171 N   0  0  0  0  0  0  0  0  0  0  0  0
  -26.0708  -13.0165   20.1262 N   0  0  0  0  0  0  0  0  0  0  0  0
  -28.2891  -18.8876   20.0577 N   0  0  0  0  0  0  0  0  0  0  0  0
  -29.2173  -13.8281   18.1105 N   0  0  0  0  0  0  0  0  0  0  0  0
  -24.5091  -27.8237   22.2697 N   0  0  0  0  0  0  0  0  0  0  0  0
  -26.3871  -14.6265   21.8346 N   0  0  0  0  0  0  0  0  0  0  0  0
  -23.6265  -11.6069   23.7469 N   0  0  0  0  0  0  0  0  0  0  0  0
  -27.3875  -29.1477   23.9106 N   0  0  0  0  0  0  0  0  0  0  0  0
  -21.1319  -28.0529   22.2658 N   0  0  0  0  0  0  0  0  0  0  0  0
  -19.5537  -27.8238   19.0217 N   0  3  0  0  0  0  0  0  0  0  0  0
  -24.7409  -13.5833   24.0793 O   0  0  0  0  0  0  0  0  0  0  0  0
  -31.1332  -15.0371   17.4819 O   0  0  0  0  0  0  0  0  0  0  0  0
  -26.5059  -26.9953   23.7989 O   0  0  0  0  0  0  0  0  0  0  0  0
  -23.3424  -29.5965   23.2353 O   0  0  0  0  0  0  0  0  0  0  0  0
  -21.0094  -26.2352   20.8311 O   0  0  0  0  0  0  0  0  0  0  0  0
  -21.6508   -6.9766   21.3610 O   0  0  0  0  0  0  0  0  0  0  0  0
  -26.7612  -23.0118   19.1350 O   0  0  0  0  0  0  0  0  0  1  0  0
  -22.1166   -3.9425   25.9415 F   0  0  0  0  0  0  0  0  0  0  0  0
  -22.4674   -4.3383   21.2377 F   0  0  0  0  0  0  0  0  0  0  0  0
  1  2  1  0  0  0  0
  1  7  2  0  0  0  0
  2  8  2  0  0  0  0
  3  6  1  0  0  0  0
  3 10  2  0  0  0  0
  4 11  2  0  0  0  0
  4 19  1  0  0  0  0
  5 12  1  0  0  0  0
  5 19  2  0  0  0  0
  6 20  2  0  0  0  0
  7 22  1  0  0  0  0
  8 24  1  0  0  0  0
  9 13  2  0  0  0  0
  9 23  1  0  0  0  0
 10 26  1  0  0  0  0
 11 27  1  0  0  0  0
 12 27  2  0  0  0  0
 13 28  1  0  0  0  0
 14 15  2  0  0  0  0
 14 29  1  0  0  0  0
 15 30  1  0  0  0  0
 16 20  1  0  0  0  0
 16 26  2  0  0  0  0
 17 25  1  0  0  0  0
 17 28  2  0  0  0  0
 18 30  2  0  0  0  0
 18 31  1  0  0  0  0
 19 32  1  0  0  0  0
 20 36  1  0  0  0  0
 21 32  1  0  0  0  0
 21 33  2  0  0  0  0
 21 37  1  0  0  0  0
 22 24  2  0  0  0  0
 22 42  1  0  0  0  0
 23 25  2  0  0  0  0
 23 43  1  0  0  0  0
 24 53  1  0  0  0  0
 25 44  1  0  0  0  0
 26 68  1  0  0  0  0
 27 81  1  0  0  0  0
 28 82  1  0  0  0  0
 29 31  2  0  0  0  0
 29 81  1  0  0  0  0
 30 83  1  0  0  0  0
 31 84  1  0  0  0  0
 32 65  2  0  0  0  0
 33 67  1  0  0  0  0
 33 71  1  0  0  0  0
 34 35  2  0  0  0  0
 34 68  1  0  0  0  0
 35 45  1  0  0  0  0
 35 61  1  0  0  0  0
 36 38  1  0  0  0  0
 36 66  2  0  0  0  0
 37 72  1  0  0  0  0
 37 76  2  0  0  0  0
 38 69  1  0  0  0  0
 38 77  2  0  0  0  0
 39 54  1  0  0  0  0
 39 73  1  0  0  0  0
 39 78  2  0  0  0  0
 40 62  1  0  0  0  0
 40 70  1  0  0  0  0
 40 79  2  0  0  0  0
 41 63  1  0  0  0  0
 41 74  1  0  0  0  0
 41 80  2  0  0  0  0
 42 46  1  0  0  0  0
 43 54  1  0  0  0  0
 44 70  1  0  0  0  0
 45 50  1  0  0  0  0
 46 48  1  0  0  0  0
 47 49  1  0  0  0  0
 47 51  1  0  0  0  0
 48 53  1  0  0  0  0
 49 55  1  0  0  0  0
 50 68  1  0  0  0  0
 51 69  1  0  0  0  0
 52 55  1  0  0  0  0
 52 69  1  0  0  0  0
 53 73  1  0  0  0  0
 54 70  1  0  0  0  0
 55 67  1  0  0  0  0
 56 63  1  0  0  0  0
 57 64  1  0  0  0  0
 58 64  1  0  0  0  0
 59 64  1  0  0  0  0
 60 75  1  0  0  0  0
 61 82  1  0  0  0  0
 62 64  1  0  0  0  0
 62 74  1  0  0  0  0
 63 75  1  0  0  0  0
 65 67  1  0  0  0  0
M  CHG  1  75   1
M  ISO  4  36 100  38 100  61 101  82 101
M  END
> <Batch ID>
0075

> <Smiles>
CNC(C)C(=O)NC(C(=O)N1Cc2cc([101O:1][101CH2:1]C3=CN(c4cccc([100C:0](=N)[100C:0](=O)N5CCCC(n6nc(-c7ccc(Oc8ccc(F)cc8F)cc7)c(C(N)=O)c6N)C5)c4)CC3)ccc2CC1C(=O)NC1CCCc2ccccc21)C(C)(C)C

> <Shape>
0.284

> <Color>
0.110

> <Negative vol penalty>
0.000

$$$$

  -OEChem-04042323473D

 88 97  0     1  0  0  0  0  0999 V2000
  -16.6854  -30.3193   23.5022 C   0  0  0  0  0  0  0  0  0  0  0  0
  -17.8284  -30.9744   23.9491 C   0  0  0  0  0  0  0  0  0  0  0  0
  -27.8149  -17.8684   20.0428 C   0  0  0  0  0  0  0  0  0  0  0  0
  -29.0776  -18.2762   22.0619 C   0  0  0  0  0  0  0  0  0  0  0  0
  -16.7833  -29.0353   22.9677 C   0  0  0  0  0  0  0  0  0  0  0  0
  -19.0700  -30.3454   23.8627 C   0  0  0  0  0  0  0  0  0  0  0  0
  -26.0059  -31.8022   22.8204 C   0  0  0  0  0  0  0  0  0  0  0  0
  -35.0541  -26.8550   21.1986 C   0  0  0  0  0  0  0  0  0  0  0  0
  -34.6003  -27.7738   22.1449 C   0  0  0  0  0  0  0  0  0  0  0  0
  -27.8397  -16.4984   20.3040 C   0  0  0  0  0  0  0  0  0  0  0  0
  -29.1023  -16.9062   22.3231 C   0  0  0  0  0  0  0  0  0  0  0  0
  -27.2536  -31.5717   23.3983 C   0  0  0  0  0  0  0  0  0  0  0  0
  -27.0025  -14.5725   23.5743 C   0  0  0  0  0  0  0  0  0  0  0  0
  -26.7249  -14.1575   24.8767 C   0  0  0  0  0  0  0  0  0  0  0  0
  -27.3125  -29.3839   22.3839 C   0  0  0  0  0  0  0  0  0  0  0  0
  -33.2036  -28.8107   20.4682 C   0  0  0  0  0  0  0  0  0  0  0  0
  -28.9081  -13.1322   25.0154 C   0  0  0  0  0  0  0  0  0  0  0  0
  -28.4340  -18.7573   20.9217 C   0  0  0  0  0  0  0  0  0  0  0  0
  -27.4381  -21.1010   21.0722 C   0  0  0  0  0  0  0  0  0  0  0  0
  -18.0279  -28.3940   22.8659 C   0  0  0  0  0  0  0  0  0  0  0  0
  -25.3963  -30.8194   22.0275 C   0  0  0  0  0  0  0  0  0  0  0  0
  -19.1844  -29.0511   23.3276 C   0  0  0  0  0  0  0  0  0  0  0  0
  -26.0583  -29.6054   21.7950 C   0  0  0  0  0  0  0  0  0  0  0  0
  -34.5826  -26.9140   19.8871 C   0  0  0  0  0  0  0  0  0  0  0  0
  -33.6751  -28.7517   21.7797 C   0  0  0  0  0  0  0  0  0  0  0  0
  -28.4833  -16.0173   21.4442 C   0  0  0  0  0  0  0  0  0  0  0  0
  -27.9058  -30.3613   23.1825 C   0  0  0  0  0  0  0  0  0  0  0  0
  -28.2330  -14.2673   22.9924 C   0  0  0  0  0  0  0  0  0  0  0  0
  -27.6777  -13.4374   25.5973 C   0  0  0  0  0  0  0  0  0  0  0  0
  -33.6573  -27.8918   19.5220 C   0  0  0  0  0  0  0  0  0  0  0  0
  -29.1858  -13.5472   23.7130 C   0  0  0  0  0  0  0  0  0  0  0  0
  -28.4092  -20.1725   20.6522 C   0  0  0  0  0  0  0  0  0  0  0  0
  -27.8677  -22.3017   20.5620 C   0  0  0  0  0  0  0  0  0  0  0  0
  -32.2205  -31.0170   24.9665 C   0  0  0  0  0  0  0  0  0  0  0  0
  -31.4037  -30.8551   23.9123 C   0  0  0  0  0  0  0  0  0  0  0  0
  -26.2536  -20.8965   21.8537 C   0  0  0  0  0  0  0  0  0  0  0  0
  -22.7071  -29.1351   22.2158 C   0  0  0  0  0  0  0  0  0  0  0  0
  -23.6043  -28.1063   19.2732 C   0  0  0  0  0  0  0  0  0  0  0  0
  -26.1230  -27.5808   17.0311 C   0  0  0  0  0  0  0  0  0  0  0  0
  -33.2464  -24.2651   19.1231 C   0  0  0  0  0  0  0  0  0  0  0  0
  -18.0776  -26.9872   22.3245 C   0  0  0  0  0  0  0  0  0  0  0  0
  -24.0622  -31.0939   21.3894 C   0  0  0  0  0  0  0  0  0  0  0  0
  -25.4557  -28.5255   20.9351 C   0  0  0  0  0  0  0  0  0  0  0  0
  -33.6687  -30.6409   24.9327 C   0  0  0  0  0  0  0  0  0  0  0  0
  -31.8684  -30.2346   22.6145 C   0  0  0  0  0  0  0  0  0  0  0  0
  -19.4803  -26.5382   21.9233 C   0  0  0  0  0  0  0  0  0  0  0  0
  -30.3746  -24.1427   16.9242 C   0  0  0  0  0  0  0  0  0  0  0  0
  -20.4870  -26.8948   23.0124 C   0  0  0  0  0  0  0  0  0  0  0  0
  -29.4501  -23.1897   17.6840 C   0  0  0  0  0  0  0  0  0  0  0  0
  -34.1908  -30.4416   23.5109 C   0  0  0  0  0  0  0  0  0  0  0  0
  -31.8339  -23.7153   17.0506 C   0  0  0  0  0  0  0  0  0  0  0  0
  -31.3928  -22.6225   19.2151 C   0  0  0  0  0  0  0  0  0  0  0  0
  -20.5524  -28.4117   23.2279 C   0  0  1  0  0  0  0  0  0  0  0  0
  -23.3035  -29.8228   21.0204 C   0  0  1  0  0  0  0  0  0  0  0  0
  -29.9054  -23.0133   19.1448 C   0  0  2  0  0  0  0  0  0  0  0  0
  -26.5528  -26.6930   14.7236 C   0  0  0  0  0  0  0  0  0  0  0  0
  -36.1011  -24.8836   19.3966 C   0  0  0  0  0  0  0  0  0  0  0  0
  -35.7521  -26.6622   17.6873 C   0  0  0  0  0  0  0  0  0  0  0  0
  -23.3128  -25.2547   20.3187 C   0  0  0  0  0  0  0  0  0  0  0  0
  -24.6358  -24.4695   18.3434 C   0  0  0  0  0  0  0  0  0  0  0  0
  -22.4438  -25.6099   18.0007 C   0  0  0  0  0  0  0  0  0  0  0  0
  -27.1638  -30.1886   16.0959 C   0  0  0  0  0  0  0  0  0  0  0  0
  -29.9616  -31.2680   23.9619 C   0  0  0  0  0  0  0  0  0  1  0  0
  -24.4425  -26.9653   18.7491 C   0  0  1  0  0  0  0  0  0  0  0  0
  -26.2493  -27.9273   15.5585 C   0  0  2  0  0  0  0  0  0  0  0  0
  -35.0699  -25.9300   18.8778 C   0  0  0  0  0  0  0  0  0  0  0  0
  -23.7195  -25.5942   18.8708 C   0  0  0  0  0  0  0  0  0  0  0  0
  -29.3824  -20.7349   19.9306 N   0  0  0  0  0  0  0  0  0  0  0  0
  -29.0248  -22.0299   19.8932 N   0  0  0  0  0  0  0  0  0  0  0  0
  -33.2208  -29.6712   22.7277 N   0  0  2  0  0  0  0  0  0  0  0  0
  -24.1468  -28.8390   20.3384 N   0  0  0  0  0  0  0  0  0  0  0  0
  -32.2088  -23.5836   18.4656 N   0  0  0  0  0  0  0  0  0  0  0  0
  -27.3648  -23.5529   20.6247 N   0  0  0  0  0  0  0  0  0  0  0  0
  -25.9615  -19.5996   22.2974 N   0  0  0  0  0  0  0  0  0  0  0  0
  -21.3292  -29.0381   22.1798 N   0  0  0  0  0  0  0  0  0  0  0  0
  -24.8151  -27.3254   17.3853 N   0  0  0  0  0  0  0  0  0  0  0  0
  -33.9757  -25.1520   18.3407 N   0  0  0  0  0  0  0  0  0  0  0  0
  -27.3449  -28.9160   15.3512 N   0  3  0  0  0  0  0  0  0  0  0  0
  -25.4685  -21.8333   22.1359 O   0  0  0  0  0  0  0  0  0  0  0  0
  -23.4429  -28.7216   23.1043 O   0  0  0  0  0  0  0  0  0  0  0  0
  -22.5118  -28.3434   18.7518 O   0  0  0  0  0  0  0  0  0  0  0  0
  -27.0885  -27.5370   17.7903 O   0  0  0  0  0  0  0  0  0  0  0  0
  -33.5009  -24.0996   20.3210 O   0  0  0  0  0  0  0  0  0  0  0  0
  -28.5074  -14.6806   21.6995 O   0  0  0  0  0  0  0  0  0  0  0  0
  -29.1234  -30.1335   23.7459 O   0  0  0  0  0  0  0  0  0  1  0  0
  -27.4115  -13.0403   26.8485 F   0  0  0  0  0  0  0  0  0  0  0  0
  -33.1995  -27.9572   18.2639 F   0  0  0  0  0  0  0  0  0  0  0  0
  -30.3701  -13.2520   23.1597 F   0  0  0  0  0  0  0  0  0  0  0  0
  1  2  1  0  0  0  0
  1  5  2  0  0  0  0
  2  6  2  0  0  0  0
  3 10  2  0  0  0  0
  3 18  1  0  0  0  0
  4 11  1  0  0  0  0
  4 18  2  0  0  0  0
  5 20  1  0  0  0  0
  6 22  1  0  0  0  0
  7 12  2  0  0  0  0
  7 21  1  0  0  0  0
  8  9  2  0  0  0  0
  8 24  1  0  0  0  0
  9 25  1  0  0  0  0
 10 26  1  0  0  0  0
 11 26  2  0  0  0  0
 12 27  1  0  0  0  0
 13 14  2  0  0  0  0
 13 28  1  0  0  0  0
 14 29  1  0  0  0  0
 15 23  1  0  0  0  0
 15 27  2  0  0  0  0
 16 25  2  0  0  0  0
 16 30  1  0  0  0  0
 17 29  2  0  0  0  0
 17 31  1  0  0  0  0
 18 32  1  0  0  0  0
 19 32  1  0  0  0  0
 19 33  2  0  0  0  0
 19 36  1  0  0  0  0
 20 22  2  0  0  0  0
 20 41  1  0  0  0  0
 21 23  2  0  0  0  0
 21 42  1  0  0  0  0
 22 53  1  0  0  0  0
 23 43  1  0  0  0  0
 24 30  2  0  0  0  0
 24 66  1  0  0  0  0
 25 70  1  0  0  0  0
 26 84  1  0  0  0  0
 27 85  1  0  0  0  0
 28 31  2  0  0  0  0
 28 84  1  0  0  0  0
 29 86  1  0  0  0  0
 30 87  1  0  0  0  0
 31 88  1  0  0  0  0
 32 68  2  0  0  0  0
 33 69  1  0  0  0  0
 33 73  1  0  0  0  0
 34 35  2  0  0  0  0
 34 44  1  0  0  0  0
 35 45  1  0  0  0  0
 35 63  1  0  0  0  0
 36 74  1  0  0  0  0
 36 79  2  0  0  0  0
 37 54  1  0  0  0  0
 37 75  1  0  0  0  0
 37 80  2  0  0  0  0
 38 64  1  0  0  0  0
 38 71  1  0  0  0  0
 38 81  2  0  0  0  0
 39 65  1  0  0  0  0
 39 76  1  0  0  0  0
 39 82  2  0  0  0  0
 40 72  1  0  0  0  0
 40 77  1  0  0  0  0
 40 83  2  0  0  0  0
 41 46  1  0  0  0  0
 42 54  1  0  0  0  0
 43 71  1  0  0  0  0
 44 50  1  0  0  0  0
 45 70  1  0  0  0  0
 46 48  1  0  0  0  0
 47 49  1  0  0  0  0
 47 51  1  0  0  0  0
 48 53  1  0  0  0  0
 49 55  1  0  0  0  0
 50 70  1  0  0  0  0
 51 72  1  0  0  0  0
 52 55  1  0  0  0  0
 52 72  1  0  0  0  0
 53 75  1  0  0  0  0
 54 71  1  0  0  0  0
 55 69  1  0  0  0  0
 56 65  1  0  0  0  0
 57 66  1  0  0  0  0
 58 66  1  0  0  0  0
 59 67  1  0  0  0  0
 60 67  1  0  0  0  0
 61 67  1  0  0  0  0
 62 78  1  0  0  0  0
 63 85  1  0  0  0  0
 64 67  1  0  0  0  0
 64 76  1  0  0  0  0
 65 78  1  0  0  0  0
 66 77  1  0  0  0  0
 68 69  1  0  0  0  0
M  CHG  1  78   1
M  ISO  4  40 100  63 101  77 100  85 101
M  END
> <Batch ID>
0075

> <Smiles>
CNC(C)C(=O)NC(C(=O)N1Cc2cc([101O:1][101CH2:1]C3=CCCN(c4ccc(C(C)(C)[100NH:0][100C:0](=O)N5CCCC(n6nc(-c7ccc(Oc8ccc(F)cc8F)cc7)c(C(N)=O)c6N)C5)c(F)c4)C3)ccc2CC1C(=O)NC1CCCc2ccccc21)C(C)(C)C

> <Shape>
0.224

> <Color>
0.108

> <Negative vol penalty>
0.000

$$$$

  -OEChem-04042323473D

 86 94  0     1  0  0  0  0  0999 V2000
  -28.1953  -24.1699   17.5478 C   0  0  0  0  0  0  0  0  0  0  0  0
  -26.9976  -24.4377   18.2029 C   0  0  0  0  0  0  0  0  0  0  0  0
  -24.4895  -12.1146   19.3995 C   0  0  0  0  0  0  0  0  0  0  0  0
  -22.6031  -13.5108   19.9733 C   0  0  0  0  0  0  0  0  0  0  0  0
  -29.3867  -24.7139   18.0257 C   0  0  0  0  0  0  0  0  0  0  0  0
  -26.9908  -25.2491   19.3370 C   0  0  0  0  0  0  0  0  0  0  0  0
  -23.2428  -28.6539   19.2676 C   0  0  0  0  0  0  0  0  0  0  0  0
  -23.7478  -10.9789   19.7245 C   0  0  0  0  0  0  0  0  0  0  0  0
  -21.8614  -12.3750   20.2982 C   0  0  0  0  0  0  0  0  0  0  0  0
  -21.9650  -28.2009   19.5928 C   0  0  0  0  0  0  0  0  0  0  0  0
  -22.8099   -9.3339   22.5242 C   0  0  0  0  0  0  0  0  0  0  0  0
  -23.4341   -8.3510   23.2923 C   0  0  0  0  0  0  0  0  0  0  0  0
  -22.2267  -29.0825   21.8229 C   0  0  0  0  0  0  0  0  0  0  0  0
  -23.2578  -23.3767   21.5516 C   0  0  0  0  0  0  0  0  0  0  0  0
  -25.4912  -22.5873   23.0252 C   0  0  0  0  0  0  0  0  0  0  0  0
  -23.0953   -6.7482   21.5165 C   0  0  0  0  0  0  0  0  0  0  0  0
  -23.9172  -13.3806   19.5240 C   0  0  0  0  0  0  0  0  0  0  0  0
  -24.7672  -15.1845   17.9331 C   0  0  0  0  0  0  0  0  0  0  0  0
  -29.3932  -25.5402   19.1606 C   0  0  0  0  0  0  0  0  0  0  0  0
  -24.0278  -29.3160   20.2225 C   0  0  0  0  0  0  0  0  0  0  0  0
  -28.1836  -25.8036   19.8313 C   0  0  0  0  0  0  0  0  0  0  0  0
  -23.5132  -29.5451   21.5065 C   0  0  0  0  0  0  0  0  0  0  0  0
  -23.6489  -24.1100   22.6718 C   0  0  0  0  0  0  0  0  0  0  0  0
  -25.0999  -21.8540   21.9050 C   0  0  0  0  0  0  0  0  0  0  0  0
  -22.4338  -11.1091   20.1738 C   0  0  0  0  0  0  0  0  0  0  0  0
  -21.4579  -28.4126   20.8715 C   0  0  0  0  0  0  0  0  0  0  0  0
  -22.3284   -9.0239   21.2523 C   0  0  0  0  0  0  0  0  0  0  0  0
  -23.5768   -7.0582   22.7885 C   0  0  0  0  0  0  0  0  0  0  0  0
  -24.7656  -23.7154   23.4086 C   0  0  0  0  0  0  0  0  0  0  0  0
  -23.9832  -22.2487   21.1682 C   0  0  0  0  0  0  0  0  0  0  0  0
  -22.4711   -7.7311   20.7485 C   0  0  0  0  0  0  0  0  0  0  0  0
  -24.6830  -14.5542   19.1890 C   0  0  0  0  0  0  0  0  0  0  0  0
  -25.6142  -16.2462   18.1378 C   0  0  0  0  0  0  0  0  0  0  0  0
  -24.1362  -14.8410   16.6923 C   0  0  0  0  0  0  0  0  0  0  0  0
  -26.8245  -28.7383   21.6182 C   0  0  0  0  0  0  0  0  0  0  0  0
  -26.3663  -31.6933   22.8753 C   0  0  0  0  0  0  0  0  0  0  0  0
  -21.7802  -25.7782   22.4471 C   0  0  0  0  0  0  0  0  0  0  0  0
  -24.1777  -34.1580   23.7599 C   0  0  0  0  0  0  0  0  0  0  0  0
  -26.9698  -20.1825   22.1413 C   0  0  0  0  0  0  0  0  0  0  0  0
  -30.7124  -26.0670   19.6674 C   0  0  0  0  0  0  0  0  0  0  0  0
  -25.3938  -29.8221   19.8478 C   0  0  0  0  0  0  0  0  0  0  0  0
  -24.3077  -30.2687   22.5618 C   0  0  0  0  0  0  0  0  0  0  0  0
  -30.5680  -27.2211   20.6561 C   0  0  0  0  0  0  0  0  0  0  0  0
  -29.0506  -17.3612   21.5188 C   0  0  0  0  0  0  0  0  0  0  0  0
  -29.5057  -26.8982   21.7021 C   0  0  0  0  0  0  0  0  0  0  0  0
  -28.1461  -16.4102   20.7316 C   0  0  0  0  0  0  0  0  0  0  0  0
  -28.2764  -18.1184   22.5963 C   0  0  0  0  0  0  0  0  0  0  0  0
  -26.1754  -17.8734   21.3335 C   0  0  0  0  0  0  0  0  0  0  0  0
  -28.1321  -26.6991   21.0501 C   0  0  1  0  0  0  0  0  0  0  0  0
  -26.3052  -30.0302   21.0533 C   0  0  1  0  0  0  0  0  0  0  0  0
  -26.8974  -17.1362   20.1938 C   0  0  2  0  0  0  0  0  0  0  0  0
  -24.0967  -36.4408   24.7989 C   0  0  0  0  0  0  0  0  0  0  0  0
  -26.8040  -30.4531   25.6286 C   0  0  0  0  0  0  0  0  0  0  0  0
  -25.7924  -32.5086   26.6384 C   0  0  0  0  0  0  0  0  0  0  0  0
  -27.8923  -32.6811   25.3030 C   0  0  0  0  0  0  0  0  0  0  0  0
  -19.4988  -28.8532   23.2931 C   0  0  0  0  0  0  0  0  0  0  0  0
  -18.8791  -26.5403   22.5639 C   0  0  0  0  0  0  0  0  0  0  0  0
  -23.0091  -35.3548   21.3184 C   0  0  0  0  0  0  0  0  0  0  0  0
  -21.2699  -27.0235   23.1608 C   0  0  0  0  0  0  0  0  0  0  0  0
  -25.7035  -32.2351   24.1188 C   0  0  1  0  0  0  0  0  0  0  0  0
  -24.1867  -35.6537   23.5008 C   0  0  2  0  0  0  0  0  0  0  0  0
  -26.5336  -31.9541   25.4031 C   0  0  0  0  0  0  0  0  0  0  0  0
  -19.9812  -27.6053   22.5519 C   0  0  0  0  0  0  0  0  0  1  0  0
  -25.4180  -15.1645   20.1225 N   0  0  0  0  0  0  0  0  0  0  0  0
  -25.9721  -16.1893   19.4526 N   0  0  0  0  0  0  0  0  0  0  0  0
  -25.6404  -30.7387   22.1489 N   0  0  0  0  0  0  0  0  0  0  0  0
  -27.1100  -18.7844   22.0128 N   0  0  0  0  0  0  0  0  0  0  0  0
  -26.0803  -17.2135   17.3196 N   0  0  0  0  0  0  0  0  0  0  0  0
  -23.2966  -13.7193   16.6578 N   0  0  0  0  0  0  0  0  0  0  0  0
  -22.9108  -25.2533   23.0585 N   0  0  0  0  0  0  0  0  0  0  0  0
  -25.8385  -20.7083   21.5183 N   0  0  0  0  0  0  0  0  0  0  0  0
  -27.5417  -27.9773   20.7150 N   0  0  0  0  0  0  0  0  0  0  0  0
  -25.4553  -33.6503   23.8655 N   0  0  0  0  0  0  0  0  0  0  0  0
  -23.0336  -36.0369   22.6379 N   0  3  0  0  0  0  0  0  0  0  0  0
  -24.3247  -15.4993   15.6413 O   0  0  0  0  0  0  0  0  0  0  0  0
  -26.5929  -28.4538   22.7875 O   0  0  0  0  0  0  0  0  0  0  0  0
  -27.4836  -32.1073   22.5563 O   0  0  0  0  0  0  0  0  0  0  0  0
  -21.1972  -25.3501   21.4546 O   0  0  0  0  0  0  0  0  0  0  0  0
  -23.1410  -33.5059   23.8624 O   0  0  0  0  0  0  0  0  0  0  0  0
  -27.8071  -20.8668   22.7353 O   0  0  0  0  0  0  0  0  0  0  0  0
  -21.7096  -10.0010   20.4907 O   0  0  0  0  0  0  0  0  0  0  0  0
  -20.2112  -27.9710   21.1918 O   0  0  0  0  0  0  0  0  0  1  0  0
  -24.1776   -6.1148   23.5255 F   0  0  0  0  0  0  0  0  0  0  0  0
  -25.1512  -24.4130   24.4866 F   0  0  0  0  0  0  0  0  0  0  0  0
  -23.5982  -21.5517   20.0895 F   0  0  0  0  0  0  0  0  0  0  0  0
  -22.0115   -7.4276   19.5268 F   0  0  0  0  0  0  0  0  0  0  0  0
  1  2  1  0  0  0  0
  1  5  2  0  0  0  0
  2  6  2  0  0  0  0
  3  8  2  0  0  0  0
  3 17  1  0  0  0  0
  4  9  1  0  0  0  0
  4 17  2  0  0  0  0
  5 19  1  0  0  0  0
  6 21  1  0  0  0  0
  7 10  2  0  0  0  0
  7 20  1  0  0  0  0
  8 25  1  0  0  0  0
  9 25  2  0  0  0  0
 10 26  1  0  0  0  0
 11 12  2  0  0  0  0
 11 27  1  0  0  0  0
 12 28  1  0  0  0  0
 13 22  1  0  0  0  0
 13 26  2  0  0  0  0
 14 23  1  0  0  0  0
 14 30  2  0  0  0  0
 15 24  2  0  0  0  0
 15 29  1  0  0  0  0
 16 28  2  0  0  0  0
 16 31  1  0  0  0  0
 17 32  1  0  0  0  0
 18 32  1  0  0  0  0
 18 33  2  0  0  0  0
 18 34  1  0  0  0  0
 19 21  2  0  0  0  0
 19 40  1  0  0  0  0
 20 22  2  0  0  0  0
 20 41  1  0  0  0  0
 21 49  1  0  0  0  0
 22 42  1  0  0  0  0
 23 29  2  0  0  0  0
 23 70  1  0  0  0  0
 24 30  1  0  0  0  0
 24 71  1  0  0  0  0
 25 81  1  0  0  0  0
 26 82  1  0  0  0  0
 27 31  2  0  0  0  0
 27 81  1  0  0  0  0
 28 83  1  0  0  0  0
 29 84  1  0  0  0  0
 30 85  1  0  0  0  0
 31 86  1  0  0  0  0
 32 64  2  0  0  0  0
 33 65  1  0  0  0  0
 33 68  1  0  0  0  0
 34 69  1  0  0  0  0
 34 75  2  0  0  0  0
 35 50  1  0  0  0  0
 35 72  1  0  0  0  0
 35 76  2  0  0  0  0
 36 60  1  0  0  0  0
 36 66  1  0  0  0  0
 36 77  2  0  0  0  0
 37 59  1  0  0  0  0
 37 70  1  0  0  0  0
 37 78  2  0  0  0  0
 38 61  1  0  0  0  0
 38 73  1  0  0  0  0
 38 79  2  0  0  0  0
 39 67  1  0  0  0  0
 39 71  1  0  0  0  0
 39 80  2  0  0  0  0
 40 43  1  0  0  0  0
 41 50  1  0  0  0  0
 42 66  1  0  0  0  0
 43 45  1  0  0  0  0
 44 46  1  0  0  0  0
 44 47  1  0  0  0  0
 45 49  1  0  0  0  0
 46 51  1  0  0  0  0
 47 67  1  0  0  0  0
 48 51  1  0  0  0  0
 48 67  1  0  0  0  0
 49 72  1  0  0  0  0
 50 66  1  0  0  0  0
 51 65  1  0  0  0  0
 52 61  1  0  0  0  0
 53 62  1  0  0  0  0
 54 62  1  0  0  0  0
 55 62  1  0  0  0  0
 56 63  1  0  0  0  0
 57 63  1  0  0  0  0
 58 74  1  0  0  0  0
 59 63  1  0  0  0  0
 60 62  1  0  0  0  0
 60 73  1  0  0  0  0
 61 74  1  0  0  0  0
 63 82  1  0  0  0  0
 64 65  1  0  0  0  0
M  CHG  1  74   1
M  ISO  4  39 100  63 101  71 100  82 101
M  END
> <Batch ID>
0075

> <Smiles>
CNC(C)C(=O)NC(C(=O)N1Cc2cc([101O:1][101C:1](C)(C)CC(=O)Nc3cc(F)c([100NH:0][100C:0](=O)N4CCCC(n5nc(-c6ccc(Oc7ccc(F)cc7F)cc6)c(C(N)=O)c5N)C4)cc3F)ccc2CC1C(=O)NC1CCCc2ccccc21)C(C)(C)C

> <Shape>
0.296

> <Color>
0.068

> <Negative vol penalty>
0.000

$$$$

  -OEChem-04042323473D

 96105  0     1  0  0  0  0  0999 V2000
  -17.0761  -31.4222   22.7033 C   0  0  0  0  0  0  0  0  0  0  0  0
  -18.3001  -31.9551   23.0948 C   0  0  0  0  0  0  0  0  0  0  0  0
  -24.6915   -9.0983   22.0309 C   0  0  0  0  0  0  0  0  0  0  0  0
  -23.4915   -9.6682   20.0129 C   0  0  0  0  0  0  0  0  0  0  0  0
  -16.9476  -30.0486   22.5019 C   0  0  0  0  0  0  0  0  0  0  0  0
  -19.3961  -31.1145   23.2862 C   0  0  0  0  0  0  0  0  0  0  0  0
  -26.4902  -31.3234   20.0216 C   0  0  0  0  0  0  0  0  0  0  0  0
  -30.0101  -24.0428   19.5306 C   0  0  0  0  0  0  0  0  0  0  0  0
  -29.3713  -22.8183   19.3351 C   0  0  0  0  0  0  0  0  0  0  0  0
  -23.5563   -8.4553   22.5244 C   0  0  0  0  0  0  0  0  0  0  0  0
  -22.3563   -9.0251   20.5063 C   0  0  0  0  0  0  0  0  0  0  0  0
  -27.7260  -31.1627   19.3947 C   0  0  0  0  0  0  0  0  0  0  0  0
  -21.9828   -5.4945   22.0875 C   0  0  0  0  0  0  0  0  0  0  0  0
  -22.1521   -4.2416   22.6767 C   0  0  0  0  0  0  0  0  0  0  0  0
  -29.8320  -24.5131   17.1675 C   0  0  0  0  0  0  0  0  0  0  0  0
  -27.6677  -28.7912   19.8641 C   0  0  0  0  0  0  0  0  0  0  0  0
  -21.2540   -5.0956   24.7506 C   0  0  0  0  0  0  0  0  0  0  0  0
  -24.6591   -9.7048   20.7752 C   0  0  0  0  0  0  0  0  0  0  0  0
  -29.1932  -23.2886   16.9720 C   0  0  0  0  0  0  0  0  0  0  0  0
  -26.8617   -9.8022   19.4920 C   0  0  0  0  0  0  0  0  0  0  0  0
  -18.0450  -29.1919   22.6815 C   0  0  0  0  0  0  0  0  0  0  0  0
  -25.8304  -30.2148   20.5593 C   0  0  0  0  0  0  0  0  0  0  0  0
  -19.2817  -29.7279   23.0883 C   0  0  0  0  0  0  0  0  0  0  0  0
  -26.4238  -28.9440   20.4823 C   0  0  0  0  0  0  0  0  0  0  0  0
  -30.2404  -24.8902   18.4468 C   0  0  0  0  0  0  0  0  0  0  0  0
  -28.9629  -22.4412   18.0558 C   0  0  0  0  0  0  0  0  0  0  0  0
  -22.3888   -8.4187   21.7621 C   0  0  0  0  0  0  0  0  0  0  0  0
  -28.3134  -29.8997   19.3164 C   0  0  0  0  0  0  0  0  0  0  0  0
  -21.4491   -6.5480   22.8298 C   0  0  0  0  0  0  0  0  0  0  0  0
  -21.7877   -4.0422   24.0083 C   0  0  0  0  0  0  0  0  0  0  0  0
  -21.0847   -6.3485   24.1614 C   0  0  0  0  0  0  0  0  0  0  0  0
  -25.8312  -10.3697   20.2652 C   0  0  0  0  0  0  0  0  0  0  0  0
  -27.7327  -10.8399   19.2661 C   0  0  0  0  0  0  0  0  0  0  0  0
  -30.7071  -27.3208   17.8946 C   0  0  0  0  0  0  0  0  0  0  0  0
  -24.9782  -19.2999   17.2399 C   0  0  0  0  0  0  0  0  0  0  0  0
  -25.8011  -19.2781   18.2959 C   0  0  0  0  0  0  0  0  0  0  0  0
  -28.7813  -22.9230   15.6223 C   0  0  0  0  0  0  0  0  0  0  0  0
  -27.0175   -8.4574   19.0200 C   0  0  0  0  0  0  0  0  0  0  0  0
  -22.8065  -28.9012   22.3499 C   0  0  0  0  0  0  0  0  0  0  0  0
  -23.5180  -26.8517   20.1810 C   0  0  0  0  0  0  0  0  0  0  0  0
  -24.3797  -25.0591   17.4095 C   0  0  0  0  0  0  0  0  0  0  0  0
  -27.9921  -20.2577   18.8611 C   0  0  0  0  0  0  0  0  0  0  0  0
  -26.9227  -16.6848   19.0760 C   0  0  0  0  0  0  0  0  0  0  0  0
  -17.8454  -27.7083   22.4978 C   0  0  0  0  0  0  0  0  0  0  0  0
  -24.5266  -30.3507   21.2978 C   0  0  0  0  0  0  0  0  0  0  0  0
  -25.6939  -27.7855   21.1052 C   0  0  0  0  0  0  0  0  0  0  0  0
  -19.1516  -26.9306   22.3585 C   0  0  0  0  0  0  0  0  0  0  0  0
  -29.2626  -14.9361   21.2124 C   0  0  0  0  0  0  0  0  0  0  0  0
  -20.1487  -27.3660   23.4275 C   0  0  0  0  0  0  0  0  0  0  0  0
  -28.7350  -13.5024   21.1320 C   0  0  0  0  0  0  0  0  0  0  0  0
  -32.5539  -27.6355   19.3681 C   0  0  0  0  0  0  0  0  0  0  0  0
  -28.1190  -15.9461   21.2244 C   0  0  0  0  0  0  0  0  0  0  0  0
  -31.8311  -26.3538   19.7356 C   0  0  0  0  0  0  0  0  0  0  0  0
  -26.6528  -14.3970   19.9900 C   0  0  0  0  0  0  0  0  0  0  0  0
  -20.5001  -28.8515   23.2820 C   0  0  1  0  0  0  0  0  0  0  0  0
  -23.5890  -29.1472   21.0935 C   0  0  1  0  0  0  0  0  0  0  0  0
  -27.7611  -13.3292   19.9514 C   0  0  2  0  0  0  0  0  0  0  0  0
  -31.5166  -28.4277   18.5682 C   0  0  1  0  0  0  0  0  0  0  0  0
  -28.4201  -24.0368   14.6855 C   0  0  0  0  0  0  0  0  0  0  0  0
  -32.1769  -29.3443   17.5411 C   0  0  0  0  0  0  0  0  0  0  0  0
  -23.7431  -23.0054   16.1154 C   0  0  0  0  0  0  0  0  0  0  0  0
  -31.3267  -30.3870   20.1510 C   0  0  0  0  0  0  0  0  0  0  0  0
  -27.8998  -18.6007   16.9351 C   0  0  0  0  0  0  0  0  0  0  0  0
  -24.8549  -25.1084   22.2970 C   0  0  0  0  0  0  0  0  0  0  0  0
  -25.0448  -23.2951   20.5812 C   0  0  0  0  0  0  0  0  0  0  0  0
  -22.7960  -24.1194   21.2786 C   0  0  0  0  0  0  0  0  0  0  0  0
  -23.7565  -26.6385   14.9855 C   0  0  0  0  0  0  0  0  0  0  0  0
  -24.2597  -25.5867   19.8306 C   0  0  1  0  0  0  0  0  0  0  0  0
  -23.5459  -24.5056   16.2681 C   0  0  2  0  0  0  0  0  0  0  0  0
  -30.5904  -29.2337   19.4865 C   0  0  1  0  0  0  0  0  0  1  0  0
  -27.2881  -19.0073   18.2827 C   0  0  2  0  0  0  0  0  0  0  0  0
  -24.2501  -24.5531   20.9921 C   0  0  0  0  0  0  0  0  0  0  0  0
  -26.0280  -11.6672   20.5140 N   0  0  0  0  0  0  0  0  0  0  0  0
  -27.1923  -11.9235   19.8936 N   0  0  0  0  0  0  0  0  0  0  0  0
  -30.8949  -26.1432   18.6476 N   0  0  0  0  0  0  0  0  0  0  0  0
  -24.2585  -27.8701   20.7935 N   0  0  0  0  0  0  0  0  0  0  0  0
  -27.2397  -15.7390   20.0651 N   0  0  0  0  0  0  0  0  0  0  0  0
  -28.9006  -10.9219   18.5939 N   0  0  0  0  0  0  0  0  0  0  0  0
  -26.0295   -7.5172   19.3429 N   0  0  0  0  0  0  0  0  0  0  0  0
  -28.3258  -21.2092   17.8831 N   0  0  0  0  0  0  0  0  0  0  0  0
  -21.4404  -29.0447   22.1990 N   0  0  0  0  0  0  0  0  0  0  0  0
  -23.6683  -25.0970   18.5901 N   0  0  0  0  0  0  0  0  0  0  0  0
  -27.5143  -17.9333   19.2241 N   0  0  0  0  0  0  0  0  0  0  0  0
  -23.9236  -25.1623   14.9848 N   0  3  0  0  0  0  0  0  0  0  0  0
  -29.9978  -27.5150   16.9171 O   0  0  0  0  0  0  0  0  0  0  0  0
  -28.7042  -21.7698   15.1989 O   0  0  0  0  0  0  0  0  0  0  0  0
  -28.0120   -8.0960   18.3462 O   0  0  0  0  0  0  0  0  0  0  0  0
  -23.3974  -28.6015   23.3808 O   0  0  0  0  0  0  0  0  0  0  0  0
  -22.3136  -26.9354   19.9248 O   0  0  0  0  0  0  0  0  0  0  0  0
  -25.5467  -25.4181   17.2688 O   0  0  0  0  0  0  0  0  0  0  0  0
  -28.1836  -20.3825   20.0697 O   0  0  0  0  0  0  0  0  0  0  0  0
  -26.1716  -16.4336   18.1273 O   0  0  0  0  0  0  0  0  0  0  0  0
  -21.2809   -7.7911   22.2432 O   0  0  0  0  0  0  0  0  0  0  0  0
  -29.5179  -29.7492   18.6989 O   0  0  0  0  0  0  0  0  0  1  0  0
  -21.9489   -2.8386   24.5735 F   0  0  0  0  0  0  0  0  0  0  0  0
  -20.5704   -7.3565   24.8792 F   0  0  0  0  0  0  0  0  0  0  0  0
  1  2  1  0  0  0  0
  1  5  2  0  0  0  0
  2  6  2  0  0  0  0
  3 10  2  0  0  0  0
  3 18  1  0  0  0  0
  4 11  1  0  0  0  0
  4 18  2  0  0  0  0
  5 21  1  0  0  0  0
  6 23  1  0  0  0  0
  7 12  2  0  0  0  0
  7 22  1  0  0  0  0
  8  9  2  0  0  0  0
  8 25  1  0  0  0  0
  9 26  1  0  0  0  0
 10 27  1  0  0  0  0
 11 27  2  0  0  0  0
 12 28  1  0  0  0  0
 13 14  2  0  0  0  0
 13 29  1  0  0  0  0
 14 30  1  0  0  0  0
 15 19  1  0  0  0  0
 15 25  2  0  0  0  0
 16 24  1  0  0  0  0
 16 28  2  0  0  0  0
 17 30  2  0  0  0  0
 17 31  1  0  0  0  0
 18 32  1  0  0  0  0
 19 26  2  0  0  0  0
 19 37  1  0  0  0  0
 20 32  1  0  0  0  0
 20 33  2  0  0  0  0
 20 38  1  0  0  0  0
 21 23  2  0  0  0  0
 21 44  1  0  0  0  0
 22 24  2  0  0  0  0
 22 45  1  0  0  0  0
 23 55  1  0  0  0  0
 24 46  1  0  0  0  0
 25 75  1  0  0  0  0
 26 80  1  0  0  0  0
 27 93  1  0  0  0  0
 28 94  1  0  0  0  0
 29 31  2  0  0  0  0
 29 93  1  0  0  0  0
 30 95  1  0  0  0  0
 31 96  1  0  0  0  0
 32 73  2  0  0  0  0
 33 74  1  0  0  0  0
 33 78  1  0  0  0  0
 34 58  1  0  0  0  0
 34 75  1  0  0  0  0
 34 85  2  0  0  0  0
 35 36  2  0  0  0  0
 36 71  1  0  0  0  0
 37 59  1  0  0  0  0
 37 86  2  0  0  0  0
 38 79  1  0  0  0  0
 38 87  2  0  0  0  0
 39 56  1  0  0  0  0
 39 81  1  0  0  0  0
 39 88  2  0  0  0  0
 40 68  1  0  0  0  0
 40 76  1  0  0  0  0
 40 89  2  0  0  0  0
 41 69  1  0  0  0  0
 41 82  1  0  0  0  0
 41 90  2  0  0  0  0
 42 71  1  0  0  0  0
 42 80  1  0  0  0  0
 42 91  2  0  0  0  0
 43 77  1  0  0  0  0
 43 83  1  0  0  0  0
 43 92  2  0  0  0  0
 44 47  1  0  0  0  0
 45 56  1  0  0  0  0
 46 76  1  0  0  0  0
 47 49  1  0  0  0  0
 48 50  1  0  0  0  0
 48 52  1  0  0  0  0
 49 55  1  0  0  0  0
 50 57  1  0  0  0  0
 51 53  1  0  0  0  0
 51 58  1  0  0  0  0
 52 77  1  0  0  0  0
 53 75  1  0  0  0  0
 54 57  1  0  0  0  0
 54 77  1  0  0  0  0
 55 81  1  0  0  0  0
 56 76  1  0  0  0  0
 57 74  1  0  0  0  0
 58 60  1  0  0  0  0
 58 70  1  0  0  0  0
 61 69  1  0  0  0  0
 62 70  1  0  0  0  0
 63 71  1  0  0  0  0
 64 72  1  0  0  0  0
 65 72  1  0  0  0  0
 66 72  1  0  0  0  0
 67 84  1  0  0  0  0
 68 72  1  0  0  0  0
 68 82  1  0  0  0  0
 69 84  1  0  0  0  0
 70 94  1  0  0  0  0
 71 83  1  0  0  0  0
 73 74  1  0  0  0  0
M  CHG  1  84   1
M  ISO  4  43 100  70 101  83 100  94 101
M  END
> <Batch ID>
0075

> <Smiles>
C=CC(C)([100NH:0][100C:0](=O)N1CCCC(n2nc(-c3ccc(Oc4ccc(F)cc4F)cc3)c(C(N)=O)c2N)C1)C(=O)Nc1ccc(N2CCC(C)([101CH:1](C)[101O:1]c3ccc4c(c3)CN(C(=O)C(NC(=O)C(C)NC)C(C)(C)C)C(C(=O)NC3CCCc5ccccc53)C4)C2=O)cc1C(C)=O

> <Shape>
0.305

> <Color>
0.116

> <Negative vol penalty>
0.000

$$$$

  -OEChem-04042323473D

 84 92  0     1  0  0  0  0  0999 V2000
  -16.5444  -29.1220   23.3121 C   0  0  0  0  0  0  0  0  0  0  0  0
  -17.4297  -29.0496   22.2414 C   0  0  0  0  0  0  0  0  0  0  0  0
  -26.3724  -12.5386   21.7831 C   0  0  0  0  0  0  0  0  0  0  0  0
  -25.8923  -14.3926   20.3103 C   0  0  0  0  0  0  0  0  0  0  0  0
  -17.0312  -29.1239   24.6187 C   0  0  0  0  0  0  0  0  0  0  0  0
  -18.8024  -28.9803   22.4766 C   0  0  0  0  0  0  0  0  0  0  0  0
  -24.7953  -26.1457   19.7624 C   0  0  0  0  0  0  0  0  0  0  0  0
  -25.0252  -12.1778   21.7683 C   0  0  0  0  0  0  0  0  0  0  0  0
  -24.5449  -14.0318   20.2954 C   0  0  0  0  0  0  0  0  0  0  0  0
  -26.0795  -26.5175   19.3670 C   0  0  0  0  0  0  0  0  0  0  0  0
  -22.9020  -10.5618   19.6914 C   0  0  0  0  0  0  0  0  0  0  0  0
  -22.5942   -9.2119   19.5226 C   0  0  0  0  0  0  0  0  0  0  0  0
  -26.8015  -26.4481   21.6677 C   0  0  0  0  0  0  0  0  0  0  0  0
  -21.4645   -9.2023   21.6581 C   0  0  0  0  0  0  0  0  0  0  0  0
  -31.5076  -22.2271   22.4838 C   0  0  0  0  0  0  0  0  0  0  0  0
  -26.8060  -13.6460   21.0542 C   0  0  0  0  0  0  0  0  0  0  0  0
  -29.2051  -13.5815   20.1894 C   0  0  0  0  0  0  0  0  0  0  0  0
  -18.4100  -29.0448   24.8702 C   0  0  0  0  0  0  0  0  0  0  0  0
  -24.5013  -25.9326   21.1169 C   0  0  0  0  0  0  0  0  0  0  0  0
  -19.3081  -28.9825   23.7876 C   0  0  0  0  0  0  0  0  0  0  0  0
  -25.5134  -26.0712   22.0774 C   0  0  0  0  0  0  0  0  0  0  0  0
  -24.1114  -12.9244   21.0244 C   0  0  0  0  0  0  0  0  0  0  0  0
  -27.0821  -26.6716   20.3200 C   0  0  0  0  0  0  0  0  0  0  0  0
  -22.4911  -11.2320   20.8437 C   0  0  0  0  0  0  0  0  0  0  0  0
  -21.8755   -8.5321   20.5059 C   0  0  0  0  0  0  0  0  0  0  0  0
  -21.7723  -10.5523   21.8270 C   0  0  0  0  0  0  0  0  0  0  0  0
  -31.3480  -23.3794   21.6610 C   0  0  0  0  0  0  0  0  0  0  0  0
  -28.1975  -14.0196   21.0696 C   0  0  0  0  0  0  0  0  0  0  0  0
  -30.5240  -23.1363   20.5843 C   0  0  0  0  0  0  0  0  0  0  0  0
  -30.3410  -14.2208   20.6224 C   0  0  0  0  0  0  0  0  0  0  0  0
  -30.7992  -21.1471   22.0045 C   0  0  0  0  0  0  0  0  0  0  0  0
  -29.1217  -12.6777   19.0796 C   0  0  0  0  0  0  0  0  0  0  0  0
  -30.1073  -24.0640   19.5013 C   0  0  0  0  0  0  0  0  0  0  0  0
  -22.5360  -27.2749   23.2239 C   0  0  0  0  0  0  0  0  0  0  0  0
  -23.5551  -24.8560   25.1298 C   0  0  0  0  0  0  0  0  0  0  0  0
  -25.9749  -22.5610   25.8541 C   0  0  0  0  0  0  0  0  0  0  0  0
  -31.2715  -19.2922   23.6424 C   0  0  0  0  0  0  0  0  0  0  0  0
  -18.8916  -29.0978   26.2984 C   0  0  0  0  0  0  0  0  0  0  0  0
  -23.1177  -25.5060   21.5243 C   0  0  0  0  0  0  0  0  0  0  0  0
  -25.2544  -25.8343   23.5421 C   0  0  0  0  0  0  0  0  0  0  0  0
  -20.3388  -28.6437   26.4705 C   0  0  0  0  0  0  0  0  0  0  0  0
  -32.3432  -16.0287   24.5793 C   0  0  0  0  0  0  0  0  0  0  0  0
  -21.2307  -29.2924   25.4166 C   0  0  0  0  0  0  0  0  0  0  0  0
  -31.4978  -15.1034   23.7011 C   0  0  0  0  0  0  0  0  0  0  0  0
  -31.5540  -17.2543   25.0361 C   0  0  0  0  0  0  0  0  0  0  0  0
  -30.0660  -17.0910   23.0795 C   0  0  0  0  0  0  0  0  0  0  0  0
  -20.8026  -28.8811   24.0027 C   0  0  1  0  0  0  0  0  0  0  0  0
  -22.8026  -25.8157   22.9845 C   0  0  1  0  0  0  0  0  0  0  0  0
  -30.8377  -15.8750   22.5416 C   0  0  2  0  0  0  0  0  0  0  0  0
  -26.5430  -20.7482   27.4938 C   0  0  0  0  0  0  0  0  0  0  0  0
  -24.2830  -26.9677   27.2085 C   0  0  0  0  0  0  0  0  0  0  0  0
  -25.6773  -25.2431   28.3704 C   0  0  0  0  0  0  0  0  0  0  0  0
  -23.2158  -24.9081   28.1432 C   0  0  0  0  0  0  0  0  0  0  0  0
  -31.0079  -27.6719   18.9985 C   0  0  0  0  0  0  0  0  0  0  0  0
  -30.7447  -25.9168   17.2278 C   0  0  0  0  0  0  0  0  0  0  0  0
  -26.0398  -20.5005   23.7306 C   0  0  0  0  0  0  0  0  0  0  0  0
  -28.7628  -26.6257   18.6380 C   0  0  0  0  0  0  0  0  0  1  0  0
  -24.6925  -24.6698   26.1049 C   0  0  1  0  0  0  0  0  0  0  0  0
  -25.8960  -21.0756   26.1570 C   0  0  2  0  0  0  0  0  0  0  0  0
  -24.4719  -25.4536   27.4294 C   0  0  0  0  0  0  0  0  0  0  0  0
  -30.2813  -26.3754   18.6164 C   0  0  0  0  0  0  0  0  0  0  0  0
  -28.6532  -14.8712   21.9922 N   0  0  0  0  0  0  0  0  0  0  0  0
  -29.9597  -14.9733   21.6941 N   0  0  0  0  0  0  0  0  0  0  0  0
  -23.8840  -25.4249   23.8913 N   0  0  0  0  0  0  0  0  0  0  0  0
  -30.9612  -17.9372   23.8841 N   0  0  0  0  0  0  0  0  0  0  0  0
  -31.6188  -14.2070   20.1873 N   0  0  0  0  0  0  0  0  0  0  0  0
  -27.8776  -12.1102   18.7721 N   0  0  0  0  0  0  0  0  0  0  0  0
  -30.6750  -19.8255   22.5003 N   0  0  0  0  0  0  0  0  0  0  0  0
  -30.6158  -25.3455   19.5861 N   0  0  0  0  0  0  0  0  0  0  0  0
  -21.2680  -27.5439   23.7027 N   0  0  0  0  0  0  0  0  0  0  0  0
  -24.8473  -23.2299   26.2813 N   0  0  0  0  0  0  0  0  0  0  0  0
  -26.5893  -20.2929   25.0951 N   0  3  0  0  0  0  0  0  0  0  0  0
  -30.1241  -12.3693   18.3914 O   0  0  0  0  0  0  0  0  0  0  0  0
  -29.3419  -23.6625   18.6287 O   0  0  0  0  0  0  0  0  0  0  0  0
  -23.4160  -28.0958   22.9928 O   0  0  0  0  0  0  0  0  0  0  0  0
  -22.4181  -24.5029   25.4524 O   0  0  0  0  0  0  0  0  0  0  0  0
  -26.9418  -23.0770   25.2979 O   0  0  0  0  0  0  0  0  0  0  0  0
  -32.0335  -19.9247   24.3782 O   0  0  0  0  0  0  0  0  0  0  0  0
  -22.7967  -12.5725   21.0095 O   0  0  0  0  0  0  0  0  0  0  0  0
  -28.3363  -27.0350   19.9368 O   0  0  0  0  0  0  0  0  0  1  0  0
  -21.5787   -7.2361   20.3429 F   0  0  0  0  0  0  0  0  0  0  0  0
  -21.3738  -11.1911   22.9356 F   0  0  0  0  0  0  0  0  0  0  0  0
  -31.9311  -24.5536   21.9097 F   0  0  0  0  0  0  0  0  0  0  0  0
  -29.9465  -21.5242   20.5682 S   0  0  0  0  0  0  0  0  0  0  0  0
  1  2  1  0  0  0  0
  1  5  2  0  0  0  0
  2  6  2  0  0  0  0
  3  8  2  0  0  0  0
  3 16  1  0  0  0  0
  4  9  1  0  0  0  0
  4 16  2  0  0  0  0
  5 18  1  0  0  0  0
  6 20  1  0  0  0  0
  7 10  2  0  0  0  0
  7 19  1  0  0  0  0
  8 22  1  0  0  0  0
  9 22  2  0  0  0  0
 10 23  1  0  0  0  0
 11 12  2  0  0  0  0
 11 24  1  0  0  0  0
 12 25  1  0  0  0  0
 13 21  1  0  0  0  0
 13 23  2  0  0  0  0
 14 25  2  0  0  0  0
 14 26  1  0  0  0  0
 15 27  1  0  0  0  0
 15 31  2  0  0  0  0
 16 28  1  0  0  0  0
 17 28  1  0  0  0  0
 17 30  2  0  0  0  0
 17 32  1  0  0  0  0
 18 20  2  0  0  0  0
 18 38  1  0  0  0  0
 19 21  2  0  0  0  0
 19 39  1  0  0  0  0
 20 47  1  0  0  0  0
 21 40  1  0  0  0  0
 22 79  1  0  0  0  0
 23 80  1  0  0  0  0
 24 26  2  0  0  0  0
 24 79  1  0  0  0  0
 25 81  1  0  0  0  0
 26 82  1  0  0  0  0
 27 29  2  0  0  0  0
 27 83  1  0  0  0  0
 28 62  2  0  0  0  0
 29 33  1  0  0  0  0
 29 84  1  0  0  0  0
 30 63  1  0  0  0  0
 30 66  1  0  0  0  0
 31 68  1  0  0  0  0
 31 84  1  0  0  0  0
 32 67  1  0  0  0  0
 32 73  2  0  0  0  0
 33 69  1  0  0  0  0
 33 74  2  0  0  0  0
 34 48  1  0  0  0  0
 34 70  1  0  0  0  0
 34 75  2  0  0  0  0
 35 58  1  0  0  0  0
 35 64  1  0  0  0  0
 35 76  2  0  0  0  0
 36 59  1  0  0  0  0
 36 71  1  0  0  0  0
 36 77  2  0  0  0  0
 37 65  1  0  0  0  0
 37 68  1  0  0  0  0
 37 78  2  0  0  0  0
 38 41  1  0  0  0  0
 39 48  1  0  0  0  0
 40 64  1  0  0  0  0
 41 43  1  0  0  0  0
 42 44  1  0  0  0  0
 42 45  1  0  0  0  0
 43 47  1  0  0  0  0
 44 49  1  0  0  0  0
 45 65  1  0  0  0  0
 46 49  1  0  0  0  0
 46 65  1  0  0  0  0
 47 70  1  0  0  0  0
 48 64  1  0  0  0  0
 49 63  1  0  0  0  0
 50 59  1  0  0  0  0
 51 60  1  0  0  0  0
 52 60  1  0  0  0  0
 53 60  1  0  0  0  0
 54 61  1  0  0  0  0
 55 61  1  0  0  0  0
 56 72  1  0  0  0  0
 57 61  1  0  0  0  0
 57 80  1  0  0  0  0
 58 60  1  0  0  0  0
 58 71  1  0  0  0  0
 59 72  1  0  0  0  0
 61 69  1  0  0  0  0
 62 63  1  0  0  0  0
M  CHG  1  72   1
M  ISO  4  37 100  57 101  68 100  80 101
M  END
> <Batch ID>
0075

> <Smiles>
CNC(C)C(=O)NC(C(=O)N1Cc2cc([101O:1][101CH2:1]C(C)(C)NC(=O)c3sc([100NH:0][100C:0](=O)N4CCCC(n5nc(-c6ccc(Oc7ccc(F)cc7F)cc6)c(C(N)=O)c5N)C4)cc3F)ccc2CC1C(=O)NC1CCCc2ccccc21)C(C)(C)C

> <Shape>
0.241

> <Color>
0.084

> <Negative vol penalty>
0.000

$$$$

  -OEChem-04042323473D

 86 95  0     1  0  0  0  0  0999 V2000
  -28.4812  -37.2027   21.2113 C   0  0  0  0  0  0  0  0  0  0  0  0
  -28.8219  -35.9128   20.8169 C   0  0  0  0  0  0  0  0  0  0  0  0
  -24.2950   -9.1012   20.3101 C   0  0  0  0  0  0  0  0  0  0  0  0
  -23.0258  -10.9474   21.2145 C   0  0  0  0  0  0  0  0  0  0  0  0
  -27.5859  -37.3954   22.2626 C   0  0  0  0  0  0  0  0  0  0  0  0
  -28.2682  -34.8148   21.4744 C   0  0  0  0  0  0  0  0  0  0  0  0
  -26.7559  -29.4207   19.0002 C   0  0  0  0  0  0  0  0  0  0  0  0
  -23.2643   -8.2255   20.6513 C   0  0  0  0  0  0  0  0  0  0  0  0
  -21.9951  -10.0717   21.5556 C   0  0  0  0  0  0  0  0  0  0  0  0
  -27.4123  -28.1914   18.9572 C   0  0  0  0  0  0  0  0  0  0  0  0
  -20.2424   -7.3360   19.4227 C   0  0  0  0  0  0  0  0  0  0  0  0
  -19.8523   -6.3924   18.4724 C   0  0  0  0  0  0  0  0  0  0  0  0
  -26.1518  -27.4578   20.8787 C   0  0  0  0  0  0  0  0  0  0  0  0
  -29.1454  -20.3023   19.9578 C   0  0  0  0  0  0  0  0  0  0  0  0
  -29.3062  -20.3795   22.3672 C   0  0  0  0  0  0  0  0  0  0  0  0
  -20.4216   -4.6136   20.0050 C   0  0  0  0  0  0  0  0  0  0  0  0
  -24.1758  -10.4622   20.5918 C   0  0  0  0  0  0  0  0  0  0  0  0
  -25.3955  -12.0675   19.0288 C   0  0  0  0  0  0  0  0  0  0  0  0
  -27.0135  -36.2992   22.9270 C   0  0  0  0  0  0  0  0  0  0  0  0
  -25.7987  -29.6821   19.9911 C   0  0  0  0  0  0  0  0  0  0  0  0
  -27.3654  -34.9931   22.5364 C   0  0  0  0  0  0  0  0  0  0  0  0
  -25.4828  -28.6903   20.9305 C   0  0  0  0  0  0  0  0  0  0  0  0
  -29.2209  -21.0380   21.1405 C   0  0  0  0  0  0  0  0  0  0  0  0
  -29.1550  -18.9082   20.0018 C   0  0  0  0  0  0  0  0  0  0  0  0
  -29.2403  -18.2497   21.2285 C   0  0  0  0  0  0  0  0  0  0  0  0
  -22.1144   -8.7107   21.2740 C   0  0  0  0  0  0  0  0  0  0  0  0
  -27.1124  -27.2108   19.8983 C   0  0  0  0  0  0  0  0  0  0  0  0
  -20.7222   -6.9184   20.6642 C   0  0  0  0  0  0  0  0  0  0  0  0
  -19.9419   -5.0312   18.7636 C   0  0  0  0  0  0  0  0  0  0  0  0
  -29.3158  -18.9853   22.4112 C   0  0  0  0  0  0  0  0  0  0  0  0
  -20.8117   -5.5573   20.9553 C   0  0  0  0  0  0  0  0  0  0  0  0
  -25.2404  -11.3672   20.2401 C   0  0  0  0  0  0  0  0  0  0  0  0
  -26.5549  -12.7852   19.1931 C   0  0  0  0  0  0  0  0  0  0  0  0
  -29.2717  -23.3568   22.0725 C   0  0  0  0  0  0  0  0  0  0  0  0
  -24.5657  -12.0691   17.8595 C   0  0  0  0  0  0  0  0  0  0  0  0
  -25.5393  -31.7857   22.3599 C   0  0  0  0  0  0  0  0  0  0  0  0
  -22.5876  -30.4783   22.6767 C   0  0  0  0  0  0  0  0  0  0  0  0
  -20.5355  -27.7994   22.1671 C   0  0  0  0  0  0  0  0  0  0  0  0
  -29.8765  -16.0393   22.2560 C   0  0  0  0  0  0  0  0  0  0  0  0
  -26.0870  -36.5574   24.0887 C   0  0  0  0  0  0  0  0  0  0  0  0
  -25.0802  -31.0034   20.0076 C   0  0  0  0  0  0  0  0  0  0  0  0
  -24.4484  -28.9137   22.0023 C   0  0  0  0  0  0  0  0  0  0  0  0
  -25.2566  -35.3402   24.4877 C   0  0  0  0  0  0  0  0  0  0  0  0
  -30.1072  -12.5266   22.7898 C   0  0  0  0  0  0  0  0  0  0  0  0
  -26.1368  -34.0971   24.5696 C   0  0  0  0  0  0  0  0  0  0  0  0
  -28.8743  -11.9694   22.0744 C   0  0  0  0  0  0  0  0  0  0  0  0
  -29.8155  -13.8673   23.4616 C   0  0  0  0  0  0  0  0  0  0  0  0
  -27.9945  -14.3296   21.8681 C   0  0  0  0  0  0  0  0  0  0  0  0
  -29.1326  -23.3346   19.9703 C   0  0  0  0  0  0  0  0  0  0  0  0
  -26.7668  -33.7766   23.2087 C   0  0  1  0  0  0  0  0  0  0  0  0
  -24.4940  -31.3478   21.3733 C   0  0  1  0  0  0  0  0  0  0  0  0
  -28.2569  -13.0115   21.1214 C   0  0  2  0  0  0  0  0  0  0  0  0
  -29.1965  -24.4923   21.0114 C   0  0  2  0  0  0  0  0  0  0  0  0
  -30.4559  -25.3483   20.9337 C   0  0  0  0  0  0  0  0  0  0  0  0
  -18.1864  -27.0131   22.5681 C   0  0  0  0  0  0  0  0  0  0  0  0
  -23.2520  -29.9999   25.6160 C   0  0  0  0  0  0  0  0  0  0  0  0
  -21.3244  -28.4055   25.7202 C   0  0  0  0  0  0  0  0  0  0  0  0
  -20.9245  -30.8102   25.1911 C   0  0  0  0  0  0  0  0  0  0  0  0
  -20.0186  -27.4971   19.2688 C   0  0  0  0  0  0  0  0  0  0  0  0
  -27.9370  -25.3320   21.1007 C   0  0  0  0  0  0  0  0  0  1  0  0
  -22.0081  -29.3233   23.4571 C   0  0  1  0  0  0  0  0  0  0  0  0
  -19.1328  -27.6995   21.5954 C   0  0  2  0  0  0  0  0  0  0  0  0
  -21.8982  -29.6309   24.9772 C   0  0  0  0  0  0  0  0  0  0  0  0
  -26.2228  -11.6173   21.1097 N   0  0  0  0  0  0  0  0  0  0  0  0
  -27.0064  -12.4827   20.4440 N   0  0  0  0  0  0  0  0  0  0  0  0
  -29.2112  -22.4126   21.0978 N   0  0  0  0  0  0  0  0  0  0  0  0
  -23.7778  -30.2242   21.9806 N   0  0  0  0  0  0  0  0  0  0  0  0
  -29.2365  -14.8052   22.4974 N   0  0  0  0  0  0  0  0  0  0  0  0
  -29.0774  -18.1827   18.7916 N   0  0  0  0  0  0  0  0  0  0  0  0
  -27.2222  -13.6391   18.3881 N   0  0  0  0  0  0  0  0  0  0  0  0
  -23.4110  -11.2747   17.8586 N   0  0  0  0  0  0  0  0  0  0  0  0
  -29.2522  -16.8343   21.2954 N   0  0  0  0  0  0  0  0  0  0  0  0
  -25.7981  -33.1430   22.3400 N   0  0  0  0  0  0  0  0  0  0  0  0
  -20.7368  -28.9971   22.8200 N   0  0  0  0  0  0  0  0  0  0  0  0
  -19.1458  -26.9217   20.3243 N   0  3  0  0  0  0  0  0  0  0  0  0
  -29.3521  -23.2916   23.2780 O   0  0  0  0  0  0  0  0  0  0  0  0
  -24.8487  -12.7420   16.8394 O   0  0  0  0  0  0  0  0  0  0  0  0
  -26.0704  -30.9541   23.0865 O   0  0  0  0  0  0  0  0  0  0  0  0
  -22.0018  -31.5639   22.6787 O   0  0  0  0  0  0  0  0  0  0  0  0
  -21.3681  -26.9031   22.0497 O   0  0  0  0  0  0  0  0  0  0  0  0
  -30.9178  -16.3549   22.8373 O   0  0  0  0  0  0  0  0  0  0  0  0
  -21.1083   -7.8565   21.6068 O   0  0  0  0  0  0  0  0  0  0  0  0
  -27.7521  -26.0104   19.8589 O   0  0  0  0  0  0  0  0  0  1  0  0
  -19.5658   -4.1252   17.8515 F   0  0  0  0  0  0  0  0  0  0  0  0
  -29.3984  -18.3638   23.5963 F   0  0  0  0  0  0  0  0  0  0  0  0
  -21.2708   -5.1500   22.1467 F   0  0  0  0  0  0  0  0  0  0  0  0
  1  2  1  0  0  0  0
  1  5  2  0  0  0  0
  2  6  2  0  0  0  0
  3  8  2  0  0  0  0
  3 17  1  0  0  0  0
  4  9  1  0  0  0  0
  4 17  2  0  0  0  0
  5 19  1  0  0  0  0
  6 21  1  0  0  0  0
  7 10  2  0  0  0  0
  7 20  1  0  0  0  0
  8 26  1  0  0  0  0
  9 26  2  0  0  0  0
 10 27  1  0  0  0  0
 11 12  2  0  0  0  0
 11 28  1  0  0  0  0
 12 29  1  0  0  0  0
 13 22  1  0  0  0  0
 13 27  2  0  0  0  0
 14 23  1  0  0  0  0
 14 24  2  0  0  0  0
 15 23  2  0  0  0  0
 15 30  1  0  0  0  0
 16 29  2  0  0  0  0
 16 31  1  0  0  0  0
 17 32  1  0  0  0  0
 18 32  1  0  0  0  0
 18 33  2  0  0  0  0
 18 35  1  0  0  0  0
 19 21  2  0  0  0  0
 19 40  1  0  0  0  0
 20 22  2  0  0  0  0
 20 41  1  0  0  0  0
 21 50  1  0  0  0  0
 22 42  1  0  0  0  0
 23 66  1  0  0  0  0
 24 25  1  0  0  0  0
 24 69  1  0  0  0  0
 25 30  2  0  0  0  0
 25 72  1  0  0  0  0
 26 82  1  0  0  0  0
 27 83  1  0  0  0  0
 28 31  2  0  0  0  0
 28 82  1  0  0  0  0
 29 84  1  0  0  0  0
 30 85  1  0  0  0  0
 31 86  1  0  0  0  0
 32 64  2  0  0  0  0
 33 65  1  0  0  0  0
 33 70  1  0  0  0  0
 34 53  1  0  0  0  0
 34 66  1  0  0  0  0
 34 76  2  0  0  0  0
 35 71  1  0  0  0  0
 35 77  2  0  0  0  0
 36 51  1  0  0  0  0
 36 73  1  0  0  0  0
 36 78  2  0  0  0  0
 37 61  1  0  0  0  0
 37 67  1  0  0  0  0
 37 79  2  0  0  0  0
 38 62  1  0  0  0  0
 38 74  1  0  0  0  0
 38 80  2  0  0  0  0
 39 68  1  0  0  0  0
 39 72  1  0  0  0  0
 39 81  2  0  0  0  0
 40 43  1  0  0  0  0
 41 51  1  0  0  0  0
 42 67  1  0  0  0  0
 43 45  1  0  0  0  0
 44 46  1  0  0  0  0
 44 47  1  0  0  0  0
 45 50  1  0  0  0  0
 46 52  1  0  0  0  0
 47 68  1  0  0  0  0
 48 52  1  0  0  0  0
 48 68  1  0  0  0  0
 49 53  1  0  0  0  0
 49 66  1  0  0  0  0
 50 73  1  0  0  0  0
 51 67  1  0  0  0  0
 52 65  1  0  0  0  0
 53 54  1  0  0  0  0
 53 60  1  0  0  0  0
 55 62  1  0  0  0  0
 56 63  1  0  0  0  0
 57 63  1  0  0  0  0
 58 63  1  0  0  0  0
 59 75  1  0  0  0  0
 60 83  1  0  0  0  0
 61 63  1  0  0  0  0
 61 74  1  0  0  0  0
 62 75  1  0  0  0  0
 64 65  1  0  0  0  0
M  CHG  1  75   1
M  ISO  4  39 100  60 101  72 100  83 101
M  END
> <Batch ID>
0075

> <Smiles>
CNC(C)C(=O)NC(C(=O)N1Cc2cc([101O:1][101CH2:1]C3(C)CN(c4cc(N)c([100NH:0][100C:0](=O)N5CCCC(n6nc(-c7ccc(Oc8ccc(F)cc8F)cc7)c(C(N)=O)c6N)C5)c(F)c4)C3=O)ccc2CC1C(=O)NC1CCCc2ccccc21)C(C)(C)C

> <Shape>
0.330

> <Color>
0.088

> <Negative vol penalty>
0.000

$$$$

  -OEChem-04042323473D

 89 98  0     1  0  0  0  0  0999 V2000
  -28.0259  -10.8958   19.4954 C   0  0  0  0  0  0  0  0  0  0  0  0
  -28.5032  -12.1431   19.1058 C   0  0  0  0  0  0  0  0  0  0  0  0
  -21.9004  -24.6617   19.1801 C   0  0  0  0  0  0  0  0  0  0  0  0
  -22.8256  -23.9195   21.2849 C   0  0  0  0  0  0  0  0  0  0  0  0
  -28.8181  -27.4401   22.8829 C   0  0  0  0  0  0  0  0  0  0  0  0
  -26.7370  -10.7745   20.0131 C   0  0  0  0  0  0  0  0  0  0  0  0
  -27.6915  -13.2698   19.2327 C   0  0  0  0  0  0  0  0  0  0  0  0
  -29.4832  -18.9618   20.6096 C   0  0  0  0  0  0  0  0  0  0  0  0
  -28.9819  -26.7177   21.7010 C   0  0  0  0  0  0  0  0  0  0  0  0
  -21.9569  -23.3553   18.6946 C   0  0  0  0  0  0  0  0  0  0  0  0
  -22.8821  -22.6131   20.7994 C   0  0  0  0  0  0  0  0  0  0  0  0
  -29.7354  -20.0827   19.8197 C   0  0  0  0  0  0  0  0  0  0  0  0
  -24.2971  -21.2634   17.4408 C   0  0  0  0  0  0  0  0  0  0  0  0
  -24.7960  -21.0727   16.1523 C   0  0  0  0  0  0  0  0  0  0  0  0
  -27.4984  -20.8787   20.2457 C   0  0  0  0  0  0  0  0  0  0  0  0
  -30.7876  -28.1865   21.0535 C   0  0  0  0  0  0  0  0  0  0  0  0
  -22.6942  -20.0858   15.4847 C   0  0  0  0  0  0  0  0  0  0  0  0
  -22.3348  -24.9438   20.4752 C   0  0  0  0  0  0  0  0  0  0  0  0
  -29.6391  -28.5358   23.1501 C   0  0  0  0  0  0  0  0  0  0  0  0
  -21.2076  -26.9007   21.6617 C   0  0  0  0  0  0  0  0  0  0  0  0
  -25.9125  -11.9018   20.1554 C   0  0  0  0  0  0  0  0  0  0  0  0
  -28.2310  -18.7853   21.2155 C   0  0  0  0  0  0  0  0  0  0  0  0
  -26.3899  -13.1633   19.7515 C   0  0  0  0  0  0  0  0  0  0  0  0
  -27.2337  -19.7560   21.0448 C   0  0  0  0  0  0  0  0  0  0  0  0
  -29.9666  -27.0909   20.7863 C   0  0  0  0  0  0  0  0  0  0  0  0
  -30.6238  -28.9089   22.2354 C   0  0  0  0  0  0  0  0  0  0  0  0
  -22.4477  -22.3310   19.5042 C   0  0  0  0  0  0  0  0  0  0  0  0
  -28.7420  -21.0399   19.6353 C   0  0  0  0  0  0  0  0  0  0  0  0
  -22.9968  -20.8653   17.7513 C   0  0  0  0  0  0  0  0  0  0  0  0
  -23.9945  -20.4839   15.1742 C   0  0  0  0  0  0  0  0  0  0  0  0
  -22.1953  -20.2765   16.7733 C   0  0  0  0  0  0  0  0  0  0  0  0
  -22.2773  -26.2932   20.9771 C   0  0  0  0  0  0  0  0  0  0  0  0
  -21.6456  -28.1766   21.9200 C   0  0  0  0  0  0  0  0  0  0  0  0
  -30.9278  -24.6156   17.4768 C   0  0  0  0  0  0  0  0  0  0  0  0
  -30.3421  -24.0851   18.5551 C   0  0  0  0  0  0  0  0  0  0  0  0
  -30.6061  -26.9658   18.3950 C   0  0  0  0  0  0  0  0  0  0  0  0
  -29.4426  -29.2694   24.3942 C   0  0  0  0  0  0  0  0  0  0  0  0
  -19.9322  -26.3599   22.0312 C   0  0  0  0  0  0  0  0  0  0  0  0
  -25.9253  -16.6072   21.0070 C   0  0  0  0  0  0  0  0  0  0  0  0
  -24.6314  -18.3100   23.4460 C   0  0  0  0  0  0  0  0  0  0  0  0
  -24.4085  -21.2844   25.1044 C   0  0  0  0  0  0  0  0  0  0  0  0
  -27.1010  -30.5772   22.4922 C   0  0  0  0  0  0  0  0  0  0  0  0
  -24.5096  -11.7140   20.6761 C   0  0  0  0  0  0  0  0  0  0  0  0
  -27.9837  -17.5840   22.0863 C   0  0  0  0  0  0  0  0  0  0  0  0
  -25.8793  -19.6234   21.6901 C   0  0  0  0  0  0  0  0  0  0  0  0
  -30.8958  -26.0721   17.1986 C   0  0  0  0  0  0  0  0  0  0  0  0
  -29.6311  -24.9554   19.5434 C   0  0  0  0  0  0  0  0  0  0  0  0
  -23.8481  -13.0138   21.1270 C   0  0  0  0  0  0  0  0  0  0  0  0
  -24.5616  -31.5553   20.1962 C   0  0  0  0  0  0  0  0  0  0  0  0
  -24.0573  -14.1085   20.0855 C   0  0  0  0  0  0  0  0  0  0  0  0
  -23.5917  -30.3725   20.1977 C   0  0  0  0  0  0  0  0  0  0  0  0
  -26.0120  -31.0961   20.3285 C   0  0  0  0  0  0  0  0  0  0  0  0
  -25.3109  -29.0355   21.4845 C   0  0  0  0  0  0  0  0  0  0  0  0
  -25.5484  -14.4127   19.8967 C   0  0  1  0  0  0  0  0  0  0  0  0
  -26.5028  -17.2496   22.2365 C   0  0  1  0  0  0  0  0  0  0  0  0
  -23.8320  -29.4519   21.4094 C   0  0  2  0  0  0  0  0  0  0  0  0
  -23.2402  -22.3799   27.0364 C   0  0  0  0  0  0  0  0  0  0  0  0
  -22.0804  -18.5141   21.7845 C   0  0  0  0  0  0  0  0  0  0  0  0
  -21.3277  -20.3635   23.2950 C   0  0  0  0  0  0  0  0  0  0  0  0
  -21.7079  -18.0777   24.2187 C   0  0  0  0  0  0  0  0  0  0  0  0
  -26.9652  -21.8275   26.4927 C   0  0  0  0  0  0  0  0  0  0  0  0
  -30.3302  -22.6089   18.8159 C   0  0  0  0  0  0  0  0  0  1  0  0
  -28.0902  -29.9303   24.6744 C   0  0  0  0  0  0  0  0  0  0  0  0
  -23.6948  -19.4896   23.5475 C   0  0  1  0  0  0  0  0  0  0  0  0
  -24.4776  -21.6209   26.5831 C   0  0  2  0  0  0  0  0  0  0  0  0
  -22.2275  -19.1131   23.1975 C   0  0  0  0  0  0  0  0  0  0  0  0
  -23.3165  -27.1156   20.8108 N   0  0  0  0  0  0  0  0  0  0  0  0
  -22.9019  -28.2529   21.3946 N   0  0  0  0  0  0  0  0  0  0  0  0
  -30.1359  -26.3407   19.5599 N   0  0  0  0  0  0  0  0  0  0  0  0
  -25.6838  -18.4282   22.5272 N   0  0  0  0  0  0  0  0  0  0  0  0
  -26.1725  -30.2281   21.4976 N   0  0  0  0  0  0  0  0  0  0  0  0
  -31.4644  -30.0162   22.4863 N   0  0  0  0  0  0  0  0  0  0  0  0
  -21.0749  -29.2294   22.5430 N   0  0  0  0  0  0  0  0  0  0  0  0
  -19.6449  -25.0317   21.6883 N   0  0  0  0  0  0  0  0  0  0  0  0
  -26.0392  -15.2303   20.9854 N   0  0  0  0  0  0  0  0  0  0  0  0
  -23.8681  -20.0341   24.8899 N   0  0  0  0  0  0  0  0  0  0  0  0
  -27.1858  -29.7034   23.5692 N   0  0  0  0  0  0  0  0  0  0  0  0
  -25.6750  -22.4614   26.8676 N   0  3  0  0  0  0  0  0  0  0  0  0
  -30.7733  -28.1809   18.2527 O   0  0  0  0  0  0  0  0  0  0  0  0
  -30.3533  -29.3296   25.2405 O   0  0  0  0  0  0  0  0  0  0  0  0
  -19.0664  -27.0397   22.6327 O   0  0  0  0  0  0  0  0  0  0  0  0
  -25.4128  -17.3088   20.1428 O   0  0  0  0  0  0  0  0  0  0  0  0
  -24.4406  -17.3231   24.1610 O   0  0  0  0  0  0  0  0  0  0  0  0
  -24.7918  -22.0552   24.2272 O   0  0  0  0  0  0  0  0  0  0  0  0
  -27.7986  -31.5951   22.4278 O   0  0  0  0  0  0  0  0  0  0  0  0
  -22.5027  -21.0560   19.0309 O   0  0  0  0  0  0  0  0  0  0  0  0
  -28.9853  -22.1346   18.8644 O   0  0  0  0  0  0  0  0  0  1  0  0
  -24.4732  -20.3023   13.9364 F   0  0  0  0  0  0  0  0  0  0  0  0
  -20.9449  -19.8931   17.0653 F   0  0  0  0  0  0  0  0  0  0  0  0
  1  2  1  0  0  0  0
  1  6  2  0  0  0  0
  2  7  2  0  0  0  0
  3 10  2  0  0  0  0
  3 18  1  0  0  0  0
  4 11  1  0  0  0  0
  4 18  2  0  0  0  0
  5  9  2  0  0  0  0
  5 19  1  0  0  0  0
  6 21  1  0  0  0  0
  7 23  1  0  0  0  0
  8 12  2  0  0  0  0
  8 22  1  0  0  0  0
  9 25  1  0  0  0  0
 10 27  1  0  0  0  0
 11 27  2  0  0  0  0
 12 28  1  0  0  0  0
 13 14  2  0  0  0  0
 13 29  1  0  0  0  0
 14 30  1  0  0  0  0
 15 24  1  0  0  0  0
 15 28  2  0  0  0  0
 16 25  2  0  0  0  0
 16 26  1  0  0  0  0
 17 30  2  0  0  0  0
 17 31  1  0  0  0  0
 18 32  1  0  0  0  0
 19 26  2  0  0  0  0
 19 37  1  0  0  0  0
 20 32  1  0  0  0  0
 20 33  2  0  0  0  0
 20 38  1  0  0  0  0
 21 23  2  0  0  0  0
 21 43  1  0  0  0  0
 22 24  2  0  0  0  0
 22 44  1  0  0  0  0
 23 54  1  0  0  0  0
 24 45  1  0  0  0  0
 25 69  1  0  0  0  0
 26 72  1  0  0  0  0
 27 86  1  0  0  0  0
 28 87  1  0  0  0  0
 29 31  2  0  0  0  0
 29 86  1  0  0  0  0
 30 88  1  0  0  0  0
 31 89  1  0  0  0  0
 32 67  2  0  0  0  0
 33 68  1  0  0  0  0
 33 73  1  0  0  0  0
 34 35  2  0  0  0  0
 34 46  1  0  0  0  0
 35 47  1  0  0  0  0
 35 62  1  0  0  0  0
 36 46  1  0  0  0  0
 36 69  1  0  0  0  0
 36 79  2  0  0  0  0
 37 63  1  0  0  0  0
 37 80  2  0  0  0  0
 38 74  1  0  0  0  0
 38 81  2  0  0  0  0
 39 55  1  0  0  0  0
 39 75  1  0  0  0  0
 39 82  2  0  0  0  0
 40 64  1  0  0  0  0
 40 70  1  0  0  0  0
 40 83  2  0  0  0  0
 41 65  1  0  0  0  0
 41 76  1  0  0  0  0
 41 84  2  0  0  0  0
 42 71  1  0  0  0  0
 42 77  1  0  0  0  0
 42 85  2  0  0  0  0
 43 48  1  0  0  0  0
 44 55  1  0  0  0  0
 45 70  1  0  0  0  0
 47 69  1  0  0  0  0
 48 50  1  0  0  0  0
 49 51  1  0  0  0  0
 49 52  1  0  0  0  0
 50 54  1  0  0  0  0
 51 56  1  0  0  0  0
 52 71  1  0  0  0  0
 53 56  1  0  0  0  0
 53 71  1  0  0  0  0
 54 75  1  0  0  0  0
 55 70  1  0  0  0  0
 56 68  1  0  0  0  0
 57 65  1  0  0  0  0
 58 66  1  0  0  0  0
 59 66  1  0  0  0  0
 60 66  1  0  0  0  0
 61 78  1  0  0  0  0
 62 87  1  0  0  0  0
 63 77  1  0  0  0  0
 64 66  1  0  0  0  0
 64 76  1  0  0  0  0
 65 78  1  0  0  0  0
 67 68  1  0  0  0  0
M  CHG  1  78   1
M  ISO  4  42 100  62 101  77 100  87 101
M  END
> <Batch ID>
0075

> <Smiles>
CNC(C)C(=O)NC(C(=O)N1Cc2cc([101O:1][101CH2:1]C3=CCC(=O)N(c4ccc(C(=O)C[100NH:0][100C:0](=O)N5CCCC(n6nc(-c7ccc(Oc8ccc(F)cc8F)cc7)c(C(N)=O)c6N)C5)c(N)c4)C3)ccc2CC1C(=O)NC1CCCc2ccccc21)C(C)(C)C

> <Shape>
0.236

> <Color>
0.063

> <Negative vol penalty>
0.000

$$$$

  -OEChem-04042323473D

 89 98  0     1  0  0  0  0  0999 V2000
  -25.4207  -18.5272   14.5114 C   0  0  0  0  0  0  0  0  0  0  0  0
  -26.6923  -37.3577   22.0390 C   0  0  0  0  0  0  0  0  0  0  0  0
  -27.3252  -36.1770   21.6638 C   0  0  0  0  0  0  0  0  0  0  0  0
  -24.2995  -10.3596   22.0496 C   0  0  0  0  0  0  0  0  0  0  0  0
  -23.4928  -11.1989   19.9325 C   0  0  0  0  0  0  0  0  0  0  0  0
  -25.6175  -37.3196   22.9263 C   0  0  0  0  0  0  0  0  0  0  0  0
  -26.8844  -34.9575   22.1766 C   0  0  0  0  0  0  0  0  0  0  0  0
  -26.8197  -29.5572   19.2889 C   0  0  0  0  0  0  0  0  0  0  0  0
  -22.9967  -10.0154   22.4096 C   0  0  0  0  0  0  0  0  0  0  0  0
  -22.1899  -10.8546   20.2925 C   0  0  0  0  0  0  0  0  0  0  0  0
  -27.6902  -28.4685   19.3163 C   0  0  0  0  0  0  0  0  0  0  0  0
  -20.8042   -7.5279   21.7477 C   0  0  0  0  0  0  0  0  0  0  0  0
  -20.6005   -6.2737   22.3230 C   0  0  0  0  0  0  0  0  0  0  0  0
  -26.4235  -20.1732   16.0171 C   0  0  0  0  0  0  0  0  0  0  0  0
  -26.7104  -17.8164   16.4639 C   0  0  0  0  0  0  0  0  0  0  0  0
  -26.2906  -27.3986   20.9642 C   0  0  0  0  0  0  0  0  0  0  0  0
  -27.6953  -19.4547   17.9415 C   0  0  0  0  0  0  0  0  0  0  0  0
  -19.7251   -7.3284   24.3125 C   0  0  0  0  0  0  0  0  0  0  0  0
  -26.1909  -18.8415   15.6735 C   0  0  0  0  0  0  0  0  0  0  0  0
  -24.5476  -10.9514   20.8110 C   0  0  0  0  0  0  0  0  0  0  0  0
  -26.8296  -10.5029   19.7627 C   0  0  0  0  0  0  0  0  0  0  0  0
  -25.1570  -36.0981   23.4426 C   0  0  0  0  0  0  0  0  0  0  0  0
  -25.6821  -29.5797   20.1085 C   0  0  0  0  0  0  0  0  0  0  0  0
  -25.8032  -34.9031   23.0726 C   0  0  0  0  0  0  0  0  0  0  0  0
  -25.4060  -28.4877   20.9436 C   0  0  0  0  0  0  0  0  0  0  0  0
  -27.1757  -20.4798   17.1511 C   0  0  0  0  0  0  0  0  0  0  0  0
  -27.4626  -18.1229   17.5979 C   0  0  0  0  0  0  0  0  0  0  0  0
  -21.9419  -10.2629   21.5311 C   0  0  0  0  0  0  0  0  0  0  0  0
  -27.4272  -27.3902   20.1561 C   0  0  0  0  0  0  0  0  0  0  0  0
  -20.4684   -8.6824   22.4548 C   0  0  0  0  0  0  0  0  0  0  0  0
  -20.0610   -6.1739   23.6054 C   0  0  0  0  0  0  0  0  0  0  0  0
  -19.9288   -8.5827   23.7372 C   0  0  0  0  0  0  0  0  0  0  0  0
  -25.8932  -11.3078   20.4388 C   0  0  0  0  0  0  0  0  0  0  0  0
  -27.9459  -11.2953   19.6505 C   0  0  0  0  0  0  0  0  0  0  0  0
  -28.3780  -23.7119   18.3172 C   0  0  0  0  0  0  0  0  0  0  0  0
  -27.0969  -24.0986   17.7104 C   0  0  0  0  0  0  0  0  0  0  0  0
  -28.5651  -22.2539   18.1738 C   0  0  0  0  0  0  0  0  0  0  0  0
  -26.7018   -9.1592   19.2792 C   0  0  0  0  0  0  0  0  0  0  0  0
  -29.2444  -24.5495   18.9071 C   0  0  0  0  0  0  0  0  0  0  0  0
  -24.6552  -31.4431   22.4701 C   0  0  0  0  0  0  0  0  0  0  0  0
  -21.9847  -29.6179   22.2264 C   0  0  0  0  0  0  0  0  0  0  0  0
  -20.5744  -26.6592   21.2759 C   0  0  0  0  0  0  0  0  0  0  0  0
  -28.7577  -17.2145   19.5585 C   0  0  0  0  0  0  0  0  0  0  0  0
  -24.0218  -36.1114   24.4355 C   0  0  0  0  0  0  0  0  0  0  0  0
  -24.7388  -30.7497   20.0476 C   0  0  0  0  0  0  0  0  0  0  0  0
  -24.1873  -28.4539   21.8280 C   0  0  0  0  0  0  0  0  0  0  0  0
  -26.4378  -22.8679   17.1611 C   0  0  0  0  0  0  0  0  0  0  0  0
  -23.3770  -34.7433   24.6419 C   0  0  0  0  0  0  0  0  0  0  0  0
  -30.2143  -14.9006   21.8391 C   0  0  0  0  0  0  0  0  0  0  0  0
  -24.4465  -33.6720   24.8302 C   0  0  0  0  0  0  0  0  0  0  0  0
  -29.3605  -13.6414   21.6729 C   0  0  0  0  0  0  0  0  0  0  0  0
  -29.3761  -16.1729   21.7283 C   0  0  0  0  0  0  0  0  0  0  0  0
  -27.6966  -15.0097   20.3514 C   0  0  0  0  0  0  0  0  0  0  0  0
  -25.3383  -33.5584   23.5880 C   0  0  1  0  0  0  0  0  0  0  0  0
  -23.8842  -30.8942   21.3031 C   0  0  1  0  0  0  0  0  0  0  0  0
  -28.5075  -13.7042   20.3907 C   0  0  2  0  0  0  0  0  0  0  0  0
  -30.5329  -24.0576   19.5007 C   0  0  0  0  0  0  0  0  0  0  0  0
  -18.3778  -25.4464   21.2374 C   0  0  0  0  0  0  0  0  0  0  0  0
  -22.2374  -29.0704   25.2175 C   0  0  0  0  0  0  0  0  0  0  0  0
  -20.6472  -27.1580   24.9309 C   0  0  0  0  0  0  0  0  0  0  0  0
  -19.9013  -29.4843   24.4264 C   0  0  0  0  0  0  0  0  0  0  0  0
  -20.6023  -26.4631   18.3229 C   0  0  0  0  0  0  0  0  0  0  0  0
  -28.9833  -26.0272   18.9828 C   0  0  0  0  0  0  0  0  0  1  0  0
  -21.5093  -28.3297   22.8537 C   0  0  1  0  0  0  0  0  0  0  0  0
  -19.3268  -26.3517   20.4676 C   0  0  2  0  0  0  0  0  0  0  0  0
  -21.0979  -28.5118   24.3420 C   0  0  0  0  0  0  0  0  0  0  0  0
  -24.7953  -18.2719   13.5678 N   0  0  0  0  0  0  0  0  0  0  0  0
  -26.3729  -12.5185   20.7354 N   0  0  0  0  0  0  0  0  0  0  0  0
  -27.6229  -12.4803   20.2434 N   0  0  0  0  0  0  0  0  0  0  0  0
  -27.4089  -21.8095   17.4943 N   0  0  0  0  0  0  0  0  0  0  0  0
  -23.2987  -29.6242   21.7375 N   0  0  0  0  0  0  0  0  0  0  0  0
  -28.5984  -16.1644   20.4873 N   0  0  0  0  0  0  0  0  0  0  0  0
  -29.1624  -11.0870   19.1035 N   0  0  0  0  0  0  0  0  0  0  0  0
  -25.4863   -8.4903   19.4781 N   0  0  0  0  0  0  0  0  0  0  0  0
  -27.9908  -17.0822   18.4014 N   0  0  0  0  0  0  0  0  0  0  0  0
  -24.6585  -32.8230   22.5433 N   0  0  0  0  0  0  0  0  0  0  0  0
  -20.4415  -27.8276   21.9957 N   0  0  0  0  0  0  0  0  0  0  0  0
  -19.6906  -25.6743   19.1909 N   0  3  0  0  0  0  0  0  0  0  0  0
  -26.6450  -25.2296   17.6611 O   0  0  0  0  0  0  0  0  0  0  0  0
  -29.5227  -21.6121   18.5688 O   0  0  0  0  0  0  0  0  0  0  0  0
  -27.6433   -8.5634   18.7029 O   0  0  0  0  0  0  0  0  0  0  0  0
  -25.2052  -30.6718   23.2474 O   0  0  0  0  0  0  0  0  0  0  0  0
  -21.2160  -30.5808   22.1658 O   0  0  0  0  0  0  0  0  0  0  0  0
  -21.5662  -25.9333   21.2721 O   0  0  0  0  0  0  0  0  0  0  0  0
  -29.5388  -18.1476   19.7617 O   0  0  0  0  0  0  0  0  0  0  0  0
  -20.6704   -9.9269   21.8820 O   0  0  0  0  0  0  0  0  0  0  0  0
  -28.2756  -26.3266   20.1852 O   0  0  0  0  0  0  0  0  0  1  0  0
  -19.8640   -4.9693   24.1571 F   0  0  0  0  0  0  0  0  0  0  0  0
  -19.6032   -9.6882   24.4210 F   0  0  0  0  0  0  0  0  0  0  0  0
  1 19  1  0  0  0  0
  1 67  3  0  0  0  0
  2  3  1  0  0  0  0
  2  6  2  0  0  0  0
  3  7  2  0  0  0  0
  4  9  2  0  0  0  0
  4 20  1  0  0  0  0
  5 10  1  0  0  0  0
  5 20  2  0  0  0  0
  6 22  1  0  0  0  0
  7 24  1  0  0  0  0
  8 11  2  0  0  0  0
  8 23  1  0  0  0  0
  9 28  1  0  0  0  0
 10 28  2  0  0  0  0
 11 29  1  0  0  0  0
 12 13  2  0  0  0  0
 12 30  1  0  0  0  0
 13 31  1  0  0  0  0
 14 19  2  0  0  0  0
 14 26  1  0  0  0  0
 15 19  1  0  0  0  0
 15 27  2  0  0  0  0
 16 25  1  0  0  0  0
 16 29  2  0  0  0  0
 17 26  2  0  0  0  0
 17 27  1  0  0  0  0
 18 31  2  0  0  0  0
 18 32  1  0  0  0  0
 20 33  1  0  0  0  0
 21 33  1  0  0  0  0
 21 34  2  0  0  0  0
 21 38  1  0  0  0  0
 22 24  2  0  0  0  0
 22 44  1  0  0  0  0
 23 25  2  0  0  0  0
 23 45  1  0  0  0  0
 24 54  1  0  0  0  0
 25 46  1  0  0  0  0
 26 70  1  0  0  0  0
 27 75  1  0  0  0  0
 28 86  1  0  0  0  0
 29 87  1  0  0  0  0
 30 32  2  0  0  0  0
 30 86  1  0  0  0  0
 31 88  1  0  0  0  0
 32 89  1  0  0  0  0
 33 68  2  0  0  0  0
 34 69  1  0  0  0  0
 34 73  1  0  0  0  0
 35 36  1  0  0  0  0
 35 37  1  0  0  0  0
 35 39  2  0  0  0  0
 36 47  1  0  0  0  0
 36 79  2  0  0  0  0
 37 70  1  0  0  0  0
 37 80  2  0  0  0  0
 38 74  1  0  0  0  0
 38 81  2  0  0  0  0
 39 57  1  0  0  0  0
 39 63  1  0  0  0  0
 40 55  1  0  0  0  0
 40 76  1  0  0  0  0
 40 82  2  0  0  0  0
 41 64  1  0  0  0  0
 41 71  1  0  0  0  0
 41 83  2  0  0  0  0
 42 65  1  0  0  0  0
 42 77  1  0  0  0  0
 42 84  2  0  0  0  0
 43 72  1  0  0  0  0
 43 75  1  0  0  0  0
 43 85  2  0  0  0  0
 44 48  1  0  0  0  0
 45 55  1  0  0  0  0
 46 71  1  0  0  0  0
 47 70  1  0  0  0  0
 48 50  1  0  0  0  0
 49 51  1  0  0  0  0
 49 52  1  0  0  0  0
 50 54  1  0  0  0  0
 51 56  1  0  0  0  0
 52 72  1  0  0  0  0
 53 56  1  0  0  0  0
 53 72  1  0  0  0  0
 54 76  1  0  0  0  0
 55 71  1  0  0  0  0
 56 69  1  0  0  0  0
 58 65  1  0  0  0  0
 59 66  1  0  0  0  0
 60 66  1  0  0  0  0
 61 66  1  0  0  0  0
 62 78  1  0  0  0  0
 63 87  1  0  0  0  0
 64 66  1  0  0  0  0
 64 77  1  0  0  0  0
 65 78  1  0  0  0  0
 68 69  1  0  0  0  0
M  CHG  1  78   1
M  ISO  4  43 100  63 101  75 100  87 101
M  END
> <Batch ID>
0075

> <Smiles>
CNC(C)C(=O)NC(C(=O)N1Cc2cc([101O:1][101CH2:1]C(C)=C3C(=O)CN(c4cc(C#N)cc([100NH:0][100C:0](=O)N5CCCC(n6nc(-c7ccc(Oc8ccc(F)cc8F)cc7)c(C(N)=O)c6N)C5)c4)C3=O)ccc2CC1C(=O)NC1CCCc2ccccc21)C(C)(C)C

> <Shape>
0.312

> <Color>
0.062

> <Negative vol penalty>
0.000

$$$$

  -OEChem-04042323473D

 86 95  0     1  0  0  0  0  0999 V2000
  -20.7799  -19.0868   16.8476 C   0  0  0  0  0  0  0  0  0  0  0  0
  -21.9055  -19.4784   17.5653 C   0  0  0  0  0  0  0  0  0  0  0  0
  -22.6178  -23.4139   22.8812 C   0  0  0  0  0  0  0  0  0  0  0  0
  -21.1624  -24.0034   21.0450 C   0  0  0  0  0  0  0  0  0  0  0  0
  -20.3776  -17.7519   16.8578 C   0  0  0  0  0  0  0  0  0  0  0  0
  -22.6289  -18.5354   18.2946 C   0  0  0  0  0  0  0  0  0  0  0  0
  -27.6305  -19.0056   17.6558 C   0  0  0  0  0  0  0  0  0  0  0  0
  -28.2861  -25.9080   23.1479 C   0  0  0  0  0  0  0  0  0  0  0  0
  -27.7670  -27.0878   23.6811 C   0  0  0  0  0  0  0  0  0  0  0  0
  -21.5574  -22.7644   23.5132 C   0  0  0  0  0  0  0  0  0  0  0  0
  -20.1020  -23.3539   21.6770 C   0  0  0  0  0  0  0  0  0  0  0  0
  -28.2687  -20.0273   18.3576 C   0  0  0  0  0  0  0  0  0  0  0  0
  -19.0236  -20.1791   22.0989 C   0  0  0  0  0  0  0  0  0  0  0  0
  -18.2189  -19.3471   21.3206 C   0  0  0  0  0  0  0  0  0  0  0  0
  -29.0028  -18.4275   20.0072 C   0  0  0  0  0  0  0  0  0  0  0  0
  -29.1442  -27.1408   21.2555 C   0  0  0  0  0  0  0  0  0  0  0  0
  -16.2952  -20.7072   21.8559 C   0  0  0  0  0  0  0  0  0  0  0  0
  -22.4203  -24.0334   21.6471 C   0  0  0  0  0  0  0  0  0  0  0  0
  -24.4345  -24.1467   20.0858 C   0  0  0  0  0  0  0  0  0  0  0  0
  -21.1020  -16.7904   17.5798 C   0  0  0  0  0  0  0  0  0  0  0  0
  -27.6645  -17.6867   18.1310 C   0  0  0  0  0  0  0  0  0  0  0  0
  -22.2351  -17.1866   18.3156 C   0  0  0  0  0  0  0  0  0  0  0  0
  -28.3664  -17.3904   19.3082 C   0  0  0  0  0  0  0  0  0  0  0  0
  -28.9747  -25.9345   21.9351 C   0  0  0  0  0  0  0  0  0  0  0  0
  -27.9365  -28.2941   23.0015 C   0  0  0  0  0  0  0  0  0  0  0  0
  -28.6251  -28.3206   21.7887 C   0  0  0  0  0  0  0  0  0  0  0  0
  -20.2995  -22.7344   22.9111 C   0  0  0  0  0  0  0  0  0  0  0  0
  -28.9526  -19.7388   19.5350 C   0  0  0  0  0  0  0  0  0  0  0  0
  -18.4642  -21.2751   22.7557 C   0  0  0  0  0  0  0  0  0  0  0  0
  -16.8546  -19.6112   21.1991 C   0  0  0  0  0  0  0  0  0  0  0  0
  -17.1000  -21.5392   22.6342 C   0  0  0  0  0  0  0  0  0  0  0  0
  -23.5151  -24.7049   20.9940 C   0  0  0  0  0  0  0  0  0  0  0  0
  -25.2684  -25.1876   19.7580 C   0  0  0  0  0  0  0  0  0  0  0  0
  -29.4696  -23.4747   21.8515 C   0  0  0  0  0  0  0  0  0  0  0  0
  -30.1470  -24.4997   20.2409 C   0  0  0  0  0  0  0  0  0  0  0  0
  -24.5265  -22.8070   19.5834 C   0  0  0  0  0  0  0  0  0  0  0  0
  -25.4761  -15.5932   19.0966 C   0  0  0  0  0  0  0  0  0  0  0  0
  -28.0186  -13.5826   19.2213 C   0  0  0  0  0  0  0  0  0  0  0  0
  -31.3972  -13.1987   19.5113 C   0  0  0  0  0  0  0  0  0  0  0  0
  -26.4293  -30.2974   22.9228 C   0  0  0  0  0  0  0  0  0  0  0  0
  -20.6012  -15.3678   17.5991 C   0  0  0  0  0  0  0  0  0  0  0  0
  -26.9935  -16.5915   17.3482 C   0  0  0  0  0  0  0  0  0  0  0  0
  -28.4499  -15.9876   19.8499 C   0  0  0  0  0  0  0  0  0  0  0  0
  -21.6389  -14.3635   18.0939 C   0  0  0  0  0  0  0  0  0  0  0  0
  -25.3829  -29.9521   19.3903 C   0  0  0  0  0  0  0  0  0  0  0  0
  -22.3145  -14.8749   19.3622 C   0  0  0  0  0  0  0  0  0  0  0  0
  -24.7861  -28.5465   19.3491 C   0  0  0  0  0  0  0  0  0  0  0  0
  -25.2436  -30.5863   20.7709 C   0  0  0  0  0  0  0  0  0  0  0  0
  -25.2234  -28.3454   21.8290 C   0  0  0  0  0  0  0  0  0  0  0  0
  -23.0603  -16.1887   19.0987 C   0  0  1  0  0  0  0  0  0  0  0  0
  -30.2302  -23.0037   20.5977 C   0  0  0  0  0  0  0  0  0  0  0  0
  -26.6587  -15.3691   18.1972 C   0  0  1  0  0  0  0  0  0  0  0  0
  -25.3873  -27.6692   20.4596 C   0  0  1  0  0  0  0  0  0  0  0  0
  -33.1772  -11.4330   19.6187 C   0  0  0  0  0  0  0  0  0  0  0  0
  -27.2339  -12.9703   22.1056 C   0  0  0  0  0  0  0  0  0  0  0  0
  -29.5126  -11.9898   22.4440 C   0  0  0  0  0  0  0  0  0  0  0  0
  -27.9570  -10.9793   20.7761 C   0  0  0  0  0  0  0  0  0  0  0  0
  -28.0481  -30.0566   24.7541 C   0  0  0  0  0  0  0  0  0  0  0  0
  -32.7135  -14.2124   17.0621 C   0  0  0  0  0  0  0  0  0  0  0  0
  -29.4888  -22.0513   19.6797 C   0  0  0  0  0  0  0  0  0  1  0  0
  -29.0360  -13.2095   20.2723 C   0  0  1  0  0  0  0  0  0  0  0  0
  -32.3887  -12.3689   18.7158 C   0  0  2  0  0  0  0  0  0  0  0  0
  -28.4319  -12.3141   21.3906 C   0  0  0  0  0  0  0  0  0  0  0  0
  -23.7433  -25.9999   21.2283 N   0  0  0  0  0  0  0  0  0  0  0  0
  -24.8156  -26.2641   20.4626 N   0  0  0  0  0  0  0  0  0  0  0  0
  -29.4864  -24.7714   21.4099 N   0  0  0  0  0  0  0  0  0  0  0  0
  -27.7723  -14.9524   19.0519 N   0  0  0  0  0  0  0  0  0  0  0  0
  -25.7655  -29.7140   21.8242 N   0  0  0  0  0  0  0  0  0  0  0  0
  -28.8086  -29.5314   21.0838 N   0  0  0  0  0  0  0  0  0  0  0  0
  -26.3375  -25.2780   18.9386 N   0  0  0  0  0  0  0  0  0  0  0  0
  -23.5894  -21.8624   20.0238 N   0  0  0  0  0  0  0  0  0  0  0  0
  -24.3158  -15.9311   18.4266 N   0  0  0  0  0  0  0  0  0  0  0  0
  -30.1550  -12.6023   19.5598 N   0  0  0  0  0  0  0  0  0  0  0  0
  -27.3909  -29.5008   23.5733 N   0  0  0  0  0  0  0  0  0  0  0  0
  -33.3512  -13.2553   18.0024 N   0  3  0  0  0  0  0  0  0  0  0  0
  -29.0091  -22.9497   22.8401 O   0  0  0  0  0  0  0  0  0  0  0  0
  -30.4940  -25.1942   19.3124 O   0  0  0  0  0  0  0  0  0  0  0  0
  -25.4233  -22.4538   18.7806 O   0  0  0  0  0  0  0  0  0  0  0  0
  -25.6063  -15.4674   20.3086 O   0  0  0  0  0  0  0  0  0  0  0  0
  -27.4680  -12.6917   18.5694 O   0  0  0  0  0  0  0  0  0  0  0  0
  -31.6959  -14.2672   20.0402 O   0  0  0  0  0  0  0  0  0  0  0  0
  -26.1463  -31.4301   23.3322 O   0  0  0  0  0  0  0  0  0  0  0  0
  -19.2646  -22.1006   23.5274 O   0  0  0  0  0  0  0  0  0  0  0  0
  -29.5759  -20.7343   20.2223 O   0  0  0  0  0  0  0  0  0  1  0  0
  -16.0822  -18.8130   20.4504 F   0  0  0  0  0  0  0  0  0  0  0  0
  -16.5570  -22.5913   23.2619 F   0  0  0  0  0  0  0  0  0  0  0  0
  1  2  1  0  0  0  0
  1  5  2  0  0  0  0
  2  6  2  0  0  0  0
  3 10  2  0  0  0  0
  3 18  1  0  0  0  0
  4 11  1  0  0  0  0
  4 18  2  0  0  0  0
  5 20  1  0  0  0  0
  6 22  1  0  0  0  0
  7 12  2  0  0  0  0
  7 21  1  0  0  0  0
  8  9  2  0  0  0  0
  8 24  1  0  0  0  0
  9 25  1  0  0  0  0
 10 27  1  0  0  0  0
 11 27  2  0  0  0  0
 12 28  1  0  0  0  0
 13 14  2  0  0  0  0
 13 29  1  0  0  0  0
 14 30  1  0  0  0  0
 15 23  1  0  0  0  0
 15 28  2  0  0  0  0
 16 24  2  0  0  0  0
 16 26  1  0  0  0  0
 17 30  2  0  0  0  0
 17 31  1  0  0  0  0
 18 32  1  0  0  0  0
 19 32  1  0  0  0  0
 19 33  2  0  0  0  0
 19 36  1  0  0  0  0
 20 22  2  0  0  0  0
 20 41  1  0  0  0  0
 21 23  2  0  0  0  0
 21 42  1  0  0  0  0
 22 50  1  0  0  0  0
 23 43  1  0  0  0  0
 24 66  1  0  0  0  0
 25 26  2  0  0  0  0
 25 74  1  0  0  0  0
 26 69  1  0  0  0  0
 27 83  1  0  0  0  0
 28 84  1  0  0  0  0
 29 31  2  0  0  0  0
 29 83  1  0  0  0  0
 30 85  1  0  0  0  0
 31 86  1  0  0  0  0
 32 64  2  0  0  0  0
 33 65  1  0  0  0  0
 33 70  1  0  0  0  0
 34 51  1  0  0  0  0
 34 66  1  0  0  0  0
 34 76  2  0  0  0  0
 35 51  1  0  0  0  0
 35 66  1  0  0  0  0
 35 77  2  0  0  0  0
 36 71  1  0  0  0  0
 36 78  2  0  0  0  0
 37 52  1  0  0  0  0
 37 72  1  0  0  0  0
 37 79  2  0  0  0  0
 38 61  1  0  0  0  0
 38 67  1  0  0  0  0
 38 80  2  0  0  0  0
 39 62  1  0  0  0  0
 39 73  1  0  0  0  0
 39 81  2  0  0  0  0
 40 68  1  0  0  0  0
 40 74  1  0  0  0  0
 40 82  2  0  0  0  0
 41 44  1  0  0  0  0
 42 52  1  0  0  0  0
 43 67  1  0  0  0  0
 44 46  1  0  0  0  0
 45 47  1  0  0  0  0
 45 48  1  0  0  0  0
 46 50  1  0  0  0  0
 47 53  1  0  0  0  0
 48 68  1  0  0  0  0
 49 53  1  0  0  0  0
 49 68  1  0  0  0  0
 50 72  1  0  0  0  0
 51 60  1  0  0  0  0
 52 67  1  0  0  0  0
 53 65  1  0  0  0  0
 54 62  1  0  0  0  0
 55 63  1  0  0  0  0
 56 63  1  0  0  0  0
 57 63  1  0  0  0  0
 58 74  1  0  0  0  0
 59 75  1  0  0  0  0
 60 84  1  0  0  0  0
 61 63  1  0  0  0  0
 61 73  1  0  0  0  0
 62 75  1  0  0  0  0
 64 65  1  0  0  0  0
M  CHG  1  75   1
M  ISO  4  40 100  60 101  74 100  84 101
M  END
> <Batch ID>
0075

> <Smiles>
CNC(C)C(=O)NC(C(=O)N1Cc2cc([101O:1][101CH2:1]C3C(=O)N(c4ccc([100N:0](C)[100C:0](=O)N5CCCC(n6nc(-c7ccc(Oc8ccc(F)cc8F)cc7)c(C(N)=O)c6N)C5)c(N)c4)C3=O)ccc2CC1C(=O)NC1CCCc2ccccc21)C(C)(C)C

> <Shape>
0.190

> <Color>
0.070

> <Negative vol penalty>
0.000

$$$$

  -OEChem-04042323473D

 87 95  0     1  0  0  0  0  0999 V2000
  -24.1838  -31.6126   24.3785 C   0  0  0  0  0  0  0  0  0  0  0  0
  -24.4487  -30.2486   24.4481 C   0  0  0  0  0  0  0  0  0  0  0  0
  -22.9365  -10.0858   19.8961 C   0  0  0  0  0  0  0  0  0  0  0  0
  -23.8617   -9.7446   22.1018 C   0  0  0  0  0  0  0  0  0  0  0  0
  -23.9688  -32.2175   23.1408 C   0  0  0  0  0  0  0  0  0  0  0  0
  -24.4977  -29.4885   23.2801 C   0  0  0  0  0  0  0  0  0  0  0  0
  -28.4510  -26.3250   23.1852 C   0  0  0  0  0  0  0  0  0  0  0  0
  -22.1451   -8.9478   20.0520 C   0  0  0  0  0  0  0  0  0  0  0  0
  -23.0702   -8.6066   22.2577 C   0  0  0  0  0  0  0  0  0  0  0  0
  -28.3474  -25.1538   23.9345 C   0  0  0  0  0  0  0  0  0  0  0  0
  -21.0281   -5.8158   23.3799 C   0  0  0  0  0  0  0  0  0  0  0  0
  -20.3585   -5.6518   24.5924 C   0  0  0  0  0  0  0  0  0  0  0  0
  -31.1282  -19.3992   22.1370 C   0  0  0  0  0  0  0  0  0  0  0  0
  -30.0104  -17.3716   22.8270 C   0  0  0  0  0  0  0  0  0  0  0  0
  -27.7912  -23.9291   21.9320 C   0  0  0  0  0  0  0  0  0  0  0  0
  -31.4932  -17.3444   20.9198 C   0  0  0  0  0  0  0  0  0  0  0  0
  -19.1821   -7.7296   24.2240 C   0  0  0  0  0  0  0  0  0  0  0  0
  -23.7948  -10.4842   20.9210 C   0  0  0  0  0  0  0  0  0  0  0  0
  -30.2613  -18.7324   23.0027 C   0  0  0  0  0  0  0  0  0  0  0  0
  -24.2778  -12.9822   21.1057 C   0  0  0  0  0  0  0  0  0  0  0  0
  -24.0247  -31.4662   21.9563 C   0  0  0  0  0  0  0  0  0  0  0  0
  -28.2144  -26.3090   21.8031 C   0  0  0  0  0  0  0  0  0  0  0  0
  -24.2819  -30.0836   22.0255 C   0  0  0  0  0  0  0  0  0  0  0  0
  -27.8950  -25.1009   21.1671 C   0  0  0  0  0  0  0  0  0  0  0  0
  -31.7441  -18.7052   21.0955 C   0  0  0  0  0  0  0  0  0  0  0  0
  -30.6263  -16.6775   21.7855 C   0  0  0  0  0  0  0  0  0  0  0  0
  -22.2120   -8.2082   21.2328 C   0  0  0  0  0  0  0  0  0  0  0  0
  -28.0146  -23.9562   23.3084 C   0  0  0  0  0  0  0  0  0  0  0  0
  -20.7747   -6.9368   22.5893 C   0  0  0  0  0  0  0  0  0  0  0  0
  -19.4355   -6.6087   25.0145 C   0  0  0  0  0  0  0  0  0  0  0  0
  -19.8517   -7.8937   23.0114 C   0  0  0  0  0  0  0  0  0  0  0  0
  -24.6130  -11.6593   20.7603 C   0  0  0  0  0  0  0  0  0  0  0  0
  -25.3834  -13.7188   20.7569 C   0  0  0  0  0  0  0  0  0  0  0  0
  -34.8003  -22.1258   19.4282 C   0  0  0  0  0  0  0  0  0  0  0  0
  -29.6112  -19.4651   24.1025 C   0  0  0  0  0  0  0  0  0  0  0  0
  -23.0747  -13.4991   21.6898 C   0  0  0  0  0  0  0  0  0  0  0  0
  -33.9491  -21.1232   19.1572 C   0  0  0  0  0  0  0  0  0  0  0  0
  -32.9842  -20.7246   20.2462 C   0  0  0  0  0  0  0  0  0  0  0  0
  -26.1076  -27.7001   19.8718 C   0  0  0  0  0  0  0  0  0  0  0  0
  -27.9279  -26.3487   17.5518 C   0  0  0  0  0  0  0  0  0  0  0  0
  -30.1286  -23.8996   16.6543 C   0  0  0  0  0  0  0  0  0  0  0  0
  -30.9005  -14.4583   20.6253 C   0  0  0  0  0  0  0  0  0  0  0  0
  -23.7387  -32.1552   20.6455 C   0  0  0  0  0  0  0  0  0  0  0  0
  -28.3563  -27.5759   21.0048 C   0  0  0  0  0  0  0  0  0  0  0  0
  -27.6511  -25.0265   19.6827 C   0  0  0  0  0  0  0  0  0  0  0  0
  -24.1786  -31.3500   19.4254 C   0  0  0  0  0  0  0  0  0  0  0  0
  -29.4725  -12.4455   18.0588 C   0  0  0  0  0  0  0  0  0  0  0  0
  -23.7302  -29.8977   19.5543 C   0  0  0  0  0  0  0  0  0  0  0  0
  -28.0534  -12.1703   18.5613 C   0  0  0  0  0  0  0  0  0  0  0  0
  -30.4854  -12.4639   19.2023 C   0  0  0  0  0  0  0  0  0  0  0  0
  -28.7318  -13.0886   20.8160 C   0  0  0  0  0  0  0  0  0  0  0  0
  -24.3677  -29.2301   20.7788 C   0  0  1  0  0  0  0  0  0  0  0  0
  -27.5900  -27.5402   19.6862 C   0  0  1  0  0  0  0  0  0  0  0  0
  -27.6666  -13.1248   19.7080 C   0  0  2  0  0  0  0  0  0  0  0  0
  -33.9660  -20.4337   17.8260 C   0  0  0  0  0  0  0  0  0  0  0  0
  -31.7318  -22.6279   15.2017 C   0  0  0  0  0  0  0  0  0  0  0  0
  -25.3717  -25.1014   16.4471 C   0  0  0  0  0  0  0  0  0  0  0  0
  -26.7962  -23.5330   15.1134 C   0  0  0  0  0  0  0  0  0  0  0  0
  -26.9344  -25.9906   14.7087 C   0  0  0  0  0  0  0  0  0  0  0  0
  -32.4189  -25.5557   17.5324 C   0  0  0  0  0  0  0  0  0  0  0  0
  -29.0691  -21.2456   25.4464 C   0  0  0  0  0  0  0  0  0  0  0  0
  -28.7354  -22.7052   25.1983 C   0  0  0  0  0  0  0  0  0  1  0  0
  -27.9246  -25.0254   16.8253 C   0  0  1  0  0  0  0  0  0  0  0  0
  -31.4374  -23.9532   15.8870 C   0  0  2  0  0  0  0  0  0  0  0  0
  -26.7594  -24.9140   15.8019 C   0  0  0  0  0  0  0  0  0  0  0  0
  -25.8357  -11.5582   20.2324 N   0  0  0  0  0  0  0  0  0  0  0  0
  -29.8144  -20.7212   24.2988 N   0  0  0  0  0  0  0  0  0  0  0  0
  -26.2785  -12.8270   20.2434 N   0  0  0  0  0  0  0  0  0  0  0  0
  -27.7957  -26.2933   18.9465 N   0  0  0  0  0  0  0  0  0  0  0  0
  -30.0552  -13.3930   20.2494 N   0  0  0  0  0  0  0  0  0  0  0  0
  -25.6674  -15.0358   20.8422 N   0  0  0  0  0  0  0  0  0  0  0  0
  -22.0376  -12.6040   21.9856 N   0  0  0  0  0  0  0  0  0  0  0  0
  -32.6113  -19.3722   20.2294 N   0  0  0  0  0  0  0  0  0  0  0  0
  -30.3716  -15.2951   21.6074 N   0  0  0  0  0  0  0  0  0  0  0  0
  -25.7430  -28.8746   20.5020 N   0  0  0  0  0  0  0  0  0  0  0  0
  -29.2519  -24.8789   16.2378 N   0  0  0  0  0  0  0  0  0  0  0  0
  -32.5657  -24.2667   16.8086 N   0  3  0  0  0  0  0  0  0  0  0  0
  -22.9176  -14.7208   21.9268 O   0  0  0  0  0  0  0  0  0  0  0  0
  -32.5890  -21.5594   21.0566 O   0  0  0  0  0  0  0  0  0  0  0  0
  -25.3505  -26.8236   19.4716 O   0  0  0  0  0  0  0  0  0  0  0  0
  -28.0506  -27.3926   16.9062 O   0  0  0  0  0  0  0  0  0  0  0  0
  -29.9049  -23.0695   17.5326 O   0  0  0  0  0  0  0  0  0  0  0  0
  -32.0003  -14.6325   20.0942 O   0  0  0  0  0  0  0  0  0  0  0  0
  -21.4397   -7.0979   21.3854 O   0  0  0  0  0  0  0  0  0  0  0  0
  -27.9122  -22.8117   24.0375 O   0  0  0  0  0  0  0  0  0  1  0  0
  -18.7915   -6.4502   26.1782 F   0  0  0  0  0  0  0  0  0  0  0  0
  -19.6033   -8.9721   22.2557 F   0  0  0  0  0  0  0  0  0  0  0  0
  1  2  1  0  0  0  0
  1  5  2  0  0  0  0
  2  6  2  0  0  0  0
  3  8  2  0  0  0  0
  3 18  1  0  0  0  0
  4  9  1  0  0  0  0
  4 18  2  0  0  0  0
  5 21  1  0  0  0  0
  6 23  1  0  0  0  0
  7 10  2  0  0  0  0
  7 22  1  0  0  0  0
  8 27  1  0  0  0  0
  9 27  2  0  0  0  0
 10 28  1  0  0  0  0
 11 12  2  0  0  0  0
 11 29  1  0  0  0  0
 12 30  1  0  0  0  0
 13 19  2  0  0  0  0
 13 25  1  0  0  0  0
 14 19  1  0  0  0  0
 14 26  2  0  0  0  0
 15 24  1  0  0  0  0
 15 28  2  0  0  0  0
 16 25  2  0  0  0  0
 16 26  1  0  0  0  0
 17 30  2  0  0  0  0
 17 31  1  0  0  0  0
 18 32  1  0  0  0  0
 19 35  1  0  0  0  0
 20 32  1  0  0  0  0
 20 33  2  0  0  0  0
 20 36  1  0  0  0  0
 21 23  2  0  0  0  0
 21 43  1  0  0  0  0
 22 24  2  0  0  0  0
 22 44  1  0  0  0  0
 23 52  1  0  0  0  0
 24 45  1  0  0  0  0
 25 73  1  0  0  0  0
 26 74  1  0  0  0  0
 27 84  1  0  0  0  0
 28 85  1  0  0  0  0
 29 31  2  0  0  0  0
 29 84  1  0  0  0  0
 30 86  1  0  0  0  0
 31 87  1  0  0  0  0
 32 66  2  0  0  0  0
 33 68  1  0  0  0  0
 33 71  1  0  0  0  0
 34 37  2  0  0  0  0
 35 67  2  0  0  0  0
 36 72  1  0  0  0  0
 36 78  2  0  0  0  0
 37 38  1  0  0  0  0
 37 55  1  0  0  0  0
 38 73  1  0  0  0  0
 38 79  2  0  0  0  0
 39 53  1  0  0  0  0
 39 75  1  0  0  0  0
 39 80  2  0  0  0  0
 40 63  1  0  0  0  0
 40 69  1  0  0  0  0
 40 81  2  0  0  0  0
 41 64  1  0  0  0  0
 41 76  1  0  0  0  0
 41 82  2  0  0  0  0
 42 70  1  0  0  0  0
 42 74  1  0  0  0  0
 42 83  2  0  0  0  0
 43 46  1  0  0  0  0
 44 53  1  0  0  0  0
 45 69  1  0  0  0  0
 46 48  1  0  0  0  0
 47 49  1  0  0  0  0
 47 50  1  0  0  0  0
 48 52  1  0  0  0  0
 49 54  1  0  0  0  0
 50 70  1  0  0  0  0
 51 54  1  0  0  0  0
 51 70  1  0  0  0  0
 52 75  1  0  0  0  0
 53 69  1  0  0  0  0
 54 68  1  0  0  0  0
 56 64  1  0  0  0  0
 57 65  1  0  0  0  0
 58 65  1  0  0  0  0
 59 65  1  0  0  0  0
 60 77  1  0  0  0  0
 61 62  1  0  0  0  0
 61 67  1  0  0  0  0
 62 85  1  0  0  0  0
 63 65  1  0  0  0  0
 63 76  1  0  0  0  0
 64 77  1  0  0  0  0
 66 68  1  0  0  0  0
M  CHG  1  77   1
M  ISO  4  42 100  62 101  74 100  85 101
M  END
> <Batch ID>
0075

> <Smiles>
C=C(C)C(=O)Nc1cc(C=NC[101CH2:1][101O:1]c2ccc3c(c2)CN(C(=O)C(NC(=O)C(C)NC)C(C)(C)C)C(C(=O)NC2CCCc4ccccc42)C3)cc([100NH:0][100C:0](=O)N2CCCC(n3nc(-c4ccc(Oc5ccc(F)cc5F)cc4)c(C(N)=O)c3N)C2)c1

> <Shape>
0.283

> <Color>
0.182

> <Negative vol penalty>
0.000

$$$$

  -OEChem-04042323473D

 85 94  0     1  0  0  0  0  0999 V2000
  -28.1143  -37.0875   18.7266 C   0  0  0  0  0  0  0  0  0  0  0  0
  -28.2215  -35.7510   18.3555 C   0  0  0  0  0  0  0  0  0  0  0  0
  -24.3218   -8.8942   20.3543 C   0  0  0  0  0  0  0  0  0  0  0  0
  -23.0161  -10.7770   21.1206 C   0  0  0  0  0  0  0  0  0  0  0  0
  -27.8820  -37.4232   20.0597 C   0  0  0  0  0  0  0  0  0  0  0  0
  -28.0976  -34.7494   19.3177 C   0  0  0  0  0  0  0  0  0  0  0  0
  -25.6019  -29.2079   18.5630 C   0  0  0  0  0  0  0  0  0  0  0  0
  -29.6361  -20.4419   21.1082 C   0  0  0  0  0  0  0  0  0  0  0  0
  -29.6855  -19.0599   21.2902 C   0  0  0  0  0  0  0  0  0  0  0  0
  -23.3214   -8.0241   20.7876 C   0  0  0  0  0  0  0  0  0  0  0  0
  -22.0157   -9.9070   21.5539 C   0  0  0  0  0  0  0  0  0  0  0  0
  -26.1596  -27.9527   18.3238 C   0  0  0  0  0  0  0  0  0  0  0  0
  -20.3063   -6.9531   19.6944 C   0  0  0  0  0  0  0  0  0  0  0  0
  -19.9277   -5.9215   18.8353 C   0  0  0  0  0  0  0  0  0  0  0  0
  -26.0720  -27.4703   20.6858 C   0  0  0  0  0  0  0  0  0  0  0  0
  -28.2645  -20.1342   19.1433 C   0  0  0  0  0  0  0  0  0  0  0  0
  -20.5704   -4.2964   20.5036 C   0  0  0  0  0  0  0  0  0  0  0  0
  -24.1692  -10.2707   20.5209 C   0  0  0  0  0  0  0  0  0  0  0  0
  -25.3189  -11.7675   18.8047 C   0  0  0  0  0  0  0  0  0  0  0  0
  -27.7455  -36.4249   21.0371 C   0  0  0  0  0  0  0  0  0  0  0  0
  -25.2847  -29.6087   19.8688 C   0  0  0  0  0  0  0  0  0  0  0  0
  -27.8646  -35.0721   20.6654 C   0  0  0  0  0  0  0  0  0  0  0  0
  -25.5080  -28.7301   20.9386 C   0  0  0  0  0  0  0  0  0  0  0  0
  -28.9255  -20.9791   20.0347 C   0  0  0  0  0  0  0  0  0  0  0  0
  -29.0244  -18.2150   20.3987 C   0  0  0  0  0  0  0  0  0  0  0  0
  -22.1683   -8.5305   21.3873 C   0  0  0  0  0  0  0  0  0  0  0  0
  -26.3974  -27.0848   19.3855 C   0  0  0  0  0  0  0  0  0  0  0  0
  -20.8171   -6.6564   20.9580 C   0  0  0  0  0  0  0  0  0  0  0  0
  -20.0597   -4.5932   19.2399 C   0  0  0  0  0  0  0  0  0  0  0  0
  -28.3139  -18.7521   19.3252 C   0  0  0  0  0  0  0  0  0  0  0  0
  -20.9491   -5.3281   21.3626 C   0  0  0  0  0  0  0  0  0  0  0  0
  -25.2025  -11.1700   20.0740 C   0  0  0  0  0  0  0  0  0  0  0  0
  -26.4604  -12.5270   18.8861 C   0  0  0  0  0  0  0  0  0  0  0  0
  -29.4164  -23.3746   20.5531 C   0  0  0  0  0  0  0  0  0  0  0  0
  -24.4710  -11.6469   17.6548 C   0  0  0  0  0  0  0  0  0  0  0  0
  -26.2485  -31.9469   21.7943 C   0  0  0  0  0  0  0  0  0  0  0  0
  -23.8940  -30.8091   23.7137 C   0  0  0  0  0  0  0  0  0  0  0  0
  -21.9063  -28.1861   24.6168 C   0  0  0  0  0  0  0  0  0  0  0  0
  -29.7381  -16.1184   21.5994 C   0  0  0  0  0  0  0  0  0  0  0  0
  -27.5422  -36.8380   22.4733 C   0  0  0  0  0  0  0  0  0  0  0  0
  -24.6589  -30.9555   20.1072 C   0  0  0  0  0  0  0  0  0  0  0  0
  -25.1664  -29.1046   22.3569 C   0  0  0  0  0  0  0  0  0  0  0  0
  -27.0498  -35.7044   23.3693 C   0  0  0  0  0  0  0  0  0  0  0  0
  -30.0748  -12.6718   22.4268 C   0  0  0  0  0  0  0  0  0  0  0  0
  -27.8638  -34.4379   23.1238 C   0  0  0  0  0  0  0  0  0  0  0  0
  -28.8468  -12.0230   21.7841 C   0  0  0  0  0  0  0  0  0  0  0  0
  -29.7566  -14.0570   22.9869 C   0  0  0  0  0  0  0  0  0  0  0  0
  -27.8985  -14.3327   21.3930 C   0  0  0  0  0  0  0  0  0  0  0  0
  -28.2197  -23.1495   18.8337 C   0  0  0  0  0  0  0  0  0  0  0  0
  -27.7113  -33.9561   21.6760 C   0  0  1  0  0  0  0  0  0  0  0  0
  -24.8512  -31.4596   21.5342 C   0  0  1  0  0  0  0  0  0  0  0  0
  -28.1856  -12.9628   20.7569 C   0  0  2  0  0  0  0  0  0  0  0  0
  -28.7930  -24.4011   19.5639 C   0  0  2  0  0  0  0  0  0  0  0  0
  -29.8232  -25.1887   18.7618 C   0  0  0  0  0  0  0  0  0  0  0  0
  -20.1054  -27.5480   26.2438 C   0  0  0  0  0  0  0  0  0  0  0  0
  -25.9774  -30.5966   25.9327 C   0  0  0  0  0  0  0  0  0  0  0  0
  -24.3969  -29.1071   27.1785 C   0  0  0  0  0  0  0  0  0  0  0  0
  -23.7507  -31.4627   26.6718 C   0  0  0  0  0  0  0  0  0  0  0  0
  -19.9808  -27.6201   22.4418 C   0  0  0  0  0  0  0  0  0  0  0  0
  -27.7464  -25.3003   20.1928 C   0  0  0  0  0  0  0  0  0  1  0  0
  -23.8117  -29.7642   24.8001 C   0  0  1  0  0  0  0  0  0  0  0  0
  -20.4103  -28.0918   24.8567 C   0  0  2  0  0  0  0  0  0  0  0  0
  -24.4925  -30.2260   26.1194 C   0  0  0  0  0  0  0  0  0  0  0  0
  -26.1912  -11.5196   20.9012 N   0  0  0  0  0  0  0  0  0  0  0  0
  -26.9398  -12.3450   20.1499 N   0  0  0  0  0  0  0  0  0  0  0  0
  -28.8772  -22.3417   19.8548 N   0  0  0  0  0  0  0  0  0  0  0  0
  -24.5623  -30.4347   22.5394 N   0  0  0  0  0  0  0  0  0  0  0  0
  -29.1365  -14.8932   21.9568 N   0  0  0  0  0  0  0  0  0  0  0  0
  -27.0908  -13.3261   17.9993 N   0  0  0  0  0  0  0  0  0  0  0  0
  -23.3390  -10.8253   17.7427 N   0  0  0  0  0  0  0  0  0  0  0  0
  -29.0768  -16.8114   20.5859 N   0  0  0  0  0  0  0  0  0  0  0  0
  -26.4427  -33.2826   21.4984 N   0  0  0  0  0  0  0  0  0  0  0  0
  -22.3980  -29.4328   24.9414 N   0  0  0  0  0  0  0  0  0  0  0  0
  -19.7800  -27.1916   23.8500 N   0  3  0  0  0  0  0  0  0  0  0  0
  -30.1043  -23.4262   21.5472 O   0  0  0  0  0  0  0  0  0  0  0  0
  -24.7190  -12.2371   16.5761 O   0  0  0  0  0  0  0  0  0  0  0  0
  -27.0879  -31.1690   22.2324 O   0  0  0  0  0  0  0  0  0  0  0  0
  -23.3779  -31.9143   23.8973 O   0  0  0  0  0  0  0  0  0  0  0  0
  -22.5727  -27.2466   24.1882 O   0  0  0  0  0  0  0  0  0  0  0  0
  -30.7793  -16.5101   22.1327 O   0  0  0  0  0  0  0  0  0  0  0  0
  -21.1918   -7.6817   21.8100 O   0  0  0  0  0  0  0  0  0  0  0  0
  -26.9423  -25.8593   19.1549 O   0  0  0  0  0  0  0  0  0  1  0  0
  -19.6946   -3.6026   18.4155 F   0  0  0  0  0  0  0  0  0  0  0  0
  -27.6759  -17.9495   18.4612 F   0  0  0  0  0  0  0  0  0  0  0  0
  -21.4380   -5.0368   22.5759 F   0  0  0  0  0  0  0  0  0  0  0  0
  1  2  1  0  0  0  0
  1  5  2  0  0  0  0
  2  6  2  0  0  0  0
  3 10  2  0  0  0  0
  3 18  1  0  0  0  0
  4 11  1  0  0  0  0
  4 18  2  0  0  0  0
  5 20  1  0  0  0  0
  6 22  1  0  0  0  0
  7 12  2  0  0  0  0
  7 21  1  0  0  0  0
  8  9  2  0  0  0  0
  8 24  1  0  0  0  0
  9 25  1  0  0  0  0
 10 26  1  0  0  0  0
 11 26  2  0  0  0  0
 12 27  1  0  0  0  0
 13 14  2  0  0  0  0
 13 28  1  0  0  0  0
 14 29  1  0  0  0  0
 15 23  1  0  0  0  0
 15 27  2  0  0  0  0
 16 24  2  0  0  0  0
 16 30  1  0  0  0  0
 17 29  2  0  0  0  0
 17 31  1  0  0  0  0
 18 32  1  0  0  0  0
 19 32  1  0  0  0  0
 19 33  2  0  0  0  0
 19 35  1  0  0  0  0
 20 22  2  0  0  0  0
 20 40  1  0  0  0  0
 21 23  2  0  0  0  0
 21 41  1  0  0  0  0
 22 50  1  0  0  0  0
 23 42  1  0  0  0  0
 24 66  1  0  0  0  0
 25 30  2  0  0  0  0
 25 71  1  0  0  0  0
 26 81  1  0  0  0  0
 27 82  1  0  0  0  0
 28 31  2  0  0  0  0
 28 81  1  0  0  0  0
 29 83  1  0  0  0  0
 30 84  1  0  0  0  0
 31 85  1  0  0  0  0
 32 64  2  0  0  0  0
 33 65  1  0  0  0  0
 33 69  1  0  0  0  0
 34 53  1  0  0  0  0
 34 66  1  0  0  0  0
 34 75  2  0  0  0  0
 35 70  1  0  0  0  0
 35 76  2  0  0  0  0
 36 51  1  0  0  0  0
 36 72  1  0  0  0  0
 36 77  2  0  0  0  0
 37 61  1  0  0  0  0
 37 67  1  0  0  0  0
 37 78  2  0  0  0  0
 38 62  1  0  0  0  0
 38 73  1  0  0  0  0
 38 79  2  0  0  0  0
 39 68  1  0  0  0  0
 39 71  1  0  0  0  0
 39 80  2  0  0  0  0
 40 43  1  0  0  0  0
 41 51  1  0  0  0  0
 42 67  1  0  0  0  0
 43 45  1  0  0  0  0
 44 46  1  0  0  0  0
 44 47  1  0  0  0  0
 45 50  1  0  0  0  0
 46 52  1  0  0  0  0
 47 68  1  0  0  0  0
 48 52  1  0  0  0  0
 48 68  1  0  0  0  0
 49 53  1  0  0  0  0
 49 66  1  0  0  0  0
 50 72  1  0  0  0  0
 51 67  1  0  0  0  0
 52 65  1  0  0  0  0
 53 54  1  0  0  0  0
 53 60  1  0  0  0  0
 55 62  1  0  0  0  0
 56 63  1  0  0  0  0
 57 63  1  0  0  0  0
 58 63  1  0  0  0  0
 59 74  1  0  0  0  0
 60 82  1  0  0  0  0
 61 63  1  0  0  0  0
 61 73  1  0  0  0  0
 62 74  1  0  0  0  0
 64 65  1  0  0  0  0
M  CHG  1  74   1
M  ISO  4  39 100  60 101  71 100  82 101
M  END
> <Batch ID>
0075

> <Smiles>
CNC(C)C(=O)NC(C(=O)N1Cc2cc([101O:1][101CH2:1]C3(C)CN(c4ccc([100NH:0][100C:0](=O)N5CCCC(n6nc(-c7ccc(Oc8ccc(F)cc8F)cc7)c(C(N)=O)c6N)C5)c(F)c4)C3=O)ccc2CC1C(=O)NC1CCCc2ccccc21)C(C)(C)C

> <Shape>
0.300

> <Color>
0.095

> <Negative vol penalty>
0.000

$$$$

  -OEChem-04042323473D

 89 98  0     1  0  0  0  0  0999 V2000
  -19.0322  -18.1856   28.3630 C   0  0  0  0  0  0  0  0  0  0  0  0
  -20.2991  -18.6784   28.0669 C   0  0  0  0  0  0  0  0  0  0  0  0
  -23.1108   -9.8884   19.9091 C   0  0  0  0  0  0  0  0  0  0  0  0
  -23.8705   -9.8670   22.2025 C   0  0  0  0  0  0  0  0  0  0  0  0
  -17.9634  -18.4559   27.5095 C   0  0  0  0  0  0  0  0  0  0  0  0
  -20.4980  -19.4410   26.9165 C   0  0  0  0  0  0  0  0  0  0  0  0
  -23.3270  -23.5523   27.7760 C   0  0  0  0  0  0  0  0  0  0  0  0
  -22.3951   -8.7127   20.1353 C   0  0  0  0  0  0  0  0  0  0  0  0
  -23.1548   -8.6913   22.4286 C   0  0  0  0  0  0  0  0  0  0  0  0
  -24.7046  -23.3664   27.8822 C   0  0  0  0  0  0  0  0  0  0  0  0
  -19.9469   -7.8036   23.0135 C   0  0  0  0  0  0  0  0  0  0  0  0
  -19.1913   -7.7215   24.1831 C   0  0  0  0  0  0  0  0  0  0  0  0
  -31.6797  -18.5022   24.3444 C   0  0  0  0  0  0  0  0  0  0  0  0
  -31.9325  -16.7908   22.6580 C   0  0  0  0  0  0  0  0  0  0  0  0
  -24.9747  -24.1107   25.6035 C   0  0  0  0  0  0  0  0  0  0  0  0
  -29.7286  -17.5742   23.2631 C   0  0  0  0  0  0  0  0  0  0  0  0
  -20.4793   -5.8000   24.8804 C   0  0  0  0  0  0  0  0  0  0  0  0
  -23.8486  -10.4655   20.9427 C   0  0  0  0  0  0  0  0  0  0  0  0
  -32.4986  -17.6705   23.5806 C   0  0  0  0  0  0  0  0  0  0  0  0
  -24.1292  -13.0001   20.8743 C   0  0  0  0  0  0  0  0  0  0  0  0
  -18.1473  -19.2302   26.3532 C   0  0  0  0  0  0  0  0  0  0  0  0
  -22.7607  -24.0092   26.5772 C   0  0  0  0  0  0  0  0  0  0  0  0
  -19.4308  -19.7207   26.0461 C   0  0  0  0  0  0  0  0  0  0  0  0
  -23.5898  -24.3041   25.4855 C   0  0  0  0  0  0  0  0  0  0  0  0
  -30.2947  -18.4539   24.1857 C   0  0  0  0  0  0  0  0  0  0  0  0
  -30.5475  -16.7425   22.4992 C   0  0  0  0  0  0  0  0  0  0  0  0
  -22.4170   -8.1142   21.3950 C   0  0  0  0  0  0  0  0  0  0  0  0
  -25.5284  -23.6429   26.7950 C   0  0  0  0  0  0  0  0  0  0  0  0
  -20.9687   -6.8838   22.7773 C   0  0  0  0  0  0  0  0  0  0  0  0
  -19.4575   -6.7197   25.1165 C   0  0  0  0  0  0  0  0  0  0  0  0
  -21.2349   -5.8821   23.7108 C   0  0  0  0  0  0  0  0  0  0  0  0
  -24.5886  -11.6797   20.7096 C   0  0  0  0  0  0  0  0  0  0  0  0
  -25.2029  -13.7831   20.5268 C   0  0  0  0  0  0  0  0  0  0  0  0
  -28.6422  -20.8623   26.4621 C   0  0  0  0  0  0  0  0  0  0  0  0
  -29.8800  -20.2345   25.9280 C   0  0  0  0  0  0  0  0  0  0  0  0
  -33.9425  -17.7210   23.7459 C   0  0  0  0  0  0  0  0  0  0  0  0
  -22.8467  -13.4764   21.3032 C   0  0  0  0  0  0  0  0  0  0  0  0
  -28.6647  -21.8912   27.3128 C   0  0  0  0  0  0  0  0  0  0  0  0
  -20.6877  -22.8225   24.4801 C   0  0  0  0  0  0  0  0  0  0  0  0
  -20.9383  -25.7714   23.1521 C   0  0  0  0  0  0  0  0  0  0  0  0
  -22.7825  -28.6118   22.7306 C   0  0  0  0  0  0  0  0  0  0  0  0
  -30.6422  -14.9568   20.7248 C   0  0  0  0  0  0  0  0  0  0  0  0
  -16.9713  -19.4562   25.4362 C   0  0  0  0  0  0  0  0  0  0  0  0
  -21.2756  -24.2300   26.4873 C   0  0  0  0  0  0  0  0  0  0  0  0
  -23.0336  -24.8161   24.1828 C   0  0  0  0  0  0  0  0  0  0  0  0
  -27.4388  -20.1957   25.8934 C   0  0  0  0  0  0  0  0  0  0  0  0
  -17.1891  -20.5866   24.4337 C   0  0  0  0  0  0  0  0  0  0  0  0
  -29.5862  -12.5655   18.3075 C   0  0  0  0  0  0  0  0  0  0  0  0
  -18.5612  -20.4626   23.7791 C   0  0  0  0  0  0  0  0  0  0  0  0
  -28.1541  -12.2305   18.7305 C   0  0  0  0  0  0  0  0  0  0  0  0
  -28.0136  -19.3372   24.7788 C   0  0  0  0  0  0  0  0  0  0  0  0
  -30.4957  -12.7918   19.5139 C   0  0  0  0  0  0  0  0  0  0  0  0
  -28.5719  -13.4416   20.9089 C   0  0  0  0  0  0  0  0  0  0  0  0
  -19.6814  -20.5726   24.8206 C   0  0  1  0  0  0  0  0  0  0  0  0
  -20.7542  -24.2096   25.0538 C   0  0  1  0  0  0  0  0  0  0  0  0
  -27.6034  -13.2689   19.7274 C   0  0  2  0  0  0  0  0  0  0  0  0
  -22.7421  -30.8311   21.5600 C   0  0  0  0  0  0  0  0  0  0  0  0
  -21.6069  -24.3899   20.5150 C   0  0  0  0  0  0  0  0  0  0  0  0
  -22.4691  -26.5816   19.6657 C   0  0  0  0  0  0  0  0  0  0  0  0
  -20.0689  -26.3507   20.3048 C   0  0  0  0  0  0  0  0  0  0  0  0
  -22.8992  -30.0943   25.2894 C   0  0  0  0  0  0  0  0  0  0  0  0
  -27.3263  -22.4391   27.7821 C   0  0  0  0  0  0  0  0  0  1  0  0
  -21.8338  -26.4040   22.1143 C   0  0  1  0  0  0  0  0  0  0  0  0
  -22.4108  -30.0796   22.8399 C   0  0  2  0  0  0  0  0  0  0  0  0
  -21.5053  -25.9200   20.6737 C   0  0  0  0  0  0  0  0  0  0  0  0
  -25.8554  -11.6230   20.2899 N   0  0  0  0  0  0  0  0  0  0  0  0
  -26.2011  -12.9177   20.1879 N   0  0  0  0  0  0  0  0  0  0  0  0
  -29.4554  -19.3062   24.9685 N   0  0  0  0  0  0  0  0  0  0  0  0
  -21.5747  -25.0097   24.1424 N   0  0  0  0  0  0  0  0  0  0  0  0
  -29.9120  -13.7907   20.4119 N   0  0  0  0  0  0  0  0  0  0  0  0
  -25.3810  -15.1204   20.4810 N   0  0  0  0  0  0  0  0  0  0  0  0
  -34.7146  -16.8706   22.9597 N   0  0  0  0  0  0  0  0  0  0  0  0
  -21.8571  -12.5363   21.6215 N   0  0  0  0  0  0  0  0  0  0  0  0
  -29.9727  -15.8490   21.5617 N   0  0  0  0  0  0  0  0  0  0  0  0
  -19.8870  -21.9546   25.1977 N   0  0  0  0  0  0  0  0  0  0  0  0
  -21.7192  -27.8463   22.3009 N   0  0  0  0  0  0  0  0  0  0  0  0
  -23.1502  -30.7187   23.9650 N   0  3  0  0  0  0  0  0  0  0  0  0
  -29.6411  -22.4958   27.8359 O   0  5  0  0  0  0  0  0  0  0  0  0
  -31.0002  -20.5366   26.3046 O   0  0  0  0  0  0  0  0  0  0  0  0
  -34.4743  -18.4835   24.5719 O   0  0  0  0  0  0  0  0  0  0  0  0
  -22.5807  -14.6995   21.3855 O   0  0  0  0  0  0  0  0  0  0  0  0
  -21.3153  -22.5595   23.4609 O   0  0  0  0  0  0  0  0  0  0  0  0
  -19.7197  -25.9524   23.0906 O   0  0  0  0  0  0  0  0  0  0  0  0
  -23.9050  -28.1873   22.9960 O   0  0  0  0  0  0  0  0  0  0  0  0
  -31.7668  -15.1623   20.2612 O   0  0  0  0  0  0  0  0  0  0  0  0
  -21.7185   -6.9671   21.6161 O   0  0  0  0  0  0  0  0  0  0  0  0
  -26.8734  -23.4617   26.8958 O   0  0  0  0  0  0  0  0  0  1  0  0
  -18.7328   -6.6420   26.2403 F   0  0  0  0  0  0  0  0  0  0  0  0
  -22.2160   -4.9964   23.4899 F   0  0  0  0  0  0  0  0  0  0  0  0
  1  2  1  0  0  0  0
  1  5  2  0  0  0  0
  2  6  2  0  0  0  0
  3  8  2  0  0  0  0
  3 18  1  0  0  0  0
  4  9  1  0  0  0  0
  4 18  2  0  0  0  0
  5 21  1  0  0  0  0
  6 23  1  0  0  0  0
  7 10  2  0  0  0  0
  7 22  1  0  0  0  0
  8 27  1  0  0  0  0
  9 27  2  0  0  0  0
 10 28  1  0  0  0  0
 11 12  2  0  0  0  0
 11 29  1  0  0  0  0
 12 30  1  0  0  0  0
 13 19  1  0  0  0  0
 13 25  2  0  0  0  0
 14 19  2  0  0  0  0
 14 26  1  0  0  0  0
 15 24  1  0  0  0  0
 15 28  2  0  0  0  0
 16 25  1  0  0  0  0
 16 26  2  0  0  0  0
 17 30  2  0  0  0  0
 17 31  1  0  0  0  0
 18 32  1  0  0  0  0
 19 36  1  0  0  0  0
 20 32  1  0  0  0  0
 20 33  2  0  0  0  0
 20 37  1  0  0  0  0
 21 23  2  0  0  0  0
 21 43  1  0  0  0  0
 22 24  2  0  0  0  0
 22 44  1  0  0  0  0
 23 54  1  0  0  0  0
 24 45  1  0  0  0  0
 25 68  1  0  0  0  0
 26 74  1  0  0  0  0
 27 86  1  0  0  0  0
 28 87  1  0  0  0  0
 29 31  2  0  0  0  0
 29 86  1  0  0  0  0
 30 88  1  0  0  0  0
 31 89  1  0  0  0  0
 32 66  2  0  0  0  0
 33 67  1  0  0  0  0
 33 71  1  0  0  0  0
 34 35  1  0  0  0  0
 34 38  2  0  0  0  0
 34 46  1  0  0  0  0
 35 68  1  0  0  0  0
 35 79  2  0  0  0  0
 36 72  1  0  0  0  0
 36 80  2  0  0  0  0
 37 73  1  0  0  0  0
 37 81  2  0  0  0  0
 38 62  1  0  0  0  0
 38 78  1  0  0  0  0
 39 55  1  0  0  0  0
 39 75  1  0  0  0  0
 39 82  2  0  0  0  0
 40 63  1  0  0  0  0
 40 69  1  0  0  0  0
 40 83  2  0  0  0  0
 41 64  1  0  0  0  0
 41 76  1  0  0  0  0
 41 84  2  0  0  0  0
 42 70  1  0  0  0  0
 42 74  1  0  0  0  0
 42 85  2  0  0  0  0
 43 47  1  0  0  0  0
 44 55  1  0  0  0  0
 45 69  1  0  0  0  0
 46 51  1  0  0  0  0
 47 49  1  0  0  0  0
 48 50  1  0  0  0  0
 48 52  1  0  0  0  0
 49 54  1  0  0  0  0
 50 56  1  0  0  0  0
 51 68  1  0  0  0  0
 52 70  1  0  0  0  0
 53 56  1  0  0  0  0
 53 70  1  0  0  0  0
 54 75  1  0  0  0  0
 55 69  1  0  0  0  0
 56 67  1  0  0  0  0
 57 64  1  0  0  0  0
 58 65  1  0  0  0  0
 59 65  1  0  0  0  0
 60 65  1  0  0  0  0
 61 77  1  0  0  0  0
 62 87  1  0  0  0  0
 63 65  1  0  0  0  0
 63 76  1  0  0  0  0
 64 77  1  0  0  0  0
 66 67  1  0  0  0  0
M  CHG  2  77   1  78  -1
M  ISO  4  42 100  62 101  74 100  87 101
M  END
> <Batch ID>
0075

> <Smiles>
CNC(C)C(=O)NC(C(=O)N1Cc2cc([101O:1][101CH2:1]C(=O)C3CCN(c4cc([100NH:0][100C:0](=O)N5CCCC(n6nc(-c7ccc(Oc8ccc(F)cc8F)cc7)c(C(N)=O)c6N)C5)cc(C(N)=O)c4)C3=O)ccc2CC1C(=O)NC1CCCc2ccccc21)C(C)(C)C

> <Shape>
0.215

> <Color>
0.194

> <Negative vol penalty>
0.000

$$$$

  -OEChem-04042323473D

 96106  0     1  0  0  0  0  0999 V2000
  -28.0586  -33.6166   31.0239 C   0  0  0  0  0  0  0  0  0  0  0  0
  -26.8467  -33.5475   30.3442 C   0  0  0  0  0  0  0  0  0  0  0  0
  -22.7624  -12.1173   22.3966 C   0  0  0  0  0  0  0  0  0  0  0  0
  -24.1626  -10.1692   22.6820 C   0  0  0  0  0  0  0  0  0  0  0  0
  -29.2568  -33.4633   30.3276 C   0  0  0  0  0  0  0  0  0  0  0  0
  -26.8324  -33.3263   28.9675 C   0  0  0  0  0  0  0  0  0  0  0  0
  -23.4076  -27.6446   26.1602 C   0  0  0  0  0  0  0  0  0  0  0  0
  -22.0216  -11.7494   23.5197 C   0  0  0  0  0  0  0  0  0  0  0  0
  -23.4218   -9.8013   23.8052 C   0  0  0  0  0  0  0  0  0  0  0  0
  -22.5984  -26.6988   25.5304 C   0  0  0  0  0  0  0  0  0  0  0  0
  -20.4540   -8.3181   24.4557 C   0  0  0  0  0  0  0  0  0  0  0  0
  -20.0746   -6.9809   24.5723 C   0  0  0  0  0  0  0  0  0  0  0  0
  -23.4210  -27.4161   23.3724 C   0  0  0  0  0  0  0  0  0  0  0  0
  -30.3563  -20.0494   20.7992 C   0  0  0  0  0  0  0  0  0  0  0  0
  -28.7744  -18.2318   20.9750 C   0  0  0  0  0  0  0  0  0  0  0  0
  -31.0746  -17.7790   20.3911 C   0  0  0  0  0  0  0  0  0  0  0  0
  -21.2942   -6.8162   26.6514 C   0  0  0  0  0  0  0  0  0  0  0  0
  -23.8330  -11.3272   21.9777 C   0  0  0  0  0  0  0  0  0  0  0  0
  -24.1240  -11.8678   19.5017 C   0  0  0  0  0  0  0  0  0  0  0  0
  -29.2568  -33.2305   28.9432 C   0  0  0  0  0  0  0  0  0  0  0  0
  -24.2392  -28.4703   25.3985 C   0  0  0  0  0  0  0  0  0  0  0  0
  -28.0317  -33.1711   28.2518 C   0  0  0  0  0  0  0  0  0  0  0  0
  -24.2431  -28.3568   23.9985 C   0  0  0  0  0  0  0  0  0  0  0  0
  -29.0623  -19.5945   21.0524 C   0  0  0  0  0  0  0  0  0  0  0  0
  -31.3625  -19.1417   20.4684 C   0  0  0  0  0  0  0  0  0  0  0  0
  -29.7806  -17.3241   20.6443 C   0  0  0  0  0  0  0  0  0  0  0  0
  -22.3512  -10.5914   24.2240 C   0  0  0  0  0  0  0  0  0  0  0  0
  -22.6049  -26.5850   24.1399 C   0  0  0  0  0  0  0  0  0  0  0  0
  -21.2535   -8.9043   25.4369 C   0  0  0  0  0  0  0  0  0  0  0  0
  -20.4947   -6.2300   25.6701 C   0  0  0  0  0  0  0  0  0  0  0  0
  -21.6736   -8.1534   26.5347 C   0  0  0  0  0  0  0  0  0  0  0  0
  -24.5983  -11.7064   20.8173 C   0  0  0  0  0  0  0  0  0  0  0  0
  -25.2340  -12.2309   18.7787 C   0  0  0  0  0  0  0  0  0  0  0  0
  -22.6736  -22.7539   22.9740 C   0  0  0  0  0  0  0  0  0  0  0  0
  -22.7987  -11.7043   18.9798 C   0  0  0  0  0  0  0  0  0  0  0  0
  -24.6855  -21.3846   22.5152 C   0  0  0  0  0  0  0  0  0  0  0  0
  -26.8010  -31.2112   25.3714 C   0  0  0  0  0  0  0  0  0  0  0  0
  -27.6660  -29.1621   23.2587 C   0  0  0  0  0  0  0  0  0  0  0  0
  -29.3078  -27.4100   20.5678 C   0  0  0  0  0  0  0  0  0  0  0  0
  -30.3698  -14.9064   20.2519 C   0  0  0  0  0  0  0  0  0  0  0  0
  -30.5788  -33.1183   28.2260 C   0  0  0  0  0  0  0  0  0  0  0  0
  -25.0817  -29.5449   26.0303 C   0  0  0  0  0  0  0  0  0  0  0  0
  -25.1278  -29.2897   23.2175 C   0  0  0  0  0  0  0  0  0  0  0  0
  -30.4644  -32.5135   26.8290 C   0  0  0  0  0  0  0  0  0  0  0  0
  -29.9948  -11.7165   18.7153 C   0  0  0  0  0  0  0  0  0  0  0  0
  -29.3146  -33.1575   26.0609 C   0  0  0  0  0  0  0  0  0  0  0  0
  -28.5237  -11.3693   18.9549 C   0  0  0  0  0  0  0  0  0  0  0  0
  -21.9740  -23.1431   20.7328 C   0  0  0  0  0  0  0  0  0  0  0  0
  -30.6038  -12.4570   19.9046 C   0  0  0  0  0  0  0  0  0  0  0  0
  -23.3985  -22.6267   20.7295 C   0  0  0  0  0  0  0  0  0  0  0  0
  -26.6859  -20.1093   21.6603 C   0  0  0  0  0  0  0  0  0  0  0  0
  -28.3897  -13.2983   20.5822 C   0  0  0  0  0  0  0  0  0  0  0  0
  -28.2573  -21.9417   21.4404 C   0  0  0  0  0  0  0  0  0  0  0  0
  -27.9742  -32.9079   26.7626 C   0  0  1  0  0  0  0  0  0  0  0  0
  -25.9304  -21.4411   21.6650 C   0  0  2  0  0  0  0  0  0  0  0  0
  -26.4251  -29.7598   25.3104 C   0  0  1  0  0  0  0  0  0  0  0  0
  -27.7150  -12.6089   19.3851 C   0  0  2  0  0  0  0  0  0  0  0  0
  -21.7766  -23.6773   22.1566 C   0  0  1  0  0  0  0  0  0  0  0  0
  -26.9816  -22.4643   22.1419 C   0  0  0  0  0  0  0  0  0  0  0  0
  -26.6395  -23.8847   21.6819 C   0  0  0  0  0  0  0  0  0  0  0  0
  -27.1865  -22.4638   23.6694 C   0  0  0  0  0  0  0  0  0  0  0  0
  -19.4370  -24.4819   21.8026 C   0  0  0  0  0  0  0  0  0  0  0  0
  -31.2357  -28.0920   19.1134 C   0  0  0  0  0  0  0  0  0  0  0  0
  -25.5003  -30.1339   21.3432 C   0  0  0  0  0  0  0  0  0  0  0  0
  -26.9102  -29.3117   19.4446 C   0  0  0  0  0  0  0  0  0  0  0  0
  -27.7656  -31.1146   20.9415 C   0  0  0  0  0  0  0  0  0  0  0  0
  -30.8452  -24.9797   21.2668 C   0  0  0  0  0  0  0  0  0  0  0  0
  -20.3197  -23.5789   22.6005 C   0  0  0  0  0  0  0  0  0  0  0  0
  -22.2834  -25.1170   22.2963 C   0  0  0  0  0  0  0  0  0  1  0  0
  -27.6257  -28.7445   21.8105 C   0  0  1  0  0  0  0  0  0  0  0  0
  -30.8037  -27.2971   20.3357 C   0  0  2  0  0  0  0  0  0  0  0  0
  -26.9425  -29.8085   20.9058 C   0  0  0  0  0  0  0  0  0  0  0  0
  -25.9076  -11.9470   20.9266 N   0  0  0  0  0  0  0  0  0  0  0  0
  -26.2655  -12.2633   19.6704 N   0  0  0  0  0  0  0  0  0  0  0  0
  -28.0673  -20.4919   21.3792 N   0  0  3  0  0  0  0  0  0  0  0  0
  -23.6324  -22.1955   22.0985 N   0  0  0  0  0  0  0  0  0  0  0  0
  -26.4361  -29.4129   23.8791 N   0  0  0  0  0  0  0  0  0  0  0  0
  -29.7868  -13.6215   20.2526 N   0  0  0  0  0  0  0  0  0  0  0  0
  -32.6709  -19.6017   20.2121 N   0  0  0  0  0  0  0  0  0  0  0  0
  -25.4185  -12.5224   17.4736 N   0  0  0  0  0  0  0  0  0  0  0  0
  -21.7755  -11.3279   19.8606 N   0  0  0  0  0  0  0  0  0  0  0  0
  -29.4880  -15.9398   20.5667 N   0  0  0  0  0  0  0  0  0  0  0  0
  -27.5112  -31.5614   26.5038 N   0  0  0  0  0  0  0  0  0  0  0  0
  -29.0017  -28.4366   21.4360 N   0  0  0  0  0  0  0  0  0  0  0  0
  -31.1899  -25.8724   20.1305 N   0  3  0  0  0  0  0  0  0  0  0  0
  -22.5793  -22.5829   24.1823 O   0  0  0  0  0  0  0  0  0  0  0  0
  -22.5329  -11.8705   17.7653 O   0  0  0  0  0  0  0  0  0  0  0  0
  -24.6422  -20.6443   23.4994 O   0  0  0  0  0  0  0  0  0  0  0  0
  -26.4726  -31.9592   24.4579 O   0  0  0  0  0  0  0  0  0  0  0  0
  -28.7572  -29.2692   23.8254 O   0  0  0  0  0  0  0  0  0  0  0  0
  -28.4920  -26.6648   20.0296 O   0  0  0  0  0  0  0  0  0  0  0  0
  -31.5569  -15.0802   19.9646 O   0  0  0  0  0  0  0  0  0  0  0  0
  -21.6286  -10.2322   25.3201 O   0  0  0  0  0  0  0  0  0  0  0  0
  -21.8157  -25.6565   23.5319 O   0  0  0  0  0  0  0  0  0  1  0  0
  -20.1291   -4.9463   25.7827 F   0  0  0  0  0  0  0  0  0  0  0  0
  -22.4409   -8.7115   27.4811 F   0  0  0  0  0  0  0  0  0  0  0  0
  1  2  1  0  0  0  0
  1  5  2  0  0  0  0
  2  6  2  0  0  0  0
  3  8  2  0  0  0  0
  3 18  1  0  0  0  0
  4  9  1  0  0  0  0
  4 18  2  0  0  0  0
  5 20  1  0  0  0  0
  6 22  1  0  0  0  0
  7 10  2  0  0  0  0
  7 21  1  0  0  0  0
  8 27  1  0  0  0  0
  9 27  2  0  0  0  0
 10 28  1  0  0  0  0
 11 12  2  0  0  0  0
 11 29  1  0  0  0  0
 12 30  1  0  0  0  0
 13 23  1  0  0  0  0
 13 28  2  0  0  0  0
 14 24  1  0  0  0  0
 14 25  2  0  0  0  0
 15 24  2  0  0  0  0
 15 26  1  0  0  0  0
 16 25  1  0  0  0  0
 16 26  2  0  0  0  0
 17 30  2  0  0  0  0
 17 31  1  0  0  0  0
 18 32  1  0  0  0  0
 19 32  1  0  0  0  0
 19 33  2  0  0  0  0
 19 35  1  0  0  0  0
 20 22  2  0  0  0  0
 20 41  1  0  0  0  0
 21 23  2  0  0  0  0
 21 42  1  0  0  0  0
 22 54  1  0  0  0  0
 23 43  1  0  0  0  0
 24 75  1  0  0  0  0
 25 79  1  0  0  0  0
 26 82  1  0  0  0  0
 27 93  1  0  0  0  0
 28 94  1  0  0  0  0
 29 31  2  0  0  0  0
 29 93  1  0  0  0  0
 30 95  1  0  0  0  0
 31 96  1  0  0  0  0
 32 73  2  0  0  0  0
 33 74  1  0  0  0  0
 33 80  1  0  0  0  0
 34 58  1  0  0  0  0
 34 76  1  0  0  0  0
 34 86  2  0  0  0  0
 35 81  1  0  0  0  0
 35 87  2  0  0  0  0
 36 55  1  0  0  0  0
 36 76  1  0  0  0  0
 36 88  2  0  0  0  0
 37 56  1  0  0  0  0
 37 83  1  0  0  0  0
 37 89  2  0  0  0  0
 38 70  1  0  0  0  0
 38 77  1  0  0  0  0
 38 90  2  0  0  0  0
 39 71  1  0  0  0  0
 39 84  1  0  0  0  0
 39 91  2  0  0  0  0
 40 78  1  0  0  0  0
 40 82  1  0  0  0  0
 40 92  2  0  0  0  0
 41 44  1  0  0  0  0
 42 56  1  0  0  0  0
 43 77  1  0  0  0  0
 44 46  1  0  0  0  0
 45 47  1  0  0  0  0
 45 49  1  0  0  0  0
 46 54  1  0  0  0  0
 47 57  1  0  0  0  0
 48 50  1  0  0  0  0
 48 58  1  0  0  0  0
 49 78  1  0  0  0  0
 50 76  1  0  0  0  0
 51 55  1  0  0  0  0
 51 75  1  0  0  0  0
 52 57  1  0  0  0  0
 52 78  1  0  0  0  0
 53 59  1  0  0  0  0
 53 75  1  0  0  0  0
 54 83  1  0  0  0  0
 55 59  1  0  0  0  0
 56 77  1  0  0  0  0
 57 74  1  0  0  0  0
 58 68  1  0  0  0  0
 58 69  1  0  0  0  0
 59 60  1  0  0  0  0
 59 61  1  0  0  0  0
 62 68  1  0  0  0  0
 63 71  1  0  0  0  0
 64 72  1  0  0  0  0
 65 72  1  0  0  0  0
 66 72  1  0  0  0  0
 67 85  1  0  0  0  0
 69 94  1  0  0  0  0
 70 72  1  0  0  0  0
 70 84  1  0  0  0  0
 71 85  1  0  0  0  0
 73 74  1  0  0  0  0
M  CHG  1  85   1
M  ISO  4  40 100  69 101  82 100  94 101
M  END
> <Batch ID>
0075

> <Smiles>
CCC1([101CH2:1][101O:1]c2ccc3c(c2)CN(C(=O)C(NC(=O)C(C)NC)C(C)(C)C)C(C(=O)NC2CCCc4ccccc42)C3)CCN(C(=O)C2CN(c3cc(N)cc([100NH:0][100C:0](=O)N4CCCC(n5nc(-c6ccc(Oc7ccc(F)cc7F)cc6)c(C(N)=O)c5N)C4)c3)CC2(C)C)C1=O

> <Shape>
0.245

> <Color>
0.068

> <Negative vol penalty>
0.000

$$$$

  -OEChem-04042323473D

 88 96  0     1  0  0  0  0  0999 V2000
  -29.8646  -34.0036   26.5917 C   0  0  0  0  0  0  0  0  0  0  0  0
  -29.4512  -32.8666   25.9048 C   0  0  0  0  0  0  0  0  0  0  0  0
  -24.0684   -9.8446   22.1391 C   0  0  0  0  0  0  0  0  0  0  0  0
  -24.5232  -11.3682   23.9581 C   0  0  0  0  0  0  0  0  0  0  0  0
  -30.7857  -20.4549   20.0288 C   0  0  0  0  0  0  0  0  0  0  0  0
  -28.9299  -34.9664   26.9702 C   0  0  0  0  0  0  0  0  0  0  0  0
  -28.1025  -32.6913   25.5971 C   0  0  0  0  0  0  0  0  0  0  0  0
  -27.3845  -31.1171   20.8377 C   0  0  0  0  0  0  0  0  0  0  0  0
  -30.5627  -19.0915   19.8367 C   0  0  0  0  0  0  0  0  0  0  0  0
  -23.6347   -8.8837   23.0524 C   0  0  0  0  0  0  0  0  0  0  0  0
  -24.0895  -10.4072   24.8714 C   0  0  0  0  0  0  0  0  0  0  0  0
  -27.6132  -29.7677   20.5721 C   0  0  0  0  0  0  0  0  0  0  0  0
  -20.8557   -8.2514   24.8718 C   0  0  0  0  0  0  0  0  0  0  0  0
  -19.6750   -7.5677   24.5817 C   0  0  0  0  0  0  0  0  0  0  0  0
  -28.4018  -20.8275   20.1524 C   0  0  0  0  0  0  0  0  0  0  0  0
  -25.2393  -29.3512   20.6759 C   0  0  0  0  0  0  0  0  0  0  0  0
  -20.8841   -5.4760   24.5907 C   0  0  0  0  0  0  0  0  0  0  0  0
  -24.5128  -11.0869   22.5920 C   0  0  0  0  0  0  0  0  0  0  0  0
  -29.7053  -21.3229   20.1868 C   0  0  0  0  0  0  0  0  0  0  0  0
  -24.1809  -13.0667   21.0179 C   0  0  0  0  0  0  0  0  0  0  0  0
  -27.5704  -34.8074   26.6585 C   0  0  0  0  0  0  0  0  0  0  0  0
  -26.0802  -31.5925   21.0356 C   0  0  0  0  0  0  0  0  0  0  0  0
  -27.1485  -33.6522   25.9730 C   0  0  0  0  0  0  0  0  0  0  0  0
  -24.9966  -30.7076   20.9413 C   0  0  0  0  0  0  0  0  0  0  0  0
  -29.2593  -18.5960   19.8023 C   0  0  0  0  0  0  0  0  0  0  0  0
  -23.6452   -9.1650   24.4185 C   0  0  0  0  0  0  0  0  0  0  0  0
  -26.5407  -28.8840   20.4940 C   0  0  0  0  0  0  0  0  0  0  0  0
  -22.0506   -7.5475   25.0212 C   0  0  0  0  0  0  0  0  0  0  0  0
  -19.6892   -6.1800   24.4412 C   0  0  0  0  0  0  0  0  0  0  0  0
  -28.1788  -19.4640   19.9601 C   0  0  0  0  0  0  0  0  0  0  0  0
  -22.0648   -6.1598   24.8807 C   0  0  0  0  0  0  0  0  0  0  0  0
  -24.9615  -12.0797   21.6491 C   0  0  0  0  0  0  0  0  0  0  0  0
  -25.0688  -13.7508   20.2240 C   0  0  0  0  0  0  0  0  0  0  0  0
  -29.9405  -22.7665   20.3904 C   0  0  0  0  0  0  0  0  0  0  0  0
  -22.7788  -13.3406   21.1384 C   0  0  0  0  0  0  0  0  0  0  0  0
  -24.5381  -32.9745   23.4472 C   0  0  0  0  0  0  0  0  0  0  0  0
  -28.1933  -25.6630   19.8056 C   0  0  0  0  0  0  0  0  0  0  0  0
  -22.1645  -33.2589   21.2547 C   0  0  0  0  0  0  0  0  0  0  0  0
  -20.7322  -32.1254   18.3718 C   0  0  0  0  0  0  0  0  0  0  0  0
  -29.9985  -16.2160   19.4344 C   0  0  0  0  0  0  0  0  0  0  0  0
  -26.5905  -35.8524   27.1300 C   0  0  0  0  0  0  0  0  0  0  0  0
  -25.8483  -33.0559   21.2948 C   0  0  0  0  0  0  0  0  0  0  0  0
  -23.5756  -31.1714   21.1258 C   0  0  0  0  0  0  0  0  0  0  0  0
  -25.2329  -35.7712   26.4368 C   0  0  0  0  0  0  0  0  0  0  0  0
  -29.8548  -12.6898   18.9632 C   0  0  0  0  0  0  0  0  0  0  0  0
  -24.7386  -34.3286   26.3982 C   0  0  0  0  0  0  0  0  0  0  0  0
  -28.5047  -12.2979   19.5680 C   0  0  0  0  0  0  0  0  0  0  0  0
  -30.5276  -13.8094   19.7554 C   0  0  0  0  0  0  0  0  0  0  0  0
  -28.3476  -14.6092   20.5781 C   0  0  0  0  0  0  0  0  0  0  0  0
  -25.6978  -33.4380   25.5992 C   0  0  1  0  0  0  0  0  0  0  0  0
  -24.5191  -33.3364   21.9890 C   0  0  1  0  0  0  0  0  0  0  0  0
  -27.6020  -13.5295   19.7768 C   0  0  2  0  0  0  0  0  0  0  0  0
  -18.7792  -32.5333   16.8498 C   0  0  0  0  0  0  0  0  0  0  0  0
  -29.5302  -25.3763   17.0609 C   0  0  0  0  0  0  0  0  0  0  0  0
  -31.7142  -25.0564   18.2499 C   0  0  0  0  0  0  0  0  0  0  0  0
  -20.3187  -31.8862   23.2593 C   0  0  0  0  0  0  0  0  0  0  0  0
  -18.7092  -31.4706   21.3872 C   0  0  0  0  0  0  0  0  0  0  0  0
  -19.2864  -33.8087   22.0375 C   0  0  0  0  0  0  0  0  0  0  0  0
  -22.4991  -32.7589   16.0837 C   0  0  0  0  0  0  0  0  0  0  0  0
  -28.1164  -27.1576   20.0548 C   0  0  0  0  0  0  0  0  0  1  0  0
  -29.5816  -25.0792   19.6034 C   0  0  2  0  0  0  0  0  0  0  0  0
  -20.9997  -32.4012   20.8227 C   0  0  1  0  0  0  0  0  0  0  0  0
  -20.2368  -32.8575   17.1377 C   0  0  2  0  0  0  0  0  0  0  0  0
  -30.2987  -25.6304   18.3613 C   0  0  0  0  0  0  0  0  0  0  0  0
  -19.8553  -32.3822   21.8751 C   0  0  0  0  0  0  0  0  0  0  0  0
  -26.2463  -12.1289   21.2873 N   0  0  0  0  0  0  0  0  0  0  0  0
  -26.2799  -13.1550   20.4201 N   0  0  0  0  0  0  0  0  0  0  0  0
  -23.4009  -32.6104   21.3834 N   0  0  0  0  0  0  0  0  0  0  0  0
  -29.6148  -14.9442   19.9097 N   0  0  0  0  0  0  0  0  0  0  0  0
  -24.9238  -14.7978   19.3843 N   0  0  0  0  0  0  0  0  0  0  0  0
  -22.0133  -12.5413   21.9983 N   0  0  0  0  0  0  0  0  0  0  0  0
  -29.0363  -17.2104   19.6070 N   0  0  0  0  0  0  0  0  0  0  0  0
  -29.4318  -23.6285   19.4996 N   0  0  0  0  0  0  0  0  0  0  0  0
  -25.5062  -33.6360   24.1785 N   0  0  0  0  0  0  0  0  0  0  0  0
  -20.5959  -32.8923   19.5096 N   0  0  0  0  0  0  0  0  0  0  0  0
  -30.6520  -23.1433   21.4529 N   0  3  0  0  0  0  0  0  0  0  0  0
  -21.0475  -32.4738   15.9475 N   0  3  0  0  0  0  0  0  0  0  0  0
  -22.2180  -14.2564   20.4899 O   0  0  0  0  0  0  0  0  0  0  0  0
  -23.7331  -32.1568   23.8773 O   0  0  0  0  0  0  0  0  0  0  0  0
  -27.1797  -24.9644   19.7759 O   0  0  0  0  0  0  0  0  0  0  0  0
  -21.9854  -34.4614   21.4630 O   0  0  0  0  0  0  0  0  0  0  0  0
  -21.1905  -30.9858   18.3312 O   0  0  0  0  0  0  0  0  0  0  0  0
  -31.0887  -16.4029   18.8881 O   0  0  0  0  0  0  0  0  0  0  0  0
  -23.2218   -8.2276   25.3099 O   0  0  0  0  0  0  0  0  0  0  0  0
  -26.7612  -27.5662   20.2355 O   0  0  0  0  0  0  0  0  0  1  0  0
  -18.5550   -5.5234   24.1642 F   0  0  0  0  0  0  0  0  0  0  0  0
  -26.9218  -18.9991   19.9274 F   0  0  0  0  0  0  0  0  0  0  0  0
  -23.2094   -5.4779   25.0243 F   0  0  0  0  0  0  0  0  0  0  0  0
  1  2  1  0  0  0  0
  1  6  2  0  0  0  0
  2  7  2  0  0  0  0
  3 10  2  0  0  0  0
  3 18  1  0  0  0  0
  4 11  1  0  0  0  0
  4 18  2  0  0  0  0
  5  9  2  0  0  0  0
  5 19  1  0  0  0  0
  6 21  1  0  0  0  0
  7 23  1  0  0  0  0
  8 12  2  0  0  0  0
  8 22  1  0  0  0  0
  9 25  1  0  0  0  0
 10 26  1  0  0  0  0
 11 26  2  0  0  0  0
 12 27  1  0  0  0  0
 13 14  2  0  0  0  0
 13 28  1  0  0  0  0
 14 29  1  0  0  0  0
 15 19  2  0  0  0  0
 15 30  1  0  0  0  0
 16 24  1  0  0  0  0
 16 27  2  0  0  0  0
 17 29  2  0  0  0  0
 17 31  1  0  0  0  0
 18 32  1  0  0  0  0
 19 34  1  0  0  0  0
 20 32  1  0  0  0  0
 20 33  2  0  0  0  0
 20 35  1  0  0  0  0
 21 23  2  0  0  0  0
 21 41  1  0  0  0  0
 22 24  2  0  0  0  0
 22 42  1  0  0  0  0
 23 50  1  0  0  0  0
 24 43  1  0  0  0  0
 25 30  2  0  0  0  0
 25 72  1  0  0  0  0
 26 84  1  0  0  0  0
 27 85  1  0  0  0  0
 28 31  2  0  0  0  0
 28 84  1  0  0  0  0
 29 86  1  0  0  0  0
 30 87  1  0  0  0  0
 31 88  1  0  0  0  0
 32 66  2  0  0  0  0
 33 67  1  0  0  0  0
 33 70  1  0  0  0  0
 34 73  1  0  0  0  0
 34 76  2  0  0  0  0
 35 71  1  0  0  0  0
 35 78  2  0  0  0  0
 36 51  1  0  0  0  0
 36 74  1  0  0  0  0
 36 79  2  0  0  0  0
 37 60  1  0  0  0  0
 37 61  1  0  0  0  0
 37 80  2  0  0  0  0
 38 62  1  0  0  0  0
 38 68  1  0  0  0  0
 38 81  2  0  0  0  0
 39 63  1  0  0  0  0
 39 75  1  0  0  0  0
 39 82  2  0  0  0  0
 40 69  1  0  0  0  0
 40 72  1  0  0  0  0
 40 83  2  0  0  0  0
 41 44  1  0  0  0  0
 42 51  1  0  0  0  0
 43 68  1  0  0  0  0
 44 46  1  0  0  0  0
 45 47  1  0  0  0  0
 45 48  1  0  0  0  0
 46 50  1  0  0  0  0
 47 52  1  0  0  0  0
 48 69  1  0  0  0  0
 49 52  1  0  0  0  0
 49 69  1  0  0  0  0
 50 74  1  0  0  0  0
 51 68  1  0  0  0  0
 52 67  1  0  0  0  0
 53 63  1  0  0  0  0
 54 64  1  0  0  0  0
 55 64  1  0  0  0  0
 56 65  1  0  0  0  0
 57 65  1  0  0  0  0
 58 65  1  0  0  0  0
 59 77  1  0  0  0  0
 60 85  1  0  0  0  0
 61 64  1  0  0  0  0
 61 73  1  0  0  0  0
 62 65  1  0  0  0  0
 62 75  1  0  0  0  0
 63 77  1  0  0  0  0
 66 67  1  0  0  0  0
M  CHG  2  76   1  77   1
M  ISO  4  40 100  60 101  72 100  85 101
M  END
> <Batch ID>
0075

> <Smiles>
CNC(C)C(=O)NC(C(=O)N1Cc2cc([101O:1][101CH2:1]C(=O)C(NC(=N)c3ccc([100NH:0][100C:0](=O)N4CCCC(n5nc(-c6ccc(Oc7ccc(F)cc7F)cc6)c(C(N)=O)c5N)C4)c(F)c3)C(C)C)ccc2CC1C(=O)NC1CCCc2ccccc21)C(C)(C)C

> <Shape>
0.299

> <Color>
0.116

> <Negative vol penalty>
0.000

$$$$

  -OEChem-04042323473D

 87 96  0     1  0  0  0  0  0999 V2000
  -31.8364  -29.3863   14.4391 C   0  0  0  0  0  0  0  0  0  0  0  0
  -30.7538  -28.5180   14.5362 C   0  0  0  0  0  0  0  0  0  0  0  0
  -29.7636  -20.5285   22.7796 C   0  0  0  0  0  0  0  0  0  0  0  0
  -23.5108   -9.7592   21.6517 C   0  0  0  0  0  0  0  0  0  0  0  0
  -24.1102  -10.9591   23.6613 C   0  0  0  0  0  0  0  0  0  0  0  0
  -32.5486  -29.7413   15.5839 C   0  0  0  0  0  0  0  0  0  0  0  0
  -30.3836  -28.0032   15.7781 C   0  0  0  0  0  0  0  0  0  0  0  0
  -24.6006  -25.9324   19.4640 C   0  0  0  0  0  0  0  0  0  0  0  0
  -30.2953  -19.6291   21.8555 C   0  0  0  0  0  0  0  0  0  0  0  0
  -28.3882  -20.7577   22.8179 C   0  0  0  0  0  0  0  0  0  0  0  0
  -22.9242   -8.7574   22.4249 C   0  0  0  0  0  0  0  0  0  0  0  0
  -23.5235   -9.9572   24.4344 C   0  0  0  0  0  0  0  0  0  0  0  0
  -24.1211  -24.8461   20.1946 C   0  0  0  0  0  0  0  0  0  0  0  0
  -23.9435   -6.0983   24.2454 C   0  0  0  0  0  0  0  0  0  0  0  0
  -24.2178   -4.7737   23.9050 C   0  0  0  0  0  0  0  0  0  0  0  0
  -25.3759  -25.5916   22.1152 C   0  0  0  0  0  0  0  0  0  0  0  0
  -28.0763  -19.1882   21.0078 C   0  0  0  0  0  0  0  0  0  0  0  0
  -21.8622   -4.3797   23.5403 C   0  0  0  0  0  0  0  0  0  0  0  0
  -24.1039  -10.8601   22.2699 C   0  0  0  0  0  0  0  0  0  0  0  0
  -24.0894  -13.0527   20.9662 C   0  0  0  0  0  0  0  0  0  0  0  0
  -32.1810  -29.2383   16.8418 C   0  0  0  0  0  0  0  0  0  0  0  0
  -25.4815  -26.8520   20.0512 C   0  0  0  0  0  0  0  0  0  0  0  0
  -31.0924  -28.3507   16.9406 C   0  0  0  0  0  0  0  0  0  0  0  0
  -25.8631  -26.6901   21.3907 C   0  0  0  0  0  0  0  0  0  0  0  0
  -29.4517  -18.9590   20.9696 C   0  0  0  0  0  0  0  0  0  0  0  0
  -27.5446  -20.0876   21.9320 C   0  0  0  0  0  0  0  0  0  0  0  0
  -22.9305   -8.8564   23.8162 C   0  0  0  0  0  0  0  0  0  0  0  0
  -24.5110  -24.6739   21.5195 C   0  0  0  0  0  0  0  0  0  0  0  0
  -22.6286   -6.5636   24.2334 C   0  0  0  0  0  0  0  0  0  0  0  0
  -23.1771   -3.9144   23.5524 C   0  0  0  0  0  0  0  0  0  0  0  0
  -21.5879   -5.7043   23.8808 C   0  0  0  0  0  0  0  0  0  0  0  0
  -24.7106  -11.8951   21.4719 C   0  0  0  0  0  0  0  0  0  0  0  0
  -25.0849  -13.7051   20.2808 C   0  0  0  0  0  0  0  0  0  0  0  0
  -25.4535  -21.1951   22.8436 C   0  0  0  0  0  0  0  0  0  0  0  0
  -22.7336  -13.4986   21.1038 C   0  0  0  0  0  0  0  0  0  0  0  0
  -28.4673  -27.7789   19.4773 C   0  0  0  0  0  0  0  0  0  0  0  0
  -27.8296  -29.9441   21.8071 C   0  0  0  0  0  0  0  0  0  0  0  0
  -25.9796  -30.7918   24.5468 C   0  0  0  0  0  0  0  0  0  0  0  0
  -30.3431  -15.5379   19.9103 C   0  0  0  0  0  0  0  0  0  0  0  0
  -33.0103  -29.6134   18.0444 C   0  0  0  0  0  0  0  0  0  0  0  0
  -25.9687  -28.0332   19.2577 C   0  0  0  0  0  0  0  0  0  0  0  0
  -26.7907  -27.6604   22.0738 C   0  0  0  0  0  0  0  0  0  0  0  0
  -32.3221  -29.3190   19.3748 C   0  0  0  0  0  0  0  0  0  0  0  0
  -29.7158  -12.1681   18.9470 C   0  0  0  0  0  0  0  0  0  0  0  0
  -31.7153  -27.9196   19.3638 C   0  0  0  0  0  0  0  0  0  0  0  0
  -28.3097  -11.8906   19.4816 C   0  0  0  0  0  0  0  0  0  0  0  0
  -23.8541  -19.8943   21.6474 C   0  0  0  0  0  0  0  0  0  0  0  0
  -30.5115  -13.0665   19.8914 C   0  0  0  0  0  0  0  0  0  0  0  0
  -25.2268  -19.6885   21.0363 C   0  0  0  0  0  0  0  0  0  0  0  0
  -28.4383  -14.0541   20.7859 C   0  0  0  0  0  0  0  0  0  0  0  0
  -30.6448  -27.7909   18.2734 C   0  0  1  0  0  0  0  0  0  0  0  0
  -27.2669  -28.6230   19.8002 C   0  0  1  0  0  0  0  0  0  0  0  0
  -27.5782  -13.1979   19.8407 C   0  0  2  0  0  0  0  0  0  0  0  0
  -23.9864  -21.2109   22.4170 C   0  0  1  0  0  0  0  0  0  0  0  0
  -23.0518  -21.2550   23.6235 C   0  0  0  0  0  0  0  0  0  0  0  0
  -29.7373  -18.3991   18.5269 C   0  0  0  0  0  0  0  0  0  0  0  0
  -25.7135  -32.6066   26.2594 C   0  0  0  0  0  0  0  0  0  0  0  0
  -30.3442  -28.9654   23.2314 C   0  0  0  0  0  0  0  0  0  0  0  0
  -29.5209  -30.0917   25.3103 C   0  0  0  0  0  0  0  0  0  0  0  0
  -30.0189  -31.4447   23.2745 C   0  0  0  0  0  0  0  0  0  0  0  0
  -23.1882  -31.3231   23.7194 C   0  0  0  0  0  0  0  0  0  0  0  0
  -23.7448  -22.4225   21.5092 C   0  0  0  0  0  0  0  0  0  1  0  0
  -30.0206  -17.9975   19.9818 C   0  0  2  0  0  0  0  0  0  0  0  0
  -27.9666  -29.9686   23.3103 C   0  0  1  0  0  0  0  0  0  0  0  0
  -25.2505  -32.0719   24.9131 C   0  0  2  0  0  0  0  0  0  0  0  0
  -29.4467  -30.0981   23.7684 C   0  0  0  0  0  0  0  0  0  0  0  0
  -26.0008  -11.8137   21.1362 N   0  0  0  0  0  0  0  0  0  0  0  0
  -26.1984  -12.9285   20.4122 N   0  0  0  0  0  0  0  0  0  0  0  0
  -26.1367  -20.3220   21.9719 N   0  0  0  0  0  0  0  0  0  0  0  0
  -27.2450  -28.7959   21.2541 N   0  0  0  0  0  0  0  0  0  0  0  0
  -29.7631  -14.2897   20.1908 N   0  0  0  0  0  0  0  0  0  0  0  0
  -25.1077  -14.8614   19.5844 N   0  0  0  0  0  0  0  0  0  0  0  0
  -21.8418  -12.7078   21.8410 N   0  0  0  0  0  0  0  0  0  0  0  0
  -29.4123  -28.4192   18.6986 N   0  0  0  0  0  0  0  0  0  0  0  0
  -27.0990  -31.0426   23.7817 N   0  0  0  0  0  0  0  0  0  0  0  0
  -29.5639  -16.6462   20.2186 N   0  0  0  0  0  0  0  0  0  0  0  0
  -23.7818  -31.8294   24.9836 N   0  3  0  0  0  0  0  0  0  0  0  0
  -25.8913  -21.8914   23.7490 O   0  0  0  0  0  0  0  0  0  0  0  0
  -22.3211  -14.5584   20.5744 O   0  0  0  0  0  0  0  0  0  0  0  0
  -28.5321  -26.6321   19.9044 O   0  0  0  0  0  0  0  0  0  0  0  0
  -28.2201  -30.9111   21.1484 O   0  0  0  0  0  0  0  0  0  0  0  0
  -25.5967  -29.6807   24.9067 O   0  0  0  0  0  0  0  0  0  0  0  0
  -31.4697  -15.6557   19.4164 O   0  0  0  0  0  0  0  0  0  0  0  0
  -22.3580   -7.8791   24.5709 O   0  0  0  0  0  0  0  0  0  0  0  0
  -24.0449  -23.6141   22.2347 O   0  0  0  0  0  0  0  0  0  1  0  0
  -23.4408   -2.6429   23.2240 F   0  0  0  0  0  0  0  0  0  0  0  0
  -20.3228   -6.1459   23.8663 F   0  0  0  0  0  0  0  0  0  0  0  0
  1  2  1  0  0  0  0
  1  6  2  0  0  0  0
  2  7  2  0  0  0  0
  3  9  1  0  0  0  0
  3 10  2  0  0  0  0
  4 11  2  0  0  0  0
  4 19  1  0  0  0  0
  5 12  1  0  0  0  0
  5 19  2  0  0  0  0
  6 21  1  0  0  0  0
  7 23  1  0  0  0  0
  8 13  2  0  0  0  0
  8 22  1  0  0  0  0
  9 25  2  0  0  0  0
 10 26  1  0  0  0  0
 11 27  1  0  0  0  0
 12 27  2  0  0  0  0
 13 28  1  0  0  0  0
 14 15  2  0  0  0  0
 14 29  1  0  0  0  0
 15 30  1  0  0  0  0
 16 24  1  0  0  0  0
 16 28  2  0  0  0  0
 17 25  1  0  0  0  0
 17 26  2  0  0  0  0
 18 30  2  0  0  0  0
 18 31  1  0  0  0  0
 19 32  1  0  0  0  0
 20 32  1  0  0  0  0
 20 33  2  0  0  0  0
 20 35  1  0  0  0  0
 21 23  2  0  0  0  0
 21 40  1  0  0  0  0
 22 24  2  0  0  0  0
 22 41  1  0  0  0  0
 23 51  1  0  0  0  0
 24 42  1  0  0  0  0
 25 63  1  0  0  0  0
 26 69  1  0  0  0  0
 27 84  1  0  0  0  0
 28 85  1  0  0  0  0
 29 31  2  0  0  0  0
 29 84  1  0  0  0  0
 30 86  1  0  0  0  0
 31 87  1  0  0  0  0
 32 67  2  0  0  0  0
 33 68  1  0  0  0  0
 33 72  1  0  0  0  0
 34 54  1  0  0  0  0
 34 69  1  0  0  0  0
 34 78  2  0  0  0  0
 35 73  1  0  0  0  0
 35 79  2  0  0  0  0
 36 52  1  0  0  0  0
 36 74  1  0  0  0  0
 36 80  2  0  0  0  0
 37 64  1  0  0  0  0
 37 70  1  0  0  0  0
 37 81  2  0  0  0  0
 38 65  1  0  0  0  0
 38 75  1  0  0  0  0
 38 82  2  0  0  0  0
 39 71  1  0  0  0  0
 39 76  1  0  0  0  0
 39 83  2  0  0  0  0
 40 43  1  0  0  0  0
 41 52  1  0  0  0  0
 42 70  1  0  0  0  0
 43 45  1  0  0  0  0
 44 46  1  0  0  0  0
 44 48  1  0  0  0  0
 45 51  1  0  0  0  0
 46 53  1  0  0  0  0
 47 49  1  0  0  0  0
 47 54  1  0  0  0  0
 48 71  1  0  0  0  0
 49 69  1  0  0  0  0
 50 53  1  0  0  0  0
 50 71  1  0  0  0  0
 51 74  1  0  0  0  0
 52 70  1  0  0  0  0
 53 68  1  0  0  0  0
 54 55  1  0  0  0  0
 54 62  1  0  0  0  0
 56 63  1  0  0  0  0
 57 65  1  0  0  0  0
 58 66  1  0  0  0  0
 59 66  1  0  0  0  0
 60 66  1  0  0  0  0
 61 77  1  0  0  0  0
 62 85  1  0  0  0  0
 63 76  1  0  0  0  0
 64 66  1  0  0  0  0
 64 75  1  0  0  0  0
 65 77  1  0  0  0  0
 67 68  1  0  0  0  0
M  CHG  1  77   1
M  ISO  4  39 100  62 101  76 100  85 101
M  END
> <Batch ID>
0075

> <Smiles>
CNC(C)C(=O)NC(C(=O)N1Cc2cc([101O:1][101CH2:1]C3(C)CCN(c4cccc(C(C)[100NH:0][100C:0](=O)N5CCCC(n6nc(-c7ccc(Oc8ccc(F)cc8F)cc7)c(C(N)=O)c6N)C5)c4)C3=O)ccc2CC1C(=O)NC1CCCc2ccccc21)C(C)(C)C

> <Shape>
0.258

> <Color>
0.147

> <Negative vol penalty>
0.000

$$$$

  -OEChem-04042323473D

 85 93  0     1  0  0  0  0  0999 V2000
  -31.4774  -35.5613   22.3125 C   0  0  0  0  0  0  0  0  0  0  0  0
  -31.2783  -34.1988   22.1141 C   0  0  0  0  0  0  0  0  0  0  0  0
  -24.4309   -8.4367   20.6041 C   0  0  0  0  0  0  0  0  0  0  0  0
  -22.9672  -10.3049   21.0563 C   0  0  0  0  0  0  0  0  0  0  0  0
  -28.0969  -19.7364   19.1432 C   0  0  0  0  0  0  0  0  0  0  0  0
  -29.1773  -20.2363   21.2456 C   0  0  0  0  0  0  0  0  0  0  0  0
  -30.6080  -36.2795   23.1325 C   0  0  0  0  0  0  0  0  0  0  0  0
  -30.2103  -33.5534   22.7364 C   0  0  0  0  0  0  0  0  0  0  0  0
  -27.7298  -30.4412   19.6051 C   0  0  0  0  0  0  0  0  0  0  0  0
  -28.1720  -18.3732   19.4287 C   0  0  0  0  0  0  0  0  0  0  0  0
  -29.2524  -18.8730   21.5311 C   0  0  0  0  0  0  0  0  0  0  0  0
  -23.4125   -7.5526   20.9601 C   0  0  0  0  0  0  0  0  0  0  0  0
  -21.9487   -9.4207   21.4122 C   0  0  0  0  0  0  0  0  0  0  0  0
  -28.3150  -29.2034   19.3420 C   0  0  0  0  0  0  0  0  0  0  0  0
  -22.0318   -6.3596   23.8052 C   0  0  0  0  0  0  0  0  0  0  0  0
  -22.3643   -5.2900   24.6365 C   0  0  0  0  0  0  0  0  0  0  0  0
  -26.8364  -28.1706   20.9439 C   0  0  0  0  0  0  0  0  0  0  0  0
  -21.6458   -3.7394   22.9287 C   0  0  0  0  0  0  0  0  0  0  0  0
  -24.2083   -9.8129   20.6522 C   0  0  0  0  0  0  0  0  0  0  0  0
  -28.5996  -20.6680   20.0516 C   0  0  0  0  0  0  0  0  0  0  0  0
  -25.5265  -11.2458   19.0040 C   0  0  0  0  0  0  0  0  0  0  0  0
  -29.5231  -35.6446   23.7574 C   0  0  0  0  0  0  0  0  0  0  0  0
  -26.6991  -30.5549   20.5491 C   0  0  0  0  0  0  0  0  0  0  0  0
  -29.3264  -34.2635   23.5666 C   0  0  0  0  0  0  0  0  0  0  0  0
  -26.2380  -29.4105   21.2153 C   0  0  0  0  0  0  0  0  0  0  0  0
  -28.7497  -17.9414   20.6226 C   0  0  0  0  0  0  0  0  0  0  0  0
  -22.1714   -8.0446   21.3641 C   0  0  0  0  0  0  0  0  0  0  0  0
  -27.8703  -28.0683   20.0135 C   0  0  0  0  0  0  0  0  0  0  0  0
  -21.5062   -6.1192   22.5357 C   0  0  0  0  0  0  0  0  0  0  0  0
  -22.1713   -3.9800   24.1982 C   0  0  0  0  0  0  0  0  0  0  0  0
  -21.3133   -4.8091   22.0975 C   0  0  0  0  0  0  0  0  0  0  0  0
  -25.2601  -10.7267   20.2852 C   0  0  0  0  0  0  0  0  0  0  0  0
  -26.6187  -12.0591   19.1834 C   0  0  0  0  0  0  0  0  0  0  0  0
  -29.0423  -26.2010   20.7945 C   0  0  0  0  0  0  0  0  0  1  0  0
  -28.5203  -22.1112   19.7495 C   0  0  0  0  0  0  0  0  0  0  0  0
  -24.8475  -11.0136   17.7628 C   0  0  0  0  0  0  0  0  0  0  0  0
  -29.6428  -25.0044   20.6895 C   0  0  0  0  0  0  0  0  0  0  0  0
  -26.3370  -32.1084   23.2985 C   0  0  0  0  0  0  0  0  0  0  0  0
  -23.2978  -30.9963   23.0778 C   0  0  0  0  0  0  0  0  0  0  0  0
  -21.1521  -28.6591   21.8207 C   0  0  0  0  0  0  0  0  0  0  0  0
  -29.3677  -15.9606   22.0512 C   0  0  0  0  0  0  0  0  0  0  0  0
  -28.6379  -36.4530   24.6726 C   0  0  0  0  0  0  0  0  0  0  0  0
  -26.0601  -31.8929   20.8020 C   0  0  0  0  0  0  0  0  0  0  0  0
  -25.1208  -29.4757   22.2232 C   0  0  0  0  0  0  0  0  0  0  0  0
  -27.3113  -35.7705   24.9961 C   0  0  0  0  0  0  0  0  0  0  0  0
  -29.7112  -12.5930   23.1549 C   0  0  0  0  0  0  0  0  0  0  0  0
  -27.5399  -34.3094   25.3700 C   0  0  0  0  0  0  0  0  0  0  0  0
  -28.6057  -11.8499   22.4013 C   0  0  0  0  0  0  0  0  0  0  0  0
  -29.2708  -13.9958   23.5695 C   0  0  0  0  0  0  0  0  0  0  0  0
  -27.6378  -14.0850   21.7271 C   0  0  0  0  0  0  0  0  0  0  0  0
  -28.1648  -33.5330   24.2045 C   0  0  1  0  0  0  0  0  0  0  0  0
  -25.3671  -31.9772   22.1585 C   0  0  1  0  0  0  0  0  0  0  0  0
  -28.0572  -12.6912   21.2321 C   0  0  2  0  0  0  0  0  0  0  0  0
  -30.2742  -24.3740   21.9024 C   0  0  0  0  0  0  0  0  0  0  0  0
  -30.9695  -24.5310   18.5760 C   0  0  0  0  0  0  0  0  0  0  0  0
  -18.7339  -27.9891   21.8462 C   0  0  0  0  0  0  0  0  0  0  0  0
  -23.6498  -29.8417   25.8801 C   0  0  0  0  0  0  0  0  0  0  0  0
  -21.6320  -28.4171   25.4710 C   0  0  0  0  0  0  0  0  0  0  0  0
  -21.4243  -30.9029   25.4610 C   0  0  0  0  0  0  0  0  0  0  0  0
  -20.8976  -29.0336   18.8960 C   0  0  0  0  0  0  0  0  0  0  0  0
  -29.7100  -24.2436   19.3836 C   0  0  1  0  0  0  0  0  0  0  0  0
  -22.5805  -29.7480   23.5319 C   0  0  1  0  0  0  0  0  0  0  0  0
  -19.8069  -28.7946   21.1303 C   0  0  2  0  0  0  0  0  0  0  0  0
  -22.3441  -29.7262   25.0685 C   0  0  0  0  0  0  0  0  0  0  0  0
  -26.1142  -11.1727   21.2101 N   0  0  0  0  0  0  0  0  0  0  0  0
  -26.9281  -11.9805   20.5094 N   0  0  0  0  0  0  0  0  0  0  0  0
  -24.5324  -30.8077   22.4404 N   0  0  0  0  0  0  0  0  0  0  0  0
  -28.7671  -14.7354   22.4101 N   0  0  0  0  0  0  0  0  0  0  0  0
  -27.3349  -12.8267   18.3347 N   0  0  0  0  0  0  0  0  0  0  0  0
  -27.3145  -22.6491   19.5657 N   0  0  0  0  0  0  0  0  0  0  0  0
  -23.7439  -10.1496   17.7564 N   0  0  0  0  0  0  0  0  0  0  0  0
  -28.8261  -16.5566   20.9128 N   0  0  0  0  0  0  0  0  0  0  0  0
  -27.1600  -33.2151   23.2126 N   0  0  0  0  0  0  0  0  0  0  0  0
  -21.3591  -29.6674   22.7381 N   0  0  0  0  0  0  0  0  0  0  0  0
  -29.6600  -22.8041   19.6733 N   0  3  0  0  0  0  0  0  0  0  0  0
  -19.8961  -28.3124   19.7230 N   0  3  0  0  0  0  0  0  0  0  0  0
  -25.2186  -11.5434   16.6881 O   0  0  0  0  0  0  0  0  0  0  0  0
  -26.3376  -31.2685   24.1909 O   0  0  0  0  0  0  0  0  0  0  0  0
  -22.7784  -32.0977   23.2747 O   0  0  0  0  0  0  0  0  0  0  0  0
  -21.9388  -27.7477   21.5737 O   0  0  0  0  0  0  0  0  0  0  0  0
  -30.3123  -16.4319   22.6897 O   0  0  0  0  0  0  0  0  0  0  0  0
  -21.1773   -7.1821   21.7113 O   0  0  0  0  0  0  0  0  0  0  0  0
  -28.4403  -26.8591   19.7591 O   0  0  0  0  0  0  0  0  0  1  0  0
  -22.4922   -2.9529   24.9960 F   0  0  0  0  0  0  0  0  0  0  0  0
  -20.8098   -4.5718   20.8784 F   0  0  0  0  0  0  0  0  0  0  0  0
  1  2  1  0  0  0  0
  1  7  2  0  0  0  0
  2  8  2  0  0  0  0
  3 12  2  0  0  0  0
  3 19  1  0  0  0  0
  4 13  1  0  0  0  0
  4 19  2  0  0  0  0
  5 10  2  0  0  0  0
  5 20  1  0  0  0  0
  6 11  1  0  0  0  0
  6 20  2  0  0  0  0
  7 22  1  0  0  0  0
  8 24  1  0  0  0  0
  9 14  2  0  0  0  0
  9 23  1  0  0  0  0
 10 26  1  0  0  0  0
 11 26  2  0  0  0  0
 12 27  1  0  0  0  0
 13 27  2  0  0  0  0
 14 28  1  0  0  0  0
 15 16  2  0  0  0  0
 15 29  1  0  0  0  0
 16 30  1  0  0  0  0
 17 25  1  0  0  0  0
 17 28  2  0  0  0  0
 18 30  2  0  0  0  0
 18 31  1  0  0  0  0
 19 32  1  0  0  0  0
 20 35  1  0  0  0  0
 21 32  1  0  0  0  0
 21 33  2  0  0  0  0
 21 36  1  0  0  0  0
 22 24  2  0  0  0  0
 22 42  1  0  0  0  0
 23 25  2  0  0  0  0
 23 43  1  0  0  0  0
 24 51  1  0  0  0  0
 25 44  1  0  0  0  0
 26 72  1  0  0  0  0
 27 82  1  0  0  0  0
 28 83  1  0  0  0  0
 29 31  2  0  0  0  0
 29 82  1  0  0  0  0
 30 84  1  0  0  0  0
 31 85  1  0  0  0  0
 32 65  2  0  0  0  0
 33 66  1  0  0  0  0
 33 69  1  0  0  0  0
 34 37  2  0  0  0  0
 34 83  1  0  0  0  0
 35 70  1  0  0  0  0
 35 75  2  0  0  0  0
 36 71  1  0  0  0  0
 36 77  2  0  0  0  0
 37 54  1  0  0  0  0
 37 61  1  0  0  0  0
 38 52  1  0  0  0  0
 38 73  1  0  0  0  0
 38 78  2  0  0  0  0
 39 62  1  0  0  0  0
 39 67  1  0  0  0  0
 39 79  2  0  0  0  0
 40 63  1  0  0  0  0
 40 74  1  0  0  0  0
 40 80  2  0  0  0  0
 41 68  1  0  0  0  0
 41 72  1  0  0  0  0
 41 81  2  0  0  0  0
 42 45  1  0  0  0  0
 43 52  1  0  0  0  0
 44 67  1  0  0  0  0
 45 47  1  0  0  0  0
 46 48  1  0  0  0  0
 46 49  1  0  0  0  0
 47 51  1  0  0  0  0
 48 53  1  0  0  0  0
 49 68  1  0  0  0  0
 50 53  1  0  0  0  0
 50 68  1  0  0  0  0
 51 73  1  0  0  0  0
 52 67  1  0  0  0  0
 53 66  1  0  0  0  0
 55 61  1  0  0  0  0
 56 63  1  0  0  0  0
 57 64  1  0  0  0  0
 58 64  1  0  0  0  0
 59 64  1  0  0  0  0
 60 76  1  0  0  0  0
 61 75  1  0  0  0  0
 62 64  1  0  0  0  0
 62 74  1  0  0  0  0
 63 76  1  0  0  0  0
 65 66  1  0  0  0  0
M  CHG  2  75   1  76   1
M  ISO  4  34 101  41 100  72 100  83 101
M  END
> <Batch ID>
0075

> <Smiles>
CNC(C)C(=O)NC(C(=O)N1Cc2cc([101O:1][101CH:1]=C(C)C(C)NC(=N)c3ccc([100NH:0][100C:0](=O)N4CCCC(n5nc(-c6ccc(Oc7ccc(F)cc7F)cc6)c(C(N)=O)c5N)C4)cc3)ccc2CC1C(=O)NC1CCCc2ccccc21)C(C)(C)C

> <Shape>
0.333

> <Color>
0.104

> <Negative vol penalty>
0.000

$$$$

  -OEChem-04042323473D

 88 97  0     1  0  0  0  0  0999 V2000
  -18.0065  -31.3268   19.5067 C   0  0  0  0  0  0  0  0  0  0  0  0
  -19.2316  -30.7995   19.1113 C   0  0  0  0  0  0  0  0  0  0  0  0
  -26.5938  -13.0843   18.9495 C   0  0  0  0  0  0  0  0  0  0  0  0
  -26.3828  -12.9617   21.3531 C   0  0  0  0  0  0  0  0  0  0  0  0
  -17.7703  -31.6054   20.8523 C   0  0  0  0  0  0  0  0  0  0  0  0
  -20.2218  -30.5514   20.0613 C   0  0  0  0  0  0  0  0  0  0  0  0
  -22.4470  -26.0482   19.4174 C   0  0  0  0  0  0  0  0  0  0  0  0
  -30.3993  -23.6997   18.9464 C   0  0  0  0  0  0  0  0  0  0  0  0
  -30.3177  -22.5964   19.7958 C   0  0  0  0  0  0  0  0  0  0  0  0
  -25.3431  -12.4830   18.8090 C   0  0  0  0  0  0  0  0  0  0  0  0
  -25.1320  -12.3605   21.2126 C   0  0  0  0  0  0  0  0  0  0  0  0
  -23.4020  -25.9486   18.4066 C   0  0  0  0  0  0  0  0  0  0  0  0
  -23.9099   -9.2899   20.4993 C   0  0  0  0  0  0  0  0  0  0  0  0
  -23.6322   -8.1784   21.2948 C   0  0  0  0  0  0  0  0  0  0  0  0
  -25.1550  -26.1656   20.0495 C   0  0  0  0  0  0  0  0  0  0  0  0
  -29.4968  -22.3749   17.1387 C   0  0  0  0  0  0  0  0  0  0  0  0
  -21.7646   -9.3512   22.2815 C   0  0  0  0  0  0  0  0  0  0  0  0
  -27.1137  -13.3236   20.2216 C   0  0  0  0  0  0  0  0  0  0  0  0
  -29.6389  -13.4632   19.8878 C   0  0  0  0  0  0  0  0  0  0  0  0
  -18.7546  -31.3516   21.8204 C   0  0  0  0  0  0  0  0  0  0  0  0
  -22.8394  -26.2185   20.7529 C   0  0  0  0  0  0  0  0  0  0  0  0
  -19.9991  -30.8281   21.4209 C   0  0  0  0  0  0  0  0  0  0  0  0
  -24.2031  -26.2645   21.0757 C   0  0  0  0  0  0  0  0  0  0  0  0
  -29.4153  -21.2715   17.9882 C   0  0  0  0  0  0  0  0  0  0  0  0
  -29.9888  -23.5890   17.6178 C   0  0  0  0  0  0  0  0  0  0  0  0
  -29.8257  -21.3822   19.3167 C   0  0  0  0  0  0  0  0  0  0  0  0
  -24.6122  -12.1211   19.9405 C   0  0  0  0  0  0  0  0  0  0  0  0
  -24.7561  -26.0102   18.7221 C   0  0  0  0  0  0  0  0  0  0  0  0
  -23.1150  -10.4322   20.5949 C   0  0  0  0  0  0  0  0  0  0  0  0
  -22.5595   -8.2090   22.1859 C   0  0  0  0  0  0  0  0  0  0  0  0
  -22.0424  -10.4628   21.4860 C   0  0  0  0  0  0  0  0  0  0  0  0
  -28.4059  -13.9442   20.3674 C   0  0  0  0  0  0  0  0  0  0  0  0
  -30.5535  -14.4087   20.2827 C   0  0  0  0  0  0  0  0  0  0  0  0
  -30.9362  -25.6940   14.7173 C   0  0  0  0  0  0  0  0  0  0  0  0
  -32.0634  -25.6253   13.9935 C   0  0  0  0  0  0  0  0  0  0  0  0
  -29.9315  -12.2685   19.1510 C   0  0  0  0  0  0  0  0  0  0  0  0
  -27.9694  -25.8857   16.9259 C   0  0  0  0  0  0  0  0  0  0  0  0
  -22.4055  -28.4763   22.9478 C   0  0  0  0  0  0  0  0  0  0  0  0
  -23.8723  -26.3279   24.8856 C   0  0  0  0  0  0  0  0  0  0  0  0
  -26.6675  -24.0577   24.6608 C   0  0  0  0  0  0  0  0  0  0  0  0
  -30.1182  -20.2341   21.5399 C   0  0  0  0  0  0  0  0  0  0  0  0
  -18.4704  -31.7132   23.2568 C   0  0  0  0  0  0  0  0  0  0  0  0
  -21.7974  -26.2975   21.8348 C   0  0  0  0  0  0  0  0  0  0  0  0
  -24.6768  -26.4260   22.4963 C   0  0  0  0  0  0  0  0  0  0  0  0
  -30.2413  -26.9949   14.9954 C   0  0  0  0  0  0  0  0  0  0  0  0
  -30.2912  -24.4776   15.3281 C   0  0  0  0  0  0  0  0  0  0  0  0
  -19.4365  -31.0712   24.2492 C   0  0  0  0  0  0  0  0  0  0  0  0
  -30.0722  -27.1741   16.5022 C   0  0  0  0  0  0  0  0  0  0  0  0
  -31.3257  -17.6740   23.6997 C   0  0  0  0  0  0  0  0  0  0  0  0
  -20.8762  -31.2273   23.7698 C   0  0  0  0  0  0  0  0  0  0  0  0
  -30.8314  -16.3829   23.0434 C   0  0  0  0  0  0  0  0  0  0  0  0
  -30.3078  -18.8050   23.5639 C   0  0  0  0  0  0  0  0  0  0  0  0
  -29.3571  -17.7772   21.5368 C   0  0  0  0  0  0  0  0  0  0  0  0
  -21.0893  -30.5221   22.4249 C   0  0  1  0  0  0  0  0  0  0  0  0
  -29.4441  -25.9602   17.1974 C   0  0  2  0  0  0  0  0  0  0  0  0
  -22.3008  -26.9852   23.1001 C   0  0  1  0  0  0  0  0  0  0  0  0
  -30.3763  -16.6274   21.5912 C   0  0  2  0  0  0  0  0  0  0  0  0
  -28.8828  -19.9837   17.4484 C   0  0  0  0  0  0  0  0  0  0  0  0
  -27.1259  -21.9091   25.8736 C   0  0  0  0  0  0  0  0  0  0  0  0
  -25.4283  -28.0932   26.8278 C   0  0  0  0  0  0  0  0  0  0  0  0
  -27.1347  -26.2701   27.0088 C   0  0  0  0  0  0  0  0  0  0  0  0
  -24.7858  -25.8545   27.7386 C   0  0  0  0  0  0  0  0  0  0  0  0
  -27.0048  -22.5648   22.1277 C   0  0  0  0  0  0  0  0  0  0  0  0
  -27.0598  -25.9849   18.1319 C   0  0  0  0  0  0  0  0  0  1  0  0
  -25.3029  -26.0377   25.2706 C   0  0  1  0  0  0  0  0  0  0  0  0
  -26.6044  -22.5425   24.5931 C   0  0  2  0  0  0  0  0  0  0  0  0
  -25.6563  -26.5750   26.6861 C   0  0  0  0  0  0  0  0  0  0  0  0
  -28.5230  -15.1051   21.0175 N   0  0  0  0  0  0  0  0  0  0  0  0
  -29.8404  -15.3614   20.9493 N   0  0  0  0  0  0  0  0  0  0  0  0
  -30.0703  -24.6983   16.7644 N   0  0  1  0  0  0  0  0  0  0  0  0
  -23.6196  -26.5050   23.5179 N   0  0  0  0  0  0  0  0  0  0  0  0
  -29.9264  -18.9818   22.1610 N   0  0  0  0  0  0  0  0  0  0  0  0
  -31.8899  -14.5099   20.1215 N   0  0  0  0  0  0  0  0  0  0  0  0
  -28.8742  -11.4070   18.8279 N   0  0  0  0  0  0  0  0  0  0  0  0
  -29.7492  -20.2735   20.1957 N   0  0  0  0  0  0  0  0  0  0  0  0
  -21.2139  -29.0931   22.6176 N   0  0  0  0  0  0  0  0  0  0  0  0
  -25.4834  -24.5983   25.1156 N   0  0  0  0  0  0  0  0  0  0  0  0
  -27.4229  -22.0404   23.4533 N   0  3  0  0  0  0  0  0  0  0  0  0
  -31.0982  -11.9654   18.8042 O   0  0  0  0  0  0  0  0  0  0  0  0
  -27.5361  -25.7513   15.7825 O   0  0  0  0  0  0  0  0  0  0  0  0
  -23.4869  -29.0267   23.1188 O   0  0  0  0  0  0  0  0  0  0  0  0
  -23.0096  -26.3878   25.7652 O   0  0  0  0  0  0  0  0  0  0  0  0
  -27.6684  -24.6975   24.3456 O   0  0  0  0  0  0  0  0  0  0  0  0
  -30.6013  -21.1928   22.1478 O   0  0  0  0  0  0  0  0  0  0  0  0
  -23.3916  -11.5346   19.8038 O   0  0  0  0  0  0  0  0  0  0  0  0
  -25.6903  -25.9139   17.7373 O   0  0  0  0  0  0  0  0  0  1  0  0
  -22.2919   -7.1409   22.9487 F   0  0  0  0  0  0  0  0  0  0  0  0
  -21.2745  -11.5569   21.5814 F   0  0  0  0  0  0  0  0  0  0  0  0
  1  2  1  0  0  0  0
  1  5  2  0  0  0  0
  2  6  2  0  0  0  0
  3 10  2  0  0  0  0
  3 18  1  0  0  0  0
  4 11  1  0  0  0  0
  4 18  2  0  0  0  0
  5 20  1  0  0  0  0
  6 22  1  0  0  0  0
  7 12  2  0  0  0  0
  7 21  1  0  0  0  0
  8  9  2  0  0  0  0
  8 25  1  0  0  0  0
  9 26  1  0  0  0  0
 10 27  1  0  0  0  0
 11 27  2  0  0  0  0
 12 28  1  0  0  0  0
 13 14  2  0  0  0  0
 13 29  1  0  0  0  0
 14 30  1  0  0  0  0
 15 23  1  0  0  0  0
 15 28  2  0  0  0  0
 16 24  1  0  0  0  0
 16 25  2  0  0  0  0
 17 30  2  0  0  0  0
 17 31  1  0  0  0  0
 18 32  1  0  0  0  0
 19 32  1  0  0  0  0
 19 33  2  0  0  0  0
 19 36  1  0  0  0  0
 20 22  2  0  0  0  0
 20 42  1  0  0  0  0
 21 23  2  0  0  0  0
 21 43  1  0  0  0  0
 22 54  1  0  0  0  0
 23 44  1  0  0  0  0
 24 26  2  0  0  0  0
 24 58  1  0  0  0  0
 25 70  1  0  0  0  0
 26 75  1  0  0  0  0
 27 85  1  0  0  0  0
 28 86  1  0  0  0  0
 29 31  2  0  0  0  0
 29 85  1  0  0  0  0
 30 87  1  0  0  0  0
 31 88  1  0  0  0  0
 32 68  2  0  0  0  0
 33 69  1  0  0  0  0
 33 73  1  0  0  0  0
 34 35  2  0  0  0  0
 34 45  1  0  0  0  0
 34 46  1  0  0  0  0
 36 74  1  0  0  0  0
 36 79  2  0  0  0  0
 37 55  1  0  0  0  0
 37 64  1  0  0  0  0
 37 80  2  0  0  0  0
 38 56  1  0  0  0  0
 38 76  1  0  0  0  0
 38 81  2  0  0  0  0
 39 65  1  0  0  0  0
 39 71  1  0  0  0  0
 39 82  2  0  0  0  0
 40 66  1  0  0  0  0
 40 77  1  0  0  0  0
 40 83  2  0  0  0  0
 41 72  1  0  0  0  0
 41 75  1  0  0  0  0
 41 84  2  0  0  0  0
 42 47  1  0  0  0  0
 43 56  1  0  0  0  0
 44 71  1  0  0  0  0
 45 48  1  0  0  0  0
 46 70  1  0  0  0  0
 47 50  1  0  0  0  0
 48 55  1  0  0  0  0
 49 51  1  0  0  0  0
 49 52  1  0  0  0  0
 50 54  1  0  0  0  0
 51 57  1  0  0  0  0
 52 72  1  0  0  0  0
 53 57  1  0  0  0  0
 53 72  1  0  0  0  0
 54 76  1  0  0  0  0
 55 70  1  0  0  0  0
 56 71  1  0  0  0  0
 57 69  1  0  0  0  0
 59 66  1  0  0  0  0
 60 67  1  0  0  0  0
 61 67  1  0  0  0  0
 62 67  1  0  0  0  0
 63 78  1  0  0  0  0
 64 86  1  0  0  0  0
 65 67  1  0  0  0  0
 65 77  1  0  0  0  0
 66 78  1  0  0  0  0
 68 69  1  0  0  0  0
M  CHG  1  78   1
M  ISO  4  41 100  64 101  75 100  86 101
M  END
> <Batch ID>
0075

> <Smiles>
C=C1CCC(C(=O)[101CH2:1][101O:1]c2ccc3c(c2)CN(C(=O)C(NC(=O)C(C)NC)C(C)(C)C)C(C(=O)NC2CCCc4ccccc42)C3)N(c2ccc([100NH:0][100C:0](=O)N3CCCC(n4nc(-c5ccc(Oc6ccc(F)cc6F)cc5)c(C(N)=O)c4N)C3)c(C)c2)C1

> <Shape>
0.230

> <Color>
0.079

> <Negative vol penalty>
0.000

$$$$

  -OEChem-04042323473D

 88 97  0     1  0  0  0  0  0999 V2000
  -14.6921  -24.0967   19.6497 C   0  0  0  0  0  0  0  0  0  0  0  0
  -16.0048  -23.8276   19.2755 C   0  0  0  0  0  0  0  0  0  0  0  0
  -23.0004   -9.8938   19.9800 C   0  0  0  0  0  0  0  0  0  0  0  0
  -23.7230   -9.9472   22.2848 C   0  0  0  0  0  0  0  0  0  0  0  0
  -14.3903  -24.3677   20.9836 C   0  0  0  0  0  0  0  0  0  0  0  0
  -17.0166  -23.8304   20.2350 C   0  0  0  0  0  0  0  0  0  0  0  0
  -23.2201  -20.6159   21.8160 C   0  0  0  0  0  0  0  0  0  0  0  0
  -22.2333   -8.7598   20.2468 C   0  0  0  0  0  0  0  0  0  0  0  0
  -22.9559   -8.8132   22.5516 C   0  0  0  0  0  0  0  0  0  0  0  0
  -24.5421  -20.9236   22.1345 C   0  0  0  0  0  0  0  0  0  0  0  0
  -23.1999   -5.4737   22.0838 C   0  0  0  0  0  0  0  0  0  0  0  0
  -23.7864   -4.4572   22.8378 C   0  0  0  0  0  0  0  0  0  0  0  0
  -23.8908  -21.3270   24.4219 C   0  0  0  0  0  0  0  0  0  0  0  0
  -31.8543  -18.3447   24.1671 C   0  0  0  0  0  0  0  0  0  0  0  0
  -32.0564  -16.5493   22.5630 C   0  0  0  0  0  0  0  0  0  0  0  0
  -22.0607   -4.7025   24.5108 C   0  0  0  0  0  0  0  0  0  0  0  0
  -23.7453  -10.4875   20.9990 C   0  0  0  0  0  0  0  0  0  0  0  0
  -24.1314  -13.0028   20.8205 C   0  0  0  0  0  0  0  0  0  0  0  0
  -15.3974  -24.3643   21.9615 C   0  0  0  0  0  0  0  0  0  0  0  0
  -22.2200  -20.6722   22.7973 C   0  0  0  0  0  0  0  0  0  0  0  0
  -16.7282  -24.1029   21.5831 C   0  0  0  0  0  0  0  0  0  0  0  0
  -22.5573  -21.0171   24.1139 C   0  0  0  0  0  0  0  0  0  0  0  0
  -30.4709  -18.3481   23.9890 C   0  0  0  0  0  0  0  0  0  0  0  0
  -32.6471  -17.4453   23.4540 C   0  0  0  0  0  0  0  0  0  0  0  0
  -30.6730  -16.5527   22.3850 C   0  0  0  0  0  0  0  0  0  0  0  0
  -22.2110   -8.2195   21.5326 C   0  0  0  0  0  0  0  0  0  0  0  0
  -24.8771  -21.2820   23.4370 C   0  0  0  0  0  0  0  0  0  0  0  0
  -22.0439   -6.1047   22.5434 C   0  0  0  0  0  0  0  0  0  0  0  0
  -23.2168   -4.0716   24.0512 C   0  0  0  0  0  0  0  0  0  0  0  0
  -21.4743   -5.7190   23.7569 C   0  0  0  0  0  0  0  0  0  0  0  0
  -29.8802  -17.4521   23.0980 C   0  0  0  0  0  0  0  0  0  0  0  0
  -24.5384  -11.6586   20.7239 C   0  0  0  0  0  0  0  0  0  0  0  0
  -25.2418  -13.7247   20.4565 C   0  0  0  0  0  0  0  0  0  0  0  0
  -29.9320  -19.7941   26.0016 C   0  0  0  0  0  0  0  0  0  0  0  0
  -22.8632  -13.5499   21.2050 C   0  0  0  0  0  0  0  0  0  0  0  0
  -19.5652  -22.3734   23.1995 C   0  0  0  0  0  0  0  0  0  0  0  0
  -19.1514  -20.4014   25.7416 C   0  0  0  0  0  0  0  0  0  0  0  0
  -20.5594  -18.3393   28.0681 C   0  0  0  0  0  0  0  0  0  0  0  0
  -30.7212  -14.6847   20.6954 C   0  0  0  0  0  0  0  0  0  0  0  0
  -15.0301  -24.7094   23.3830 C   0  0  0  0  0  0  0  0  0  0  0  0
  -20.8032  -20.3114   22.4436 C   0  0  0  0  0  0  0  0  0  0  0  0
  -21.5243  -21.0727   25.2086 C   0  0  0  0  0  0  0  0  0  0  0  0
  -16.1016  -24.3240   24.3997 C   0  0  0  0  0  0  0  0  0  0  0  0
  -29.6049  -12.2294   18.3711 C   0  0  0  0  0  0  0  0  0  0  0  0
  -17.4795  -24.7648   23.9161 C   0  0  0  0  0  0  0  0  0  0  0  0
  -28.1538  -11.9726   18.7839 C   0  0  0  0  0  0  0  0  0  0  0  0
  -30.5041  -12.4740   19.5816 C   0  0  0  0  0  0  0  0  0  0  0  0
  -28.3887  -19.7452   24.2113 C   0  0  0  0  0  0  0  0  0  0  0  0
  -28.5875  -13.2649   20.9121 C   0  0  0  0  0  0  0  0  0  0  0  0
  -17.8495  -24.0723   22.5989 C   0  0  1  0  0  0  0  0  0  0  0  0
  -19.7781  -20.9007   23.4076 C   0  0  1  0  0  0  0  0  0  0  0  0
  -28.0779  -20.9667   25.0676 C   0  0  2  0  0  0  0  0  0  0  0  0
  -27.6311  -13.0773   19.7230 C   0  0  2  0  0  0  0  0  0  0  0  0
  -28.7129  -20.6166   26.4283 C   0  0  0  0  0  0  0  0  0  0  0  0
  -27.8336  -19.7329   27.3242 C   0  0  0  0  0  0  0  0  0  0  0  0
  -29.1398  -21.8714   27.1918 C   0  0  0  0  0  0  0  0  0  0  0  0
  -19.9714  -16.9002   30.0380 C   0  0  0  0  0  0  0  0  0  0  0  0
  -18.8339  -22.8976   27.4673 C   0  0  0  0  0  0  0  0  0  0  0  0
  -19.2031  -21.4639   29.4863 C   0  0  0  0  0  0  0  0  0  0  0  0
  -17.2394  -21.0476   28.0054 C   0  0  0  0  0  0  0  0  0  0  0  0
  -21.5679  -15.8982   26.7330 C   0  0  0  0  0  0  0  0  0  0  0  0
  -26.5936  -21.3036   25.0830 C   0  0  0  0  0  0  0  0  0  1  0  0
  -19.5545  -20.4332   27.1961 C   0  0  1  0  0  0  0  0  0  0  0  0
  -20.1873  -16.9430   28.5333 C   0  0  2  0  0  0  0  0  0  0  0  0
  -18.7271  -21.4615   28.0180 C   0  0  0  0  0  0  0  0  0  0  0  0
  -25.8081  -11.5313   20.3293 N   0  0  0  0  0  0  0  0  0  0  0  0
  -26.2085  -12.8048   20.1746 N   0  0  0  0  0  0  0  0  0  0  0  0
  -29.6616  -19.2693   24.7206 N   0  0  0  0  0  0  0  0  0  0  0  0
  -20.1519  -20.7174   24.8115 N   0  0  0  0  0  0  0  0  0  0  0  0
  -29.9484  -13.5360   20.4230 N   0  0  0  0  0  0  0  0  0  0  0  0
  -34.0461  -17.4410   23.6340 N   0  0  0  0  0  0  0  0  0  0  0  0
  -25.4757  -15.0502   20.3531 N   0  0  0  0  0  0  0  0  0  0  0  0
  -21.8308  -12.6664   21.5484 N   0  0  0  0  0  0  0  0  0  0  0  0
  -30.0763  -15.6410   21.4791 N   0  0  0  0  0  0  0  0  0  0  0  0
  -18.2728  -22.7105   22.8453 N   0  0  0  0  0  0  0  0  0  0  0  0
  -19.4504  -19.0603   27.6786 N   0  0  0  0  0  0  0  0  0  0  0  0
  -21.2670  -15.9764   28.1857 N   0  3  0  0  0  0  0  0  0  0  0  0
  -30.9027  -19.6168   26.7249 O   0  0  0  0  0  0  0  0  0  0  0  0
  -22.6467  -14.7853   21.2271 O   0  0  0  0  0  0  0  0  0  0  0  0
  -20.5036  -23.1468   23.3507 O   0  0  0  0  0  0  0  0  0  0  0  0
  -17.9936  -20.1000   25.4414 O   0  0  0  0  0  0  0  0  0  0  0  0
  -21.7175  -18.7507   28.0553 O   0  0  0  0  0  0  0  0  0  0  0  0
  -31.8604  -14.8228   20.2425 O   0  0  0  0  0  0  0  0  0  0  0  0
  -21.4624   -7.1131   21.7934 O   0  0  0  0  0  0  0  0  0  0  0  0
  -26.1666  -21.5834   23.7504 O   0  0  0  0  0  0  0  0  0  1  0  0
  -23.7792   -3.0944   24.7744 F   0  0  0  0  0  0  0  0  0  0  0  0
  -20.3630   -6.3207   24.2030 F   0  0  0  0  0  0  0  0  0  0  0  0
  -28.5492  -17.4540   22.9277 F   0  0  0  0  0  0  0  0  0  0  0  0
  1  2  1  0  0  0  0
  1  5  2  0  0  0  0
  2  6  2  0  0  0  0
  3  8  2  0  0  0  0
  3 17  1  0  0  0  0
  4  9  1  0  0  0  0
  4 17  2  0  0  0  0
  5 19  1  0  0  0  0
  6 21  1  0  0  0  0
  7 10  2  0  0  0  0
  7 20  1  0  0  0  0
  8 26  1  0  0  0  0
  9 26  2  0  0  0  0
 10 27  1  0  0  0  0
 11 12  2  0  0  0  0
 11 28  1  0  0  0  0
 12 29  1  0  0  0  0
 13 22  1  0  0  0  0
 13 27  2  0  0  0  0
 14 23  1  0  0  0  0
 14 24  2  0  0  0  0
 15 24  1  0  0  0  0
 15 25  2  0  0  0  0
 16 29  2  0  0  0  0
 16 30  1  0  0  0  0
 17 32  1  0  0  0  0
 18 32  1  0  0  0  0
 18 33  2  0  0  0  0
 18 35  1  0  0  0  0
 19 21  2  0  0  0  0
 19 40  1  0  0  0  0
 20 22  2  0  0  0  0
 20 41  1  0  0  0  0
 21 50  1  0  0  0  0
 22 42  1  0  0  0  0
 23 31  2  0  0  0  0
 23 68  1  0  0  0  0
 24 71  1  0  0  0  0
 25 31  1  0  0  0  0
 25 74  1  0  0  0  0
 26 84  1  0  0  0  0
 27 85  1  0  0  0  0
 28 30  2  0  0  0  0
 28 84  1  0  0  0  0
 29 86  1  0  0  0  0
 30 87  1  0  0  0  0
 31 88  1  0  0  0  0
 32 66  2  0  0  0  0
 33 67  1  0  0  0  0
 33 72  1  0  0  0  0
 34 54  1  0  0  0  0
 34 68  1  0  0  0  0
 34 78  2  0  0  0  0
 35 73  1  0  0  0  0
 35 79  2  0  0  0  0
 36 51  1  0  0  0  0
 36 75  1  0  0  0  0
 36 80  2  0  0  0  0
 37 63  1  0  0  0  0
 37 69  1  0  0  0  0
 37 81  2  0  0  0  0
 38 64  1  0  0  0  0
 38 76  1  0  0  0  0
 38 82  2  0  0  0  0
 39 70  1  0  0  0  0
 39 74  1  0  0  0  0
 39 83  2  0  0  0  0
 40 43  1  0  0  0  0
 41 51  1  0  0  0  0
 42 69  1  0  0  0  0
 43 45  1  0  0  0  0
 44 46  1  0  0  0  0
 44 47  1  0  0  0  0
 45 50  1  0  0  0  0
 46 53  1  0  0  0  0
 47 70  1  0  0  0  0
 48 52  1  0  0  0  0
 48 68  1  0  0  0  0
 49 53  1  0  0  0  0
 49 70  1  0  0  0  0
 50 75  1  0  0  0  0
 51 69  1  0  0  0  0
 52 54  1  0  0  0  0
 52 62  1  0  0  0  0
 53 67  1  0  0  0  0
 54 55  1  0  0  0  0
 54 56  1  0  0  0  0
 57 64  1  0  0  0  0
 58 65  1  0  0  0  0
 59 65  1  0  0  0  0
 60 65  1  0  0  0  0
 61 77  1  0  0  0  0
 62 85  1  0  0  0  0
 63 65  1  0  0  0  0
 63 76  1  0  0  0  0
 64 77  1  0  0  0  0
 66 67  1  0  0  0  0
M  CHG  1  77   1
M  ISO  4  39 100  62 101  74 100  85 101
M  END
> <Batch ID>
0075

> <Smiles>
CNC(C)C(=O)NC(C(=O)N1Cc2cc([101O:1][101CH2:1]C3CN(c4cc(N)cc([100NH:0][100C:0](=O)N5CCCC(n6nc(-c7ccc(Oc8ccc(F)cc8F)cc7)c(C(N)=O)c6N)C5)c4F)C(=O)C3(C)C)ccc2CC1C(=O)NC1CCCc2ccccc21)C(C)(C)C

> <Shape>
0.173

> <Color>
0.186

> <Negative vol penalty>
0.000

$$$$

  -OEChem-04042323473D

 86 95  0     1  0  0  0  0  0999 V2000
  -21.9901  -16.8328   17.2968 C   0  0  0  0  0  0  0  0  0  0  0  0
  -22.7678  -17.2756   18.3619 C   0  0  0  0  0  0  0  0  0  0  0  0
  -22.9999   -9.8931   19.9831 C   0  0  0  0  0  0  0  0  0  0  0  0
  -23.7190   -9.9525   22.2888 C   0  0  0  0  0  0  0  0  0  0  0  0
  -21.4265  -17.7549   16.4160 C   0  0  0  0  0  0  0  0  0  0  0  0
  -22.9834  -18.6409   18.5461 C   0  0  0  0  0  0  0  0  0  0  0  0
  -22.4454  -20.0581   23.3780 C   0  0  0  0  0  0  0  0  0  0  0  0
  -22.2325   -8.7597   20.2517 C   0  0  0  0  0  0  0  0  0  0  0  0
  -22.9516   -8.8191   22.5574 C   0  0  0  0  0  0  0  0  0  0  0  0
  -23.5025  -19.7817   24.2441 C   0  0  0  0  0  0  0  0  0  0  0  0
  -21.4667   -5.7306   23.7683 C   0  0  0  0  0  0  0  0  0  0  0  0
  -22.0506   -4.7176   24.5288 C   0  0  0  0  0  0  0  0  0  0  0  0
  -24.2551  -22.0649   24.0443 C   0  0  0  0  0  0  0  0  0  0  0  0
  -29.8714  -17.4590   23.0907 C   0  0  0  0  0  0  0  0  0  0  0  0
  -31.8404  -18.3580   24.1636 C   0  0  0  0  0  0  0  0  0  0  0  0
  -32.0509  -16.5586   22.5652 C   0  0  0  0  0  0  0  0  0  0  0  0
  -23.7813   -4.4641   22.8621 C   0  0  0  0  0  0  0  0  0  0  0  0
  -23.7432  -10.4895   21.0017 C   0  0  0  0  0  0  0  0  0  0  0  0
  -24.1293  -13.0044   20.8174 C   0  0  0  0  0  0  0  0  0  0  0  0
  -21.6273  -19.1327   16.5951 C   0  0  0  0  0  0  0  0  0  0  0  0
  -22.2913  -21.3393   22.8291 C   0  0  0  0  0  0  0  0  0  0  0  0
  -22.4230  -19.5823   17.6660 C   0  0  0  0  0  0  0  0  0  0  0  0
  -23.1938  -22.3556   23.1736 C   0  0  0  0  0  0  0  0  0  0  0  0
  -30.4576  -18.3585   23.9811 C   0  0  0  0  0  0  0  0  0  0  0  0
  -30.6680  -16.5591   22.3827 C   0  0  0  0  0  0  0  0  0  0  0  0
  -22.2084   -8.2227   21.5388 C   0  0  0  0  0  0  0  0  0  0  0  0
  -24.4092  -20.7844   24.5751 C   0  0  0  0  0  0  0  0  0  0  0  0
  -22.0400   -6.1104   22.5547 C   0  0  0  0  0  0  0  0  0  0  0  0
  -23.2079   -4.0843   24.0757 C   0  0  0  0  0  0  0  0  0  0  0  0
  -32.6371  -17.4581   23.4557 C   0  0  0  0  0  0  0  0  0  0  0  0
  -23.1973   -5.4771   22.1016 C   0  0  0  0  0  0  0  0  0  0  0  0
  -24.5365  -11.6600   20.7248 C   0  0  0  0  0  0  0  0  0  0  0  0
  -25.2401  -13.7255   20.4533 C   0  0  0  0  0  0  0  0  0  0  0  0
  -28.2405  -19.4015   24.6313 C   0  0  0  0  0  0  0  0  0  0  0  0
  -22.8604  -13.5523   21.1986 C   0  0  0  0  0  0  0  0  0  0  0  0
  -22.3131  -22.5354   19.8842 C   0  0  0  0  0  0  0  0  0  0  0  0
  -21.4545  -25.2679   21.4068 C   0  0  0  0  0  0  0  0  0  0  0  0
  -21.4306  -27.0929   24.2905 C   0  0  0  0  0  0  0  0  0  0  0  0
  -30.7190  -14.6868   20.6980 C   0  0  0  0  0  0  0  0  0  0  0  0
  -21.0367  -20.0891   15.5895 C   0  0  0  0  0  0  0  0  0  0  0  0
  -21.1304  -21.6282   21.9175 C   0  0  0  0  0  0  0  0  0  0  0  0
  -23.0608  -23.7529   22.6273 C   0  0  0  0  0  0  0  0  0  0  0  0
  -21.0040  -21.5369   16.0722 C   0  0  0  0  0  0  0  0  0  0  0  0
  -29.6065  -12.2255   18.3782 C   0  0  0  0  0  0  0  0  0  0  0  0
  -22.3441  -21.9244   16.6892 C   0  0  0  0  0  0  0  0  0  0  0  0
  -28.1548  -11.9695   18.7895 C   0  0  0  0  0  0  0  0  0  0  0  0
  -30.5039  -12.4732   19.5894 C   0  0  0  0  0  0  0  0  0  0  0  0
  -30.1979  -20.1913   25.6892 C   0  0  0  0  0  0  0  0  0  0  0  0
  -28.5852  -13.2672   20.9150 C   0  0  0  0  0  0  0  0  0  0  0  0
  -22.6593  -21.0564   17.9135 C   0  0  1  0  0  0  0  0  0  0  0  0
  -27.8255  -20.4231   25.6801 C   0  0  1  0  0  0  0  0  0  0  0  0
  -21.3668  -22.8335   21.0126 C   0  0  1  0  0  0  0  0  0  0  0  0
  -29.1056  -21.2325   25.8922 C   0  0  1  0  0  0  0  0  0  0  0  0
  -27.6306  -13.0766   19.7250 C   0  0  2  0  0  0  0  0  0  0  0  0
  -29.1837  -21.9025   27.2552 C   0  0  0  0  0  0  0  0  0  0  0  0
  -20.6902  -29.3049   25.2158 C   0  0  0  0  0  0  0  0  0  0  0  0
  -23.8015  -26.6331   20.0146 C   0  0  0  0  0  0  0  0  0  0  0  0
  -23.5964  -28.5087   21.6602 C   0  0  0  0  0  0  0  0  0  0  0  0
  -21.7085  -27.9985   20.1116 C   0  0  0  0  0  0  0  0  0  0  0  0
  -19.6325  -25.8008   26.2542 C   0  0  0  0  0  0  0  0  0  0  0  0
  -26.6427  -21.2662   25.2348 C   0  0  0  0  0  0  0  0  0  1  0  0
  -22.1992  -26.4246   22.0284 C   0  0  1  0  0  0  0  0  0  0  0  0
  -20.3180  -27.8468   24.9962 C   0  0  2  0  0  0  0  0  0  0  0  0
  -22.8303  -27.3645   20.9626 C   0  0  0  0  0  0  0  0  0  0  0  0
  -25.8068  -11.5319   20.3324 N   0  0  0  0  0  0  0  0  0  0  0  0
  -26.2073  -12.8050   20.1752 N   0  0  0  0  0  0  0  0  0  0  0  0
  -29.6428  -19.2794   24.7061 N   0  0  0  0  0  0  0  0  0  0  0  0
  -21.9129  -23.9842   21.7351 N   0  0  0  0  0  0  0  0  0  0  0  0
  -29.9468  -13.5374   20.4273 N   0  0  0  0  0  0  0  0  0  0  0  0
  -25.4740  -15.0508   20.3469 N   0  0  0  0  0  0  0  0  0  0  0  0
  -21.8276  -12.6696   21.5427 N   0  0  0  0  0  0  0  0  0  0  0  0
  -30.0728  -15.6450   21.4783 N   0  0  0  0  0  0  0  0  0  0  0  0
  -21.8998  -21.5056   19.0605 N   0  0  0  0  0  0  0  0  0  0  0  0
  -21.2546  -27.0848   22.9229 N   0  0  0  0  0  0  0  0  0  0  0  0
  -20.0341  -27.2294   26.3225 N   0  3  0  0  0  0  0  0  0  0  0  0
  -27.4393  -18.7944   23.9352 O   0  0  0  0  0  0  0  0  0  0  0  0
  -22.6437  -14.7877   21.2173 O   0  0  0  0  0  0  0  0  0  0  0  0
  -23.3413  -23.1919   19.7684 O   0  0  0  0  0  0  0  0  0  0  0  0
  -20.4968  -25.4949   20.6632 O   0  0  0  0  0  0  0  0  0  0  0  0
  -22.3646  -26.5671   24.8919 O   0  0  0  0  0  0  0  0  0  0  0  0
  -31.8589  -14.8239   20.2464 O   0  0  0  0  0  0  0  0  0  0  0  0
  -21.4595   -7.1168   21.8012 O   0  0  0  0  0  0  0  0  0  0  0  0
  -25.4422  -20.5172   25.4197 O   0  0  0  0  0  0  0  0  0  1  0  0
  -23.7694   -3.1126   24.8069 F   0  0  0  0  0  0  0  0  0  0  0  0
  -33.9650  -17.4569   23.6314 F   0  0  0  0  0  0  0  0  0  0  0  0
  -23.7533   -5.8384   20.9371 F   0  0  0  0  0  0  0  0  0  0  0  0
  1  2  1  0  0  0  0
  1  5  2  0  0  0  0
  2  6  2  0  0  0  0
  3  8  2  0  0  0  0
  3 18  1  0  0  0  0
  4  9  1  0  0  0  0
  4 18  2  0  0  0  0
  5 20  1  0  0  0  0
  6 22  1  0  0  0  0
  7 10  2  0  0  0  0
  7 21  1  0  0  0  0
  8 26  1  0  0  0  0
  9 26  2  0  0  0  0
 10 27  1  0  0  0  0
 11 12  2  0  0  0  0
 11 28  1  0  0  0  0
 12 29  1  0  0  0  0
 13 23  1  0  0  0  0
 13 27  2  0  0  0  0
 14 24  2  0  0  0  0
 14 25  1  0  0  0  0
 15 24  1  0  0  0  0
 15 30  2  0  0  0  0
 16 25  2  0  0  0  0
 16 30  1  0  0  0  0
 17 29  2  0  0  0  0
 17 31  1  0  0  0  0
 18 32  1  0  0  0  0
 19 32  1  0  0  0  0
 19 33  2  0  0  0  0
 19 35  1  0  0  0  0
 20 22  2  0  0  0  0
 20 40  1  0  0  0  0
 21 23  2  0  0  0  0
 21 41  1  0  0  0  0
 22 50  1  0  0  0  0
 23 42  1  0  0  0  0
 24 67  1  0  0  0  0
 25 72  1  0  0  0  0
 26 82  1  0  0  0  0
 27 83  1  0  0  0  0
 28 31  2  0  0  0  0
 28 82  1  0  0  0  0
 29 84  1  0  0  0  0
 30 85  1  0  0  0  0
 31 86  1  0  0  0  0
 32 65  2  0  0  0  0
 33 66  1  0  0  0  0
 33 70  1  0  0  0  0
 34 51  1  0  0  0  0
 34 67  1  0  0  0  0
 34 76  2  0  0  0  0
 35 71  1  0  0  0  0
 35 77  2  0  0  0  0
 36 52  1  0  0  0  0
 36 73  1  0  0  0  0
 36 78  2  0  0  0  0
 37 62  1  0  0  0  0
 37 68  1  0  0  0  0
 37 79  2  0  0  0  0
 38 63  1  0  0  0  0
 38 74  1  0  0  0  0
 38 80  2  0  0  0  0
 39 69  1  0  0  0  0
 39 72  1  0  0  0  0
 39 81  2  0  0  0  0
 40 43  1  0  0  0  0
 41 52  1  0  0  0  0
 42 68  1  0  0  0  0
 43 45  1  0  0  0  0
 44 46  1  0  0  0  0
 44 47  1  0  0  0  0
 45 50  1  0  0  0  0
 46 54  1  0  0  0  0
 47 69  1  0  0  0  0
 48 53  1  0  0  0  0
 48 67  1  0  0  0  0
 49 54  1  0  0  0  0
 49 69  1  0  0  0  0
 50 73  1  0  0  0  0
 51 53  1  0  0  0  0
 51 61  1  0  0  0  0
 52 68  1  0  0  0  0
 53 55  1  0  0  0  0
 54 66  1  0  0  0  0
 56 63  1  0  0  0  0
 57 64  1  0  0  0  0
 58 64  1  0  0  0  0
 59 64  1  0  0  0  0
 60 75  1  0  0  0  0
 61 83  1  0  0  0  0
 62 64  1  0  0  0  0
 62 74  1  0  0  0  0
 63 75  1  0  0  0  0
 65 66  1  0  0  0  0
M  CHG  1  75   1
M  ISO  4  39 100  61 101  72 100  83 101
M  END
> <Batch ID>
0075

> <Smiles>
CNC(C)C(=O)NC(C(=O)N1Cc2cc([101O:1][101CH2:1]C3C(=O)N(c4cc(F)cc([100NH:0][100C:0](=O)N5CCCC(n6nc(-c7ccc(Oc8ccc(F)cc8F)cc7)c(C(N)=O)c6N)C5)c4)CC3C)ccc2CC1C(=O)NC1CCCc2ccccc21)C(C)(C)C

> <Shape>
0.202

> <Color>
0.198

> <Negative vol penalty>
0.000

$$$$

  -OEChem-04042323473D

 87 96  0     1  0  0  0  0  0999 V2000
  -22.3219  -11.0958   18.6591 C   0  0  0  0  0  0  0  0  0  0  0  0
  -21.9794  -12.4439   18.6861 C   0  0  0  0  0  0  0  0  0  0  0  0
  -24.2394  -24.9281   23.9742 C   0  0  0  0  0  0  0  0  0  0  0  0
  -23.4590  -25.8582   26.0629 C   0  0  0  0  0  0  0  0  0  0  0  0
  -23.4359  -10.6464   19.3669 C   0  0  0  0  0  0  0  0  0  0  0  0
  -22.7501  -13.3433   19.4219 C   0  0  0  0  0  0  0  0  0  0  0  0
  -23.9507  -19.1796   18.0071 C   0  0  0  0  0  0  0  0  0  0  0  0
  -24.2719  -28.8047   20.2365 C   0  0  0  0  0  0  0  0  0  0  0  0
  -26.0583  -27.2503   19.7573 C   0  0  0  0  0  0  0  0  0  0  0  0
  -25.2079  -29.8201   20.4323 C   0  0  0  0  0  0  0  0  0  0  0  0
  -26.9943  -28.2657   19.9531 C   0  0  0  0  0  0  0  0  0  0  0  0
  -24.6087  -23.7560   24.6341 C   0  0  0  0  0  0  0  0  0  0  0  0
  -23.8282  -24.6861   26.7228 C   0  0  0  0  0  0  0  0  0  0  0  0
  -23.3864  -20.3824   18.4298 C   0  0  0  0  0  0  0  0  0  0  0  0
  -25.4255  -20.3800   25.7068 C   0  0  0  0  0  0  0  0  0  0  0  0
  -25.0872  -19.1656   25.1098 C   0  0  0  0  0  0  0  0  0  0  0  0
  -25.1307  -20.6137   20.0801 C   0  0  0  0  0  0  0  0  0  0  0  0
  -22.7488  -19.7626   25.2206 C   0  0  0  0  0  0  0  0  0  0  0  0
  -23.6646  -25.9793   24.6886 C   0  0  0  0  0  0  0  0  0  0  0  0
  -22.0391  -27.4771   23.4152 C   0  0  0  0  0  0  0  0  0  0  0  0
  -24.2263  -11.5424   20.1040 C   0  0  0  0  0  0  0  0  0  0  0  0
  -25.1049  -18.6785   18.6261 C   0  0  0  0  0  0  0  0  0  0  0  0
  -23.8750  -12.9053   20.1414 C   0  0  0  0  0  0  0  0  0  0  0  0
  -25.7091  -19.4056   19.6617 C   0  0  0  0  0  0  0  0  0  0  0  0
  -24.6970  -27.5198   19.8991 C   0  0  0  0  0  0  0  0  0  0  0  0
  -26.5692  -29.5506   20.2906 C   0  0  0  0  0  0  0  0  0  0  0  0
  -24.4030  -23.6350   26.0084 C   0  0  0  0  0  0  0  0  0  0  0  0
  -23.9748  -21.0982   19.4684 C   0  0  0  0  0  0  0  0  0  0  0  0
  -24.4254  -21.2857   26.0607 C   0  0  0  0  0  0  0  0  0  0  0  0
  -23.7489  -18.8569   24.8667 C   0  0  0  0  0  0  0  0  0  0  0  0
  -23.0871  -20.9770   25.8176 C   0  0  0  0  0  0  0  0  0  0  0  0
  -23.2835  -27.1905   24.0076 C   0  0  0  0  0  0  0  0  0  0  0  0
  -22.1848  -28.7445   22.9063 C   0  0  0  0  0  0  0  0  0  0  0  0
  -21.7784  -25.3196   19.5223 C   0  0  0  0  0  0  0  0  0  0  0  0
  -22.7912  -24.4846   19.2597 C   0  0  0  0  0  0  0  0  0  0  0  0
  -22.3765  -26.6475   19.8161 C   0  0  0  0  0  0  0  0  0  0  0  0
  -20.8570  -26.6699   23.3324 C   0  0  0  0  0  0  0  0  0  0  0  0
  -25.8065  -16.0524   20.2738 C   0  0  0  0  0  0  0  0  0  0  0  0
  -28.8236  -17.2344   20.1239 C   0  0  0  0  0  0  0  0  0  0  0  0
  -30.8559  -19.9518   19.7599 C   0  0  0  0  0  0  0  0  0  0  0  0
  -27.3341  -31.6792   21.3746 C   0  0  0  0  0  0  0  0  0  0  0  0
  -25.3936  -11.0021   20.8915 C   0  0  0  0  0  0  0  0  0  0  0  0
  -25.7165  -17.3930   18.1405 C   0  0  0  0  0  0  0  0  0  0  0  0
  -26.9605  -18.9211   20.3455 C   0  0  0  0  0  0  0  0  0  0  0  0
  -24.1225  -25.1528   19.3497 C   0  0  0  0  0  0  0  0  0  0  0  0
  -26.3752  -12.0806   21.3427 C   0  0  0  0  0  0  0  0  0  0  0  0
  -24.5887  -32.8212   23.5772 C   0  0  0  0  0  0  0  0  0  0  0  0
  -25.6267  -13.2663   21.9432 C   0  0  0  0  0  0  0  0  0  0  0  0
  -23.8897  -31.5158   23.9526 C   0  0  0  0  0  0  0  0  0  0  0  0
  -26.0715  -32.6070   23.2891 C   0  0  0  0  0  0  0  0  0  0  0  0
  -25.6315  -30.2616   22.6206 C   0  0  0  0  0  0  0  0  0  0  0  0
  -24.7006  -13.9157   20.9079 C   0  0  1  0  0  0  0  0  0  0  0  0
  -26.6000  -16.7193   19.1860 C   0  0  1  0  0  0  0  0  0  0  0  0
  -24.1280  -30.4439   22.8763 C   0  0  1  0  0  0  0  0  0  0  0  0
  -20.3114  -25.1085   19.5525 C   0  0  0  0  0  0  0  0  0  0  0  0
  -29.9259  -30.1048   20.1485 C   0  0  0  0  0  0  0  0  0  0  0  0
  -33.2773  -20.6093   19.7191 C   0  0  0  0  0  0  0  0  0  0  0  0
  -28.9441  -16.9699   23.1612 C   0  0  0  0  0  0  0  0  0  0  0  0
  -30.9374  -18.4847   23.1444 C   0  0  0  0  0  0  0  0  0  0  0  0
  -31.0343  -16.2856   21.9708 C   0  0  0  0  0  0  0  0  0  0  0  0
  -30.6544  -20.9628   16.9857 C   0  0  0  0  0  0  0  0  0  0  0  0
  -22.7268  -23.0433   18.9070 C   0  0  0  0  0  0  0  0  0  1  0  0
  -28.6576  -30.6879   19.5588 C   0  0  0  0  0  0  0  0  0  0  0  0
  -29.6536  -18.1585   20.9818 C   0  0  1  0  0  0  0  0  0  0  0  0
  -32.0758  -20.1876   18.8877 C   0  0  2  0  0  0  0  0  0  0  0  0
  -30.1177  -17.4831   22.3032 C   0  0  0  0  0  0  0  0  0  0  0  0
  -24.1557  -28.1949   23.8868 N   0  0  0  0  0  0  0  0  0  0  0  0
  -23.4583  -29.1250   23.2125 N   0  0  0  0  0  0  0  0  0  0  0  0
  -23.7647  -26.5081   19.7044 N   0  0  0  0  0  0  0  0  0  0  0  0
  -27.5170  -17.6557   19.8391 N   0  0  0  0  0  0  0  0  0  0  0  0
  -26.2855  -31.5426   22.3073 N   0  0  0  0  0  0  0  0  0  0  0  0
  -21.3467  -29.5594   22.2310 N   0  0  0  0  0  0  0  0  0  0  0  0
  -20.8786  -25.3925   23.9085 N   0  0  0  0  0  0  0  0  0  0  0  0
  -25.4622  -14.7431   19.9970 N   0  0  0  0  0  0  0  0  0  0  0  0
  -30.7451  -18.6299   20.1364 N   0  0  0  0  0  0  0  0  0  0  0  0
  -27.5375  -30.6005   20.4930 N   0  0  0  0  0  0  0  0  0  0  0  0
  -31.7982  -21.2565   17.8870 N   0  3  0  0  0  0  0  0  0  0  0  0
  -21.7321  -27.6454   20.0982 O   0  0  0  0  0  0  0  0  0  0  0  0
  -19.8179  -27.0633   22.7501 O   0  0  0  0  0  0  0  0  0  0  0  0
  -25.5286  -16.6789   21.2896 O   0  0  0  0  0  0  0  0  0  0  0  0
  -29.3188  -16.1810   19.7153 O   0  0  0  0  0  0  0  0  0  0  0  0
  -30.0810  -20.8509   20.0786 O   0  0  0  0  0  0  0  0  0  0  0  0
  -28.0750  -32.6700   21.3634 O   0  0  0  0  0  0  0  0  0  0  0  0
  -24.7630  -22.4913   26.6526 O   0  0  0  0  0  0  0  0  0  0  0  0
  -23.4257  -22.2722   19.8834 O   0  0  0  0  0  0  0  0  0  1  0  0
  -23.4243  -17.6914   24.2920 F   0  0  0  0  0  0  0  0  0  0  0  0
  -22.1220  -21.8436   26.1544 F   0  0  0  0  0  0  0  0  0  0  0  0
  1  2  1  0  0  0  0
  1  5  2  0  0  0  0
  2  6  2  0  0  0  0
  3 12  2  0  0  0  0
  3 19  1  0  0  0  0
  4 13  1  0  0  0  0
  4 19  2  0  0  0  0
  5 21  1  0  0  0  0
  6 23  1  0  0  0  0
  7 14  2  0  0  0  0
  7 22  1  0  0  0  0
  8 10  2  0  0  0  0
  8 25  1  0  0  0  0
  9 11  1  0  0  0  0
  9 25  2  0  0  0  0
 10 26  1  0  0  0  0
 11 26  2  0  0  0  0
 12 27  1  0  0  0  0
 13 27  2  0  0  0  0
 14 28  1  0  0  0  0
 15 16  2  0  0  0  0
 15 29  1  0  0  0  0
 16 30  1  0  0  0  0
 17 24  1  0  0  0  0
 17 28  2  0  0  0  0
 18 30  2  0  0  0  0
 18 31  1  0  0  0  0
 19 32  1  0  0  0  0
 20 32  1  0  0  0  0
 20 33  2  0  0  0  0
 20 37  1  0  0  0  0
 21 23  2  0  0  0  0
 21 42  1  0  0  0  0
 22 24  2  0  0  0  0
 22 43  1  0  0  0  0
 23 52  1  0  0  0  0
 24 44  1  0  0  0  0
 25 69  1  0  0  0  0
 26 76  1  0  0  0  0
 27 84  1  0  0  0  0
 28 85  1  0  0  0  0
 29 31  2  0  0  0  0
 29 84  1  0  0  0  0
 30 86  1  0  0  0  0
 31 87  1  0  0  0  0
 32 67  2  0  0  0  0
 33 68  1  0  0  0  0
 33 72  1  0  0  0  0
 34 35  2  0  0  0  0
 34 36  1  0  0  0  0
 34 55  1  0  0  0  0
 35 45  1  0  0  0  0
 35 62  1  0  0  0  0
 36 69  1  0  0  0  0
 36 78  2  0  0  0  0
 37 73  1  0  0  0  0
 37 79  2  0  0  0  0
 38 53  1  0  0  0  0
 38 74  1  0  0  0  0
 38 80  2  0  0  0  0
 39 64  1  0  0  0  0
 39 70  1  0  0  0  0
 39 81  2  0  0  0  0
 40 65  1  0  0  0  0
 40 75  1  0  0  0  0
 40 82  2  0  0  0  0
 41 71  1  0  0  0  0
 41 76  1  0  0  0  0
 41 83  2  0  0  0  0
 42 46  1  0  0  0  0
 43 53  1  0  0  0  0
 44 70  1  0  0  0  0
 45 69  1  0  0  0  0
 46 48  1  0  0  0  0
 47 49  1  0  0  0  0
 47 50  1  0  0  0  0
 48 52  1  0  0  0  0
 49 54  1  0  0  0  0
 50 71  1  0  0  0  0
 51 54  1  0  0  0  0
 51 71  1  0  0  0  0
 52 74  1  0  0  0  0
 53 70  1  0  0  0  0
 54 68  1  0  0  0  0
 56 63  1  0  0  0  0
 57 65  1  0  0  0  0
 58 66  1  0  0  0  0
 59 66  1  0  0  0  0
 60 66  1  0  0  0  0
 61 77  1  0  0  0  0
 62 85  1  0  0  0  0
 63 76  1  0  0  0  0
 64 66  1  0  0  0  0
 64 75  1  0  0  0  0
 65 77  1  0  0  0  0
 67 68  1  0  0  0  0
M  CHG  1  77   1
M  ISO  4  41 100  62 101  76 100  85 101
M  END
> <Batch ID>
0075

> <Smiles>
CC[100N:0](c1ccc(N2CC([101CH2:1][101O:1]c3ccc4c(c3)CN(C(=O)C(NC(=O)C(C)NC)C(C)(C)C)C(C(=O)NC3CCCc5ccccc53)C4)=C(C)C2=O)cc1)[100C:0](=O)N1CCCC(n2nc(-c3ccc(Oc4ccc(F)cc4F)cc3)c(C(N)=O)c2N)C1

> <Shape>
0.204

> <Color>
0.081

> <Negative vol penalty>
0.000

$$$$

  -OEChem-04042323473D

 87 96  0     1  0  0  0  0  0999 V2000
  -27.3629  -35.1483   23.6906 C   0  0  0  0  0  0  0  0  0  0  0  0
  -27.6623  -33.8237   23.3885 C   0  0  0  0  0  0  0  0  0  0  0  0
  -32.3388  -18.6693   19.1266 C   0  0  0  0  0  0  0  0  0  0  0  0
  -23.1260   -9.9779   21.5437 C   0  0  0  0  0  0  0  0  0  0  0  0
  -23.6753  -11.3018   23.4886 C   0  0  0  0  0  0  0  0  0  0  0  0
  -26.1276  -35.4725   24.2498 C   0  0  0  0  0  0  0  0  0  0  0  0
  -26.7267  -32.8224   23.6464 C   0  0  0  0  0  0  0  0  0  0  0  0
  -26.2725  -29.5523   19.8065 C   0  0  0  0  0  0  0  0  0  0  0  0
  -31.4989  -19.7727   19.2768 C   0  0  0  0  0  0  0  0  0  0  0  0
  -31.8627  -17.3876   19.4031 C   0  0  0  0  0  0  0  0  0  0  0  0
  -22.3426   -9.1389   22.3360 C   0  0  0  0  0  0  0  0  0  0  0  0
  -22.8918  -10.4627   24.2810 C   0  0  0  0  0  0  0  0  0  0  0  0
  -27.2648  -28.5816   19.6760 C   0  0  0  0  0  0  0  0  0  0  0  0
  -22.8282   -6.5827   24.4935 C   0  0  0  0  0  0  0  0  0  0  0  0
  -22.9617   -5.2068   24.3080 C   0  0  0  0  0  0  0  0  0  0  0  0
  -25.8174  -26.9684   20.7352 C   0  0  0  0  0  0  0  0  0  0  0  0
  -29.7069  -18.3130   19.9802 C   0  0  0  0  0  0  0  0  0  0  0  0
  -20.6221   -5.0584   23.7240 C   0  0  0  0  0  0  0  0  0  0  0  0
  -23.7924  -11.0593   22.1200 C   0  0  0  0  0  0  0  0  0  0  0  0
  -24.1877  -13.0899   20.6273 C   0  0  0  0  0  0  0  0  0  0  0  0
  -25.1727  -34.4759   24.5057 C   0  0  0  0  0  0  0  0  0  0  0  0
  -25.0473  -29.2406   20.4131 C   0  0  0  0  0  0  0  0  0  0  0  0
  -25.4780  -33.1334   24.2108 C   0  0  0  0  0  0  0  0  0  0  0  0
  -24.8103  -27.9362   20.8698 C   0  0  0  0  0  0  0  0  0  0  0  0
  -30.1830  -19.5946   19.7036 C   0  0  0  0  0  0  0  0  0  0  0  0
  -30.5468  -17.2095   19.8299 C   0  0  0  0  0  0  0  0  0  0  0  0
  -22.2254   -9.3813   23.7047 C   0  0  0  0  0  0  0  0  0  0  0  0
  -27.0384  -27.2902   20.1430 C   0  0  0  0  0  0  0  0  0  0  0  0
  -21.5916   -7.1966   24.2943 C   0  0  0  0  0  0  0  0  0  0  0  0
  -21.8587   -4.4446   23.9232 C   0  0  0  0  0  0  0  0  0  0  0  0
  -20.4885   -6.4344   23.9095 C   0  0  0  0  0  0  0  0  0  0  0  0
  -24.6023  -11.9261   21.3022 C   0  0  0  0  0  0  0  0  0  0  0  0
  -25.3212  -13.5446   19.9988 C   0  0  0  0  0  0  0  0  0  0  0  0
  -28.7340  -22.8194   20.1025 C   0  0  0  0  0  0  0  0  0  0  0  0
  -22.8937  -13.7051   20.5735 C   0  0  0  0  0  0  0  0  0  0  0  0
  -28.8859  -24.1335   20.3031 C   0  0  0  0  0  0  0  0  0  0  0  0
  -23.5011  -30.2571   22.9977 C   0  0  0  0  0  0  0  0  0  0  0  0
  -21.1384  -28.3496   21.8568 C   0  0  0  0  0  0  0  0  0  0  0  0
  -20.2496  -25.6718   19.9368 C   0  0  0  0  0  0  0  0  0  0  0  0
  -30.7665  -14.7068   20.0153 C   0  0  0  0  0  0  0  0  0  0  0  0
  -23.8693  -34.8689   25.1549 C   0  0  0  0  0  0  0  0  0  0  0  0
  -23.9772  -30.2920   20.5222 C   0  0  0  0  0  0  0  0  0  0  0  0
  -23.5044  -27.5452   21.5103 C   0  0  0  0  0  0  0  0  0  0  0  0
  -22.7888  -33.7956   25.0503 C   0  0  0  0  0  0  0  0  0  0  0  0
  -29.8291  -11.3399   19.3351 C   0  0  0  0  0  0  0  0  0  0  0  0
  -23.3575  -32.4282   25.4159 C   0  0  0  0  0  0  0  0  0  0  0  0
  -28.3516  -11.2880   19.7307 C   0  0  0  0  0  0  0  0  0  0  0  0
  -30.6355  -12.2385   20.2711 C   0  0  0  0  0  0  0  0  0  0  0  0
  -28.6244  -13.5440   20.8366 C   0  0  0  0  0  0  0  0  0  0  0  0
  -27.9606  -20.6284   20.2898 C   0  0  0  0  0  0  0  0  0  0  0  0
  -24.4797  -32.0221   24.4529 C   0  0  1  0  0  0  0  0  0  0  0  0
  -22.9599  -29.9975   21.6202 C   0  0  1  0  0  0  0  0  0  0  0  0
  -27.7592  -12.7026   19.8841 C   0  0  2  0  0  0  0  0  0  0  0  0
  -27.4378  -22.0515   20.0816 C   0  0  0  0  0  0  0  0  0  0  0  0
  -30.2423  -24.7775   20.2991 C   0  0  0  0  0  0  0  0  0  0  0  0
  -26.7634  -22.1901   18.7082 C   0  0  0  0  0  0  0  0  0  0  0  0
  -26.4545  -22.4366   21.1919 C   0  0  0  0  0  0  0  0  0  0  0  0
  -18.2489  -24.3322   19.2300 C   0  0  0  0  0  0  0  0  0  0  0  0
  -21.0804  -26.9978   24.5917 C   0  0  0  0  0  0  0  0  0  0  0  0
  -19.7969  -25.1141   23.5559 C   0  0  0  0  0  0  0  0  0  0  0  0
  -18.8289  -27.4130   23.5852 C   0  0  0  0  0  0  0  0  0  0  0  0
  -20.6740  -26.3276   17.0822 C   0  0  0  0  0  0  0  0  0  0  0  0
  -27.7060  -25.0386   20.5179 C   0  0  0  0  0  0  0  0  0  1  0  0
  -20.7566  -26.8996   22.0321 C   0  0  1  0  0  0  0  0  0  0  0  0
  -19.1634  -25.4988   18.8905 C   0  0  2  0  0  0  0  0  0  0  0  0
  -20.1411  -26.6137   23.4309 C   0  0  0  0  0  0  0  0  0  0  0  0
  -25.8980  -11.6580   21.1194 N   0  0  0  0  0  0  0  0  0  0  0  0
  -26.3073  -12.6597   20.3225 N   0  0  0  0  0  0  0  0  0  0  0  0
  -29.3439  -20.6971   19.8530 N   0  0  3  0  0  0  0  0  0  0  0  0
  -22.4918  -28.6102   21.5998 N   0  0  0  0  0  0  0  0  0  0  0  0
  -30.0175  -13.5630   20.3639 N   0  0  0  0  0  0  0  0  0  0  0  0
  -25.5605  -14.6109   19.2063 N   0  0  0  0  0  0  0  0  0  0  0  0
  -21.8397  -13.1068   21.2774 N   0  0  0  0  0  0  0  0  0  0  0  0
  -30.0640  -15.9075   20.1118 N   0  0  0  0  0  0  0  0  0  0  0  0
  -23.9262  -31.5563   23.1995 N   0  0  0  0  0  0  0  0  0  0  0  0
  -19.8785  -26.5707   20.9144 N   0  0  0  0  0  0  0  0  0  0  0  0
  -19.7688  -25.2474   17.5521 N   0  3  0  0  0  0  0  0  0  0  0  0
  -22.6748  -14.7450   19.9071 O   0  0  0  0  0  0  0  0  0  0  0  0
  -23.5294  -29.3464   23.8172 O   0  0  0  0  0  0  0  0  0  0  0  0
  -20.2665  -29.2185   21.9378 O   0  0  0  0  0  0  0  0  0  0  0  0
  -21.3187  -25.0671   19.8935 O   0  0  0  0  0  0  0  0  0  0  0  0
  -31.9361  -14.6244   19.6314 O   0  0  0  0  0  0  0  0  0  0  0  0
  -29.8374  -22.0024   19.9077 O   0  0  0  0  0  0  0  0  0  0  0  0
  -21.4608   -8.5629   24.4781 O   0  0  0  0  0  0  0  0  0  0  0  0
  -28.0055  -26.3410   20.0175 O   0  0  0  0  0  0  0  0  0  1  0  0
  -21.9874   -3.1235   23.7437 F   0  0  0  0  0  0  0  0  0  0  0  0
  -19.2983   -7.0187   23.7155 F   0  0  0  0  0  0  0  0  0  0  0  0
  1  2  1  0  0  0  0
  1  6  2  0  0  0  0
  2  7  2  0  0  0  0
  3  9  2  0  0  0  0
  3 10  1  0  0  0  0
  4 11  2  0  0  0  0
  4 19  1  0  0  0  0
  5 12  1  0  0  0  0
  5 19  2  0  0  0  0
  6 21  1  0  0  0  0
  7 23  1  0  0  0  0
  8 13  2  0  0  0  0
  8 22  1  0  0  0  0
  9 25  1  0  0  0  0
 10 26  2  0  0  0  0
 11 27  1  0  0  0  0
 12 27  2  0  0  0  0
 13 28  1  0  0  0  0
 14 15  2  0  0  0  0
 14 29  1  0  0  0  0
 15 30  1  0  0  0  0
 16 24  1  0  0  0  0
 16 28  2  0  0  0  0
 17 25  2  0  0  0  0
 17 26  1  0  0  0  0
 18 30  2  0  0  0  0
 18 31  1  0  0  0  0
 19 32  1  0  0  0  0
 20 32  1  0  0  0  0
 20 33  2  0  0  0  0
 20 35  1  0  0  0  0
 21 23  2  0  0  0  0
 21 41  1  0  0  0  0
 22 24  2  0  0  0  0
 22 42  1  0  0  0  0
 23 51  1  0  0  0  0
 24 43  1  0  0  0  0
 25 69  1  0  0  0  0
 26 74  1  0  0  0  0
 27 84  1  0  0  0  0
 28 85  1  0  0  0  0
 29 31  2  0  0  0  0
 29 84  1  0  0  0  0
 30 86  1  0  0  0  0
 31 87  1  0  0  0  0
 32 67  2  0  0  0  0
 33 68  1  0  0  0  0
 33 72  1  0  0  0  0
 34 36  2  0  0  0  0
 34 54  1  0  0  0  0
 34 83  1  0  0  0  0
 35 73  1  0  0  0  0
 35 78  2  0  0  0  0
 36 55  1  0  0  0  0
 36 63  1  0  0  0  0
 37 52  1  0  0  0  0
 37 75  1  0  0  0  0
 37 79  2  0  0  0  0
 38 64  1  0  0  0  0
 38 70  1  0  0  0  0
 38 80  2  0  0  0  0
 39 65  1  0  0  0  0
 39 76  1  0  0  0  0
 39 81  2  0  0  0  0
 40 71  1  0  0  0  0
 40 74  1  0  0  0  0
 40 82  2  0  0  0  0
 41 44  1  0  0  0  0
 42 52  1  0  0  0  0
 43 70  1  0  0  0  0
 44 46  1  0  0  0  0
 45 47  1  0  0  0  0
 45 48  1  0  0  0  0
 46 51  1  0  0  0  0
 47 53  1  0  0  0  0
 48 71  1  0  0  0  0
 49 53  1  0  0  0  0
 49 71  1  0  0  0  0
 50 54  1  0  0  0  0
 50 69  1  0  0  0  0
 51 75  1  0  0  0  0
 52 70  1  0  0  0  0
 53 68  1  0  0  0  0
 54 56  1  0  0  0  0
 54 57  1  0  0  0  0
 58 65  1  0  0  0  0
 59 66  1  0  0  0  0
 60 66  1  0  0  0  0
 61 66  1  0  0  0  0
 62 77  1  0  0  0  0
 63 85  1  0  0  0  0
 64 66  1  0  0  0  0
 64 76  1  0  0  0  0
 65 77  1  0  0  0  0
 67 68  1  0  0  0  0
 69 83  1  0  0  0  0
M  CHG  1  77   1
M  ISO  4  40 100  63 101  74 100  85 101
M  END
> <Batch ID>
0075

> <Smiles>
CNC(C)C(=O)NC(C(=O)N1Cc2cc([101O:1][101CH2:1]C(C)=C3ON(c4cccc([100NH:0][100C:0](=O)N5CCCC(n6nc(-c7ccc(Oc8ccc(F)cc8F)cc7)c(C(N)=O)c6N)C5)c4)CC3(C)C)ccc2CC1C(=O)NC1CCCc2ccccc21)C(C)(C)C

> <Shape>
0.367

> <Color>
0.153

> <Negative vol penalty>
0.000

$$$$

  -OEChem-04042323473D

 87 95  0     1  0  0  0  0  0999 V2000
  -24.3295  -22.6600   28.5269 C   0  0  0  0  0  0  0  0  0  0  0  0
  -25.5973  -22.3671   28.0346 C   0  0  0  0  0  0  0  0  0  0  0  0
  -23.0484   -9.8882   19.8894 C   0  0  0  0  0  0  0  0  0  0  0  0
  -23.8416   -9.7890   22.1694 C   0  0  0  0  0  0  0  0  0  0  0  0
  -32.7007  -17.3186   23.6011 C   0  0  0  0  0  0  0  0  0  0  0  0
  -23.2887  -22.9447   27.6439 C   0  0  0  0  0  0  0  0  0  0  0  0
  -25.8248  -22.3577   26.6589 C   0  0  0  0  0  0  0  0  0  0  0  0
  -30.1044  -24.7446   25.3811 C   0  0  0  0  0  0  0  0  0  0  0  0
  -32.0943  -16.4792   22.6667 C   0  0  0  0  0  0  0  0  0  0  0  0
  -22.3046   -8.7268   20.0977 C   0  0  0  0  0  0  0  0  0  0  0  0
  -23.0978   -8.6276   22.3776 C   0  0  0  0  0  0  0  0  0  0  0  0
  -31.3005  -24.0554   25.5764 C   0  0  0  0  0  0  0  0  0  0  0  0
  -19.8762   -7.8114   22.9907 C   0  0  0  0  0  0  0  0  0  0  0  0
  -19.1362   -7.7202   24.1695 C   0  0  0  0  0  0  0  0  0  0  0  0
  -30.5306  -18.1482   24.2642 C   0  0  0  0  0  0  0  0  0  0  0  0
  -31.3511  -23.4911   23.2315 C   0  0  0  0  0  0  0  0  0  0  0  0
  -20.3821   -5.7482   24.7990 C   0  0  0  0  0  0  0  0  0  0  0  0
  -23.8170  -10.4193   20.9253 C   0  0  0  0  0  0  0  0  0  0  0  0
  -31.9188  -18.1530   24.4000 C   0  0  0  0  0  0  0  0  0  0  0  0
  -24.1651  -12.9464   20.9150 C   0  0  0  0  0  0  0  0  0  0  0  0
  -23.5059  -22.9482   26.2570 C   0  0  0  0  0  0  0  0  0  0  0  0
  -29.5160  -24.8031   24.1096 C   0  0  0  0  0  0  0  0  0  0  0  0
  -24.7856  -22.6414   25.7565 C   0  0  0  0  0  0  0  0  0  0  0  0
  -30.1488  -24.1838   23.0223 C   0  0  0  0  0  0  0  0  0  0  0  0
  -30.7060  -16.4743   22.5309 C   0  0  0  0  0  0  0  0  0  0  0  0
  -22.3292   -8.0965   21.3418 C   0  0  0  0  0  0  0  0  0  0  0  0
  -31.9226  -23.4261   24.5021 C   0  0  0  0  0  0  0  0  0  0  0  0
  -20.8690   -6.8709   22.7159 C   0  0  0  0  0  0  0  0  0  0  0  0
  -19.3892   -6.6887   25.0737 C   0  0  0  0  0  0  0  0  0  0  0  0
  -29.9242  -17.3088   23.3297 C   0  0  0  0  0  0  0  0  0  0  0  0
  -21.1220   -5.8394   23.6200 C   0  0  0  0  0  0  0  0  0  0  0  0
  -24.5860  -11.6187   20.7106 C   0  0  0  0  0  0  0  0  0  0  0  0
  -25.2542  -13.7089   20.5701 C   0  0  0  0  0  0  0  0  0  0  0  0
  -32.5600  -19.0419   25.3896 C   0  0  0  0  0  0  0  0  0  0  0  0
  -22.9025  -13.4459   21.3755 C   0  0  0  0  0  0  0  0  0  0  0  0
  -26.7621  -23.8180   22.8648 C   0  0  0  0  0  0  0  0  0  0  0  0
  -27.8219  -25.4151   20.2479 C   0  0  0  0  0  0  0  0  0  0  0  0
  -30.4681  -26.6526   18.4835 C   0  0  0  0  0  0  0  0  0  0  0  0
  -35.4906  -21.1415   25.2262 C   0  0  0  0  0  0  0  0  0  0  0  0
  -30.7257  -14.7317   20.7118 C   0  0  0  0  0  0  0  0  0  0  0  0
  -22.3386  -23.2156   25.3401 C   0  0  0  0  0  0  0  0  0  0  0  0
  -28.2394  -25.5731   23.9104 C   0  0  0  0  0  0  0  0  0  0  0  0
  -29.5687  -24.2342   21.6333 C   0  0  0  0  0  0  0  0  0  0  0  0
  -22.7523  -23.5525   23.9099 C   0  0  0  0  0  0  0  0  0  0  0  0
  -29.5692  -12.4308   18.2530 C   0  0  0  0  0  0  0  0  0  0  0  0
  -23.8087  -22.5701   23.4142 C   0  0  0  0  0  0  0  0  0  0  0  0
  -28.1351  -12.1236   18.6900 C   0  0  0  0  0  0  0  0  0  0  0  0
  -30.5025  -12.6024   19.4502 C   0  0  0  0  0  0  0  0  0  0  0  0
  -28.6181  -13.2682   20.8908 C   0  0  0  0  0  0  0  0  0  0  0  0
  -25.0778  -22.6456   24.2717 C   0  0  1  0  0  0  0  0  0  0  0  0
  -27.4631  -25.1331   22.6730 C   0  0  1  0  0  0  0  0  0  0  0  0
  -27.6277  -13.1511   19.7208 C   0  0  2  0  0  0  0  0  0  0  0  0
  -31.0233  -27.8756   16.3637 C   0  0  0  0  0  0  0  0  0  0  0  0
  -27.3582  -22.8558   18.6526 C   0  0  0  0  0  0  0  0  0  0  0  0
  -28.7848  -23.8147   16.8323 C   0  0  0  0  0  0  0  0  0  0  0  0
  -26.6634  -24.9543   17.4831 C   0  0  0  0  0  0  0  0  0  0  0  0
  -31.6626  -28.9181   19.9666 C   0  0  0  0  0  0  0  0  0  0  0  0
  -37.5594  -22.2187   25.6278 C   0  0  0  0  0  0  0  0  0  0  0  0
  -33.2982  -22.1589   25.9710 C   0  0  0  0  0  0  0  0  0  1  0  0
  -28.6529  -25.0557   19.0399 C   0  0  1  0  0  0  0  0  0  0  0  0
  -30.7073  -28.0091   17.8453 C   0  0  2  0  0  0  0  0  0  0  0  0
  -34.1311  -20.8940   25.8344 C   0  0  1  0  0  0  0  0  0  0  0  0
  -27.8750  -24.1674   18.0284 C   0  0  0  0  0  0  0  0  0  0  0  0
  -25.8444  -11.5388   20.2698 N   0  0  0  0  0  0  0  0  0  0  0  0
  -26.2234  -12.8259   20.1944 N   0  0  0  0  0  0  0  0  0  0  0  0
  -28.3158  -24.9940   21.4907 N   0  0  0  0  0  0  0  0  0  0  0  0
  -29.9596  -13.5937   20.3816 N   0  0  0  0  0  0  0  0  0  0  0  0
  -25.4678  -15.0418   20.5545 N   0  0  0  0  0  0  0  0  0  0  0  0
  -32.2383  -18.8873   26.6740 N   0  0  0  0  0  0  0  0  0  0  0  0
  -21.8927  -12.5249   21.6860 N   0  0  0  0  0  0  0  0  0  0  0  0
  -30.0933  -15.6202   21.5808 N   0  0  0  0  0  0  0  0  0  0  0  0
  -25.8617  -23.8080   23.9129 N   0  0  0  0  0  0  0  0  0  0  0  0
  -29.1307  -26.3168   18.4833 N   0  0  0  0  0  0  0  0  0  0  0  0
  -33.4298  -19.9600   24.9510 N   0  3  0  0  0  0  0  0  0  0  0  0
  -31.8491  -28.6996   18.5090 N   0  3  0  0  0  0  0  0  0  0  0  0
  -22.6710  -14.6732   21.4921 O   0  0  0  0  0  0  0  0  0  0  0  0
  -27.0182  -22.8821   22.1163 O   0  0  0  0  0  0  0  0  0  0  0  0
  -26.7768  -26.0524   20.0951 O   0  0  0  0  0  0  0  0  0  0  0  0
  -31.3771  -25.9586   18.9335 O   0  0  0  0  0  0  0  0  0  0  0  0
  -35.8696  -20.6928   24.1521 O   0  0  0  0  0  0  0  0  0  0  0  0
  -31.8484  -14.9186   20.2358 O   0  0  0  0  0  0  0  0  0  0  0  0
  -21.6033   -6.9633   21.5454 O   0  0  0  0  0  0  0  0  0  0  0  0
  -33.0898  -22.7521   24.6900 O   0  0  0  0  0  0  0  0  0  1  0  0
  -36.2311  -21.9207   26.0693 O   0  0  0  0  0  0  0  0  0  0  0  0
  -18.6796   -6.6021   26.2065 F   0  0  0  0  0  0  0  0  0  0  0  0
  -28.5892  -17.3133   23.2068 F   0  0  0  0  0  0  0  0  0  0  0  0
  -22.0753   -4.9336   23.3621 F   0  0  0  0  0  0  0  0  0  0  0  0
  1  2  1  0  0  0  0
  1  6  2  0  0  0  0
  2  7  2  0  0  0  0
  3 10  2  0  0  0  0
  3 18  1  0  0  0  0
  4 11  1  0  0  0  0
  4 18  2  0  0  0  0
  5  9  2  0  0  0  0
  5 19  1  0  0  0  0
  6 21  1  0  0  0  0
  7 23  1  0  0  0  0
  8 12  2  0  0  0  0
  8 22  1  0  0  0  0
  9 25  1  0  0  0  0
 10 26  1  0  0  0  0
 11 26  2  0  0  0  0
 12 27  1  0  0  0  0
 13 14  2  0  0  0  0
 13 28  1  0  0  0  0
 14 29  1  0  0  0  0
 15 19  2  0  0  0  0
 15 30  1  0  0  0  0
 16 24  1  0  0  0  0
 16 27  2  0  0  0  0
 17 29  2  0  0  0  0
 17 31  1  0  0  0  0
 18 32  1  0  0  0  0
 19 34  1  0  0  0  0
 20 32  1  0  0  0  0
 20 33  2  0  0  0  0
 20 35  1  0  0  0  0
 21 23  2  0  0  0  0
 21 41  1  0  0  0  0
 22 24  2  0  0  0  0
 22 42  1  0  0  0  0
 23 50  1  0  0  0  0
 24 43  1  0  0  0  0
 25 30  2  0  0  0  0
 25 71  1  0  0  0  0
 26 82  1  0  0  0  0
 27 83  1  0  0  0  0
 28 31  2  0  0  0  0
 28 82  1  0  0  0  0
 29 85  1  0  0  0  0
 30 86  1  0  0  0  0
 31 87  1  0  0  0  0
 32 64  2  0  0  0  0
 33 65  1  0  0  0  0
 33 68  1  0  0  0  0
 34 69  1  0  0  0  0
 34 74  2  0  0  0  0
 35 70  1  0  0  0  0
 35 76  2  0  0  0  0
 36 51  1  0  0  0  0
 36 72  1  0  0  0  0
 36 77  2  0  0  0  0
 37 60  1  0  0  0  0
 37 66  1  0  0  0  0
 37 78  2  0  0  0  0
 38 61  1  0  0  0  0
 38 73  1  0  0  0  0
 38 79  2  0  0  0  0
 39 62  1  0  0  0  0
 39 80  2  0  0  0  0
 39 84  1  0  0  0  0
 40 67  1  0  0  0  0
 40 71  1  0  0  0  0
 40 81  2  0  0  0  0
 41 44  1  0  0  0  0
 42 51  1  0  0  0  0
 43 66  1  0  0  0  0
 44 46  1  0  0  0  0
 45 47  1  0  0  0  0
 45 48  1  0  0  0  0
 46 50  1  0  0  0  0
 47 52  1  0  0  0  0
 48 67  1  0  0  0  0
 49 52  1  0  0  0  0
 49 67  1  0  0  0  0
 50 72  1  0  0  0  0
 51 66  1  0  0  0  0
 52 65  1  0  0  0  0
 53 61  1  0  0  0  0
 54 63  1  0  0  0  0
 55 63  1  0  0  0  0
 56 63  1  0  0  0  0
 57 75  1  0  0  0  0
 58 84  1  0  0  0  0
 59 62  1  0  0  0  0
 59 83  1  0  0  0  0
 60 63  1  0  0  0  0
 60 73  1  0  0  0  0
 61 75  1  0  0  0  0
 62 74  1  0  0  0  0
 64 65  1  0  0  0  0
M  CHG  2  74   1  75   1
M  ISO  4  40 100  59 101  71 100  83 101
M  END
> <Batch ID>
0075

> <Smiles>
CNC(C)C(=O)NC(C(=O)N1Cc2cc([101O:1][101CH2:1]C(NC(=N)c3ccc([100NH:0][100C:0](=O)N4CCCC(n5nc(-c6ccc(Oc7ccc(F)cc7F)cc6)c(C(N)=O)c5N)C4)c(F)c3)C(=O)OC)ccc2CC1C(=O)NC1CCCc2ccccc21)C(C)(C)C

> <Shape>
0.210

> <Color>
0.191

> <Negative vol penalty>
0.000

$$$$

  -OEChem-04042323473D

 87 96  0     1  0  0  0  0  0999 V2000
  -21.8268  -27.3762   22.8522 C   0  0  0  0  0  0  0  0  0  0  0  0
  -22.5523  -26.4037   23.5328 C   0  0  0  0  0  0  0  0  0  0  0  0
  -27.3136  -26.0940   18.9253 C   0  0  0  0  0  0  0  0  0  0  0  0
  -25.9454  -24.4633   20.0680 C   0  0  0  0  0  0  0  0  0  0  0  0
  -28.3092  -12.2184   19.4090 C   0  0  0  0  0  0  0  0  0  0  0  0
  -29.7000  -13.0742   21.1895 C   0  0  0  0  0  0  0  0  0  0  0  0
  -20.5863  -27.0597   22.2999 C   0  0  0  0  0  0  0  0  0  0  0  0
  -22.0373  -25.1144   23.6625 C   0  0  0  0  0  0  0  0  0  0  0  0
  -25.1471  -18.2544   21.5894 C   0  0  0  0  0  0  0  0  0  0  0  0
  -28.9076  -13.1061   18.5148 C   0  0  0  0  0  0  0  0  0  0  0  0
  -30.2985  -13.9618   20.2954 C   0  0  0  0  0  0  0  0  0  0  0  0
  -26.3364  -27.0655   19.1414 C   0  0  0  0  0  0  0  0  0  0  0  0
  -24.9681  -25.4349   20.2843 C   0  0  0  0  0  0  0  0  0  0  0  0
  -25.5242  -16.9947   21.1235 C   0  0  0  0  0  0  0  0  0  0  0  0
  -25.3107  -29.0443   21.6842 C   0  0  0  0  0  0  0  0  0  0  0  0
  -25.7300  -30.2973   22.1310 C   0  0  0  0  0  0  0  0  0  0  0  0
  -23.2004  -16.3417   20.9761 C   0  0  0  0  0  0  0  0  0  0  0  0
  -24.7803  -31.3187   20.1582 C   0  0  0  0  0  0  0  0  0  0  0  0
  -27.1181  -24.7929   19.3885 C   0  0  0  0  0  0  0  0  0  0  0  0
  -28.7053  -12.2025   20.7464 C   0  0  0  0  0  0  0  0  0  0  0  0
  -29.4622  -23.8113   19.6103 C   0  0  0  0  0  0  0  0  0  0  0  0
  -20.0602  -25.7633   22.4145 C   0  0  0  0  0  0  0  0  0  0  0  0
  -23.7930  -18.5682   21.7360 C   0  0  0  0  0  0  0  0  0  0  0  0
  -20.7880  -24.7806   23.1123 C   0  0  0  0  0  0  0  0  0  0  0  0
  -22.8163  -17.6061   21.4305 C   0  0  0  0  0  0  0  0  0  0  0  0
  -29.9024  -13.9777   18.9580 C   0  0  0  0  0  0  0  0  0  0  0  0
  -25.1636  -26.7360   19.8210 C   0  0  0  0  0  0  0  0  0  0  0  0
  -24.5533  -16.0407   20.8179 C   0  0  0  0  0  0  0  0  0  0  0  0
  -24.6263  -28.9284   20.4743 C   0  0  0  0  0  0  0  0  0  0  0  0
  -25.4648  -31.4345   21.3681 C   0  0  0  0  0  0  0  0  0  0  0  0
  -24.3611  -30.0656   19.7113 C   0  0  0  0  0  0  0  0  0  0  0  0
  -28.1269  -23.7887   19.1650 C   0  0  0  0  0  0  0  0  0  0  0  0
  -30.0004  -22.6379   19.1415 C   0  0  0  0  0  0  0  0  0  0  0  0
  -28.0741  -11.2639   21.6912 C   0  0  0  0  0  0  0  0  0  0  0  0
  -30.1542  -24.8043   20.3790 C   0  0  0  0  0  0  0  0  0  0  0  0
  -21.2323  -21.1359   22.6979 C   0  0  0  0  0  0  0  0  0  0  0  0
  -20.1592  -19.6954   20.2112 C   0  0  0  0  0  0  0  0  0  0  0  0
  -19.5325  -18.1562   17.2321 C   0  0  0  0  0  0  0  0  0  0  0  0
  -29.6999  -17.2220   18.4172 C   0  0  0  0  0  0  0  0  0  0  0  0
  -18.6938  -25.4811   21.8418 C   0  0  0  0  0  0  0  0  0  0  0  0
  -23.3427  -19.8913   22.2930 C   0  0  0  0  0  0  0  0  0  0  0  0
  -21.3728  -17.9761   21.6366 C   0  0  0  0  0  0  0  0  0  0  0  0
  -18.3885  -23.9922   21.6999 C   0  0  0  0  0  0  0  0  0  0  0  0
  -24.8669   -9.9574   21.2387 C   0  0  0  0  0  0  0  0  0  0  0  0
  -28.1760  -19.2617   15.8453 C   0  0  0  0  0  0  0  0  0  0  0  0
  -18.7710  -23.2450   22.9735 C   0  0  0  0  0  0  0  0  0  0  0  0
  -24.0322  -11.2323   21.1104 C   0  0  0  0  0  0  0  0  0  0  0  0
  -28.1395  -20.6316   16.5254 C   0  0  0  0  0  0  0  0  0  0  0  0
  -25.9876  -10.1278   22.2548 C   0  0  0  0  0  0  0  0  0  0  0  0
  -27.8927  -18.1419   16.8423 C   0  0  0  0  0  0  0  0  0  0  0  0
  -26.0359  -12.6075   21.7894 C   0  0  0  0  0  0  0  0  0  0  0  0
  -28.7610  -19.4971   18.7086 C   0  0  0  0  0  0  0  0  0  0  0  0
  -20.2741  -23.3642   23.2527 C   0  0  1  0  0  0  0  0  0  0  0  0
  -22.0304  -20.3950   21.6657 C   0  0  1  0  0  0  0  0  0  0  0  0
  -24.9122  -12.4435   20.7625 C   0  0  2  0  0  0  0  0  0  0  0  0
  -29.0622  -20.6700   17.7580 C   0  0  2  0  0  0  0  0  0  0  0  0
  -17.8299  -18.0455   15.3919 C   0  0  0  0  0  0  0  0  0  0  0  0
  -18.3460  -18.0120   21.9952 C   0  0  0  0  0  0  0  0  0  0  0  0
  -17.2154  -17.1666   19.9275 C   0  0  0  0  0  0  0  0  0  0  0  0
  -17.1411  -19.5975   20.4824 C   0  0  0  0  0  0  0  0  0  0  0  0
  -21.4831  -19.0934   15.2132 C   0  0  0  0  0  0  0  0  0  0  0  0
  -30.5434  -14.9257   18.0018 C   0  0  0  0  0  0  0  0  0  0  0  0
  -24.0736  -13.7155   20.6728 C   0  0  0  0  0  0  0  0  0  1  0  0
  -19.3060  -18.5781   19.6662 C   0  0  1  0  0  0  0  0  0  0  0  0
  -19.1079  -18.7075   15.8829 C   0  0  2  0  0  0  0  0  0  0  0  0
  -18.0302  -18.3355   20.5212 C   0  0  0  0  0  0  0  0  0  0  0  0
  -27.8348  -22.6882   18.4668 N   0  0  0  0  0  0  0  0  0  0  0  0
  -28.9941  -22.0084   18.4697 N   0  0  0  0  0  0  0  0  0  0  0  0
  -26.7661  -11.3287   21.8978 N   0  0  0  0  0  0  0  0  0  0  0  0
  -21.1317  -19.3456   21.1558 N   0  0  0  0  0  0  0  0  0  0  0  0
  -28.8169  -18.2242   17.9820 N   0  0  0  0  0  0  0  0  0  0  0  0
  -31.2316  -22.0934   19.2424 N   0  0  0  0  0  0  0  0  0  0  0  0
  -30.1398  -24.6972   21.7764 N   0  0  0  0  0  0  0  0  0  0  0  0
  -21.0199  -22.4675   22.3958 N   0  0  0  0  0  0  0  0  0  0  0  0
  -19.0362  -18.9132   18.2722 N   0  0  0  0  0  0  0  0  0  0  0  0
  -29.6864  -16.0448   17.6791 N   0  0  0  0  0  0  0  0  0  0  0  0
  -28.8261  -10.3655   22.3202 N   0  3  0  0  0  0  0  0  0  0  0  0
  -20.1760  -18.4765   14.8696 N   0  3  0  0  0  0  0  0  0  0  0  0
  -30.7533  -25.7673   19.8432 O   0  0  0  0  0  0  0  0  0  0  0  0
  -20.8362  -20.5438   23.6950 O   0  0  0  0  0  0  0  0  0  0  0  0
  -19.9670  -20.8488   19.8162 O   0  0  0  0  0  0  0  0  0  0  0  0
  -20.2312  -17.1522   17.3514 O   0  0  0  0  0  0  0  0  0  0  0  0
  -30.4493  -17.3673   19.3889 O   0  0  0  0  0  0  0  0  0  0  0  0
  -24.2099  -27.6838   20.0324 O   0  0  0  0  0  0  0  0  0  0  0  0
  -24.9283  -14.8144   20.3592 O   0  0  0  0  0  0  0  0  0  1  0  0
  -25.8662  -32.6379   21.7981 F   0  0  0  0  0  0  0  0  0  0  0  0
  -23.7029  -29.9607   18.5487 F   0  0  0  0  0  0  0  0  0  0  0  0
  1  2  1  0  0  0  0
  1  7  2  0  0  0  0
  2  8  2  0  0  0  0
  3 12  2  0  0  0  0
  3 19  1  0  0  0  0
  4 13  1  0  0  0  0
  4 19  2  0  0  0  0
  5 10  2  0  0  0  0
  5 20  1  0  0  0  0
  6 11  1  0  0  0  0
  6 20  2  0  0  0  0
  7 22  1  0  0  0  0
  8 24  1  0  0  0  0
  9 14  2  0  0  0  0
  9 23  1  0  0  0  0
 10 26  1  0  0  0  0
 11 26  2  0  0  0  0
 12 27  1  0  0  0  0
 13 27  2  0  0  0  0
 14 28  1  0  0  0  0
 15 16  2  0  0  0  0
 15 29  1  0  0  0  0
 16 30  1  0  0  0  0
 17 25  1  0  0  0  0
 17 28  2  0  0  0  0
 18 30  2  0  0  0  0
 18 31  1  0  0  0  0
 19 32  1  0  0  0  0
 20 34  1  0  0  0  0
 21 32  1  0  0  0  0
 21 33  2  0  0  0  0
 21 35  1  0  0  0  0
 22 24  2  0  0  0  0
 22 40  1  0  0  0  0
 23 25  2  0  0  0  0
 23 41  1  0  0  0  0
 24 53  1  0  0  0  0
 25 42  1  0  0  0  0
 26 62  1  0  0  0  0
 27 84  1  0  0  0  0
 28 85  1  0  0  0  0
 29 31  2  0  0  0  0
 29 84  1  0  0  0  0
 30 86  1  0  0  0  0
 31 87  1  0  0  0  0
 32 67  2  0  0  0  0
 33 68  1  0  0  0  0
 33 72  1  0  0  0  0
 34 69  1  0  0  0  0
 34 77  2  0  0  0  0
 35 73  1  0  0  0  0
 35 79  2  0  0  0  0
 36 54  1  0  0  0  0
 36 74  1  0  0  0  0
 36 80  2  0  0  0  0
 37 64  1  0  0  0  0
 37 70  1  0  0  0  0
 37 81  2  0  0  0  0
 38 65  1  0  0  0  0
 38 75  1  0  0  0  0
 38 82  2  0  0  0  0
 39 71  1  0  0  0  0
 39 76  1  0  0  0  0
 39 83  2  0  0  0  0
 40 43  1  0  0  0  0
 41 54  1  0  0  0  0
 42 70  1  0  0  0  0
 43 46  1  0  0  0  0
 44 47  1  0  0  0  0
 44 49  1  0  0  0  0
 45 48  1  0  0  0  0
 45 50  1  0  0  0  0
 46 53  1  0  0  0  0
 47 55  1  0  0  0  0
 48 56  1  0  0  0  0
 49 69  1  0  0  0  0
 50 71  1  0  0  0  0
 51 55  1  0  0  0  0
 51 69  1  0  0  0  0
 52 56  1  0  0  0  0
 52 71  1  0  0  0  0
 53 74  1  0  0  0  0
 54 70  1  0  0  0  0
 55 63  1  0  0  0  0
 56 68  1  0  0  0  0
 57 65  1  0  0  0  0
 58 66  1  0  0  0  0
 59 66  1  0  0  0  0
 60 66  1  0  0  0  0
 61 78  1  0  0  0  0
 62 76  1  0  0  0  0
 63 85  1  0  0  0  0
 64 66  1  0  0  0  0
 64 75  1  0  0  0  0
 65 78  1  0  0  0  0
 67 68  1  0  0  0  0
M  CHG  2  77   1  78   1
M  ISO  4  39 100  63 101  76 100  85 101
M  END
> <Batch ID>
0075

> <Smiles>
CNC(C)C(=O)NC(C(=O)N1Cc2cc([101O:1][101CH2:1]C3CCCN(C(=N)c4ccc(C[100NH:0][100C:0](=O)N5CCCC(n6nc(-c7ccc(Oc8ccc(F)cc8F)cc7)c(C(N)=O)c6N)C5)cc4)C3)ccc2CC1C(=O)NC1CCCc2ccccc21)C(C)(C)C

> <Shape>
0.218

> <Color>
0.076

> <Negative vol penalty>
0.000

$$$$

  -OEChem-04042323473D

 85 94  0     1  0  0  0  0  0999 V2000
  -25.9466   -6.8655   22.9799 C   0  0  0  0  0  0  0  0  0  0  0  0
  -26.7021   -7.9629   22.5792 C   0  0  0  0  0  0  0  0  0  0  0  0
  -31.3691  -24.2333   17.9291 C   0  0  0  0  0  0  0  0  0  0  0  0
  -25.6154  -33.4046   22.4581 C   0  0  0  0  0  0  0  0  0  0  0  0
  -24.9698  -31.9988   24.3139 C   0  0  0  0  0  0  0  0  0  0  0  0
  -24.5858   -6.8110   22.6814 C   0  0  0  0  0  0  0  0  0  0  0  0
  -26.0972   -9.0059   21.8787 C   0  0  0  0  0  0  0  0  0  0  0  0
  -27.4574  -14.9656   22.2498 C   0  0  0  0  0  0  0  0  0  0  0  0
  -31.4213  -22.8512   17.7489 C   0  0  0  0  0  0  0  0  0  0  0  0
  -30.2796  -24.8111   18.5808 C   0  0  0  0  0  0  0  0  0  0  0  0
  -26.0474  -34.3851   23.3511 C   0  0  0  0  0  0  0  0  0  0  0  0
  -25.4019  -32.9793   25.2070 C   0  0  0  0  0  0  0  0  0  0  0  0
  -28.2381  -15.8010   21.4520 C   0  0  0  0  0  0  0  0  0  0  0  0
  -24.6544  -36.7926   25.2716 C   0  0  0  0  0  0  0  0  0  0  0  0
  -24.2903  -38.1132   25.0089 C   0  0  0  0  0  0  0  0  0  0  0  0
  -26.2589  -16.5124   20.2706 C   0  0  0  0  0  0  0  0  0  0  0  0
  -29.2942  -22.6245   18.8721 C   0  0  0  0  0  0  0  0  0  0  0  0
  -26.6226  -38.7300   24.8770 C   0  0  0  0  0  0  0  0  0  0  0  0
  -25.0765  -32.2115   22.9395 C   0  0  0  0  0  0  0  0  0  0  0  0
  -23.6288  -31.3248   21.0354 C   0  0  0  0  0  0  0  0  0  0  0  0
  -23.9620   -7.8584   21.9854 C   0  0  0  0  0  0  0  0  0  0  0  0
  -26.0706  -14.8890   22.0564 C   0  0  0  0  0  0  0  0  0  0  0  0
  -24.7271   -8.9647   21.5694 C   0  0  0  0  0  0  0  0  0  0  0  0
  -25.4625  -15.6772   21.0689 C   0  0  0  0  0  0  0  0  0  0  0  0
  -30.3839  -22.0467   18.2204 C   0  0  0  0  0  0  0  0  0  0  0  0
  -29.2421  -24.0067   19.0523 C   0  0  0  0  0  0  0  0  0  0  0  0
  -25.9408  -34.1725   24.7256 C   0  0  0  0  0  0  0  0  0  0  0  0
  -27.6392  -16.5724   20.4604 C   0  0  0  0  0  0  0  0  0  0  0  0
  -26.0026  -36.4407   25.3371 C   0  0  0  0  0  0  0  0  0  0  0  0
  -25.2744  -39.0819   24.8115 C   0  0  0  0  0  0  0  0  0  0  0  0
  -26.9867  -37.4093   25.1398 C   0  0  0  0  0  0  0  0  0  0  0  0
  -24.6295  -31.1985   22.0175 C   0  0  0  0  0  0  0  0  0  0  0  0
  -23.5834  -30.0922   20.4311 C   0  0  0  0  0  0  0  0  0  0  0  0
  -30.6112  -18.7175   16.5185 C   0  0  0  0  0  0  0  0  0  0  0  0
  -22.8133  -32.4551   20.6995 C   0  0  0  0  0  0  0  0  0  0  0  0
  -24.0439  -12.5809   21.2386 C   0  0  0  0  0  0  0  0  0  0  0  0
  -21.8138  -14.8517   21.8654 C   0  0  0  0  0  0  0  0  0  0  0  0
  -21.0478  -18.1675   22.1213 C   0  0  0  0  0  0  0  0  0  0  0  0
  -27.9177  -25.9492   19.9780 C   0  0  0  0  0  0  0  0  0  0  0  0
  -22.4982   -7.7328   21.6443 C   0  0  0  0  0  0  0  0  0  0  0  0
  -25.2390  -14.0031   22.9430 C   0  0  0  0  0  0  0  0  0  0  0  0
  -23.9750  -15.6466   20.8345 C   0  0  0  0  0  0  0  0  0  0  0  0
  -31.1300  -20.0920   16.8826 C   0  0  0  0  0  0  0  0  0  0  0  0
  -21.8549   -9.0524   21.2259 C   0  0  0  0  0  0  0  0  0  0  0  0
  -24.7115  -25.6809   22.0689 C   0  0  0  0  0  0  0  0  0  0  0  0
  -22.7386   -9.7813   20.2185 C   0  0  0  0  0  0  0  0  0  0  0  0
  -23.9674  -26.9095   21.5509 C   0  0  0  0  0  0  0  0  0  0  0  0
  -25.7515  -25.1749   21.0774 C   0  0  0  0  0  0  0  0  0  0  0  0
  -26.3686  -27.5979   21.0116 C   0  0  0  0  0  0  0  0  0  0  0  0
  -29.9213  -19.7789   19.0932 C   0  0  0  0  0  0  0  0  0  0  0  0
  -24.1019  -10.1273   20.8294 C   0  0  1  0  0  0  0  0  0  0  0  0
  -23.9023  -13.6172   22.3173 C   0  0  1  0  0  0  0  0  0  0  0  0
  -24.8771  -27.8842   20.7772 C   0  0  2  0  0  0  0  0  0  0  0  0
  -30.4727  -18.3600   18.9508 C   0  0  1  0  0  0  0  0  0  0  0  0
  -19.1343  -19.7150   22.6121 C   0  0  0  0  0  0  0  0  0  0  0  0
  -20.6796  -14.3281   19.0817 C   0  0  0  0  0  0  0  0  0  0  0  0
  -19.4311  -16.4909   19.2597 C   0  0  0  0  0  0  0  0  0  0  0  0
  -18.9574  -14.6434   20.8675 C   0  0  0  0  0  0  0  0  0  0  0  0
  -22.4273  -19.3141   24.4752 C   0  0  0  0  0  0  0  0  0  0  0  0
  -29.8035  -17.4044   19.9317 C   0  0  0  0  0  0  0  0  0  1  0  0
  -21.1271  -15.9271   21.0587 C   0  0  1  0  0  0  0  0  0  0  0  0
  -20.3141  -18.9519   23.1940 C   0  0  2  0  0  0  0  0  0  0  0  0
  -20.0771  -15.3467   20.0698 C   0  0  0  0  0  0  0  0  0  0  0  0
  -25.1799  -29.9817   22.0393 N   0  0  0  0  0  0  0  0  0  0  0  0
  -24.5228  -29.3321   21.0635 N   0  0  0  0  0  0  0  0  0  0  0  0
  -30.2968  -17.9096   17.5868 N   0  0  0  0  0  0  0  0  0  0  0  0
  -30.4367  -20.6609   18.0401 N   0  0  3  0  0  0  0  0  0  0  0  0
  -23.2056  -14.7598   21.7229 N   0  0  0  0  0  0  0  0  0  0  0  0
  -26.7050  -26.2134   20.6605 N   0  0  0  0  0  0  0  0  0  0  0  0
  -22.8319  -29.5953   19.4257 N   0  0  0  0  0  0  0  0  0  0  0  0
  -21.5865  -32.6134   21.3583 N   0  0  0  0  0  0  0  0  0  0  0  0
  -28.1346  -24.5944   19.7133 N   0  0  0  0  0  0  0  0  0  0  0  0
  -23.9887  -11.2790   21.6985 N   0  0  0  0  0  0  0  0  0  0  0  0
  -20.5794  -16.8743   22.0238 N   0  0  0  0  0  0  0  0  0  0  0  0
  -21.2337  -19.9302   23.8407 N   0  3  0  0  0  0  0  0  0  0  0  0
  -30.5352  -18.3457   15.3481 O   0  0  0  0  0  0  0  0  0  0  0  0
  -23.1548  -33.2910   19.8286 O   0  0  0  0  0  0  0  0  0  0  0  0
  -24.1908  -12.9361   20.0751 O   0  0  0  0  0  0  0  0  0  0  0  0
  -21.1411  -14.1246   22.6006 O   0  0  0  0  0  0  0  0  0  0  0  0
  -21.9442  -18.6544   21.4357 O   0  0  0  0  0  0  0  0  0  0  0  0
  -28.6863  -26.8551   19.6486 O   0  0  0  0  0  0  0  0  0  0  0  0
  -26.3625  -35.1290   25.5973 O   0  0  0  0  0  0  0  0  0  0  0  0
  -28.3990  -17.3881   19.6799 O   0  0  0  0  0  0  0  0  0  1  0  0
  -24.9246  -40.3497   24.5577 F   0  0  0  0  0  0  0  0  0  0  0  0
  -28.2835  -37.0770   25.2003 F   0  0  0  0  0  0  0  0  0  0  0  0
  1  2  1  0  0  0  0
  1  6  2  0  0  0  0
  2  7  2  0  0  0  0
  3  9  2  0  0  0  0
  3 10  1  0  0  0  0
  4 11  2  0  0  0  0
  4 19  1  0  0  0  0
  5 12  1  0  0  0  0
  5 19  2  0  0  0  0
  6 21  1  0  0  0  0
  7 23  1  0  0  0  0
  8 13  2  0  0  0  0
  8 22  1  0  0  0  0
  9 25  1  0  0  0  0
 10 26  2  0  0  0  0
 11 27  1  0  0  0  0
 12 27  2  0  0  0  0
 13 28  1  0  0  0  0
 14 15  2  0  0  0  0
 14 29  1  0  0  0  0
 15 30  1  0  0  0  0
 16 24  1  0  0  0  0
 16 28  2  0  0  0  0
 17 25  2  0  0  0  0
 17 26  1  0  0  0  0
 18 30  2  0  0  0  0
 18 31  1  0  0  0  0
 19 32  1  0  0  0  0
 20 32  1  0  0  0  0
 20 33  2  0  0  0  0
 20 35  1  0  0  0  0
 21 23  2  0  0  0  0
 21 40  1  0  0  0  0
 22 24  2  0  0  0  0
 22 41  1  0  0  0  0
 23 51  1  0  0  0  0
 24 42  1  0  0  0  0
 25 67  1  0  0  0  0
 26 72  1  0  0  0  0
 27 82  1  0  0  0  0
 28 83  1  0  0  0  0
 29 31  2  0  0  0  0
 29 82  1  0  0  0  0
 30 84  1  0  0  0  0
 31 85  1  0  0  0  0
 32 64  2  0  0  0  0
 33 65  1  0  0  0  0
 33 70  1  0  0  0  0
 34 43  1  0  0  0  0
 34 66  1  0  0  0  0
 34 76  2  0  0  0  0
 35 71  1  0  0  0  0
 35 77  2  0  0  0  0
 36 52  1  0  0  0  0
 36 73  1  0  0  0  0
 36 78  2  0  0  0  0
 37 61  1  0  0  0  0
 37 68  1  0  0  0  0
 37 79  2  0  0  0  0
 38 62  1  0  0  0  0
 38 74  1  0  0  0  0
 38 80  2  0  0  0  0
 39 69  1  0  0  0  0
 39 72  1  0  0  0  0
 39 81  2  0  0  0  0
 40 44  1  0  0  0  0
 41 52  1  0  0  0  0
 42 68  1  0  0  0  0
 43 67  1  0  0  0  0
 44 46  1  0  0  0  0
 45 47  1  0  0  0  0
 45 48  1  0  0  0  0
 46 51  1  0  0  0  0
 47 53  1  0  0  0  0
 48 69  1  0  0  0  0
 49 53  1  0  0  0  0
 49 69  1  0  0  0  0
 50 54  1  0  0  0  0
 50 67  1  0  0  0  0
 51 73  1  0  0  0  0
 52 68  1  0  0  0  0
 53 65  1  0  0  0  0
 54 60  1  0  0  0  0
 54 66  1  0  0  0  0
 55 62  1  0  0  0  0
 56 63  1  0  0  0  0
 57 63  1  0  0  0  0
 58 63  1  0  0  0  0
 59 75  1  0  0  0  0
 60 83  1  0  0  0  0
 61 63  1  0  0  0  0
 61 74  1  0  0  0  0
 62 75  1  0  0  0  0
 64 65  1  0  0  0  0
M  CHG  1  75   1
M  ISO  4  39 100  60 101  72 100  83 101
M  END
> <Batch ID>
0075

> <Smiles>
CNC(C)C(=O)NC(C(=O)N1Cc2cc([101O:1][101CH2:1]C3CN(c4cccc([100NH:0][100C:0](=O)N5CCCC(n6nc(-c7ccc(Oc8ccc(F)cc8F)cc7)c(C(N)=O)c6N)C5)c4)CC(=O)N3)ccc2CC1C(=O)NC1CCCc2ccccc21)C(C)(C)C

> <Shape>
0.259

> <Color>
0.045

> <Negative vol penalty>
0.000

$$$$

  -OEChem-04042323473D

 87 96  0     1  0  0  0  0  0999 V2000
  -20.3265   -7.9170   18.5374 C   0  0  0  0  0  0  0  0  0  0  0  0
  -19.8996   -9.2210   18.3077 C   0  0  0  0  0  0  0  0  0  0  0  0
  -27.0169  -25.5690   20.2104 C   0  0  0  0  0  0  0  0  0  0  0  0
  -28.3134  -26.4960   18.3947 C   0  0  0  0  0  0  0  0  0  0  0  0
  -21.2560   -7.6560   19.5432 C   0  0  0  0  0  0  0  0  0  0  0  0
  -20.4013  -10.2647   19.0846 C   0  0  0  0  0  0  0  0  0  0  0  0
  -22.1164  -17.2076   18.6708 C   0  0  0  0  0  0  0  0  0  0  0  0
  -19.3572  -26.3626   23.8315 C   0  0  0  0  0  0  0  0  0  0  0  0
  -19.0243  -27.7112   23.9578 C   0  0  0  0  0  0  0  0  0  0  0  0
  -27.6932  -24.3567   20.0745 C   0  0  0  0  0  0  0  0  0  0  0  0
  -28.9898  -25.2837   18.2587 C   0  0  0  0  0  0  0  0  0  0  0  0
  -21.8726  -18.4177   19.3187 C   0  0  0  0  0  0  0  0  0  0  0  0
  -28.8288  -20.9038   19.9676 C   0  0  0  0  0  0  0  0  0  0  0  0
  -28.0732  -19.7316   19.9918 C   0  0  0  0  0  0  0  0  0  0  0  0
  -19.4921  -26.6205   21.4331 C   0  0  0  0  0  0  0  0  0  0  0  0
  -23.5339  -17.8582   20.9759 C   0  0  0  0  0  0  0  0  0  0  0  0
  -26.8370  -20.4885   18.0589 C   0  0  0  0  0  0  0  0  0  0  0  0
  -27.3270  -26.6387   19.3705 C   0  0  0  0  0  0  0  0  0  0  0  0
  -19.1591  -27.9691   21.5594 C   0  0  0  0  0  0  0  0  0  0  0  0
  -26.9906  -28.9805   20.3247 C   0  0  0  0  0  0  0  0  0  0  0  0
  -21.7766   -8.6982   20.3265 C   0  0  0  0  0  0  0  0  0  0  0  0
  -23.0647  -16.3073   19.1775 C   0  0  0  0  0  0  0  0  0  0  0  0
  -21.3376  -10.0172   20.1028 C   0  0  0  0  0  0  0  0  0  0  0  0
  -23.7897  -16.6384   20.3311 C   0  0  0  0  0  0  0  0  0  0  0  0
  -19.5912  -25.8172   22.5691 C   0  0  0  0  0  0  0  0  0  0  0  0
  -18.9252  -28.5145   22.8218 C   0  0  0  0  0  0  0  0  0  0  0  0
  -28.6797  -24.2141   19.0987 C   0  0  0  0  0  0  0  0  0  0  0  0
  -22.5793  -18.7419   20.4731 C   0  0  0  0  0  0  0  0  0  0  0  0
  -28.5885  -21.8684   18.9890 C   0  0  0  0  0  0  0  0  0  0  0  0
  -27.0773  -19.5240   19.0374 C   0  0  0  0  0  0  0  0  0  0  0  0
  -27.5926  -21.6608   18.0347 C   0  0  0  0  0  0  0  0  0  0  0  0
  -26.6283  -27.8911   19.5100 C   0  0  0  0  0  0  0  0  0  0  0  0
  -26.0107  -29.9167   20.1018 C   0  0  0  0  0  0  0  0  0  0  0  0
  -20.4053  -22.5534   22.2800 C   0  0  0  0  0  0  0  0  0  0  0  0
  -20.0827  -23.4937   23.3539 C   0  0  0  0  0  0  0  0  0  0  0  0
  -20.7283  -21.2394   22.2447 C   0  0  0  0  0  0  0  0  0  0  0  0
  -19.0628  -28.7978   20.3302 C   0  0  0  0  0  0  0  0  0  0  0  0
  -28.1127  -29.1326   21.2041 C   0  0  0  0  0  0  0  0  0  0  0  0
  -22.9625  -13.3306   20.2877 C   0  0  0  0  0  0  0  0  0  0  0  0
  -26.1888  -13.6598   20.3558 C   0  0  0  0  0  0  0  0  0  0  0  0
  -28.8856  -15.7454   20.5124 C   0  0  0  0  0  0  0  0  0  0  0  0
  -20.3386  -29.5754   18.3576 C   0  0  0  0  0  0  0  0  0  0  0  0
  -22.7437   -8.3610   21.4335 C   0  0  0  0  0  0  0  0  0  0  0  0
  -23.3351  -15.0178   18.4518 C   0  0  0  0  0  0  0  0  0  0  0  0
  -24.8328  -15.7155   20.9043 C   0  0  0  0  0  0  0  0  0  0  0  0
  -20.2199  -23.6726   21.2813 C   0  0  0  0  0  0  0  0  0  0  0  0
  -23.5083   -9.5711   21.9640 C   0  0  0  0  0  0  0  0  0  0  0  0
  -22.9175  -31.3751   16.7428 C   0  0  0  0  0  0  0  0  0  0  0  0
  -22.5569  -10.7378   22.2099 C   0  0  0  0  0  0  0  0  0  0  0  0
  -24.1975  -30.7979   17.3533 C   0  0  0  0  0  0  0  0  0  0  0  0
  -21.8533  -30.2987   16.5332 C   0  0  0  0  0  0  0  0  0  0  0  0
  -22.8206  -28.9150   18.3243 C   0  0  0  0  0  0  0  0  0  0  0  0
  -21.8772  -11.1792   20.9081 C   0  0  1  0  0  0  0  0  0  0  0  0
  -23.9562  -13.9484   19.3451 C   0  0  1  0  0  0  0  0  0  0  0  0
  -23.8974  -29.9715   18.6200 C   0  0  1  0  0  0  0  0  0  0  0  0
  -31.2970  -16.4394   20.4864 C   0  0  0  0  0  0  0  0  0  0  0  0
  -26.0880  -12.8128   23.2854 C   0  0  0  0  0  0  0  0  0  0  0  0
  -28.4108  -13.7084   23.5519 C   0  0  0  0  0  0  0  0  0  0  0  0
  -27.9759  -11.8229   21.9776 C   0  0  0  0  0  0  0  0  0  0  0  0
  -28.8821  -16.0650   17.5702 C   0  0  0  0  0  0  0  0  0  0  0  0
  -21.0256  -20.4617   21.0063 C   0  0  0  0  0  0  0  0  0  1  0  0
  -27.1923  -14.1491   21.3720 C   0  0  1  0  0  0  0  0  0  0  0  0
  -30.1648  -15.8008   19.6970 C   0  0  2  0  0  0  0  0  0  0  0  0
  -27.3958  -13.1400   22.5373 C   0  0  0  0  0  0  0  0  0  0  0  0
  -25.5057  -28.1132   18.8212 N   0  0  0  0  0  0  0  0  0  0  0  0
  -25.1541  -29.3530   19.2026 N   0  0  0  0  0  0  0  0  0  0  0  0
  -19.9195  -24.4872   22.4454 N   0  0  0  0  0  0  0  0  0  0  0  0
  -25.0565  -14.4638   20.1623 N   0  0  0  0  0  0  0  0  0  0  0  0
  -21.6206  -29.5687   17.7807 N   0  0  0  0  0  0  0  0  0  0  0  0
  -18.5860  -29.8777   22.9715 N   0  0  0  0  0  0  0  0  0  0  0  0
  -25.8068  -31.1589   20.5894 N   0  0  0  0  0  0  0  0  0  0  0  0
  -29.0235  -28.0730   21.3146 N   0  0  0  0  0  0  0  0  0  0  0  0
  -20.2292  -28.8850   19.5697 N   0  0  0  0  0  0  0  0  0  0  0  0
  -22.7855  -11.9720   20.1074 N   0  0  0  0  0  0  0  0  0  0  0  0
  -28.4093  -14.4566   20.6285 N   0  0  0  0  0  0  0  0  0  0  0  0
  -29.9527  -16.5945   18.4536 N   0  3  0  0  0  0  0  0  0  0  0  0
  -19.9960  -23.4225   24.5622 O   0  0  0  0  0  0  0  0  0  0  0  0
  -17.9865  -29.3117   20.0382 O   0  0  0  0  0  0  0  0  0  0  0  0
  -28.2932  -30.1707   21.8847 O   0  0  0  0  0  0  0  0  0  0  0  0
  -22.3992  -14.0340   21.1180 O   0  0  0  0  0  0  0  0  0  0  0  0
  -26.4052  -12.6069   19.7507 O   0  0  0  0  0  0  0  0  0  0  0  0
  -28.3632  -16.7450   21.0008 O   0  0  0  0  0  0  0  0  0  0  0  0
  -19.3828  -30.1762   17.8568 O   0  0  0  0  0  0  0  0  0  0  0  0
  -29.3400  -23.0313   18.9659 O   0  0  0  0  0  0  0  0  0  0  0  0
  -22.3428  -19.9222   21.1079 O   0  0  0  0  0  0  0  0  0  1  0  0
  -26.3528  -18.3976   19.0599 F   0  0  0  0  0  0  0  0  0  0  0  0
  -27.3580  -22.5833   17.0915 F   0  0  0  0  0  0  0  0  0  0  0  0
  1  2  1  0  0  0  0
  1  5  2  0  0  0  0
  2  6  2  0  0  0  0
  3 10  2  0  0  0  0
  3 18  1  0  0  0  0
  4 11  1  0  0  0  0
  4 18  2  0  0  0  0
  5 21  1  0  0  0  0
  6 23  1  0  0  0  0
  7 12  2  0  0  0  0
  7 22  1  0  0  0  0
  8  9  2  0  0  0  0
  8 25  1  0  0  0  0
  9 26  1  0  0  0  0
 10 27  1  0  0  0  0
 11 27  2  0  0  0  0
 12 28  1  0  0  0  0
 13 14  2  0  0  0  0
 13 29  1  0  0  0  0
 14 30  1  0  0  0  0
 15 19  1  0  0  0  0
 15 25  2  0  0  0  0
 16 24  1  0  0  0  0
 16 28  2  0  0  0  0
 17 30  2  0  0  0  0
 17 31  1  0  0  0  0
 18 32  1  0  0  0  0
 19 26  2  0  0  0  0
 19 37  1  0  0  0  0
 20 32  1  0  0  0  0
 20 33  2  0  0  0  0
 20 38  1  0  0  0  0
 21 23  2  0  0  0  0
 21 43  1  0  0  0  0
 22 24  2  0  0  0  0
 22 44  1  0  0  0  0
 23 53  1  0  0  0  0
 24 45  1  0  0  0  0
 25 67  1  0  0  0  0
 26 70  1  0  0  0  0
 27 84  1  0  0  0  0
 28 85  1  0  0  0  0
 29 31  2  0  0  0  0
 29 84  1  0  0  0  0
 30 86  1  0  0  0  0
 31 87  1  0  0  0  0
 32 65  2  0  0  0  0
 33 66  1  0  0  0  0
 33 71  1  0  0  0  0
 34 35  1  0  0  0  0
 34 36  2  0  0  0  0
 34 46  1  0  0  0  0
 35 67  1  0  0  0  0
 35 77  2  0  0  0  0
 36 61  1  0  0  0  0
 37 73  1  0  0  0  0
 37 78  2  0  0  0  0
 38 72  1  0  0  0  0
 38 79  2  0  0  0  0
 39 54  1  0  0  0  0
 39 74  1  0  0  0  0
 39 80  2  0  0  0  0
 40 62  1  0  0  0  0
 40 68  1  0  0  0  0
 40 81  2  0  0  0  0
 41 63  1  0  0  0  0
 41 75  1  0  0  0  0
 41 82  2  0  0  0  0
 42 69  1  0  0  0  0
 42 73  1  0  0  0  0
 42 83  2  0  0  0  0
 43 47  1  0  0  0  0
 44 54  1  0  0  0  0
 45 68  1  0  0  0  0
 46 67  1  0  0  0  0
 47 49  1  0  0  0  0
 48 50  1  0  0  0  0
 48 51  1  0  0  0  0
 49 53  1  0  0  0  0
 50 55  1  0  0  0  0
 51 69  1  0  0  0  0
 52 55  1  0  0  0  0
 52 69  1  0  0  0  0
 53 74  1  0  0  0  0
 54 68  1  0  0  0  0
 55 66  1  0  0  0  0
 56 63  1  0  0  0  0
 57 64  1  0  0  0  0
 58 64  1  0  0  0  0
 59 64  1  0  0  0  0
 60 76  1  0  0  0  0
 61 85  1  0  0  0  0
 62 64  1  0  0  0  0
 62 75  1  0  0  0  0
 63 76  1  0  0  0  0
 65 66  1  0  0  0  0
M  CHG  1  76   1
M  ISO  4  42 100  61 101  73 100  85 101
M  END
> <Batch ID>
0075

> <Smiles>
CNC(C)C(=O)NC(C(=O)N1Cc2cc([101O:1][101CH2:1]C=C3CN(c4ccc(N)c(C(=O)[100NH:0][100C:0](=O)N5CCCC(n6nc(-c7ccc(Oc8ccc(F)cc8F)cc7)c(C(N)=O)c6N)C5)c4)C3=O)ccc2CC1C(=O)NC1CCCc2ccccc21)C(C)(C)C

> <Shape>
0.236

> <Color>
0.060

> <Negative vol penalty>
0.000

$$$$

  -OEChem-04042323472D

  0  0  0     0  0  0  0  0  0999 V2000
M  END
$$$$

  -OEChem-04042323473D

 86 95  0     1  0  0  0  0  0999 V2000
  -21.1970  -33.4071   25.5955 C   0  0  0  0  0  0  0  0  0  0  0  0
  -22.3889  -32.8043   25.2063 C   0  0  0  0  0  0  0  0  0  0  0  0
  -25.8538  -14.8372   20.6034 C   0  0  0  0  0  0  0  0  0  0  0  0
  -23.7225  -15.9750   20.6073 C   0  0  0  0  0  0  0  0  0  0  0  0
  -28.9040  -22.3879   15.0240 C   0  0  0  0  0  0  0  0  0  0  0  0
  -19.9867  -32.7404   25.4094 C   0  0  0  0  0  0  0  0  0  0  0  0
  -22.3712  -31.5338   24.6317 C   0  0  0  0  0  0  0  0  0  0  0  0
  -26.0975  -29.4206   20.2551 C   0  0  0  0  0  0  0  0  0  0  0  0
  -29.3734  -23.4086   15.8507 C   0  0  0  0  0  0  0  0  0  0  0  0
  -25.2664  -13.7346   21.2237 C   0  0  0  0  0  0  0  0  0  0  0  0
  -23.1350  -14.8723   21.2276 C   0  0  0  0  0  0  0  0  0  0  0  0
  -27.2448  -28.6298   20.3012 C   0  0  0  0  0  0  0  0  0  0  0  0
  -23.3496  -11.0985   20.3240 C   0  0  0  0  0  0  0  0  0  0  0  0
  -23.6613   -9.8329   19.8273 C   0  0  0  0  0  0  0  0  0  0  0  0
  -25.9067  -26.6732   19.8532 C   0  0  0  0  0  0  0  0  0  0  0  0
  -30.8130  -21.8312   16.9805 C   0  0  0  0  0  0  0  0  0  0  0  0
  -24.5622   -9.2096   21.9807 C   0  0  0  0  0  0  0  0  0  0  0  0
  -25.0819  -15.9574   20.2952 C   0  0  0  0  0  0  0  0  0  0  0  0
  -29.3890  -21.0889   15.1755 C   0  0  0  0  0  0  0  0  0  0  0  0
  -26.7455  -17.8856   20.1468 C   0  0  0  0  0  0  0  0  0  0  0  0
  -19.9533  -31.4652   24.8234 C   0  0  0  0  0  0  0  0  0  0  0  0
  -24.8427  -28.8413   20.0181 C   0  0  0  0  0  0  0  0  0  0  0  0
  -21.1594  -30.8489   24.4388 C   0  0  0  0  0  0  0  0  0  0  0  0
  -24.7454  -27.4593   19.8020 C   0  0  0  0  0  0  0  0  0  0  0  0
  -30.3280  -23.1302   16.8290 C   0  0  0  0  0  0  0  0  0  0  0  0
  -30.3435  -20.8105   16.1538 C   0  0  0  0  0  0  0  0  0  0  0  0
  -23.9070  -13.7522   21.5358 C   0  0  0  0  0  0  0  0  0  0  0  0
  -27.1491  -27.2555   20.1031 C   0  0  0  0  0  0  0  0  0  0  0  0
  -23.6442  -11.4197   21.6491 C   0  0  0  0  0  0  0  0  0  0  0  0
  -24.2676   -8.8885   20.6557 C   0  0  0  0  0  0  0  0  0  0  0  0
  -24.2505  -10.4753   22.4774 C   0  0  0  0  0  0  0  0  0  0  0  0
  -25.6882  -17.0969   19.6550 C   0  0  0  0  0  0  0  0  0  0  0  0
  -26.9489  -18.8329   19.1733 C   0  0  0  0  0  0  0  0  0  0  0  0
  -31.6217  -25.8040   19.7583 C   0  0  0  0  0  0  0  0  0  0  0  0
  -30.4253  -26.0475   19.1979 C   0  0  0  0  0  0  0  0  0  0  0  0
  -28.8762  -20.0447   14.2976 C   0  0  0  0  0  0  0  0  0  0  0  0
  -27.4783  -17.7720   21.3740 C   0  0  0  0  0  0  0  0  0  0  0  0
  -27.5000  -20.1046   13.7539 C   0  0  0  0  0  0  0  0  0  0  0  0
  -22.1301  -28.6158   21.6596 C   0  0  0  0  0  0  0  0  0  0  0  0
  -21.0301  -27.2949   18.9086 C   0  0  0  0  0  0  0  0  0  0  0  0
  -21.7320  -25.6551   15.9991 C   0  0  0  0  0  0  0  0  0  0  0  0
  -18.6251  -30.7640   24.6859 C   0  0  0  0  0  0  0  0  0  0  0  0
  -23.6182  -29.7118   19.9449 C   0  0  0  0  0  0  0  0  0  0  0  0
  -23.4245  -26.7911   19.5239 C   0  0  0  0  0  0  0  0  0  0  0  0
  -32.5796  -24.7922   19.2120 C   0  0  0  0  0  0  0  0  0  0  0  0
  -29.9245  -25.2852   17.9922 C   0  0  0  0  0  0  0  0  0  0  0  0
  -18.6595  -29.5769   23.7268 C   0  0  0  0  0  0  0  0  0  0  0  0
  -24.1877  -20.0571   15.1263 C   0  0  0  0  0  0  0  0  0  0  0  0
  -19.8771  -28.7011   24.0046 C   0  0  0  0  0  0  0  0  0  0  0  0
  -24.3644  -19.3126   16.4493 C   0  0  0  0  0  0  0  0  0  0  0  0
  -32.2414  -24.3753   17.7817 C   0  0  0  0  0  0  0  0  0  0  0  0
  -25.1263  -19.5170   14.0521 C   0  0  0  0  0  0  0  0  0  0  0  0
  -26.7499  -18.7819   15.7761 C   0  0  0  0  0  0  0  0  0  0  0  0
  -21.1791  -29.4822   23.7894 C   0  0  1  0  0  0  0  0  0  0  0  0
  -22.3247  -28.9466   20.2069 C   0  0  1  0  0  0  0  0  0  0  0  0
  -25.8380  -19.3181   16.8935 C   0  0  2  0  0  0  0  0  0  0  0  0
  -20.6221  -24.6761   13.9725 C   0  0  0  0  0  0  0  0  0  0  0  0
  -20.1023  -24.9107   20.5714 C   0  0  0  0  0  0  0  0  0  0  0  0
  -19.8872  -23.6022   18.4478 C   0  0  0  0  0  0  0  0  0  0  0  0
  -18.4914  -25.6390   18.8025 C   0  0  0  0  0  0  0  0  0  0  0  0
  -23.1946  -27.4719   14.1774 C   0  0  0  0  0  0  0  0  0  0  0  0
  -29.4947  -27.0888   19.7477 C   0  0  0  0  0  0  0  0  0  1  0  0
  -20.9649  -25.8955   18.3461 C   0  0  1  0  0  0  0  0  0  0  0  0
  -21.2885  -25.9060   14.5692 C   0  0  2  0  0  0  0  0  0  0  0  0
  -19.8862  -25.0239   19.0491 C   0  0  0  0  0  0  0  0  0  0  0  0
  -25.2504  -17.5076   18.4618 N   0  0  0  0  0  0  0  0  0  0  0  0
  -29.5793  -19.0078   13.9356 N   0  0  0  0  0  0  0  0  0  0  0  0
  -26.0364  -18.5647   18.1958 N   0  0  0  0  0  0  0  0  0  0  0  0
  -30.7983  -24.1526   17.6561 N   0  0  2  0  0  0  0  0  0  0  0  0
  -26.5111  -19.5022   14.5191 N   0  0  0  0  0  0  0  0  0  0  0  0
  -22.2553  -27.6841   19.4684 N   0  0  0  0  0  0  0  0  0  0  0  0
  -30.8461  -19.5013   16.3247 N   0  0  0  0  0  0  0  0  0  0  0  0
  -27.8175  -19.8608   19.0667 N   0  0  0  0  0  0  0  0  0  0  0  0
  -28.6317  -16.9759   21.3922 N   0  0  0  0  0  0  0  0  0  0  0  0
  -21.4721  -29.5967   22.3767 N   0  0  0  0  0  0  0  0  0  0  0  0
  -20.7699  -26.0425   16.9077 N   0  0  0  0  0  0  0  0  0  0  0  0
  -22.4588  -26.2654   13.7193 N   0  3  0  0  0  0  0  0  0  0  0  0
  -27.1117  -18.3459   22.4274 O   0  0  0  0  0  0  0  0  0  0  0  0
  -27.3814  -20.6821   12.6811 O   0  0  0  0  0  0  0  0  0  0  0  0
  -22.5448  -27.5489   22.0971 O   0  0  0  0  0  0  0  0  0  0  0  0
  -20.0331  -28.0185   18.8471 O   0  0  0  0  0  0  0  0  0  0  0  0
  -22.8213  -25.1611   16.2817 O   0  0  0  0  0  0  0  0  0  0  0  0
  -23.3334  -12.6763   22.1409 O   0  0  0  0  0  0  0  0  0  0  0  0
  -28.2673  -26.4812   20.1483 O   0  0  0  0  0  0  0  0  0  1  0  0
  -24.5654   -7.6726   20.1790 F   0  0  0  0  0  0  0  0  0  0  0  0
  -24.5348  -10.7777   23.7516 F   0  0  0  0  0  0  0  0  0  0  0  0
  1  2  1  0  0  0  0
  1  6  2  0  0  0  0
  2  7  2  0  0  0  0
  3 10  2  0  0  0  0
  3 18  1  0  0  0  0
  4 11  1  0  0  0  0
  4 18  2  0  0  0  0
  5  9  2  0  0  0  0
  5 19  1  0  0  0  0
  6 21  1  0  0  0  0
  7 23  1  0  0  0  0
  8 12  2  0  0  0  0
  8 22  1  0  0  0  0
  9 25  1  0  0  0  0
 10 27  1  0  0  0  0
 11 27  2  0  0  0  0
 12 28  1  0  0  0  0
 13 14  2  0  0  0  0
 13 29  1  0  0  0  0
 14 30  1  0  0  0  0
 15 24  1  0  0  0  0
 15 28  2  0  0  0  0
 16 25  2  0  0  0  0
 16 26  1  0  0  0  0
 17 30  2  0  0  0  0
 17 31  1  0  0  0  0
 18 32  1  0  0  0  0
 19 26  2  0  0  0  0
 19 36  1  0  0  0  0
 20 32  1  0  0  0  0
 20 33  2  0  0  0  0
 20 37  1  0  0  0  0
 21 23  2  0  0  0  0
 21 42  1  0  0  0  0
 22 24  2  0  0  0  0
 22 43  1  0  0  0  0
 23 54  1  0  0  0  0
 24 44  1  0  0  0  0
 25 69  1  0  0  0  0
 26 72  1  0  0  0  0
 27 83  1  0  0  0  0
 28 84  1  0  0  0  0
 29 31  2  0  0  0  0
 29 83  1  0  0  0  0
 30 85  1  0  0  0  0
 31 86  1  0  0  0  0
 32 66  2  0  0  0  0
 33 68  1  0  0  0  0
 33 73  1  0  0  0  0
 34 35  2  0  0  0  0
 34 45  1  0  0  0  0
 35 46  1  0  0  0  0
 35 62  1  0  0  0  0
 36 38  1  0  0  0  0
 36 67  2  0  0  0  0
 37 74  1  0  0  0  0
 37 78  2  0  0  0  0
 38 70  1  0  0  0  0
 38 79  2  0  0  0  0
 39 55  1  0  0  0  0
 39 75  1  0  0  0  0
 39 80  2  0  0  0  0
 40 63  1  0  0  0  0
 40 71  1  0  0  0  0
 40 81  2  0  0  0  0
 41 64  1  0  0  0  0
 41 76  1  0  0  0  0
 41 82  2  0  0  0  0
 42 47  1  0  0  0  0
 43 55  1  0  0  0  0
 44 71  1  0  0  0  0
 45 51  1  0  0  0  0
 46 69  1  0  0  0  0
 47 49  1  0  0  0  0
 48 50  1  0  0  0  0
 48 52  1  0  0  0  0
 49 54  1  0  0  0  0
 50 56  1  0  0  0  0
 51 69  1  0  0  0  0
 52 70  1  0  0  0  0
 53 56  1  0  0  0  0
 53 70  1  0  0  0  0
 54 75  1  0  0  0  0
 55 71  1  0  0  0  0
 56 68  1  0  0  0  0
 57 64  1  0  0  0  0
 58 65  1  0  0  0  0
 59 65  1  0  0  0  0
 60 65  1  0  0  0  0
 61 77  1  0  0  0  0
 62 84  1  0  0  0  0
 63 65  1  0  0  0  0
 63 76  1  0  0  0  0
 64 77  1  0  0  0  0
 66 68  1  0  0  0  0
M  CHG  1  77   1
M  ISO  4  36 100  38 100  62 101  84 101
M  END
> <Batch ID>
0075

> <Smiles>
CNC(C)C(=O)NC(C(=O)N1Cc2cc([101O:1][101CH2:1]C3=CCCN(c4ccc([100C:0](=N)[100C:0](=O)N5CCCC(n6nc(-c7ccc(Oc8ccc(F)cc8F)cc7)c(C(N)=O)c6N)C5)c(N)c4)C3)ccc2CC1C(=O)NC1CCCc2ccccc21)C(C)(C)C

> <Shape>
0.206

> <Color>
0.056

> <Negative vol penalty>
0.000

$$$$

  -OEChem-04042323473D

 85 93  0     1  0  0  0  0  0999 V2000
  -17.5316  -26.1975   20.5547 C   0  0  0  0  0  0  0  0  0  0  0  0
  -18.8127  -26.3045   20.0229 C   0  0  0  0  0  0  0  0  0  0  0  0
  -24.3033  -11.0619   24.0469 C   0  0  0  0  0  0  0  0  0  0  0  0
  -24.3013  -13.0995   25.3451 C   0  0  0  0  0  0  0  0  0  0  0  0
  -30.5477  -21.3181   19.8076 C   0  0  0  0  0  0  0  0  0  0  0  0
  -17.1986  -26.8969   21.7139 C   0  0  0  0  0  0  0  0  0  0  0  0
  -19.7613  -27.1118   20.6496 C   0  0  0  0  0  0  0  0  0  0  0  0
  -24.2840  -24.8643   21.0220 C   0  0  0  0  0  0  0  0  0  0  0  0
  -30.4597  -19.9422   20.0194 C   0  0  0  0  0  0  0  0  0  0  0  0
  -23.7730  -10.3683   25.1347 C   0  0  0  0  0  0  0  0  0  0  0  0
  -23.7709  -12.4059   26.4329 C   0  0  0  0  0  0  0  0  0  0  0  0
  -25.0768  -24.8351   19.8755 C   0  0  0  0  0  0  0  0  0  0  0  0
  -20.7518   -9.9642   26.5982 C   0  0  0  0  0  0  0  0  0  0  0  0
  -19.6969   -9.0847   26.3544 C   0  0  0  0  0  0  0  0  0  0  0  0
  -28.1632  -21.4127   19.4306 C   0  0  0  0  0  0  0  0  0  0  0  0
  -26.3492  -26.7046   20.7152 C   0  0  0  0  0  0  0  0  0  0  0  0
  -21.0244   -7.2557   27.2086 C   0  0  0  0  0  0  0  0  0  0  0  0
  -24.5675  -12.4275   24.1521 C   0  0  0  0  0  0  0  0  0  0  0  0
  -29.3995  -22.0534   19.5133 C   0  0  0  0  0  0  0  0  0  0  0  0
  -24.4017  -13.7960   22.0056 C   0  0  0  0  0  0  0  0  0  0  0  0
  -18.1464  -27.7056   22.3605 C   0  0  0  0  0  0  0  0  0  0  0  0
  -24.5113  -25.8225   22.0203 C   0  0  0  0  0  0  0  0  0  0  0  0
  -19.4402  -27.8238   21.8179 C   0  0  0  0  0  0  0  0  0  0  0  0
  -25.5595  -26.7422   21.8745 C   0  0  0  0  0  0  0  0  0  0  0  0
  -29.2234  -19.3016   19.9367 C   0  0  0  0  0  0  0  0  0  0  0  0
  -23.5068  -11.0403   26.3277 C   0  0  0  0  0  0  0  0  0  0  0  0
  -26.1077  -25.7572   19.7206 C   0  0  0  0  0  0  0  0  0  0  0  0
  -21.9430   -9.4894   27.1471 C   0  0  0  0  0  0  0  0  0  0  0  0
  -19.8332   -7.7305   26.6596 C   0  0  0  0  0  0  0  0  0  0  0  0
  -28.0751  -20.0369   19.6423 C   0  0  0  0  0  0  0  0  0  0  0  0
  -22.0793   -8.1351   27.4523 C   0  0  0  0  0  0  0  0  0  0  0  0
  -25.1159  -13.1444   23.0290 C   0  0  0  0  0  0  0  0  0  0  0  0
  -25.3736  -14.3189   21.1880 C   0  0  0  0  0  0  0  0  0  0  0  0
  -29.4918  -23.5100   19.2891 C   0  0  0  0  0  0  0  0  0  0  0  0
  -22.9864  -13.9177   21.8115 C   0  0  0  0  0  0  0  0  0  0  0  0
  -22.8136  -28.1969   23.2788 C   0  0  0  0  0  0  0  0  0  0  0  0
  -25.3309  -28.3980   25.3146 C   0  0  0  0  0  0  0  0  0  0  0  0
  -28.6384  -27.7946   25.9008 C   0  0  0  0  0  0  0  0  0  0  0  0
  -30.1814  -17.0298   20.4542 C   0  0  0  0  0  0  0  0  0  0  0  0
  -17.7259  -28.4797   23.5847 C   0  0  0  0  0  0  0  0  0  0  0  0
  -23.6642  -25.8237   23.2633 C   0  0  0  0  0  0  0  0  0  0  0  0
  -25.8577  -27.7781   22.9264 C   0  0  0  0  0  0  0  0  0  0  0  0
  -18.9002  -29.0188   24.3976 C   0  0  0  0  0  0  0  0  0  0  0  0
  -30.3731  -13.5326   21.0945 C   0  0  0  0  0  0  0  0  0  0  0  0
  -19.9252  -29.6795   23.4812 C   0  0  0  0  0  0  0  0  0  0  0  0
  -28.9637  -13.1735   21.5707 C   0  0  0  0  0  0  0  0  0  0  0  0
  -30.8058  -14.9107   21.5919 C   0  0  0  0  0  0  0  0  0  0  0  0
  -28.4599  -15.6421   21.7681 C   0  0  0  0  0  0  0  0  0  0  0  0
  -20.5042  -28.6700   22.4827 C   0  0  1  0  0  0  0  0  0  0  0  0
  -23.6572  -27.1702   23.9802 C   0  0  1  0  0  0  0  0  0  0  0  0
  -27.9548  -14.2902   21.2381 C   0  0  2  0  0  0  0  0  0  0  0  0
  -30.4192  -28.1054   27.6413 C   0  0  0  0  0  0  0  0  0  0  0  0
  -25.5216  -31.3553   24.5881 C   0  0  0  0  0  0  0  0  0  0  0  0
  -27.8219  -31.3782   25.5763 C   0  0  0  0  0  0  0  0  0  0  0  0
  -25.8531  -30.8540   27.0157 C   0  0  0  0  0  0  0  0  0  0  0  0
  -30.6050  -25.8657   17.8686 C   0  0  0  0  0  0  0  0  0  0  0  0
  -28.6345  -25.5678   16.3316 C   0  0  0  0  0  0  0  0  0  0  0  0
  -29.0759  -24.8774   26.1407 C   0  0  0  0  0  0  0  0  0  0  0  0
  -28.2329  -26.1730   18.7374 C   0  0  0  0  0  0  0  0  0  1  0  0
  -26.6409  -29.1482   25.3241 C   0  0  1  0  0  0  0  0  0  0  0  0
  -29.3542  -27.1725   27.0861 C   0  0  2  0  0  0  0  0  0  0  0  0
  -26.4528  -30.6658   25.6051 C   0  0  0  0  0  0  0  0  0  0  0  0
  -29.1468  -25.4211   17.7642 C   0  0  0  0  0  0  0  0  0  0  0  0
  -26.4392  -13.2429   22.8775 N   0  0  0  0  0  0  0  0  0  0  0  0
  -26.5644  -13.9623   21.7493 N   0  0  0  0  0  0  0  0  0  0  0  0
  -24.9976  -27.7428   24.1208 N   0  0  0  0  0  0  0  0  0  0  0  0
  -29.8040  -15.9184   21.2371 N   0  0  0  0  0  0  0  0  0  0  0  0
  -25.3171  -15.0442   20.0508 N   0  0  0  0  0  0  0  0  0  0  0  0
  -29.9606  -24.2694   20.2792 N   0  0  0  0  0  0  0  0  0  0  0  0
  -22.1299  -13.3204   22.7464 N   0  0  0  0  0  0  0  0  0  0  0  0
  -29.1374  -17.9038   20.1526 N   0  0  0  0  0  0  0  0  0  0  0  0
  -21.4900  -27.8296   23.1279 N   0  0  0  0  0  0  0  0  0  0  0  0
  -27.4964  -28.4636   26.2875 N   0  0  0  0  0  0  0  0  0  0  0  0
  -29.0989  -23.9898   18.1078 N   0  3  0  0  0  0  0  0  0  0  0  0
  -30.0106  -25.8966   26.6835 N   0  3  0  0  0  0  0  0  0  0  0  0
  -22.4957  -14.5239   20.8290 O   0  0  0  0  0  0  0  0  0  0  0  0
  -23.3252  -29.2453   22.9037 O   0  0  0  0  0  0  0  0  0  0  0  0
  -24.6326  -28.3876   26.3315 O   0  0  0  0  0  0  0  0  0  0  0  0
  -29.0530  -27.7000   24.7477 O   0  0  0  0  0  0  0  0  0  0  0  0
  -31.3393  -17.1800   20.0560 O   0  0  0  0  0  0  0  0  0  0  0  0
  -22.9891  -10.3639   27.3893 O   0  0  0  0  0  0  0  0  0  0  0  0
  -26.8827  -25.7313   18.6023 O   0  0  0  0  0  0  0  0  0  1  0  0
  -18.8195   -6.8864   26.4269 F   0  0  0  0  0  0  0  0  0  0  0  0
  -26.8819  -19.4313   19.5590 F   0  0  0  0  0  0  0  0  0  0  0  0
  -23.2208   -7.6733   27.9809 F   0  0  0  0  0  0  0  0  0  0  0  0
  1  2  1  0  0  0  0
  1  6  2  0  0  0  0
  2  7  2  0  0  0  0
  3 10  2  0  0  0  0
  3 18  1  0  0  0  0
  4 11  1  0  0  0  0
  4 18  2  0  0  0  0
  5  9  2  0  0  0  0
  5 19  1  0  0  0  0
  6 21  1  0  0  0  0
  7 23  1  0  0  0  0
  8 12  2  0  0  0  0
  8 22  1  0  0  0  0
  9 25  1  0  0  0  0
 10 26  1  0  0  0  0
 11 26  2  0  0  0  0
 12 27  1  0  0  0  0
 13 14  2  0  0  0  0
 13 28  1  0  0  0  0
 14 29  1  0  0  0  0
 15 19  2  0  0  0  0
 15 30  1  0  0  0  0
 16 24  1  0  0  0  0
 16 27  2  0  0  0  0
 17 29  2  0  0  0  0
 17 31  1  0  0  0  0
 18 32  1  0  0  0  0
 19 34  1  0  0  0  0
 20 32  1  0  0  0  0
 20 33  2  0  0  0  0
 20 35  1  0  0  0  0
 21 23  2  0  0  0  0
 21 40  1  0  0  0  0
 22 24  2  0  0  0  0
 22 41  1  0  0  0  0
 23 49  1  0  0  0  0
 24 42  1  0  0  0  0
 25 30  2  0  0  0  0
 25 71  1  0  0  0  0
 26 81  1  0  0  0  0
 27 82  1  0  0  0  0
 28 31  2  0  0  0  0
 28 81  1  0  0  0  0
 29 83  1  0  0  0  0
 30 84  1  0  0  0  0
 31 85  1  0  0  0  0
 32 64  2  0  0  0  0
 33 65  1  0  0  0  0
 33 68  1  0  0  0  0
 34 69  1  0  0  0  0
 34 74  2  0  0  0  0
 35 70  1  0  0  0  0
 35 76  2  0  0  0  0
 36 50  1  0  0  0  0
 36 72  1  0  0  0  0
 36 77  2  0  0  0  0
 37 60  1  0  0  0  0
 37 66  1  0  0  0  0
 37 78  2  0  0  0  0
 38 61  1  0  0  0  0
 38 73  1  0  0  0  0
 38 79  2  0  0  0  0
 39 67  1  0  0  0  0
 39 71  1  0  0  0  0
 39 80  2  0  0  0  0
 40 43  1  0  0  0  0
 41 50  1  0  0  0  0
 42 66  1  0  0  0  0
 43 45  1  0  0  0  0
 44 46  1  0  0  0  0
 44 47  1  0  0  0  0
 45 49  1  0  0  0  0
 46 51  1  0  0  0  0
 47 67  1  0  0  0  0
 48 51  1  0  0  0  0
 48 67  1  0  0  0  0
 49 72  1  0  0  0  0
 50 66  1  0  0  0  0
 51 65  1  0  0  0  0
 52 61  1  0  0  0  0
 53 62  1  0  0  0  0
 54 62  1  0  0  0  0
 55 62  1  0  0  0  0
 56 63  1  0  0  0  0
 57 63  1  0  0  0  0
 58 75  1  0  0  0  0
 59 63  1  0  0  0  0
 59 82  1  0  0  0  0
 60 62  1  0  0  0  0
 60 73  1  0  0  0  0
 61 75  1  0  0  0  0
 63 74  1  0  0  0  0
 64 65  1  0  0  0  0
M  CHG  2  74   1  75   1
M  ISO  4  39 100  59 101  71 100  82 101
M  END
> <Batch ID>
0075

> <Smiles>
CNC(C)C(=O)NC(C(=O)N1Cc2cc([101O:1][101CH2:1]C(C)(C)NC(=N)c3ccc([100NH:0][100C:0](=O)N4CCCC(n5nc(-c6ccc(Oc7ccc(F)cc7F)cc6)c(C(N)=O)c5N)C4)c(F)c3)ccc2CC1C(=O)NC1CCCc2ccccc21)C(C)(C)C

> <Shape>
0.246

> <Color>
0.103

> <Negative vol penalty>
0.000

$$$$

  -OEChem-04042323473D

 86 95  0     1  0  0  0  0  0999 V2000
  -17.1843  -30.0530   23.1883 C   0  0  0  0  0  0  0  0  0  0  0  0
  -18.0897  -30.1797   24.2357 C   0  0  0  0  0  0  0  0  0  0  0  0
  -36.2885  -23.8131   24.5462 C   0  0  0  0  0  0  0  0  0  0  0  0
  -36.2790  -24.6787   23.4525 C   0  0  0  0  0  0  0  0  0  0  0  0
  -28.2797  -18.2736   18.0075 C   0  0  0  0  0  0  0  0  0  0  0  0
  -29.3109  -17.7518   20.1291 C   0  0  0  0  0  0  0  0  0  0  0  0
  -17.3191  -29.0067   22.2781 C   0  0  0  0  0  0  0  0  0  0  0  0
  -19.1371  -29.2671   24.3664 C   0  0  0  0  0  0  0  0  0  0  0  0
  -25.5951  -25.8877   27.5439 C   0  0  0  0  0  0  0  0  0  0  0  0
  -35.1617  -23.0439   24.8367 C   0  0  0  0  0  0  0  0  0  0  0  0
  -35.1428  -24.7751   22.6492 C   0  0  0  0  0  0  0  0  0  0  0  0
  -28.4924  -16.9626   17.5815 C   0  0  0  0  0  0  0  0  0  0  0  0
  -29.5236  -16.4406   19.7032 C   0  0  0  0  0  0  0  0  0  0  0  0
  -26.3322  -24.7046   27.5717 C   0  0  0  0  0  0  0  0  0  0  0  0
  -27.7146  -13.6048   19.3774 C   0  0  0  0  0  0  0  0  0  0  0  0
  -27.4063  -12.5774   20.2689 C   0  0  0  0  0  0  0  0  0  0  0  0
  -26.5368  -24.7827   25.1694 C   0  0  0  0  0  0  0  0  0  0  0  0
  -29.7033  -11.8312   20.2032 C   0  0  0  0  0  0  0  0  0  0  0  0
  -28.6890  -18.6683   19.2812 C   0  0  0  0  0  0  0  0  0  0  0  0
  -27.3405  -20.5256   20.3945 C   0  0  0  0  0  0  0  0  0  0  0  0
  -18.3616  -28.0741   22.4058 C   0  0  0  0  0  0  0  0  0  0  0  0
  -25.3136  -26.5225   26.3256 C   0  0  0  0  0  0  0  0  0  0  0  0
  -19.3041  -28.2182   23.4442 C   0  0  0  0  0  0  0  0  0  0  0  0
  -25.7981  -25.9751   25.1291 C   0  0  0  0  0  0  0  0  0  0  0  0
  -34.0254  -23.1404   24.0335 C   0  0  0  0  0  0  0  0  0  0  0  0
  -34.0159  -24.0060   22.9397 C   0  0  0  0  0  0  0  0  0  0  0  0
  -29.1143  -16.0460   18.4294 C   0  0  0  0  0  0  0  0  0  0  0  0
  -26.8007  -24.1504   26.3841 C   0  0  0  0  0  0  0  0  0  0  0  0
  -29.0172  -13.7455   18.8987 C   0  0  0  0  0  0  0  0  0  0  0  0
  -28.4006  -11.6906   20.6819 C   0  0  0  0  0  0  0  0  0  0  0  0
  -30.0115  -12.8587   19.3116 C   0  0  0  0  0  0  0  0  0  0  0  0
  -28.4701  -20.0226   19.7215 C   0  0  0  0  0  0  0  0  0  0  0  0
  -27.6200  -21.8565   20.5870 C   0  0  0  0  0  0  0  0  0  0  0  0
  -31.6251  -22.8848   24.6575 C   0  0  0  0  0  0  0  0  0  0  0  0
  -26.1456  -19.8502   20.8087 C   0  0  0  0  0  0  0  0  0  0  0  0
  -22.6588  -27.2469   24.7347 C   0  0  0  0  0  0  0  0  0  0  0  0
  -24.7256  -28.7789   22.7591 C   0  0  0  0  0  0  0  0  0  0  0  0
  -27.9763  -28.1313   21.3340 C   0  0  0  0  0  0  0  0  0  0  0  0
  -32.7226  -24.9396   20.9898 C   0  0  0  0  0  0  0  0  0  0  0  0
  -18.4651  -26.9656   21.3880 C   0  0  0  0  0  0  0  0  0  0  0  0
  -24.5400  -27.8124   26.3150 C   0  0  0  0  0  0  0  0  0  0  0  0
  -25.5404  -26.6284   23.7966 C   0  0  0  0  0  0  0  0  0  0  0  0
  -19.3313  -25.8029   21.8614 C   0  0  0  0  0  0  0  0  0  0  0  0
  -30.0851  -25.4822   18.6604 C   0  0  0  0  0  0  0  0  0  0  0  0
  -20.6555  -26.3259   22.3975 C   0  0  0  0  0  0  0  0  0  0  0  0
  -29.2654  -24.1919   18.7339 C   0  0  0  0  0  0  0  0  0  0  0  0
  -31.6243  -20.5542   25.1321 C   0  0  0  0  0  0  0  0  0  0  0  0
  -31.5822  -25.2116   18.7988 C   0  0  0  0  0  0  0  0  0  0  0  0
  -32.8530  -20.9006   24.3189 C   0  0  0  0  0  0  0  0  0  0  0  0
  -31.1451  -23.1369   20.0533 C   0  0  0  0  0  0  0  0  0  0  0  0
  -20.4333  -27.2198   23.6241 C   0  0  1  0  0  0  0  0  0  0  0  0
  -30.6789  -21.7022   24.8149 C   0  0  1  0  0  0  0  0  0  0  0  0
  -23.8736  -28.0984   24.9728 C   0  0  1  0  0  0  0  0  0  0  0  0
  -29.6263  -23.3654   19.9837 C   0  0  2  0  0  0  0  0  0  0  0  0
  -29.7667  -29.7141   20.5681 C   0  0  0  0  0  0  0  0  0  0  0  0
  -29.0776  -20.5823   26.3726 C   0  0  0  0  0  0  0  0  0  0  0  0
  -23.4298  -28.4594   20.0152 C   0  0  0  0  0  0  0  0  0  0  0  0
  -25.7213  -28.4872   19.0070 C   0  0  0  0  0  0  0  0  0  0  0  0
  -24.8846  -30.4797   20.2530 C   0  0  0  0  0  0  0  0  0  0  0  0
  -30.0014  -26.8718   23.0865 C   0  0  0  0  0  0  0  0  0  0  0  0
  -28.4914  -22.8134   25.3791 C   0  0  0  0  0  0  0  0  0  1  0  0
  -25.5174  -28.3933   21.5330 C   0  0  1  0  0  0  0  0  0  0  0  0
  -29.2807  -28.8179   21.6966 C   0  0  2  0  0  0  0  0  0  0  0  0
  -29.6277  -21.9215   25.8866 C   0  0  2  0  0  0  0  0  0  0  0  0
  -24.8815  -28.9358   20.2220 C   0  0  0  0  0  0  0  0  0  0  0  0
  -29.3979  -20.9578   19.5012 N   0  0  0  0  0  0  0  0  0  0  0  0
  -28.8518  -22.0619   20.0387 N   0  0  0  0  0  0  0  0  0  0  0  0
  -32.8987  -22.3526   24.3474 N   0  0  0  0  0  0  0  0  0  0  0  0
  -24.7739  -27.8847   23.8379 N   0  0  0  0  0  0  0  0  0  0  0  0
  -31.8490  -24.4281   20.0070 N   0  0  0  0  0  0  0  0  0  0  0  0
  -26.9297  -22.8595   21.1701 N   0  0  0  0  0  0  0  0  0  0  0  0
  -26.0213  -18.4819   20.5317 N   0  0  0  0  0  0  0  0  0  0  0  0
  -32.8739  -24.1216   22.1089 N   0  0  0  0  0  0  0  0  0  0  0  0
  -21.6820  -27.8604   23.9739 N   0  0  0  0  0  0  0  0  0  0  0  0
  -26.8828  -28.8501   21.7684 N   0  0  0  0  0  0  0  0  0  0  0  0
  -30.3371  -27.8060   21.9812 N   0  3  0  0  0  0  0  0  0  0  0  0
  -31.2515  -24.0462   24.7365 O   0  0  0  0  0  0  0  0  0  0  0  0
  -25.2085  -20.4460   21.3921 O   0  0  0  0  0  0  0  0  0  0  0  0
  -22.6118  -26.1163   25.2052 O   0  0  0  0  0  0  0  0  0  0  0  0
  -24.0935  -29.8382   22.7622 O   0  0  0  0  0  0  0  0  0  0  0  0
  -27.9318  -27.0659   20.7229 O   0  0  0  0  0  0  0  0  0  0  0  0
  -33.2733  -26.0361   20.8613 O   0  0  0  0  0  0  0  0  0  0  0  0
  -29.3218  -14.7665   18.0142 O   0  0  0  0  0  0  0  0  0  0  0  0
  -27.5198  -22.9953   26.4083 O   0  0  0  0  0  0  0  0  0  1  0  0
  -28.1048  -10.7049   21.5392 F   0  0  0  0  0  0  0  0  0  0  0  0
  -31.2650  -12.9895   18.8561 F   0  0  0  0  0  0  0  0  0  0  0  0
  1  2  1  0  0  0  0
  1  7  2  0  0  0  0
  2  8  2  0  0  0  0
  3  4  1  0  0  0  0
  3 10  2  0  0  0  0
  4 11  2  0  0  0  0
  5 12  2  0  0  0  0
  5 19  1  0  0  0  0
  6 13  1  0  0  0  0
  6 19  2  0  0  0  0
  7 21  1  0  0  0  0
  8 23  1  0  0  0  0
  9 14  2  0  0  0  0
  9 22  1  0  0  0  0
 10 25  1  0  0  0  0
 11 26  1  0  0  0  0
 12 27  1  0  0  0  0
 13 27  2  0  0  0  0
 14 28  1  0  0  0  0
 15 16  2  0  0  0  0
 15 29  1  0  0  0  0
 16 30  1  0  0  0  0
 17 24  1  0  0  0  0
 17 28  2  0  0  0  0
 18 30  2  0  0  0  0
 18 31  1  0  0  0  0
 19 32  1  0  0  0  0
 20 32  1  0  0  0  0
 20 33  2  0  0  0  0
 20 35  1  0  0  0  0
 21 23  2  0  0  0  0
 21 40  1  0  0  0  0
 22 24  2  0  0  0  0
 22 41  1  0  0  0  0
 23 51  1  0  0  0  0
 24 42  1  0  0  0  0
 25 26  2  0  0  0  0
 25 68  1  0  0  0  0
 26 73  1  0  0  0  0
 27 83  1  0  0  0  0
 28 84  1  0  0  0  0
 29 31  2  0  0  0  0
 29 83  1  0  0  0  0
 30 85  1  0  0  0  0
 31 86  1  0  0  0  0
 32 66  2  0  0  0  0
 33 67  1  0  0  0  0
 33 71  1  0  0  0  0
 34 52  1  0  0  0  0
 34 68  1  0  0  0  0
 34 77  2  0  0  0  0
 35 72  1  0  0  0  0
 35 78  2  0  0  0  0
 36 53  1  0  0  0  0
 36 74  1  0  0  0  0
 36 79  2  0  0  0  0
 37 62  1  0  0  0  0
 37 69  1  0  0  0  0
 37 80  2  0  0  0  0
 38 63  1  0  0  0  0
 38 75  1  0  0  0  0
 38 81  2  0  0  0  0
 39 70  1  0  0  0  0
 39 73  1  0  0  0  0
 39 82  2  0  0  0  0
 40 43  1  0  0  0  0
 41 53  1  0  0  0  0
 42 69  1  0  0  0  0
 43 45  1  0  0  0  0
 44 46  1  0  0  0  0
 44 48  1  0  0  0  0
 45 51  1  0  0  0  0
 46 54  1  0  0  0  0
 47 49  1  0  0  0  0
 47 52  1  0  0  0  0
 48 70  1  0  0  0  0
 49 68  1  0  0  0  0
 50 54  1  0  0  0  0
 50 70  1  0  0  0  0
 51 74  1  0  0  0  0
 52 64  1  0  0  0  0
 53 69  1  0  0  0  0
 54 67  1  0  0  0  0
 55 63  1  0  0  0  0
 56 64  1  0  0  0  0
 57 65  1  0  0  0  0
 58 65  1  0  0  0  0
 59 65  1  0  0  0  0
 60 76  1  0  0  0  0
 61 64  1  0  0  0  0
 61 84  1  0  0  0  0
 62 65  1  0  0  0  0
 62 75  1  0  0  0  0
 63 76  1  0  0  0  0
 66 67  1  0  0  0  0
M  CHG  1  76   1
M  ISO  4  39 100  61 101  73 100  84 101
M  END
> <Batch ID>
0075

> <Smiles>
CNC(C)C(=O)NC(C(=O)N1Cc2cc([101O:1][101CH2:1]C(C)C3CCN(c4ccccc4[100NH:0][100C:0](=O)N4CCCC(n5nc(-c6ccc(Oc7ccc(F)cc7F)cc6)c(C(N)=O)c5N)C4)C3=O)ccc2CC1C(=O)NC1CCCc2ccccc21)C(C)(C)C

> <Shape>
0.240

> <Color>
0.068

> <Negative vol penalty>
0.000

$$$$

  -OEChem-04042323473D

 85 94  0     1  0  0  0  0  0999 V2000
  -27.8120  -37.4747   25.8146 C   0  0  0  0  0  0  0  0  0  0  0  0
  -28.3671  -36.6544   24.8376 C   0  0  0  0  0  0  0  0  0  0  0  0
  -24.4013   -8.8138   21.4533 C   0  0  0  0  0  0  0  0  0  0  0  0
  -24.3422  -10.3703   23.3001 C   0  0  0  0  0  0  0  0  0  0  0  0
  -26.7963  -36.9884   26.6368 C   0  0  0  0  0  0  0  0  0  0  0  0
  -27.9075  -35.3470   24.6829 C   0  0  0  0  0  0  0  0  0  0  0  0
  -26.8445  -30.3618   19.6497 C   0  0  0  0  0  0  0  0  0  0  0  0
  -29.3624  -20.4605   20.1086 C   0  0  0  0  0  0  0  0  0  0  0  0
  -29.3911  -19.0813   19.9021 C   0  0  0  0  0  0  0  0  0  0  0  0
  -24.0336   -7.7792   22.3134 C   0  0  0  0  0  0  0  0  0  0  0  0
  -23.9744   -9.3357   24.1603 C   0  0  0  0  0  0  0  0  0  0  0  0
  -27.1493  -29.0300   19.3714 C   0  0  0  0  0  0  0  0  0  0  0  0
  -21.2039   -6.6381   23.7706 C   0  0  0  0  0  0  0  0  0  0  0  0
  -20.2108   -5.7587   23.3394 C   0  0  0  0  0  0  0  0  0  0  0  0
  -25.3355  -28.3235   20.7962 C   0  0  0  0  0  0  0  0  0  0  0  0
  -26.9532  -20.4372   19.9290 C   0  0  0  0  0  0  0  0  0  0  0  0
  -21.7626   -3.9161   23.5230 C   0  0  0  0  0  0  0  0  0  0  0  0
  -24.5556  -10.1094   21.9466 C   0  0  0  0  0  0  0  0  0  0  0  0
  -24.0784  -12.0187   20.3234 C   0  0  0  0  0  0  0  0  0  0  0  0
  -26.3174  -35.6775   26.4857 C   0  0  0  0  0  0  0  0  0  0  0  0
  -25.7880  -30.6847   20.5134 C   0  0  0  0  0  0  0  0  0  0  0  0
  -26.8854  -34.8424   25.5047 C   0  0  0  0  0  0  0  0  0  0  0  0
  -25.0177  -29.6601   21.0818 C   0  0  0  0  0  0  0  0  0  0  0  0
  -28.1434  -21.1385   20.1221 C   0  0  0  0  0  0  0  0  0  0  0  0
  -28.2009  -18.3801   19.7089 C   0  0  0  0  0  0  0  0  0  0  0  0
  -26.9819  -19.0580   19.7224 C   0  0  0  0  0  0  0  0  0  0  0  0
  -23.8202   -8.0401   23.6669 C   0  0  0  0  0  0  0  0  0  0  0  0
  -26.3966  -28.0106   19.9470 C   0  0  0  0  0  0  0  0  0  0  0  0
  -22.4765   -6.1565   24.0779 C   0  0  0  0  0  0  0  0  0  0  0  0
  -20.4901   -4.3977   23.2157 C   0  0  0  0  0  0  0  0  0  0  0  0
  -22.7558   -4.7955   23.9541 C   0  0  0  0  0  0  0  0  0  0  0  0
  -24.9360  -11.1785   21.0587 C   0  0  0  0  0  0  0  0  0  0  0  0
  -24.9234  -12.8604   19.6422 C   0  0  0  0  0  0  0  0  0  0  0  0
  -27.0123  -23.3197   20.3702 C   0  0  0  0  0  0  0  0  0  0  0  0
  -27.3354  -24.6018   20.5880 C   0  0  0  0  0  0  0  0  0  0  0  0
  -28.7826  -24.6929   20.7073 C   0  0  0  0  0  0  0  0  0  0  0  0
  -29.5157  -25.7890   20.9269 C   0  0  0  0  0  0  0  0  0  0  0  0
  -22.6461  -12.0367   20.2618 C   0  0  0  0  0  0  0  0  0  0  0  0
  -25.5507  -32.1941   23.3007 C   0  0  0  0  0  0  0  0  0  0  0  0
  -22.3690  -31.8325   22.7828 C   0  0  0  0  0  0  0  0  0  0  0  0
  -19.8625  -30.1032   21.2419 C   0  0  0  0  0  0  0  0  0  0  0  0
  -29.3937  -16.1750   19.4619 C   0  0  0  0  0  0  0  0  0  0  0  0
  -25.2507  -35.1811   27.4292 C   0  0  0  0  0  0  0  0  0  0  0  0
  -25.4552  -32.1266   20.7823 C   0  0  0  0  0  0  0  0  0  0  0  0
  -23.8604  -29.9543   21.9997 C   0  0  0  0  0  0  0  0  0  0  0  0
  -29.3401  -23.2894   20.5350 C   0  0  0  0  0  0  0  0  0  0  0  0
  -24.5614  -33.9053   26.9524 C   0  0  0  0  0  0  0  0  0  0  0  0
  -29.9427  -12.6860   19.0114 C   0  0  0  0  0  0  0  0  0  0  0  0
  -25.5931  -32.8862   26.4789 C   0  0  0  0  0  0  0  0  0  0  0  0
  -28.6185  -12.0519   19.4434 C   0  0  0  0  0  0  0  0  0  0  0  0
  -30.2987  -13.8972   19.8715 C   0  0  0  0  0  0  0  0  0  0  0  0
  -27.9244  -14.2848   20.4022 C   0  0  0  0  0  0  0  0  0  0  0  0
  -26.3966  -33.4264   25.2898 C   0  0  1  0  0  0  0  0  0  0  0  0
  -24.6823  -32.3291   22.0819 C   0  0  1  0  0  0  0  0  0  0  0  0
  -27.4913  -13.1001   19.5233 C   0  0  2  0  0  0  0  0  0  0  0  0
  -17.3626  -30.0181   21.0410 C   0  0  0  0  0  0  0  0  0  0  0  0
  -22.1936  -30.5417   25.5419 C   0  0  0  0  0  0  0  0  0  0  0  0
  -19.9462  -29.6429   24.9018 C   0  0  0  0  0  0  0  0  0  0  0  0
  -20.3197  -32.1073   25.0016 C   0  0  0  0  0  0  0  0  0  0  0  0
  -19.9631  -30.6170   18.3291 C   0  0  0  0  0  0  0  0  0  0  0  0
  -26.4041  -25.7537   20.6969 C   0  0  0  0  0  0  0  0  0  1  0  0
  -21.3453  -30.7737   23.1144 C   0  0  1  0  0  0  0  0  0  0  0  0
  -18.6520  -30.5714   20.4545 C   0  0  2  0  0  0  0  0  0  0  0  0
  -20.9742  -30.7605   24.6242 C   0  0  0  0  0  0  0  0  0  0  0  0
  -26.2267  -11.4607   20.8629 N   0  0  0  0  0  0  0  0  0  0  0  0
  -26.1865  -12.4875   19.9968 N   0  0  0  0  0  0  0  0  0  0  0  0
  -28.1155  -22.4949   20.3259 N   0  0  0  0  0  0  0  0  0  0  0  0
  -23.5784  -31.3797   22.2368 N   0  0  0  0  0  0  0  0  0  0  0  0
  -29.1860  -14.8490   19.8972 N   0  0  0  0  0  0  0  0  0  0  0  0
  -25.7643  -18.3675   19.5294 N   0  0  0  0  0  0  0  0  0  0  0  0
  -24.7017  -13.8756   18.7805 N   0  0  0  0  0  0  0  0  0  0  0  0
  -21.9327  -11.1025   21.0252 N   0  0  0  0  0  0  0  0  0  0  0  0
  -28.2554  -16.9796   19.5007 N   0  0  0  0  0  0  0  0  0  0  0  0
  -25.6189  -33.3382   24.0725 N   0  0  0  0  0  0  0  0  0  0  0  0
  -20.2141  -31.0061   22.2230 N   0  0  0  0  0  0  0  0  0  0  0  0
  -18.7526  -30.1254   19.0361 N   0  3  0  0  0  0  0  0  0  0  0  0
  -22.0179  -12.8461   19.5381 O   0  0  0  0  0  0  0  0  0  0  0  0
  -26.1157  -31.1301   23.5251 O   0  0  0  0  0  0  0  0  0  0  0  0
  -22.1024  -33.0184   22.9935 O   0  0  0  0  0  0  0  0  0  0  0  0
  -20.4364  -29.0409   21.0123 O   0  0  0  0  0  0  0  0  0  0  0  0
  -30.4935  -16.5603   19.0569 O   0  0  0  0  0  0  0  0  0  0  0  0
  -23.4612   -7.0307   24.5065 O   0  0  0  0  0  0  0  0  0  0  0  0
  -26.6923  -26.7099   19.6776 O   0  0  0  0  0  0  0  0  0  1  0  0
  -19.5358   -3.5531   22.8032 F   0  0  0  0  0  0  0  0  0  0  0  0
  -23.9761   -4.3268   24.2491 F   0  0  0  0  0  0  0  0  0  0  0  0
  1  2  1  0  0  0  0
  1  5  2  0  0  0  0
  2  6  2  0  0  0  0
  3 10  2  0  0  0  0
  3 18  1  0  0  0  0
  4 11  1  0  0  0  0
  4 18  2  0  0  0  0
  5 20  1  0  0  0  0
  6 22  1  0  0  0  0
  7 12  2  0  0  0  0
  7 21  1  0  0  0  0
  8  9  2  0  0  0  0
  8 24  1  0  0  0  0
  9 25  1  0  0  0  0
 10 27  1  0  0  0  0
 11 27  2  0  0  0  0
 12 28  1  0  0  0  0
 13 14  2  0  0  0  0
 13 29  1  0  0  0  0
 14 30  1  0  0  0  0
 15 23  1  0  0  0  0
 15 28  2  0  0  0  0
 16 24  2  0  0  0  0
 16 26  1  0  0  0  0
 17 30  2  0  0  0  0
 17 31  1  0  0  0  0
 18 32  1  0  0  0  0
 19 32  1  0  0  0  0
 19 33  2  0  0  0  0
 19 38  1  0  0  0  0
 20 22  2  0  0  0  0
 20 43  1  0  0  0  0
 21 23  2  0  0  0  0
 21 44  1  0  0  0  0
 22 53  1  0  0  0  0
 23 45  1  0  0  0  0
 24 67  1  0  0  0  0
 25 26  2  0  0  0  0
 25 73  1  0  0  0  0
 26 70  1  0  0  0  0
 27 82  1  0  0  0  0
 28 83  1  0  0  0  0
 29 31  2  0  0  0  0
 29 82  1  0  0  0  0
 30 84  1  0  0  0  0
 31 85  1  0  0  0  0
 32 65  2  0  0  0  0
 33 66  1  0  0  0  0
 33 71  1  0  0  0  0
 34 35  2  0  0  0  0
 34 67  1  0  0  0  0
 35 36  1  0  0  0  0
 35 61  1  0  0  0  0
 36 37  2  0  0  0  0
 36 46  1  0  0  0  0
 38 72  1  0  0  0  0
 38 77  2  0  0  0  0
 39 54  1  0  0  0  0
 39 74  1  0  0  0  0
 39 78  2  0  0  0  0
 40 62  1  0  0  0  0
 40 68  1  0  0  0  0
 40 79  2  0  0  0  0
 41 63  1  0  0  0  0
 41 75  1  0  0  0  0
 41 80  2  0  0  0  0
 42 69  1  0  0  0  0
 42 73  1  0  0  0  0
 42 81  2  0  0  0  0
 43 47  1  0  0  0  0
 44 54  1  0  0  0  0
 45 68  1  0  0  0  0
 46 67  1  0  0  0  0
 47 49  1  0  0  0  0
 48 50  1  0  0  0  0
 48 51  1  0  0  0  0
 49 53  1  0  0  0  0
 50 55  1  0  0  0  0
 51 69  1  0  0  0  0
 52 55  1  0  0  0  0
 52 69  1  0  0  0  0
 53 74  1  0  0  0  0
 54 68  1  0  0  0  0
 55 66  1  0  0  0  0
 56 63  1  0  0  0  0
 57 64  1  0  0  0  0
 58 64  1  0  0  0  0
 59 64  1  0  0  0  0
 60 76  1  0  0  0  0
 61 83  1  0  0  0  0
 62 64  1  0  0  0  0
 62 75  1  0  0  0  0
 63 76  1  0  0  0  0
 65 66  1  0  0  0  0
M  CHG  1  76   1
M  ISO  4  42 100  61 101  73 100  83 101
M  END
> <Batch ID>
0075

> <Smiles>
C=C1CN(c2ccc([100NH:0][100C:0](=O)N3CCCC(n4nc(-c5ccc(Oc6ccc(F)cc6F)cc5)c(C(N)=O)c4N)C3)c(N)c2)C=C1[101CH2:1][101O:1]c1ccc2c(c1)CN(C(=O)C(NC(=O)C(C)NC)C(C)(C)C)C(C(=O)NC1CCCc3ccccc31)C2

> <Shape>
0.321

> <Color>
0.090

> <Negative vol penalty>
0.000

$$$$

  -OEChem-04042323473D

 87 96  0     1  0  0  0  0  0999 V2000
  -29.9978  -23.7111   18.1594 C   0  0  0  0  0  0  0  0  0  0  0  0
  -28.7029  -24.1713   18.3758 C   0  0  0  0  0  0  0  0  0  0  0  0
  -28.2039  -16.6255   21.5090 C   0  0  0  0  0  0  0  0  0  0  0  0
  -25.8090  -16.4097   21.2750 C   0  0  0  0  0  0  0  0  0  0  0  0
  -31.0441  -24.1777   18.9540 C   0  0  0  0  0  0  0  0  0  0  0  0
  -28.4534  -25.0976   19.3878 C   0  0  0  0  0  0  0  0  0  0  0  0
  -24.3154  -29.6117   19.3085 C   0  0  0  0  0  0  0  0  0  0  0  0
  -21.1832  -24.7966   25.9524 C   0  0  0  0  0  0  0  0  0  0  0  0
  -20.7519  -25.9384   25.2771 C   0  0  0  0  0  0  0  0  0  0  0  0
  -28.3372  -15.2397   21.4233 C   0  0  0  0  0  0  0  0  0  0  0  0
  -25.9422  -15.0239   21.1892 C   0  0  0  0  0  0  0  0  0  0  0  0
  -23.0318  -29.7169   19.8424 C   0  0  0  0  0  0  0  0  0  0  0  0
  -28.3345  -12.8823   18.9993 C   0  0  0  0  0  0  0  0  0  0  0  0
  -29.3400  -12.3776   18.1748 C   0  0  0  0  0  0  0  0  0  0  0  0
  -23.9366  -30.8263   21.7839 C   0  0  0  0  0  0  0  0  0  0  0  0
  -20.3346  -24.6120   23.3013 C   0  0  0  0  0  0  0  0  0  0  0  0
  -30.3475  -11.2789   20.0761 C   0  0  0  0  0  0  0  0  0  0  0  0
  -26.9398  -17.2105   21.4350 C   0  0  0  0  0  0  0  0  0  0  0  0
  -26.8218  -19.5658   20.4621 C   0  0  0  0  0  0  0  0  0  0  0  0
  -30.8089  -25.1175   19.9700 C   0  0  0  0  0  0  0  0  0  0  0  0
  -25.4224  -30.1040   20.0146 C   0  0  0  0  0  0  0  0  0  0  0  0
  -29.4973  -25.5762   20.1977 C   0  0  0  0  0  0  0  0  0  0  0  0
  -25.2330  -30.7283   21.2557 C   0  0  0  0  0  0  0  0  0  0  0  0
  -21.1903  -23.5626   25.3021 C   0  0  0  0  0  0  0  0  0  0  0  0
  -20.7660  -23.4703   23.9766 C   0  0  0  0  0  0  0  0  0  0  0  0
  -20.3276  -25.8461   23.9515 C   0  0  0  0  0  0  0  0  0  0  0  0
  -27.2064  -14.4389   21.2633 C   0  0  0  0  0  0  0  0  0  0  0  0
  -22.8425  -30.3217   21.0815 C   0  0  0  0  0  0  0  0  0  0  0  0
  -28.3355  -12.5854   20.3622 C   0  0  0  0  0  0  0  0  0  0  0  0
  -30.3465  -11.5759   18.7132 C   0  0  0  0  0  0  0  0  0  0  0  0
  -29.3419  -11.7836   20.9006 C   0  0  0  0  0  0  0  0  0  0  0  0
  -26.8014  -18.6420   21.5241 C   0  0  0  0  0  0  0  0  0  0  0  0
  -26.6518  -20.7874   21.0663 C   0  0  0  0  0  0  0  0  0  0  0  0
  -20.3205  -28.3374   23.4789 C   0  0  0  0  0  0  0  0  0  0  0  0
  -26.9801  -19.3398   19.0551 C   0  0  0  0  0  0  0  0  0  0  0  0
  -28.0542  -28.8129   21.2436 C   0  0  0  0  0  0  0  0  0  0  0  0
  -28.8242  -31.9069   21.8408 C   0  0  0  0  0  0  0  0  0  0  0  0
  -27.7634  -35.1112   22.3445 C   0  0  0  0  0  0  0  0  0  0  0  0
  -24.1294  -22.4662   26.2307 C   0  0  0  0  0  0  0  0  0  0  0  0
  -31.9642  -25.5569   20.8341 C   0  0  0  0  0  0  0  0  0  0  0  0
  -26.7975  -30.0067   19.4129 C   0  0  0  0  0  0  0  0  0  0  0  0
  -26.3860  -31.2912   22.0445 C   0  0  0  0  0  0  0  0  0  0  0  0
  -31.6756  -26.8205   21.6405 C   0  0  0  0  0  0  0  0  0  0  0  0
  -27.4787  -23.0742   25.1868 C   0  0  0  0  0  0  0  0  0  0  0  0
  -30.3089  -26.7251   22.3112 C   0  0  0  0  0  0  0  0  0  0  0  0
  -27.6867  -22.0906   24.0339 C   0  0  0  0  0  0  0  0  0  0  0  0
  -18.4591  -28.3762   21.9906 C   0  0  0  0  0  0  0  0  0  0  0  0
  -26.6059  -22.4764   26.2881 C   0  0  0  0  0  0  0  0  0  0  0  0
  -18.9263  -26.9449   22.1732 C   0  0  0  0  0  0  0  0  0  0  0  0
  -25.5161  -20.9624   24.6776 C   0  0  0  0  0  0  0  0  0  0  0  0
  -29.1907  -26.5996   21.2694 C   0  0  1  0  0  0  0  0  0  0  0  0
  -27.9114  -30.0824   20.4525 C   0  0  1  0  0  0  0  0  0  0  0  0
  -26.3438  -21.5404   23.5170 C   0  0  2  0  0  0  0  0  0  0  0  0
  -19.6678  -29.2155   22.4123 C   0  0  1  0  0  0  0  0  0  0  0  0
  -20.7629  -22.1595   23.2609 C   0  0  0  0  0  0  0  0  0  0  0  0
  -19.2444  -30.5677   22.9809 C   0  0  0  0  0  0  0  0  0  0  0  0
  -28.6228  -37.4148   22.8468 C   0  0  0  0  0  0  0  0  0  0  0  0
  -29.2691  -31.1038   24.7507 C   0  0  0  0  0  0  0  0  0  0  0  0
  -29.1841  -33.5305   25.3606 C   0  0  0  0  0  0  0  0  0  0  0  0
  -30.9704  -32.6916   23.8349 C   0  0  0  0  0  0  0  0  0  0  0  0
  -26.6773  -36.1942   19.8134 C   0  0  0  0  0  0  0  0  0  0  0  0
  -21.6571  -22.3543   26.0455 C   0  0  0  0  0  0  0  0  0  0  0  0
  -20.6537  -29.4078   21.2540 C   0  0  0  0  0  0  0  0  0  1  0  0
  -28.5953  -32.8637   22.9858 C   0  0  1  0  0  0  0  0  0  0  0  0
  -28.2293  -36.4307   21.7561 C   0  0  2  0  0  0  0  0  0  0  0  0
  -29.4830  -32.5352   24.2193 C   0  0  0  0  0  0  0  0  0  0  0  0
  -26.6320  -19.2267   22.7130 N   0  0  0  0  0  0  0  0  0  0  0  0
  -26.5445  -20.5311   22.4016 N   0  0  0  0  0  0  0  0  0  0  0  0
  -19.8842  -27.0142   23.2605 N   0  0  0  0  0  0  0  0  0  0  0  0
  -27.7119  -31.1662   21.4168 N   0  0  0  0  0  0  0  0  0  0  0  0
  -25.3470  -21.9746   25.7320 N   0  0  0  0  0  0  0  0  0  0  0  0
  -26.5852  -22.0452   20.5805 N   0  0  0  0  0  0  0  0  0  0  0  0
  -27.1436  -18.0229   18.6042 N   0  0  0  0  0  0  0  0  0  0  0  0
  -28.9080  -27.8879   20.6737 N   0  0  0  0  0  0  0  0  0  0  0  0
  -28.7965  -34.2035   22.4446 N   0  0  0  0  0  0  0  0  0  0  0  0
  -22.9838  -21.9426   25.6441 N   0  0  0  0  0  0  0  0  0  0  0  0
  -27.1454  -37.0446   20.9381 N   0  3  0  0  0  0  0  0  0  0  0  0
  -21.1169  -28.7690   24.3009 O   0  0  0  0  0  0  0  0  0  0  0  0
  -26.9931  -20.2794   18.2241 O   0  0  0  0  0  0  0  0  0  0  0  0
  -27.4367  -28.6829   22.2941 O   0  0  0  0  0  0  0  0  0  0  0  0
  -29.9470  -31.8251   21.3364 O   0  0  0  0  0  0  0  0  0  0  0  0
  -26.6002  -34.9074   22.6850 O   0  0  0  0  0  0  0  0  0  0  0  0
  -24.0679  -23.3133   27.1282 O   0  0  0  0  0  0  0  0  0  0  0  0
  -27.3361  -13.0866   21.1793 O   0  0  0  0  0  0  0  0  0  0  0  0
  -21.5907  -30.4251   21.6052 O   0  0  0  0  0  0  0  0  0  1  0  0
  -31.3111  -11.0900   17.9210 F   0  0  0  0  0  0  0  0  0  0  0  0
  -29.3475  -11.4940   22.2089 F   0  0  0  0  0  0  0  0  0  0  0  0
  1  2  1  0  0  0  0
  1  5  2  0  0  0  0
  2  6  2  0  0  0  0
  3 10  2  0  0  0  0
  3 18  1  0  0  0  0
  4 11  1  0  0  0  0
  4 18  2  0  0  0  0
  5 20  1  0  0  0  0
  6 22  1  0  0  0  0
  7 12  2  0  0  0  0
  7 21  1  0  0  0  0
  8  9  2  0  0  0  0
  8 24  1  0  0  0  0
  9 26  1  0  0  0  0
 10 27  1  0  0  0  0
 11 27  2  0  0  0  0
 12 28  1  0  0  0  0
 13 14  2  0  0  0  0
 13 29  1  0  0  0  0
 14 30  1  0  0  0  0
 15 23  1  0  0  0  0
 15 28  2  0  0  0  0
 16 25  1  0  0  0  0
 16 26  2  0  0  0  0
 17 30  2  0  0  0  0
 17 31  1  0  0  0  0
 18 32  1  0  0  0  0
 19 32  1  0  0  0  0
 19 33  2  0  0  0  0
 19 35  1  0  0  0  0
 20 22  2  0  0  0  0
 20 40  1  0  0  0  0
 21 23  2  0  0  0  0
 21 41  1  0  0  0  0
 22 51  1  0  0  0  0
 23 42  1  0  0  0  0
 24 25  2  0  0  0  0
 24 62  1  0  0  0  0
 25 55  1  0  0  0  0
 26 69  1  0  0  0  0
 27 84  1  0  0  0  0
 28 85  1  0  0  0  0
 29 31  2  0  0  0  0
 29 84  1  0  0  0  0
 30 86  1  0  0  0  0
 31 87  1  0  0  0  0
 32 67  2  0  0  0  0
 33 68  1  0  0  0  0
 33 72  1  0  0  0  0
 34 54  1  0  0  0  0
 34 69  1  0  0  0  0
 34 78  2  0  0  0  0
 35 73  1  0  0  0  0
 35 79  2  0  0  0  0
 36 52  1  0  0  0  0
 36 74  1  0  0  0  0
 36 80  2  0  0  0  0
 37 64  1  0  0  0  0
 37 70  1  0  0  0  0
 37 81  2  0  0  0  0
 38 65  1  0  0  0  0
 38 75  1  0  0  0  0
 38 82  2  0  0  0  0
 39 71  1  0  0  0  0
 39 76  1  0  0  0  0
 39 83  2  0  0  0  0
 40 43  1  0  0  0  0
 41 52  1  0  0  0  0
 42 70  1  0  0  0  0
 43 45  1  0  0  0  0
 44 46  1  0  0  0  0
 44 48  1  0  0  0  0
 45 51  1  0  0  0  0
 46 53  1  0  0  0  0
 47 49  1  0  0  0  0
 47 54  1  0  0  0  0
 48 71  1  0  0  0  0
 49 69  1  0  0  0  0
 50 53  1  0  0  0  0
 50 71  1  0  0  0  0
 51 74  1  0  0  0  0
 52 70  1  0  0  0  0
 53 68  1  0  0  0  0
 54 56  1  0  0  0  0
 54 63  1  0  0  0  0
 57 65  1  0  0  0  0
 58 66  1  0  0  0  0
 59 66  1  0  0  0  0
 60 66  1  0  0  0  0
 61 77  1  0  0  0  0
 62 76  1  0  0  0  0
 63 85  1  0  0  0  0
 64 66  1  0  0  0  0
 64 75  1  0  0  0  0
 65 77  1  0  0  0  0
 67 68  1  0  0  0  0
M  CHG  1  77   1
M  ISO  4  39 100  63 101  76 100  85 101
M  END
> <Batch ID>
0075

> <Smiles>
CNC(C)C(=O)NC(C(=O)N1Cc2cc([101O:1][101CH2:1]C3(C)CCN(c4ccc(C[100NH:0][100C:0](=O)N5CCCC(n6nc(-c7ccc(Oc8ccc(F)cc8F)cc7)c(C(N)=O)c6N)C5)c(C)c4)C3=O)ccc2CC1C(=O)NC1CCCc2ccccc21)C(C)(C)C

> <Shape>
0.248

> <Color>
0.057

> <Negative vol penalty>
0.000

$$$$

  -OEChem-04042323473D

 86 94  0     1  0  0  0  0  0999 V2000
  -16.8401  -28.1205   23.8056 C   0  0  0  0  0  0  0  0  0  0  0  0
  -17.6890  -27.5329   22.8731 C   0  0  0  0  0  0  0  0  0  0  0  0
  -24.2644  -14.3211   22.4013 C   0  0  0  0  0  0  0  0  0  0  0  0
  -26.5085  -14.4000   21.5097 C   0  0  0  0  0  0  0  0  0  0  0  0
  -16.9964  -29.4652   24.1390 C   0  0  0  0  0  0  0  0  0  0  0  0
  -18.6941  -28.2902   22.2726 C   0  0  0  0  0  0  0  0  0  0  0  0
  -24.2598  -26.3567   20.6020 C   0  0  0  0  0  0  0  0  0  0  0  0
  -23.9916  -13.2013   21.6158 C   0  0  0  0  0  0  0  0  0  0  0  0
  -26.2357  -13.2801   20.7241 C   0  0  0  0  0  0  0  0  0  0  0  0
  -24.7833  -25.9534   19.3744 C   0  0  0  0  0  0  0  0  0  0  0  0
  -24.6261   -9.8813   21.7052 C   0  0  0  0  0  0  0  0  0  0  0  0
  -23.9649   -8.8117   22.3086 C   0  0  0  0  0  0  0  0  0  0  0  0
  -28.8292  -23.3514   19.4427 C   0  0  0  0  0  0  0  0  0  0  0  0
  -30.9113  -23.0294   18.2605 C   0  0  0  0  0  0  0  0  0  0  0  0
  -25.6486  -28.1770   19.0195 C   0  0  0  0  0  0  0  0  0  0  0  0
  -30.2384  -21.4615   19.9711 C   0  0  0  0  0  0  0  0  0  0  0  0
  -22.1581   -9.0324   20.7199 C   0  0  0  0  0  0  0  0  0  0  0  0
  -25.5229  -14.9205   22.3483 C   0  0  0  0  0  0  0  0  0  0  0  0
  -29.7475  -23.7667   18.4785 C   0  0  0  0  0  0  0  0  0  0  0  0
  -26.3246  -16.0927   24.4674 C   0  0  0  0  0  0  0  0  0  0  0  0
  -18.0102  -30.2368   23.5494 C   0  0  0  0  0  0  0  0  0  0  0  0
  -24.4176  -27.6784   21.0433 C   0  0  0  0  0  0  0  0  0  0  0  0
  -18.8634  -29.6469   22.5974 C   0  0  0  0  0  0  0  0  0  0  0  0
  -25.1283  -28.5940   20.2542 C   0  0  0  0  0  0  0  0  0  0  0  0
  -29.0746  -22.1989   20.1891 C   0  0  0  0  0  0  0  0  0  0  0  0
  -24.9772  -12.6808   20.7772 C   0  0  0  0  0  0  0  0  0  0  0  0
  -25.4753  -26.8643   18.5816 C   0  0  0  0  0  0  0  0  0  0  0  0
  -24.0534  -10.5266   20.6092 C   0  0  0  0  0  0  0  0  0  0  0  0
  -22.7309   -8.3872   21.8160 C   0  0  0  0  0  0  0  0  0  0  0  0
  -31.1568  -21.8768   19.0068 C   0  0  0  0  0  0  0  0  0  0  0  0
  -22.8194  -10.1021   20.1165 C   0  0  0  0  0  0  0  0  0  0  0  0
  -25.8051  -16.0777   23.1591 C   0  0  0  0  0  0  0  0  0  0  0  0
  -26.4065  -17.4255   24.7890 C   0  0  0  0  0  0  0  0  0  0  0  0
  -29.4888  -24.9875   17.6890 C   0  0  0  0  0  0  0  0  0  0  0  0
  -26.6997  -14.9997   25.3161 C   0  0  0  0  0  0  0  0  0  0  0  0
  -22.4341  -30.0618   21.7425 C   0  0  0  0  0  0  0  0  0  0  0  0
  -27.3067  -25.6577   14.8799 C   0  0  0  0  0  0  0  0  0  0  0  0
  -25.1614  -31.5321   22.7027 C   0  0  0  0  0  0  0  0  0  0  0  0
  -28.5569  -31.7798   22.4663 C   0  0  0  0  0  0  0  0  0  0  0  0
  -26.9371  -22.3914   21.5082 C   0  0  0  0  0  0  0  0  0  0  0  0
  -18.1103  -31.6987   23.9064 C   0  0  0  0  0  0  0  0  0  0  0  0
  -23.8700  -28.0907   22.3822 C   0  0  0  0  0  0  0  0  0  0  0  0
  -25.3428  -30.0191   20.6919 C   0  0  0  0  0  0  0  0  0  0  0  0
  -19.4380  -32.3348   23.5028 C   0  0  0  0  0  0  0  0  0  0  0  0
  -24.3465  -21.6418   23.8330 C   0  0  0  0  0  0  0  0  0  0  0  0
  -19.8034  -31.9464   22.0737 C   0  0  0  0  0  0  0  0  0  0  0  0
  -24.4778  -20.1322   24.0477 C   0  0  0  0  0  0  0  0  0  0  0  0
  -24.6398  -22.0365   22.3866 C   0  0  0  0  0  0  0  0  0  0  0  0
  -26.0530  -20.0431   22.0735 C   0  0  0  0  0  0  0  0  0  0  0  0
  -19.9813  -30.4290   21.9427 C   0  0  1  0  0  0  0  0  0  0  0  0
  -23.6460  -29.5953   22.4984 C   0  0  1  0  0  0  0  0  0  0  0  0
  -25.8304  -19.6049   23.5302 C   0  0  2  0  0  0  0  0  0  0  0  0
  -27.5171  -26.4108   13.5908 C   0  0  0  0  0  0  0  0  0  0  0  0
  -30.5016  -33.1007   23.3443 C   0  0  0  0  0  0  0  0  0  0  0  0
  -24.3998  -33.8590   20.8819 C   0  0  0  0  0  0  0  0  0  0  0  0
  -26.7594  -34.6774   21.0571 C   0  0  0  0  0  0  0  0  0  0  0  0
  -25.3360  -34.5337   23.1006 C   0  0  0  0  0  0  0  0  0  0  0  0
  -29.8014  -29.3743   23.6595 C   0  0  0  0  0  0  0  0  0  0  0  0
  -27.1670  -27.1372   16.9325 C   0  0  0  0  0  0  0  0  0  1  0  0
  -28.0207  -26.1881   16.1079 C   0  0  1  0  0  0  0  0  0  0  0  0
  -26.1956  -32.4073   22.0367 C   0  0  1  0  0  0  0  0  0  0  0  0
  -29.6373  -31.8632   23.5295 C   0  0  2  0  0  0  0  0  0  0  0  0
  -25.6671  -33.8431   21.7597 C   0  0  0  0  0  0  0  0  0  0  0  0
  -25.5731  -17.3036   22.6823 N   0  0  0  0  0  0  0  0  0  0  0  0
  -25.9485  -18.1014   23.6965 N   0  0  0  0  0  0  0  0  0  0  0  0
  -24.7829  -30.3757   22.0060 N   0  0  0  0  0  0  0  0  0  0  0  0
  -25.9387  -21.5061   21.9669 N   0  0  0  0  0  0  0  0  0  0  0  0
  -26.8247  -18.0735   25.8970 N   0  0  0  0  0  0  0  0  0  0  0  0
  -30.3703  -25.9844   17.7669 N   0  0  0  0  0  0  0  0  0  0  0  0
  -26.5512  -13.6940   24.8289 N   0  0  0  0  0  0  0  0  0  0  0  0
  -28.1412  -21.7760   21.1677 N   0  0  0  0  0  0  0  0  0  0  0  0
  -21.2638  -30.0225   22.4762 N   0  0  0  0  0  0  0  0  0  0  0  0
  -27.3794  -32.3602   22.8880 N   0  0  0  0  0  0  0  0  0  0  0  0
  -28.3830  -25.0361   16.9360 N   0  3  0  0  0  0  0  0  0  0  0  0
  -30.5173  -30.6620   23.4692 N   0  3  0  0  0  0  0  0  0  0  0  0
  -27.1378  -15.1751   26.4784 O   0  0  0  0  0  0  0  0  0  0  0  0
  -22.5523  -30.4313   20.5801 O   0  0  0  0  0  0  0  0  0  0  0  0
  -26.5820  -24.6628   14.9137 O   0  0  0  0  0  0  0  0  0  0  0  0
  -24.7115  -31.8585   23.8039 O   0  0  0  0  0  0  0  0  0  0  0  0
  -28.7405  -31.2556   21.3699 O   0  0  0  0  0  0  0  0  0  0  0  0
  -26.7475  -23.6090   21.4495 O   0  0  0  0  0  0  0  0  0  0  0  0
  -24.7115  -11.5879   20.0107 O   0  0  0  0  0  0  0  0  0  0  0  0
  -25.9867  -26.4733   17.3827 O   0  0  0  0  0  0  0  0  0  1  0  0
  -22.0967   -7.3590   22.3946 F   0  0  0  0  0  0  0  0  0  0  0  0
  -32.2744  -21.1688   18.7975 F   0  0  0  0  0  0  0  0  0  0  0  0
  -22.2647  -10.7173   19.0631 F   0  0  0  0  0  0  0  0  0  0  0  0
  1  2  1  0  0  0  0
  1  5  2  0  0  0  0
  2  6  2  0  0  0  0
  3  8  2  0  0  0  0
  3 18  1  0  0  0  0
  4  9  1  0  0  0  0
  4 18  2  0  0  0  0
  5 21  1  0  0  0  0
  6 23  1  0  0  0  0
  7 10  2  0  0  0  0
  7 22  1  0  0  0  0
  8 26  1  0  0  0  0
  9 26  2  0  0  0  0
 10 27  1  0  0  0  0
 11 12  2  0  0  0  0
 11 28  1  0  0  0  0
 12 29  1  0  0  0  0
 13 19  2  0  0  0  0
 13 25  1  0  0  0  0
 14 19  1  0  0  0  0
 14 30  2  0  0  0  0
 15 24  1  0  0  0  0
 15 27  2  0  0  0  0
 16 25  2  0  0  0  0
 16 30  1  0  0  0  0
 17 29  2  0  0  0  0
 17 31  1  0  0  0  0
 18 32  1  0  0  0  0
 19 34  1  0  0  0  0
 20 32  1  0  0  0  0
 20 33  2  0  0  0  0
 20 35  1  0  0  0  0
 21 23  2  0  0  0  0
 21 41  1  0  0  0  0
 22 24  2  0  0  0  0
 22 42  1  0  0  0  0
 23 50  1  0  0  0  0
 24 43  1  0  0  0  0
 25 71  1  0  0  0  0
 26 82  1  0  0  0  0
 27 83  1  0  0  0  0
 28 31  2  0  0  0  0
 28 82  1  0  0  0  0
 29 84  1  0  0  0  0
 30 85  1  0  0  0  0
 31 86  1  0  0  0  0
 32 64  2  0  0  0  0
 33 65  1  0  0  0  0
 33 68  1  0  0  0  0
 34 69  1  0  0  0  0
 34 74  2  0  0  0  0
 35 70  1  0  0  0  0
 35 76  2  0  0  0  0
 36 51  1  0  0  0  0
 36 72  1  0  0  0  0
 36 77  2  0  0  0  0
 37 53  1  0  0  0  0
 37 60  1  0  0  0  0
 37 78  2  0  0  0  0
 38 61  1  0  0  0  0
 38 66  1  0  0  0  0
 38 79  2  0  0  0  0
 39 62  1  0  0  0  0
 39 73  1  0  0  0  0
 39 80  2  0  0  0  0
 40 67  1  0  0  0  0
 40 71  1  0  0  0  0
 40 81  2  0  0  0  0
 41 44  1  0  0  0  0
 42 51  1  0  0  0  0
 43 66  1  0  0  0  0
 44 46  1  0  0  0  0
 45 47  1  0  0  0  0
 45 48  1  0  0  0  0
 46 50  1  0  0  0  0
 47 52  1  0  0  0  0
 48 67  1  0  0  0  0
 49 52  1  0  0  0  0
 49 67  1  0  0  0  0
 50 72  1  0  0  0  0
 51 66  1  0  0  0  0
 52 65  1  0  0  0  0
 54 62  1  0  0  0  0
 55 63  1  0  0  0  0
 56 63  1  0  0  0  0
 57 63  1  0  0  0  0
 58 75  1  0  0  0  0
 59 60  1  0  0  0  0
 59 83  1  0  0  0  0
 60 74  1  0  0  0  0
 61 63  1  0  0  0  0
 61 73  1  0  0  0  0
 62 75  1  0  0  0  0
 64 65  1  0  0  0  0
M  CHG  2  74   1  75   1
M  ISO  4  40 100  59 101  71 100  83 101
M  END
> <Batch ID>
0075

> <Smiles>
CNC(C)C(=O)NC(C(=O)N1Cc2cc([101O:1][101CH2:1]C(NC(=N)c3cc(F)cc([100NH:0][100C:0](=O)N4CCCC(n5nc(-c6ccc(Oc7ccc(F)cc7F)cc6)c(C(N)=O)c5N)C4)c3)C(C)=O)ccc2CC1C(=O)NC1CCCc2ccccc21)C(C)(C)C

> <Shape>
0.254

> <Color>
0.057

> <Negative vol penalty>
0.000

$$$$

  -OEChem-04042323473D

 86 95  0     1  0  0  0  0  0999 V2000
  -28.2912  -11.2912   21.9715 C   0  0  0  0  0  0  0  0  0  0  0  0
  -28.8123  -12.5211   21.5825 C   0  0  0  0  0  0  0  0  0  0  0  0
  -19.8162  -28.4340   23.4167 C   0  0  0  0  0  0  0  0  0  0  0  0
  -21.1263  -26.7796   22.2403 C   0  0  0  0  0  0  0  0  0  0  0  0
  -26.9641  -10.9751   21.6834 C   0  0  0  0  0  0  0  0  0  0  0  0
  -28.0068  -13.4352   20.9042 C   0  0  0  0  0  0  0  0  0  0  0  0
  -28.1765  -19.5399   21.3617 C   0  0  0  0  0  0  0  0  0  0  0  0
  -18.6822  -28.0418   22.7055 C   0  0  0  0  0  0  0  0  0  0  0  0
  -19.9922  -26.3873   21.5292 C   0  0  0  0  0  0  0  0  0  0  0  0
  -28.7693  -20.5236   20.5713 C   0  0  0  0  0  0  0  0  0  0  0  0
  -16.4242  -25.5270   22.8075 C   0  0  0  0  0  0  0  0  0  0  0  0
  -15.2389  -25.3535   23.5219 C   0  0  0  0  0  0  0  0  0  0  0  0
  -26.6758  -20.8500   19.4180 C   0  0  0  0  0  0  0  0  0  0  0  0
  -30.2978  -28.7782   18.2026 C   0  0  0  0  0  0  0  0  0  0  0  0
  -28.8208  -28.2181   20.0306 C   0  0  0  0  0  0  0  0  0  0  0  0
  -29.4316  -30.5216   19.6333 C   0  0  0  0  0  0  0  0  0  0  0  0
  -14.1778  -27.0553   22.1746 C   0  0  0  0  0  0  0  0  0  0  0  0
  -21.0383  -27.8030   23.1840 C   0  0  0  0  0  0  0  0  0  0  0  0
  -22.6637  -27.6930   25.1470 C   0  0  0  0  0  0  0  0  0  0  0  0
  -26.1393  -11.8897   21.0097 C   0  0  0  0  0  0  0  0  0  0  0  0
  -26.8296  -19.1956   21.1785 C   0  0  0  0  0  0  0  0  0  0  0  0
  -26.6679  -13.1305   20.6056 C   0  0  0  0  0  0  0  0  0  0  0  0
  -26.0676  -19.8633   20.2091 C   0  0  0  0  0  0  0  0  0  0  0  0
  -29.6019  -27.8237   18.9444 C   0  0  0  0  0  0  0  0  0  0  0  0
  -30.2127  -30.1272   18.5471 C   0  0  0  0  0  0  0  0  0  0  0  0
  -28.7356  -29.5671   20.3751 C   0  0  0  0  0  0  0  0  0  0  0  0
  -18.7702  -27.0184   21.7618 C   0  0  0  0  0  0  0  0  0  0  0  0
  -28.0197  -21.1768   19.5973 C   0  0  0  0  0  0  0  0  0  0  0  0
  -16.4865  -26.4647   21.7767 C   0  0  0  0  0  0  0  0  0  0  0  0
  -14.1157  -26.1177   23.2055 C   0  0  0  0  0  0  0  0  0  0  0  0
  -15.3632  -27.2288   21.4602 C   0  0  0  0  0  0  0  0  0  0  0  0
  -22.2102  -28.2081   23.9179 C   0  0  0  0  0  0  0  0  0  0  0  0
  -23.8068  -28.4051   25.4169 C   0  0  0  0  0  0  0  0  0  0  0  0
  -29.5902  -25.4104   19.4402 C   0  0  0  0  0  0  0  0  0  0  0  0
  -29.7146  -24.2428   18.7976 C   0  0  0  0  0  0  0  0  0  0  0  0
  -22.1020  -26.6629   25.9711 C   0  0  0  0  0  0  0  0  0  0  0  0
  -25.2855  -16.5468   20.3398 C   0  0  0  0  0  0  0  0  0  0  0  0
  -22.6608  -18.3267   21.0220 C   0  0  0  0  0  0  0  0  0  0  0  0
  -21.2627  -21.4238   21.3384 C   0  0  0  0  0  0  0  0  0  0  0  0
  -27.7484  -31.2642   21.9536 C   0  0  0  0  0  0  0  0  0  0  0  0
  -24.7248  -11.4844   20.6787 C   0  0  0  0  0  0  0  0  0  0  0  0
  -26.1979  -18.1511   22.0573 C   0  0  0  0  0  0  0  0  0  0  0  0
  -24.6125  -19.5449   19.9864 C   0  0  0  0  0  0  0  0  0  0  0  0
  -23.8306  -12.6581   20.2873 C   0  0  0  0  0  0  0  0  0  0  0  0
  -25.8421  -32.6651   24.6146 C   0  0  0  0  0  0  0  0  0  0  0  0
  -24.5428  -13.5606   19.2847 C   0  0  0  0  0  0  0  0  0  0  0  0
  -24.7393  -31.6314   24.8538 C   0  0  0  0  0  0  0  0  0  0  0  0
  -26.1854  -32.7953   23.1317 C   0  0  0  0  0  0  0  0  0  0  0  0
  -25.4077  -30.4987   22.6958 C   0  0  0  0  0  0  0  0  0  0  0  0
  -29.9019  -26.0524   17.2178 C   0  0  0  0  0  0  0  0  0  0  0  0
  -25.8187  -14.1585   19.8899 C   0  0  1  0  0  0  0  0  0  0  0  0
  -24.9557  -17.5195   21.4364 C   0  0  1  0  0  0  0  0  0  0  0  0
  -25.0729  -30.2854   24.1811 C   0  0  2  0  0  0  0  0  0  0  0  0
  -29.9276  -24.4874   17.3122 C   0  0  0  0  0  0  0  0  0  0  0  0
  -28.7960  -23.8832   16.4718 C   0  0  0  0  0  0  0  0  0  0  0  0
  -31.2823  -23.9463   16.8390 C   0  0  0  0  0  0  0  0  0  0  0  0
  -19.0886  -22.5587   21.8703 C   0  0  0  0  0  0  0  0  0  0  0  0
  -21.6198  -17.6310   18.2395 C   0  0  0  0  0  0  0  0  0  0  0  0
  -19.9737  -19.5041   18.4632 C   0  0  0  0  0  0  0  0  0  0  0  0
  -19.8896  -17.5766   20.0444 C   0  0  0  0  0  0  0  0  0  0  0  0
  -22.4172  -22.7847   23.6994 C   0  0  0  0  0  0  0  0  0  0  0  0
  -29.6585  -22.8897   19.4076 C   0  0  0  0  0  0  0  0  0  1  0  0
  -21.7676  -19.2581   20.2387 C   0  0  1  0  0  0  0  0  0  0  0  0
  -20.4016  -22.0335   22.4298 C   0  0  2  0  0  0  0  0  0  0  0  0
  -20.8406  -18.4973   19.2491 C   0  0  0  0  0  0  0  0  0  0  0  0
  -23.0005  -29.1730   23.4401 N   0  0  0  0  0  0  0  0  0  0  0  0
  -23.9622  -29.2699   24.3738 N   0  0  0  0  0  0  0  0  0  0  0  0
  -29.6857  -26.4966   18.6056 N   0  0  0  0  0  0  0  0  0  0  0  0
  -24.0419  -18.5118   20.8665 N   0  0  0  0  0  0  0  0  0  0  0  0
  -26.4944  -31.4816   22.5628 N   0  0  0  0  0  0  0  0  0  0  0  0
  -30.9166  -31.0923   17.7972 N   0  0  0  0  0  0  0  0  0  0  0  0
  -24.6841  -28.3696   26.4423 N   0  0  0  0  0  0  0  0  0  0  0  0
  -20.9241  -26.0343   25.5449 N   0  0  0  0  0  0  0  0  0  0  0  0
  -27.9413  -29.9676   21.4780 N   0  0  0  0  0  0  0  0  0  0  0  0
  -25.4917  -15.2529   20.7787 N   0  0  0  0  0  0  0  0  0  0  0  0
  -21.0558  -20.0654   21.2237 N   0  0  0  0  0  0  0  0  0  0  0  0
  -21.1189  -23.1637   23.0849 N   0  3  0  0  0  0  0  0  0  0  0  0
  -22.6201  -26.3218   27.0614 O   0  0  0  0  0  0  0  0  0  0  0  0
  -25.3468  -16.9407   19.1810 O   0  0  0  0  0  0  0  0  0  0  0  0
  -22.1520  -17.4713   21.7507 O   0  0  0  0  0  0  0  0  0  0  0  0
  -22.0384  -22.0869   20.6535 O   0  0  0  0  0  0  0  0  0  0  0  0
  -28.5996  -32.1545   21.8849 O   0  0  0  0  0  0  0  0  0  0  0  0
  -17.6638  -26.6352   21.0678 O   0  0  0  0  0  0  0  0  0  0  0  0
  -28.5960  -22.1369   18.8240 O   0  0  0  0  0  0  0  0  0  1  0  0
  -12.9770  -25.9499   23.8906 F   0  0  0  0  0  0  0  0  0  0  0  0
  -15.4166  -28.1304   20.4702 F   0  0  0  0  0  0  0  0  0  0  0  0
  1  2  1  0  0  0  0
  1  5  2  0  0  0  0
  2  6  2  0  0  0  0
  3  8  2  0  0  0  0
  3 18  1  0  0  0  0
  4  9  1  0  0  0  0
  4 18  2  0  0  0  0
  5 20  1  0  0  0  0
  6 22  1  0  0  0  0
  7 10  2  0  0  0  0
  7 21  1  0  0  0  0
  8 27  1  0  0  0  0
  9 27  2  0  0  0  0
 10 28  1  0  0  0  0
 11 12  2  0  0  0  0
 11 29  1  0  0  0  0
 12 30  1  0  0  0  0
 13 23  1  0  0  0  0
 13 28  2  0  0  0  0
 14 24  1  0  0  0  0
 14 25  2  0  0  0  0
 15 24  2  0  0  0  0
 15 26  1  0  0  0  0
 16 25  1  0  0  0  0
 16 26  2  0  0  0  0
 17 30  2  0  0  0  0
 17 31  1  0  0  0  0
 18 32  1  0  0  0  0
 19 32  1  0  0  0  0
 19 33  2  0  0  0  0
 19 36  1  0  0  0  0
 20 22  2  0  0  0  0
 20 41  1  0  0  0  0
 21 23  2  0  0  0  0
 21 42  1  0  0  0  0
 22 51  1  0  0  0  0
 23 43  1  0  0  0  0
 24 68  1  0  0  0  0
 25 71  1  0  0  0  0
 26 74  1  0  0  0  0
 27 83  1  0  0  0  0
 28 84  1  0  0  0  0
 29 31  2  0  0  0  0
 29 83  1  0  0  0  0
 30 85  1  0  0  0  0
 31 86  1  0  0  0  0
 32 66  2  0  0  0  0
 33 67  1  0  0  0  0
 33 72  1  0  0  0  0
 34 35  2  0  0  0  0
 34 68  1  0  0  0  0
 35 54  1  0  0  0  0
 35 62  1  0  0  0  0
 36 73  1  0  0  0  0
 36 78  2  0  0  0  0
 37 52  1  0  0  0  0
 37 75  1  0  0  0  0
 37 79  2  0  0  0  0
 38 63  1  0  0  0  0
 38 69  1  0  0  0  0
 38 80  2  0  0  0  0
 39 64  1  0  0  0  0
 39 76  1  0  0  0  0
 39 81  2  0  0  0  0
 40 70  1  0  0  0  0
 40 74  1  0  0  0  0
 40 82  2  0  0  0  0
 41 44  1  0  0  0  0
 42 52  1  0  0  0  0
 43 69  1  0  0  0  0
 44 46  1  0  0  0  0
 45 47  1  0  0  0  0
 45 48  1  0  0  0  0
 46 51  1  0  0  0  0
 47 53  1  0  0  0  0
 48 70  1  0  0  0  0
 49 53  1  0  0  0  0
 49 70  1  0  0  0  0
 50 54  1  0  0  0  0
 50 68  1  0  0  0  0
 51 75  1  0  0  0  0
 52 69  1  0  0  0  0
 53 67  1  0  0  0  0
 54 55  1  0  0  0  0
 54 56  1  0  0  0  0
 57 64  1  0  0  0  0
 58 65  1  0  0  0  0
 59 65  1  0  0  0  0
 60 65  1  0  0  0  0
 61 77  1  0  0  0  0
 62 84  1  0  0  0  0
 63 65  1  0  0  0  0
 63 76  1  0  0  0  0
 64 77  1  0  0  0  0
 66 67  1  0  0  0  0
M  CHG  1  77   1
M  ISO  4  40 100  62 101  74 100  84 101
M  END
> <Batch ID>
0075

> <Smiles>
CNC(C)C(=O)NC(C(=O)N1Cc2cc([101O:1][101CH2:1]C3=CN(c4cc(N)cc([100NH:0][100C:0](=O)N5CCCC(n6nc(-c7ccc(Oc8ccc(F)cc8F)cc7)c(C(N)=O)c6N)C5)c4)CC3(C)C)ccc2CC1C(=O)NC1CCCc2ccccc21)C(C)(C)C

> <Shape>
0.228

> <Color>
0.065

> <Negative vol penalty>
0.000

$$$$

  -OEChem-04042323473D

 87 96  0     1  0  0  0  0  0999 V2000
  -28.1490  -37.4442   20.1690 C   0  0  0  0  0  0  0  0  0  0  0  0
  -28.5625  -36.1397   19.9185 C   0  0  0  0  0  0  0  0  0  0  0  0
  -24.0740  -10.3072   21.7673 C   0  0  0  0  0  0  0  0  0  0  0  0
  -23.1474  -11.6183   19.9618 C   0  0  0  0  0  0  0  0  0  0  0  0
  -27.2475  -37.7026   21.2008 C   0  0  0  0  0  0  0  0  0  0  0  0
  -28.0756  -35.0929   20.7005 C   0  0  0  0  0  0  0  0  0  0  0  0
  -26.8701  -29.3767   18.8625 C   0  0  0  0  0  0  0  0  0  0  0  0
  -22.7892  -10.0765   22.2591 C   0  0  0  0  0  0  0  0  0  0  0  0
  -21.8627  -11.3875   20.4536 C   0  0  0  0  0  0  0  0  0  0  0  0
  -27.5965  -28.1900   18.9513 C   0  0  0  0  0  0  0  0  0  0  0  0
  -20.1713   -8.0612   21.5396 C   0  0  0  0  0  0  0  0  0  0  0  0
  -19.8494   -6.7604   21.9269 C   0  0  0  0  0  0  0  0  0  0  0  0
  -26.9198  -20.6944   17.1616 C   0  0  0  0  0  0  0  0  0  0  0  0
  -26.8914  -18.2787   17.1722 C   0  0  0  0  0  0  0  0  0  0  0  0
  -26.3871  -27.6066   20.9553 C   0  0  0  0  0  0  0  0  0  0  0  0
  -28.2966  -19.4771   18.7298 C   0  0  0  0  0  0  0  0  0  0  0  0
  -19.4059   -7.5384   24.1708 C   0  0  0  0  0  0  0  0  0  0  0  0
  -24.2531  -11.0782   20.6187 C   0  0  0  0  0  0  0  0  0  0  0  0
  -26.4419  -19.4897   16.6459 C   0  0  0  0  0  0  0  0  0  0  0  0
  -26.2874  -10.5344   19.1787 C   0  0  0  0  0  0  0  0  0  0  0  0
  -26.7419  -36.6572   21.9896 C   0  0  0  0  0  0  0  0  0  0  0  0
  -25.9027  -29.6929   19.8272 C   0  0  0  0  0  0  0  0  0  0  0  0
  -27.1675  -35.3377   21.7447 C   0  0  0  0  0  0  0  0  0  0  0  0
  -25.6480  -28.7968   20.8751 C   0  0  0  0  0  0  0  0  0  0  0  0
  -27.8472  -20.6881   18.2035 C   0  0  0  0  0  0  0  0  0  0  0  0
  -27.8188  -18.2723   18.2142 C   0  0  0  0  0  0  0  0  0  0  0  0
  -21.6836  -10.6166   21.6022 C   0  0  0  0  0  0  0  0  0  0  0  0
  -27.3571  -27.3061   19.9994 C   0  0  0  0  0  0  0  0  0  0  0  0
  -20.1106   -9.1005   22.4679 C   0  0  0  0  0  0  0  0  0  0  0  0
  -19.4666   -6.4990   23.2425 C   0  0  0  0  0  0  0  0  0  0  0  0
  -19.7279   -8.8391   23.7835 C   0  0  0  0  0  0  0  0  0  0  0  0
  -25.5800  -11.3174   20.1106 C   0  0  0  0  0  0  0  0  0  0  0  0
  -27.4900  -11.1808   19.0298 C   0  0  0  0  0  0  0  0  0  0  0  0
  -27.9869  -23.1512   18.3158 C   0  0  0  0  0  0  0  0  0  0  0  0
  -28.6304  -24.0915   19.0210 C   0  0  0  0  0  0  0  0  0  0  0  0
  -29.4855  -23.4268   19.9926 C   0  0  0  0  0  0  0  0  0  0  0  0
  -30.2951  -23.9960   20.8911 C   0  0  0  0  0  0  0  0  0  0  0  0
  -25.4739  -19.4966   15.5604 C   0  0  0  0  0  0  0  0  0  0  0  0
  -25.8926   -9.3304   18.5077 C   0  0  0  0  0  0  0  0  0  0  0  0
  -25.5298  -32.0317   21.9473 C   0  0  0  0  0  0  0  0  0  0  0  0
  -22.6599  -30.6015   22.4380 C   0  0  0  0  0  0  0  0  0  0  0  0
  -20.7649  -27.7693   22.2527 C   0  0  0  0  0  0  0  0  0  0  0  0
  -29.1933  -16.8586   19.7821 C   0  0  0  0  0  0  0  0  0  0  0  0
  -25.8059  -36.9912   23.1240 C   0  0  0  0  0  0  0  0  0  0  0  0
  -25.1089  -30.9644   19.7024 C   0  0  0  0  0  0  0  0  0  0  0  0
  -24.6060  -29.0800   21.9251 C   0  0  0  0  0  0  0  0  0  0  0  0
  -29.2989  -21.9294   19.8099 C   0  0  0  0  0  0  0  0  0  0  0  0
  -25.0488  -35.7812   23.6653 C   0  0  0  0  0  0  0  0  0  0  0  0
  -30.5482  -13.9957   21.4085 C   0  0  0  0  0  0  0  0  0  0  0  0
  -25.9998  -34.6076   23.8776 C   0  0  0  0  0  0  0  0  0  0  0  0
  -29.4951  -12.9111   21.1702 C   0  0  0  0  0  0  0  0  0  0  0  0
  -29.9105  -15.3654   21.6344 C   0  0  0  0  0  0  0  0  0  0  0  0
  -27.9110  -14.7042   20.3561 C   0  0  0  0  0  0  0  0  0  0  0  0
  -26.6427  -34.1724   22.5551 C   0  0  1  0  0  0  0  0  0  0  0  0
  -24.5083  -31.4263   21.0265 C   0  0  1  0  0  0  0  0  0  0  0  0
  -28.5077  -13.3187   20.0592 C   0  0  2  0  0  0  0  0  0  0  0  0
  -24.5289  -20.6602   15.4816 C   0  0  0  0  0  0  0  0  0  0  0  0
  -18.4666  -26.9000   22.7625 C   0  0  0  0  0  0  0  0  0  0  0  0
  -23.3608  -30.4960   25.4058 C   0  0  0  0  0  0  0  0  0  0  0  0
  -21.5293  -28.8159   25.7072 C   0  0  0  0  0  0  0  0  0  0  0  0
  -20.9888  -31.1189   24.9156 C   0  0  0  0  0  0  0  0  0  0  0  0
  -20.2566  -27.1134   19.4118 C   0  0  0  0  0  0  0  0  0  0  0  0
  -28.5130  -25.5640   18.8659 C   0  0  0  0  0  0  0  0  0  1  0  0
  -22.1509  -29.5105   23.3488 C   0  0  1  0  0  0  0  0  0  0  0  0
  -19.3684  -27.5255   21.7097 C   0  0  2  0  0  0  0  0  0  0  0  0
  -22.0285  -29.9806   24.8258 C   0  0  0  0  0  0  0  0  0  0  0  0
  -26.2754  -12.3799   20.5246 N   0  0  0  0  0  0  0  0  0  0  0  0
  -27.4323  -12.2691   19.8498 N   0  0  0  0  0  0  0  0  0  0  0  0
  -28.3178  -21.8729   18.7107 N   0  0  0  0  0  0  0  0  0  0  0  0
  -23.8605  -30.3392   21.7631 N   0  0  0  0  0  0  0  0  0  0  0  0
  -28.9910  -15.6862   20.5406 N   0  0  0  0  0  0  0  0  0  0  0  0
  -28.5808  -10.9187   18.2788 N   0  0  0  0  0  0  0  0  0  0  0  0
  -24.6228   -8.8014   18.7762 N   0  0  0  0  0  0  0  0  0  0  0  0
  -28.2757  -17.0420   18.7482 N   0  0  0  0  0  0  0  0  0  0  0  0
  -25.7095  -33.3906   21.7726 N   0  0  0  0  0  0  0  0  0  0  0  0
  -20.8985  -29.0425   22.7650 N   0  0  0  0  0  0  0  0  0  0  0  0
  -19.4221  -26.6115   20.5338 N   0  3  0  0  0  0  0  0  0  0  0  0
  -25.3676  -18.6171   14.7032 O   0  0  0  0  0  0  0  0  0  0  0  0
  -26.6499   -8.7321   17.7064 O   0  0  0  0  0  0  0  0  0  0  0  0
  -26.1107  -31.3189   22.7574 O   0  0  0  0  0  0  0  0  0  0  0  0
  -22.0122  -31.6452   22.3239 O   0  0  0  0  0  0  0  0  0  0  0  0
  -21.6476  -26.9146   22.2284 O   0  0  0  0  0  0  0  0  0  0  0  0
  -30.1291  -17.6283   20.0142 O   0  0  0  0  0  0  0  0  0  0  0  0
  -20.4298  -10.3915   22.0817 O   0  0  0  0  0  0  0  0  0  0  0  0
  -28.0652  -26.1475   20.0888 O   0  0  0  0  0  0  0  0  0  1  0  0
  -19.1560   -5.2501   23.6139 F   0  0  0  0  0  0  0  0  0  0  0  0
  -19.6665   -9.8337   24.6796 F   0  0  0  0  0  0  0  0  0  0  0  0
  1  2  1  0  0  0  0
  1  5  2  0  0  0  0
  2  6  2  0  0  0  0
  3  8  2  0  0  0  0
  3 18  1  0  0  0  0
  4  9  1  0  0  0  0
  4 18  2  0  0  0  0
  5 21  1  0  0  0  0
  6 23  1  0  0  0  0
  7 10  2  0  0  0  0
  7 22  1  0  0  0  0
  8 27  1  0  0  0  0
  9 27  2  0  0  0  0
 10 28  1  0  0  0  0
 11 12  2  0  0  0  0
 11 29  1  0  0  0  0
 12 30  1  0  0  0  0
 13 19  1  0  0  0  0
 13 25  2  0  0  0  0
 14 19  2  0  0  0  0
 14 26  1  0  0  0  0
 15 24  1  0  0  0  0
 15 28  2  0  0  0  0
 16 25  1  0  0  0  0
 16 26  2  0  0  0  0
 17 30  2  0  0  0  0
 17 31  1  0  0  0  0
 18 32  1  0  0  0  0
 19 38  1  0  0  0  0
 20 32  1  0  0  0  0
 20 33  2  0  0  0  0
 20 39  1  0  0  0  0
 21 23  2  0  0  0  0
 21 44  1  0  0  0  0
 22 24  2  0  0  0  0
 22 45  1  0  0  0  0
 23 54  1  0  0  0  0
 24 46  1  0  0  0  0
 25 69  1  0  0  0  0
 26 74  1  0  0  0  0
 27 84  1  0  0  0  0
 28 85  1  0  0  0  0
 29 31  2  0  0  0  0
 29 84  1  0  0  0  0
 30 86  1  0  0  0  0
 31 87  1  0  0  0  0
 32 67  2  0  0  0  0
 33 68  1  0  0  0  0
 33 72  1  0  0  0  0
 34 35  2  0  0  0  0
 34 69  1  0  0  0  0
 35 36  1  0  0  0  0
 35 63  1  0  0  0  0
 36 37  2  0  0  0  0
 36 47  1  0  0  0  0
 38 57  1  0  0  0  0
 38 78  2  0  0  0  0
 39 73  1  0  0  0  0
 39 79  2  0  0  0  0
 40 55  1  0  0  0  0
 40 75  1  0  0  0  0
 40 80  2  0  0  0  0
 41 64  1  0  0  0  0
 41 70  1  0  0  0  0
 41 81  2  0  0  0  0
 42 65  1  0  0  0  0
 42 76  1  0  0  0  0
 42 82  2  0  0  0  0
 43 71  1  0  0  0  0
 43 74  1  0  0  0  0
 43 83  2  0  0  0  0
 44 48  1  0  0  0  0
 45 55  1  0  0  0  0
 46 70  1  0  0  0  0
 47 69  1  0  0  0  0
 48 50  1  0  0  0  0
 49 51  1  0  0  0  0
 49 52  1  0  0  0  0
 50 54  1  0  0  0  0
 51 56  1  0  0  0  0
 52 71  1  0  0  0  0
 53 56  1  0  0  0  0
 53 71  1  0  0  0  0
 54 75  1  0  0  0  0
 55 70  1  0  0  0  0
 56 68  1  0  0  0  0
 58 65  1  0  0  0  0
 59 66  1  0  0  0  0
 60 66  1  0  0  0  0
 61 66  1  0  0  0  0
 62 77  1  0  0  0  0
 63 85  1  0  0  0  0
 64 66  1  0  0  0  0
 64 76  1  0  0  0  0
 65 77  1  0  0  0  0
 67 68  1  0  0  0  0
M  CHG  1  77   1
M  ISO  4  43 100  63 101  74 100  85 101
M  END
> <Batch ID>
0075

> <Smiles>
C=C1CN(c2cc([100NH:0][100C:0](=O)N3CCCC(n4nc(-c5ccc(Oc6ccc(F)cc6F)cc5)c(C(N)=O)c4N)C3)cc(C(C)=O)c2)C=C1[101CH2:1][101O:1]c1ccc2c(c1)CN(C(=O)C(NC(=O)C(C)NC)C(C)(C)C)C(C(=O)NC1CCCc3ccccc31)C2

> <Shape>
0.296

> <Color>
0.085

> <Negative vol penalty>
0.000

$$$$

  -OEChem-04042323473D

 86 94  0     1  0  0  0  0  0999 V2000
  -29.7402  -34.6080   26.2067 C   0  0  0  0  0  0  0  0  0  0  0  0
  -29.2916  -33.3444   25.8361 C   0  0  0  0  0  0  0  0  0  0  0  0
  -24.2820   -8.5132   20.4022 C   0  0  0  0  0  0  0  0  0  0  0  0
  -22.9307  -10.4411   20.9448 C   0  0  0  0  0  0  0  0  0  0  0  0
  -29.4391  -20.1548   20.2314 C   0  0  0  0  0  0  0  0  0  0  0  0
  -28.8374  -35.6659   26.3052 C   0  0  0  0  0  0  0  0  0  0  0  0
  -27.9395  -33.1377   25.5647 C   0  0  0  0  0  0  0  0  0  0  0  0
  -27.1967  -30.3922   21.3747 C   0  0  0  0  0  0  0  0  0  0  0  0
  -29.4982  -18.7968   20.5441 C   0  0  0  0  0  0  0  0  0  0  0  0
  -23.2775   -7.6736   20.8836 C   0  0  0  0  0  0  0  0  0  0  0  0
  -21.9262   -9.6015   21.4262 C   0  0  0  0  0  0  0  0  0  0  0  0
  -27.3797  -29.0138   21.4760 C   0  0  0  0  0  0  0  0  0  0  0  0
  -22.1544   -6.6011   23.8857 C   0  0  0  0  0  0  0  0  0  0  0  0
  -22.5355   -5.5423   24.7099 C   0  0  0  0  0  0  0  0  0  0  0  0
  -28.1364  -19.6447   18.2617 C   0  0  0  0  0  0  0  0  0  0  0  0
  -24.9921  -28.7157   21.6493 C   0  0  0  0  0  0  0  0  0  0  0  0
  -21.6000   -3.9742   23.1278 C   0  0  0  0  0  0  0  0  0  0  0  0
  -24.1086   -9.8969   20.4329 C   0  0  0  0  0  0  0  0  0  0  0  0
  -28.7582  -20.5788   19.0902 C   0  0  0  0  0  0  0  0  0  0  0  0
  -25.2980  -11.2417   18.6206 C   0  0  0  0  0  0  0  0  0  0  0  0
  -27.4752  -35.4743   26.0255 C   0  0  0  0  0  0  0  0  0  0  0  0
  -25.9086  -30.9445   21.4211 C   0  0  0  0  0  0  0  0  0  0  0  0
  -27.0174  -34.1937   25.6608 C   0  0  0  0  0  0  0  0  0  0  0  0
  -24.7953  -30.1012   21.5459 C   0  0  0  0  0  0  0  0  0  0  0  0
  -28.8764  -17.8627   19.7156 C   0  0  0  0  0  0  0  0  0  0  0  0
  -22.0996   -8.2177   21.3955 C   0  0  0  0  0  0  0  0  0  0  0  0
  -26.2775  -28.1755   21.6162 C   0  0  0  0  0  0  0  0  0  0  0  0
  -21.4961   -6.3465   22.6826 C   0  0  0  0  0  0  0  0  0  0  0  0
  -22.2583   -4.2288   24.3309 C   0  0  0  0  0  0  0  0  0  0  0  0
  -28.1955  -18.2866   18.5744 C   0  0  0  0  0  0  0  0  0  0  0  0
  -21.2189   -5.0331   22.3036 C   0  0  0  0  0  0  0  0  0  0  0  0
  -25.1461  -10.7648   19.9363 C   0  0  0  0  0  0  0  0  0  0  0  0
  -26.4276  -12.0217   18.6664 C   0  0  0  0  0  0  0  0  0  0  0  0
  -27.0661  -26.1825   20.6798 C   0  0  0  0  0  0  0  0  0  1  0  0
  -28.6950  -22.0169   18.7584 C   0  0  0  0  0  0  0  0  0  0  0  0
  -24.4901  -11.0014   17.4607 C   0  0  0  0  0  0  0  0  0  0  0  0
  -27.2901  -24.8637   20.6713 C   0  0  0  0  0  0  0  0  0  0  0  0
  -27.9625  -24.2696   19.4919 C   0  0  0  0  0  0  0  0  0  0  0  0
  -24.4008  -32.9603   23.3619 C   0  0  0  0  0  0  0  0  0  0  0  0
  -22.0522  -32.7347   21.1357 C   0  0  0  0  0  0  0  0  0  0  0  0
  -20.5992  -30.9302   18.6299 C   0  0  0  0  0  0  0  0  0  0  0  0
  -29.5731  -15.8989   21.1314 C   0  0  0  0  0  0  0  0  0  0  0  0
  -26.5294  -36.6373   26.1913 C   0  0  0  0  0  0  0  0  0  0  0  0
  -25.7263  -32.4312   21.2837 C   0  0  0  0  0  0  0  0  0  0  0  0
  -23.3903  -30.6425   21.5805 C   0  0  0  0  0  0  0  0  0  0  0  0
  -25.1742  -36.4204   25.5232 C   0  0  0  0  0  0  0  0  0  0  0  0
  -29.9206  -12.5506   22.2914 C   0  0  0  0  0  0  0  0  0  0  0  0
  -24.6301  -35.0350   25.8569 C   0  0  0  0  0  0  0  0  0  0  0  0
  -28.7219  -11.8268   21.6739 C   0  0  0  0  0  0  0  0  0  0  0  0
  -29.5685  -13.9777   22.7075 C   0  0  0  0  0  0  0  0  0  0  0  0
  -27.7614  -14.0757   21.0360 C   0  0  0  0  0  0  0  0  0  0  0  0
  -25.5625  -33.9355   25.3343 C   0  0  1  0  0  0  0  0  0  0  0  0
  -24.4035  -32.9268   21.8597 C   0  0  1  0  0  0  0  0  0  0  0  0
  -28.0847  -12.6562   20.5418 C   0  0  2  0  0  0  0  0  0  0  0  0
  -18.6711  -30.9863   17.0246 C   0  0  0  0  0  0  0  0  0  0  0  0
  -20.1471  -31.9969   23.4020 C   0  0  0  0  0  0  0  0  0  0  0  0
  -18.5357  -31.1559   21.6802 C   0  0  0  0  0  0  0  0  0  0  0  0
  -19.1903  -33.5629   21.7031 C   0  0  0  0  0  0  0  0  0  0  0  0
  -22.4014  -30.8832   16.2828 C   0  0  0  0  0  0  0  0  0  0  0  0
  -20.8609  -31.8315   20.9263 C   0  0  1  0  0  0  0  0  0  0  0  0
  -20.1374  -31.3278   17.2395 C   0  0  2  0  0  0  0  0  0  0  0  0
  -19.7100  -32.1264   21.9292 C   0  0  0  0  0  0  0  0  0  0  0  0
  -26.1029  -11.2047   20.7580 N   0  0  0  0  0  0  0  0  0  0  0  0
  -26.8668  -11.9663   19.9564 N   0  0  0  0  0  0  0  0  0  0  0  0
  -23.2644  -32.1035   21.4489 N   0  0  0  0  0  0  0  0  0  0  0  0
  -28.9737  -14.7043   21.5836 N   0  0  0  0  0  0  0  0  0  0  0  0
  -27.0782  -12.7426   17.7285 N   0  0  0  0  0  0  0  0  0  0  0  0
  -23.3650  -10.1756   17.5896 N   0  0  0  0  0  0  0  0  0  0  0  0
  -28.9383  -16.4839   20.0362 N   0  0  0  0  0  0  0  0  0  0  0  0
  -28.1255  -22.8453   19.6451 N   0  0  0  0  0  0  0  0  0  0  0  0
  -25.3868  -33.7593   23.9086 N   0  0  0  0  0  0  0  0  0  0  0  0
  -20.4827  -31.9730   19.5244 N   0  0  0  0  0  0  0  0  0  0  0  0
  -29.2114  -22.4083   17.5939 N   0  3  0  0  0  0  0  0  0  0  0  0
  -20.9416  -30.6191   16.2042 N   0  3  0  0  0  0  0  0  0  0  0  0
  -24.7673  -11.4908   16.3395 O   0  0  0  0  0  0  0  0  0  0  0  0
  -28.3429  -24.8740   18.5026 O   0  0  0  0  0  0  0  0  0  0  0  0
  -23.5650  -32.3106   23.9792 O   0  0  0  0  0  0  0  0  0  0  0  0
  -21.9140  -33.9549   21.0185 O   0  0  0  0  0  0  0  0  0  0  0  0
  -21.0177  -29.8058   18.8966 O   0  0  0  0  0  0  0  0  0  0  0  0
  -30.5916  -16.3538   21.6583 O   0  0  0  0  0  0  0  0  0  0  0  0
  -26.9247  -24.0325   21.7073 O   0  0  0  0  0  0  0  0  0  0  0  0
  -21.1191   -7.3988   21.8651 O   0  0  0  0  0  0  0  0  0  0  0  0
  -26.4533  -26.8298   21.7158 O   0  0  0  0  0  0  0  0  0  1  0  0
  -22.6256   -3.2121   25.1217 F   0  0  0  0  0  0  0  0  0  0  0  0
  -27.5954  -17.3975   17.7702 F   0  0  0  0  0  0  0  0  0  0  0  0
  -20.5877   -4.7822   21.1484 F   0  0  0  0  0  0  0  0  0  0  0  0
  1  2  1  0  0  0  0
  1  6  2  0  0  0  0
  2  7  2  0  0  0  0
  3 10  2  0  0  0  0
  3 18  1  0  0  0  0
  4 11  1  0  0  0  0
  4 18  2  0  0  0  0
  5  9  2  0  0  0  0
  5 19  1  0  0  0  0
  6 21  1  0  0  0  0
  7 23  1  0  0  0  0
  8 12  2  0  0  0  0
  8 22  1  0  0  0  0
  9 25  1  0  0  0  0
 10 26  1  0  0  0  0
 11 26  2  0  0  0  0
 12 27  1  0  0  0  0
 13 14  2  0  0  0  0
 13 28  1  0  0  0  0
 14 29  1  0  0  0  0
 15 19  2  0  0  0  0
 15 30  1  0  0  0  0
 16 24  1  0  0  0  0
 16 27  2  0  0  0  0
 17 29  2  0  0  0  0
 17 31  1  0  0  0  0
 18 32  1  0  0  0  0
 19 35  1  0  0  0  0
 20 32  1  0  0  0  0
 20 33  2  0  0  0  0
 20 36  1  0  0  0  0
 21 23  2  0  0  0  0
 21 43  1  0  0  0  0
 22 24  2  0  0  0  0
 22 44  1  0  0  0  0
 23 52  1  0  0  0  0
 24 45  1  0  0  0  0
 25 30  2  0  0  0  0
 25 69  1  0  0  0  0
 26 82  1  0  0  0  0
 27 83  1  0  0  0  0
 28 31  2  0  0  0  0
 28 82  1  0  0  0  0
 29 84  1  0  0  0  0
 30 85  1  0  0  0  0
 31 86  1  0  0  0  0
 32 63  2  0  0  0  0
 33 64  1  0  0  0  0
 33 67  1  0  0  0  0
 34 37  2  0  0  0  0
 34 83  1  0  0  0  0
 35 70  1  0  0  0  0
 35 73  2  0  0  0  0
 36 68  1  0  0  0  0
 36 75  2  0  0  0  0
 37 38  1  0  0  0  0
 37 81  1  0  0  0  0
 38 70  1  0  0  0  0
 38 76  2  0  0  0  0
 39 53  1  0  0  0  0
 39 71  1  0  0  0  0
 39 77  2  0  0  0  0
 40 60  1  0  0  0  0
 40 65  1  0  0  0  0
 40 78  2  0  0  0  0
 41 61  1  0  0  0  0
 41 72  1  0  0  0  0
 41 79  2  0  0  0  0
 42 66  1  0  0  0  0
 42 69  1  0  0  0  0
 42 80  2  0  0  0  0
 43 46  1  0  0  0  0
 44 53  1  0  0  0  0
 45 65  1  0  0  0  0
 46 48  1  0  0  0  0
 47 49  1  0  0  0  0
 47 50  1  0  0  0  0
 48 52  1  0  0  0  0
 49 54  1  0  0  0  0
 50 66  1  0  0  0  0
 51 54  1  0  0  0  0
 51 66  1  0  0  0  0
 52 71  1  0  0  0  0
 53 65  1  0  0  0  0
 54 64  1  0  0  0  0
 55 61  1  0  0  0  0
 56 62  1  0  0  0  0
 57 62  1  0  0  0  0
 58 62  1  0  0  0  0
 59 74  1  0  0  0  0
 60 62  1  0  0  0  0
 60 72  1  0  0  0  0
 61 74  1  0  0  0  0
 63 64  1  0  0  0  0
M  CHG  2  73   1  74   1
M  ISO  4  34 101  42 100  69 100  83 101
M  END
> <Batch ID>
0075

> <Smiles>
CNC(C)C(=O)NC(C(=O)N1Cc2cc([101O:1][101CH2:1]C(=O)C(=O)NC(=N)c3ccc([100NH:0][100C:0](=O)N4CCCC(n5nc(-c6ccc(Oc7ccc(F)cc7F)cc6)c(C(N)=O)c5N)C4)c(F)c3)ccc2CC1C(=O)NC1CCCc2ccccc21)C(C)(C)C

> <Shape>
0.280

> <Color>
0.098

> <Negative vol penalty>
0.000

$$$$

  -OEChem-04042323473D

 87 96  0     1  0  0  0  0  0999 V2000
  -19.0522  -25.4002   24.9516 C   0  0  0  0  0  0  0  0  0  0  0  0
  -20.4430  -25.4252   24.9706 C   0  0  0  0  0  0  0  0  0  0  0  0
  -27.6549  -13.9546   19.1078 C   0  0  0  0  0  0  0  0  0  0  0  0
  -29.1501  -15.3073   20.4389 C   0  0  0  0  0  0  0  0  0  0  0  0
  -31.6821  -23.8030   21.6798 C   0  0  0  0  0  0  0  0  0  0  0  0
  -18.3533  -26.2226   24.0690 C   0  0  0  0  0  0  0  0  0  0  0  0
  -21.1359  -26.2720   24.1061 C   0  0  0  0  0  0  0  0  0  0  0  0
  -26.4018  -29.1852   25.2417 C   0  0  0  0  0  0  0  0  0  0  0  0
  -30.8270  -23.0465   20.8785 C   0  0  0  0  0  0  0  0  0  0  0  0
  -28.2529  -12.7991   19.6105 C   0  0  0  0  0  0  0  0  0  0  0  0
  -29.7480  -14.1517   20.9416 C   0  0  0  0  0  0  0  0  0  0  0  0
  -27.7245  -28.8954   24.9098 C   0  0  0  0  0  0  0  0  0  0  0  0
  -28.1222  -10.9567   22.4427 C   0  0  0  0  0  0  0  0  0  0  0  0
  -27.2848   -9.9201   22.8545 C   0  0  0  0  0  0  0  0  0  0  0  0
  -27.5516  -30.3391   22.9850 C   0  0  0  0  0  0  0  0  0  0  0  0
  -31.9288  -23.8943   18.9025 C   0  0  0  0  0  0  0  0  0  0  0  0
  -28.3063   -8.4502   21.2319 C   0  0  0  0  0  0  0  0  0  0  0  0
  -28.1036  -15.2088   19.5220 C   0  0  0  0  0  0  0  0  0  0  0  0
  -32.6604  -24.6053   21.0925 C   0  0  0  0  0  0  0  0  0  0  0  0
  -26.1355  -16.7809   19.1183 C   0  0  0  0  0  0  0  0  0  0  0  0
  -19.0377  -27.0870   23.1999 C   0  0  0  0  0  0  0  0  0  0  0  0
  -25.6393  -30.0470   24.4402 C   0  0  0  0  0  0  0  0  0  0  0  0
  -20.4455  -27.1058   23.2101 C   0  0  0  0  0  0  0  0  0  0  0  0
  -26.2202  -30.6402   23.3103 C   0  0  0  0  0  0  0  0  0  0  0  0
  -30.9504  -23.0921   19.4898 C   0  0  0  0  0  0  0  0  0  0  0  0
  -29.2994  -12.8976   20.5274 C   0  0  0  0  0  0  0  0  0  0  0  0
  -28.2987  -29.4701   23.7797 C   0  0  0  0  0  0  0  0  0  0  0  0
  -29.0517  -10.7402   21.4254 C   0  0  0  0  0  0  0  0  0  0  0  0
  -27.3768   -8.6668   22.2491 C   0  0  0  0  0  0  0  0  0  0  0  0
  -32.7838  -24.6509   19.7039 C   0  0  0  0  0  0  0  0  0  0  0  0
  -29.1438   -9.4869   20.8200 C   0  0  0  0  0  0  0  0  0  0  0  0
  -27.4867  -16.4029   19.0027 C   0  0  0  0  0  0  0  0  0  0  0  0
  -26.0587  -17.9853   18.4626 C   0  0  0  0  0  0  0  0  0  0  0  0
  -31.7607  -27.0952   22.6355 C   0  0  0  0  0  0  0  0  0  0  0  0
  -33.5583  -25.4037   21.9418 C   0  0  0  0  0  0  0  0  0  0  0  0
  -25.0473  -16.1039   19.7610 C   0  0  0  0  0  0  0  0  0  0  0  0
  -22.9820  -29.7480   22.7219 C   0  0  0  0  0  0  0  0  0  0  0  0
  -23.3292  -32.9511   22.3456 C   0  0  0  0  0  0  0  0  0  0  0  0
  -25.4070  -35.6584   22.3334 C   0  0  0  0  0  0  0  0  0  0  0  0
  -30.0697  -22.2545   17.2832 C   0  0  0  0  0  0  0  0  0  0  0  0
  -18.2401  -27.9229   22.2305 C   0  0  0  0  0  0  0  0  0  0  0  0
  -24.2221  -30.3704   24.8268 C   0  0  0  0  0  0  0  0  0  0  0  0
  -25.4507  -31.5880   22.4282 C   0  0  0  0  0  0  0  0  0  0  0  0
  -19.0404  -29.0646   21.6090 C   0  0  0  0  0  0  0  0  0  0  0  0
  -28.1165  -20.4543   14.9123 C   0  0  0  0  0  0  0  0  0  0  0  0
  -20.4011  -28.5656   21.1334 C   0  0  0  0  0  0  0  0  0  0  0  0
  -27.6054  -19.2486   15.7044 C   0  0  0  0  0  0  0  0  0  0  0  0
  -32.6616  -27.5134   24.8015 C   0  0  0  0  0  0  0  0  0  0  0  0
  -29.5406  -20.8343   15.3139 C   0  0  0  0  0  0  0  0  0  0  0  0
  -33.7087  -26.8423   23.9419 C   0  0  0  0  0  0  0  0  0  0  0  0
  -29.2342  -19.8361   17.5453 C   0  0  0  0  0  0  0  0  0  0  0  0
  -21.2322  -28.0288   22.3049 C   0  0  1  0  0  0  0  0  0  0  0  0
  -31.7010  -28.0997   23.7737 C   0  0  2  0  0  0  0  0  0  0  0  0
  -23.3792  -30.8586   23.6527 C   0  0  1  0  0  0  0  0  0  0  0  0
  -27.7801  -19.4560   17.2216 C   0  0  2  0  0  0  0  0  0  0  0  0
  -25.4078  -38.1393   21.9558 C   0  0  0  0  0  0  0  0  0  0  0  0
  -23.1516  -32.4904   19.3346 C   0  0  0  0  0  0  0  0  0  0  0  0
  -24.0919  -34.7863   18.9982 C   0  0  0  0  0  0  0  0  0  0  0  0
  -21.9031  -34.4946   20.1588 C   0  0  0  0  0  0  0  0  0  0  0  0
  -26.3353  -36.1949   25.0919 C   0  0  0  0  0  0  0  0  0  0  0  0
  -30.2969  -28.2957   24.3128 C   0  0  0  0  0  0  0  0  0  1  0  0
  -24.0348  -33.8404   21.3504 C   0  0  1  0  0  0  0  0  0  0  0  0
  -25.2848  -37.0249   22.9833 C   0  0  2  0  0  0  0  0  0  0  0  0
  -23.3095  -33.8836   19.9758 C   0  0  0  0  0  0  0  0  0  0  0  0
  -28.2156  -17.2948   18.3266 N   0  0  0  0  0  0  0  0  0  0  0  0
  -27.3192  -18.2452   18.0113 N   0  0  0  0  0  0  0  0  0  0  0  0
  -32.9724  -26.3606   22.7888 N   0  0  0  0  0  0  0  0  0  0  0  0
  -24.0665  -31.8678   22.8444 N   0  0  0  0  0  0  0  0  0  0  0  0
  -29.6291  -21.0187   16.7641 N   0  0  0  0  0  0  0  0  0  0  0  0
  -25.0364  -18.8368   18.2336 N   0  0  0  0  0  0  0  0  0  0  0  0
  -25.3008  -14.8760   20.3872 N   0  0  0  0  0  0  0  0  0  0  0  0
  -30.0817  -22.3235   18.6759 N   0  0  0  0  0  0  0  0  0  0  0  0
  -21.7989  -29.1221   23.0654 N   0  0  0  0  0  0  0  0  0  0  0  0
  -24.1743  -35.1424   21.9936 N   0  0  0  0  0  0  0  0  0  0  0  0
  -26.3525  -37.2092   24.0065 N   0  3  0  0  0  0  0  0  0  0  0  0
  -30.9261  -27.0096   21.7463 O   0  0  0  0  0  0  0  0  0  0  0  0
  -34.7670  -25.2006   21.8405 O   0  0  0  0  0  0  0  0  0  0  0  0
  -23.8811  -16.5661   19.7652 O   0  0  0  0  0  0  0  0  0  0  0  0
  -23.6953  -29.4798   21.7622 O   0  0  0  0  0  0  0  0  0  0  0  0
  -22.1692  -33.2123   22.6739 O   0  0  0  0  0  0  0  0  0  0  0  0
  -26.4881  -35.1058   22.1427 O   0  0  0  0  0  0  0  0  0  0  0  0
  -30.3853  -23.1924   16.5465 O   0  0  0  0  0  0  0  0  0  0  0  0
  -29.8830  -11.7702   21.0182 O   0  0  0  0  0  0  0  0  0  0  0  0
  -29.5894  -29.1884   23.4532 O   0  0  0  0  0  0  0  0  0  1  0  0
  -26.5736   -7.6710   22.6458 F   0  0  0  0  0  0  0  0  0  0  0  0
  -33.7202  -25.4187   19.1285 F   0  0  0  0  0  0  0  0  0  0  0  0
  -30.0356   -9.2725   19.8430 F   0  0  0  0  0  0  0  0  0  0  0  0
  1  2  1  0  0  0  0
  1  6  2  0  0  0  0
  2  7  2  0  0  0  0
  3 10  2  0  0  0  0
  3 18  1  0  0  0  0
  4 11  1  0  0  0  0
  4 18  2  0  0  0  0
  5  9  2  0  0  0  0
  5 19  1  0  0  0  0
  6 21  1  0  0  0  0
  7 23  1  0  0  0  0
  8 12  2  0  0  0  0
  8 22  1  0  0  0  0
  9 25  1  0  0  0  0
 10 26  1  0  0  0  0
 11 26  2  0  0  0  0
 12 27  1  0  0  0  0
 13 14  2  0  0  0  0
 13 28  1  0  0  0  0
 14 29  1  0  0  0  0
 15 24  1  0  0  0  0
 15 27  2  0  0  0  0
 16 25  2  0  0  0  0
 16 30  1  0  0  0  0
 17 29  2  0  0  0  0
 17 31  1  0  0  0  0
 18 32  1  0  0  0  0
 19 30  2  0  0  0  0
 19 35  1  0  0  0  0
 20 32  1  0  0  0  0
 20 33  2  0  0  0  0
 20 36  1  0  0  0  0
 21 23  2  0  0  0  0
 21 41  1  0  0  0  0
 22 24  2  0  0  0  0
 22 42  1  0  0  0  0
 23 52  1  0  0  0  0
 24 43  1  0  0  0  0
 25 72  1  0  0  0  0
 26 83  1  0  0  0  0
 27 84  1  0  0  0  0
 28 31  2  0  0  0  0
 28 83  1  0  0  0  0
 29 85  1  0  0  0  0
 30 86  1  0  0  0  0
 31 87  1  0  0  0  0
 32 65  2  0  0  0  0
 33 66  1  0  0  0  0
 33 70  1  0  0  0  0
 34 53  1  0  0  0  0
 34 67  1  0  0  0  0
 34 76  2  0  0  0  0
 35 67  1  0  0  0  0
 35 77  2  0  0  0  0
 36 71  1  0  0  0  0
 36 78  2  0  0  0  0
 37 54  1  0  0  0  0
 37 73  1  0  0  0  0
 37 79  2  0  0  0  0
 38 62  1  0  0  0  0
 38 68  1  0  0  0  0
 38 80  2  0  0  0  0
 39 63  1  0  0  0  0
 39 74  1  0  0  0  0
 39 81  2  0  0  0  0
 40 69  1  0  0  0  0
 40 72  1  0  0  0  0
 40 82  2  0  0  0  0
 41 44  1  0  0  0  0
 42 54  1  0  0  0  0
 43 68  1  0  0  0  0
 44 46  1  0  0  0  0
 45 47  1  0  0  0  0
 45 49  1  0  0  0  0
 46 52  1  0  0  0  0
 47 55  1  0  0  0  0
 48 50  1  0  0  0  0
 48 53  1  0  0  0  0
 49 69  1  0  0  0  0
 50 67  1  0  0  0  0
 51 55  1  0  0  0  0
 51 69  1  0  0  0  0
 52 73  1  0  0  0  0
 53 61  1  0  0  0  0
 54 68  1  0  0  0  0
 55 66  1  0  0  0  0
 56 63  1  0  0  0  0
 57 64  1  0  0  0  0
 58 64  1  0  0  0  0
 59 64  1  0  0  0  0
 60 75  1  0  0  0  0
 61 84  1  0  0  0  0
 62 64  1  0  0  0  0
 62 74  1  0  0  0  0
 63 75  1  0  0  0  0
 65 66  1  0  0  0  0
M  CHG  1  75   1
M  ISO  4  40 100  61 101  72 100  84 101
M  END
> <Batch ID>
0075

> <Smiles>
CNC(C)C(=O)NC(C(=O)N1Cc2cc([101O:1][101CH2:1]C3CCN(C(=O)c4ccc([100NH:0][100C:0](=O)N5CCCC(n6nc(-c7ccc(Oc8ccc(F)cc8F)cc7)c(C(N)=O)c6N)C5)cc4F)C3=O)ccc2CC1C(=O)NC1CCCc2ccccc21)C(C)(C)C

> <Shape>
0.213

> <Color>
0.099

> <Negative vol penalty>
0.000

$$$$

  -OEChem-04042323473D

 84 92  0     1  0  0  0  0  0999 V2000
  -27.0810  -24.5947   16.0607 C   0  0  0  0  0  0  0  0  0  0  0  0
  -26.0635  -25.4484   16.4716 C   0  0  0  0  0  0  0  0  0  0  0  0
  -23.2304  -25.2768   20.8169 C   0  0  0  0  0  0  0  0  0  0  0  0
  -24.7780  -12.6757   19.8212 C   0  0  0  0  0  0  0  0  0  0  0  0
  -25.5022  -13.8279   21.8174 C   0  0  0  0  0  0  0  0  0  0  0  0
  -28.1780  -24.3739   16.8907 C   0  0  0  0  0  0  0  0  0  0  0  0
  -26.1483  -26.0908   17.7073 C   0  0  0  0  0  0  0  0  0  0  0  0
  -22.7047  -29.4559   18.7181 C   0  0  0  0  0  0  0  0  0  0  0  0
  -22.2249  -25.2034   21.7808 C   0  0  0  0  0  0  0  0  0  0  0  0
  -23.5747  -24.1432   20.0805 C   0  0  0  0  0  0  0  0  0  0  0  0
  -25.4698  -11.5351   20.2284 C   0  0  0  0  0  0  0  0  0  0  0  0
  -26.1941  -12.6872   22.2247 C   0  0  0  0  0  0  0  0  0  0  0  0
  -21.3832  -29.1186   19.0071 C   0  0  0  0  0  0  0  0  0  0  0  0
  -25.0125   -8.9891   22.4060 C   0  0  0  0  0  0  0  0  0  0  0  0
  -24.3597   -7.7614   22.2963 C   0  0  0  0  0  0  0  0  0  0  0  0
  -21.7989  -29.5217   21.3489 C   0  0  0  0  0  0  0  0  0  0  0  0
  -21.9080  -22.8629   21.2721 C   0  0  0  0  0  0  0  0  0  0  0  0
  -26.0933   -6.9725   20.8099 C   0  0  0  0  0  0  0  0  0  0  0  0
  -24.7942  -13.8222   20.6156 C   0  0  0  0  0  0  0  0  0  0  0  0
  -22.7442  -15.3350   20.4873 C   0  0  0  0  0  0  0  0  0  0  0  0
  -28.2696  -25.0046   18.1424 C   0  0  0  0  0  0  0  0  0  0  0  0
  -23.5877  -29.8187   19.7453 C   0  0  0  0  0  0  0  0  0  0  0  0
  -27.2590  -25.8995   18.5490 C   0  0  0  0  0  0  0  0  0  0  0  0
  -23.1304  -29.8656   21.0700 C   0  0  0  0  0  0  0  0  0  0  0  0
  -21.5637  -23.9965   22.0084 C   0  0  0  0  0  0  0  0  0  0  0  0
  -22.9135  -22.9363   20.3081 C   0  0  0  0  0  0  0  0  0  0  0  0
  -26.1778  -11.5408   21.4302 C   0  0  0  0  0  0  0  0  0  0  0  0
  -20.9308  -29.1487   20.3230 C   0  0  0  0  0  0  0  0  0  0  0  0
  -26.2056   -9.2087   21.7176 C   0  0  0  0  0  0  0  0  0  0  0  0
  -24.9001   -6.7530   21.4983 C   0  0  0  0  0  0  0  0  0  0  0  0
  -26.7460   -8.2003   20.9195 C   0  0  0  0  0  0  0  0  0  0  0  0
  -24.0802  -15.0009   20.1952 C   0  0  0  0  0  0  0  0  0  0  0  0
  -22.5477  -16.5424   19.8627 C   0  0  0  0  0  0  0  0  0  0  0  0
  -21.7681  -14.6181   21.2547 C   0  0  0  0  0  0  0  0  0  0  0  0
  -26.3042  -28.6312   20.8918 C   0  0  0  0  0  0  0  0  0  0  0  0
  -26.2696  -31.3295   22.6919 C   0  0  0  0  0  0  0  0  0  0  0  0
  -19.0259  -25.8349   23.6425 C   0  0  0  0  0  0  0  0  0  0  0  0
  -24.4484  -33.8445   24.1079 C   0  0  0  0  0  0  0  0  0  0  0  0
  -24.2365  -21.6872   18.5658 C   0  0  0  0  0  0  0  0  0  0  0  0
  -29.4829  -24.7359   18.9974 C   0  0  0  0  0  0  0  0  0  0  0  0
  -25.0030  -30.2055   19.4139 C   0  0  0  0  0  0  0  0  0  0  0  0
  -24.0329  -30.2679   22.2067 C   0  0  0  0  0  0  0  0  0  0  0  0
  -29.2725  -25.1074   20.4616 C   0  0  0  0  0  0  0  0  0  0  0  0
  -25.4219  -19.0268   16.5178 C   0  0  0  0  0  0  0  0  0  0  0  0
  -28.6968  -26.5119   20.5640 C   0  0  0  0  0  0  0  0  0  0  0  0
  -25.0686  -17.7698   17.3159 C   0  0  0  0  0  0  0  0  0  0  0  0
  -25.8488  -20.1760   17.4292 C   0  0  0  0  0  0  0  0  0  0  0  0
  -24.5494  -19.2429   19.3027 C   0  0  0  0  0  0  0  0  0  0  0  0
  -27.3150  -26.5854   19.9020 C   0  0  1  0  0  0  0  0  0  0  0  0
  -25.9543  -30.0626   20.5979 C   0  0  1  0  0  0  0  0  0  0  0  0
  -24.0510  -18.0781   18.4317 C   0  0  2  0  0  0  0  0  0  0  0  0
  -24.6933  -35.8809   25.5537 C   0  0  0  0  0  0  0  0  0  0  0  0
  -26.5826  -29.5456   25.1474 C   0  0  0  0  0  0  0  0  0  0  0  0
  -25.8743  -31.4865   26.5615 C   0  0  0  0  0  0  0  0  0  0  0  0
  -27.9555  -31.6354   25.1944 C   0  0  0  0  0  0  0  0  0  0  0  0
  -23.4109  -35.6218   21.9810 C   0  0  0  0  0  0  0  0  0  0  0  0
  -20.4814  -23.9181   23.0461 C   0  0  0  0  0  0  0  0  0  0  0  0
  -17.8595  -26.6451   23.1056 C   0  0  0  0  0  0  0  0  0  0  0  0
  -18.1797  -27.3168   21.7751 C   0  0  0  0  0  0  0  0  0  0  0  0
  -19.3873  -28.2362   21.8853 C   0  0  0  0  0  0  0  0  0  1  0  0
  -25.7070  -31.7077   24.0408 C   0  0  1  0  0  0  0  0  0  0  0  0
  -24.6545  -35.3483   24.1297 C   0  0  2  0  0  0  0  0  0  0  0  0
  -26.5131  -31.0843   25.2150 C   0  0  0  0  0  0  0  0  0  0  0  0
  -24.6894  -15.9216   19.4434 N   0  0  0  0  0  0  0  0  0  0  0  0
  -23.7318  -16.8461   19.2577 N   0  0  0  0  0  0  0  0  0  0  0  0
  -25.4096  -30.6312   21.8324 N   0  0  0  0  0  0  0  0  0  0  0  0
  -24.8347  -20.4138   18.4587 N   0  0  0  0  0  0  0  0  0  0  0  0
  -21.4794  -17.3632   19.7774 N   0  0  0  0  0  0  0  0  0  0  0  0
  -22.1365  -13.3930   21.8271 N   0  0  0  0  0  0  0  0  0  0  0  0
  -23.2630  -21.7852   19.5594 N   0  0  0  0  0  0  0  0  0  0  0  0
  -26.8970  -27.9683   19.8342 N   0  0  0  0  0  0  0  0  0  0  0  0
  -19.3957  -24.8269   22.7641 N   0  0  0  0  0  0  0  0  0  0  0  0
  -25.6475  -33.1652   24.0642 N   0  0  0  0  0  0  0  0  0  0  0  0
  -23.5492  -36.0333   23.4017 N   0  3  0  0  0  0  0  0  0  0  0  0
  -20.5987  -15.0431   21.4139 O   0  0  0  0  0  0  0  0  0  0  0  0
  -26.0561  -28.1633   21.9969 O   0  0  0  0  0  0  0  0  0  0  0  0
  -27.4270  -31.6484   22.4084 O   0  0  0  0  0  0  0  0  0  0  0  0
  -19.5630  -26.0602   24.7237 O   0  0  0  0  0  0  0  0  0  0  0  0
  -23.3351  -33.3244   24.1313 O   0  0  0  0  0  0  0  0  0  0  0  0
  -24.5443  -22.6143   17.8122 O   0  0  0  0  0  0  0  0  0  0  0  0
  -26.8529  -10.4279   21.8281 O   0  0  0  0  0  0  0  0  0  0  0  0
  -19.6416  -28.8193   20.6079 O   0  0  0  0  0  0  0  0  0  1  0  0
  -24.2740   -5.5735   21.3943 F   0  0  0  0  0  0  0  0  0  0  0  0
  -27.8926   -8.4049   20.2567 F   0  0  0  0  0  0  0  0  0  0  0  0
  1  2  1  0  0  0  0
  1  6  2  0  0  0  0
  2  7  2  0  0  0  0
  3  9  2  0  0  0  0
  3 10  1  0  0  0  0
  4 11  2  0  0  0  0
  4 19  1  0  0  0  0
  5 12  1  0  0  0  0
  5 19  2  0  0  0  0
  6 21  1  0  0  0  0
  7 23  1  0  0  0  0
  8 13  2  0  0  0  0
  8 22  1  0  0  0  0
  9 25  1  0  0  0  0
 10 26  2  0  0  0  0
 11 27  1  0  0  0  0
 12 27  2  0  0  0  0
 13 28  1  0  0  0  0
 14 15  2  0  0  0  0
 14 29  1  0  0  0  0
 15 30  1  0  0  0  0
 16 24  1  0  0  0  0
 16 28  2  0  0  0  0
 17 25  2  0  0  0  0
 17 26  1  0  0  0  0
 18 30  2  0  0  0  0
 18 31  1  0  0  0  0
 19 32  1  0  0  0  0
 20 32  1  0  0  0  0
 20 33  2  0  0  0  0
 20 34  1  0  0  0  0
 21 23  2  0  0  0  0
 21 40  1  0  0  0  0
 22 24  2  0  0  0  0
 22 41  1  0  0  0  0
 23 49  1  0  0  0  0
 24 42  1  0  0  0  0
 25 57  1  0  0  0  0
 26 70  1  0  0  0  0
 27 81  1  0  0  0  0
 28 82  1  0  0  0  0
 29 31  2  0  0  0  0
 29 81  1  0  0  0  0
 30 83  1  0  0  0  0
 31 84  1  0  0  0  0
 32 64  2  0  0  0  0
 33 65  1  0  0  0  0
 33 68  1  0  0  0  0
 34 69  1  0  0  0  0
 34 75  2  0  0  0  0
 35 50  1  0  0  0  0
 35 71  1  0  0  0  0
 35 76  2  0  0  0  0
 36 61  1  0  0  0  0
 36 66  1  0  0  0  0
 36 77  2  0  0  0  0
 37 58  1  0  0  0  0
 37 72  1  0  0  0  0
 37 78  2  0  0  0  0
 38 62  1  0  0  0  0
 38 73  1  0  0  0  0
 38 79  2  0  0  0  0
 39 67  1  0  0  0  0
 39 70  1  0  0  0  0
 39 80  2  0  0  0  0
 40 43  1  0  0  0  0
 41 50  1  0  0  0  0
 42 66  1  0  0  0  0
 43 45  1  0  0  0  0
 44 46  1  0  0  0  0
 44 47  1  0  0  0  0
 45 49  1  0  0  0  0
 46 51  1  0  0  0  0
 47 67  1  0  0  0  0
 48 51  1  0  0  0  0
 48 67  1  0  0  0  0
 49 71  1  0  0  0  0
 50 66  1  0  0  0  0
 51 65  1  0  0  0  0
 52 62  1  0  0  0  0
 53 63  1  0  0  0  0
 54 63  1  0  0  0  0
 55 63  1  0  0  0  0
 56 74  1  0  0  0  0
 57 72  1  0  0  0  0
 58 59  1  0  0  0  0
 59 60  1  0  0  0  0
 60 82  1  0  0  0  0
 61 63  1  0  0  0  0
 61 73  1  0  0  0  0
 62 74  1  0  0  0  0
 64 65  1  0  0  0  0
M  CHG  1  74   1
M  ISO  4  39 100  60 101  70 100  82 101
M  END
> <Batch ID>
0075

> <Smiles>
CNC(C)C(=O)NC(C(=O)N1Cc2cc([101O:1][101CH2:1]CCC(=O)NCc3cccc([100NH:0][100C:0](=O)N4CCCC(n5nc(-c6ccc(Oc7ccc(F)cc7F)cc6)c(C(N)=O)c5N)C4)c3)ccc2CC1C(=O)NC1CCCc2ccccc21)C(C)(C)C

> <Shape>
0.246

> <Color>
0.080

> <Negative vol penalty>
0.000

$$$$

  -OEChem-04042323473D

 86 95  0     1  0  0  0  0  0999 V2000
  -29.8489  -36.6974   22.8389 C   0  0  0  0  0  0  0  0  0  0  0  0
  -29.9707  -35.6475   21.9343 C   0  0  0  0  0  0  0  0  0  0  0  0
  -23.7101   -9.6881   20.9108 C   0  0  0  0  0  0  0  0  0  0  0  0
  -24.4070  -10.4434   23.0973 C   0  0  0  0  0  0  0  0  0  0  0  0
  -29.2174  -36.4902   24.0646 C   0  0  0  0  0  0  0  0  0  0  0  0
  -29.4621  -34.3895   22.2553 C   0  0  0  0  0  0  0  0  0  0  0  0
  -26.4539  -28.6421   19.2165 C   0  0  0  0  0  0  0  0  0  0  0  0
  -30.1738  -18.7631   19.2359 C   0  0  0  0  0  0  0  0  0  0  0  0
  -23.1884   -8.5258   21.4785 C   0  0  0  0  0  0  0  0  0  0  0  0
  -23.8853   -9.2810   23.6651 C   0  0  0  0  0  0  0  0  0  0  0  0
  -26.6030  -27.2576   19.1484 C   0  0  0  0  0  0  0  0  0  0  0  0
  -30.0810  -20.1061   18.8709 C   0  0  0  0  0  0  0  0  0  0  0  0
  -20.4097   -7.6123   23.1747 C   0  0  0  0  0  0  0  0  0  0  0  0
  -19.1446   -7.1985   22.7576 C   0  0  0  0  0  0  0  0  0  0  0  0
  -25.4617  -27.0368   21.2621 C   0  0  0  0  0  0  0  0  0  0  0  0
  -28.4984  -19.1109   20.9416 C   0  0  0  0  0  0  0  0  0  0  0  0
  -20.0834   -5.1124   21.9804 C   0  0  0  0  0  0  0  0  0  0  0  0
  -24.3195  -10.6469   21.7202 C   0  0  0  0  0  0  0  0  0  0  0  0
  -24.1885  -13.0679   20.9267 C   0  0  0  0  0  0  0  0  0  0  0  0
  -28.6923  -35.2315   24.3968 C   0  0  0  0  0  0  0  0  0  0  0  0
  -25.8161  -29.2361   20.3150 C   0  0  0  0  0  0  0  0  0  0  0  0
  -28.8243  -34.1649   23.4872 C   0  0  0  0  0  0  0  0  0  0  0  0
  -25.3035  -28.4289   21.3405 C   0  0  0  0  0  0  0  0  0  0  0  0
  -28.4057  -20.4540   20.5766 C   0  0  0  0  0  0  0  0  0  0  0  0
  -29.3824  -18.2655   20.2713 C   0  0  0  0  0  0  0  0  0  0  0  0
  -23.2759   -8.3222   22.8556 C   0  0  0  0  0  0  0  0  0  0  0  0
  -26.1095  -26.4549   20.1727 C   0  0  0  0  0  0  0  0  0  0  0  0
  -29.1970  -20.9516   19.5413 C   0  0  0  0  0  0  0  0  0  0  0  0
  -21.5116   -6.7762   22.9946 C   0  0  0  0  0  0  0  0  0  0  0  0
  -18.9815   -5.9485   22.1604 C   0  0  0  0  0  0  0  0  0  0  0  0
  -21.3484   -5.5263   22.3975 C   0  0  0  0  0  0  0  0  0  0  0  0
  -24.8591  -11.8476   21.1342 C   0  0  0  0  0  0  0  0  0  0  0  0
  -25.1298  -13.8825   20.3462 C   0  0  0  0  0  0  0  0  0  0  0  0
  -22.8358  -13.4324   21.2314 C   0  0  0  0  0  0  0  0  0  0  0  0
  -26.6955  -31.2837   22.5817 C   0  0  0  0  0  0  0  0  0  0  0  0
  -23.5524  -31.1547   23.3732 C   0  0  0  0  0  0  0  0  0  0  0  0
  -20.6140  -29.4207   23.2957 C   0  0  0  0  0  0  0  0  0  0  0  0
  -30.3015  -15.9279   20.0776 C   0  0  0  0  0  0  0  0  0  0  0  0
  -28.0601  -35.0437   25.7532 C   0  0  0  0  0  0  0  0  0  0  0  0
  -25.6396  -30.7292   20.3606 C   0  0  0  0  0  0  0  0  0  0  0  0
  -24.5929  -29.0159   22.5317 C   0  0  0  0  0  0  0  0  0  0  0  0
  -27.2164  -33.7761   25.8617 C   0  0  0  0  0  0  0  0  0  0  0  0
  -29.7052  -12.8097   18.4658 C   0  0  0  0  0  0  0  0  0  0  0  0
  -27.9676  -32.5833   25.2789 C   0  0  0  0  0  0  0  0  0  0  0  0
  -28.3361  -12.3818   18.9992 C   0  0  0  0  0  0  0  0  0  0  0  0
  -30.5364  -13.5140   19.5367 C   0  0  0  0  0  0  0  0  0  0  0  0
  -26.3086  -20.7262   21.8099 C   0  0  0  0  0  0  0  0  0  0  0  0
  -28.4994  -14.2137   20.7326 C   0  0  0  0  0  0  0  0  0  0  0  0
  -28.2634  -32.7921   23.7888 C   0  0  1  0  0  0  0  0  0  0  0  0
  -25.4287  -31.2631   21.7740 C   0  0  1  0  0  0  0  0  0  0  0  0
  -25.4532  -21.9606   22.0335 C   0  0  1  0  0  0  0  0  0  0  0  0
  -27.6007  -13.5576   19.6716 C   0  0  2  0  0  0  0  0  0  0  0  0
  -25.9705  -22.8714   20.9295 C   0  0  1  0  0  0  0  0  0  0  0  0
  -23.9605  -21.6898   21.9700 C   0  0  0  0  0  0  0  0  0  0  0  0
  -18.2273  -29.5541   24.0592 C   0  0  0  0  0  0  0  0  0  0  0  0
  -24.4247  -30.4605   26.2134 C   0  0  0  0  0  0  0  0  0  0  0  0
  -22.0871  -29.6880   26.6680 C   0  0  0  0  0  0  0  0  0  0  0  0
  -22.5173  -32.0718   26.0724 C   0  0  0  0  0  0  0  0  0  0  0  0
  -19.5988  -29.3346   20.5171 C   0  0  0  0  0  0  0  0  0  0  0  0
  -29.9678  -22.6804   18.1014 C   0  0  0  0  0  0  0  0  0  0  0  0
  -25.7247  -24.3416   21.1933 C   0  0  0  0  0  0  0  0  0  1  0  0
  -22.7144  -30.2930   24.2866 C   0  0  1  0  0  0  0  0  0  0  0  0
  -19.2032  -29.8453   22.9299 C   0  0  2  0  0  0  0  0  0  0  0  0
  -22.9509  -30.6171   25.7887 C   0  0  0  0  0  0  0  0  0  0  0  0
  -26.1283  -11.8796   20.7192 N   0  0  0  0  0  0  0  0  0  0  0  0
  -26.2627  -13.1298   20.2450 N   0  0  0  0  0  0  0  0  0  0  0  0
  -27.5277  -21.2789   21.2474 N   0  0  2  0  0  0  0  0  0  0  0  0
  -24.4508  -30.4813   22.5335 N   0  0  0  0  0  0  0  0  0  0  0  0
  -29.7772  -14.6189   20.1263 N   0  0  0  0  0  0  0  0  0  0  0  0
  -25.0906  -15.1620   19.9176 N   0  0  0  0  0  0  0  0  0  0  0  0
  -22.0036  -12.4746   21.8267 N   0  0  0  0  0  0  0  0  0  0  0  0
  -29.4764  -16.9008   20.6409 N   0  0  0  0  0  0  0  0  0  0  0  0
  -27.0766  -32.5449   22.9984 N   0  0  0  0  0  0  0  0  0  0  0  0
  -21.3323  -30.4591   23.8499 N   0  0  0  0  0  0  0  0  0  0  0  0
  -18.7432  -29.1194   21.7123 N   0  3  0  0  0  0  0  0  0  0  0  0
  -22.3738  -14.5686   20.9682 O   0  0  0  0  0  0  0  0  0  0  0  0
  -27.2829  -30.2330   22.8112 O   0  0  0  0  0  0  0  0  0  0  0  0
  -23.4098  -32.3797   23.3985 O   0  0  0  0  0  0  0  0  0  0  0  0
  -21.0354  -28.2809   23.1120 O   0  0  0  0  0  0  0  0  0  0  0  0
  -31.3892  -16.1721   19.5491 O   0  0  0  0  0  0  0  0  0  0  0  0
  -27.3870  -22.6287   20.8944 O   0  0  0  0  0  0  0  0  0  0  0  0
  -22.7667   -7.1882   23.4100 O   0  0  0  0  0  0  0  0  0  0  0  0
  -29.1216  -22.2606   19.1697 O   0  0  0  0  0  0  0  0  0  0  0  0
  -26.2543  -25.1033   20.1090 O   0  0  0  0  0  0  0  0  0  1  0  0
  -17.7664   -5.5506   21.7613 F   0  0  0  0  0  0  0  0  0  0  0  0
  -22.4031   -4.7182   22.2229 F   0  0  0  0  0  0  0  0  0  0  0  0
  1  2  1  0  0  0  0
  1  5  2  0  0  0  0
  2  6  2  0  0  0  0
  3  9  2  0  0  0  0
  3 18  1  0  0  0  0
  4 10  1  0  0  0  0
  4 18  2  0  0  0  0
  5 20  1  0  0  0  0
  6 22  1  0  0  0  0
  7 11  2  0  0  0  0
  7 21  1  0  0  0  0
  8 12  2  0  0  0  0
  8 25  1  0  0  0  0
  9 26  1  0  0  0  0
 10 26  2  0  0  0  0
 11 27  1  0  0  0  0
 12 28  1  0  0  0  0
 13 14  2  0  0  0  0
 13 29  1  0  0  0  0
 14 30  1  0  0  0  0
 15 23  1  0  0  0  0
 15 27  2  0  0  0  0
 16 24  1  0  0  0  0
 16 25  2  0  0  0  0
 17 30  2  0  0  0  0
 17 31  1  0  0  0  0
 18 32  1  0  0  0  0
 19 32  1  0  0  0  0
 19 33  2  0  0  0  0
 19 34  1  0  0  0  0
 20 22  2  0  0  0  0
 20 39  1  0  0  0  0
 21 23  2  0  0  0  0
 21 40  1  0  0  0  0
 22 49  1  0  0  0  0
 23 41  1  0  0  0  0
 24 28  2  0  0  0  0
 24 67  1  0  0  0  0
 25 72  1  0  0  0  0
 26 82  1  0  0  0  0
 27 84  1  0  0  0  0
 28 83  1  0  0  0  0
 29 31  2  0  0  0  0
 29 82  1  0  0  0  0
 30 85  1  0  0  0  0
 31 86  1  0  0  0  0
 32 65  2  0  0  0  0
 33 66  1  0  0  0  0
 33 70  1  0  0  0  0
 34 71  1  0  0  0  0
 34 76  2  0  0  0  0
 35 50  1  0  0  0  0
 35 73  1  0  0  0  0
 35 77  2  0  0  0  0
 36 62  1  0  0  0  0
 36 68  1  0  0  0  0
 36 78  2  0  0  0  0
 37 63  1  0  0  0  0
 37 74  1  0  0  0  0
 37 79  2  0  0  0  0
 38 69  1  0  0  0  0
 38 72  1  0  0  0  0
 38 80  2  0  0  0  0
 39 42  1  0  0  0  0
 40 50  1  0  0  0  0
 41 68  1  0  0  0  0
 42 44  1  0  0  0  0
 43 45  1  0  0  0  0
 43 46  1  0  0  0  0
 44 49  1  0  0  0  0
 45 52  1  0  0  0  0
 46 69  1  0  0  0  0
 47 51  1  0  0  0  0
 47 67  1  0  0  0  0
 48 52  1  0  0  0  0
 48 69  1  0  0  0  0
 49 73  1  0  0  0  0
 50 68  1  0  0  0  0
 51 53  1  0  0  0  0
 51 54  1  0  0  0  0
 52 66  1  0  0  0  0
 53 61  1  0  0  0  0
 53 81  1  0  0  0  0
 55 63  1  0  0  0  0
 56 64  1  0  0  0  0
 57 64  1  0  0  0  0
 58 64  1  0  0  0  0
 59 75  1  0  0  0  0
 60 83  1  0  0  0  0
 61 84  1  0  0  0  0
 62 64  1  0  0  0  0
 62 74  1  0  0  0  0
 63 75  1  0  0  0  0
 65 66  1  0  0  0  0
 67 81  1  0  0  0  0
M  CHG  1  75   1
M  ISO  4  38 100  61 101  72 100  84 101
M  END
> <Batch ID>
0075

> <Smiles>
CNC(C)C(=O)NC(C(=O)N1Cc2cc([101O:1][101CH2:1]C3ON(c4cc([100NH:0][100C:0](=O)N5CCCC(n6nc(-c7ccc(Oc8ccc(F)cc8F)cc7)c(C(N)=O)c6N)C5)ccc4OC)CC3C)ccc2CC1C(=O)NC1CCCc2ccccc21)C(C)(C)C

> <Shape>
0.347

> <Color>
0.186

> <Negative vol penalty>
0.000

$$$$

  -OEChem-04042323473D

 84 92  0     1  0  0  0  0  0999 V2000
  -24.4763  -32.6074   12.9377 C   0  0  0  0  0  0  0  0  0  0  0  0
  -24.5909  -31.4483   13.6984 C   0  0  0  0  0  0  0  0  0  0  0  0
  -31.4214  -19.1004   20.9191 C   0  0  0  0  0  0  0  0  0  0  0  0
  -23.2651   -9.3238   20.6688 C   0  0  0  0  0  0  0  0  0  0  0  0
  -23.2596  -10.8543   22.5382 C   0  0  0  0  0  0  0  0  0  0  0  0
  -30.4497  -20.0790   20.7098 C   0  0  0  0  0  0  0  0  0  0  0  0
  -25.0808  -33.7868   13.3709 C   0  0  0  0  0  0  0  0  0  0  0  0
  -25.3112  -31.4675   14.8923 C   0  0  0  0  0  0  0  0  0  0  0  0
  -24.0895  -28.2859   19.9806 C   0  0  0  0  0  0  0  0  0  0  0  0
  -31.1287  -17.7608   20.6630 C   0  0  0  0  0  0  0  0  0  0  0  0
  -22.4519   -8.4457   21.3853 C   0  0  0  0  0  0  0  0  0  0  0  0
  -22.4463   -9.9763   23.2547 C   0  0  0  0  0  0  0  0  0  0  0  0
  -24.6074  -27.0958   20.4897 C   0  0  0  0  0  0  0  0  0  0  0  0
  -22.8197   -6.1526   23.8410 C   0  0  0  0  0  0  0  0  0  0  0  0
  -23.1547   -4.7987   23.8223 C   0  0  0  0  0  0  0  0  0  0  0  0
  -28.8925  -18.3783   19.9886 C   0  0  0  0  0  0  0  0  0  0  0  0
  -26.1379  -28.3566   21.8635 C   0  0  0  0  0  0  0  0  0  0  0  0
  -21.0092   -4.2815   22.8392 C   0  0  0  0  0  0  0  0  0  0  0  0
  -23.6690  -10.5281   21.2453 C   0  0  0  0  0  0  0  0  0  0  0  0
  -29.1852  -19.7179   20.2446 C   0  0  0  0  0  0  0  0  0  0  0  0
  -24.0941  -12.4755   19.6533 C   0  0  0  0  0  0  0  0  0  0  0  0
  -25.8008  -33.8228   14.5755 C   0  0  0  0  0  0  0  0  0  0  0  0
  -24.6002  -29.5221   20.4017 C   0  0  0  0  0  0  0  0  0  0  0  0
  -25.9271  -32.6481   15.3413 C   0  0  0  0  0  0  0  0  0  0  0  0
  -25.6230  -29.5610   21.3601 C   0  0  0  0  0  0  0  0  0  0  0  0
  -29.8643  -17.3998   20.1978 C   0  0  0  0  0  0  0  0  0  0  0  0
  -22.0424   -8.7720   22.6782 C   0  0  0  0  0  0  0  0  0  0  0  0
  -25.6337  -27.1309   21.4292 C   0  0  0  0  0  0  0  0  0  0  0  0
  -21.5794   -6.5710   23.3589 C   0  0  0  0  0  0  0  0  0  0  0  0
  -22.2494   -3.8632   23.3214 C   0  0  0  0  0  0  0  0  0  0  0  0
  -20.6742   -5.6354   22.8580 C   0  0  0  0  0  0  0  0  0  0  0  0
  -24.5095  -11.4352   20.5060 C   0  0  0  0  0  0  0  0  0  0  0  0
  -25.2634  -13.0352   19.1995 C   0  0  0  0  0  0  0  0  0  0  0  0
  -28.1488  -20.7638   20.0216 C   0  0  0  0  0  0  0  0  0  0  0  0
  -22.7696  -12.8981   19.3028 C   0  0  0  0  0  0  0  0  0  0  0  0
  -26.0686  -31.9488   18.9667 C   0  0  0  0  0  0  0  0  0  0  0  0
  -25.7592  -33.3482   21.8768 C   0  0  0  0  0  0  0  0  0  0  0  0
  -27.2492  -23.8857   21.4015 C   0  0  0  0  0  0  0  0  0  0  0  0
  -25.3788  -32.9711   25.2472 C   0  0  0  0  0  0  0  0  0  0  0  0
  -30.4172  -14.9443   20.0919 C   0  0  0  0  0  0  0  0  0  0  0  0
  -26.4766  -35.1093   14.9790 C   0  0  0  0  0  0  0  0  0  0  0  0
  -24.0124  -30.7975   19.8628 C   0  0  0  0  0  0  0  0  0  0  0  0
  -26.1922  -30.8627   21.8601 C   0  0  0  0  0  0  0  0  0  0  0  0
  -26.9067  -35.1382   16.4434 C   0  0  0  0  0  0  0  0  0  0  0  0
  -30.0503  -11.4379   19.5942 C   0  0  0  0  0  0  0  0  0  0  0  0
  -27.6141  -33.8396   16.8178 C   0  0  0  0  0  0  0  0  0  0  0  0
  -28.5419  -11.2102   19.7169 C   0  0  0  0  0  0  0  0  0  0  0  0
  -30.5432  -12.5083   20.5663 C   0  0  0  0  0  0  0  0  0  0  0  0
  -28.3157  -13.5592   20.6215 C   0  0  0  0  0  0  0  0  0  0  0  0
  -26.6792  -32.6352   16.6544 C   0  0  1  0  0  0  0  0  0  0  0  0
  -24.9593  -31.9879   19.9795 C   0  0  1  0  0  0  0  0  0  0  0  0
  -27.7619  -12.5358   19.6167 C   0  0  2  0  0  0  0  0  0  0  0  0
  -27.1202  -20.5148   18.9360 C   0  0  0  0  0  0  0  0  0  0  0  0
  -25.1960  -34.2975   27.3696 C   0  0  0  0  0  0  0  0  0  0  0  0
  -28.7644  -33.8712   21.8058 C   0  0  0  0  0  0  0  0  0  0  0  0
  -28.6762  -34.3071   24.2697 C   0  0  0  0  0  0  0  0  0  0  0  0
  -27.3968  -35.7643   22.7005 C   0  0  0  0  0  0  0  0  0  0  0  0
  -22.6765  -31.9067   25.8164 C   0  0  0  0  0  0  0  0  0  0  0  0
  -26.1131  -24.8291   21.0716 C   0  0  0  0  0  0  0  0  0  1  0  0
  -26.5980  -33.4045   23.1306 C   0  0  1  0  0  0  0  0  0  0  0  0
  -24.4337  -33.6319   26.2344 C   0  0  2  0  0  0  0  0  0  0  0  0
  -27.8497  -34.3121   22.9660 C   0  0  0  0  0  0  0  0  0  0  0  0
  -25.8390  -11.3376   20.5904 N   0  0  0  0  0  0  0  0  0  0  0  0
  -28.1872  -21.8260   20.7706 N   0  0  0  0  0  0  0  0  0  0  0  0
  -26.2690  -12.3237   19.7849 N   0  0  0  0  0  0  0  0  0  0  0  0
  -25.5885  -32.0824   21.2984 N   0  0  0  0  0  0  0  0  0  0  0  0
  -29.7610  -13.7367   20.4113 N   0  0  0  0  0  0  0  0  0  0  0  0
  -25.5192  -14.0617   18.3608 N   0  0  0  0  0  0  0  0  0  0  0  0
  -21.6806  -12.2133   19.8592 N   0  0  0  0  0  0  0  0  0  0  0  0
  -29.5673  -16.0390   19.9375 N   0  0  0  0  0  0  0  0  0  0  0  0
  -25.7560  -32.5575   17.7662 N   0  0  0  0  0  0  0  0  0  0  0  0
  -25.6998  -33.8144   24.2046 N   0  0  0  0  0  0  0  0  0  0  0  0
  -27.2302  -22.7621   20.5954 N   0  0  0  0  0  0  0  0  0  0  0  0
  -23.5066  -32.6222   26.8193 N   0  3  0  0  0  0  0  0  0  0  0  0
  -22.5581  -13.8440   18.5066 O   0  0  0  0  0  0  0  0  0  0  0  0
  -27.1300  -31.4077   19.2538 O   0  0  0  0  0  0  0  0  0  0  0  0
  -25.2673  -34.3879   21.4310 O   0  0  0  0  0  0  0  0  0  0  0  0
  -28.0737  -24.1175   22.2820 O   0  0  0  0  0  0  0  0  0  0  0  0
  -25.7939  -31.8230   25.3889 O   0  0  0  0  0  0  0  0  0  0  0  0
  -31.6401  -14.9974   19.9380 O   0  0  0  0  0  0  0  0  0  0  0  0
  -21.2487   -7.9156   23.3775 O   0  0  0  0  0  0  0  0  0  0  0  0
  -26.1415  -25.9708   21.9273 O   0  0  0  0  0  0  0  0  0  1  0  0
  -22.5719   -2.5632   23.3020 F   0  0  0  0  0  0  0  0  0  0  0  0
  -19.4816   -6.0314   22.3924 F   0  0  0  0  0  0  0  0  0  0  0  0
  1  2  1  0  0  0  0
  1  7  2  0  0  0  0
  2  8  2  0  0  0  0
  3  6  2  0  0  0  0
  3 10  1  0  0  0  0
  4 11  2  0  0  0  0
  4 19  1  0  0  0  0
  5 12  1  0  0  0  0
  5 19  2  0  0  0  0
  6 20  1  0  0  0  0
  7 22  1  0  0  0  0
  8 24  1  0  0  0  0
  9 13  2  0  0  0  0
  9 23  1  0  0  0  0
 10 26  2  0  0  0  0
 11 27  1  0  0  0  0
 12 27  2  0  0  0  0
 13 28  1  0  0  0  0
 14 15  2  0  0  0  0
 14 29  1  0  0  0  0
 15 30  1  0  0  0  0
 16 20  2  0  0  0  0
 16 26  1  0  0  0  0
 17 25  1  0  0  0  0
 17 28  2  0  0  0  0
 18 30  2  0  0  0  0
 18 31  1  0  0  0  0
 19 32  1  0  0  0  0
 20 34  1  0  0  0  0
 21 32  1  0  0  0  0
 21 33  2  0  0  0  0
 21 35  1  0  0  0  0
 22 24  2  0  0  0  0
 22 41  1  0  0  0  0
 23 25  2  0  0  0  0
 23 42  1  0  0  0  0
 24 50  1  0  0  0  0
 25 43  1  0  0  0  0
 26 70  1  0  0  0  0
 27 81  1  0  0  0  0
 28 82  1  0  0  0  0
 29 31  2  0  0  0  0
 29 81  1  0  0  0  0
 30 83  1  0  0  0  0
 31 84  1  0  0  0  0
 32 63  2  0  0  0  0
 33 65  1  0  0  0  0
 33 68  1  0  0  0  0
 34 53  1  0  0  0  0
 34 64  2  0  0  0  0
 35 69  1  0  0  0  0
 35 75  2  0  0  0  0
 36 51  1  0  0  0  0
 36 71  1  0  0  0  0
 36 76  2  0  0  0  0
 37 60  1  0  0  0  0
 37 66  1  0  0  0  0
 37 77  2  0  0  0  0
 38 59  1  0  0  0  0
 38 73  1  0  0  0  0
 38 78  2  0  0  0  0
 39 61  1  0  0  0  0
 39 72  1  0  0  0  0
 39 79  2  0  0  0  0
 40 67  1  0  0  0  0
 40 70  1  0  0  0  0
 40 80  2  0  0  0  0
 41 44  1  0  0  0  0
 42 51  1  0  0  0  0
 43 66  1  0  0  0  0
 44 46  1  0  0  0  0
 45 47  1  0  0  0  0
 45 48  1  0  0  0  0
 46 50  1  0  0  0  0
 47 52  1  0  0  0  0
 48 67  1  0  0  0  0
 49 52  1  0  0  0  0
 49 67  1  0  0  0  0
 50 71  1  0  0  0  0
 51 66  1  0  0  0  0
 52 65  1  0  0  0  0
 54 61  1  0  0  0  0
 55 62  1  0  0  0  0
 56 62  1  0  0  0  0
 57 62  1  0  0  0  0
 58 74  1  0  0  0  0
 59 82  1  0  0  0  0
 60 62  1  0  0  0  0
 60 72  1  0  0  0  0
 61 74  1  0  0  0  0
 63 65  1  0  0  0  0
 64 73  1  0  0  0  0
M  CHG  1  74   1
M  ISO  4  40 100  59 101  70 100  82 101
M  END
> <Batch ID>
0075

> <Smiles>
CNC(C)C(=O)NC(C(=O)N1Cc2cc([101O:1][101CH2:1]C(=O)NN=C(C)c3cccc([100NH:0][100C:0](=O)N4CCCC(n5nc(-c6ccc(Oc7ccc(F)cc7F)cc6)c(C(N)=O)c5N)C4)c3)ccc2CC1C(=O)NC1CCCc2ccccc21)C(C)(C)C

> <Shape>
0.268

> <Color>
0.118

> <Negative vol penalty>
0.000

$$$$

  -OEChem-04042323473D

 90 99  0     1  0  0  0  0  0999 V2000
  -20.5255   -8.2169   18.8647 C   0  0  0  0  0  0  0  0  0  0  0  0
  -20.2717   -9.5845   18.8397 C   0  0  0  0  0  0  0  0  0  0  0  0
  -28.9371  -26.4920   18.8123 C   0  0  0  0  0  0  0  0  0  0  0  0
  -26.6683  -25.6620   18.8401 C   0  0  0  0  0  0  0  0  0  0  0  0
  -21.5750   -7.7178   19.6349 C   0  0  0  0  0  0  0  0  0  0  0  0
  -21.0667  -10.4538   19.5859 C   0  0  0  0  0  0  0  0  0  0  0  0
  -22.7106  -16.1557   18.0720 C   0  0  0  0  0  0  0  0  0  0  0  0
  -29.4165  -25.1823   18.8301 C   0  0  0  0  0  0  0  0  0  0  0  0
  -27.1477  -24.3522   18.8579 C   0  0  0  0  0  0  0  0  0  0  0  0
  -22.2086  -17.4044   18.4359 C   0  0  0  0  0  0  0  0  0  0  0  0
  -28.4383  -22.2022   21.1257 C   0  0  0  0  0  0  0  0  0  0  0  0
  -27.8477  -21.3080   22.0185 C   0  0  0  0  0  0  0  0  0  0  0  0
  -23.8896  -17.5716   20.1580 C   0  0  0  0  0  0  0  0  0  0  0  0
  -18.1058  -26.8611   23.0449 C   0  0  0  0  0  0  0  0  0  0  0  0
  -20.2508  -26.9414   21.9362 C   0  0  0  0  0  0  0  0  0  0  0  0
  -19.4579  -28.8592   23.1733 C   0  0  0  0  0  0  0  0  0  0  0  0
  -27.1841  -19.9008   20.1701 C   0  0  0  0  0  0  0  0  0  0  0  0
  -27.5630  -26.7319   18.8173 C   0  0  0  0  0  0  0  0  0  0  0  0
  -27.2951  -29.0606   17.8110 C   0  0  0  0  0  0  0  0  0  0  0  0
  -22.3894   -8.5823   20.3833 C   0  0  0  0  0  0  0  0  0  0  0  0
  -23.8008  -15.5997   18.7567 C   0  0  0  0  0  0  0  0  0  0  0  0
  -22.1273   -9.9656   20.3679 C   0  0  0  0  0  0  0  0  0  0  0  0
  -24.4051  -16.3167   19.7992 C   0  0  0  0  0  0  0  0  0  0  0  0
  -19.0851  -26.2486   22.2630 C   0  0  0  0  0  0  0  0  0  0  0  0
  -18.2922  -28.1664   23.5000 C   0  0  0  0  0  0  0  0  0  0  0  0
  -20.4372  -28.2467   22.3913 C   0  0  0  0  0  0  0  0  0  0  0  0
  -28.5218  -24.1124   18.8529 C   0  0  0  0  0  0  0  0  0  0  0  0
  -22.7963  -18.1113   19.4809 C   0  0  0  0  0  0  0  0  0  0  0  0
  -28.4018  -21.9458   19.7550 C   0  0  0  0  0  0  0  0  0  0  0  0
  -27.2206  -20.1573   21.5407 C   0  0  0  0  0  0  0  0  0  0  0  0
  -27.7747  -20.7951   19.2772 C   0  0  0  0  0  0  0  0  0  0  0  0
  -27.0671  -28.0846   18.7995 C   0  0  0  0  0  0  0  0  0  0  0  0
  -26.6133  -30.1665   18.2566 C   0  0  0  0  0  0  0  0  0  0  0  0
  -18.3978  -22.5464   22.2873 C   0  0  0  0  0  0  0  0  0  0  0  0
  -28.0553  -28.9752   16.5983 C   0  0  0  0  0  0  0  0  0  0  0  0
  -24.2543  -12.9839   20.5048 C   0  0  0  0  0  0  0  0  0  0  0  0
  -20.3735  -20.5400   20.6524 C   0  0  0  0  0  0  0  0  0  0  0  0
  -27.3463  -13.9635   20.4625 C   0  0  0  0  0  0  0  0  0  0  0  0
  -29.5673  -16.5319   20.1198 C   0  0  0  0  0  0  0  0  0  0  0  0
  -21.9730  -30.2518   22.4262 C   0  0  0  0  0  0  0  0  0  0  0  0
  -23.4826   -7.9915   21.2380 C   0  0  0  0  0  0  0  0  0  0  0  0
  -24.3472  -14.2634   18.3345 C   0  0  0  0  0  0  0  0  0  0  0  0
  -25.5904  -15.7730   20.5527 C   0  0  0  0  0  0  0  0  0  0  0  0
  -18.1057  -24.0002   22.5961 C   0  0  0  0  0  0  0  0  0  0  0  0
  -24.5122   -9.0172   21.7049 C   0  0  0  0  0  0  0  0  0  0  0  0
  -25.2216  -32.0115   22.5167 C   0  0  0  0  0  0  0  0  0  0  0  0
  -23.8176  -10.2661   22.2383 C   0  0  0  0  0  0  0  0  0  0  0  0
  -26.0252  -31.4792   21.3292 C   0  0  0  0  0  0  0  0  0  0  0  0
  -23.7202  -32.0088   22.2646 C   0  0  0  0  0  0  0  0  0  0  0  0
  -24.0974  -29.8390   21.0728 C   0  0  0  0  0  0  0  0  0  0  0  0
  -19.4741  -24.5275   20.5286 C   0  0  0  0  0  0  0  0  0  0  0  0
  -22.9830  -10.9429   21.1443 C   0  0  1  0  0  0  0  0  0  0  0  0
  -25.1373  -13.5655   19.4372 C   0  0  1  0  0  0  0  0  0  0  0  0
  -25.1757  -30.6574   20.3454 C   0  0  2  0  0  0  0  0  0  0  0  0
  -18.7658  -23.3019   19.9525 C   0  0  2  0  0  0  0  0  0  0  0  0
  -17.3885  -23.6330   19.3746 C   0  0  0  0  0  0  0  0  0  0  0  0
  -32.0263  -17.0301   20.1731 C   0  0  0  0  0  0  0  0  0  0  0  0
  -27.3146  -13.7823   23.5082 C   0  0  0  0  0  0  0  0  0  0  0  0
  -29.4022  -15.1639   23.5426 C   0  0  0  0  0  0  0  0  0  0  0  0
  -29.4058  -12.9292   22.4340 C   0  0  0  0  0  0  0  0  0  0  0  0
  -29.5558  -17.4708   17.3132 C   0  0  0  0  0  0  0  0  0  0  0  0
  -18.9034  -20.8789   20.5274 C   0  0  0  0  0  0  0  0  0  0  0  0
  -20.9141  -19.5570   19.6334 C   0  0  0  0  0  0  0  0  0  1  0  0
  -28.1967  -14.8572   21.3327 C   0  0  1  0  0  0  0  0  0  0  0  0
  -30.8375  -16.6624   19.2988 C   0  0  2  0  0  0  0  0  0  0  0  0
  -28.5563  -14.1928   22.6916 C   0  0  0  0  0  0  0  0  0  0  0  0
  -26.3005  -28.5312   19.7979 N   0  0  0  0  0  0  0  0  0  0  0  0
  -26.0409  -29.8000   19.4391 N   0  0  0  0  0  0  0  0  0  0  0  0
  -18.8982  -24.9397   21.8064 N   0  0  3  0  0  0  0  0  0  0  0  0
  -18.6895  -22.2517   20.9631 N   0  0  0  0  0  0  0  0  0  0  0  0
  -26.0842  -14.4597   20.1066 N   0  0  0  0  0  0  0  0  0  0  0  0
  -23.2337  -30.6667   21.9321 N   0  0  0  0  0  0  0  0  0  0  0  0
  -17.3018  -28.7858   24.2905 N   0  0  0  0  0  0  0  0  0  0  0  0
  -26.4536  -31.4070   17.7485 N   0  0  0  0  0  0  0  0  0  0  0  0
  -27.4038  -28.5588   15.4293 N   0  0  0  0  0  0  0  0  0  0  0  0
  -21.6221  -28.9499   22.0600 N   0  0  0  0  0  0  0  0  0  0  0  0
  -23.8370  -11.6919   20.2476 N   0  0  0  0  0  0  0  0  0  0  0  0
  -29.3532  -15.2318   20.5261 N   0  0  0  0  0  0  0  0  0  0  0  0
  -30.6755  -17.7168   18.2581 N   0  3  0  0  0  0  0  0  0  0  0  0
  -18.3093  -21.7034   23.1829 O   0  0  0  0  0  0  0  0  0  0  0  0
  -29.2798  -29.2440   16.5561 O   0  0  0  0  0  0  0  0  0  0  0  0
  -23.9735  -13.6570   21.4896 O   0  0  0  0  0  0  0  0  0  0  0  0
  -21.0777  -20.9905   21.5557 O   0  0  0  0  0  0  0  0  0  0  0  0
  -27.7886  -12.8687   20.1056 O   0  0  0  0  0  0  0  0  0  0  0  0
  -28.8400  -17.4883   20.3783 O   0  0  0  0  0  0  0  0  0  0  0  0
  -21.2773  -30.9900   23.1270 O   0  0  0  0  0  0  0  0  0  0  0  0
  -28.9893  -22.8342   18.8700 O   0  0  0  0  0  0  0  0  0  0  0  0
  -22.3080  -19.3301   19.8385 O   0  0  0  0  0  0  0  0  0  1  0  0
  -26.6548  -19.2979   22.3983 F   0  0  0  0  0  0  0  0  0  0  0  0
  -27.7375  -20.5428   17.9617 F   0  0  0  0  0  0  0  0  0  0  0  0
  1  2  1  0  0  0  0
  1  5  2  0  0  0  0
  2  6  2  0  0  0  0
  3  8  2  0  0  0  0
  3 18  1  0  0  0  0
  4  9  1  0  0  0  0
  4 18  2  0  0  0  0
  5 20  1  0  0  0  0
  6 22  1  0  0  0  0
  7 10  2  0  0  0  0
  7 21  1  0  0  0  0
  8 27  1  0  0  0  0
  9 27  2  0  0  0  0
 10 28  1  0  0  0  0
 11 12  2  0  0  0  0
 11 29  1  0  0  0  0
 12 30  1  0  0  0  0
 13 23  1  0  0  0  0
 13 28  2  0  0  0  0
 14 24  1  0  0  0  0
 14 25  2  0  0  0  0
 15 24  2  0  0  0  0
 15 26  1  0  0  0  0
 16 25  1  0  0  0  0
 16 26  2  0  0  0  0
 17 30  2  0  0  0  0
 17 31  1  0  0  0  0
 18 32  1  0  0  0  0
 19 32  1  0  0  0  0
 19 33  2  0  0  0  0
 19 35  1  0  0  0  0
 20 22  2  0  0  0  0
 20 41  1  0  0  0  0
 21 23  2  0  0  0  0
 21 42  1  0  0  0  0
 22 52  1  0  0  0  0
 23 43  1  0  0  0  0
 24 69  1  0  0  0  0
 25 73  1  0  0  0  0
 26 76  1  0  0  0  0
 27 87  1  0  0  0  0
 28 88  1  0  0  0  0
 29 31  2  0  0  0  0
 29 87  1  0  0  0  0
 30 89  1  0  0  0  0
 31 90  1  0  0  0  0
 32 67  2  0  0  0  0
 33 68  1  0  0  0  0
 33 74  1  0  0  0  0
 34 44  1  0  0  0  0
 34 70  1  0  0  0  0
 34 80  2  0  0  0  0
 35 75  1  0  0  0  0
 35 81  2  0  0  0  0
 36 53  1  0  0  0  0
 36 77  1  0  0  0  0
 36 82  2  0  0  0  0
 37 62  1  0  0  0  0
 37 63  1  0  0  0  0
 37 83  2  0  0  0  0
 38 64  1  0  0  0  0
 38 71  1  0  0  0  0
 38 84  2  0  0  0  0
 39 65  1  0  0  0  0
 39 78  1  0  0  0  0
 39 85  2  0  0  0  0
 40 72  1  0  0  0  0
 40 76  1  0  0  0  0
 40 86  2  0  0  0  0
 41 45  1  0  0  0  0
 42 53  1  0  0  0  0
 43 71  1  0  0  0  0
 44 69  1  0  0  0  0
 45 47  1  0  0  0  0
 46 48  1  0  0  0  0
 46 49  1  0  0  0  0
 47 52  1  0  0  0  0
 48 54  1  0  0  0  0
 49 72  1  0  0  0  0
 50 54  1  0  0  0  0
 50 72  1  0  0  0  0
 51 55  1  0  0  0  0
 51 69  1  0  0  0  0
 52 77  1  0  0  0  0
 53 71  1  0  0  0  0
 54 68  1  0  0  0  0
 55 56  1  0  0  0  0
 55 70  1  0  0  0  0
 57 65  1  0  0  0  0
 58 66  1  0  0  0  0
 59 66  1  0  0  0  0
 60 66  1  0  0  0  0
 61 79  1  0  0  0  0
 62 70  1  0  0  0  0
 63 88  1  0  0  0  0
 64 66  1  0  0  0  0
 64 78  1  0  0  0  0
 65 79  1  0  0  0  0
 67 68  1  0  0  0  0
M  CHG  1  79   1
M  ISO  4  40 100  63 101  76 100  88 101
M  END
> <Batch ID>
0075

> <Smiles>
CNC(C)C(=O)NC(C(=O)N1Cc2cc([101O:1][101CH2:1]C(=O)CN3C(=O)CN(c4cc(N)cc([100NH:0][100C:0](=O)N5CCCC(n6nc(-c7ccc(Oc8ccc(F)cc8F)cc7)c(C(N)=O)c6N)C5)c4)CC3C)ccc2CC1C(=O)NC1CCCc2ccccc21)C(C)(C)C

> <Shape>
0.281

> <Color>
0.074

> <Negative vol penalty>
0.000

$$$$

  -OEChem-04042323473D

 85 94  0     1  0  0  0  0  0999 V2000
  -22.4620  -30.7299   17.4114 C   0  0  0  0  0  0  0  0  0  0  0  0
  -23.1442  -29.7653   18.1459 C   0  0  0  0  0  0  0  0  0  0  0  0
  -23.1799  -15.7842   22.6572 C   0  0  0  0  0  0  0  0  0  0  0  0
  -22.2517  -15.6128   20.4332 C   0  0  0  0  0  0  0  0  0  0  0  0
  -21.7391  -31.7237   18.0698 C   0  0  0  0  0  0  0  0  0  0  0  0
  -23.1046  -29.7946   19.5395 C   0  0  0  0  0  0  0  0  0  0  0  0
  -22.3112  -25.2180   21.5571 C   0  0  0  0  0  0  0  0  0  0  0  0
  -28.7458  -18.8731   22.9238 C   0  0  0  0  0  0  0  0  0  0  0  0
  -29.4662  -19.3586   20.6694 C   0  0  0  0  0  0  0  0  0  0  0  0
  -29.3340  -17.6112   22.8400 C   0  0  0  0  0  0  0  0  0  0  0  0
  -30.0544  -18.0966   20.5856 C   0  0  0  0  0  0  0  0  0  0  0  0
  -22.1517  -16.6544   23.0193 C   0  0  0  0  0  0  0  0  0  0  0  0
  -21.2234  -16.4829   20.7954 C   0  0  0  0  0  0  0  0  0  0  0  0
  -23.4003  -24.3495   21.6135 C   0  0  0  0  0  0  0  0  0  0  0  0
  -21.3901  -19.9207   22.6003 C   0  0  0  0  0  0  0  0  0  0  0  0
  -21.7343  -21.0670   23.3166 C   0  0  0  0  0  0  0  0  0  0  0  0
  -23.7201  -24.9110   23.9377 C   0  0  0  0  0  0  0  0  0  0  0  0
  -20.3184  -20.3531   25.1395 C   0  0  0  0  0  0  0  0  0  0  0  0
  -23.2300  -15.2635   21.3641 C   0  0  0  0  0  0  0  0  0  0  0  0
  -24.2956  -12.9613   21.0959 C   0  0  0  0  0  0  0  0  0  0  0  0
  -21.6827  -31.7596   19.4720 C   0  0  0  0  0  0  0  0  0  0  0  0
  -21.9243  -25.9490   22.6896 C   0  0  0  0  0  0  0  0  0  0  0  0
  -22.3813  -30.7906   20.2173 C   0  0  0  0  0  0  0  0  0  0  0  0
  -22.6241  -25.7862   23.8937 C   0  0  0  0  0  0  0  0  0  0  0  0
  -28.8118  -19.7469   21.8384 C   0  0  0  0  0  0  0  0  0  0  0  0
  -29.9883  -17.2229   21.6710 C   0  0  0  0  0  0  0  0  0  0  0  0
  -21.1734  -17.0037   22.0884 C   0  0  0  0  0  0  0  0  0  0  0  0
  -24.1067  -24.1981   22.8031 C   0  0  0  0  0  0  0  0  0  0  0  0
  -20.5100  -18.9906   23.1536 C   0  0  0  0  0  0  0  0  0  0  0  0
  -21.1985  -21.2832   24.5862 C   0  0  0  0  0  0  0  0  0  0  0  0
  -19.9742  -19.2068   24.4231 C   0  0  0  0  0  0  0  0  0  0  0  0
  -24.2922  -14.3650   20.9893 C   0  0  0  0  0  0  0  0  0  0  0  0
  -25.5239  -12.5831   20.6114 C   0  0  0  0  0  0  0  0  0  0  0  0
  -27.5463  -21.6150   22.9139 C   0  0  0  0  0  0  0  0  0  0  0  0
  -23.2793  -12.0781   21.5886 C   0  0  0  0  0  0  0  0  0  0  0  0
  -21.7279  -29.0399   23.4050 C   0  0  0  0  0  0  0  0  0  0  0  0
  -20.3799  -27.9229   26.1358 C   0  0  0  0  0  0  0  0  0  0  0  0
  -20.0182  -25.3470   28.3451 C   0  0  0  0  0  0  0  0  0  0  0  0
  -30.7009  -15.2380   20.3505 C   0  0  0  0  0  0  0  0  0  0  0  0
  -20.9270  -32.8810   20.1397 C   0  0  0  0  0  0  0  0  0  0  0  0
  -20.7307  -26.8616   22.6195 C   0  0  0  0  0  0  0  0  0  0  0  0
  -22.2366  -26.5327   25.1432 C   0  0  0  0  0  0  0  0  0  0  0  0
  -20.6280  -32.6210   21.6139 C   0  0  0  0  0  0  0  0  0  0  0  0
  -28.9314  -13.9418   17.5519 C   0  0  0  0  0  0  0  0  0  0  0  0
  -21.8734  -32.1062   22.3285 C   0  0  0  0  0  0  0  0  0  0  0  0
  -27.5269  -13.7762   18.1311 C   0  0  0  0  0  0  0  0  0  0  0  0
  -29.6090  -15.2190   18.0496 C   0  0  0  0  0  0  0  0  0  0  0  0
  -28.2303  -15.1841   20.1045 C   0  0  0  0  0  0  0  0  0  0  0  0
  -28.1574  -22.0786   20.9515 C   0  0  0  0  0  0  0  0  0  0  0  0
  -22.3420  -30.7743   21.7300 C   0  0  1  0  0  0  0  0  0  0  0  0
  -20.7420  -27.9437   23.6949 C   0  0  1  0  0  0  0  0  0  0  0  0
  -27.5470  -13.8793   19.6664 C   0  0  1  0  0  0  0  0  0  0  0  0
  -27.3612  -22.8790   22.0256 C   0  0  2  0  0  0  0  0  0  0  0  0
  -28.0768  -24.1162   22.5565 C   0  0  0  0  0  0  0  0  0  0  0  0
  -19.1192  -24.0767   30.3137 C   0  0  0  0  0  0  0  0  0  0  0  0
  -22.4366  -29.5683   27.6760 C   0  0  0  0  0  0  0  0  0  0  0  0
  -21.8885  -28.2187   29.7123 C   0  0  0  0  0  0  0  0  0  0  0  0
  -20.1280  -29.6206   28.6363 C   0  0  0  0  0  0  0  0  0  0  0  0
  -31.3262  -15.4051   22.7497 C   0  0  0  0  0  0  0  0  0  0  0  0
  -17.8010  -24.2115   26.7471 C   0  0  0  0  0  0  0  0  0  0  0  0
  -25.9176  -23.1645   21.6593 C   0  0  0  0  0  0  0  0  0  1  0  0
  -20.8985  -27.5030   27.4900 C   0  0  1  0  0  0  0  0  0  0  0  0
  -18.7853  -24.7326   28.9828 C   0  0  2  0  0  0  0  0  0  0  0  0
  -21.3467  -28.7149   28.3547 C   0  0  0  0  0  0  0  0  0  0  0  0
  -25.4283  -14.8460   20.4775 N   0  0  0  0  0  0  0  0  0  0  0  0
  -26.1571  -13.7383   20.2582 N   0  0  0  0  0  0  0  0  0  0  0  0
  -28.2316  -20.9911   21.9207 N   0  0  0  0  0  0  0  0  0  0  0  0
  -21.0664  -27.4178   25.0225 N   0  0  0  0  0  0  0  0  0  0  0  0
  -29.5679  -15.2928   19.5169 N   0  0  0  0  0  0  0  0  0  0  0  0
  -26.1134  -11.3785   20.4575 N   0  0  0  0  0  0  0  0  0  0  0  0
  -22.0773  -12.6332   22.0483 N   0  0  0  0  0  0  0  0  0  0  0  0
  -21.5119  -29.6876   22.2036 N   0  0  0  0  0  0  0  0  0  0  0  0
  -19.8478  -26.6924   28.0961 N   0  0  0  0  0  0  0  0  0  0  0  0
  -30.5974  -15.9165   21.5839 N   0  0  0  0  0  0  0  0  0  0  0  0
  -18.1975  -23.6993   28.0840 N   0  3  0  0  0  0  0  0  0  0  0  0
  -27.2296  -21.2793   24.0324 O   0  0  0  0  0  0  0  0  0  0  0  0
  -23.4389  -10.8348   21.6356 O   0  0  0  0  0  0  0  0  0  0  0  0
  -22.6178  -29.2812   24.2122 O   0  0  0  0  0  0  0  0  0  0  0  0
  -19.3974  -28.6656   26.0682 O   0  0  0  0  0  0  0  0  0  0  0  0
  -21.0326  -24.6991   28.0963 O   0  0  0  0  0  0  0  0  0  0  0  0
  -31.7169  -14.6097   20.0295 O   0  0  0  0  0  0  0  0  0  0  0  0
  -20.1698  -17.8526   22.4415 O   0  0  0  0  0  0  0  0  0  0  0  0
  -25.1706  -23.3515   22.8607 O   0  0  0  0  0  0  0  0  0  1  0  0
  -21.5303  -22.3833   25.2746 F   0  0  0  0  0  0  0  0  0  0  0  0
  -19.1291  -18.3162   24.9604 F   0  0  0  0  0  0  0  0  0  0  0  0
  1  2  1  0  0  0  0
  1  5  2  0  0  0  0
  2  6  2  0  0  0  0
  3 12  2  0  0  0  0
  3 19  1  0  0  0  0
  4 13  1  0  0  0  0
  4 19  2  0  0  0  0
  5 21  1  0  0  0  0
  6 23  1  0  0  0  0
  7 14  2  0  0  0  0
  7 22  1  0  0  0  0
  8 10  2  0  0  0  0
  8 25  1  0  0  0  0
  9 11  1  0  0  0  0
  9 25  2  0  0  0  0
 10 26  1  0  0  0  0
 11 26  2  0  0  0  0
 12 27  1  0  0  0  0
 13 27  2  0  0  0  0
 14 28  1  0  0  0  0
 15 16  2  0  0  0  0
 15 29  1  0  0  0  0
 16 30  1  0  0  0  0
 17 24  1  0  0  0  0
 17 28  2  0  0  0  0
 18 30  2  0  0  0  0
 18 31  1  0  0  0  0
 19 32  1  0  0  0  0
 20 32  1  0  0  0  0
 20 33  2  0  0  0  0
 20 35  1  0  0  0  0
 21 23  2  0  0  0  0
 21 40  1  0  0  0  0
 22 24  2  0  0  0  0
 22 41  1  0  0  0  0
 23 50  1  0  0  0  0
 24 42  1  0  0  0  0
 25 67  1  0  0  0  0
 26 74  1  0  0  0  0
 27 82  1  0  0  0  0
 28 83  1  0  0  0  0
 29 31  2  0  0  0  0
 29 82  1  0  0  0  0
 30 84  1  0  0  0  0
 31 85  1  0  0  0  0
 32 65  2  0  0  0  0
 33 66  1  0  0  0  0
 33 70  1  0  0  0  0
 34 53  1  0  0  0  0
 34 67  1  0  0  0  0
 34 76  2  0  0  0  0
 35 71  1  0  0  0  0
 35 77  2  0  0  0  0
 36 51  1  0  0  0  0
 36 72  1  0  0  0  0
 36 78  2  0  0  0  0
 37 62  1  0  0  0  0
 37 68  1  0  0  0  0
 37 79  2  0  0  0  0
 38 63  1  0  0  0  0
 38 73  1  0  0  0  0
 38 80  2  0  0  0  0
 39 69  1  0  0  0  0
 39 74  1  0  0  0  0
 39 81  2  0  0  0  0
 40 43  1  0  0  0  0
 41 51  1  0  0  0  0
 42 68  1  0  0  0  0
 43 45  1  0  0  0  0
 44 46  1  0  0  0  0
 44 47  1  0  0  0  0
 45 50  1  0  0  0  0
 46 52  1  0  0  0  0
 47 69  1  0  0  0  0
 48 52  1  0  0  0  0
 48 69  1  0  0  0  0
 49 53  1  0  0  0  0
 49 67  1  0  0  0  0
 50 72  1  0  0  0  0
 51 68  1  0  0  0  0
 52 66  1  0  0  0  0
 53 54  1  0  0  0  0
 53 61  1  0  0  0  0
 55 63  1  0  0  0  0
 56 64  1  0  0  0  0
 57 64  1  0  0  0  0
 58 64  1  0  0  0  0
 59 74  1  0  0  0  0
 60 75  1  0  0  0  0
 61 83  1  0  0  0  0
 62 64  1  0  0  0  0
 62 73  1  0  0  0  0
 63 75  1  0  0  0  0
 65 66  1  0  0  0  0
M  CHG  1  75   1
M  ISO  4  39 100  61 101  74 100  83 101
M  END
> <Batch ID>
0075

> <Smiles>
CNC(C)C(=O)NC(C(=O)N1Cc2cc([101O:1][101CH2:1]C3(C)CN(c4ccc([100N:0](C)[100C:0](=O)N5CCCC(n6nc(-c7ccc(Oc8ccc(F)cc8F)cc7)c(C(N)=O)c6N)C5)cc4)C3=O)ccc2CC1C(=O)NC1CCCc2ccccc21)C(C)(C)C

> <Shape>
0.173

> <Color>
0.102

> <Negative vol penalty>
0.000

$$$$

  -OEChem-04042323473D

 84 93  0     1  0  0  0  0  0999 V2000
  -24.6310  -38.1222   19.0893 C   0  0  0  0  0  0  0  0  0  0  0  0
  -24.7058  -36.9740   18.3074 C   0  0  0  0  0  0  0  0  0  0  0  0
  -24.7386   -8.7600   21.4621 C   0  0  0  0  0  0  0  0  0  0  0  0
  -23.1932  -10.5842   21.1143 C   0  0  0  0  0  0  0  0  0  0  0  0
  -25.1629  -38.1225   20.3781 C   0  0  0  0  0  0  0  0  0  0  0  0
  -25.3135  -35.8255   18.8136 C   0  0  0  0  0  0  0  0  0  0  0  0
  -24.8847  -28.6817   18.4995 C   0  0  0  0  0  0  0  0  0  0  0  0
  -23.8801   -8.2147   22.4168 C   0  0  0  0  0  0  0  0  0  0  0  0
  -22.3347  -10.0390   22.0689 C   0  0  0  0  0  0  0  0  0  0  0  0
  -25.6823  -27.5646   18.2554 C   0  0  0  0  0  0  0  0  0  0  0  0
  -21.9278   -6.1507   24.6847 C   0  0  0  0  0  0  0  0  0  0  0  0
  -21.6863   -4.7780   24.6311 C   0  0  0  0  0  0  0  0  0  0  0  0
  -26.4958  -27.6569   20.5245 C   0  0  0  0  0  0  0  0  0  0  0  0
  -28.0688  -19.0300   19.3460 C   0  0  0  0  0  0  0  0  0  0  0  0
  -20.7874   -5.0233   22.4019 C   0  0  0  0  0  0  0  0  0  0  0  0
  -25.9526  -18.3392   19.2012 C   0  0  0  0  0  0  0  0  0  0  0  0
  -24.3952   -9.9448   20.8109 C   0  0  0  0  0  0  0  0  0  0  0  0
  -25.2886  -10.2509   18.4412 C   0  0  0  0  0  0  0  0  0  0  0  0
  -25.7687  -36.9705   20.9039 C   0  0  0  0  0  0  0  0  0  0  0  0
  -24.8949  -29.3025   19.7569 C   0  0  0  0  0  0  0  0  0  0  0  0
  -25.8551  -35.8108   20.1102 C   0  0  0  0  0  0  0  0  0  0  0  0
  -25.6955  -28.7802   20.7828 C   0  0  0  0  0  0  0  0  0  0  0  0
  -27.2345  -17.8888   19.4153 C   0  0  0  0  0  0  0  0  0  0  0  0
  -22.6782   -8.8542   22.7202 C   0  0  0  0  0  0  0  0  0  0  0  0
  -26.4901  -27.0537   19.2670 C   0  0  0  0  0  0  0  0  0  0  0  0
  -21.5990   -6.9598   23.5970 C   0  0  0  0  0  0  0  0  0  0  0  0
  -21.1161   -4.2143   23.4897 C   0  0  0  0  0  0  0  0  0  0  0  0
  -21.0288   -6.3960   22.4556 C   0  0  0  0  0  0  0  0  0  0  0  0
  -25.2818  -10.5088   19.8251 C   0  0  0  0  0  0  0  0  0  0  0  0
  -26.3120  -11.0258   17.9526 C   0  0  0  0  0  0  0  0  0  0  0  0
  -27.2373  -20.0964   19.0942 C   0  0  0  0  0  0  0  0  0  0  0  0
  -27.3137  -23.6607   18.3953 C   0  0  0  0  0  0  0  0  0  0  0  0
  -26.6237  -22.5328   18.6678 C   0  0  0  0  0  0  0  0  0  0  0  0
  -28.7414  -23.3741   18.4745 C   0  0  0  0  0  0  0  0  0  0  0  0
  -29.7597  -24.2065   18.2318 C   0  0  0  0  0  0  0  0  0  0  0  0
  -24.4452   -9.3882   17.6666 C   0  0  0  0  0  0  0  0  0  0  0  0
  -25.6835  -32.1900   20.8266 C   0  0  0  0  0  0  0  0  0  0  0  0
  -24.5077  -31.0468   23.6254 C   0  0  0  0  0  0  0  0  0  0  0  0
  -23.7787  -28.3397   25.5713 C   0  0  0  0  0  0  0  0  0  0  0  0
  -28.9004  -16.0561   19.8761 C   0  0  0  0  0  0  0  0  0  0  0  0
  -26.3715  -37.0332   22.2850 C   0  0  0  0  0  0  0  0  0  0  0  0
  -24.0087  -30.4907   20.0122 C   0  0  0  0  0  0  0  0  0  0  0  0
  -25.7273  -29.3977   22.1562 C   0  0  0  0  0  0  0  0  0  0  0  0
  -28.8940  -21.9299   18.8978 C   0  0  0  0  0  0  0  0  0  0  0  0
  -26.6653  -35.6604   22.8843 C   0  0  0  0  0  0  0  0  0  0  0  0
  -30.5060  -12.9410   19.2475 C   0  0  0  0  0  0  0  0  0  0  0  0
  -27.3691  -34.7718   21.8636 C   0  0  0  0  0  0  0  0  0  0  0  0
  -29.3486  -11.9412   19.1923 C   0  0  0  0  0  0  0  0  0  0  0  0
  -30.2692  -14.0253   20.2972 C   0  0  0  0  0  0  0  0  0  0  0  0
  -27.8291  -13.7313   20.1271 C   0  0  0  0  0  0  0  0  0  0  0  0
  -26.4845  -34.5377   20.6330 C   0  0  1  0  0  0  0  0  0  0  0  0
  -24.4860  -31.3528   21.1768 C   0  0  1  0  0  0  0  0  0  0  0  0
  -27.9923  -12.6572   19.0393 C   0  0  2  0  0  0  0  0  0  0  0  0
  -25.1390  -22.4368   18.8010 C   0  0  0  0  0  0  0  0  0  0  0  0
  -22.8612  -27.7227   27.8241 C   0  0  0  0  0  0  0  0  0  0  0  0
  -27.1522  -31.8483   24.9193 C   0  0  0  0  0  0  0  0  0  0  0  0
  -26.5639  -30.3855   26.8641 C   0  0  0  0  0  0  0  0  0  0  0  0
  -25.1245  -32.3425   26.2973 C   0  0  0  0  0  0  0  0  0  0  0  0
  -21.5206  -26.8491   24.3721 C   0  0  0  0  0  0  0  0  0  0  0  0
  -26.7952  -25.0208   18.0711 C   0  0  0  0  0  0  0  0  0  1  0  0
  -25.0873  -30.3027   24.8040 C   0  0  1  0  0  0  0  0  0  0  0  0
  -22.5348  -27.9715   26.3597 C   0  0  2  0  0  0  0  0  0  0  0  0
  -25.9831  -31.2090   25.6948 C   0  0  0  0  0  0  0  0  0  0  0  0
  -26.2261  -11.3793   20.1921 N   0  0  0  0  0  0  0  0  0  0  0  0
  -26.8358  -11.6751   19.0315 N   0  0  0  0  0  0  0  0  0  0  0  0
  -27.4957  -21.4687   18.9240 N   0  0  0  0  0  0  0  0  0  0  0  0
  -24.8478  -30.5616   22.3547 N   0  0  0  0  0  0  0  0  0  0  0  0
  -28.9675  -14.6627   20.0870 N   0  0  0  0  0  0  0  0  0  0  0  0
  -26.8060  -11.2082   16.7095 N   0  0  0  0  0  0  0  0  0  0  0  0
  -23.4432   -8.6643   18.3271 N   0  0  0  0  0  0  0  0  0  0  0  0
  -27.6131  -16.5446   19.6553 N   0  0  0  0  0  0  0  0  0  0  0  0
  -25.4661  -33.5512   20.9230 N   0  0  0  0  0  0  0  0  0  0  0  0
  -23.9563  -29.7055   25.5060 N   0  0  0  0  0  0  0  0  0  0  0  0
  -21.9134  -26.7377   25.8005 N   0  3  0  0  0  0  0  0  0  0  0  0
  -24.5868   -9.2504   16.4279 O   0  0  0  0  0  0  0  0  0  0  0  0
  -26.7280  -31.6415   20.4950 O   0  0  0  0  0  0  0  0  0  0  0  0
  -23.7743  -32.0184   23.8249 O   0  0  0  0  0  0  0  0  0  0  0  0
  -24.5208  -27.4996   25.0673 O   0  0  0  0  0  0  0  0  0  0  0  0
  -29.9135  -16.7600   19.8633 O   0  0  0  0  0  0  0  0  0  0  0  0
  -25.9457  -19.6838   19.0044 O   0  0  0  0  0  0  0  0  0  0  0  0
  -21.8401   -8.3223   23.6515 O   0  0  0  0  0  0  0  0  0  0  0  0
  -27.2701  -25.9638   19.0312 O   0  0  0  0  0  0  0  0  0  1  0  0
  -20.8857   -2.8958   23.4377 F   0  0  0  0  0  0  0  0  0  0  0  0
  -20.7120   -7.1680   21.4070 F   0  0  0  0  0  0  0  0  0  0  0  0
  1  2  1  0  0  0  0
  1  5  2  0  0  0  0
  2  6  2  0  0  0  0
  3  8  2  0  0  0  0
  3 17  1  0  0  0  0
  4  9  1  0  0  0  0
  4 17  2  0  0  0  0
  5 19  1  0  0  0  0
  6 21  1  0  0  0  0
  7 10  2  0  0  0  0
  7 20  1  0  0  0  0
  8 24  1  0  0  0  0
  9 24  2  0  0  0  0
 10 25  1  0  0  0  0
 11 12  2  0  0  0  0
 11 26  1  0  0  0  0
 12 27  1  0  0  0  0
 13 22  1  0  0  0  0
 13 25  2  0  0  0  0
 14 23  1  0  0  0  0
 14 31  2  0  0  0  0
 15 27  2  0  0  0  0
 15 28  1  0  0  0  0
 16 23  2  0  0  0  0
 16 80  1  0  0  0  0
 17 29  1  0  0  0  0
 18 29  1  0  0  0  0
 18 30  2  0  0  0  0
 18 36  1  0  0  0  0
 19 21  2  0  0  0  0
 19 41  1  0  0  0  0
 20 22  2  0  0  0  0
 20 42  1  0  0  0  0
 21 51  1  0  0  0  0
 22 43  1  0  0  0  0
 23 71  1  0  0  0  0
 24 81  1  0  0  0  0
 25 82  1  0  0  0  0
 26 28  2  0  0  0  0
 26 81  1  0  0  0  0
 27 83  1  0  0  0  0
 28 84  1  0  0  0  0
 29 64  2  0  0  0  0
 30 65  1  0  0  0  0
 30 69  1  0  0  0  0
 31 66  1  0  0  0  0
 31 80  1  0  0  0  0
 32 33  2  0  0  0  0
 32 34  1  0  0  0  0
 32 60  1  0  0  0  0
 33 54  1  0  0  0  0
 33 66  1  0  0  0  0
 34 35  2  0  0  0  0
 34 44  1  0  0  0  0
 36 70  1  0  0  0  0
 36 75  2  0  0  0  0
 37 52  1  0  0  0  0
 37 72  1  0  0  0  0
 37 76  2  0  0  0  0
 38 61  1  0  0  0  0
 38 67  1  0  0  0  0
 38 77  2  0  0  0  0
 39 62  1  0  0  0  0
 39 73  1  0  0  0  0
 39 78  2  0  0  0  0
 40 68  1  0  0  0  0
 40 71  1  0  0  0  0
 40 79  2  0  0  0  0
 41 45  1  0  0  0  0
 42 52  1  0  0  0  0
 43 67  1  0  0  0  0
 44 66  1  0  0  0  0
 45 47  1  0  0  0  0
 46 48  1  0  0  0  0
 46 49  1  0  0  0  0
 47 51  1  0  0  0  0
 48 53  1  0  0  0  0
 49 68  1  0  0  0  0
 50 53  1  0  0  0  0
 50 68  1  0  0  0  0
 51 72  1  0  0  0  0
 52 67  1  0  0  0  0
 53 65  1  0  0  0  0
 55 62  1  0  0  0  0
 56 63  1  0  0  0  0
 57 63  1  0  0  0  0
 58 63  1  0  0  0  0
 59 74  1  0  0  0  0
 60 82  1  0  0  0  0
 61 63  1  0  0  0  0
 61 73  1  0  0  0  0
 62 74  1  0  0  0  0
 64 65  1  0  0  0  0
M  CHG  1  74   1
M  ISO  4  40 100  60 101  71 100  82 101
M  END
> <Batch ID>
0075

> <Smiles>
C=C1CN(c2cc([100NH:0][100C:0](=O)N3CCCC(n4nc(-c5ccc(Oc6ccc(F)cc6F)cc5)c(C(N)=O)c4N)C3)co2)C(C)=C1[101CH2:1][101O:1]c1ccc2c(c1)CN(C(=O)C(NC(=O)C(C)NC)C(C)(C)C)C(C(=O)NC1CCCc3ccccc31)C2

> <Shape>
0.283

> <Color>
0.128

> <Negative vol penalty>
0.000

$$$$

  -OEChem-04042323473D

 84 92  0     1  0  0  0  0  0999 V2000
  -27.3180  -36.6109   19.4211 C   0  0  0  0  0  0  0  0  0  0  0  0
  -27.7488  -35.4348   20.0268 C   0  0  0  0  0  0  0  0  0  0  0  0
  -24.5363   -9.3518   21.6097 C   0  0  0  0  0  0  0  0  0  0  0  0
  -24.1692  -10.8619   23.4595 C   0  0  0  0  0  0  0  0  0  0  0  0
  -26.1480  -21.1532   20.4481 C   0  0  0  0  0  0  0  0  0  0  0  0
  -28.5129  -21.4264   20.8604 C   0  0  0  0  0  0  0  0  0  0  0  0
  -26.0233  -37.0762   19.6471 C   0  0  0  0  0  0  0  0  0  0  0  0
  -26.8854  -34.7240   20.8596 C   0  0  0  0  0  0  0  0  0  0  0  0
  -26.9815  -29.7415   19.9592 C   0  0  0  0  0  0  0  0  0  0  0  0
  -26.3429  -19.7888   20.2342 C   0  0  0  0  0  0  0  0  0  0  0  0
  -28.7078  -20.0619   20.6466 C   0  0  0  0  0  0  0  0  0  0  0  0
  -24.1832   -8.2730   22.4203 C   0  0  0  0  0  0  0  0  0  0  0  0
  -23.8160   -9.7831   24.2701 C   0  0  0  0  0  0  0  0  0  0  0  0
  -28.0590  -29.0221   20.4742 C   0  0  0  0  0  0  0  0  0  0  0  0
  -21.3422   -6.8631   23.5927 C   0  0  0  0  0  0  0  0  0  0  0  0
  -20.4748   -5.9092   23.0607 C   0  0  0  0  0  0  0  0  0  0  0  0
  -26.6820  -28.2885   22.3140 C   0  0  0  0  0  0  0  0  0  0  0  0
  -22.1593   -4.2051   23.3694 C   0  0  0  0  0  0  0  0  0  0  0  0
  -24.5294  -10.6462   22.1293 C   0  0  0  0  0  0  0  0  0  0  0  0
  -27.2330  -21.9721   20.7612 C   0  0  0  0  0  0  0  0  0  0  0  0
  -24.0381  -12.5373   20.4891 C   0  0  0  0  0  0  0  0  0  0  0  0
  -25.1404  -36.3655   20.4754 C   0  0  0  0  0  0  0  0  0  0  0  0
  -25.7472  -29.7487   20.6247 C   0  0  0  0  0  0  0  0  0  0  0  0
  -25.5781  -35.1809   21.0979 C   0  0  0  0  0  0  0  0  0  0  0  0
  -25.5897  -29.0068   21.8040 C   0  0  0  0  0  0  0  0  0  0  0  0
  -27.6228  -19.2431   20.3334 C   0  0  0  0  0  0  0  0  0  0  0  0
  -23.8230   -8.4886   23.7505 C   0  0  0  0  0  0  0  0  0  0  0  0
  -27.9102  -28.2978   21.6533 C   0  0  0  0  0  0  0  0  0  0  0  0
  -22.6183   -6.4881   24.0130 C   0  0  0  0  0  0  0  0  0  0  0  0
  -20.8833   -4.5802   22.9491 C   0  0  0  0  0  0  0  0  0  0  0  0
  -23.0268   -5.1591   23.9014 C   0  0  0  0  0  0  0  0  0  0  0  0
  -24.8946  -11.7610   21.2926 C   0  0  0  0  0  0  0  0  0  0  0  0
  -24.8651  -13.4620   19.8995 C   0  0  0  0  0  0  0  0  0  0  0  0
  -27.0255  -23.4255   20.9888 C   0  0  0  0  0  0  0  0  0  0  0  0
  -22.6217  -12.4321   20.2934 C   0  0  0  0  0  0  0  0  0  0  0  0
  -23.9420  -31.9872   21.9790 C   0  0  0  0  0  0  0  0  0  0  0  0
  -21.8355  -29.5417   22.3019 C   0  0  0  0  0  0  0  0  0  0  0  0
  -21.3140  -26.1755   22.5114 C   0  0  0  0  0  0  0  0  0  0  0  0
  -29.0231  -17.1549   20.1758 C   0  0  0  0  0  0  0  0  0  0  0  0
  -23.7658  -36.9329   20.7273 C   0  0  0  0  0  0  0  0  0  0  0  0
  -24.5871  -30.5082   20.0419 C   0  0  0  0  0  0  0  0  0  0  0  0
  -24.2796  -28.9654   22.5459 C   0  0  0  0  0  0  0  0  0  0  0  0
  -22.7900  -35.9226   21.3251 C   0  0  0  0  0  0  0  0  0  0  0  0
  -29.9170  -13.7359   19.7412 C   0  0  0  0  0  0  0  0  0  0  0  0
  -23.4451  -35.1636   22.4747 C   0  0  0  0  0  0  0  0  0  0  0  0
  -28.6196  -12.9812   20.0400 C   0  0  0  0  0  0  0  0  0  0  0  0
  -30.0836  -14.9569   20.6441 C   0  0  0  0  0  0  0  0  0  0  0  0
  -27.6454  -15.1268   20.9534 C   0  0  0  0  0  0  0  0  0  0  0  0
  -24.6628  -34.3686   21.9881 C   0  0  1  0  0  0  0  0  0  0  0  0
  -23.5233  -30.8608   21.0769 C   0  0  1  0  0  0  0  0  0  0  0  0
  -27.4018  -13.9259   20.0250 C   0  0  2  0  0  0  0  0  0  0  0  0
  -19.4886  -24.4798   22.8109 C   0  0  0  0  0  0  0  0  0  0  0  0
  -21.6990  -30.2171   25.2743 C   0  0  0  0  0  0  0  0  0  0  0  0
  -20.6557  -27.9749   25.6646 C   0  0  0  0  0  0  0  0  0  0  0  0
  -19.4972  -29.6549   24.2301 C   0  0  0  0  0  0  0  0  0  0  0  0
  -30.3423  -25.6817   22.4315 C   0  0  0  0  0  0  0  0  0  0  0  0
  -29.3143  -26.2287   20.2134 C   0  0  0  0  0  0  0  0  0  0  0  0
  -21.8820  -24.9297   19.8877 C   0  0  0  0  0  0  0  0  0  0  0  0
  -27.8624  -25.4466   22.1595 C   0  0  0  0  0  0  0  0  0  0  0  0
  -21.5662  -28.4947   23.3555 C   0  0  1  0  0  0  0  0  0  0  0  0
  -20.3230  -25.2642   21.8102 C   0  0  2  0  0  0  0  0  0  0  0  0
  -20.8799  -29.0875   24.6184 C   0  0  0  0  0  0  0  0  0  0  0  0
  -29.1033  -26.2419   21.7291 C   0  0  0  0  0  0  0  0  0  1  0  0
  -26.1680  -12.1578   21.2220 N   0  0  0  0  0  0  0  0  0  0  0  0
  -26.1178  -13.1935   20.3671 N   0  0  0  0  0  0  0  0  0  0  0  0
  -23.1768  -29.7293   21.9394 N   0  0  0  0  0  0  0  0  0  0  0  0
  -28.8936  -15.8079   20.5753 N   0  0  0  0  0  0  0  0  0  0  0  0
  -24.6356  -14.4703   19.0317 N   0  0  0  0  0  0  0  0  0  0  0  0
  -21.9258  -11.4253   20.9763 N   0  0  0  0  0  0  0  0  0  0  0  0
  -27.8196  -17.8568   20.1162 N   0  0  0  0  0  0  0  0  0  0  0  0
  -27.9439  -24.0498   21.8235 N   0  0  0  0  0  0  0  0  0  0  0  0
  -24.2405  -33.1604   21.3126 N   0  0  0  0  0  0  0  0  0  0  0  0
  -20.8002  -27.4414   22.6980 N   0  0  0  0  0  0  0  0  0  0  0  0
  -21.0404  -24.2950   20.9345 N   0  3  0  0  0  0  0  0  0  0  0  0
  -26.0682  -23.9849   20.4604 O   0  0  0  0  0  0  0  0  0  0  0  0
  -21.9943  -13.1976   19.5227 O   0  0  0  0  0  0  0  0  0  0  0  0
  -23.9893  -31.8058   23.1900 O   0  0  0  0  0  0  0  0  0  0  0  0
  -20.8898  -30.1650   21.8132 O   0  0  0  0  0  0  0  0  0  0  0  0
  -22.4308  -25.8008   22.8622 O   0  0  0  0  0  0  0  0  0  0  0  0
  -30.1174  -17.6418   19.8801 O   0  0  0  0  0  0  0  0  0  0  0  0
  -23.4781   -7.4362   24.5417 O   0  0  0  0  0  0  0  0  0  0  0  0
  -28.9604  -27.5952   22.1585 O   0  0  0  0  0  0  0  0  0  1  0  0
  -20.0495   -3.6639   22.4396 F   0  0  0  0  0  0  0  0  0  0  0  0
  -24.2511   -4.7925   24.3046 F   0  0  0  0  0  0  0  0  0  0  0  0
  1  2  1  0  0  0  0
  1  7  2  0  0  0  0
  2  8  2  0  0  0  0
  3 12  2  0  0  0  0
  3 19  1  0  0  0  0
  4 13  1  0  0  0  0
  4 19  2  0  0  0  0
  5 10  2  0  0  0  0
  5 20  1  0  0  0  0
  6 11  1  0  0  0  0
  6 20  2  0  0  0  0
  7 22  1  0  0  0  0
  8 24  1  0  0  0  0
  9 14  2  0  0  0  0
  9 23  1  0  0  0  0
 10 26  1  0  0  0  0
 11 26  2  0  0  0  0
 12 27  1  0  0  0  0
 13 27  2  0  0  0  0
 14 28  1  0  0  0  0
 15 16  2  0  0  0  0
 15 29  1  0  0  0  0
 16 30  1  0  0  0  0
 17 25  1  0  0  0  0
 17 28  2  0  0  0  0
 18 30  2  0  0  0  0
 18 31  1  0  0  0  0
 19 32  1  0  0  0  0
 20 34  1  0  0  0  0
 21 32  1  0  0  0  0
 21 33  2  0  0  0  0
 21 35  1  0  0  0  0
 22 24  2  0  0  0  0
 22 40  1  0  0  0  0
 23 25  2  0  0  0  0
 23 41  1  0  0  0  0
 24 49  1  0  0  0  0
 25 42  1  0  0  0  0
 26 70  1  0  0  0  0
 27 81  1  0  0  0  0
 28 82  1  0  0  0  0
 29 31  2  0  0  0  0
 29 81  1  0  0  0  0
 30 83  1  0  0  0  0
 31 84  1  0  0  0  0
 32 64  2  0  0  0  0
 33 65  1  0  0  0  0
 33 68  1  0  0  0  0
 34 71  1  0  0  0  0
 34 75  2  0  0  0  0
 35 69  1  0  0  0  0
 35 76  2  0  0  0  0
 36 50  1  0  0  0  0
 36 72  1  0  0  0  0
 36 77  2  0  0  0  0
 37 60  1  0  0  0  0
 37 66  1  0  0  0  0
 37 78  2  0  0  0  0
 38 61  1  0  0  0  0
 38 73  1  0  0  0  0
 38 79  2  0  0  0  0
 39 67  1  0  0  0  0
 39 70  1  0  0  0  0
 39 80  2  0  0  0  0
 40 43  1  0  0  0  0
 41 50  1  0  0  0  0
 42 66  1  0  0  0  0
 43 45  1  0  0  0  0
 44 46  1  0  0  0  0
 44 47  1  0  0  0  0
 45 49  1  0  0  0  0
 46 51  1  0  0  0  0
 47 67  1  0  0  0  0
 48 51  1  0  0  0  0
 48 67  1  0  0  0  0
 49 72  1  0  0  0  0
 50 66  1  0  0  0  0
 51 65  1  0  0  0  0
 52 61  1  0  0  0  0
 53 62  1  0  0  0  0
 54 62  1  0  0  0  0
 55 62  1  0  0  0  0
 56 63  1  0  0  0  0
 57 63  1  0  0  0  0
 58 74  1  0  0  0  0
 59 63  1  0  0  0  0
 59 71  1  0  0  0  0
 60 62  1  0  0  0  0
 60 73  1  0  0  0  0
 61 74  1  0  0  0  0
 63 82  1  0  0  0  0
 64 65  1  0  0  0  0
M  CHG  1  74   1
M  ISO  4  39 100  63 101  70 100  82 101
M  END
> <Batch ID>
0075

> <Smiles>
CNC(C)C(=O)NC(C(=O)N1Cc2cc([101O:1][101C:1](C)(C)CNC(=O)c3ccc([100NH:0][100C:0](=O)N4CCCC(n5nc(-c6ccc(Oc7ccc(F)cc7F)cc6)c(C(N)=O)c5N)C4)cc3)ccc2CC1C(=O)NC1CCCc2ccccc21)C(C)(C)C

> <Shape>
0.291

> <Color>
0.095

> <Negative vol penalty>
0.000

$$$$

  -OEChem-04042323473D

 86 94  0     1  0  0  0  0  0999 V2000
  -26.6221  -19.4854   17.7526 C   0  0  0  0  0  0  0  0  0  0  0  0
  -27.6083  -19.9685   18.6066 C   0  0  0  0  0  0  0  0  0  0  0  0
  -23.0018   -9.8952   19.9787 C   0  0  0  0  0  0  0  0  0  0  0  0
  -23.7281   -9.9415   22.2825 C   0  0  0  0  0  0  0  0  0  0  0  0
  -32.6478  -17.4430   23.4651 C   0  0  0  0  0  0  0  0  0  0  0  0
  -30.4694  -18.3391   24.0021 C   0  0  0  0  0  0  0  0  0  0  0  0
  -26.5967  -19.8909   16.4188 C   0  0  0  0  0  0  0  0  0  0  0  0
  -28.5704  -20.8567   18.1271 C   0  0  0  0  0  0  0  0  0  0  0  0
  -29.3705  -24.7406   21.2767 C   0  0  0  0  0  0  0  0  0  0  0  0
  -32.0595  -16.5482   22.5714 C   0  0  0  0  0  0  0  0  0  0  0  0
  -29.8810  -17.4443   23.1083 C   0  0  0  0  0  0  0  0  0  0  0  0
  -22.2355   -8.7601   20.2431 C   0  0  0  0  0  0  0  0  0  0  0  0
  -22.9618   -8.8064   22.5469 C   0  0  0  0  0  0  0  0  0  0  0  0
  -30.1633  -24.4984   22.3977 C   0  0  0  0  0  0  0  0  0  0  0  0
  -23.2061   -5.4684   22.0679 C   0  0  0  0  0  0  0  0  0  0  0  0
  -23.7941   -4.4497   22.8176 C   0  0  0  0  0  0  0  0  0  0  0  0
  -32.0477  -25.5015   21.2744 C   0  0  0  0  0  0  0  0  0  0  0  0
  -22.0710   -4.6890   24.4942 C   0  0  0  0  0  0  0  0  0  0  0  0
  -23.7482  -10.4859   20.9984 C   0  0  0  0  0  0  0  0  0  0  0  0
  -31.8528  -18.3385   24.1805 C   0  0  0  0  0  0  0  0  0  0  0  0
  -24.1332  -13.0019   20.8275 C   0  0  0  0  0  0  0  0  0  0  0  0
  -27.5532  -20.7919   15.9251 C   0  0  0  0  0  0  0  0  0  0  0  0
  -29.9141  -25.3563   20.1401 C   0  0  0  0  0  0  0  0  0  0  0  0
  -28.5586  -21.2736   16.7851 C   0  0  0  0  0  0  0  0  0  0  0  0
  -31.2591  -25.7527   20.1412 C   0  0  0  0  0  0  0  0  0  0  0  0
  -30.6761  -16.5488   22.3930 C   0  0  0  0  0  0  0  0  0  0  0  0
  -22.2154   -8.2157   21.5271 C   0  0  0  0  0  0  0  0  0  0  0  0
  -31.5028  -24.8762   22.3956 C   0  0  0  0  0  0  0  0  0  0  0  0
  -22.0506   -6.0975   22.5314 C   0  0  0  0  0  0  0  0  0  0  0  0
  -23.2266   -4.0600   24.0307 C   0  0  0  0  0  0  0  0  0  0  0  0
  -21.4831   -5.7078   23.7445 C   0  0  0  0  0  0  0  0  0  0  0  0
  -24.5404  -11.6581   20.7258 C   0  0  0  0  0  0  0  0  0  0  0  0
  -25.2427  -13.7253   20.4640 C   0  0  0  0  0  0  0  0  0  0  0  0
  -32.4755  -19.2858   25.1267 C   0  0  0  0  0  0  0  0  0  0  0  0
  -22.8654  -13.5474   21.2157 C   0  0  0  0  0  0  0  0  0  0  0  0
  -30.3337  -24.4980   17.1084 C   0  0  0  0  0  0  0  0  0  0  0  0
  -31.3058  -27.5752   16.7789 C   0  0  0  0  0  0  0  0  0  0  0  0
  -32.5783  -30.3839   18.2413 C   0  0  0  0  0  0  0  0  0  0  0  0
  -30.7222  -14.6864   20.6973 C   0  0  0  0  0  0  0  0  0  0  0  0
  -27.5135  -21.1646   14.4642 C   0  0  0  0  0  0  0  0  0  0  0  0
  -29.0389  -25.6347   18.9489 C   0  0  0  0  0  0  0  0  0  0  0  0
  -31.8856  -26.4353   18.9537 C   0  0  0  0  0  0  0  0  0  0  0  0
  -28.3455  -22.3994   14.1277 C   0  0  0  0  0  0  0  0  0  0  0  0
  -29.6030  -12.2382   18.3668 C   0  0  0  0  0  0  0  0  0  0  0  0
  -29.7214  -22.3101   14.7803 C   0  0  0  0  0  0  0  0  0  0  0  0
  -28.1526  -11.9796   18.7811 C   0  0  0  0  0  0  0  0  0  0  0  0
  -30.5041  -12.4792   19.5766 C   0  0  0  0  0  0  0  0  0  0  0  0
  -28.5893  -13.2651   20.9128 C   0  0  0  0  0  0  0  0  0  0  0  0
  -29.6048  -22.2576   16.3084 C   0  0  1  0  0  0  0  0  0  0  0  0
  -29.8279  -25.8034   17.6542 C   0  0  1  0  0  0  0  0  0  0  0  0
  -27.6311  -13.0812   19.7246 C   0  0  2  0  0  0  0  0  0  0  0  0
  -33.2996  -32.7278   17.7090 C   0  0  0  0  0  0  0  0  0  0  0  0
  -31.9005  -21.8452   26.9331 C   0  0  0  0  0  0  0  0  0  0  0  0
  -33.8738  -26.4990   15.5312 C   0  0  0  0  0  0  0  0  0  0  0  0
  -34.9121  -28.7474   15.8984 C   0  0  0  0  0  0  0  0  0  0  0  0
  -32.9313  -28.5200   14.3992 C   0  0  0  0  0  0  0  0  0  0  0  0
  -33.8995  -23.9557   25.8191 C   0  0  0  0  0  0  0  0  0  0  0  0
  -34.2196  -22.5031   23.8229 C   0  0  0  0  0  0  0  0  0  0  0  0
  -30.5548  -31.5441   20.0630 C   0  0  0  0  0  0  0  0  0  0  0  0
  -31.9488  -23.5047   24.2866 C   0  0  0  0  0  0  0  0  0  1  0  0
  -32.6256  -28.2981   16.8991 C   0  0  1  0  0  0  0  0  0  0  0  0
  -32.1533  -31.8393   18.1665 C   0  0  2  0  0  0  0  0  0  0  0  0
  -32.8787  -21.6320   25.7820 C   0  0  2  0  0  0  0  0  0  0  0  0
  -33.5747  -28.0015   15.7038 C   0  0  0  0  0  0  0  0  0  0  0  0
  -33.2150  -22.8932   24.9320 C   0  0  0  0  0  0  0  0  0  0  0  0
  -25.8095  -11.5326   20.3288 N   0  0  0  0  0  0  0  0  0  0  0  0
  -26.2093  -12.8067   20.1776 N   0  0  0  0  0  0  0  0  0  0  0  0
  -30.9904  -26.6799   17.8108 N   0  0  0  0  0  0  0  0  0  0  0  0
  -29.9494  -13.5383   20.4224 N   0  0  0  0  0  0  0  0  0  0  0  0
  -25.4760  -15.0512   20.3646 N   0  0  0  0  0  0  0  0  0  0  0  0
  -33.1737  -18.7870   26.1468 N   0  0  0  0  0  0  0  0  0  0  0  0
  -21.8338  -12.6624   21.5579 N   0  0  0  0  0  0  0  0  0  0  0  0
  -30.0783  -15.6399   21.4851 N   0  0  0  0  0  0  0  0  0  0  0  0
  -29.3391  -23.5769   16.8407 N   0  0  0  0  0  0  0  0  0  0  0  0
  -32.3032  -29.7107   17.0698 N   0  0  0  0  0  0  0  0  0  0  0  0
  -32.3047  -20.5915   24.9122 N   0  3  0  0  0  0  0  0  0  0  0  0
  -31.6948  -32.3144   19.5026 N   0  3  0  0  0  0  0  0  0  0  0  0
  -22.6486  -14.7826   21.2422 O   0  0  0  0  0  0  0  0  0  0  0  0
  -31.5372  -24.3389   16.9412 O   0  0  0  0  0  0  0  0  0  0  0  0
  -30.5781  -27.8020   15.8090 O   0  0  0  0  0  0  0  0  0  0  0  0
  -33.1053  -29.8943   19.2378 O   0  0  0  0  0  0  0  0  0  0  0  0
  -31.8606  -14.8263   20.2430 O   0  0  0  0  0  0  0  0  0  0  0  0
  -21.4676   -7.1082   21.7855 O   0  0  0  0  0  0  0  0  0  0  0  0
  -32.2790  -24.6404   23.4882 O   0  0  0  0  0  0  0  0  0  1  0  0
  -23.7905   -3.0807   24.7498 F   0  0  0  0  0  0  0  0  0  0  0  0
  -20.3724   -6.3076   24.1943 F   0  0  0  0  0  0  0  0  0  0  0  0
  1  2  1  0  0  0  0
  1  7  2  0  0  0  0
  2  8  2  0  0  0  0
  3 12  2  0  0  0  0
  3 19  1  0  0  0  0
  4 13  1  0  0  0  0
  4 19  2  0  0  0  0
  5 10  2  0  0  0  0
  5 20  1  0  0  0  0
  6 11  1  0  0  0  0
  6 20  2  0  0  0  0
  7 22  1  0  0  0  0
  8 24  1  0  0  0  0
  9 14  2  0  0  0  0
  9 23  1  0  0  0  0
 10 26  1  0  0  0  0
 11 26  2  0  0  0  0
 12 27  1  0  0  0  0
 13 27  2  0  0  0  0
 14 28  1  0  0  0  0
 15 16  2  0  0  0  0
 15 29  1  0  0  0  0
 16 30  1  0  0  0  0
 17 25  1  0  0  0  0
 17 28  2  0  0  0  0
 18 30  2  0  0  0  0
 18 31  1  0  0  0  0
 19 32  1  0  0  0  0
 20 34  1  0  0  0  0
 21 32  1  0  0  0  0
 21 33  2  0  0  0  0
 21 35  1  0  0  0  0
 22 24  2  0  0  0  0
 22 40  1  0  0  0  0
 23 25  2  0  0  0  0
 23 41  1  0  0  0  0
 24 49  1  0  0  0  0
 25 42  1  0  0  0  0
 26 73  1  0  0  0  0
 27 83  1  0  0  0  0
 28 84  1  0  0  0  0
 29 31  2  0  0  0  0
 29 83  1  0  0  0  0
 30 85  1  0  0  0  0
 31 86  1  0  0  0  0
 32 66  2  0  0  0  0
 33 67  1  0  0  0  0
 33 70  1  0  0  0  0
 34 71  1  0  0  0  0
 34 76  2  0  0  0  0
 35 72  1  0  0  0  0
 35 78  2  0  0  0  0
 36 50  1  0  0  0  0
 36 74  1  0  0  0  0
 36 79  2  0  0  0  0
 37 61  1  0  0  0  0
 37 68  1  0  0  0  0
 37 80  2  0  0  0  0
 38 62  1  0  0  0  0
 38 75  1  0  0  0  0
 38 81  2  0  0  0  0
 39 69  1  0  0  0  0
 39 73  1  0  0  0  0
 39 82  2  0  0  0  0
 40 43  1  0  0  0  0
 41 50  1  0  0  0  0
 42 68  1  0  0  0  0
 43 45  1  0  0  0  0
 44 46  1  0  0  0  0
 44 47  1  0  0  0  0
 45 49  1  0  0  0  0
 46 51  1  0  0  0  0
 47 69  1  0  0  0  0
 48 51  1  0  0  0  0
 48 69  1  0  0  0  0
 49 74  1  0  0  0  0
 50 68  1  0  0  0  0
 51 67  1  0  0  0  0
 52 62  1  0  0  0  0
 53 63  1  0  0  0  0
 54 64  1  0  0  0  0
 55 64  1  0  0  0  0
 56 64  1  0  0  0  0
 57 65  1  0  0  0  0
 58 65  1  0  0  0  0
 59 77  1  0  0  0  0
 60 65  1  0  0  0  0
 60 84  1  0  0  0  0
 61 64  1  0  0  0  0
 61 75  1  0  0  0  0
 62 77  1  0  0  0  0
 63 65  1  0  0  0  0
 63 76  1  0  0  0  0
 66 67  1  0  0  0  0
M  CHG  2  76   1  77   1
M  ISO  4  39 100  60 101  73 100  84 101
M  END
> <Batch ID>
0075

> <Smiles>
CNC(C)C(=O)NC(C(=O)N1Cc2cc([101O:1][101CH2:1]C(C)(C)C(C)NC(=N)c3ccc([100NH:0][100C:0](=O)N4CCCC(n5nc(-c6ccc(Oc7ccc(F)cc7F)cc6)c(C(N)=O)c5N)C4)cc3)ccc2CC1C(=O)NC1CCCc2ccccc21)C(C)(C)C

> <Shape>
0.231

> <Color>
0.189

> <Negative vol penalty>
0.000

$$$$

  -OEChem-04042323473D

 86 95  0     1  0  0  0  0  0999 V2000
  -21.5038   -8.6259   18.0478 C   0  0  0  0  0  0  0  0  0  0  0  0
  -21.2735   -9.9974   18.0125 C   0  0  0  0  0  0  0  0  0  0  0  0
  -29.7473  -27.7305   21.3331 C   0  0  0  0  0  0  0  0  0  0  0  0
  -28.0420  -27.1413   19.7263 C   0  0  0  0  0  0  0  0  0  0  0  0
  -21.2844  -26.0282   23.8907 C   0  0  0  0  0  0  0  0  0  0  0  0
  -22.2522   -8.0724   19.0859 C   0  0  0  0  0  0  0  0  0  0  0  0
  -21.7904  -10.8161   19.0159 C   0  0  0  0  0  0  0  0  0  0  0  0
  -23.8405  -16.5534   18.3944 C   0  0  0  0  0  0  0  0  0  0  0  0
  -21.2509  -24.6698   23.5758 C   0  0  0  0  0  0  0  0  0  0  0  0
  -30.5462  -26.6859   20.8683 C   0  0  0  0  0  0  0  0  0  0  0  0
  -28.8409  -26.0967   19.2614 C   0  0  0  0  0  0  0  0  0  0  0  0
  -23.2508  -17.7922   18.6421 C   0  0  0  0  0  0  0  0  0  0  0  0
  -29.6492  -22.9589   20.2264 C   0  0  0  0  0  0  0  0  0  0  0  0
  -29.0403  -21.7219   20.0149 C   0  0  0  0  0  0  0  0  0  0  0  0
  -24.2951  -17.8479   20.8159 C   0  0  0  0  0  0  0  0  0  0  0  0
  -21.6672  -25.1976   21.2551 C   0  0  0  0  0  0  0  0  0  0  0  0
  -29.6684  -21.8114   17.6837 C   0  0  0  0  0  0  0  0  0  0  0  0
  -28.4951  -27.9582   20.7622 C   0  0  0  0  0  0  0  0  0  0  0  0
  -21.5092  -26.9713   22.8879 C   0  0  0  0  0  0  0  0  0  0  0  0
  -27.6494  -30.3649   20.7760 C   0  0  0  0  0  0  0  0  0  0  0  0
  -22.7867   -8.8860   20.0973 C   0  0  0  0  0  0  0  0  0  0  0  0
  -24.6545  -15.9465   19.3615 C   0  0  0  0  0  0  0  0  0  0  0  0
  -22.5455  -10.2728   20.0692 C   0  0  0  0  0  0  0  0  0  0  0  0
  -24.8960  -16.6026   20.5770 C   0  0  0  0  0  0  0  0  0  0  0  0
  -21.4423  -24.2545   22.2580 C   0  0  0  0  0  0  0  0  0  0  0  0
  -21.7006  -26.5561   21.5702 C   0  0  0  0  0  0  0  0  0  0  0  0
  -30.0931  -25.8690   19.8324 C   0  0  0  0  0  0  0  0  0  0  0  0
  -23.4756  -18.4383   19.8541 C   0  0  0  0  0  0  0  0  0  0  0  0
  -30.2677  -23.6222   19.1666 C   0  0  0  0  0  0  0  0  0  0  0  0
  -29.0499  -21.1482   18.7435 C   0  0  0  0  0  0  0  0  0  0  0  0
  -30.2773  -23.0484   17.8952 C   0  0  0  0  0  0  0  0  0  0  0  0
  -27.6692  -29.0368   21.2423 C   0  0  0  0  0  0  0  0  0  0  0  0
  -26.7022  -30.9872   21.5518 C   0  0  0  0  0  0  0  0  0  0  0  0
  -21.5616  -22.2381   20.7671 C   0  0  0  0  0  0  0  0  0  0  0  0
  -21.2611  -21.7935   22.7205 C   0  0  0  0  0  0  0  0  0  0  0  0
  -21.5387  -28.3830   23.2500 C   0  0  0  0  0  0  0  0  0  0  0  0
  -28.4185  -30.9810   19.7345 C   0  0  0  0  0  0  0  0  0  0  0  0
  -21.9883  -28.8235   24.5905 C   0  0  0  0  0  0  0  0  0  0  0  0
  -24.5226  -13.2433   21.0285 C   0  0  0  0  0  0  0  0  0  0  0  0
  -27.4683  -14.1691   22.0226 C   0  0  0  0  0  0  0  0  0  0  0  0
  -29.6868  -16.7112   22.5352 C   0  0  0  0  0  0  0  0  0  0  0  0
  -23.5493   -8.2361   21.2246 C   0  0  0  0  0  0  0  0  0  0  0  0
  -25.3049  -14.6223   19.0683 C   0  0  0  0  0  0  0  0  0  0  0  0
  -25.7783  -16.0029   21.6402 C   0  0  0  0  0  0  0  0  0  0  0  0
  -24.3780   -9.2202   22.0463 C   0  0  0  0  0  0  0  0  0  0  0  0
  -24.6822  -30.8103   25.8758 C   0  0  0  0  0  0  0  0  0  0  0  0
  -23.5516  -10.4545   22.3931 C   0  0  0  0  0  0  0  0  0  0  0  0
  -25.7659  -30.6691   24.8075 C   0  0  0  0  0  0  0  0  0  0  0  0
  -23.8681  -29.5283   26.0181 C   0  0  0  0  0  0  0  0  0  0  0  0
  -24.3405  -28.9132   23.6628 C   0  0  0  0  0  0  0  0  0  0  0  0
  -23.1104  -11.1970   21.1260 C   0  0  1  0  0  0  0  0  0  0  0  0
  -21.3947  -20.8851   21.4839 C   0  0  0  0  0  0  0  0  0  0  0  0
  -25.7009  -13.8591   20.3285 C   0  0  1  0  0  0  0  0  0  0  0  0
  -25.1657  -30.1976   23.4710 C   0  0  2  0  0  0  0  0  0  0  0  0
  -32.0011  -17.1629   23.3938 C   0  0  0  0  0  0  0  0  0  0  0  0
  -26.4667  -13.8443   24.8864 C   0  0  0  0  0  0  0  0  0  0  0  0
  -28.4365  -15.1858   25.6535 C   0  0  0  0  0  0  0  0  0  0  0  0
  -28.7898  -13.0064   24.4924 C   0  0  0  0  0  0  0  0  0  0  0  0
  -30.5725  -17.7820   19.9222 C   0  0  0  0  0  0  0  0  0  0  0  0
  -22.5941  -19.9576   21.4574 C   0  0  0  0  0  0  0  0  0  1  0  0
  -27.9982  -15.0054   23.1622 C   0  0  1  0  0  0  0  0  0  0  0  0
  -31.1527  -16.8580   22.1690 C   0  0  2  0  0  0  0  0  0  0  0  0
  -27.9046  -14.2711   24.5296 C   0  0  0  0  0  0  0  0  0  0  0  0
  -26.8033  -28.8268   22.2374 N   0  0  0  0  0  0  0  0  0  0  0  0
  -21.1807  -29.3360   22.4353 N   0  0  0  0  0  0  0  0  0  0  0  0
  -26.2307  -30.0313   22.4028 N   0  0  0  0  0  0  0  0  0  0  0  0
  -21.4092  -22.9153   21.9482 N   0  0  0  0  0  0  0  0  0  0  0  0
  -23.3437  -29.0892   24.7265 N   0  0  0  0  0  0  0  0  0  0  0  0
  -26.3864  -14.7037   21.3089 N   0  0  0  0  0  0  0  0  0  0  0  0
  -21.9281  -27.4953   20.5397 N   0  0  0  0  0  0  0  0  0  0  0  0
  -26.2349  -32.2534   21.5824 N   0  0  0  0  0  0  0  0  0  0  0  0
  -29.3476  -30.1970   19.0370 N   0  0  0  0  0  0  0  0  0  0  0  0
  -24.2071  -11.9725   20.5870 N   0  0  0  0  0  0  0  0  0  0  0  0
  -29.3521  -15.3972   22.7859 N   0  0  0  0  0  0  0  0  0  0  0  0
  -31.3327  -17.9632   21.1856 N   0  3  0  0  0  0  0  0  0  0  0  0
  -21.7639  -22.6035   19.6311 O   0  0  0  0  0  0  0  0  0  0  0  0
  -21.1046  -21.6289   23.9094 O   0  0  0  0  0  0  0  0  0  0  0  0
  -28.2974  -32.1949   19.4424 O   0  0  0  0  0  0  0  0  0  0  0  0
  -21.1110  -28.9061   25.4402 O   0  0  0  0  0  0  0  0  0  0  0  0
  -23.9436  -13.8737   21.9054 O   0  0  0  0  0  0  0  0  0  0  0  0
  -27.9995  -13.0847   21.7702 O   0  0  0  0  0  0  0  0  0  0  0  0
  -28.9166  -17.6670   22.5966 O   0  0  0  0  0  0  0  0  0  0  0  0
  -30.8725  -24.8498   19.3784 O   0  0  0  0  0  0  0  0  0  0  0  0
  -22.9007  -19.6473   20.0987 O   0  0  0  0  0  0  0  0  0  1  0  0
  -28.4664  -19.9596   18.5409 F   0  0  0  0  0  0  0  0  0  0  0  0
  -30.8709  -23.6803   16.8734 F   0  0  0  0  0  0  0  0  0  0  0  0
  1  2  1  0  0  0  0
  1  6  2  0  0  0  0
  2  7  2  0  0  0  0
  3 10  2  0  0  0  0
  3 18  1  0  0  0  0
  4 11  1  0  0  0  0
  4 18  2  0  0  0  0
  5  9  2  0  0  0  0
  5 19  1  0  0  0  0
  6 21  1  0  0  0  0
  7 23  1  0  0  0  0
  8 12  2  0  0  0  0
  8 22  1  0  0  0  0
  9 25  1  0  0  0  0
 10 27  1  0  0  0  0
 11 27  2  0  0  0  0
 12 28  1  0  0  0  0
 13 14  2  0  0  0  0
 13 29  1  0  0  0  0
 14 30  1  0  0  0  0
 15 24  1  0  0  0  0
 15 28  2  0  0  0  0
 16 25  2  0  0  0  0
 16 26  1  0  0  0  0
 17 30  2  0  0  0  0
 17 31  1  0  0  0  0
 18 32  1  0  0  0  0
 19 26  2  0  0  0  0
 19 36  1  0  0  0  0
 20 32  1  0  0  0  0
 20 33  2  0  0  0  0
 20 37  1  0  0  0  0
 21 23  2  0  0  0  0
 21 42  1  0  0  0  0
 22 24  2  0  0  0  0
 22 43  1  0  0  0  0
 23 51  1  0  0  0  0
 24 44  1  0  0  0  0
 25 67  1  0  0  0  0
 26 70  1  0  0  0  0
 27 83  1  0  0  0  0
 28 84  1  0  0  0  0
 29 31  2  0  0  0  0
 29 83  1  0  0  0  0
 30 85  1  0  0  0  0
 31 86  1  0  0  0  0
 32 64  2  0  0  0  0
 33 66  1  0  0  0  0
 33 71  1  0  0  0  0
 34 52  1  0  0  0  0
 34 67  1  0  0  0  0
 34 76  2  0  0  0  0
 35 52  1  0  0  0  0
 35 67  1  0  0  0  0
 35 77  2  0  0  0  0
 36 38  1  0  0  0  0
 36 65  2  0  0  0  0
 37 72  1  0  0  0  0
 37 78  2  0  0  0  0
 38 68  1  0  0  0  0
 38 79  2  0  0  0  0
 39 53  1  0  0  0  0
 39 73  1  0  0  0  0
 39 80  2  0  0  0  0
 40 61  1  0  0  0  0
 40 69  1  0  0  0  0
 40 81  2  0  0  0  0
 41 62  1  0  0  0  0
 41 74  1  0  0  0  0
 41 82  2  0  0  0  0
 42 45  1  0  0  0  0
 43 53  1  0  0  0  0
 44 69  1  0  0  0  0
 45 47  1  0  0  0  0
 46 48  1  0  0  0  0
 46 49  1  0  0  0  0
 47 51  1  0  0  0  0
 48 54  1  0  0  0  0
 49 68  1  0  0  0  0
 50 54  1  0  0  0  0
 50 68  1  0  0  0  0
 51 73  1  0  0  0  0
 52 60  1  0  0  0  0
 53 69  1  0  0  0  0
 54 66  1  0  0  0  0
 55 62  1  0  0  0  0
 56 63  1  0  0  0  0
 57 63  1  0  0  0  0
 58 63  1  0  0  0  0
 59 75  1  0  0  0  0
 60 84  1  0  0  0  0
 61 63  1  0  0  0  0
 61 74  1  0  0  0  0
 62 75  1  0  0  0  0
 64 66  1  0  0  0  0
M  CHG  1  75   1
M  ISO  4  36 100  38 100  60 101  84 101
M  END
> <Batch ID>
0075

> <Smiles>
CNC(C)C(=O)NC(C(=O)N1Cc2cc([101O:1][101CH2:1]C3C(=O)N(c4ccc([100C:0](=N)[100C:0](=O)N5CCCC(n6nc(-c7ccc(Oc8ccc(F)cc8F)cc7)c(C(N)=O)c6N)C5)c(N)c4)C3=O)ccc2CC1C(=O)NC1CCCc2ccccc21)C(C)(C)C

> <Shape>
0.269

> <Color>
0.043

> <Negative vol penalty>
0.000

$$$$

  -OEChem-04042323473D

 86 95  0     1  0  0  0  0  0999 V2000
  -23.0509  -35.0271   21.3917 C   0  0  0  0  0  0  0  0  0  0  0  0
  -24.0885  -34.1005   21.3776 C   0  0  0  0  0  0  0  0  0  0  0  0
  -23.1262   -9.8356   19.9616 C   0  0  0  0  0  0  0  0  0  0  0  0
  -23.8451   -9.9138   22.2668 C   0  0  0  0  0  0  0  0  0  0  0  0
  -21.8350  -34.7013   21.9910 C   0  0  0  0  0  0  0  0  0  0  0  0
  -23.9111  -32.8478   21.9638 C   0  0  0  0  0  0  0  0  0  0  0  0
  -26.2849  -27.5285   20.0727 C   0  0  0  0  0  0  0  0  0  0  0  0
  -31.1538  -19.2437   20.5445 C   0  0  0  0  0  0  0  0  0  0  0  0
  -31.0159  -17.8559   20.5680 C   0  0  0  0  0  0  0  0  0  0  0  0
  -22.4033   -8.6725   20.2264 C   0  0  0  0  0  0  0  0  0  0  0  0
  -23.1221   -8.7507   22.5317 C   0  0  0  0  0  0  0  0  0  0  0  0
  -27.3991  -26.7991   20.4854 C   0  0  0  0  0  0  0  0  0  0  0  0
  -19.4479   -7.8453   21.6456 C   0  0  0  0  0  0  0  0  0  0  0  0
  -18.1512   -7.7586   21.1392 C   0  0  0  0  0  0  0  0  0  0  0  0
  -29.3500  -18.0509   22.3070 C   0  0  0  0  0  0  0  0  0  0  0  0
  -25.9859  -25.4552   21.9052 C   0  0  0  0  0  0  0  0  0  0  0  0
  -18.7763   -5.7976   19.8739 C   0  0  0  0  0  0  0  0  0  0  0  0
  -23.8472  -10.4563   20.9818 C   0  0  0  0  0  0  0  0  0  0  0  0
  -29.4881  -19.4387   22.2835 C   0  0  0  0  0  0  0  0  0  0  0  0
  -24.1360  -12.9848   20.8069 C   0  0  0  0  0  0  0  0  0  0  0  0
  -21.6393  -33.4405   22.5764 C   0  0  0  0  0  0  0  0  0  0  0  0
  -25.0122  -27.2333   20.5824 C   0  0  0  0  0  0  0  0  0  0  0  0
  -22.6919  -32.5053   22.5728 C   0  0  0  0  0  0  0  0  0  0  0  0
  -24.8568  -26.1806   21.4955 C   0  0  0  0  0  0  0  0  0  0  0  0
  -30.3900  -20.0351   21.4024 C   0  0  0  0  0  0  0  0  0  0  0  0
  -30.1140  -17.2595   21.4491 C   0  0  0  0  0  0  0  0  0  0  0  0
  -22.4013   -8.1300   21.5114 C   0  0  0  0  0  0  0  0  0  0  0  0
  -27.2501  -25.7642   21.4039 C   0  0  0  0  0  0  0  0  0  0  0  0
  -20.4090   -6.9082   21.2661 C   0  0  0  0  0  0  0  0  0  0  0  0
  -17.8153   -6.7347   20.2534 C   0  0  0  0  0  0  0  0  0  0  0  0
  -20.0732   -5.8844   20.3803 C   0  0  0  0  0  0  0  0  0  0  0  0
  -24.5946  -11.6575   20.7087 C   0  0  0  0  0  0  0  0  0  0  0  0
  -25.2178  -13.7495   20.4445 C   0  0  0  0  0  0  0  0  0  0  0  0
  -31.4306  -23.5097   21.4589 C   0  0  0  0  0  0  0  0  0  0  0  0
  -30.1406  -23.6468   21.1318 C   0  0  0  0  0  0  0  0  0  0  0  0
  -28.6759  -20.2377   23.1928 C   0  0  0  0  0  0  0  0  0  0  0  0
  -22.8474  -13.4821   21.1914 C   0  0  0  0  0  0  0  0  0  0  0  0
  -22.8559  -28.8247   22.2916 C   0  0  0  0  0  0  0  0  0  0  0  0
  -21.0388  -26.1986   21.7222 C   0  0  0  0  0  0  0  0  0  0  0  0
  -20.9097  -22.8739   20.9629 C   0  0  0  0  0  0  0  0  0  0  0  0
  -30.6560  -14.9200   20.6878 C   0  0  0  0  0  0  0  0  0  0  0  0
  -20.3234  -33.1511   23.2540 C   0  0  0  0  0  0  0  0  0  0  0  0
  -23.8165  -28.0121   20.1069 C   0  0  0  0  0  0  0  0  0  0  0  0
  -23.5092  -25.8106   22.0572 C   0  0  0  0  0  0  0  0  0  0  0  0
  -31.7999  -22.0733   21.6351 C   0  0  0  0  0  0  0  0  0  0  0  0
  -29.4589  -22.3163   21.0415 C   0  0  0  0  0  0  0  0  0  0  0  0
  -20.0902  -31.6666   23.5229 C   0  0  0  0  0  0  0  0  0  0  0  0
  -29.6365  -12.4267   18.3595 C   0  0  0  0  0  0  0  0  0  0  0  0
  -21.3358  -31.0328   24.1343 C   0  0  0  0  0  0  0  0  0  0  0  0
  -28.1962  -12.1135   18.7712 C   0  0  0  0  0  0  0  0  0  0  0  0
  -30.5250  -12.7041   19.5709 C   0  0  0  0  0  0  0  0  0  0  0  0
  -28.5786  -13.4186   20.9013 C   0  0  0  0  0  0  0  0  0  0  0  0
  -22.5296  -31.1271   23.1765 C   0  0  1  0  0  0  0  0  0  0  0  0
  -22.6437  -27.9602   21.0811 C   0  0  1  0  0  0  0  0  0  0  0  0
  -27.6308  -13.1959   19.7115 C   0  0  2  0  0  0  0  0  0  0  0  0
  -27.1858  -20.1295   23.0633 C   0  0  0  0  0  0  0  0  0  0  0  0
  -19.2830  -20.9974   20.6021 C   0  0  0  0  0  0  0  0  0  0  0  0
  -20.6004  -26.0026   24.7353 C   0  0  0  0  0  0  0  0  0  0  0  0
  -19.8066  -23.6524   24.3967 C   0  0  0  0  0  0  0  0  0  0  0  0
  -18.5661  -25.5485   23.3534 C   0  0  0  0  0  0  0  0  0  0  0  0
  -21.8175  -22.4683   18.1753 C   0  0  0  0  0  0  0  0  0  0  0  0
  -29.4070  -24.9125   20.8759 C   0  0  0  0  0  0  0  0  0  1  0  0
  -20.8187  -24.8788   22.4212 C   0  0  1  0  0  0  0  0  0  0  0  0
  -20.0901  -22.1048   19.9425 C   0  0  2  0  0  0  0  0  0  0  0  0
  -19.9738  -25.0285   23.7177 C   0  0  0  0  0  0  0  0  0  0  0  0
  -25.8684  -11.5799   20.3146 N   0  0  0  0  0  0  0  0  0  0  0  0
  -26.2195  -12.8681   20.1619 N   0  0  0  0  0  0  0  0  0  0  0  0
  -30.5390  -21.3818   21.3648 N   0  0  3  0  0  0  0  0  0  0  0  0
  -22.3715  -26.6056   21.5663 N   0  0  0  0  0  0  0  0  0  0  0  0
  -29.9283  -13.7428   20.4134 N   0  0  0  0  0  0  0  0  0  0  0  0
  -25.4004  -15.0833   20.3431 N   0  0  0  0  0  0  0  0  0  0  0  0
  -21.8497  -12.5589   21.5330 N   0  0  0  0  0  0  0  0  0  0  0  0
  -29.9742  -15.8496   21.4725 N   0  0  0  0  0  0  0  0  0  0  0  0
  -22.4226  -30.1275   22.1355 N   0  0  0  0  0  0  0  0  0  0  0  0
  -20.2356  -23.9832   21.4280 N   0  0  0  0  0  0  0  0  0  0  0  0
  -20.9819  -21.4904   18.9186 N   0  3  0  0  0  0  0  0  0  0  0  0
  -29.1231  -20.9960   24.0531 O   0  0  0  0  0  0  0  0  0  0  0  0
  -22.5834  -14.7082   21.2150 O   0  0  0  0  0  0  0  0  0  0  0  0
  -23.3731  -28.3449   23.2936 O   0  0  0  0  0  0  0  0  0  0  0  0
  -20.0646  -26.8412   21.3226 O   0  0  0  0  0  0  0  0  0  0  0  0
  -22.0338  -22.5235   21.3150 O   0  0  0  0  0  0  0  0  0  0  0  0
  -31.7892  -15.1027   20.2357 O   0  0  0  0  0  0  0  0  0  0  0  0
  -21.6958   -6.9952   21.7703 O   0  0  0  0  0  0  0  0  0  0  0  0
  -28.3361  -25.0510   21.8089 O   0  0  0  0  0  0  0  0  0  1  0  0
  -16.5696   -6.6507   19.7684 F   0  0  0  0  0  0  0  0  0  0  0  0
  -20.9918   -4.9805   20.0130 F   0  0  0  0  0  0  0  0  0  0  0  0
  1  2  1  0  0  0  0
  1  5  2  0  0  0  0
  2  6  2  0  0  0  0
  3 10  2  0  0  0  0
  3 18  1  0  0  0  0
  4 11  1  0  0  0  0
  4 18  2  0  0  0  0
  5 21  1  0  0  0  0
  6 23  1  0  0  0  0
  7 12  2  0  0  0  0
  7 22  1  0  0  0  0
  8  9  2  0  0  0  0
  8 25  1  0  0  0  0
  9 26  1  0  0  0  0
 10 27  1  0  0  0  0
 11 27  2  0  0  0  0
 12 28  1  0  0  0  0
 13 14  2  0  0  0  0
 13 29  1  0  0  0  0
 14 30  1  0  0  0  0
 15 19  1  0  0  0  0
 15 26  2  0  0  0  0
 16 24  1  0  0  0  0
 16 28  2  0  0  0  0
 17 30  2  0  0  0  0
 17 31  1  0  0  0  0
 18 32  1  0  0  0  0
 19 25  2  0  0  0  0
 19 36  1  0  0  0  0
 20 32  1  0  0  0  0
 20 33  2  0  0  0  0
 20 37  1  0  0  0  0
 21 23  2  0  0  0  0
 21 42  1  0  0  0  0
 22 24  2  0  0  0  0
 22 43  1  0  0  0  0
 23 53  1  0  0  0  0
 24 44  1  0  0  0  0
 25 68  1  0  0  0  0
 26 73  1  0  0  0  0
 27 83  1  0  0  0  0
 28 84  1  0  0  0  0
 29 31  2  0  0  0  0
 29 83  1  0  0  0  0
 30 85  1  0  0  0  0
 31 86  1  0  0  0  0
 32 66  2  0  0  0  0
 33 67  1  0  0  0  0
 33 71  1  0  0  0  0
 34 35  2  0  0  0  0
 34 45  1  0  0  0  0
 35 46  1  0  0  0  0
 35 62  1  0  0  0  0
 36 56  1  0  0  0  0
 36 77  2  0  0  0  0
 37 72  1  0  0  0  0
 37 78  2  0  0  0  0
 38 54  1  0  0  0  0
 38 74  1  0  0  0  0
 38 79  2  0  0  0  0
 39 63  1  0  0  0  0
 39 69  1  0  0  0  0
 39 80  2  0  0  0  0
 40 64  1  0  0  0  0
 40 75  1  0  0  0  0
 40 81  2  0  0  0  0
 41 70  1  0  0  0  0
 41 73  1  0  0  0  0
 41 82  2  0  0  0  0
 42 47  1  0  0  0  0
 43 54  1  0  0  0  0
 44 69  1  0  0  0  0
 45 68  1  0  0  0  0
 46 68  1  0  0  0  0
 47 49  1  0  0  0  0
 48 50  1  0  0  0  0
 48 51  1  0  0  0  0
 49 53  1  0  0  0  0
 50 55  1  0  0  0  0
 51 70  1  0  0  0  0
 52 55  1  0  0  0  0
 52 70  1  0  0  0  0
 53 74  1  0  0  0  0
 54 69  1  0  0  0  0
 55 67  1  0  0  0  0
 57 64  1  0  0  0  0
 58 65  1  0  0  0  0
 59 65  1  0  0  0  0
 60 65  1  0  0  0  0
 61 76  1  0  0  0  0
 62 84  1  0  0  0  0
 63 65  1  0  0  0  0
 63 75  1  0  0  0  0
 64 76  1  0  0  0  0
 66 67  1  0  0  0  0
M  CHG  1  76   1
M  ISO  4  41 100  62 101  73 100  84 101
M  END
> <Batch ID>
0075

> <Smiles>
CNC(C)C(=O)NC(C(=O)N1Cc2cc([101O:1][101CH2:1]C3=CCN(c4ccc([100NH:0][100C:0](=O)N5CCCC(n6nc(-c7ccc(Oc8ccc(F)cc8F)cc7)c(C(N)=O)c6N)C5)cc4C(C)=O)C3)ccc2CC1C(=O)NC1CCCc2ccccc21)C(C)(C)C

> <Shape>
0.261

> <Color>
0.215

> <Negative vol penalty>
0.000

$$$$

  -OEChem-04042323473D

 87 96  0     1  0  0  0  0  0999 V2000
  -25.0392  -35.9147   20.5649 C   0  0  0  0  0  0  0  0  0  0  0  0
  -25.7464  -34.7292   20.7375 C   0  0  0  0  0  0  0  0  0  0  0  0
  -22.7319  -14.1691   24.5288 C   0  0  0  0  0  0  0  0  0  0  0  0
  -21.9648  -15.2978   22.5352 C   0  0  0  0  0  0  0  0  0  0  0  0
  -23.7537  -36.0410   21.0900 C   0  0  0  0  0  0  0  0  0  0  0  0
  -25.1690  -33.6695   21.4362 C   0  0  0  0  0  0  0  0  0  0  0  0
  -25.8439  -29.2174   19.1192 C   0  0  0  0  0  0  0  0  0  0  0  0
  -30.4132  -19.8854   17.7325 C   0  0  0  0  0  0  0  0  0  0  0  0
  -28.3214  -20.3393   18.8531 C   0  0  0  0  0  0  0  0  0  0  0  0
  -30.8684  -21.1611   18.0654 C   0  0  0  0  0  0  0  0  0  0  0  0
  -28.7766  -21.6150   19.1861 C   0  0  0  0  0  0  0  0  0  0  0  0
  -21.6452  -14.6817   25.2372 C   0  0  0  0  0  0  0  0  0  0  0  0
  -20.8780  -15.8104   23.2436 C   0  0  0  0  0  0  0  0  0  0  0  0
  -27.0938  -28.6140   19.2513 C   0  0  0  0  0  0  0  0  0  0  0  0
  -20.2904  -18.3196   25.4321 C   0  0  0  0  0  0  0  0  0  0  0  0
  -19.9813  -19.6685   25.2579 C   0  0  0  0  0  0  0  0  0  0  0  0
  -26.2076  -27.1678   20.9667 C   0  0  0  0  0  0  0  0  0  0  0  0
  -17.7899  -19.0609   24.4419 C   0  0  0  0  0  0  0  0  0  0  0  0
  -22.8917  -14.4772   23.1778 C   0  0  0  0  0  0  0  0  0  0  0  0
  -24.0707  -12.7339   21.7361 C   0  0  0  0  0  0  0  0  0  0  0  0
  -23.1565  -34.9789   21.7871 C   0  0  0  0  0  0  0  0  0  0  0  0
  -24.7675  -28.8074   19.9189 C   0  0  0  0  0  0  0  0  0  0  0  0
  -23.8749  -33.7822   21.9722 C   0  0  0  0  0  0  0  0  0  0  0  0
  -24.9444  -27.7660   20.8410 C   0  0  0  0  0  0  0  0  0  0  0  0
  -29.1397  -19.4745   18.1263 C   0  0  0  0  0  0  0  0  0  0  0  0
  -30.0501  -22.0260   18.7922 C   0  0  0  0  0  0  0  0  0  0  0  0
  -20.7182  -15.5023   24.5946 C   0  0  0  0  0  0  0  0  0  0  0  0
  -27.2765  -27.5910   20.1771 C   0  0  0  0  0  0  0  0  0  0  0  0
  -19.3493  -17.3412   25.1112 C   0  0  0  0  0  0  0  0  0  0  0  0
  -18.7311  -20.0392   24.7628 C   0  0  0  0  0  0  0  0  0  0  0  0
  -18.0991  -17.7119   24.6162 C   0  0  0  0  0  0  0  0  0  0  0  0
  -24.0145  -13.9485   22.4456 C   0  0  0  0  0  0  0  0  0  0  0  0
  -25.3441  -12.6948   21.2229 C   0  0  0  0  0  0  0  0  0  0  0  0
  -31.5679  -25.8901   19.2173 C   0  0  0  0  0  0  0  0  0  0  0  0
  -30.2310  -25.7577   19.2168 C   0  0  0  0  0  0  0  0  0  0  0  0
  -23.0621  -11.7308   21.5568 C   0  0  0  0  0  0  0  0  0  0  0  0
  -22.9290  -30.2126   22.0982 C   0  0  0  0  0  0  0  0  0  0  0  0
  -21.3104  -27.4040   21.9773 C   0  0  0  0  0  0  0  0  0  0  0  0
  -22.1337  -23.8958   21.7991 C   0  0  0  0  0  0  0  0  0  0  0  0
  -29.3244  -16.9557   19.8616 C   0  0  0  0  0  0  0  0  0  0  0  0
  -21.7831  -35.1791   22.3773 C   0  0  0  0  0  0  0  0  0  0  0  0
  -23.4188  -29.4503   19.7455 C   0  0  0  0  0  0  0  0  0  0  0  0
  -23.8157  -27.2751   21.7091 C   0  0  0  0  0  0  0  0  0  0  0  0
  -32.4960  -24.7205   19.3174 C   0  0  0  0  0  0  0  0  0  0  0  0
  -29.5497  -24.4093   19.2710 C   0  0  0  0  0  0  0  0  0  0  0  0
  -21.0980  -33.8762   22.7814 C   0  0  0  0  0  0  0  0  0  0  0  0
  -29.7871  -14.2330   22.1087 C   0  0  0  0  0  0  0  0  0  0  0  0
  -22.0611  -32.9859   23.5602 C   0  0  0  0  0  0  0  0  0  0  0  0
  -28.3652  -13.7418   22.3858 C   0  0  0  0  0  0  0  0  0  0  0  0
  -31.7950  -23.4551   19.8087 C   0  0  0  0  0  0  0  0  0  0  0  0
  -29.8412  -15.7523   21.9642 C   0  0  0  0  0  0  0  0  0  0  0  0
  -27.4839  -15.8225   21.2489 C   0  0  0  0  0  0  0  0  0  0  0  0
  -23.2729  -32.6015   22.7028 C   0  0  1  0  0  0  0  0  0  0  0  0
  -22.5244  -29.3030   20.9727 C   0  0  1  0  0  0  0  0  0  0  0  0
  -27.3695  -14.2916   21.3468 C   0  0  2  0  0  0  0  0  0  0  0  0
  -20.8399  -21.9621   20.8586 C   0  0  0  0  0  0  0  0  0  0  0  0
  -29.6457  -17.2279   16.9577 C   0  0  0  0  0  0  0  0  0  0  0  0
  -27.3524  -18.2007   16.9207 C   0  0  0  0  0  0  0  0  0  0  0  0
  -20.3152  -27.0521   24.8402 C   0  0  0  0  0  0  0  0  0  0  0  0
  -20.4563  -24.5742   24.5106 C   0  0  0  0  0  0  0  0  0  0  0  0
  -18.9089  -25.9319   23.1018 C   0  0  0  0  0  0  0  0  0  0  0  0
  -24.3690  -23.1135   20.0241 C   0  0  0  0  0  0  0  0  0  0  0  0
  -29.3210  -26.9491   19.1456 C   0  0  0  0  0  0  0  0  0  1  0  0
  -21.4014  -26.0854   22.7067 C   0  0  1  0  0  0  0  0  0  0  0  0
  -21.9436  -22.9772   20.6055 C   0  0  2  0  0  0  0  0  0  0  0  0
  -28.6520  -18.1108   17.7705 C   0  0  0  0  0  0  0  0  0  0  0  0
  -20.2934  -25.9274   23.7859 C   0  0  0  0  0  0  0  0  0  0  0  0
  -25.1610  -14.6315   22.3905 N   0  0  0  0  0  0  0  0  0  0  0  0
  -25.9497  -13.8434   21.6403 N   0  0  0  0  0  0  0  0  0  0  0  0
  -30.5063  -23.3029   19.1275 N   0  0  1  0  0  0  0  0  0  0  0  0
  -22.5177  -27.9396   21.5068 N   0  0  0  0  0  0  0  0  0  0  0  0
  -28.8744  -16.2089   20.9629 N   0  0  0  0  0  0  0  0  0  0  0  0
  -25.9938  -11.7902   20.4599 N   0  0  0  0  0  0  0  0  0  0  0  0
  -21.8090  -11.9294   22.1524 N   0  0  0  0  0  0  0  0  0  0  0  0
  -22.9192  -31.5544   21.7684 N   0  0  0  0  0  0  0  0  0  0  0  0
  -21.3875  -25.0492   21.6798 N   0  0  0  0  0  0  0  0  0  0  0  0
  -28.3438  -17.3434   18.9566 N   0  0  0  0  0  0  0  0  0  0  0  0
  -23.2046  -22.2379   20.3149 N   0  3  0  0  0  0  0  0  0  0  0  0
  -23.2713  -10.6815   20.9021 O   0  0  0  0  0  0  0  0  0  0  0  0
  -23.2265  -29.7325   23.1857 O   0  0  0  0  0  0  0  0  0  0  0  0
  -20.2078  -27.9356   21.8243 O   0  0  0  0  0  0  0  0  0  0  0  0
  -22.8675  -23.6163   22.7445 O   0  0  0  0  0  0  0  0  0  0  0  0
  -30.5128  -17.2501   19.6942 O   0  0  0  0  0  0  0  0  0  0  0  0
  -19.6575  -16.0025   25.2855 O   0  0  0  0  0  0  0  0  0  0  0  0
  -28.4956  -27.0007   20.3085 O   0  0  0  0  0  0  0  0  0  1  0  0
  -18.4338  -21.3347   24.5970 F   0  0  0  0  0  0  0  0  0  0  0  0
  -17.1905  -16.7766   24.3072 F   0  0  0  0  0  0  0  0  0  0  0  0
  1  2  1  0  0  0  0
  1  5  2  0  0  0  0
  2  6  2  0  0  0  0
  3 12  2  0  0  0  0
  3 19  1  0  0  0  0
  4 13  1  0  0  0  0
  4 19  2  0  0  0  0
  5 21  1  0  0  0  0
  6 23  1  0  0  0  0
  7 14  2  0  0  0  0
  7 22  1  0  0  0  0
  8 10  2  0  0  0  0
  8 25  1  0  0  0  0
  9 11  1  0  0  0  0
  9 25  2  0  0  0  0
 10 26  1  0  0  0  0
 11 26  2  0  0  0  0
 12 27  1  0  0  0  0
 13 27  2  0  0  0  0
 14 28  1  0  0  0  0
 15 16  2  0  0  0  0
 15 29  1  0  0  0  0
 16 30  1  0  0  0  0
 17 24  1  0  0  0  0
 17 28  2  0  0  0  0
 18 30  2  0  0  0  0
 18 31  1  0  0  0  0
 19 32  1  0  0  0  0
 20 32  1  0  0  0  0
 20 33  2  0  0  0  0
 20 36  1  0  0  0  0
 21 23  2  0  0  0  0
 21 41  1  0  0  0  0
 22 24  2  0  0  0  0
 22 42  1  0  0  0  0
 23 53  1  0  0  0  0
 24 43  1  0  0  0  0
 25 66  1  0  0  0  0
 26 70  1  0  0  0  0
 27 84  1  0  0  0  0
 28 85  1  0  0  0  0
 29 31  2  0  0  0  0
 29 84  1  0  0  0  0
 30 86  1  0  0  0  0
 31 87  1  0  0  0  0
 32 68  2  0  0  0  0
 33 69  1  0  0  0  0
 33 73  1  0  0  0  0
 34 35  2  0  0  0  0
 34 44  1  0  0  0  0
 35 45  1  0  0  0  0
 35 63  1  0  0  0  0
 36 74  1  0  0  0  0
 36 79  2  0  0  0  0
 37 54  1  0  0  0  0
 37 75  1  0  0  0  0
 37 80  2  0  0  0  0
 38 64  1  0  0  0  0
 38 71  1  0  0  0  0
 38 81  2  0  0  0  0
 39 65  1  0  0  0  0
 39 76  1  0  0  0  0
 39 82  2  0  0  0  0
 40 72  1  0  0  0  0
 40 77  1  0  0  0  0
 40 83  2  0  0  0  0
 41 46  1  0  0  0  0
 42 54  1  0  0  0  0
 43 71  1  0  0  0  0
 44 50  1  0  0  0  0
 45 70  1  0  0  0  0
 46 48  1  0  0  0  0
 47 49  1  0  0  0  0
 47 51  1  0  0  0  0
 48 53  1  0  0  0  0
 49 55  1  0  0  0  0
 50 70  1  0  0  0  0
 51 72  1  0  0  0  0
 52 55  1  0  0  0  0
 52 72  1  0  0  0  0
 53 75  1  0  0  0  0
 54 71  1  0  0  0  0
 55 69  1  0  0  0  0
 56 65  1  0  0  0  0
 57 66  1  0  0  0  0
 58 66  1  0  0  0  0
 59 67  1  0  0  0  0
 60 67  1  0  0  0  0
 61 67  1  0  0  0  0
 62 78  1  0  0  0  0
 63 85  1  0  0  0  0
 64 67  1  0  0  0  0
 64 76  1  0  0  0  0
 65 78  1  0  0  0  0
 66 77  1  0  0  0  0
 68 69  1  0  0  0  0
M  CHG  1  78   1
M  ISO  4  40 100  63 101  77 100  85 101
M  END
> <Batch ID>
0075

> <Smiles>
CNC(C)C(=O)NC(C(=O)N1Cc2cc([101O:1][101CH2:1]C3=CCCN(c4ccc(C(C)(C)[100NH:0][100C:0](=O)N5CCCC(n6nc(-c7ccc(Oc8ccc(F)cc8F)cc7)c(C(N)=O)c6N)C5)cc4)C3)ccc2CC1C(=O)NC1CCCc2ccccc21)C(C)(C)C

> <Shape>
0.226

> <Color>
0.088

> <Negative vol penalty>
0.000

$$$$

  -OEChem-04042323473D

 88 97  0     1  0  0  0  0  0999 V2000
  -20.3678  -31.3456   23.0191 C   0  0  0  0  0  0  0  0  0  0  0  0
  -21.5834  -30.7021   22.8106 C   0  0  0  0  0  0  0  0  0  0  0  0
  -22.6305  -13.1739   19.7683 C   0  0  0  0  0  0  0  0  0  0  0  0
  -23.5067  -14.5339   17.9740 C   0  0  0  0  0  0  0  0  0  0  0  0
  -19.1884  -30.6040   23.0752 C   0  0  0  0  0  0  0  0  0  0  0  0
  -21.6206  -29.3164   22.6592 C   0  0  0  0  0  0  0  0  0  0  0  0
  -24.5983  -27.8596   18.8309 C   0  0  0  0  0  0  0  0  0  0  0  0
  -21.3998  -13.1052   19.1153 C   0  0  0  0  0  0  0  0  0  0  0  0
  -22.2761  -14.4652   17.3210 C   0  0  0  0  0  0  0  0  0  0  0  0
  -25.9741  -27.8645   19.0569 C   0  0  0  0  0  0  0  0  0  0  0  0
  -18.6921  -15.0832   18.6909 C   0  0  0  0  0  0  0  0  0  0  0  0
  -17.5420  -15.2814   19.4548 C   0  0  0  0  0  0  0  0  0  0  0  0
  -25.9152  -25.4820   19.4304 C   0  0  0  0  0  0  0  0  0  0  0  0
  -30.9947  -20.7849   15.9492 C   0  0  0  0  0  0  0  0  0  0  0  0
  -30.3512  -20.6068   18.2710 C   0  0  0  0  0  0  0  0  0  0  0  0
  -30.1645  -18.6877   16.8152 C   0  0  0  0  0  0  0  0  0  0  0  0
  -16.7662  -13.0719   18.8600 C   0  0  0  0  0  0  0  0  0  0  0  0
  -23.6839  -13.8882   19.1977 C   0  0  0  0  0  0  0  0  0  0  0  0
  -25.7939  -12.8847   20.2217 C   0  0  0  0  0  0  0  0  0  0  0  0
  -19.2100  -29.2096   22.9148 C   0  0  0  0  0  0  0  0  0  0  0  0
  -23.8677  -26.6655   18.9139 C   0  0  0  0  0  0  0  0  0  0  0  0
  -20.4406  -28.5553   22.7146 C   0  0  0  0  0  0  0  0  0  0  0  0
  -24.5307  -25.4642   19.2025 C   0  0  0  0  0  0  0  0  0  0  0  0
  -30.8424  -21.3652   17.2084 C   0  0  0  0  0  0  0  0  0  0  0  0
  -30.6557  -19.4461   15.7526 C   0  0  0  0  0  0  0  0  0  0  0  0
  -30.0123  -19.2680   18.0745 C   0  0  0  0  0  0  0  0  0  0  0  0
  -21.2226  -13.7509   17.8917 C   0  0  0  0  0  0  0  0  0  0  0  0
  -26.6323  -26.6761   19.3595 C   0  0  0  0  0  0  0  0  0  0  0  0
  -18.8793  -13.8794   18.0114 C   0  0  0  0  0  0  0  0  0  0  0  0
  -16.5791  -14.2757   19.5394 C   0  0  0  0  0  0  0  0  0  0  0  0
  -17.9164  -12.8738   18.0960 C   0  0  0  0  0  0  0  0  0  0  0  0
  -24.9552  -13.9600   19.8720 C   0  0  0  0  0  0  0  0  0  0  0  0
  -26.8704  -13.4751   20.8374 C   0  0  0  0  0  0  0  0  0  0  0  0
  -31.0073  -24.9842   18.4306 C   0  0  0  0  0  0  0  0  0  0  0  0
  -32.3670  -25.3339   18.0313 C   0  0  0  0  0  0  0  0  0  0  0  0
  -30.5403  -23.5470   18.3711 C   0  0  0  0  0  0  0  0  0  0  0  0
  -32.9597  -26.5159   18.2723 C   0  0  0  0  0  0  0  0  0  0  0  0
  -30.0780  -25.8678   18.8358 C   0  0  0  0  0  0  0  0  0  0  0  0
  -25.6158  -11.4781   20.0090 C   0  0  0  0  0  0  0  0  0  0  0  0
  -21.4932  -25.6114   20.7453 C   0  0  0  0  0  0  0  0  0  0  0  0
  -21.5836  -23.0730   18.7277 C   0  0  0  0  0  0  0  0  0  0  0  0
  -24.1225  -21.0655   17.1334 C   0  0  0  0  0  0  0  0  0  0  0  0
  -29.3049  -18.9195   20.4670 C   0  0  0  0  0  0  0  0  0  0  0  0
  -17.9149  -28.4454   23.0303 C   0  0  0  0  0  0  0  0  0  0  0  0
  -22.3885  -26.6727   18.6411 C   0  0  0  0  0  0  0  0  0  0  0  0
  -23.7954  -24.1522   19.2834 C   0  0  0  0  0  0  0  0  0  0  0  0
  -33.1264  -24.2603   17.3043 C   0  0  0  0  0  0  0  0  0  0  0  0
  -17.9972  -27.0215   22.4864 C   0  0  0  0  0  0  0  0  0  0  0  0
  -28.0612  -17.3384   23.4048 C   0  0  0  0  0  0  0  0  0  0  0  0
  -19.2563  -26.3273   22.9961 C   0  0  0  0  0  0  0  0  0  0  0  0
  -27.2048  -16.1910   22.8642 C   0  0  0  0  0  0  0  0  0  0  0  0
  -32.1872  -23.3555   16.5182 C   0  0  0  0  0  0  0  0  0  0  0  0
  -27.9577  -18.5852   22.5282 C   0  0  0  0  0  0  0  0  0  0  0  0
  -27.3773  -17.2191   20.5619 C   0  0  0  0  0  0  0  0  0  0  0  0
  -20.5189  -27.0565   22.5211 C   0  0  1  0  0  0  0  0  0  0  0  0
  -21.6614  -25.4818   19.2579 C   0  0  1  0  0  0  0  0  0  0  0  0
  -27.4998  -15.9205   21.3757 C   0  0  2  0  0  0  0  0  0  0  0  0
  -24.0610  -19.7539   14.9949 C   0  0  0  0  0  0  0  0  0  0  0  0
  -20.8218  -20.7288   20.5260 C   0  0  0  0  0  0  0  0  0  0  0  0
  -22.2465  -19.2541   19.0894 C   0  0  0  0  0  0  0  0  0  0  0  0
  -20.2670  -20.4121   18.1081 C   0  0  0  0  0  0  0  0  0  0  0  0
  -26.4963  -22.4740   16.0657 C   0  0  0  0  0  0  0  0  0  0  0  0
  -28.6913  -25.4919   19.2408 C   0  0  0  0  0  0  0  0  0  1  0  0
  -22.3246  -21.7581   18.6963 C   0  0  1  0  0  0  0  0  0  0  0  0
  -24.4805  -21.0565   15.6582 C   0  0  2  0  0  0  0  0  0  0  0  0
  -21.4260  -20.5613   19.1175 C   0  0  0  0  0  0  0  0  0  0  0  0
  -25.4558  -15.1438   20.2355 N   0  0  0  0  0  0  0  0  0  0  0  0
  -26.6207  -14.8158   20.8201 N   0  0  0  0  0  0  0  0  0  0  0  0
  -31.1936  -22.7483   17.4127 N   0  0  0  0  0  0  0  0  0  0  0  0
  -22.3491  -24.2121   19.0149 N   0  0  0  0  0  0  0  0  0  0  0  0
  -28.2543  -18.2534   21.1329 N   0  0  0  0  0  0  0  0  0  0  0  0
  -30.8095  -18.8588   14.4796 N   0  0  0  0  0  0  0  0  0  0  0  0
  -27.9967  -12.9730   21.3867 N   0  0  0  0  0  0  0  0  0  0  0  0
  -26.1044  -10.9147   18.8223 N   0  0  0  0  0  0  0  0  0  0  0  0
  -29.5149  -18.4976   19.1546 N   0  0  0  0  0  0  0  0  0  0  0  0
  -20.7957  -26.7382   21.1367 N   0  0  0  0  0  0  0  0  0  0  0  0
  -22.8886  -21.6393   17.3560 N   0  0  0  0  0  0  0  0  0  0  0  0
  -25.9510  -21.2219   15.4811 N   0  3  0  0  0  0  0  0  0  0  0  0
  -29.6183  -23.1807   19.1000 O   0  0  0  0  0  0  0  0  0  0  0  0
  -25.0259  -10.7455   20.8390 O   0  0  0  0  0  0  0  0  0  0  0  0
  -21.9603  -24.7518   21.4833 O   0  0  0  0  0  0  0  0  0  0  0  0
  -20.3717  -23.0898   18.4985 O   0  0  0  0  0  0  0  0  0  0  0  0
  -24.8617  -20.6059   18.0011 O   0  0  0  0  0  0  0  0  0  0  0  0
  -29.9869  -19.7802   21.0291 O   0  0  0  0  0  0  0  0  0  0  0  0
  -20.0220  -13.6839   17.2541 O   0  0  0  0  0  0  0  0  0  0  0  0
  -27.9749  -26.6782   19.5812 O   0  0  0  0  0  0  0  0  0  1  0  0
  -15.4754  -14.4656   20.2743 F   0  0  0  0  0  0  0  0  0  0  0  0
  -18.0912  -11.7147   17.4465 F   0  0  0  0  0  0  0  0  0  0  0  0
  1  2  1  0  0  0  0
  1  5  2  0  0  0  0
  2  6  2  0  0  0  0
  3  8  2  0  0  0  0
  3 18  1  0  0  0  0
  4  9  1  0  0  0  0
  4 18  2  0  0  0  0
  5 20  1  0  0  0  0
  6 22  1  0  0  0  0
  7 10  2  0  0  0  0
  7 21  1  0  0  0  0
  8 27  1  0  0  0  0
  9 27  2  0  0  0  0
 10 28  1  0  0  0  0
 11 12  2  0  0  0  0
 11 29  1  0  0  0  0
 12 30  1  0  0  0  0
 13 23  1  0  0  0  0
 13 28  2  0  0  0  0
 14 24  1  0  0  0  0
 14 25  2  0  0  0  0
 15 24  2  0  0  0  0
 15 26  1  0  0  0  0
 16 25  1  0  0  0  0
 16 26  2  0  0  0  0
 17 30  2  0  0  0  0
 17 31  1  0  0  0  0
 18 32  1  0  0  0  0
 19 32  1  0  0  0  0
 19 33  2  0  0  0  0
 19 39  1  0  0  0  0
 20 22  2  0  0  0  0
 20 44  1  0  0  0  0
 21 23  2  0  0  0  0
 21 45  1  0  0  0  0
 22 55  1  0  0  0  0
 23 46  1  0  0  0  0
 24 69  1  0  0  0  0
 25 72  1  0  0  0  0
 26 75  1  0  0  0  0
 27 85  1  0  0  0  0
 28 86  1  0  0  0  0
 29 31  2  0  0  0  0
 29 85  1  0  0  0  0
 30 87  1  0  0  0  0
 31 88  1  0  0  0  0
 32 67  2  0  0  0  0
 33 68  1  0  0  0  0
 33 73  1  0  0  0  0
 34 35  1  0  0  0  0
 34 36  1  0  0  0  0
 34 38  2  0  0  0  0
 35 37  2  0  0  0  0
 35 47  1  0  0  0  0
 36 69  1  0  0  0  0
 36 79  2  0  0  0  0
 38 63  1  0  0  0  0
 39 74  1  0  0  0  0
 39 80  2  0  0  0  0
 40 56  1  0  0  0  0
 40 76  1  0  0  0  0
 40 81  2  0  0  0  0
 41 64  1  0  0  0  0
 41 70  1  0  0  0  0
 41 82  2  0  0  0  0
 42 65  1  0  0  0  0
 42 77  1  0  0  0  0
 42 83  2  0  0  0  0
 43 71  1  0  0  0  0
 43 75  1  0  0  0  0
 43 84  2  0  0  0  0
 44 48  1  0  0  0  0
 45 56  1  0  0  0  0
 46 70  1  0  0  0  0
 47 52  1  0  0  0  0
 48 50  1  0  0  0  0
 49 51  1  0  0  0  0
 49 53  1  0  0  0  0
 50 55  1  0  0  0  0
 51 57  1  0  0  0  0
 52 69  1  0  0  0  0
 53 71  1  0  0  0  0
 54 57  1  0  0  0  0
 54 71  1  0  0  0  0
 55 76  1  0  0  0  0
 56 70  1  0  0  0  0
 57 68  1  0  0  0  0
 58 65  1  0  0  0  0
 59 66  1  0  0  0  0
 60 66  1  0  0  0  0
 61 66  1  0  0  0  0
 62 78  1  0  0  0  0
 63 86  1  0  0  0  0
 64 66  1  0  0  0  0
 64 77  1  0  0  0  0
 65 78  1  0  0  0  0
 67 68  1  0  0  0  0
M  CHG  1  78   1
M  ISO  4  43 100  63 101  75 100  86 101
M  END
> <Batch ID>
0075

> <Smiles>
C=C1CCN(c2cc(N)cc([100NH:0][100C:0](=O)N3CCCC(n4nc(-c5ccc(Oc6ccc(F)cc6F)cc5)c(C(N)=O)c4N)C3)c2)C(=O)C1=C[101CH2:1][101O:1]c1ccc2c(c1)CN(C(=O)C(NC(=O)C(C)NC)C(C)(C)C)C(C(=O)NC1CCCc3ccccc31)C2

> <Shape>
0.195

> <Color>
0.067

> <Negative vol penalty>
0.000

$$$$

  -OEChem-04042323473D

 88 97  0     1  0  0  0  0  0999 V2000
  -27.3137  -35.8116   19.7147 C   0  0  0  0  0  0  0  0  0  0  0  0
  -27.7024  -34.4965   19.9487 C   0  0  0  0  0  0  0  0  0  0  0  0
  -20.6306  -17.6907   19.7678 C   0  0  0  0  0  0  0  0  0  0  0  0
  -19.3545  -15.6621   20.0732 C   0  0  0  0  0  0  0  0  0  0  0  0
  -26.2026  -36.3366   20.3733 C   0  0  0  0  0  0  0  0  0  0  0  0
  -26.9807  -33.7058   20.8423 C   0  0  0  0  0  0  0  0  0  0  0  0
  -26.0997  -29.0537   19.0460 C   0  0  0  0  0  0  0  0  0  0  0  0
  -19.6138  -18.2098   18.9664 C   0  0  0  0  0  0  0  0  0  0  0  0
  -18.3376  -16.1812   19.2718 C   0  0  0  0  0  0  0  0  0  0  0  0
  -27.1520  -28.1407   19.0993 C   0  0  0  0  0  0  0  0  0  0  0  0
  -16.5851  -19.6475   19.4050 C   0  0  0  0  0  0  0  0  0  0  0  0
  -16.1921  -20.9669   19.6298 C   0  0  0  0  0  0  0  0  0  0  0  0
  -29.4386  -18.2485   18.5007 C   0  0  0  0  0  0  0  0  0  0  0  0
  -26.1902  -27.1568   21.0807 C   0  0  0  0  0  0  0  0  0  0  0  0
  -28.2983  -19.6621   20.6182 C   0  0  0  0  0  0  0  0  0  0  0  0
  -16.8005  -21.5346   17.3616 C   0  0  0  0  0  0  0  0  0  0  0  0
  -20.5010  -16.4169   20.3212 C   0  0  0  0  0  0  0  0  0  0  0  0
  -28.9545  -17.5642   19.6155 C   0  0  0  0  0  0  0  0  0  0  0  0
  -21.6828  -16.0071   22.5445 C   0  0  0  0  0  0  0  0  0  0  0  0
  -25.4612  -35.5490   21.2682 C   0  0  0  0  0  0  0  0  0  0  0  0
  -25.0887  -29.0320   20.0176 C   0  0  0  0  0  0  0  0  0  0  0  0
  -25.8594  -34.2211   21.5145 C   0  0  0  0  0  0  0  0  0  0  0  0
  -25.1248  -28.0689   21.0360 C   0  0  0  0  0  0  0  0  0  0  0  0
  -28.7826  -20.3464   19.5033 C   0  0  0  0  0  0  0  0  0  0  0  0
  -28.3843  -18.2710   20.6743 C   0  0  0  0  0  0  0  0  0  0  0  0
  -18.4673  -17.4550   18.7184 C   0  0  0  0  0  0  0  0  0  0  0  0
  -27.1990  -27.1940   20.1184 C   0  0  0  0  0  0  0  0  0  0  0  0
  -17.0858  -19.2717   18.1585 C   0  0  0  0  0  0  0  0  0  0  0  0
  -16.2998  -21.9104   18.6082 C   0  0  0  0  0  0  0  0  0  0  0  0
  -29.3528  -19.6396   18.4446 C   0  0  0  0  0  0  0  0  0  0  0  0
  -17.1935  -20.2152   17.1368 C   0  0  0  0  0  0  0  0  0  0  0  0
  -21.5513  -15.8799   21.1486 C   0  0  0  0  0  0  0  0  0  0  0  0
  -22.8369  -15.3252   22.8441 C   0  0  0  0  0  0  0  0  0  0  0  0
  -28.5623  -22.5640   18.3139 C   0  0  0  0  0  0  0  0  0  0  0  0
  -29.0631  -16.0829   19.6446 C   0  0  0  0  0  0  0  0  0  0  0  0
  -20.8374  -16.6812   23.4860 C   0  0  0  0  0  0  0  0  0  0  0  0
  -24.0398  -31.0813   22.2094 C   0  0  0  0  0  0  0  0  0  0  0  0
  -21.7414  -28.8344   22.6470 C   0  0  0  0  0  0  0  0  0  0  0  0
  -20.7920  -25.5683   22.3674 C   0  0  0  0  0  0  0  0  0  0  0  0
  -27.7335  -13.9984   19.7466 C   0  0  0  0  0  0  0  0  0  0  0  0
  -24.2956  -36.1749   21.9923 C   0  0  0  0  0  0  0  0  0  0  0  0
  -23.9463  -30.0065   19.9308 C   0  0  0  0  0  0  0  0  0  0  0  0
  -24.0533  -27.9906   22.0917 C   0  0  0  0  0  0  0  0  0  0  0  0
  -23.3624  -35.1553   22.6402 C   0  0  0  0  0  0  0  0  0  0  0  0
  -25.5494  -11.6895   21.2944 C   0  0  0  0  0  0  0  0  0  0  0  0
  -24.1652  -34.1053   23.4017 C   0  0  0  0  0  0  0  0  0  0  0  0
  -24.2913  -12.5154   21.5759 C   0  0  0  0  0  0  0  0  0  0  0  0
  -26.1910  -12.0695   19.9607 C   0  0  0  0  0  0  0  0  0  0  0  0
  -25.2054  -14.3224   20.0648 C   0  0  0  0  0  0  0  0  0  0  0  0
  -28.6248  -22.5876   20.6267 C   0  0  0  0  0  0  0  0  0  0  0  0
  -25.0875  -33.3243   22.4579 C   0  0  1  0  0  0  0  0  0  0  0  0
  -23.2433  -30.2236   21.2672 C   0  0  1  0  0  0  0  0  0  0  0  0
  -24.5619  -14.0263   21.4291 C   0  0  1  0  0  0  0  0  0  0  0  0
  -28.8324  -23.9845   20.0856 C   0  0  2  0  0  0  0  0  0  0  0  0
  -18.8687  -24.0283   22.8434 C   0  0  0  0  0  0  0  0  0  0  0  0
  -22.4621  -28.8547   25.6119 C   0  0  0  0  0  0  0  0  0  0  0  0
  -21.2277  -26.6901   25.8553 C   0  0  0  0  0  0  0  0  0  0  0  0
  -20.0095  -28.7445   25.1352 C   0  0  0  0  0  0  0  0  0  0  0  0
  -20.4864  -24.8772   19.5060 C   0  0  0  0  0  0  0  0  0  0  0  0
  -27.9459  -25.0245   20.7440 C   0  0  0  0  0  0  0  0  0  1  0  0
  -21.5932  -27.6129   23.5216 C   0  0  1  0  0  0  0  0  0  0  0  0
  -19.5312  -24.9297   21.8133 C   0  0  2  0  0  0  0  0  0  0  0  0
  -21.3445  -27.9780   25.0124 C   0  0  0  0  0  0  0  0  0  0  0  0
  -22.5427  -15.1730   20.5996 N   0  0  0  0  0  0  0  0  0  0  0  0
  -23.3082  -14.8499   21.6558 N   0  0  0  0  0  0  0  0  0  0  0  0
  -28.6934  -21.7671   19.4478 N   0  0  0  0  0  0  0  0  0  0  0  0
  -22.9603  -28.9691   21.9674 N   0  0  0  0  0  0  0  0  0  0  0  0
  -26.4234  -13.5138   19.9051 N   0  0  0  0  0  0  0  0  0  0  0  0
  -27.8887  -17.5968   21.8127 N   0  0  0  0  0  0  0  0  0  0  0  0
  -23.4843  -15.0919   24.0055 N   0  0  0  0  0  0  0  0  0  0  0  0
  -19.6912  -17.3313   23.0087 N   0  0  0  0  0  0  0  0  0  0  0  0
  -27.8553  -15.3924   19.7483 N   0  0  0  0  0  0  0  0  0  0  0  0
  -24.3326  -32.3380   21.7151 N   0  0  0  0  0  0  0  0  0  0  0  0
  -20.5374  -26.8057   22.9200 N   0  0  0  0  0  0  0  0  0  0  0  0
  -19.8511  -24.1117   20.6093 N   0  3  0  0  0  0  0  0  0  0  0  0
  -28.4744  -22.2350   17.1394 O   0  0  0  0  0  0  0  0  0  0  0  0
  -30.1702  -15.5623   19.5389 O   0  0  0  0  0  0  0  0  0  0  0  0
  -21.0997  -16.7202   24.7121 O   0  0  0  0  0  0  0  0  0  0  0  0
  -24.3634  -30.6363   23.3044 O   0  0  0  0  0  0  0  0  0  0  0  0
  -20.8073  -29.6358   22.5642 O   0  0  0  0  0  0  0  0  0  0  0  0
  -21.8921  -25.0224   22.3186 O   0  0  0  0  0  0  0  0  0  0  0  0
  -28.7148  -13.2547   19.6504 O   0  0  0  0  0  0  0  0  0  0  0  0
  -28.5071  -23.8858   18.6923 O   0  0  0  0  0  0  0  0  0  0  0  0
  -17.4748  -17.9613   17.9367 O   0  0  0  0  0  0  0  0  0  0  0  0
  -28.2253  -26.3021   20.1731 O   0  0  0  0  0  0  0  0  0  1  0  0
  -15.9210  -23.1769   18.8237 F   0  0  0  0  0  0  0  0  0  0  0  0
  -29.8220  -20.2869   17.3684 F   0  0  0  0  0  0  0  0  0  0  0  0
  -17.6727  -19.8598   15.9369 F   0  0  0  0  0  0  0  0  0  0  0  0
  1  2  1  0  0  0  0
  1  5  2  0  0  0  0
  2  6  2  0  0  0  0
  3  8  2  0  0  0  0
  3 17  1  0  0  0  0
  4  9  1  0  0  0  0
  4 17  2  0  0  0  0
  5 20  1  0  0  0  0
  6 22  1  0  0  0  0
  7 10  2  0  0  0  0
  7 21  1  0  0  0  0
  8 26  1  0  0  0  0
  9 26  2  0  0  0  0
 10 27  1  0  0  0  0
 11 12  2  0  0  0  0
 11 28  1  0  0  0  0
 12 29  1  0  0  0  0
 13 18  2  0  0  0  0
 13 30  1  0  0  0  0
 14 23  1  0  0  0  0
 14 27  2  0  0  0  0
 15 24  1  0  0  0  0
 15 25  2  0  0  0  0
 16 29  2  0  0  0  0
 16 31  1  0  0  0  0
 17 32  1  0  0  0  0
 18 25  1  0  0  0  0
 18 35  1  0  0  0  0
 19 32  1  0  0  0  0
 19 33  2  0  0  0  0
 19 36  1  0  0  0  0
 20 22  2  0  0  0  0
 20 41  1  0  0  0  0
 21 23  2  0  0  0  0
 21 42  1  0  0  0  0
 22 51  1  0  0  0  0
 23 43  1  0  0  0  0
 24 30  2  0  0  0  0
 24 66  1  0  0  0  0
 25 69  1  0  0  0  0
 26 84  1  0  0  0  0
 27 85  1  0  0  0  0
 28 31  2  0  0  0  0
 28 84  1  0  0  0  0
 29 86  1  0  0  0  0
 30 87  1  0  0  0  0
 31 88  1  0  0  0  0
 32 64  2  0  0  0  0
 33 65  1  0  0  0  0
 33 70  1  0  0  0  0
 34 66  1  0  0  0  0
 34 76  2  0  0  0  0
 34 83  1  0  0  0  0
 35 72  1  0  0  0  0
 35 77  2  0  0  0  0
 36 71  1  0  0  0  0
 36 78  2  0  0  0  0
 37 52  1  0  0  0  0
 37 73  1  0  0  0  0
 37 79  2  0  0  0  0
 38 61  1  0  0  0  0
 38 67  1  0  0  0  0
 38 80  2  0  0  0  0
 39 62  1  0  0  0  0
 39 74  1  0  0  0  0
 39 81  2  0  0  0  0
 40 68  1  0  0  0  0
 40 72  1  0  0  0  0
 40 82  2  0  0  0  0
 41 44  1  0  0  0  0
 42 52  1  0  0  0  0
 43 67  1  0  0  0  0
 44 46  1  0  0  0  0
 45 47  1  0  0  0  0
 45 48  1  0  0  0  0
 46 51  1  0  0  0  0
 47 53  1  0  0  0  0
 48 68  1  0  0  0  0
 49 53  1  0  0  0  0
 49 68  1  0  0  0  0
 50 54  1  0  0  0  0
 50 66  1  0  0  0  0
 51 73  1  0  0  0  0
 52 67  1  0  0  0  0
 53 65  1  0  0  0  0
 54 60  1  0  0  0  0
 54 83  1  0  0  0  0
 55 62  1  0  0  0  0
 56 63  1  0  0  0  0
 57 63  1  0  0  0  0
 58 63  1  0  0  0  0
 59 75  1  0  0  0  0
 60 85  1  0  0  0  0
 61 63  1  0  0  0  0
 61 74  1  0  0  0  0
 62 75  1  0  0  0  0
 64 65  1  0  0  0  0
M  CHG  1  75   1
M  ISO  4  40 100  60 101  72 100  85 101
M  END
> <Batch ID>
0075

> <Smiles>
CNC(C)C(=O)NC(C(=O)N1Cc2cc([101O:1][101CH2:1]C3CN(c4cc(N)c(C(=O)[100NH:0][100C:0](=O)N5CCCC(n6nc(-c7ccc(Oc8ccc(F)cc8F)cc7)c(C(N)=O)c6N)C5)cc4F)C(=O)O3)ccc2CC1C(=O)NC1CCCc2ccccc21)C(C)(C)C

> <Shape>
0.237

> <Color>
0.065

> <Negative vol penalty>
0.000

$$$$

  -OEChem-04042323473D

 87 96  0     1  0  0  0  0  0999 V2000
  -28.3952  -33.4794   25.9682 C   0  0  0  0  0  0  0  0  0  0  0  0
  -28.4772  -32.2834   25.2624 C   0  0  0  0  0  0  0  0  0  0  0  0
  -23.0835  -11.7436   22.5520 C   0  0  0  0  0  0  0  0  0  0  0  0
  -23.0742  -14.1549   22.4020 C   0  0  0  0  0  0  0  0  0  0  0  0
  -27.1632  -33.9202   26.4497 C   0  0  0  0  0  0  0  0  0  0  0  0
  -27.3273  -31.5269   25.0385 C   0  0  0  0  0  0  0  0  0  0  0  0
  -27.0093  -29.8389   20.2747 C   0  0  0  0  0  0  0  0  0  0  0  0
  -22.2076  -11.8076   23.6356 C   0  0  0  0  0  0  0  0  0  0  0  0
  -22.1982  -14.2189   23.4856 C   0  0  0  0  0  0  0  0  0  0  0  0
  -27.7920  -28.7358   19.9364 C   0  0  0  0  0  0  0  0  0  0  0  0
  -18.8967  -12.2749   24.1380 C   0  0  0  0  0  0  0  0  0  0  0  0
  -17.8122  -11.3978   24.1476 C   0  0  0  0  0  0  0  0  0  0  0  0
  -25.8672  -27.3025   20.1812 C   0  0  0  0  0  0  0  0  0  0  0  0
  -31.5835  -19.6993   21.2828 C   0  0  0  0  0  0  0  0  0  0  0  0
  -29.7755  -18.3306   20.4493 C   0  0  0  0  0  0  0  0  0  0  0  0
  -31.8962  -17.3190   21.0117 C   0  0  0  0  0  0  0  0  0  0  0  0
  -18.6026  -10.4431   26.2214 C   0  0  0  0  0  0  0  0  0  0  0  0
  -23.5169  -12.9172   21.9352 C   0  0  0  0  0  0  0  0  0  0  0  0
  -24.0833  -12.7658   19.4524 C   0  0  0  0  0  0  0  0  0  0  0  0
  -25.9961  -33.1737   26.2233 C   0  0  0  0  0  0  0  0  0  0  0  0
  -25.6498  -29.6802   20.5798 C   0  0  0  0  0  0  0  0  0  0  0  0
  -26.0788  -31.9576   25.5186 C   0  0  0  0  0  0  0  0  0  0  0  0
  -25.0688  -28.4054   20.5205 C   0  0  0  0  0  0  0  0  0  0  0  0
  -30.2739  -19.5803   20.8174 C   0  0  0  0  0  0  0  0  0  0  0  0
  -32.3946  -18.5687   21.3799 C   0  0  0  0  0  0  0  0  0  0  0  0
  -30.5866  -17.1999   20.5464 C   0  0  0  0  0  0  0  0  0  0  0  0
  -21.7649  -13.0452   24.1024 C   0  0  0  0  0  0  0  0  0  0  0  0
  -27.2217  -27.4670   19.8924 C   0  0  0  0  0  0  0  0  0  0  0  0
  -19.8343  -12.2361   25.1701 C   0  0  0  0  0  0  0  0  0  0  0  0
  -17.6651  -10.4819   25.1893 C   0  0  0  0  0  0  0  0  0  0  0  0
  -19.6872  -11.3202   26.2118 C   0  0  0  0  0  0  0  0  0  0  0  0
  -24.4222  -12.8518   20.8161 C   0  0  0  0  0  0  0  0  0  0  0  0
  -25.2914  -12.7308   18.8000 C   0  0  0  0  0  0  0  0  0  0  0  0
  -29.7992  -22.0602   21.0519 C   0  0  0  0  0  0  0  0  0  0  0  0
  -22.7919  -12.7217   18.8311 C   0  0  0  0  0  0  0  0  0  0  0  0
  -23.8507  -30.2075   23.1467 C   0  0  0  0  0  0  0  0  0  0  0  0
  -21.4326  -29.4210   21.1327 C   0  0  0  0  0  0  0  0  0  0  0  0
  -20.4300  -27.7922   18.3063 C   0  0  0  0  0  0  0  0  0  0  0  0
  -30.7509  -14.7088   20.2093 C   0  0  0  0  0  0  0  0  0  0  0  0
  -24.6946  -33.6671   26.8041 C   0  0  0  0  0  0  0  0  0  0  0  0
  -24.8130  -30.8838   20.9168 C   0  0  0  0  0  0  0  0  0  0  0  0
  -23.6093  -28.1844   20.8196 C   0  0  0  0  0  0  0  0  0  0  0  0
  -23.4644  -32.9943   26.2007 C   0  0  0  0  0  0  0  0  0  0  0  0
  -29.8393  -11.3607   19.4116 C   0  0  0  0  0  0  0  0  0  0  0  0
  -23.6616  -31.4832   26.1332 C   0  0  0  0  0  0  0  0  0  0  0  0
  -28.3153  -11.3569   19.5512 C   0  0  0  0  0  0  0  0  0  0  0  0
  -27.6766  -22.0844   19.9677 C   0  0  0  0  0  0  0  0  0  0  0  0
  -30.5028  -12.2493   20.4623 C   0  0  0  0  0  0  0  0  0  0  0  0
  -28.0591  -20.6528   20.2907 C   0  0  0  0  0  0  0  0  0  0  0  0
  -28.4659  -13.6199   20.6661 C   0  0  0  0  0  0  0  0  0  0  0  0
  -24.8500  -31.1214   25.2341 C   0  0  1  0  0  0  0  0  0  0  0  0
  -23.5573  -30.5354   21.7101 C   0  0  1  0  0  0  0  0  0  0  0  0
  -27.7492  -12.7900   19.5886 C   0  0  2  0  0  0  0  0  0  0  0  0
  -28.5440  -22.9203   20.9124 C   0  0  1  0  0  0  0  0  0  0  0  0
  -27.8908  -23.0749   22.2908 C   0  0  0  0  0  0  0  0  0  0  0  0
  -18.3854  -27.2983   16.9376 C   0  0  0  0  0  0  0  0  0  0  0  0
  -20.5546  -27.3514   23.1956 C   0  0  0  0  0  0  0  0  0  0  0  0
  -19.1548  -26.2771   21.4195 C   0  0  0  0  0  0  0  0  0  0  0  0
  -18.6822  -28.6213   22.1297 C   0  0  0  0  0  0  0  0  0  0  0  0
  -21.5437  -29.1676   15.9342 C   0  0  0  0  0  0  0  0  0  0  0  0
  -28.8653  -24.2898   20.3189 C   0  0  0  0  0  0  0  0  0  0  0  0
  -27.6135  -25.1336   20.1328 C   0  0  0  0  0  0  0  0  0  1  0  0
  -20.7403  -28.1373   20.7433 C   0  0  1  0  0  0  0  0  0  0  0  0
  -19.5648  -28.2367   17.1408 C   0  0  2  0  0  0  0  0  0  0  0  0
  -19.8110  -27.6003   21.8682 C   0  0  0  0  0  0  0  0  0  0  0  0
  -25.7422  -12.8700   21.0192 N   0  0  0  0  0  0  0  0  0  0  0  0
  -26.2434  -12.7950   19.7746 N   0  0  0  0  0  0  0  0  0  0  0  0
  -29.4426  -20.7369   20.7189 N   0  0  0  0  0  0  0  0  0  0  0  0
  -22.8342  -29.3917   21.1502 N   0  0  0  0  0  0  0  0  0  0  0  0
  -29.9190  -13.5921   20.4364 N   0  0  0  0  0  0  0  0  0  0  0  0
  -33.7188  -18.6884   21.8503 N   0  0  0  0  0  0  0  0  0  0  0  0
  -25.6217  -12.6515   17.4934 N   0  0  0  0  0  0  0  0  0  0  0  0
  -21.6549  -12.7675   19.6492 N   0  0  0  0  0  0  0  0  0  0  0  0
  -30.0794  -15.9304   20.1739 N   0  0  0  0  0  0  0  0  0  0  0  0
  -24.4784  -31.2253   23.8392 N   0  0  0  0  0  0  0  0  0  0  0  0
  -20.0577  -28.4077   19.4826 N   0  0  0  0  0  0  0  0  0  0  0  0
  -20.3644  -28.2656   15.8835 N   0  3  0  0  0  0  0  0  0  0  0  0
  -30.8688  -22.5022   21.4481 O   0  0  0  0  0  0  0  0  0  0  0  0
  -22.6506  -12.6275   17.5882 O   0  0  0  0  0  0  0  0  0  0  0  0
  -23.5300  -29.1127   23.5943 O   0  0  0  0  0  0  0  0  0  0  0  0
  -20.7548  -30.4153   21.4041 O   0  0  0  0  0  0  0  0  0  0  0  0
  -21.3422  -26.9775   18.1859 O   0  0  0  0  0  0  0  0  0  0  0  0
  -31.9655  -14.5875   20.0302 O   0  0  0  0  0  0  0  0  0  0  0  0
  -20.9100  -13.1080   25.1596 O   0  0  0  0  0  0  0  0  0  0  0  0
  -27.9836  -26.3886   19.5632 O   0  0  0  0  0  0  0  0  0  1  0  0
  -16.6228   -9.6408   25.1992 F   0  0  0  0  0  0  0  0  0  0  0  0
  -20.5840  -11.2790   27.2068 F   0  0  0  0  0  0  0  0  0  0  0  0
  1  2  1  0  0  0  0
  1  5  2  0  0  0  0
  2  6  2  0  0  0  0
  3  8  2  0  0  0  0
  3 18  1  0  0  0  0
  4  9  1  0  0  0  0
  4 18  2  0  0  0  0
  5 20  1  0  0  0  0
  6 22  1  0  0  0  0
  7 10  2  0  0  0  0
  7 21  1  0  0  0  0
  8 27  1  0  0  0  0
  9 27  2  0  0  0  0
 10 28  1  0  0  0  0
 11 12  2  0  0  0  0
 11 29  1  0  0  0  0
 12 30  1  0  0  0  0
 13 23  1  0  0  0  0
 13 28  2  0  0  0  0
 14 24  1  0  0  0  0
 14 25  2  0  0  0  0
 15 24  2  0  0  0  0
 15 26  1  0  0  0  0
 16 25  1  0  0  0  0
 16 26  2  0  0  0  0
 17 30  2  0  0  0  0
 17 31  1  0  0  0  0
 18 32  1  0  0  0  0
 19 32  1  0  0  0  0
 19 33  2  0  0  0  0
 19 35  1  0  0  0  0
 20 22  2  0  0  0  0
 20 40  1  0  0  0  0
 21 23  2  0  0  0  0
 21 41  1  0  0  0  0
 22 51  1  0  0  0  0
 23 42  1  0  0  0  0
 24 68  1  0  0  0  0
 25 71  1  0  0  0  0
 26 74  1  0  0  0  0
 27 84  1  0  0  0  0
 28 85  1  0  0  0  0
 29 31  2  0  0  0  0
 29 84  1  0  0  0  0
 30 86  1  0  0  0  0
 31 87  1  0  0  0  0
 32 66  2  0  0  0  0
 33 67  1  0  0  0  0
 33 72  1  0  0  0  0
 34 54  1  0  0  0  0
 34 68  1  0  0  0  0
 34 78  2  0  0  0  0
 35 73  1  0  0  0  0
 35 79  2  0  0  0  0
 36 52  1  0  0  0  0
 36 75  1  0  0  0  0
 36 80  2  0  0  0  0
 37 63  1  0  0  0  0
 37 69  1  0  0  0  0
 37 81  2  0  0  0  0
 38 64  1  0  0  0  0
 38 76  1  0  0  0  0
 38 82  2  0  0  0  0
 39 70  1  0  0  0  0
 39 74  1  0  0  0  0
 39 83  2  0  0  0  0
 40 43  1  0  0  0  0
 41 52  1  0  0  0  0
 42 69  1  0  0  0  0
 43 45  1  0  0  0  0
 44 46  1  0  0  0  0
 44 48  1  0  0  0  0
 45 51  1  0  0  0  0
 46 53  1  0  0  0  0
 47 49  1  0  0  0  0
 47 54  1  0  0  0  0
 48 70  1  0  0  0  0
 49 68  1  0  0  0  0
 50 53  1  0  0  0  0
 50 70  1  0  0  0  0
 51 75  1  0  0  0  0
 52 69  1  0  0  0  0
 53 67  1  0  0  0  0
 54 55  1  0  0  0  0
 54 61  1  0  0  0  0
 56 64  1  0  0  0  0
 57 65  1  0  0  0  0
 58 65  1  0  0  0  0
 59 65  1  0  0  0  0
 60 77  1  0  0  0  0
 61 62  1  0  0  0  0
 62 85  1  0  0  0  0
 63 65  1  0  0  0  0
 63 76  1  0  0  0  0
 64 77  1  0  0  0  0
 66 67  1  0  0  0  0
M  CHG  1  77   1
M  ISO  4  39 100  62 101  74 100  85 101
M  END
> <Batch ID>
0075

> <Smiles>
CNC(C)C(=O)NC(C(=O)N1Cc2cc([101O:1][101CH2:1]CC3(C)CCN(c4cc(N)cc([100NH:0][100C:0](=O)N5CCCC(n6nc(-c7ccc(Oc8ccc(F)cc8F)cc7)c(C(N)=O)c6N)C5)c4)C3=O)ccc2CC1C(=O)NC1CCCc2ccccc21)C(C)(C)C

> <Shape>
0.305

> <Color>
0.100

> <Negative vol penalty>
0.000

$$$$

  -OEChem-04042323473D

 86 95  0     1  0  0  0  0  0999 V2000
  -29.2296  -35.1847   25.4578 C   0  0  0  0  0  0  0  0  0  0  0  0
  -29.4865  -34.0890   24.6399 C   0  0  0  0  0  0  0  0  0  0  0  0
  -24.7670  -16.8629   19.1521 C   0  0  0  0  0  0  0  0  0  0  0  0
  -25.6185  -16.2454   21.3271 C   0  0  0  0  0  0  0  0  0  0  0  0
  -28.0610  -35.2274   26.2172 C   0  0  0  0  0  0  0  0  0  0  0  0
  -28.5755  -33.0349   24.5818 C   0  0  0  0  0  0  0  0  0  0  0  0
  -27.2313  -29.5962   19.6956 C   0  0  0  0  0  0  0  0  0  0  0  0
  -30.3927  -21.3318   16.2807 C   0  0  0  0  0  0  0  0  0  0  0  0
  -31.0843  -20.1905   15.8751 C   0  0  0  0  0  0  0  0  0  0  0  0
  -23.6896  -15.9946   19.3273 C   0  0  0  0  0  0  0  0  0  0  0  0
  -24.5411  -15.3770   21.5023 C   0  0  0  0  0  0  0  0  0  0  0  0
  -27.6647  -28.3353   19.2881 C   0  0  0  0  0  0  0  0  0  0  0  0
  -22.2083  -12.7291   22.3722 C   0  0  0  0  0  0  0  0  0  0  0  0
  -22.4765  -11.4570   22.8776 C   0  0  0  0  0  0  0  0  0  0  0  0
  -25.7101  -27.3443   20.2963 C   0  0  0  0  0  0  0  0  0  0  0  0
  -28.3338  -20.3799   15.4487 C   0  0  0  0  0  0  0  0  0  0  0  0
  -23.9119  -11.0083   20.9867 C   0  0  0  0  0  0  0  0  0  0  0  0
  -25.7315  -16.9883   20.1520 C   0  0  0  0  0  0  0  0  0  0  0  0
  -26.9093  -19.2440   20.3322 C   0  0  0  0  0  0  0  0  0  0  0  0
  -27.1306  -34.1778   26.1609 C   0  0  0  0  0  0  0  0  0  0  0  0
  -26.0375  -29.7397   20.4172 C   0  0  0  0  0  0  0  0  0  0  0  0
  -27.3941  -33.0631   25.3421 C   0  0  0  0  0  0  0  0  0  0  0  0
  -25.2624  -28.6084   20.7095 C   0  0  0  0  0  0  0  0  0  0  0  0
  -29.0255  -19.2386   15.0430 C   0  0  0  0  0  0  0  0  0  0  0  0
  -29.0174  -21.4266   16.0675 C   0  0  0  0  0  0  0  0  0  0  0  0
  -30.4008  -19.1439   15.2562 C   0  0  0  0  0  0  0  0  0  0  0  0
  -23.5766  -15.2516   20.5024 C   0  0  0  0  0  0  0  0  0  0  0  0
  -26.9055  -27.2088   19.5909 C   0  0  0  0  0  0  0  0  0  0  0  0
  -22.7919  -13.1408   21.1740 C   0  0  0  0  0  0  0  0  0  0  0  0
  -23.3283  -10.5966   22.1849 C   0  0  0  0  0  0  0  0  0  0  0  0
  -23.6437  -12.2804   20.4813 C   0  0  0  0  0  0  0  0  0  0  0  0
  -26.8450  -17.8848   19.9713 C   0  0  0  0  0  0  0  0  0  0  0  0
  -28.1684  -19.6407   19.9529 C   0  0  0  0  0  0  0  0  0  0  0  0
  -28.8467  -23.6688   17.0882 C   0  0  0  0  0  0  0  0  0  0  0  0
  -27.9068  -24.5889   17.3447 C   0  0  0  0  0  0  0  0  0  0  0  0
  -26.6297  -24.0806   16.8675 C   0  0  0  0  0  0  0  0  0  0  0  0
  -25.4380  -24.6832   16.9277 C   0  0  0  0  0  0  0  0  0  0  0  0
  -25.9196  -20.0737   20.9548 C   0  0  0  0  0  0  0  0  0  0  0  0
  -25.2817  -30.8107   23.3129 C   0  0  0  0  0  0  0  0  0  0  0  0
  -22.2460  -30.3829   22.2526 C   0  0  0  0  0  0  0  0  0  0  0  0
  -20.1236  -28.7850   20.1105 C   0  0  0  0  0  0  0  0  0  0  0  0
  -31.8519  -17.1565   15.7417 C   0  0  0  0  0  0  0  0  0  0  0  0
  -25.9042  -34.2471   27.0360 C   0  0  0  0  0  0  0  0  0  0  0  0
  -25.5703  -31.1097   20.8263 C   0  0  0  0  0  0  0  0  0  0  0  0
  -23.9630  -28.7108   21.4642 C   0  0  0  0  0  0  0  0  0  0  0  0
  -26.8843  -22.7063   16.2702 C   0  0  0  0  0  0  0  0  0  0  0  0
  -24.8110  -33.2613   26.6318 C   0  0  0  0  0  0  0  0  0  0  0  0
  -32.5978  -17.9782   19.2717 C   0  0  0  0  0  0  0  0  0  0  0  0
  -25.4046  -31.8783   26.3833 C   0  0  0  0  0  0  0  0  0  0  0  0
  -31.2080  -18.0789   19.8976 C   0  0  0  0  0  0  0  0  0  0  0  0
  -32.6181  -17.0139   18.0896 C   0  0  0  0  0  0  0  0  0  0  0  0
  -30.2141  -17.4402   17.6648 C   0  0  0  0  0  0  0  0  0  0  0  0
  -26.4183  -31.9116   25.2331 C   0  0  1  0  0  0  0  0  0  0  0  0
  -24.5990  -31.0832   22.0024 C   0  0  1  0  0  0  0  0  0  0  0  0
  -30.1582  -18.4363   18.8326 C   0  0  1  0  0  0  0  0  0  0  0  0
  -28.2675  -18.1322   14.3839 C   0  0  0  0  0  0  0  0  0  0  0  0
  -17.6939  -28.6151   19.5062 C   0  0  0  0  0  0  0  0  0  0  0  0
  -21.7469  -28.6940   24.7443 C   0  0  0  0  0  0  0  0  0  0  0  0
  -19.6879  -27.7964   23.6384 C   0  0  0  0  0  0  0  0  0  0  0  0
  -19.8729  -30.2339   24.1352 C   0  0  0  0  0  0  0  0  0  0  0  0
  -31.3545  -17.7679   13.4156 C   0  0  0  0  0  0  0  0  0  0  0  0
  -20.6251  -29.7252   17.3494 C   0  0  0  0  0  0  0  0  0  0  0  0
  -28.1005  -25.9087   17.9979 C   0  0  0  0  0  0  0  0  0  1  0  0
  -21.2590  -29.2407   22.2686 C   0  0  1  0  0  0  0  0  0  0  0  0
  -19.0159  -29.3074   19.2135 C   0  0  2  0  0  0  0  0  0  0  0  0
  -20.6671  -28.9888   23.6841 C   0  0  0  0  0  0  0  0  0  0  0  0
  -27.9733  -17.4474   19.4059 N   0  0  0  0  0  0  0  0  0  0  0  0
  -28.7585  -18.5381   19.4087 N   0  0  0  0  0  0  0  0  0  0  0  0
  -28.3372  -22.5491   16.4671 N   0  0  0  0  0  0  0  0  0  0  0  0
  -23.5518  -30.0714   21.8480 N   0  0  0  0  0  0  0  0  0  0  0  0
  -31.5744  -17.3301   17.1132 N   0  0  0  0  0  0  0  0  0  0  0  0
  -28.8171  -20.8217   20.0350 N   0  0  0  0  0  0  0  0  0  0  0  0
  -24.6796  -19.5062   21.2784 N   0  0  0  0  0  0  0  0  0  0  0  0
  -25.7348  -31.9457   23.9579 N   0  0  0  0  0  0  0  0  0  0  0  0
  -20.2612  -29.5492   21.2499 N   0  0  0  0  0  0  0  0  0  0  0  0
  -31.1339  -17.9714   14.8457 N   0  0  0  0  0  0  0  0  0  0  0  0
  -19.3586  -29.0798   17.7811 N   0  3  0  0  0  0  0  0  0  0  0  0
  -26.1227  -21.2867   21.2016 O   0  0  0  0  0  0  0  0  0  0  0  0
  -25.3880  -29.6564   23.7102 O   0  0  0  0  0  0  0  0  0  0  0  0
  -21.8705  -31.5113   22.5800 O   0  0  0  0  0  0  0  0  0  0  0  0
  -20.7967  -27.7956   19.8303 O   0  0  0  0  0  0  0  0  0  0  0  0
  -32.6438  -16.2959   15.3381 O   0  0  0  0  0  0  0  0  0  0  0  0
  -22.5253  -14.4043   20.6739 O   0  0  0  0  0  0  0  0  0  0  0  0
  -27.3266  -25.9768   19.1949 O   0  0  0  0  0  0  0  0  0  1  0  0
  -23.5869   -9.3756   22.6712 F   0  0  0  0  0  0  0  0  0  0  0  0
  -24.2082  -12.6708   19.3303 F   0  0  0  0  0  0  0  0  0  0  0  0
  1  2  1  0  0  0  0
  1  5  2  0  0  0  0
  2  6  2  0  0  0  0
  3 10  2  0  0  0  0
  3 18  1  0  0  0  0
  4 11  1  0  0  0  0
  4 18  2  0  0  0  0
  5 20  1  0  0  0  0
  6 22  1  0  0  0  0
  7 12  2  0  0  0  0
  7 21  1  0  0  0  0
  8  9  2  0  0  0  0
  8 25  1  0  0  0  0
  9 26  1  0  0  0  0
 10 27  1  0  0  0  0
 11 27  2  0  0  0  0
 12 28  1  0  0  0  0
 13 14  2  0  0  0  0
 13 29  1  0  0  0  0
 14 30  1  0  0  0  0
 15 23  1  0  0  0  0
 15 28  2  0  0  0  0
 16 24  1  0  0  0  0
 16 25  2  0  0  0  0
 17 30  2  0  0  0  0
 17 31  1  0  0  0  0
 18 32  1  0  0  0  0
 19 32  1  0  0  0  0
 19 33  2  0  0  0  0
 19 38  1  0  0  0  0
 20 22  2  0  0  0  0
 20 43  1  0  0  0  0
 21 23  2  0  0  0  0
 21 44  1  0  0  0  0
 22 53  1  0  0  0  0
 23 45  1  0  0  0  0
 24 26  2  0  0  0  0
 24 56  1  0  0  0  0
 25 69  1  0  0  0  0
 26 76  1  0  0  0  0
 27 83  1  0  0  0  0
 28 84  1  0  0  0  0
 29 31  2  0  0  0  0
 29 83  1  0  0  0  0
 30 85  1  0  0  0  0
 31 86  1  0  0  0  0
 32 67  2  0  0  0  0
 33 68  1  0  0  0  0
 33 72  1  0  0  0  0
 34 35  2  0  0  0  0
 34 69  1  0  0  0  0
 35 36  1  0  0  0  0
 35 63  1  0  0  0  0
 36 37  2  0  0  0  0
 36 46  1  0  0  0  0
 38 73  1  0  0  0  0
 38 78  2  0  0  0  0
 39 54  1  0  0  0  0
 39 74  1  0  0  0  0
 39 79  2  0  0  0  0
 40 64  1  0  0  0  0
 40 70  1  0  0  0  0
 40 80  2  0  0  0  0
 41 65  1  0  0  0  0
 41 75  1  0  0  0  0
 41 81  2  0  0  0  0
 42 71  1  0  0  0  0
 42 76  1  0  0  0  0
 42 82  2  0  0  0  0
 43 47  1  0  0  0  0
 44 54  1  0  0  0  0
 45 70  1  0  0  0  0
 46 69  1  0  0  0  0
 47 49  1  0  0  0  0
 48 50  1  0  0  0  0
 48 51  1  0  0  0  0
 49 53  1  0  0  0  0
 50 55  1  0  0  0  0
 51 71  1  0  0  0  0
 52 55  1  0  0  0  0
 52 71  1  0  0  0  0
 53 74  1  0  0  0  0
 54 70  1  0  0  0  0
 55 68  1  0  0  0  0
 57 65  1  0  0  0  0
 58 66  1  0  0  0  0
 59 66  1  0  0  0  0
 60 66  1  0  0  0  0
 61 76  1  0  0  0  0
 62 77  1  0  0  0  0
 63 84  1  0  0  0  0
 64 66  1  0  0  0  0
 64 75  1  0  0  0  0
 65 77  1  0  0  0  0
 67 68  1  0  0  0  0
M  CHG  1  77   1
M  ISO  4  42 100  63 101  76 100  84 101
M  END
> <Batch ID>
0075

> <Smiles>
C=C1CN(c2ccc([100N:0](C)[100C:0](=O)N3CCCC(n4nc(-c5ccc(Oc6ccc(F)cc6F)cc5)c(C(N)=O)c4N)C3)c(C)c2)C=C1[101CH2:1][101O:1]c1ccc2c(c1)CN(C(=O)C(NC(=O)C(C)NC)C(C)(C)C)C(C(=O)NC1CCCc3ccccc31)C2

> <Shape>
0.245

> <Color>
0.069

> <Negative vol penalty>
0.000

$$$$

  -OEChem-04042323473D

 87 95  0     1  0  0  0  0  0999 V2000
  -26.6186  -19.2148   19.1843 C   0  0  0  0  0  0  0  0  0  0  0  0
  -27.3932  -19.4112   20.3231 C   0  0  0  0  0  0  0  0  0  0  0  0
  -23.0749   -9.8680   19.9417 C   0  0  0  0  0  0  0  0  0  0  0  0
  -23.8326   -9.8770   22.2358 C   0  0  0  0  0  0  0  0  0  0  0  0
  -27.1257  -19.5540   17.9306 C   0  0  0  0  0  0  0  0  0  0  0  0
  -28.6760  -19.9460   20.2087 C   0  0  0  0  0  0  0  0  0  0  0  0
  -29.6014  -23.5309   23.6637 C   0  0  0  0  0  0  0  0  0  0  0  0
  -22.3307   -8.7151   20.1920 C   0  0  0  0  0  0  0  0  0  0  0  0
  -23.0884   -8.7241   22.4861 C   0  0  0  0  0  0  0  0  0  0  0  0
  -29.9017  -23.1062   24.9572 C   0  0  0  0  0  0  0  0  0  0  0  0
  -19.3810   -7.9200   21.6411 C   0  0  0  0  0  0  0  0  0  0  0  0
  -18.0746   -7.8735   21.1546 C   0  0  0  0  0  0  0  0  0  0  0  0
  -30.4656  -18.3460   24.0434 C   0  0  0  0  0  0  0  0  0  0  0  0
  -32.2492  -23.4448   24.5170 C   0  0  0  0  0  0  0  0  0  0  0  0
  -32.0602  -16.6098   22.5515 C   0  0  0  0  0  0  0  0  0  0  0  0
  -18.6354   -5.9292   19.8347 C   0  0  0  0  0  0  0  0  0  0  0  0
  -23.8259  -10.4489   20.9636 C   0  0  0  0  0  0  0  0  0  0  0  0
  -31.8514  -18.3624   24.2013 C   0  0  0  0  0  0  0  0  0  0  0  0
  -24.1680  -12.9739   20.8416 C   0  0  0  0  0  0  0  0  0  0  0  0
  -28.4116  -20.1022   17.8017 C   0  0  0  0  0  0  0  0  0  0  0  0
  -30.6253  -23.9060   22.7820 C   0  0  0  0  0  0  0  0  0  0  0  0
  -29.2013  -20.2916   18.9519 C   0  0  0  0  0  0  0  0  0  0  0  0
  -31.9591  -23.8764   23.2137 C   0  0  0  0  0  0  0  0  0  0  0  0
  -32.6487  -17.4944   23.4554 C   0  0  0  0  0  0  0  0  0  0  0  0
  -30.6744  -16.5932   22.3937 C   0  0  0  0  0  0  0  0  0  0  0  0
  -22.3374   -8.1432   21.4641 C   0  0  0  0  0  0  0  0  0  0  0  0
  -31.2259  -23.0603   25.3831 C   0  0  0  0  0  0  0  0  0  0  0  0
  -20.3147   -6.9712   21.2243 C   0  0  0  0  0  0  0  0  0  0  0  0
  -17.7018   -6.8780   20.2515 C   0  0  0  0  0  0  0  0  0  0  0  0
  -29.8771  -17.4613   23.1396 C   0  0  0  0  0  0  0  0  0  0  0  0
  -19.9419   -5.9758   20.3211 C   0  0  0  0  0  0  0  0  0  0  0  0
  -24.5953  -11.6395   20.7055 C   0  0  0  0  0  0  0  0  0  0  0  0
  -25.2606  -13.7230   20.4788 C   0  0  0  0  0  0  0  0  0  0  0  0
  -32.4461  -19.3153   25.1737 C   0  0  0  0  0  0  0  0  0  0  0  0
  -22.8972  -13.4902   21.2589 C   0  0  0  0  0  0  0  0  0  0  0  0
  -31.6745  -22.8377   19.9782 C   0  0  0  0  0  0  0  0  0  0  0  0
  -33.5779  -25.4600   20.1314 C   0  0  0  0  0  0  0  0  0  0  0  0
  -35.1235  -27.8090   22.0652 C   0  0  0  0  0  0  0  0  0  0  0  0
  -30.7267  -14.7684   20.6578 C   0  0  0  0  0  0  0  0  0  0  0  0
  -28.9348  -20.4092   16.4209 C   0  0  0  0  0  0  0  0  0  0  0  0
  -30.2829  -24.3873   21.3987 C   0  0  0  0  0  0  0  0  0  0  0  0
  -33.0936  -24.2880   22.3125 C   0  0  0  0  0  0  0  0  0  0  0  0
  -30.1604  -21.3193   16.4224 C   0  0  0  0  0  0  0  0  0  0  0  0
  -29.6144  -12.3525   18.2906 C   0  0  0  0  0  0  0  0  0  0  0  0
  -31.1767  -20.8444   17.4560 C   0  0  0  0  0  0  0  0  0  0  0  0
  -28.1743  -12.0614   18.7190 C   0  0  0  0  0  0  0  0  0  0  0  0
  -30.5283  -12.5823   19.4929 C   0  0  0  0  0  0  0  0  0  0  0  0
  -28.6201  -13.3082   20.8717 C   0  0  0  0  0  0  0  0  0  0  0  0
  -30.5879  -20.8923   18.8711 C   0  0  1  0  0  0  0  0  0  0  0  0
  -31.4426  -24.2561   20.4163 C   0  0  1  0  0  0  0  0  0  0  0  0
  -27.6484  -13.1339   19.6931 C   0  0  2  0  0  0  0  0  0  0  0  0
  -36.6421  -29.8007   21.9085 C   0  0  0  0  0  0  0  0  0  0  0  0
  -35.9564  -23.6066   19.6648 C   0  0  0  0  0  0  0  0  0  0  0  0
  -37.4573  -25.4483   20.4546 C   0  0  0  0  0  0  0  0  0  0  0  0
  -36.0586  -25.7700   18.4143 C   0  0  0  0  0  0  0  0  0  0  0  0
  -31.9745  -21.6993   29.3784 C   0  0  0  0  0  0  0  0  0  0  0  0
  -30.3633  -19.8382   28.8894 C   0  0  0  0  0  0  0  0  0  0  0  0
  -33.0865  -29.6009   23.2478 C   0  0  0  0  0  0  0  0  0  0  0  0
  -32.5089  -20.0337   27.5477 C   0  0  0  0  0  0  0  0  0  0  0  0
  -30.6380  -21.6967   27.2408 C   0  0  0  0  0  0  0  0  0  1  0  0
  -34.9505  -25.7537   20.6868 C   0  0  1  0  0  0  0  0  0  0  0  0
  -35.1996  -29.3205   21.9460 C   0  0  2  0  0  0  0  0  0  0  0  0
  -36.0847  -25.1350   19.8217 C   0  0  0  0  0  0  0  0  0  0  0  0
  -31.3815  -20.8115   28.2676 C   0  0  0  0  0  0  0  0  0  0  0  0
  -25.8606  -11.5432   20.2885 N   0  0  0  0  0  0  0  0  0  0  0  0
  -26.2377  -12.8266   20.1594 N   0  0  0  0  0  0  0  0  0  0  0  0
  -32.7082  -24.7452   20.9672 N   0  0  0  0  0  0  0  0  0  0  0  0
  -29.9686  -13.6140   20.3688 N   0  0  0  0  0  0  0  0  0  0  0  0
  -34.0540  -17.4949   23.6011 N   0  0  0  0  0  0  0  0  0  0  0  0
  -25.4711  -15.0544   20.4047 N   0  0  0  0  0  0  0  0  0  0  0  0
  -21.8849  -12.5814   21.5960 N   0  0  0  0  0  0  0  0  0  0  0  0
  -30.0786  -15.6942   21.4747 N   0  0  0  0  0  0  0  0  0  0  0  0
  -32.0409  -19.1722   26.4950 N   0  0  0  0  0  0  0  0  0  0  0  0
  -30.5813  -22.2508   19.3701 N   0  0  0  0  0  0  0  0  0  0  0  0
  -35.0314  -27.2033   20.8300 N   0  0  0  0  0  0  0  0  0  0  0  0
  -34.5192  -29.9663   23.1040 N   0  3  0  0  0  0  0  0  0  0  0  0
  -33.2289  -20.1722   24.7719 O   0  0  0  0  0  0  0  0  0  0  0  0
  -22.6610  -14.7209   21.3149 O   0  0  0  0  0  0  0  0  0  0  0  0
  -32.7651  -22.3149   20.1758 O   0  0  0  0  0  0  0  0  0  0  0  0
  -33.2855  -25.8565   19.0005 O   0  0  0  0  0  0  0  0  0  0  0  0
  -35.1474  -27.2240   23.1458 O   0  0  0  0  0  0  0  0  0  0  0  0
  -31.8562  -14.9366   20.1911 O   0  0  0  0  0  0  0  0  0  0  0  0
  -21.6111   -7.0183   21.7088 O   0  0  0  0  0  0  0  0  0  0  0  0
  -31.5218  -22.6455   26.6449 O   0  0  0  0  0  0  0  0  0  1  0  0
  -16.4468   -6.8325   19.7856 F   0  0  0  0  0  0  0  0  0  0  0  0
  -28.5441  -17.4537   22.9966 F   0  0  0  0  0  0  0  0  0  0  0  0
  -20.8342   -5.0608   19.9180 F   0  0  0  0  0  0  0  0  0  0  0  0
  1  2  1  0  0  0  0
  1  5  2  0  0  0  0
  2  6  2  0  0  0  0
  3  8  2  0  0  0  0
  3 17  1  0  0  0  0
  4  9  1  0  0  0  0
  4 17  2  0  0  0  0
  5 20  1  0  0  0  0
  6 22  1  0  0  0  0
  7 10  2  0  0  0  0
  7 21  1  0  0  0  0
  8 26  1  0  0  0  0
  9 26  2  0  0  0  0
 10 27  1  0  0  0  0
 11 12  2  0  0  0  0
 11 28  1  0  0  0  0
 12 29  1  0  0  0  0
 13 18  1  0  0  0  0
 13 30  2  0  0  0  0
 14 23  1  0  0  0  0
 14 27  2  0  0  0  0
 15 24  1  0  0  0  0
 15 25  2  0  0  0  0
 16 29  2  0  0  0  0
 16 31  1  0  0  0  0
 17 32  1  0  0  0  0
 18 24  2  0  0  0  0
 18 34  1  0  0  0  0
 19 32  1  0  0  0  0
 19 33  2  0  0  0  0
 19 35  1  0  0  0  0
 20 22  2  0  0  0  0
 20 40  1  0  0  0  0
 21 23  2  0  0  0  0
 21 41  1  0  0  0  0
 22 49  1  0  0  0  0
 23 42  1  0  0  0  0
 24 69  1  0  0  0  0
 25 30  1  0  0  0  0
 25 72  1  0  0  0  0
 26 83  1  0  0  0  0
 27 84  1  0  0  0  0
 28 31  2  0  0  0  0
 28 83  1  0  0  0  0
 29 85  1  0  0  0  0
 30 86  1  0  0  0  0
 31 87  1  0  0  0  0
 32 65  2  0  0  0  0
 33 66  1  0  0  0  0
 33 70  1  0  0  0  0
 34 73  1  0  0  0  0
 34 77  2  0  0  0  0
 35 71  1  0  0  0  0
 35 78  2  0  0  0  0
 36 50  1  0  0  0  0
 36 74  1  0  0  0  0
 36 79  2  0  0  0  0
 37 61  1  0  0  0  0
 37 67  1  0  0  0  0
 37 80  2  0  0  0  0
 38 62  1  0  0  0  0
 38 75  1  0  0  0  0
 38 81  2  0  0  0  0
 39 68  1  0  0  0  0
 39 72  1  0  0  0  0
 39 82  2  0  0  0  0
 40 43  1  0  0  0  0
 41 50  1  0  0  0  0
 42 67  1  0  0  0  0
 43 45  1  0  0  0  0
 44 46  1  0  0  0  0
 44 47  1  0  0  0  0
 45 49  1  0  0  0  0
 46 51  1  0  0  0  0
 47 68  1  0  0  0  0
 48 51  1  0  0  0  0
 48 68  1  0  0  0  0
 49 74  1  0  0  0  0
 50 67  1  0  0  0  0
 51 66  1  0  0  0  0
 52 62  1  0  0  0  0
 53 63  1  0  0  0  0
 54 63  1  0  0  0  0
 55 63  1  0  0  0  0
 56 64  1  0  0  0  0
 57 64  1  0  0  0  0
 58 76  1  0  0  0  0
 59 64  1  0  0  0  0
 59 73  1  0  0  0  0
 60 64  1  0  0  0  0
 60 84  1  0  0  0  0
 61 63  1  0  0  0  0
 61 75  1  0  0  0  0
 62 76  1  0  0  0  0
 65 66  1  0  0  0  0
M  CHG  1  76   1
M  ISO  4  39 100  60 101  72 100  84 101
M  END
> <Batch ID>
0075

> <Smiles>
CNC(C)C(=O)NC(C(=O)N1Cc2cc([101O:1][101CH2:1]C(C)(C)CNC(=O)c3cc(F)c([100NH:0][100C:0](=O)N4CCCC(n5nc(-c6ccc(Oc7ccc(F)cc7F)cc6)c(C(N)=O)c5N)C4)cc3N)ccc2CC1C(=O)NC1CCCc2ccccc21)C(C)(C)C

> <Shape>
0.187

> <Color>
0.180

> <Negative vol penalty>
0.000

$$$$

  -OEChem-04042323473D

 87 96  0     1  0  0  0  0  0999 V2000
  -29.4037  -35.9886   26.1686 C   0  0  0  0  0  0  0  0  0  0  0  0
  -29.8061  -34.9583   25.3248 C   0  0  0  0  0  0  0  0  0  0  0  0
  -23.8172   -9.7766   21.5324 C   0  0  0  0  0  0  0  0  0  0  0  0
  -24.4478  -10.8758   23.5894 C   0  0  0  0  0  0  0  0  0  0  0  0
  -28.1465  -20.5362   19.6464 C   0  0  0  0  0  0  0  0  0  0  0  0
  -29.8629  -19.9992   18.0330 C   0  0  0  0  0  0  0  0  0  0  0  0
  -28.2866  -35.8224   26.9862 C   0  0  0  0  0  0  0  0  0  0  0  0
  -29.0924  -33.7607   25.2990 C   0  0  0  0  0  0  0  0  0  0  0  0
  -28.1211  -30.1579   20.4428 C   0  0  0  0  0  0  0  0  0  0  0  0
  -28.2784  -19.2668   20.2093 C   0  0  0  0  0  0  0  0  0  0  0  0
  -29.9947  -18.7298   18.5959 C   0  0  0  0  0  0  0  0  0  0  0  0
  -23.3254   -8.6940   22.2617 C   0  0  0  0  0  0  0  0  0  0  0  0
  -23.9560   -9.7932   24.3187 C   0  0  0  0  0  0  0  0  0  0  0  0
  -28.7473  -28.9944   19.9979 C   0  0  0  0  0  0  0  0  0  0  0  0
  -20.5492   -7.9436   24.0400 C   0  0  0  0  0  0  0  0  0  0  0  0
  -19.3070   -7.4258   23.6736 C   0  0  0  0  0  0  0  0  0  0  0  0
  -27.0516  -27.6713   21.0902 C   0  0  0  0  0  0  0  0  0  0  0  0
  -20.3308   -5.2827   23.2309 C   0  0  0  0  0  0  0  0  0  0  0  0
  -24.3784  -10.8675   22.1963 C   0  0  0  0  0  0  0  0  0  0  0  0
  -28.9387  -20.9024   18.5582 C   0  0  0  0  0  0  0  0  0  0  0  0
  -24.1790  -13.1358   21.0464 C   0  0  0  0  0  0  0  0  0  0  0  0
  -27.5531  -34.6257   26.9633 C   0  0  0  0  0  0  0  0  0  0  0  0
  -26.9596  -30.0865   21.2253 C   0  0  0  0  0  0  0  0  0  0  0  0
  -27.9652  -33.5778   26.1180 C   0  0  0  0  0  0  0  0  0  0  0  0
  -26.4111  -28.8354   21.5417 C   0  0  0  0  0  0  0  0  0  0  0  0
  -29.2025  -18.3636   19.6841 C   0  0  0  0  0  0  0  0  0  0  0  0
  -23.3948   -8.7023   23.6548 C   0  0  0  0  0  0  0  0  0  0  0  0
  -28.2141  -27.7508   20.3240 C   0  0  0  0  0  0  0  0  0  0  0  0
  -21.6823   -7.1309   24.0018 C   0  0  0  0  0  0  0  0  0  0  0  0
  -19.1977   -6.0954   23.2691 C   0  0  0  0  0  0  0  0  0  0  0  0
  -21.5731   -5.8005   23.5973 C   0  0  0  0  0  0  0  0  0  0  0  0
  -24.8871  -11.9858   21.4436 C   0  0  0  0  0  0  0  0  0  0  0  0
  -25.1021  -13.8883   20.3622 C   0  0  0  0  0  0  0  0  0  0  0  0
  -29.5199  -24.5952   17.9465 C   0  0  0  0  0  0  0  0  0  0  0  0
  -28.7994  -22.2436   17.9633 C   0  0  0  0  0  0  0  0  0  0  0  0
  -22.8092  -13.4921   21.2755 C   0  0  0  0  0  0  0  0  0  0  0  0
  -26.1785  -30.9969   24.1689 C   0  0  0  0  0  0  0  0  0  0  0  0
  -23.2142  -30.0460   23.2571 C   0  0  0  0  0  0  0  0  0  0  0  0
  -21.2970  -28.1080   21.2040 C   0  0  0  0  0  0  0  0  0  0  0  0
  -30.2046  -16.0587   19.8558 C   0  0  0  0  0  0  0  0  0  0  0  0
  -26.3805  -34.4750   27.8998 C   0  0  0  0  0  0  0  0  0  0  0  0
  -26.2812  -31.3514   21.6749 C   0  0  0  0  0  0  0  0  0  0  0  0
  -25.1547  -28.7049   22.3619 C   0  0  0  0  0  0  0  0  0  0  0  0
  -25.4577  -33.3138   27.5384 C   0  0  0  0  0  0  0  0  0  0  0  0
  -29.7451  -12.7145   18.7233 C   0  0  0  0  0  0  0  0  0  0  0  0
  -26.2710  -32.0577   27.2427 C   0  0  0  0  0  0  0  0  0  0  0  0
  -28.3820  -12.3214   19.2974 C   0  0  0  0  0  0  0  0  0  0  0  0
  -30.7250  -24.4991   19.9843 C   0  0  0  0  0  0  0  0  0  0  0  0
  -30.5320  -13.6012   19.6868 C   0  0  0  0  0  0  0  0  0  0  0  0
  -30.5196  -23.0661   19.5039 C   0  0  0  0  0  0  0  0  0  0  0  0
  -28.4507  -14.3969   20.7377 C   0  0  0  0  0  0  0  0  0  0  0  0
  -27.2022  -32.2731   26.0435 C   0  0  1  0  0  0  0  0  0  0  0  0
  -25.3917  -31.1501   22.8980 C   0  0  1  0  0  0  0  0  0  0  0  0
  -27.5946  -13.5569   19.7759 C   0  0  2  0  0  0  0  0  0  0  0  0
  -30.5411  -25.3885   18.7382 C   0  0  1  0  0  0  0  0  0  0  0  0
  -31.8293  -25.5017   17.9218 C   0  0  0  0  0  0  0  0  0  0  0  0
  -18.9068  -27.5159   20.7206 C   0  0  0  0  0  0  0  0  0  0  0  0
  -23.1487  -28.2862   25.7488 C   0  0  0  0  0  0  0  0  0  0  0  0
  -21.2246  -27.0448   24.7364 C   0  0  0  0  0  0  0  0  0  0  0  0
  -21.0046  -29.4750   25.2546 C   0  0  0  0  0  0  0  0  0  0  0  0
  -21.4823  -29.1322   18.4336 C   0  0  0  0  0  0  0  0  0  0  0  0
  -30.0061  -26.7682   19.1077 C   0  0  0  0  0  0  0  0  0  1  0  0
  -22.4450  -28.7481   23.3080 C   0  0  1  0  0  0  0  0  0  0  0  0
  -20.0699  -28.4310   20.3706 C   0  0  2  0  0  0  0  0  0  0  0  0
  -21.9805  -28.3906   24.7481 C   0  0  0  0  0  0  0  0  0  0  0  0
  -26.1618  -12.0018   21.0448 N   0  0  0  0  0  0  0  0  0  0  0  0
  -26.2618  -13.1711   20.3899 N   0  0  0  0  0  0  0  0  0  0  0  0
  -29.5408  -23.2370   18.4211 N   0  0  0  0  0  0  0  0  0  0  0  0
  -24.5317  -29.9705   22.7834 N   0  0  0  0  0  0  0  0  0  0  0  0
  -29.7248  -14.7534   20.0938 N   0  0  0  0  0  0  0  0  0  0  0  0
  -25.0268  -15.0869   19.7457 N   0  0  0  0  0  0  0  0  0  0  0  0
  -21.9996  -12.6043   21.9972 N   0  0  0  0  0  0  0  0  0  0  0  0
  -29.3365  -17.0741   20.2558 N   0  0  0  0  0  0  0  0  0  0  0  0
  -26.4583  -32.1913   24.8048 N   0  0  0  0  0  0  0  0  0  0  0  0
  -21.3572  -28.8802   22.3448 N   0  0  0  0  0  0  0  0  0  0  0  0
  -27.9313  -22.4325   16.9739 N   0  3  0  0  0  0  0  0  0  0  0  0
  -20.3726  -28.2726   18.9201 N   0  3  0  0  0  0  0  0  0  0  0  0
  -28.8072  -24.9758   17.0346 O   0  0  0  0  0  0  0  0  0  0  0  0
  -22.3133  -14.5583   20.8386 O   0  0  0  0  0  0  0  0  0  0  0  0
  -26.5061  -29.8777   24.5455 O   0  0  0  0  0  0  0  0  0  0  0  0
  -22.6640  -31.0896   23.6174 O   0  0  0  0  0  0  0  0  0  0  0  0
  -22.1178  -27.2534   20.8777 O   0  0  0  0  0  0  0  0  0  0  0  0
  -31.2927  -16.2607   19.3105 O   0  0  0  0  0  0  0  0  0  0  0  0
  -22.9148   -7.6462   24.3667 O   0  0  0  0  0  0  0  0  0  0  0  0
  -28.8237  -26.6136   19.8915 O   0  0  0  0  0  0  0  0  0  1  0  0
  -18.0044   -5.5979   22.9187 F   0  0  0  0  0  0  0  0  0  0  0  0
  -22.6578   -5.0146   23.5597 F   0  0  0  0  0  0  0  0  0  0  0  0
  1  2  1  0  0  0  0
  1  7  2  0  0  0  0
  2  8  2  0  0  0  0
  3 12  2  0  0  0  0
  3 19  1  0  0  0  0
  4 13  1  0  0  0  0
  4 19  2  0  0  0  0
  5 10  2  0  0  0  0
  5 20  1  0  0  0  0
  6 11  1  0  0  0  0
  6 20  2  0  0  0  0
  7 22  1  0  0  0  0
  8 24  1  0  0  0  0
  9 14  2  0  0  0  0
  9 23  1  0  0  0  0
 10 26  1  0  0  0  0
 11 26  2  0  0  0  0
 12 27  1  0  0  0  0
 13 27  2  0  0  0  0
 14 28  1  0  0  0  0
 15 16  2  0  0  0  0
 15 29  1  0  0  0  0
 16 30  1  0  0  0  0
 17 25  1  0  0  0  0
 17 28  2  0  0  0  0
 18 30  2  0  0  0  0
 18 31  1  0  0  0  0
 19 32  1  0  0  0  0
 20 35  1  0  0  0  0
 21 32  1  0  0  0  0
 21 33  2  0  0  0  0
 21 36  1  0  0  0  0
 22 24  2  0  0  0  0
 22 41  1  0  0  0  0
 23 25  2  0  0  0  0
 23 42  1  0  0  0  0
 24 52  1  0  0  0  0
 25 43  1  0  0  0  0
 26 73  1  0  0  0  0
 27 84  1  0  0  0  0
 28 85  1  0  0  0  0
 29 31  2  0  0  0  0
 29 84  1  0  0  0  0
 30 86  1  0  0  0  0
 31 87  1  0  0  0  0
 32 66  2  0  0  0  0
 33 67  1  0  0  0  0
 33 71  1  0  0  0  0
 34 55  1  0  0  0  0
 34 68  1  0  0  0  0
 34 78  2  0  0  0  0
 35 68  1  0  0  0  0
 35 76  2  0  0  0  0
 36 72  1  0  0  0  0
 36 79  2  0  0  0  0
 37 53  1  0  0  0  0
 37 74  1  0  0  0  0
 37 80  2  0  0  0  0
 38 63  1  0  0  0  0
 38 69  1  0  0  0  0
 38 81  2  0  0  0  0
 39 64  1  0  0  0  0
 39 75  1  0  0  0  0
 39 82  2  0  0  0  0
 40 70  1  0  0  0  0
 40 73  1  0  0  0  0
 40 83  2  0  0  0  0
 41 44  1  0  0  0  0
 42 53  1  0  0  0  0
 43 69  1  0  0  0  0
 44 46  1  0  0  0  0
 45 47  1  0  0  0  0
 45 49  1  0  0  0  0
 46 52  1  0  0  0  0
 47 54  1  0  0  0  0
 48 50  1  0  0  0  0
 48 55  1  0  0  0  0
 49 70  1  0  0  0  0
 50 68  1  0  0  0  0
 51 54  1  0  0  0  0
 51 70  1  0  0  0  0
 52 74  1  0  0  0  0
 53 69  1  0  0  0  0
 54 67  1  0  0  0  0
 55 56  1  0  0  0  0
 55 62  1  0  0  0  0
 57 64  1  0  0  0  0
 58 65  1  0  0  0  0
 59 65  1  0  0  0  0
 60 65  1  0  0  0  0
 61 77  1  0  0  0  0
 62 85  1  0  0  0  0
 63 65  1  0  0  0  0
 63 75  1  0  0  0  0
 64 77  1  0  0  0  0
 66 67  1  0  0  0  0
M  CHG  2  76   1  77   1
M  ISO  4  40 100  62 101  73 100  85 101
M  END
> <Batch ID>
0075

> <Smiles>
CNC(C)C(=O)NC(C(=O)N1Cc2cc([101O:1][101CH2:1]C3(C)CCN(C(=N)c4ccc([100NH:0][100C:0](=O)N5CCCC(n6nc(-c7ccc(Oc8ccc(F)cc8F)cc7)c(C(N)=O)c6N)C5)cc4)C3=O)ccc2CC1C(=O)NC1CCCc2ccccc21)C(C)(C)C

> <Shape>
0.369

> <Color>
0.145

> <Negative vol penalty>
0.000

$$$$

  -OEChem-04042323473D

 87 96  0     1  0  0  0  0  0999 V2000
  -17.5647  -24.4597   26.1303 C   0  0  0  0  0  0  0  0  0  0  0  0
  -18.8580  -24.1079   26.5032 C   0  0  0  0  0  0  0  0  0  0  0  0
  -23.0799   -9.8638   19.9469 C   0  0  0  0  0  0  0  0  0  0  0  0
  -23.8248   -9.8926   22.2450 C   0  0  0  0  0  0  0  0  0  0  0  0
  -17.3457  -25.1331   24.9292 C   0  0  0  0  0  0  0  0  0  0  0  0
  -19.9329  -24.4282   25.6748 C   0  0  0  0  0  0  0  0  0  0  0  0
  -32.6262  -17.5290   23.4520 C   0  0  0  0  0  0  0  0  0  0  0  0
  -30.4374  -18.3809   24.0180 C   0  0  0  0  0  0  0  0  0  0  0  0
  -25.6416  -26.0583   27.4492 C   0  0  0  0  0  0  0  0  0  0  0  0
  -32.0457  -16.6356   22.5517 C   0  0  0  0  0  0  0  0  0  0  0  0
  -29.8569  -17.4876   23.1177 C   0  0  0  0  0  0  0  0  0  0  0  0
  -22.3351   -8.7125   20.2027 C   0  0  0  0  0  0  0  0  0  0  0  0
  -23.0799   -8.7413   22.5009 C   0  0  0  0  0  0  0  0  0  0  0  0
  -26.8444  -25.3621   27.5613 C   0  0  0  0  0  0  0  0  0  0  0  0
  -19.8484   -7.9471   23.0896 C   0  0  0  0  0  0  0  0  0  0  0  0
  -19.0838   -7.9176   24.2559 C   0  0  0  0  0  0  0  0  0  0  0  0
  -27.4641  -26.0880   25.3461 C   0  0  0  0  0  0  0  0  0  0  0  0
  -20.3215   -5.9879   25.0185 C   0  0  0  0  0  0  0  0  0  0  0  0
  -23.8248  -10.4538   20.9680 C   0  0  0  0  0  0  0  0  0  0  0  0
  -24.1659  -12.9779   20.8267 C   0  0  0  0  0  0  0  0  0  0  0  0
  -31.8221  -18.4016   24.1852 C   0  0  0  0  0  0  0  0  0  0  0  0
  -18.4194  -25.4704   24.0902 C   0  0  0  0  0  0  0  0  0  0  0  0
  -25.3356  -26.7675   26.2787 C   0  0  0  0  0  0  0  0  0  0  0  0
  -19.7278  -25.1055   24.4607 C   0  0  0  0  0  0  0  0  0  0  0  0
  -26.2590  -26.7962   25.2236 C   0  0  0  0  0  0  0  0  0  0  0  0
  -30.6610  -16.6149   22.3846 C   0  0  0  0  0  0  0  0  0  0  0  0
  -22.3351   -8.1513   21.4797 C   0  0  0  0  0  0  0  0  0  0  0  0
  -27.7548  -25.3750   26.5088 C   0  0  0  0  0  0  0  0  0  0  0  0
  -20.8495   -6.9969   22.8878 C   0  0  0  0  0  0  0  0  0  0  0  0
  -19.3203   -6.9380   25.2203 C   0  0  0  0  0  0  0  0  0  0  0  0
  -21.0860   -6.0174   23.8522 C   0  0  0  0  0  0  0  0  0  0  0  0
  -24.5948  -11.6427   20.7043 C   0  0  0  0  0  0  0  0  0  0  0  0
  -25.2600  -13.7247   20.4636 C   0  0  0  0  0  0  0  0  0  0  0  0
  -28.8769  -23.3461   26.8176 C   0  0  0  0  0  0  0  0  0  1  0  0
  -22.8924  -13.4968   21.2325 C   0  0  0  0  0  0  0  0  0  0  0  0
  -29.9533  -22.5695   26.9389 C   0  0  0  0  0  0  0  0  0  0  0  0
  -29.8385  -21.1065   27.1574 C   0  0  0  0  0  0  0  0  0  0  0  0
  -23.0470  -26.6743   24.0427 C   0  0  0  0  0  0  0  0  0  0  0  0
  -24.6588  -29.3969   23.0215 C   0  0  0  0  0  0  0  0  0  0  0  0
  -22.0331  -30.1192   20.9663 C   0  0  0  0  0  0  0  0  0  0  0  0
  -30.7243  -14.7755   20.6644 C   0  0  0  0  0  0  0  0  0  0  0  0
  -18.1284  -26.1567   22.7791 C   0  0  0  0  0  0  0  0  0  0  0  0
  -24.0455  -27.5371   26.1898 C   0  0  0  0  0  0  0  0  0  0  0  0
  -25.9792  -27.5452   23.9487 C   0  0  0  0  0  0  0  0  0  0  0  0
  -19.3597  -26.7906   22.1370 C   0  0  0  0  0  0  0  0  0  0  0  0
  -29.6269  -12.3390   18.3115 C   0  0  0  0  0  0  0  0  0  0  0  0
  -20.5349  -25.8185   22.1615 C   0  0  0  0  0  0  0  0  0  0  0  0
  -28.1846  -12.0505   18.7343 C   0  0  0  0  0  0  0  0  0  0  0  0
  -32.5985  -18.7540   26.5645 C   0  0  0  0  0  0  0  0  0  0  0  0
  -30.5339  -12.5796   19.5169 C   0  0  0  0  0  0  0  0  0  0  0  0
  -31.2876  -19.1005   27.2574 C   0  0  0  0  0  0  0  0  0  0  0  0
  -31.6660  -20.6582   25.4607 C   0  0  0  0  0  0  0  0  0  0  0  0
  -28.6175  -13.3156   20.8789 C   0  0  0  0  0  0  0  0  0  0  0  0
  -32.4544  -19.3744   25.1656 C   0  0  2  0  0  0  0  0  0  0  0  0
  -20.9222  -25.4575   23.6007 C   0  0  1  0  0  0  0  0  0  0  0  0
  -23.6263  -27.8621   24.7576 C   0  0  1  0  0  0  0  0  0  0  0  0
  -27.6526  -13.1308   19.6964 C   0  0  2  0  0  0  0  0  0  0  0  0
  -21.1406  -31.9268   19.4719 C   0  0  0  0  0  0  0  0  0  0  0  0
  -23.7806  -30.9855   25.4732 C   0  0  0  0  0  0  0  0  0  0  0  0
  -22.1415  -32.1931   24.0160 C   0  0  0  0  0  0  0  0  0  0  0  0
  -24.5869  -32.3799   23.5601 C   0  0  0  0  0  0  0  0  0  0  0  0
  -22.1377  -28.3635   18.5861 C   0  0  0  0  0  0  0  0  0  0  0  0
  -23.3911  -30.2139   23.0403 C   0  0  1  0  0  0  0  0  0  0  0  0
  -21.9823  -30.6626   19.5498 C   0  0  2  0  0  0  0  0  0  0  0  0
  -23.4745  -31.4147   24.0244 C   0  0  0  0  0  0  0  0  0  0  0  0
  -25.8625  -11.5438   20.2952 N   0  0  0  0  0  0  0  0  0  0  0  0
  -26.2395  -12.8264   20.1574 N   0  0  0  0  0  0  0  0  0  0  0  0
  -30.8694  -20.3511   26.6466 N   0  0  0  0  0  0  0  0  0  0  0  0
  -24.7487  -28.3470   23.9444 N   0  0  0  0  0  0  0  0  0  0  0  0
  -29.9686  -13.6182   20.3810 N   0  0  0  0  0  0  0  0  0  0  0  0
  -25.4701  -15.0556   20.3796 N   0  0  0  0  0  0  0  0  0  0  0  0
  -21.8788  -12.5902   21.5716 N   0  0  0  0  0  0  0  0  0  0  0  0
  -30.0710  -15.7077   21.4699 N   0  0  0  0  0  0  0  0  0  0  0  0
  -21.6821  -26.5312   24.2040 N   0  0  0  0  0  0  0  0  0  0  0  0
  -23.1292  -30.5928   21.6560 N   0  0  0  0  0  0  0  0  0  0  0  0
  -31.2609  -23.0873   26.8681 N   0  3  0  0  0  0  0  0  0  0  0  0
  -21.3957  -29.6499   18.6272 N   0  3  0  0  0  0  0  0  0  0  0  0
  -22.6550  -14.7277   21.2768 O   0  0  0  0  0  0  0  0  0  0  0  0
  -28.8526  -20.7199   27.7686 O   0  0  0  0  0  0  0  0  0  0  0  0
  -23.7836  -25.9427   23.3916 O   0  0  0  0  0  0  0  0  0  0  0  0
  -25.5495  -29.6844   22.2170 O   0  0  0  0  0  0  0  0  0  0  0  0
  -21.1834  -29.3543   21.4172 O   0  0  0  0  0  0  0  0  0  0  0  0
  -31.8563  -14.9406   20.2027 O   0  0  0  0  0  0  0  0  0  0  0  0
  -21.6082   -7.0280   21.7297 O   0  0  0  0  0  0  0  0  0  0  0  0
  -28.9297  -24.6968   26.6158 O   0  0  0  0  0  0  0  0  0  1  0  0
  -18.5870   -6.9107   26.3409 F   0  0  0  0  0  0  0  0  0  0  0  0
  -22.0472   -5.1027   23.6644 F   0  0  0  0  0  0  0  0  0  0  0  0
  1  2  1  0  0  0  0
  1  5  2  0  0  0  0
  2  6  2  0  0  0  0
  3 12  2  0  0  0  0
  3 19  1  0  0  0  0
  4 13  1  0  0  0  0
  4 19  2  0  0  0  0
  5 22  1  0  0  0  0
  6 24  1  0  0  0  0
  7 10  2  0  0  0  0
  7 21  1  0  0  0  0
  8 11  1  0  0  0  0
  8 21  2  0  0  0  0
  9 14  2  0  0  0  0
  9 23  1  0  0  0  0
 10 26  1  0  0  0  0
 11 26  2  0  0  0  0
 12 27  1  0  0  0  0
 13 27  2  0  0  0  0
 14 28  1  0  0  0  0
 15 16  2  0  0  0  0
 15 29  1  0  0  0  0
 16 30  1  0  0  0  0
 17 25  1  0  0  0  0
 17 28  2  0  0  0  0
 18 30  2  0  0  0  0
 18 31  1  0  0  0  0
 19 32  1  0  0  0  0
 20 32  1  0  0  0  0
 20 33  2  0  0  0  0
 20 35  1  0  0  0  0
 21 54  1  0  0  0  0
 22 24  2  0  0  0  0
 22 42  1  0  0  0  0
 23 25  2  0  0  0  0
 23 43  1  0  0  0  0
 24 55  1  0  0  0  0
 25 44  1  0  0  0  0
 26 73  1  0  0  0  0
 27 84  1  0  0  0  0
 28 85  1  0  0  0  0
 29 31  2  0  0  0  0
 29 84  1  0  0  0  0
 30 86  1  0  0  0  0
 31 87  1  0  0  0  0
 32 66  2  0  0  0  0
 33 67  1  0  0  0  0
 33 71  1  0  0  0  0
 34 36  2  0  0  0  0
 34 85  1  0  0  0  0
 35 72  1  0  0  0  0
 35 78  2  0  0  0  0
 36 37  1  0  0  0  0
 36 76  1  0  0  0  0
 37 68  1  0  0  0  0
 37 79  2  0  0  0  0
 38 56  1  0  0  0  0
 38 74  1  0  0  0  0
 38 80  2  0  0  0  0
 39 63  1  0  0  0  0
 39 69  1  0  0  0  0
 39 81  2  0  0  0  0
 40 64  1  0  0  0  0
 40 75  1  0  0  0  0
 40 82  2  0  0  0  0
 41 70  1  0  0  0  0
 41 73  1  0  0  0  0
 41 83  2  0  0  0  0
 42 45  1  0  0  0  0
 43 56  1  0  0  0  0
 44 69  1  0  0  0  0
 45 47  1  0  0  0  0
 46 48  1  0  0  0  0
 46 50  1  0  0  0  0
 47 55  1  0  0  0  0
 48 57  1  0  0  0  0
 49 51  1  0  0  0  0
 49 54  1  0  0  0  0
 50 70  1  0  0  0  0
 51 68  1  0  0  0  0
 52 54  1  0  0  0  0
 52 68  1  0  0  0  0
 53 57  1  0  0  0  0
 53 70  1  0  0  0  0
 55 74  1  0  0  0  0
 56 69  1  0  0  0  0
 57 67  1  0  0  0  0
 58 64  1  0  0  0  0
 59 65  1  0  0  0  0
 60 65  1  0  0  0  0
 61 65  1  0  0  0  0
 62 77  1  0  0  0  0
 63 65  1  0  0  0  0
 63 75  1  0  0  0  0
 64 77  1  0  0  0  0
 66 67  1  0  0  0  0
M  CHG  2  76   1  77   1
M  ISO  4  34 101  41 100  73 100  85 101
M  END
> <Batch ID>
0075

> <Smiles>
CNC(C)C(=O)NC(C(=O)N1Cc2cc([101O:1][101CH2:1]C(=N)C(=O)N3CCC(c4ccc([100NH:0][100C:0](=O)N5CCCC(n6nc(-c7ccc(Oc8ccc(F)cc8F)cc7)c(C(N)=O)c6N)C5)cc4)C3)ccc2CC1C(=O)NC1CCCc2ccccc21)C(C)(C)C

> <Shape>
0.251

> <Color>
0.184

> <Negative vol penalty>
0.000

$$$$

  -OEChem-04042323473D

 90 99  0     1  0  0  0  0  0999 V2000
  -30.4966  -31.9461   25.3803 C   0  0  0  0  0  0  0  0  0  0  0  0
  -30.0475  -30.8558   24.6421 C   0  0  0  0  0  0  0  0  0  0  0  0
  -24.0849   -8.5590   20.6186 C   0  0  0  0  0  0  0  0  0  0  0  0
  -22.9987  -10.6646   21.0915 C   0  0  0  0  0  0  0  0  0  0  0  0
  -29.5858  -32.7320   26.0851 C   0  0  0  0  0  0  0  0  0  0  0  0
  -28.6874  -30.5500   24.6092 C   0  0  0  0  0  0  0  0  0  0  0  0
  -27.0506  -29.4739   19.9393 C   0  0  0  0  0  0  0  0  0  0  0  0
  -29.4028  -19.1680   19.7135 C   0  0  0  0  0  0  0  0  0  0  0  0
  -29.5292  -17.8186   20.0430 C   0  0  0  0  0  0  0  0  0  0  0  0
  -23.1977   -7.9087   21.4762 C   0  0  0  0  0  0  0  0  0  0  0  0
  -22.1114  -10.0143   21.9491 C   0  0  0  0  0  0  0  0  0  0  0  0
  -27.3405  -28.2051   19.4396 C   0  0  0  0  0  0  0  0  0  0  0  0
  -20.0058   -6.7971   21.3825 C   0  0  0  0  0  0  0  0  0  0  0  0
  -19.4368   -5.6022   20.9421 C   0  0  0  0  0  0  0  0  0  0  0  0
  -25.1051  -27.4843   19.9897 C   0  0  0  0  0  0  0  0  0  0  0  0
  -27.0973  -19.1283   20.4346 C   0  0  0  0  0  0  0  0  0  0  0  0
  -20.4188   -4.4424   22.8203 C   0  0  0  0  0  0  0  0  0  0  0  0
  -23.9854   -9.9370   20.4263 C   0  0  0  0  0  0  0  0  0  0  0  0
  -24.7395  -10.8357   18.1610 C   0  0  0  0  0  0  0  0  0  0  0  0
  -28.2127  -32.4415   26.0530 C   0  0  0  0  0  0  0  0  0  0  0  0
  -25.7871  -29.7548   20.4788 C   0  0  0  0  0  0  0  0  0  0  0  0
  -27.7575  -31.3320   25.3153 C   0  0  0  0  0  0  0  0  0  0  0  0
  -24.8009  -28.7582   20.4932 C   0  0  0  0  0  0  0  0  0  0  0  0
  -27.2236  -17.7788   20.7641 C   0  0  0  0  0  0  0  0  0  0  0  0
  -28.1869  -19.8229   19.9094 C   0  0  0  0  0  0  0  0  0  0  0  0
  -28.4396  -17.1239   20.5683 C   0  0  0  0  0  0  0  0  0  0  0  0
  -22.2109   -8.6363   22.1414 C   0  0  0  0  0  0  0  0  0  0  0  0
  -26.3687  -27.2092   19.4674 C   0  0  0  0  0  0  0  0  0  0  0  0
  -20.7813   -6.8147   22.5418 C   0  0  0  0  0  0  0  0  0  0  0  0
  -19.6433   -4.4248   21.6610 C   0  0  0  0  0  0  0  0  0  0  0  0
  -20.9878   -5.6374   23.2607 C   0  0  0  0  0  0  0  0  0  0  0  0
  -24.9020  -10.6095   19.5409 C   0  0  0  0  0  0  0  0  0  0  0  0
  -25.8774  -11.5078   17.7869 C   0  0  0  0  0  0  0  0  0  0  0  0
  -28.6774  -23.2587   18.3573 C   0  0  0  0  0  0  0  0  0  0  0  0
  -28.0441  -24.0352   19.2489 C   0  0  0  0  0  0  0  0  0  0  0  0
  -27.3606  -23.4299   20.3810 C   0  0  0  0  0  0  0  0  0  0  0  0
  -28.8127  -21.7849   18.5305 C   0  0  0  0  0  0  0  0  0  0  0  0
  -27.0579  -24.0811   21.5159 C   0  0  0  0  0  0  0  0  0  0  0  0
  -23.6567  -10.4711   17.2948 C   0  0  0  0  0  0  0  0  0  0  0  0
  -24.7145  -30.6361   23.3383 C   0  0  0  0  0  0  0  0  0  0  0  0
  -25.2837  -16.5026   20.4903 C   0  0  0  0  0  0  0  0  0  0  0  0
  -21.8849  -30.8780   21.7708 C   0  0  0  0  0  0  0  0  0  0  0  0
  -19.9447  -29.9236   19.1304 C   0  0  0  0  0  0  0  0  0  0  0  0
  -29.7354  -14.9718   20.7570 C   0  0  0  0  0  0  0  0  0  0  0  0
  -27.2716  -33.2917   26.8691 C   0  0  0  0  0  0  0  0  0  0  0  0
  -25.4816  -31.1363   20.9894 C   0  0  0  0  0  0  0  0  0  0  0  0
  -23.4224  -29.0146   21.0432 C   0  0  0  0  0  0  0  0  0  0  0  0
  -26.9655  -21.9898   20.1847 C   0  0  0  0  0  0  0  0  0  0  0  0
  -25.8053  -33.1233   26.4792 C   0  0  0  0  0  0  0  0  0  0  0  0
  -30.4953  -11.9943   18.9586 C   0  0  0  0  0  0  0  0  0  0  0  0
  -25.4562  -31.6449   26.3407 C   0  0  0  0  0  0  0  0  0  0  0  0
  -29.1316  -11.3249   18.7730 C   0  0  0  0  0  0  0  0  0  0  0  0
  -30.6070  -12.6870   20.3157 C   0  0  0  0  0  0  0  0  0  0  0  0
  -28.1618  -12.9628   20.4355 C   0  0  0  0  0  0  0  0  0  0  0  0
  -26.2872  -30.9831   25.2349 C   0  0  1  0  0  0  0  0  0  0  0  0
  -24.3266  -31.1632   21.9857 C   0  0  1  0  0  0  0  0  0  0  0  0
  -27.9783  -12.3071   19.0570 C   0  0  2  0  0  0  0  0  0  0  0  0
  -24.0566  -15.7405   20.9327 C   0  0  0  0  0  0  0  0  0  0  0  0
  -25.5560  -16.5673   19.0086 C   0  0  0  0  0  0  0  0  0  0  0  0
  -17.6645  -30.2605   18.1380 C   0  0  0  0  0  0  0  0  0  0  0  0
  -20.6890  -29.0561   23.9063 C   0  0  0  0  0  0  0  0  0  0  0  0
  -18.7402  -28.6667   22.3836 C   0  0  0  0  0  0  0  0  0  0  0  0
  -19.2243  -30.9649   23.2240 C   0  0  0  0  0  0  0  0  0  0  0  0
  -21.0701  -31.0411   16.6317 C   0  0  0  0  0  0  0  0  0  0  0  0
  -28.0031  -25.5277   19.0709 C   0  0  0  0  0  0  0  0  0  1  0  0
  -20.7399  -29.9381   21.4803 C   0  0  1  0  0  0  0  0  0  0  0  0
  -19.1113  -30.7288   18.1498 C   0  0  2  0  0  0  0  0  0  0  0  0
  -19.8748  -29.6507   22.7399 C   0  0  0  0  0  0  0  0  0  0  0  0
  -26.0526  -11.0980   20.0115 N   0  0  0  0  0  0  0  0  0  0  0  0
  -26.1164  -17.1004   21.2908 N   0  0  0  0  0  0  0  0  0  0  0  0
  -26.6234  -11.6378   18.9212 N   0  0  0  0  0  0  0  0  0  0  0  0
  -28.0562  -21.2191   19.5682 N   0  0  0  0  0  0  0  0  0  0  0  0
  -23.1742  -30.3794   21.5365 N   0  0  0  0  0  0  0  0  0  0  0  0
  -29.4832  -13.6051   20.5133 N   0  0  0  0  0  0  0  0  0  0  0  0
  -26.3026  -11.9942   16.6016 N   0  0  0  0  0  0  0  0  0  0  0  0
  -22.5649   -9.7840   17.8429 N   0  0  0  0  0  0  0  0  0  0  0  0
  -28.5891  -15.7536   20.8965 N   0  0  0  0  0  0  0  0  0  0  0  0
  -25.7565  -31.3225   23.9320 N   0  0  0  0  0  0  0  0  0  0  0  0
  -20.0003  -30.5268   20.3691 N   0  0  0  0  0  0  0  0  0  0  0  0
  -19.6602  -30.5940   16.7708 N   0  3  0  0  0  0  0  0  0  0  0  0
  -29.5543  -21.1893   17.7499 O   0  0  0  0  0  0  0  0  0  0  0  0
  -23.6646  -10.7320   16.0679 O   0  0  0  0  0  0  0  0  0  0  0  0
  -24.1120  -29.6785   23.8091 O   0  0  0  0  0  0  0  0  0  0  0  0
  -21.6440  -32.0153   22.1834 O   0  0  0  0  0  0  0  0  0  0  0  0
  -20.4886  -28.8635   18.8289 O   0  0  0  0  0  0  0  0  0  0  0  0
  -30.8833  -15.4207   20.8092 O   0  0  0  0  0  0  0  0  0  0  0  0
  -21.3449   -8.0020   22.9782 O   0  0  0  0  0  0  0  0  0  0  0  0
  -26.6493  -25.9696   18.9809 O   0  0  0  0  0  0  0  0  0  1  0  0
  -19.0956   -3.2777   21.2388 F   0  0  0  0  0  0  0  0  0  0  0  0
  -21.7309   -5.6483   24.3758 F   0  0  0  0  0  0  0  0  0  0  0  0
  1  2  1  0  0  0  0
  1  5  2  0  0  0  0
  2  6  2  0  0  0  0
  3 10  2  0  0  0  0
  3 18  1  0  0  0  0
  4 11  1  0  0  0  0
  4 18  2  0  0  0  0
  5 20  1  0  0  0  0
  6 22  1  0  0  0  0
  7 12  2  0  0  0  0
  7 21  1  0  0  0  0
  8  9  2  0  0  0  0
  8 25  1  0  0  0  0
  9 26  1  0  0  0  0
 10 27  1  0  0  0  0
 11 27  2  0  0  0  0
 12 28  1  0  0  0  0
 13 14  2  0  0  0  0
 13 29  1  0  0  0  0
 14 30  1  0  0  0  0
 15 23  1  0  0  0  0
 15 28  2  0  0  0  0
 16 24  1  0  0  0  0
 16 25  2  0  0  0  0
 17 30  2  0  0  0  0
 17 31  1  0  0  0  0
 18 32  1  0  0  0  0
 19 32  1  0  0  0  0
 19 33  2  0  0  0  0
 19 39  1  0  0  0  0
 20 22  2  0  0  0  0
 20 45  1  0  0  0  0
 21 23  2  0  0  0  0
 21 46  1  0  0  0  0
 22 55  1  0  0  0  0
 23 47  1  0  0  0  0
 24 26  2  0  0  0  0
 24 70  1  0  0  0  0
 25 72  1  0  0  0  0
 26 77  1  0  0  0  0
 27 87  1  0  0  0  0
 28 88  1  0  0  0  0
 29 31  2  0  0  0  0
 29 87  1  0  0  0  0
 30 89  1  0  0  0  0
 31 90  1  0  0  0  0
 32 69  2  0  0  0  0
 33 71  1  0  0  0  0
 33 75  1  0  0  0  0
 34 35  2  0  0  0  0
 34 37  1  0  0  0  0
 35 36  1  0  0  0  0
 35 65  1  0  0  0  0
 36 38  2  0  0  0  0
 36 48  1  0  0  0  0
 37 72  1  0  0  0  0
 37 81  2  0  0  0  0
 39 76  1  0  0  0  0
 39 82  2  0  0  0  0
 40 56  1  0  0  0  0
 40 78  1  0  0  0  0
 40 83  2  0  0  0  0
 41 58  1  0  0  0  0
 41 59  1  0  0  0  0
 41 70  2  0  0  0  0
 42 66  1  0  0  0  0
 42 73  1  0  0  0  0
 42 84  2  0  0  0  0
 43 67  1  0  0  0  0
 43 79  1  0  0  0  0
 43 85  2  0  0  0  0
 44 74  1  0  0  0  0
 44 77  1  0  0  0  0
 44 86  2  0  0  0  0
 45 49  1  0  0  0  0
 46 56  1  0  0  0  0
 47 73  1  0  0  0  0
 48 72  1  0  0  0  0
 49 51  1  0  0  0  0
 50 52  1  0  0  0  0
 50 53  1  0  0  0  0
 51 55  1  0  0  0  0
 52 57  1  0  0  0  0
 53 74  1  0  0  0  0
 54 57  1  0  0  0  0
 54 74  1  0  0  0  0
 55 78  1  0  0  0  0
 56 73  1  0  0  0  0
 57 71  1  0  0  0  0
 60 67  1  0  0  0  0
 61 68  1  0  0  0  0
 62 68  1  0  0  0  0
 63 68  1  0  0  0  0
 64 80  1  0  0  0  0
 65 88  1  0  0  0  0
 66 68  1  0  0  0  0
 66 79  1  0  0  0  0
 67 80  1  0  0  0  0
 69 71  1  0  0  0  0
M  CHG  1  80   1
M  ISO  4  44 100  65 101  77 100  88 101
M  END
> <Batch ID>
0075

> <Smiles>
C=C1CN(c2ccc([100NH:0][100C:0](=O)N3CCCC(n4nc(-c5ccc(Oc6ccc(F)cc6F)cc5)c(C(N)=O)c4N)C3)c(N=C(C)C)c2)C(=O)C=C1[101CH2:1][101O:1]c1ccc2c(c1)CN(C(=O)C(NC(=O)C(C)NC)C(C)(C)C)C(C(=O)NC1CCCc3ccccc31)C2

> <Shape>
0.335

> <Color>
0.089

> <Negative vol penalty>
0.000

$$$$

  -OEChem-04042323473D

 87 96  0     1  0  0  0  0  0999 V2000
  -29.5510  -37.0202   23.3317 C   0  0  0  0  0  0  0  0  0  0  0  0
  -29.6690  -36.0874   22.3064 C   0  0  0  0  0  0  0  0  0  0  0  0
  -25.8055   -5.6431   21.7965 C   0  0  0  0  0  0  0  0  0  0  0  0
  -23.7089   -5.5382   20.6005 C   0  0  0  0  0  0  0  0  0  0  0  0
  -28.9919  -36.6453   24.5527 C   0  0  0  0  0  0  0  0  0  0  0  0
  -29.2289  -34.7787   22.5018 C   0  0  0  0  0  0  0  0  0  0  0  0
  -26.3050  -29.2837   18.9562 C   0  0  0  0  0  0  0  0  0  0  0  0
  -26.8364  -19.4518   20.2305 C   0  0  0  0  0  0  0  0  0  0  0  0
  -26.8183  -18.0580   20.1804 C   0  0  0  0  0  0  0  0  0  0  0  0
  -25.4458   -4.5101   22.5264 C   0  0  0  0  0  0  0  0  0  0  0  0
  -23.3492   -4.4052   21.3303 C   0  0  0  0  0  0  0  0  0  0  0  0
  -26.5065  -27.9244   18.7206 C   0  0  0  0  0  0  0  0  0  0  0  0
  -24.9241   -1.8557   24.9565 C   0  0  0  0  0  0  0  0  0  0  0  0
  -25.1441   -1.8728   26.3338 C   0  0  0  0  0  0  0  0  0  0  0  0
  -25.4845  -27.4109   20.8445 C   0  0  0  0  0  0  0  0  0  0  0  0
  -29.0953  -19.4534   19.3737 C   0  0  0  0  0  0  0  0  0  0  0  0
  -23.6848   -3.7869   26.5431 C   0  0  0  0  0  0  0  0  0  0  0  0
  -24.9370   -6.1572   20.8336 C   0  0  0  0  0  0  0  0  0  0  0  0
  -26.0034   -7.3661   18.8565 C   0  0  0  0  0  0  0  0  0  0  0  0
  -28.5359  -35.3339   24.7599 C   0  0  0  0  0  0  0  0  0  0  0  0
  -25.7006  -29.7181   20.1447 C   0  0  0  0  0  0  0  0  0  0  0  0
  -28.6644  -34.3856   23.7272 C   0  0  0  0  0  0  0  0  0  0  0  0
  -25.2742  -28.7761   21.0917 C   0  0  0  0  0  0  0  0  0  0  0  0
  -29.0773  -18.0595   19.3236 C   0  0  0  0  0  0  0  0  0  0  0  0
  -27.9749  -20.1495   19.8271 C   0  0  0  0  0  0  0  0  0  0  0  0
  -27.9388  -17.3618   19.7270 C   0  0  0  0  0  0  0  0  0  0  0  0
  -24.2177   -3.8912   22.2933 C   0  0  0  0  0  0  0  0  0  0  0  0
  -26.0989  -26.9879   19.6661 C   0  0  0  0  0  0  0  0  0  0  0  0
  -24.0845   -2.8043   24.3725 C   0  0  0  0  0  0  0  0  0  0  0  0
  -24.5244   -2.8384   27.1271 C   0  0  0  0  0  0  0  0  0  0  0  0
  -23.4648   -3.7698   25.1658 C   0  0  0  0  0  0  0  0  0  0  0  0
  -25.3077   -7.3278   20.0798 C   0  0  0  0  0  0  0  0  0  0  0  0
  -26.1043   -8.7035   18.5606 C   0  0  0  0  0  0  0  0  0  0  0  0
  -26.9845  -22.3634   20.2926 C   0  0  0  0  0  0  0  0  0  0  0  0
  -27.3283  -23.6562   20.2143 C   0  0  0  0  0  0  0  0  0  0  0  0
  -28.6876  -23.7358   19.7013 C   0  0  0  0  0  0  0  0  0  0  0  0
  -29.4096  -24.8371   19.4718 C   0  0  0  0  0  0  0  0  0  0  0  0
  -26.5127   -6.2890   18.0589 C   0  0  0  0  0  0  0  0  0  0  0  0
  -27.3841  -13.7986   20.2488 C   0  0  0  0  0  0  0  0  0  0  0  0
  -27.2447  -15.1957   20.5279 C   0  0  0  0  0  0  0  0  0  0  0  0
  -26.6108  -31.5315   22.5914 C   0  0  0  0  0  0  0  0  0  0  0  0
  -23.5201  -31.1679   23.5064 C   0  0  0  0  0  0  0  0  0  0  0  0
  -20.6543  -29.3202   23.3630 C   0  0  0  0  0  0  0  0  0  0  0  0
  -27.9820  -34.9633   26.1129 C   0  0  0  0  0  0  0  0  0  0  0  0
  -25.4662  -31.1864   20.3718 C   0  0  0  0  0  0  0  0  0  0  0  0
  -24.6021  -29.1896   22.3746 C   0  0  0  0  0  0  0  0  0  0  0  0
  -29.1650  -22.3128   19.4623 C   0  0  0  0  0  0  0  0  0  0  0  0
  -27.1970  -33.6540   26.1118 C   0  0  0  0  0  0  0  0  0  0  0  0
  -23.8725  -12.7247   20.6187 C   0  0  0  0  0  0  0  0  0  0  0  0
  -27.9653  -32.5716   25.3601 C   0  0  0  0  0  0  0  0  0  0  0  0
  -24.0122  -11.2127   20.4711 C   0  0  0  0  0  0  0  0  0  0  0  0
  -25.0950  -13.3518   21.2872 C   0  0  0  0  0  0  0  0  0  0  0  0
  -26.5203  -11.4962   20.4616 C   0  0  0  0  0  0  0  0  0  0  0  0
  -28.1759  -32.9629   23.8925 C   0  0  1  0  0  0  0  0  0  0  0  0
  -25.3063  -31.5449   21.8460 C   0  0  1  0  0  0  0  0  0  0  0  0
  -25.3195  -10.8593   19.7460 C   0  0  1  0  0  0  0  0  0  0  0  0
  -30.2875  -17.3337   18.8344 C   0  0  0  0  0  0  0  0  0  0  0  0
  -18.3062  -29.2551   24.2459 C   0  0  0  0  0  0  0  0  0  0  0  0
  -24.5638  -30.1946   26.2033 C   0  0  0  0  0  0  0  0  0  0  0  0
  -22.2856  -29.2680   26.6720 C   0  0  0  0  0  0  0  0  0  0  0  0
  -22.5878  -31.7216   26.3388 C   0  0  0  0  0  0  0  0  0  0  0  0
  -19.5028  -29.5055   20.6429 C   0  0  0  0  0  0  0  0  0  0  0  0
  -26.4933  -24.8285   20.5811 C   0  0  0  0  0  0  0  0  0  1  0  0
  -22.7655  -30.1697   24.3509 C   0  0  1  0  0  0  0  0  0  0  0  0
  -19.2106  -29.7182   23.1144 C   0  0  2  0  0  0  0  0  0  0  0  0
  -23.0651  -30.3304   25.8680 C   0  0  0  0  0  0  0  0  0  0  0  0
  -24.9893   -8.5442   20.5302 N   0  0  0  0  0  0  0  0  0  0  0  0
  -25.4873   -9.3595   19.5849 N   0  0  0  0  0  0  0  0  0  0  0  0
  -27.9922  -21.5205   19.8762 N   0  0  0  0  0  0  0  0  0  0  0  0
  -26.3445  -12.9428   20.6322 N   0  0  0  0  0  0  0  0  0  0  0  0
  -24.4010  -30.6371   22.5535 N   0  0  0  0  0  0  0  0  0  0  0  0
  -26.6598   -9.3707   17.5269 N   0  0  0  0  0  0  0  0  0  0  0  0
  -26.3221   -4.9757   18.5097 N   0  0  0  0  0  0  0  0  0  0  0  0
  -26.5181  -15.4577   21.6090 N   0  0  0  0  0  0  0  0  0  0  0  0
  -26.9612  -32.7531   23.1342 N   0  0  0  0  0  0  0  0  0  0  0  0
  -21.3573  -30.3205   24.0006 N   0  0  0  0  0  0  0  0  0  0  0  0
  -27.9051  -16.0065   19.6852 N   0  3  0  0  0  0  0  0  0  0  0  0
  -18.7188  -29.1158   21.8431 N   0  3  0  0  0  0  0  0  0  0  0  0
  -27.1333   -6.4861   16.9868 O   0  0  0  0  0  0  0  0  0  0  0  0
  -28.4206  -13.4286   19.7014 O   0  0  0  0  0  0  0  0  0  0  0  0
  -27.2513  -30.4897   22.6697 O   0  0  0  0  0  0  0  0  0  0  0  0
  -23.3294  -32.3741   23.6808 O   0  0  0  0  0  0  0  0  0  0  0  0
  -21.1117  -28.2296   23.0285 O   0  0  0  0  0  0  0  0  0  0  0  0
  -23.8665   -2.7855   23.0051 O   0  0  0  0  0  0  0  0  0  0  0  0
  -26.2949  -25.6606   19.4389 O   0  0  0  0  0  0  0  0  0  1  0  0
  -24.7345   -2.8537   28.4499 F   0  0  0  0  0  0  0  0  0  0  0  0
  -22.6562   -4.6829   24.6106 F   0  0  0  0  0  0  0  0  0  0  0  0
  1  2  1  0  0  0  0
  1  5  2  0  0  0  0
  2  6  2  0  0  0  0
  3 10  2  0  0  0  0
  3 18  1  0  0  0  0
  4 11  1  0  0  0  0
  4 18  2  0  0  0  0
  5 20  1  0  0  0  0
  6 22  1  0  0  0  0
  7 12  2  0  0  0  0
  7 21  1  0  0  0  0
  8  9  2  0  0  0  0
  8 25  1  0  0  0  0
  9 26  1  0  0  0  0
 10 27  1  0  0  0  0
 11 27  2  0  0  0  0
 12 28  1  0  0  0  0
 13 14  2  0  0  0  0
 13 29  1  0  0  0  0
 14 30  1  0  0  0  0
 15 23  1  0  0  0  0
 15 28  2  0  0  0  0
 16 24  1  0  0  0  0
 16 25  2  0  0  0  0
 17 30  2  0  0  0  0
 17 31  1  0  0  0  0
 18 32  1  0  0  0  0
 19 32  1  0  0  0  0
 19 33  2  0  0  0  0
 19 38  1  0  0  0  0
 20 22  2  0  0  0  0
 20 44  1  0  0  0  0
 21 23  2  0  0  0  0
 21 45  1  0  0  0  0
 22 54  1  0  0  0  0
 23 46  1  0  0  0  0
 24 26  2  0  0  0  0
 24 57  1  0  0  0  0
 25 69  1  0  0  0  0
 26 77  1  0  0  0  0
 27 84  1  0  0  0  0
 28 85  1  0  0  0  0
 29 31  2  0  0  0  0
 29 84  1  0  0  0  0
 30 86  1  0  0  0  0
 31 87  1  0  0  0  0
 32 67  2  0  0  0  0
 33 68  1  0  0  0  0
 33 72  1  0  0  0  0
 34 35  2  0  0  0  0
 34 69  1  0  0  0  0
 35 36  1  0  0  0  0
 35 63  1  0  0  0  0
 36 37  2  0  0  0  0
 36 47  1  0  0  0  0
 38 73  1  0  0  0  0
 38 79  2  0  0  0  0
 39 40  1  0  0  0  0
 39 70  1  0  0  0  0
 39 80  2  0  0  0  0
 40 74  1  0  0  0  0
 40 77  2  0  0  0  0
 41 55  1  0  0  0  0
 41 75  1  0  0  0  0
 41 81  2  0  0  0  0
 42 64  1  0  0  0  0
 42 71  1  0  0  0  0
 42 82  2  0  0  0  0
 43 65  1  0  0  0  0
 43 76  1  0  0  0  0
 43 83  2  0  0  0  0
 44 48  1  0  0  0  0
 45 55  1  0  0  0  0
 46 71  1  0  0  0  0
 47 69  1  0  0  0  0
 48 50  1  0  0  0  0
 49 51  1  0  0  0  0
 49 52  1  0  0  0  0
 50 54  1  0  0  0  0
 51 56  1  0  0  0  0
 52 70  1  0  0  0  0
 53 56  1  0  0  0  0
 53 70  1  0  0  0  0
 54 75  1  0  0  0  0
 55 71  1  0  0  0  0
 56 68  1  0  0  0  0
 58 65  1  0  0  0  0
 59 66  1  0  0  0  0
 60 66  1  0  0  0  0
 61 66  1  0  0  0  0
 62 78  1  0  0  0  0
 63 85  1  0  0  0  0
 64 66  1  0  0  0  0
 64 76  1  0  0  0  0
 65 78  1  0  0  0  0
 67 68  1  0  0  0  0
M  CHG  2  77   1  78   1
M  ISO  4  39 100  40 100  63 101  85 101
M  END
> <Batch ID>
0075

> <Smiles>
C=C1CN(c2ccc(N[100C:0](=N)[100C:0](=O)N3CCCC(n4nc(-c5ccc(Oc6ccc(F)cc6F)cc5)c(C(N)=O)c4N)C3)c(C)c2)C=C1[101CH2:1][101O:1]c1ccc2c(c1)CN(C(=O)C(NC(=O)C(C)NC)C(C)(C)C)C(C(=O)NC1CCCc3ccccc31)C2

> <Shape>
0.251

> <Color>
0.063

> <Negative vol penalty>
0.000

$$$$

  -OEChem-04042323473D

 86 95  0     1  0  0  0  0  0999 V2000
  -29.1504  -33.0342   25.4409 C   0  0  0  0  0  0  0  0  0  0  0  0
  -29.0374  -31.8285   24.7560 C   0  0  0  0  0  0  0  0  0  0  0  0
  -24.8345   -8.3737   20.8214 C   0  0  0  0  0  0  0  0  0  0  0  0
  -23.2377  -10.0668   20.1727 C   0  0  0  0  0  0  0  0  0  0  0  0
  -28.0246  -33.6078   26.0305 C   0  0  0  0  0  0  0  0  0  0  0  0
  -27.7988  -31.1951   24.6613 C   0  0  0  0  0  0  0  0  0  0  0  0
  -26.8370  -29.4978   19.9881 C   0  0  0  0  0  0  0  0  0  0  0  0
  -28.3718  -19.0188   16.6492 C   0  0  0  0  0  0  0  0  0  0  0  0
  -28.4021  -17.8413   17.3963 C   0  0  0  0  0  0  0  0  0  0  0  0
  -23.7878   -7.5159   21.1591 C   0  0  0  0  0  0  0  0  0  0  0  0
  -22.1910   -9.2089   20.5104 C   0  0  0  0  0  0  0  0  0  0  0  0
  -27.4636  -28.3148   19.5989 C   0  0  0  0  0  0  0  0  0  0  0  0
  -21.6340   -7.1075   23.7318 C   0  0  0  0  0  0  0  0  0  0  0  0
  -21.7291   -6.4137   24.9381 C   0  0  0  0  0  0  0  0  0  0  0  0
  -25.4341  -27.0951   20.0603 C   0  0  0  0  0  0  0  0  0  0  0  0
  -28.7574  -19.1281   19.4100 C   0  0  0  0  0  0  0  0  0  0  0  0
  -21.6325   -4.3177   23.7404 C   0  0  0  0  0  0  0  0  0  0  0  0
  -24.5595   -9.6492   20.3282 C   0  0  0  0  0  0  0  0  0  0  0  0
  -26.2734  -10.6537   18.7279 C   0  0  0  0  0  0  0  0  0  0  0  0
  -26.7697  -32.9859   25.9348 C   0  0  0  0  0  0  0  0  0  0  0  0
  -25.5053  -29.4867   20.4275 C   0  0  0  0  0  0  0  0  0  0  0  0
  -26.6554  -31.7602   25.2514 C   0  0  0  0  0  0  0  0  0  0  0  0
  -24.7921  -28.2797   20.4521 C   0  0  0  0  0  0  0  0  0  0  0  0
  -28.5343  -20.2510   17.2825 C   0  0  0  0  0  0  0  0  0  0  0  0
  -28.7271  -20.3056   18.6629 C   0  0  0  0  0  0  0  0  0  0  0  0
  -28.5949  -17.8959   18.7767 C   0  0  0  0  0  0  0  0  0  0  0  0
  -22.4660   -7.9335   21.0036 C   0  0  0  0  0  0  0  0  0  0  0  0
  -26.7631  -27.1127   19.6377 C   0  0  0  0  0  0  0  0  0  0  0  0
  -21.5380   -6.4063   22.5297 C   0  0  0  0  0  0  0  0  0  0  0  0
  -21.7284   -5.0189   24.9424 C   0  0  0  0  0  0  0  0  0  0  0  0
  -21.5373   -5.0115   22.5340 C   0  0  0  0  0  0  0  0  0  0  0  0
  -25.6403  -10.5360   19.9797 C   0  0  0  0  0  0  0  0  0  0  0  0
  -27.2262  -11.6252   18.9149 C   0  0  0  0  0  0  0  0  0  0  0  0
  -27.9425  -22.5623   19.3121 C   0  0  0  0  0  0  0  0  0  0  0  0
  -28.0544  -23.7555   19.9263 C   0  0  0  0  0  0  0  0  0  0  0  0
  -29.2997  -24.0806   20.6247 C   0  0  0  0  0  0  0  0  0  0  0  0
  -29.4376  -25.0955   21.4931 C   0  0  0  0  0  0  0  0  0  0  0  0
  -26.0226   -9.9481   17.5052 C   0  0  0  0  0  0  0  0  0  0  0  0
  -24.0338  -30.2289   23.1455 C   0  0  0  0  0  0  0  0  0  0  0  0
  -21.3596  -29.6797   21.3935 C   0  0  0  0  0  0  0  0  0  0  0  0
  -19.9183  -28.1347   18.7135 C   0  0  0  0  0  0  0  0  0  0  0  0
  -28.8077  -16.5763   20.9120 C   0  0  0  0  0  0  0  0  0  0  0  0
  -25.5904  -33.6202   26.6288 C   0  0  0  0  0  0  0  0  0  0  0  0
  -24.8355  -30.7754   20.8186 C   0  0  0  0  0  0  0  0  0  0  0  0
  -23.3544  -28.2171   20.8966 C   0  0  0  0  0  0  0  0  0  0  0  0
  -30.4758  -23.1870   20.2915 C   0  0  0  0  0  0  0  0  0  0  0  0
  -24.2433  -33.0742   26.1624 C   0  0  0  0  0  0  0  0  0  0  0  0
  -28.9097  -13.8145   23.1569 C   0  0  0  0  0  0  0  0  0  0  0  0
  -24.2748  -31.5501   26.1083 C   0  0  0  0  0  0  0  0  0  0  0  0
  -28.1203  -12.7251   22.4274 C   0  0  0  0  0  0  0  0  0  0  0  0
  -30.0848  -21.7067   20.1809 C   0  0  0  0  0  0  0  0  0  0  0  0
  -28.3130  -15.2010   22.9217 C   0  0  0  0  0  0  0  0  0  0  0  0
  -27.3317  -14.4739   20.7822 C   0  0  0  0  0  0  0  0  0  0  0  0
  -25.3243  -31.0552   25.1057 C   0  0  1  0  0  0  0  0  0  0  0  0
  -23.6352  -30.5701   21.7375 C   0  0  1  0  0  0  0  0  0  0  0  0
  -27.9331  -13.0674   20.9363 C   0  0  2  0  0  0  0  0  0  0  0  0
  -28.4971  -21.4964   16.4580 C   0  0  0  0  0  0  0  0  0  0  0  0
  -17.7081  -27.8441   17.5612 C   0  0  0  0  0  0  0  0  0  0  0  0
  -20.4801  -27.7370   23.5758 C   0  0  0  0  0  0  0  0  0  0  0  0
  -18.8074  -26.7968   21.9676 C   0  0  0  0  0  0  0  0  0  0  0  0
  -18.6534  -29.1853   22.6704 C   0  0  0  0  0  0  0  0  0  0  0  0
  -20.9284  -29.3589   16.2155 C   0  0  0  0  0  0  0  0  0  0  0  0
  -26.9323  -24.7538   19.8885 C   0  0  0  0  0  0  0  0  0  1  0  0
  -20.5026  -28.4719   21.1008 C   0  0  1  0  0  0  0  0  0  0  0  0
  -18.9928  -28.6551   17.6286 C   0  0  2  0  0  0  0  0  0  0  0  0
  -19.6385  -28.0483   22.3221 C   0  0  0  0  0  0  0  0  0  0  0  0
  -26.1483  -11.3663   20.8945 N   0  0  0  0  0  0  0  0  0  0  0  0
  -27.1106  -12.0149   20.2168 N   0  0  0  0  0  0  0  0  0  0  0  0
  -28.8951  -21.5507   19.3234 N   0  0  0  0  0  0  0  0  0  0  0  0
  -22.7454  -29.5029   21.2752 N   0  0  0  0  0  0  0  0  0  0  0  0
  -28.1689  -15.4573   21.4870 N   0  0  0  0  0  0  0  0  0  0  0  0
  -28.1432  -12.1755   18.0911 N   0  0  0  0  0  0  0  0  0  0  0  0
  -25.0070   -8.9824   17.4874 N   0  0  0  0  0  0  0  0  0  0  0  0
  -28.6261  -16.6993   19.5349 N   0  0  0  0  0  0  0  0  0  0  0  0
  -24.8293  -31.1824   23.7518 N   0  0  0  0  0  0  0  0  0  0  0  0
  -19.7303  -28.7989   19.9071 N   0  0  0  0  0  0  0  0  0  0  0  0
  -19.6626  -28.5858   16.2991 N   0  3  0  0  0  0  0  0  0  0  0  0
  -26.6905  -10.1558   16.4640 O   0  0  0  0  0  0  0  0  0  0  0  0
  -23.6470  -29.1790   23.6453 O   0  0  0  0  0  0  0  0  0  0  0  0
  -20.8190  -30.7428   21.7085 O   0  0  0  0  0  0  0  0  0  0  0  0
  -20.7246  -27.2271   18.5223 O   0  0  0  0  0  0  0  0  0  0  0  0
  -29.4896  -17.3520   21.5867 O   0  0  0  0  0  0  0  0  0  0  0  0
  -21.4444   -7.0965   21.3328 O   0  0  0  0  0  0  0  0  0  0  0  0
  -27.3725  -25.9564   19.2589 O   0  0  0  0  0  0  0  0  0  1  0  0
  -21.8213   -4.3528   26.1008 F   0  0  0  0  0  0  0  0  0  0  0  0
  -21.4465   -4.3325   21.3823 F   0  0  0  0  0  0  0  0  0  0  0  0
  1  2  1  0  0  0  0
  1  5  2  0  0  0  0
  2  6  2  0  0  0  0
  3 10  2  0  0  0  0
  3 18  1  0  0  0  0
  4 11  1  0  0  0  0
  4 18  2  0  0  0  0
  5 20  1  0  0  0  0
  6 22  1  0  0  0  0
  7 12  2  0  0  0  0
  7 21  1  0  0  0  0
  8  9  2  0  0  0  0
  8 24  1  0  0  0  0
  9 26  1  0  0  0  0
 10 27  1  0  0  0  0
 11 27  2  0  0  0  0
 12 28  1  0  0  0  0
 13 14  2  0  0  0  0
 13 29  1  0  0  0  0
 14 30  1  0  0  0  0
 15 23  1  0  0  0  0
 15 28  2  0  0  0  0
 16 25  1  0  0  0  0
 16 26  2  0  0  0  0
 17 30  2  0  0  0  0
 17 31  1  0  0  0  0
 18 32  1  0  0  0  0
 19 32  1  0  0  0  0
 19 33  2  0  0  0  0
 19 38  1  0  0  0  0
 20 22  2  0  0  0  0
 20 43  1  0  0  0  0
 21 23  2  0  0  0  0
 21 44  1  0  0  0  0
 22 54  1  0  0  0  0
 23 45  1  0  0  0  0
 24 25  2  0  0  0  0
 24 57  1  0  0  0  0
 25 69  1  0  0  0  0
 26 74  1  0  0  0  0
 27 83  1  0  0  0  0
 28 84  1  0  0  0  0
 29 31  2  0  0  0  0
 29 83  1  0  0  0  0
 30 85  1  0  0  0  0
 31 86  1  0  0  0  0
 32 67  2  0  0  0  0
 33 68  1  0  0  0  0
 33 72  1  0  0  0  0
 34 35  2  0  0  0  0
 34 69  1  0  0  0  0
 35 36  1  0  0  0  0
 35 63  1  0  0  0  0
 36 37  2  0  0  0  0
 36 46  1  0  0  0  0
 38 73  1  0  0  0  0
 38 78  2  0  0  0  0
 39 55  1  0  0  0  0
 39 75  1  0  0  0  0
 39 79  2  0  0  0  0
 40 64  1  0  0  0  0
 40 70  1  0  0  0  0
 40 80  2  0  0  0  0
 41 65  1  0  0  0  0
 41 76  1  0  0  0  0
 41 81  2  0  0  0  0
 42 71  1  0  0  0  0
 42 74  1  0  0  0  0
 42 82  2  0  0  0  0
 43 47  1  0  0  0  0
 44 55  1  0  0  0  0
 45 70  1  0  0  0  0
 46 51  1  0  0  0  0
 47 49  1  0  0  0  0
 48 50  1  0  0  0  0
 48 52  1  0  0  0  0
 49 54  1  0  0  0  0
 50 56  1  0  0  0  0
 51 69  1  0  0  0  0
 52 71  1  0  0  0  0
 53 56  1  0  0  0  0
 53 71  1  0  0  0  0
 54 75  1  0  0  0  0
 55 70  1  0  0  0  0
 56 68  1  0  0  0  0
 58 65  1  0  0  0  0
 59 66  1  0  0  0  0
 60 66  1  0  0  0  0
 61 66  1  0  0  0  0
 62 77  1  0  0  0  0
 63 84  1  0  0  0  0
 64 66  1  0  0  0  0
 64 76  1  0  0  0  0
 65 77  1  0  0  0  0
 67 68  1  0  0  0  0
M  CHG  1  77   1
M  ISO  4  42 100  63 101  74 100  84 101
M  END
> <Batch ID>
0075

> <Smiles>
C=C1CCN(c2cc([100NH:0][100C:0](=O)N3CCCC(n4nc(-c5ccc(Oc6ccc(F)cc6F)cc5)c(C(N)=O)c4N)C3)ccc2C)C=C1[101CH2:1][101O:1]c1ccc2c(c1)CN(C(=O)C(NC(=O)C(C)NC)C(C)(C)C)C(C(=O)NC1CCCc3ccccc31)C2

> <Shape>
0.358

> <Color>
0.108

> <Negative vol penalty>
0.000

$$$$

  -OEChem-04042323473D

 85 93  0     1  0  0  0  0  0999 V2000
  -28.5172  -31.3802   27.3946 C   0  0  0  0  0  0  0  0  0  0  0  0
  -28.4370  -30.3737   26.4376 C   0  0  0  0  0  0  0  0  0  0  0  0
  -31.3452  -18.6964   21.7741 C   0  0  0  0  0  0  0  0  0  0  0  0
  -23.5230  -10.1285   22.0730 C   0  0  0  0  0  0  0  0  0  0  0  0
  -23.0510  -12.4946   22.1984 C   0  0  0  0  0  0  0  0  0  0  0  0
  -30.3327  -19.6554   21.7988 C   0  0  0  0  0  0  0  0  0  0  0  0
  -27.3662  -32.0647   27.7827 C   0  0  0  0  0  0  0  0  0  0  0  0
  -27.2056  -30.0504   25.8688 C   0  0  0  0  0  0  0  0  0  0  0  0
  -27.4747  -29.4865   20.8434 C   0  0  0  0  0  0  0  0  0  0  0  0
  -31.0886  -17.4244   21.2623 C   0  0  0  0  0  0  0  0  0  0  0  0
  -22.6643   -9.9002   23.1482 C   0  0  0  0  0  0  0  0  0  0  0  0
  -22.1923  -12.2664   23.2736 C   0  0  0  0  0  0  0  0  0  0  0  0
  -28.0024  -28.2881   20.3646 C   0  0  0  0  0  0  0  0  0  0  0  0
  -19.3315   -9.6654   23.6681 C   0  0  0  0  0  0  0  0  0  0  0  0
  -18.4349   -8.6017   23.5671 C   0  0  0  0  0  0  0  0  0  0  0  0
  -28.8070  -18.0704   20.8002 C   0  0  0  0  0  0  0  0  0  0  0  0
  -25.7681  -27.4709   19.9653 C   0  0  0  0  0  0  0  0  0  0  0  0
  -19.4185   -7.5865   25.5264 C   0  0  0  0  0  0  0  0  0  0  0  0
  -23.7164  -11.4257   21.5981 C   0  0  0  0  0  0  0  0  0  0  0  0
  -29.0636  -19.3425   21.3119 C   0  0  0  0  0  0  0  0  0  0  0  0
  -24.2710  -11.6686   19.1200 C   0  0  0  0  0  0  0  0  0  0  0  0
  -26.1216  -31.7562   27.2114 C   0  0  0  0  0  0  0  0  0  0  0  0
  -26.0872  -29.6821   20.8971 C   0  0  0  0  0  0  0  0  0  0  0  0
  -26.0367  -30.7305   26.2506 C   0  0  0  0  0  0  0  0  0  0  0  0
  -25.2255  -28.6736   20.4429 C   0  0  0  0  0  0  0  0  0  0  0  0
  -29.8195  -17.1114   20.7754 C   0  0  0  0  0  0  0  0  0  0  0  0
  -21.9989  -10.9691   23.7485 C   0  0  0  0  0  0  0  0  0  0  0  0
  -27.1490  -27.2790   19.9281 C   0  0  0  0  0  0  0  0  0  0  0  0
  -20.2717   -9.6896   24.6982 C   0  0  0  0  0  0  0  0  0  0  0  0
  -18.4783   -7.5623   24.4962 C   0  0  0  0  0  0  0  0  0  0  0  0
  -20.3152   -8.6502   25.6274 C   0  0  0  0  0  0  0  0  0  0  0  0
  -24.6038  -11.6623   20.4878 C   0  0  0  0  0  0  0  0  0  0  0  0
  -25.4555  -11.9396   18.4796 C   0  0  0  0  0  0  0  0  0  0  0  0
  -27.3202  -24.9532   20.1069 C   0  0  0  0  0  0  0  0  0  1  0  0
  -27.9904  -20.3580   21.3372 C   0  0  0  0  0  0  0  0  0  0  0  0
  -23.0044  -11.4491   18.4850 C   0  0  0  0  0  0  0  0  0  0  0  0
  -27.7558  -23.7361   19.7480 C   0  0  0  0  0  0  0  0  0  0  0  0
  -27.2582  -22.6037   20.5827 C   0  0  0  0  0  0  0  0  0  0  0  0
  -23.9850  -30.2126   23.2216 C   0  0  0  0  0  0  0  0  0  0  0  0
  -21.9252  -30.5832   20.7432 C   0  0  0  0  0  0  0  0  0  0  0  0
  -21.1565  -29.9033   17.4884 C   0  0  0  0  0  0  0  0  0  0  0  0
  -30.4529  -14.7525   20.1585 C   0  0  0  0  0  0  0  0  0  0  0  0
  -24.8976  -32.4914   27.6973 C   0  0  0  0  0  0  0  0  0  0  0  0
  -25.5345  -30.9908   21.3914 C   0  0  0  0  0  0  0  0  0  0  0  0
  -23.7288  -28.8418   20.4608 C   0  0  0  0  0  0  0  0  0  0  0  0
  -23.6915  -32.3434   26.7734 C   0  0  0  0  0  0  0  0  0  0  0  0
  -30.1885  -11.4045   18.9760 C   0  0  0  0  0  0  0  0  0  0  0  0
  -23.5052  -30.8847   26.3680 C   0  0  0  0  0  0  0  0  0  0  0  0
  -28.6952  -11.0933   19.0993 C   0  0  0  0  0  0  0  0  0  0  0  0
  -30.6827  -12.2783   20.1274 C   0  0  0  0  0  0  0  0  0  0  0  0
  -28.4240  -13.2018   20.4660 C   0  0  0  0  0  0  0  0  0  0  0  0
  -24.7231  -30.3678   25.5926 C   0  0  1  0  0  0  0  0  0  0  0  0
  -24.0938  -30.8839   21.8817 C   0  0  1  0  0  0  0  0  0  0  0  0
  -27.8660  -12.3779   19.2939 C   0  0  2  0  0  0  0  0  0  0  0  0
  -28.6656  -23.4991   18.5822 C   0  0  0  0  0  0  0  0  0  0  0  0
  -19.3884  -30.3119   15.7552 C   0  0  0  0  0  0  0  0  0  0  0  0
  -20.1341  -28.5092   22.0848 C   0  0  0  0  0  0  0  0  0  0  0  0
  -18.9116  -28.2626   19.9139 C   0  0  0  0  0  0  0  0  0  0  0  0
  -18.9158  -30.4579   21.0985 C   0  0  0  0  0  0  0  0  0  0  0  0
  -23.0575  -31.3179   15.7154 C   0  0  0  0  0  0  0  0  0  0  0  0
  -21.0255  -29.6630   19.9541 C   0  0  1  0  0  0  0  0  0  0  0  0
  -20.6985  -30.8007   16.3529 C   0  0  2  0  0  0  0  0  0  0  0  0
  -19.7749  -29.2190   20.7642 C   0  0  0  0  0  0  0  0  0  0  0  0
  -25.8983  -11.9095   20.7047 N   0  0  0  0  0  0  0  0  0  0  0  0
  -26.3894  -12.0736   19.4645 N   0  0  0  0  0  0  0  0  0  0  0  0
  -23.2367  -30.1368   20.9590 N   0  0  0  0  0  0  0  0  0  0  0  0
  -29.8526  -13.4788   20.2489 N   0  0  0  0  0  0  0  0  0  0  0  0
  -25.7788  -12.0739   17.1759 N   0  0  0  0  0  0  0  0  0  0  0  0
  -21.8896  -11.1832   19.2918 N   0  0  0  0  0  0  0  0  0  0  0  0
  -29.5598  -15.8190   20.2558 N   0  0  0  0  0  0  0  0  0  0  0  0
  -28.1855  -21.4991   20.6589 N   0  0  0  0  0  0  0  0  0  0  0  0
  -24.6921  -30.8446   24.2266 N   0  0  0  0  0  0  0  0  0  0  0  0
  -20.7154  -30.3620   18.7117 N   0  0  0  0  0  0  0  0  0  0  0  0
  -26.8886  -20.0759   22.0322 N   0  3  0  0  0  0  0  0  0  0  0  0
  -21.7246  -30.8336   15.2727 N   0  3  0  0  0  0  0  0  0  0  0  0
  -22.8685  -11.4714   17.2381 O   0  0  0  0  0  0  0  0  0  0  0  0
  -26.1803  -22.5757   21.1575 O   0  0  0  0  0  0  0  0  0  0  0  0
  -23.3083  -29.1973   23.3355 O   0  0  0  0  0  0  0  0  0  0  0  0
  -21.4829  -31.6616   21.1469 O   0  0  0  0  0  0  0  0  0  0  0  0
  -21.8343  -28.8941   17.3080 O   0  0  0  0  0  0  0  0  0  0  0  0
  -31.6660  -14.8869   19.9787 O   0  0  0  0  0  0  0  0  0  0  0  0
  -21.1607  -10.7467   24.7976 O   0  0  0  0  0  0  0  0  0  0  0  0
  -27.6614  -26.1081   19.4608 O   0  0  0  0  0  0  0  0  0  1  0  0
  -17.6162   -6.5417   24.4000 F   0  0  0  0  0  0  0  0  0  0  0  0
  -21.2154   -8.6686   26.6199 F   0  0  0  0  0  0  0  0  0  0  0  0
  1  2  1  0  0  0  0
  1  7  2  0  0  0  0
  2  8  2  0  0  0  0
  3  6  2  0  0  0  0
  3 10  1  0  0  0  0
  4 11  2  0  0  0  0
  4 19  1  0  0  0  0
  5 12  1  0  0  0  0
  5 19  2  0  0  0  0
  6 20  1  0  0  0  0
  7 22  1  0  0  0  0
  8 24  1  0  0  0  0
  9 13  2  0  0  0  0
  9 23  1  0  0  0  0
 10 26  2  0  0  0  0
 11 27  1  0  0  0  0
 12 27  2  0  0  0  0
 13 28  1  0  0  0  0
 14 15  2  0  0  0  0
 14 29  1  0  0  0  0
 15 30  1  0  0  0  0
 16 20  2  0  0  0  0
 16 26  1  0  0  0  0
 17 25  1  0  0  0  0
 17 28  2  0  0  0  0
 18 30  2  0  0  0  0
 18 31  1  0  0  0  0
 19 32  1  0  0  0  0
 20 35  1  0  0  0  0
 21 32  1  0  0  0  0
 21 33  2  0  0  0  0
 21 36  1  0  0  0  0
 22 24  2  0  0  0  0
 22 43  1  0  0  0  0
 23 25  2  0  0  0  0
 23 44  1  0  0  0  0
 24 52  1  0  0  0  0
 25 45  1  0  0  0  0
 26 70  1  0  0  0  0
 27 82  1  0  0  0  0
 28 83  1  0  0  0  0
 29 31  2  0  0  0  0
 29 82  1  0  0  0  0
 30 84  1  0  0  0  0
 31 85  1  0  0  0  0
 32 64  2  0  0  0  0
 33 65  1  0  0  0  0
 33 68  1  0  0  0  0
 34 37  2  0  0  0  0
 34 83  1  0  0  0  0
 35 71  1  0  0  0  0
 35 74  2  0  0  0  0
 36 69  1  0  0  0  0
 36 76  2  0  0  0  0
 37 38  1  0  0  0  0
 37 55  1  0  0  0  0
 38 71  1  0  0  0  0
 38 77  2  0  0  0  0
 39 53  1  0  0  0  0
 39 72  1  0  0  0  0
 39 78  2  0  0  0  0
 40 61  1  0  0  0  0
 40 66  1  0  0  0  0
 40 79  2  0  0  0  0
 41 62  1  0  0  0  0
 41 73  1  0  0  0  0
 41 80  2  0  0  0  0
 42 67  1  0  0  0  0
 42 70  1  0  0  0  0
 42 81  2  0  0  0  0
 43 46  1  0  0  0  0
 44 53  1  0  0  0  0
 45 66  1  0  0  0  0
 46 48  1  0  0  0  0
 47 49  1  0  0  0  0
 47 50  1  0  0  0  0
 48 52  1  0  0  0  0
 49 54  1  0  0  0  0
 50 67  1  0  0  0  0
 51 54  1  0  0  0  0
 51 67  1  0  0  0  0
 52 72  1  0  0  0  0
 53 66  1  0  0  0  0
 54 65  1  0  0  0  0
 56 62  1  0  0  0  0
 57 63  1  0  0  0  0
 58 63  1  0  0  0  0
 59 63  1  0  0  0  0
 60 75  1  0  0  0  0
 61 63  1  0  0  0  0
 61 73  1  0  0  0  0
 62 75  1  0  0  0  0
 64 65  1  0  0  0  0
M  CHG  2  74   1  75   1
M  ISO  4  34 101  42 100  70 100  83 101
M  END
> <Batch ID>
0075

> <Smiles>
CNC(C)C(=O)NC(C(=O)N1Cc2cc([101O:1][101CH:1]=C(C)C(=O)NC(=N)c3cccc([100NH:0][100C:0](=O)N4CCCC(n5nc(-c6ccc(Oc7ccc(F)cc7F)cc6)c(C(N)=O)c5N)C4)c3)ccc2CC1C(=O)NC1CCCc2ccccc21)C(C)(C)C

> <Shape>
0.276

> <Color>
0.105

> <Negative vol penalty>
0.000

$$$$

  -OEChem-04042323473D

 86 94  0     1  0  0  0  0  0999 V2000
  -17.6141  -29.7585   19.8916 C   0  0  0  0  0  0  0  0  0  0  0  0
  -18.9705  -29.7914   19.5842 C   0  0  0  0  0  0  0  0  0  0  0  0
  -26.6410  -11.8555   20.8757 C   0  0  0  0  0  0  0  0  0  0  0  0
  -25.7723  -14.0130   20.2219 C   0  0  0  0  0  0  0  0  0  0  0  0
  -17.1774  -29.1073   21.0445 C   0  0  0  0  0  0  0  0  0  0  0  0
  -19.8911  -29.1739   20.4301 C   0  0  0  0  0  0  0  0  0  0  0  0
  -25.0587  -26.3235   18.7939 C   0  0  0  0  0  0  0  0  0  0  0  0
  -29.5006  -21.1897   19.6040 C   0  0  0  0  0  0  0  0  0  0  0  0
  -31.2276  -21.7884   21.1838 C   0  0  0  0  0  0  0  0  0  0  0  0
  -25.3641  -11.3062   20.7598 C   0  0  0  0  0  0  0  0  0  0  0  0
  -24.4954  -13.4638   20.1060 C   0  0  0  0  0  0  0  0  0  0  0  0
  -26.3910  -26.7339   18.7759 C   0  0  0  0  0  0  0  0  0  0  0  0
  -21.9703  -12.5718   22.1698 C   0  0  0  0  0  0  0  0  0  0  0  0
  -20.9054  -13.2860   22.7188 C   0  0  0  0  0  0  0  0  0  0  0  0
  -29.9573  -22.1767   18.7306 C   0  0  0  0  0  0  0  0  0  0  0  0
  -31.6844  -22.7754   20.3104 C   0  0  0  0  0  0  0  0  0  0  0  0
  -26.7277  -25.7150   20.9364 C   0  0  0  0  0  0  0  0  0  0  0  0
  -19.8748  -13.4256   20.5381 C   0  0  0  0  0  0  0  0  0  0  0  0
  -26.8451  -13.2089   20.6068 C   0  0  0  0  0  0  0  0  0  0  0  0
  -29.3198  -13.3995   20.0177 C   0  0  0  0  0  0  0  0  0  0  0  0
  -18.0922  -28.4732   21.8999 C   0  0  0  0  0  0  0  0  0  0  0  0
  -24.5472  -25.6141   19.8900 C   0  0  0  0  0  0  0  0  0  0  0  0
  -19.4664  -28.5147   21.5962 C   0  0  0  0  0  0  0  0  0  0  0  0
  -25.3892  -25.2945   20.9647 C   0  0  0  0  0  0  0  0  0  0  0  0
  -30.1357  -20.9956   20.8306 C   0  0  0  0  0  0  0  0  0  0  0  0
  -24.2913  -12.1104   20.3749 C   0  0  0  0  0  0  0  0  0  0  0  0
  -27.2250  -26.4322   19.8486 C   0  0  0  0  0  0  0  0  0  0  0  0
  -21.9876  -12.2845   20.8049 C   0  0  0  0  0  0  0  0  0  0  0  0
  -19.8576  -13.7129   21.9030 C   0  0  0  0  0  0  0  0  0  0  0  0
  -20.9398  -12.7114   19.9891 C   0  0  0  0  0  0  0  0  0  0  0  0
  -31.0493  -22.9695   19.0838 C   0  0  0  0  0  0  0  0  0  0  0  0
  -28.1638  -13.7770   20.7269 C   0  0  0  0  0  0  0  0  0  0  0  0
  -30.3014  -14.2355   20.4912 C   0  0  0  0  0  0  0  0  0  0  0  0
  -29.4911  -12.3841   19.0201 C   0  0  0  0  0  0  0  0  0  0  0  0
  -22.2672  -26.1459   22.0400 C   0  0  0  0  0  0  0  0  0  0  0  0
  -31.3931  -27.4796   19.7983 C   0  0  0  0  0  0  0  0  0  0  0  0
  -22.9566  -23.1091   22.9483 C   0  0  0  0  0  0  0  0  0  0  0  0
  -25.2209  -20.5576   23.0457 C   0  0  0  0  0  0  0  0  0  0  0  0
  -30.1881  -19.6702   22.9723 C   0  0  0  0  0  0  0  0  0  0  0  0
  -17.5774  -27.8224   23.1593 C   0  0  0  0  0  0  0  0  0  0  0  0
  -23.1147  -25.1553   19.8821 C   0  0  0  0  0  0  0  0  0  0  0  0
  -24.8942  -24.5175   22.1562 C   0  0  0  0  0  0  0  0  0  0  0  0
  -18.5802  -26.8710   23.8070 C   0  0  0  0  0  0  0  0  0  0  0  0
  -31.5522  -16.7065   24.3981 C   0  0  0  0  0  0  0  0  0  0  0  0
  -19.9601  -27.5173   23.8781 C   0  0  0  0  0  0  0  0  0  0  0  0
  -30.9480  -15.5849   23.5501 C   0  0  0  0  0  0  0  0  0  0  0  0
  -30.5604  -17.8472   24.6195 C   0  0  0  0  0  0  0  0  0  0  0  0
  -29.3570  -17.2734   22.5478 C   0  0  0  0  0  0  0  0  0  0  0  0
  -20.4933  -27.8353   22.4759 C   0  0  1  0  0  0  0  0  0  0  0  0
  -22.5663  -24.8848   21.2798 C   0  0  1  0  0  0  0  0  0  0  0  0
  -30.3402  -16.1314   22.2434 C   0  0  2  0  0  0  0  0  0  0  0  0
  -32.2948  -27.8916   20.9349 C   0  0  0  0  0  0  0  0  0  0  0  0
  -25.5101  -18.2116   23.8885 C   0  0  0  0  0  0  0  0  0  0  0  0
  -23.3399  -24.1765   25.7809 C   0  0  0  0  0  0  0  0  0  0  0  0
  -24.5224  -22.0442   26.3496 C   0  0  0  0  0  0  0  0  0  0  0  0
  -22.1303  -21.9919   25.6441 C   0  0  0  0  0  0  0  0  0  0  0  0
  -25.6271  -19.5016   20.3110 C   0  0  0  0  0  0  0  0  0  0  0  0
  -29.4643  -26.0150   20.5321 C   0  0  0  0  0  0  0  0  0  1  0  0
  -30.8252  -26.0722   19.8519 C   0  0  1  0  0  0  0  0  0  0  0  0
  -23.9192  -22.4778   23.9249 C   0  0  1  0  0  0  0  0  0  0  0  0
  -25.0906  -19.0820   22.7141 C   0  0  2  0  0  0  0  0  0  0  0  0
  -23.4871  -22.6890   25.4035 C   0  0  0  0  0  0  0  0  0  0  0  0
  -28.3886  -14.7749   21.5857 N   0  0  0  0  0  0  0  0  0  0  0  0
  -29.6972  -15.0316   21.4194 N   0  0  0  0  0  0  0  0  0  0  0  0
  -23.4844  -24.0967   22.1045 N   0  0  0  0  0  0  0  0  0  0  0  0
  -30.0293  -18.3167   23.3379 N   0  0  0  0  0  0  0  0  0  0  0  0
  -31.6137  -14.3598   20.2001 N   0  0  0  0  0  0  0  0  0  0  0  0
  -29.2984  -12.7293   17.6754 N   0  0  0  0  0  0  0  0  0  0  0  0
  -29.6716  -19.9930   21.7179 N   0  0  0  0  0  0  0  0  0  0  0  0
  -20.9901  -26.6341   21.8397 N   0  0  0  0  0  0  0  0  0  0  0  0
  -24.0402  -21.0781   23.5318 N   0  0  0  0  0  0  0  0  0  0  0  0
  -30.7148  -25.5685   18.4649 N   0  0  0  0  0  0  0  0  0  0  0  0
  -25.9462  -18.7365   21.5438 N   0  3  0  0  0  0  0  0  0  0  0  0
  -29.7896  -11.2016   19.3136 O   0  0  0  0  0  0  0  0  0  0  0  0
  -23.1307  -26.6387   22.7565 O   0  0  0  0  0  0  0  0  0  0  0  0
  -31.1341  -28.2687   18.8893 O   0  0  0  0  0  0  0  0  0  0  0  0
  -21.7814  -22.7346   22.9298 O   0  0  0  0  0  0  0  0  0  0  0  0
  -26.2667  -21.1849   22.8927 O   0  0  0  0  0  0  0  0  0  0  0  0
  -30.7655  -20.4770   23.7055 O   0  0  0  0  0  0  0  0  0  0  0  0
  -33.0295  -24.4588   18.2647 O   0  0  0  0  0  0  0  0  0  0  0  0
  -31.2128  -23.8301   16.6433 O   0  0  0  0  0  0  0  0  0  0  0  0
  -23.0452  -11.5747   20.2615 O   0  0  0  0  0  0  0  0  0  0  0  0
  -28.5256  -26.8321   19.8338 O   0  0  0  0  0  0  0  0  0  1  0  0
  -18.8342  -14.3974   22.4306 F   0  0  0  0  0  0  0  0  0  0  0  0
  -20.9502  -12.4374   18.6773 F   0  0  0  0  0  0  0  0  0  0  0  0
  -31.6279  -24.2205   17.9770 S   0  0  0  0  0  0  0  0  0  0  0  0
  1  2  1  0  0  0  0
  1  5  2  0  0  0  0
  2  6  2  0  0  0  0
  3 10  2  0  0  0  0
  3 19  1  0  0  0  0
  4 11  1  0  0  0  0
  4 19  2  0  0  0  0
  5 21  1  0  0  0  0
  6 23  1  0  0  0  0
  7 12  2  0  0  0  0
  7 22  1  0  0  0  0
  8 15  2  0  0  0  0
  8 25  1  0  0  0  0
  9 16  1  0  0  0  0
  9 25  2  0  0  0  0
 10 26  1  0  0  0  0
 11 26  2  0  0  0  0
 12 27  1  0  0  0  0
 13 14  2  0  0  0  0
 13 28  1  0  0  0  0
 14 29  1  0  0  0  0
 15 31  1  0  0  0  0
 16 31  2  0  0  0  0
 17 24  1  0  0  0  0
 17 27  2  0  0  0  0
 18 29  2  0  0  0  0
 18 30  1  0  0  0  0
 19 32  1  0  0  0  0
 20 32  1  0  0  0  0
 20 33  2  0  0  0  0
 20 34  1  0  0  0  0
 21 23  2  0  0  0  0
 21 40  1  0  0  0  0
 22 24  2  0  0  0  0
 22 41  1  0  0  0  0
 23 49  1  0  0  0  0
 24 42  1  0  0  0  0
 25 69  1  0  0  0  0
 26 82  1  0  0  0  0
 27 83  1  0  0  0  0
 28 30  2  0  0  0  0
 28 82  1  0  0  0  0
 29 84  1  0  0  0  0
 30 85  1  0  0  0  0
 31 86  1  0  0  0  0
 32 63  2  0  0  0  0
 33 64  1  0  0  0  0
 33 67  1  0  0  0  0
 34 68  1  0  0  0  0
 34 74  2  0  0  0  0
 35 50  1  0  0  0  0
 35 70  1  0  0  0  0
 35 75  2  0  0  0  0
 36 52  1  0  0  0  0
 36 59  1  0  0  0  0
 36 76  2  0  0  0  0
 37 60  1  0  0  0  0
 37 65  1  0  0  0  0
 37 77  2  0  0  0  0
 38 61  1  0  0  0  0
 38 71  1  0  0  0  0
 38 78  2  0  0  0  0
 39 66  1  0  0  0  0
 39 69  1  0  0  0  0
 39 79  2  0  0  0  0
 40 43  1  0  0  0  0
 41 50  1  0  0  0  0
 42 65  1  0  0  0  0
 43 45  1  0  0  0  0
 44 46  1  0  0  0  0
 44 47  1  0  0  0  0
 45 49  1  0  0  0  0
 46 51  1  0  0  0  0
 47 66  1  0  0  0  0
 48 51  1  0  0  0  0
 48 66  1  0  0  0  0
 49 70  1  0  0  0  0
 50 65  1  0  0  0  0
 51 64  1  0  0  0  0
 53 61  1  0  0  0  0
 54 62  1  0  0  0  0
 55 62  1  0  0  0  0
 56 62  1  0  0  0  0
 57 73  1  0  0  0  0
 58 59  1  0  0  0  0
 58 83  1  0  0  0  0
 59 72  1  0  0  0  0
 60 62  1  0  0  0  0
 60 71  1  0  0  0  0
 61 73  1  0  0  0  0
 63 64  1  0  0  0  0
 72 86  1  0  0  0  0
 80 86  2  0  0  0  0
 81 86  2  0  0  0  0
M  CHG  1  73   1
M  ISO  4  39 100  58 101  69 100  83 101
M  END
> <Batch ID>
0075

> <Smiles>
CNC(C)C(=O)NC(C(=O)N1Cc2cc([101O:1][101CH2:1]C(NS(=O)(=O)c3ccc([100NH:0][100C:0](=O)N4CCCC(n5nc(-c6ccc(Oc7ccc(F)cc7F)cc6)c(C(N)=O)c5N)C4)cc3)C(C)=O)ccc2CC1C(=O)NC1CCCc2ccccc21)C(C)(C)C

> <Shape>
0.238

> <Color>
0.065

> <Negative vol penalty>
0.000

$$$$

  -OEChem-04042323473D

 88 97  0     1  0  0  0  0  0999 V2000
  -22.8309  -37.6699   23.9164 C   0  0  0  0  0  0  0  0  0  0  0  0
  -22.4753  -36.4825   23.2846 C   0  0  0  0  0  0  0  0  0  0  0  0
  -23.9258   -9.3609   20.1781 C   0  0  0  0  0  0  0  0  0  0  0  0
  -23.3811  -10.7450   22.0820 C   0  0  0  0  0  0  0  0  0  0  0  0
  -24.1437  -37.8649   24.3435 C   0  0  0  0  0  0  0  0  0  0  0  0
  -23.4326  -35.4898   23.0786 C   0  0  0  0  0  0  0  0  0  0  0  0
  -22.5443  -29.4321   23.2212 C   0  0  0  0  0  0  0  0  0  0  0  0
  -23.3493   -8.2608   20.8129 C   0  0  0  0  0  0  0  0  0  0  0  0
  -22.8045   -9.6449   22.7168 C   0  0  0  0  0  0  0  0  0  0  0  0
  -22.3497  -28.4886   22.2134 C   0  0  0  0  0  0  0  0  0  0  0  0
  -19.8983   -7.9266   22.5689 C   0  0  0  0  0  0  0  0  0  0  0  0
  -18.6626   -8.1121   23.1886 C   0  0  0  0  0  0  0  0  0  0  0  0
  -24.7033  -27.9615   22.2609 C   0  0  0  0  0  0  0  0  0  0  0  0
  -27.8071  -21.6732   21.0044 C   0  0  0  0  0  0  0  0  0  0  0  0
  -29.1044  -19.6361   20.9411 C   0  0  0  0  0  0  0  0  0  0  0  0
  -19.6289   -7.4696   25.3077 C   0  0  0  0  0  0  0  0  0  0  0  0
  -23.9417  -10.6030   20.8127 C   0  0  0  0  0  0  0  0  0  0  0  0
  -23.8995  -12.6609   19.3056 C   0  0  0  0  0  0  0  0  0  0  0  0
  -25.1154  -36.8701   24.1513 C   0  0  0  0  0  0  0  0  0  0  0  0
  -23.8238  -29.6554   23.7498 C   0  0  0  0  0  0  0  0  0  0  0  0
  -24.7600  -35.6722   23.5024 C   0  0  0  0  0  0  0  0  0  0  0  0
  -24.9109  -28.9065   23.2772 C   0  0  0  0  0  0  0  0  0  0  0  0
  -26.7222  -20.9999   20.4430 C   0  0  0  0  0  0  0  0  0  0  0  0
  -28.9982  -20.9914   21.2535 C   0  0  0  0  0  0  0  0  0  0  0  0
  -28.0195  -18.9627   20.3797 C   0  0  0  0  0  0  0  0  0  0  0  0
  -22.7886   -8.4028   22.0822 C   0  0  0  0  0  0  0  0  0  0  0  0
  -23.4298  -27.7552   21.7310 C   0  0  0  0  0  0  0  0  0  0  0  0
  -20.9994   -7.5125   23.3185 C   0  0  0  0  0  0  0  0  0  0  0  0
  -18.5279   -7.8836   24.5581 C   0  0  0  0  0  0  0  0  0  0  0  0
  -20.8647   -7.2841   24.6879 C   0  0  0  0  0  0  0  0  0  0  0  0
  -26.8284  -19.6446   20.1306 C   0  0  0  0  0  0  0  0  0  0  0  0
  -24.5377  -11.7397   20.1577 C   0  0  0  0  0  0  0  0  0  0  0  0
  -24.8906  -13.5425   18.9493 C   0  0  0  0  0  0  0  0  0  0  0  0
  -23.9210  -23.3152   20.0434 C   0  0  0  0  0  0  0  0  0  0  0  0
  -23.3265  -22.1115   19.5187 C   0  0  0  0  0  0  0  0  0  0  0  0
  -25.3212  -23.0433   20.4725 C   0  0  0  0  0  0  0  0  0  0  0  0
  -22.0927  -21.9383   19.0328 C   0  0  0  0  0  0  0  0  0  0  0  0
  -23.3893  -24.5359   20.1703 C   0  0  0  0  0  0  0  0  0  0  0  0
  -22.5331  -12.7148   18.8749 C   0  0  0  0  0  0  0  0  0  0  0  0
  -25.7961  -32.1450   23.8743 C   0  0  0  0  0  0  0  0  0  0  0  0
  -27.5607  -30.1584   25.7349 C   0  0  0  0  0  0  0  0  0  0  0  0
  -28.3440  -26.9586   26.6265 C   0  0  0  0  0  0  0  0  0  0  0  0
  -29.2423  -16.7640   20.2484 C   0  0  0  0  0  0  0  0  0  0  0  0
  -26.5325  -37.1457   24.5878 C   0  0  0  0  0  0  0  0  0  0  0  0
  -24.0124  -30.6578   24.8553 C   0  0  0  0  0  0  0  0  0  0  0  0
  -26.3012  -29.0940   23.8254 C   0  0  0  0  0  0  0  0  0  0  0  0
  -24.3640  -21.0335   19.6097 C   0  0  0  0  0  0  0  0  0  0  0  0
  -27.4000  -35.8921   24.6672 C   0  0  0  0  0  0  0  0  0  0  0  0
  -29.9008  -13.3192   19.6347 C   0  0  0  0  0  0  0  0  0  0  0  0
  -27.2164  -35.0359   23.4182 C   0  0  0  0  0  0  0  0  0  0  0  0
  -28.5117  -12.6769   19.6460 C   0  0  0  0  0  0  0  0  0  0  0  0
  -30.0158  -14.4398   20.6665 C   0  0  0  0  0  0  0  0  0  0  0  0
  -27.5842  -14.8283   20.5938 C   0  0  0  0  0  0  0  0  0  0  0  0
  -25.7643  -34.5617   23.2830 C   0  0  1  0  0  0  0  0  0  0  0  0
  -25.4462  -31.1681   24.9609 C   0  0  1  0  0  0  0  0  0  0  0  0
  -27.3996  -13.7373   19.5264 C   0  0  2  0  0  0  0  0  0  0  0  0
  -29.8509  -25.6505   28.1482 C   0  0  0  0  0  0  0  0  0  0  0  0
  -29.9147  -30.7097   23.8736 C   0  0  0  0  0  0  0  0  0  0  0  0
  -31.0607  -28.7060   24.8434 C   0  0  0  0  0  0  0  0  0  0  0  0
  -30.4990  -30.6482   26.3045 C   0  0  0  0  0  0  0  0  0  0  0  0
  -26.0487  -25.7467   28.0483 C   0  0  0  0  0  0  0  0  0  0  0  0
  -24.1200  -25.7086   20.7355 C   0  0  0  0  0  0  0  0  0  1  0  0
  -28.6450  -29.1389   25.4819 C   0  0  1  0  0  0  0  0  0  0  0  0
  -28.4841  -26.2974   27.9857 C   0  0  2  0  0  0  0  0  0  0  0  0
  -30.0041  -29.7983   25.1140 C   0  0  0  0  0  0  0  0  0  0  0  0
  -25.8338  -12.0108   20.3320 N   0  0  0  0  0  0  0  0  0  0  0  0
  -26.0182  -13.1124   19.5845 N   0  0  0  0  0  0  0  0  0  0  0  0
  -25.5351  -21.6821   20.1962 N   0  0  0  0  0  0  0  0  0  0  0  0
  -26.4356  -30.0903   24.9009 N   0  0  0  0  0  0  0  0  0  0  0  0
  -28.9321  -15.4089   20.4895 N   0  0  0  0  0  0  0  0  0  0  0  0
  -30.0955  -21.6717   21.8216 N   0  0  0  0  0  0  0  0  0  0  0  0
  -24.8987  -14.6359   18.1576 N   0  0  0  0  0  0  0  0  0  0  0  0
  -21.6478  -11.7309   19.3359 N   0  0  0  0  0  0  0  0  0  0  0  0
  -28.1309  -17.5859   20.0638 N   0  0  0  0  0  0  0  0  0  0  0  0
  -25.5064  -33.4599   24.1852 N   0  0  0  0  0  0  0  0  0  0  0  0
  -28.6937  -28.2918   26.6686 N   0  0  0  0  0  0  0  0  0  0  0  0
  -27.4427  -25.2456   28.1599 N   0  3  0  0  0  0  0  0  0  0  0  0
  -26.0924  -23.8541   20.9576 O   0  0  0  0  0  0  0  0  0  0  0  0
  -22.1134  -13.5995   18.0909 O   0  0  0  0  0  0  0  0  0  0  0  0
  -26.2935  -31.7364   22.8316 O   0  0  0  0  0  0  0  0  0  0  0  0
  -27.7033  -30.9801   26.6437 O   0  0  0  0  0  0  0  0  0  0  0  0
  -27.9660  -26.3523   25.6265 O   0  0  0  0  0  0  0  0  0  0  0  0
  -30.4085  -17.1609   20.1816 O   0  0  0  0  0  0  0  0  0  0  0  0
  -22.2257   -7.3295   22.7018 O   0  0  0  0  0  0  0  0  0  0  0  0
  -23.2428  -26.8341   20.7469 O   0  0  0  0  0  0  0  0  0  1  0  0
  -17.3415   -8.0633   25.1534 F   0  0  0  0  0  0  0  0  0  0  0  0
  -21.9192   -6.8873   25.4135 F   0  0  0  0  0  0  0  0  0  0  0  0
  -25.7844  -18.9961   19.5920 F   0  0  0  0  0  0  0  0  0  0  0  0
  1  2  1  0  0  0  0
  1  5  2  0  0  0  0
  2  6  2  0  0  0  0
  3  8  2  0  0  0  0
  3 17  1  0  0  0  0
  4  9  1  0  0  0  0
  4 17  2  0  0  0  0
  5 19  1  0  0  0  0
  6 21  1  0  0  0  0
  7 10  2  0  0  0  0
  7 20  1  0  0  0  0
  8 26  1  0  0  0  0
  9 26  2  0  0  0  0
 10 27  1  0  0  0  0
 11 12  2  0  0  0  0
 11 28  1  0  0  0  0
 12 29  1  0  0  0  0
 13 22  1  0  0  0  0
 13 27  2  0  0  0  0
 14 23  1  0  0  0  0
 14 24  2  0  0  0  0
 15 24  1  0  0  0  0
 15 25  2  0  0  0  0
 16 29  2  0  0  0  0
 16 30  1  0  0  0  0
 17 32  1  0  0  0  0
 18 32  1  0  0  0  0
 18 33  2  0  0  0  0
 18 39  1  0  0  0  0
 19 21  2  0  0  0  0
 19 44  1  0  0  0  0
 20 22  2  0  0  0  0
 20 45  1  0  0  0  0
 21 54  1  0  0  0  0
 22 46  1  0  0  0  0
 23 31  2  0  0  0  0
 23 68  1  0  0  0  0
 24 71  1  0  0  0  0
 25 31  1  0  0  0  0
 25 74  1  0  0  0  0
 26 84  1  0  0  0  0
 27 85  1  0  0  0  0
 28 30  2  0  0  0  0
 28 84  1  0  0  0  0
 29 86  1  0  0  0  0
 30 87  1  0  0  0  0
 31 88  1  0  0  0  0
 32 66  2  0  0  0  0
 33 67  1  0  0  0  0
 33 72  1  0  0  0  0
 34 35  1  0  0  0  0
 34 36  1  0  0  0  0
 34 38  2  0  0  0  0
 35 37  2  0  0  0  0
 35 47  1  0  0  0  0
 36 68  1  0  0  0  0
 36 78  2  0  0  0  0
 38 62  1  0  0  0  0
 39 73  1  0  0  0  0
 39 79  2  0  0  0  0
 40 55  1  0  0  0  0
 40 75  1  0  0  0  0
 40 80  2  0  0  0  0
 41 63  1  0  0  0  0
 41 69  1  0  0  0  0
 41 81  2  0  0  0  0
 42 64  1  0  0  0  0
 42 76  1  0  0  0  0
 42 82  2  0  0  0  0
 43 70  1  0  0  0  0
 43 74  1  0  0  0  0
 43 83  2  0  0  0  0
 44 48  1  0  0  0  0
 45 55  1  0  0  0  0
 46 69  1  0  0  0  0
 47 68  1  0  0  0  0
 48 50  1  0  0  0  0
 49 51  1  0  0  0  0
 49 52  1  0  0  0  0
 50 54  1  0  0  0  0
 51 56  1  0  0  0  0
 52 70  1  0  0  0  0
 53 56  1  0  0  0  0
 53 70  1  0  0  0  0
 54 75  1  0  0  0  0
 55 69  1  0  0  0  0
 56 67  1  0  0  0  0
 57 64  1  0  0  0  0
 58 65  1  0  0  0  0
 59 65  1  0  0  0  0
 60 65  1  0  0  0  0
 61 77  1  0  0  0  0
 62 85  1  0  0  0  0
 63 65  1  0  0  0  0
 63 76  1  0  0  0  0
 64 77  1  0  0  0  0
 66 67  1  0  0  0  0
M  CHG  1  77   1
M  ISO  4  43 100  62 101  74 100  85 101
M  END
> <Batch ID>
0075

> <Smiles>
C=C1CN(c2cc(N)cc([100NH:0][100C:0](=O)N3CCCC(n4nc(-c5ccc(Oc6ccc(F)cc6F)cc5)c(C(N)=O)c4N)C3)c2F)C(=O)C1=C[101CH2:1][101O:1]c1ccc2c(c1)CN(C(=O)C(NC(=O)C(C)NC)C(C)(C)C)C(C(=O)NC1CCCc3ccccc31)C2

> <Shape>
0.262

> <Color>
0.071

> <Negative vol penalty>
0.000

$$$$

  -OEChem-04042323473D

 88 97  0     1  0  0  0  0  0999 V2000
  -14.7836  -28.5253   24.8322 C   0  0  0  0  0  0  0  0  0  0  0  0
  -15.2001  -27.4846   24.0084 C   0  0  0  0  0  0  0  0  0  0  0  0
  -27.3001  -15.0359   21.0213 C   0  0  0  0  0  0  0  0  0  0  0  0
  -29.2119  -13.7714   20.2574 C   0  0  0  0  0  0  0  0  0  0  0  0
  -15.5451  -29.6898   24.9213 C   0  0  0  0  0  0  0  0  0  0  0  0
  -16.3779  -27.6081   23.2723 C   0  0  0  0  0  0  0  0  0  0  0  0
  -21.7792  -22.9147   24.1024 C   0  0  0  0  0  0  0  0  0  0  0  0
  -29.4491  -21.4223   21.6600 C   0  0  0  0  0  0  0  0  0  0  0  0
  -30.2111  -22.0402   20.6685 C   0  0  0  0  0  0  0  0  0  0  0  0
  -26.5181  -13.8819   20.9744 C   0  0  0  0  0  0  0  0  0  0  0  0
  -28.4298  -12.6174   20.2106 C   0  0  0  0  0  0  0  0  0  0  0  0
  -22.7730  -21.9370   24.0506 C   0  0  0  0  0  0  0  0  0  0  0  0
  -26.0231  -11.1294   22.8749 C   0  0  0  0  0  0  0  0  0  0  0  0
  -25.1833  -10.8710   23.9582 C   0  0  0  0  0  0  0  0  0  0  0  0
  -24.0269  -23.2797   22.4781 C   0  0  0  0  0  0  0  0  0  0  0  0
  -27.9724  -20.5297   19.9689 C   0  0  0  0  0  0  0  0  0  0  0  0
  -23.2672  -10.9348   22.4879 C   0  0  0  0  0  0  0  0  0  0  0  0
  -28.6470  -14.9807   20.6627 C   0  0  0  0  0  0  0  0  0  0  0  0
  -29.7255  -16.9720   21.8372 C   0  0  0  0  0  0  0  0  0  0  0  0
  -16.7379  -29.8239   24.1934 C   0  0  0  0  0  0  0  0  0  0  0  0
  -21.9130  -24.0869   23.3531 C   0  0  0  0  0  0  0  0  0  0  0  0
  -17.1555  -28.7760   23.3507 C   0  0  0  0  0  0  0  0  0  0  0  0
  -23.0407  -24.2681   22.5355 C   0  0  0  0  0  0  0  0  0  0  0  0
  -28.3298  -20.6670   21.3102 C   0  0  0  0  0  0  0  0  0  0  0  0
  -29.8538  -21.9029   19.3272 C   0  0  0  0  0  0  0  0  0  0  0  0
  -28.7344  -21.1477   18.9773 C   0  0  0  0  0  0  0  0  0  0  0  0
  -27.0829  -12.6726   20.5691 C   0  0  0  0  0  0  0  0  0  0  0  0
  -23.8939  -22.1190   23.2403 C   0  0  0  0  0  0  0  0  0  0  0  0
  -25.4850  -11.2905   21.5981 C   0  0  0  0  0  0  0  0  0  0  0  0
  -23.8054  -10.7737   23.7647 C   0  0  0  0  0  0  0  0  0  0  0  0
  -24.1070  -11.1932   21.4046 C   0  0  0  0  0  0  0  0  0  0  0  0
  -29.4552  -16.1726   20.7103 C   0  0  0  0  0  0  0  0  0  0  0  0
  -30.5340  -17.9749   21.3608 C   0  0  0  0  0  0  0  0  0  0  0  0
  -26.7037  -19.2863   24.3422 C   0  0  0  0  0  0  0  0  0  0  0  0
  -27.7890  -20.0854   23.7049 C   0  0  0  0  0  0  0  0  0  0  0  0
  -26.7318  -18.9950   25.6469 C   0  0  0  0  0  0  0  0  0  0  0  0
  -29.2851  -16.8214   23.1933 C   0  0  0  0  0  0  0  0  0  0  0  0
  -20.4519  -27.4071   22.3955 C   0  0  0  0  0  0  0  0  0  0  0  0
  -23.4701  -27.8294   22.7457 C   0  0  0  0  0  0  0  0  0  0  0  0
  -26.5864  -29.0759   23.3556 C   0  0  0  0  0  0  0  0  0  0  0  0
  -31.3179  -21.8527   17.2912 C   0  0  0  0  0  0  0  0  0  0  0  0
  -17.5029  -31.1204   24.2857 C   0  0  0  0  0  0  0  0  0  0  0  0
  -20.8380  -25.1393   23.3308 C   0  0  0  0  0  0  0  0  0  0  0  0
  -23.1257  -25.5294   21.7202 C   0  0  0  0  0  0  0  0  0  0  0  0
  -18.9332  -31.0224   23.7612 C   0  0  0  0  0  0  0  0  0  0  0  0
  -32.8991  -18.5259   16.9371 C   0  0  0  0  0  0  0  0  0  0  0  0
  -18.9611  -30.2983   22.4189 C   0  0  0  0  0  0  0  0  0  0  0  0
  -32.1060  -17.6669   17.9202 C   0  0  0  0  0  0  0  0  0  0  0  0
  -32.0606  -19.6743   16.3840 C   0  0  0  0  0  0  0  0  0  0  0  0
  -30.6634  -19.6768   18.4307 C   0  0  0  0  0  0  0  0  0  0  0  0
  -26.4376  -19.1526   21.9997 C   0  0  0  0  0  0  0  0  0  0  0  0
  -18.4402  -28.8625   22.5557 C   0  0  1  0  0  0  0  0  0  0  0  0
  -21.3954  -26.5687   23.2070 C   0  0  1  0  0  0  0  0  0  0  0  0
  -31.4984  -18.5369   19.0329 C   0  0  1  0  0  0  0  0  0  0  0  0
  -25.6785  -18.8936   23.3110 C   0  0  1  0  0  0  0  0  0  0  0  0
  -25.2406  -17.4274   23.4018 C   0  0  0  0  0  0  0  0  0  0  0  0
  -28.1161  -30.9579   22.7109 C   0  0  0  0  0  0  0  0  0  0  0  0
  -24.0319  -26.4551   20.0813 C   0  0  0  0  0  0  0  0  0  0  0  0
  -26.1563  -27.7713   19.9312 C   0  0  0  0  0  0  0  0  0  0  0  0
  -23.9596  -28.9526   19.9725 C   0  0  0  0  0  0  0  0  0  0  0  0
  -31.0123  -23.9538   18.5256 C   0  0  0  0  0  0  0  0  0  0  0  0
  -26.7163  -30.0775   26.1375 C   0  0  0  0  0  0  0  0  0  0  0  0
  -24.4515  -19.8132   23.4138 C   0  0  0  0  0  0  0  0  0  1  0  0
  -24.8261  -27.8725   22.0878 C   0  0  1  0  0  0  0  0  0  0  0  0
  -27.0625  -30.4766   23.6962 C   0  0  2  0  0  0  0  0  0  0  0  0
  -24.7384  -27.7461   20.5406 C   0  0  0  0  0  0  0  0  0  0  0  0
  -30.0442  -16.6284   19.6016 N   0  0  0  0  0  0  0  0  0  0  0  0
  -30.6924  -17.7252   20.0293 N   0  0  0  0  0  0  0  0  0  0  0  0
  -27.5492  -20.0338   22.3265 N   0  0  0  0  0  0  0  0  0  0  0  0
  -22.6987  -26.6809   22.5304 N   0  0  0  0  0  0  0  0  0  0  0  0
  -31.4398  -20.4574   17.4536 N   0  0  0  0  0  0  0  0  0  0  0  0
  -28.3547  -20.9952   17.6248 N   0  0  0  0  0  0  0  0  0  0  0  0
  -31.1176  -19.0372   21.9550 N   0  0  0  0  0  0  0  0  0  0  0  0
  -30.0742  -16.0670   24.0722 N   0  0  0  0  0  0  0  0  0  0  0  0
  -19.4546  -28.0102   23.1379 N   0  0  0  0  0  0  0  0  0  0  0  0
  -25.4662  -29.0985   22.5519 N   0  0  0  0  0  0  0  0  0  0  0  0
  -30.6578  -22.5512   18.3201 N   0  0  0  0  0  0  0  0  0  0  0  0
  -27.6512  -30.5050   25.0650 N   0  3  0  0  0  0  0  0  0  0  0  0
  -28.6767  -20.6349   24.3364 O   0  0  0  0  0  0  0  0  0  0  0  0
  -28.2148  -17.3268   23.6090 O   0  0  0  0  0  0  0  0  0  0  0  0
  -20.6165  -27.5020   21.1849 O   0  0  0  0  0  0  0  0  0  0  0  0
  -23.1000  -28.7891   23.4280 O   0  0  0  0  0  0  0  0  0  0  0  0
  -27.1539  -28.0630   23.7588 O   0  0  0  0  0  0  0  0  0  0  0  0
  -31.7196  -22.4306   16.2738 O   0  0  0  0  0  0  0  0  0  0  0  0
  -26.3202  -11.5462   20.5235 O   0  0  0  0  0  0  0  0  0  0  0  0
  -24.8626  -21.1626   23.1979 O   0  0  0  0  0  0  0  0  0  1  0  0
  -22.9991  -10.5240   24.8048 F   0  0  0  0  0  0  0  0  0  0  0  0
  -23.5843  -11.3459   20.1802 F   0  0  0  0  0  0  0  0  0  0  0  0
  1  2  1  0  0  0  0
  1  5  2  0  0  0  0
  2  6  2  0  0  0  0
  3 10  2  0  0  0  0
  3 18  1  0  0  0  0
  4 11  1  0  0  0  0
  4 18  2  0  0  0  0
  5 20  1  0  0  0  0
  6 22  1  0  0  0  0
  7 12  2  0  0  0  0
  7 21  1  0  0  0  0
  8  9  2  0  0  0  0
  8 24  1  0  0  0  0
  9 25  1  0  0  0  0
 10 27  1  0  0  0  0
 11 27  2  0  0  0  0
 12 28  1  0  0  0  0
 13 14  2  0  0  0  0
 13 29  1  0  0  0  0
 14 30  1  0  0  0  0
 15 23  1  0  0  0  0
 15 28  2  0  0  0  0
 16 24  2  0  0  0  0
 16 26  1  0  0  0  0
 17 30  2  0  0  0  0
 17 31  1  0  0  0  0
 18 32  1  0  0  0  0
 19 32  1  0  0  0  0
 19 33  2  0  0  0  0
 19 37  1  0  0  0  0
 20 22  2  0  0  0  0
 20 42  1  0  0  0  0
 21 23  2  0  0  0  0
 21 43  1  0  0  0  0
 22 52  1  0  0  0  0
 23 44  1  0  0  0  0
 24 69  1  0  0  0  0
 25 26  2  0  0  0  0
 25 77  1  0  0  0  0
 26 72  1  0  0  0  0
 27 85  1  0  0  0  0
 28 86  1  0  0  0  0
 29 31  2  0  0  0  0
 29 85  1  0  0  0  0
 30 87  1  0  0  0  0
 31 88  1  0  0  0  0
 32 67  2  0  0  0  0
 33 68  1  0  0  0  0
 33 73  1  0  0  0  0
 34 35  1  0  0  0  0
 34 36  2  0  0  0  0
 34 55  1  0  0  0  0
 35 69  1  0  0  0  0
 35 79  2  0  0  0  0
 37 74  1  0  0  0  0
 37 80  2  0  0  0  0
 38 53  1  0  0  0  0
 38 75  1  0  0  0  0
 38 81  2  0  0  0  0
 39 64  1  0  0  0  0
 39 70  1  0  0  0  0
 39 82  2  0  0  0  0
 40 65  1  0  0  0  0
 40 76  1  0  0  0  0
 40 83  2  0  0  0  0
 41 71  1  0  0  0  0
 41 77  1  0  0  0  0
 41 84  2  0  0  0  0
 42 45  1  0  0  0  0
 43 53  1  0  0  0  0
 44 70  1  0  0  0  0
 45 47  1  0  0  0  0
 46 48  1  0  0  0  0
 46 49  1  0  0  0  0
 47 52  1  0  0  0  0
 48 54  1  0  0  0  0
 49 71  1  0  0  0  0
 50 54  1  0  0  0  0
 50 71  1  0  0  0  0
 51 55  1  0  0  0  0
 51 69  1  0  0  0  0
 52 75  1  0  0  0  0
 53 70  1  0  0  0  0
 54 68  1  0  0  0  0
 55 56  1  0  0  0  0
 55 63  1  0  0  0  0
 57 65  1  0  0  0  0
 58 66  1  0  0  0  0
 59 66  1  0  0  0  0
 60 66  1  0  0  0  0
 61 77  1  0  0  0  0
 62 78  1  0  0  0  0
 63 86  1  0  0  0  0
 64 66  1  0  0  0  0
 64 76  1  0  0  0  0
 65 78  1  0  0  0  0
 67 68  1  0  0  0  0
M  CHG  1  78   1
M  ISO  4  41 100  63 101  77 100  86 101
M  END
> <Batch ID>
0075

> <Smiles>
C=C1C(=O)N(c2ccc([100N:0](C)[100C:0](=O)N3CCCC(n4nc(-c5ccc(Oc6ccc(F)cc6F)cc5)c(C(N)=O)c4N)C3)c(N)c2)CC1(C)[101CH2:1][101O:1]c1ccc2c(c1)CN(C(=O)C(NC(=O)C(C)NC)C(C)(C)C)C(C(=O)NC1CCCc3ccccc31)C2

> <Shape>
0.250

> <Color>
0.050

> <Negative vol penalty>
0.000

$$$$

  -OEChem-04042323473D

 80 87  0     1  0  0  0  0  0999 V2000
  -26.8502  -36.0386   21.1099 C   0  0  0  0  0  0  0  0  0  0  0  0
  -27.2792  -34.7217   21.2417 C   0  0  0  0  0  0  0  0  0  0  0  0
  -26.7897  -11.7297   21.1432 C   0  0  0  0  0  0  0  0  0  0  0  0
  -25.9831  -13.5811   19.8170 C   0  0  0  0  0  0  0  0  0  0  0  0
  -25.5778  -36.4031   21.5482 C   0  0  0  0  0  0  0  0  0  0  0  0
  -26.4364  -33.7689   21.8129 C   0  0  0  0  0  0  0  0  0  0  0  0
  -26.3760  -29.4221   19.2155 C   0  0  0  0  0  0  0  0  0  0  0  0
  -25.4801  -11.4251   21.5145 C   0  0  0  0  0  0  0  0  0  0  0  0
  -24.6735  -13.2765   20.1883 C   0  0  0  0  0  0  0  0  0  0  0  0
  -27.4576  -28.5603   19.3913 C   0  0  0  0  0  0  0  0  0  0  0  0
  -22.3190   -9.9400   22.5229 C   0  0  0  0  0  0  0  0  0  0  0  0
  -21.9286   -8.6014   22.4845 C   0  0  0  0  0  0  0  0  0  0  0  0
  -26.1453  -27.2350   20.9212 C   0  0  0  0  0  0  0  0  0  0  0  0
  -22.4126   -8.5282   20.1185 C   0  0  0  0  0  0  0  0  0  0  0  0
  -27.0412  -12.8077   20.2945 C   0  0  0  0  0  0  0  0  0  0  0  0
  -29.0978  -12.6312   18.7956 C   0  0  0  0  0  0  0  0  0  0  0  0
  -24.7154  -35.4522   22.1162 C   0  0  0  0  0  0  0  0  0  0  0  0
  -25.1724  -29.2028   19.9008 C   0  0  0  0  0  0  0  0  0  0  0  0
  -25.1518  -34.1214   22.2604 C   0  0  0  0  0  0  0  0  0  0  0  0
  -25.0490  -28.0942   20.7504 C   0  0  0  0  0  0  0  0  0  0  0  0
  -24.4220  -12.1985   21.0371 C   0  0  0  0  0  0  0  0  0  0  0  0
  -27.3434  -27.4682   20.2465 C   0  0  0  0  0  0  0  0  0  0  0  0
  -22.7561  -10.5727   21.3591 C   0  0  0  0  0  0  0  0  0  0  0  0
  -21.9755   -7.8955   21.2823 C   0  0  0  0  0  0  0  0  0  0  0  0
  -22.8029   -9.8668   20.1570 C   0  0  0  0  0  0  0  0  0  0  0  0
  -28.3938  -13.1231   19.9110 C   0  0  0  0  0  0  0  0  0  0  0  0
  -30.3318  -13.2287   18.8777 C   0  0  0  0  0  0  0  0  0  0  0  0
  -29.2034  -24.4048   20.2249 C   0  0  0  0  0  0  0  0  0  0  0  0
  -28.2311  -25.3098   20.0912 C   0  0  0  0  0  0  0  0  0  1  0  0
  -28.6743  -11.7160   17.7764 C   0  0  0  0  0  0  0  0  0  0  0  0
  -28.9539  -22.9873   19.8480 C   0  0  0  0  0  0  0  0  0  0  0  0
  -23.4810  -30.8330   22.0421 C   0  0  0  0  0  0  0  0  0  0  0  0
  -21.3336  -28.4445   21.5880 C   0  0  0  0  0  0  0  0  0  0  0  0
  -30.1429  -20.8222   19.7904 C   0  0  0  0  0  0  0  0  0  0  0  0
  -20.7428  -25.2238   20.6266 C   0  0  0  0  0  0  0  0  0  0  0  0
  -32.2457  -18.2995   21.4221 C   0  0  0  0  0  0  0  0  0  0  0  0
  -23.3669  -35.9037   22.6186 C   0  0  0  0  0  0  0  0  0  0  0  0
  -24.0061  -30.1266   19.6797 C   0  0  0  0  0  0  0  0  0  0  0  0
  -23.7718  -27.8030   21.4937 C   0  0  0  0  0  0  0  0  0  0  0  0
  -22.3945  -34.7541   22.8703 C   0  0  0  0  0  0  0  0  0  0  0  0
  -33.4284  -15.0032   22.0640 C   0  0  0  0  0  0  0  0  0  0  0  0
  -23.0810  -33.6346   23.6463 C   0  0  0  0  0  0  0  0  0  0  0  0
  -32.3358  -14.1032   21.4844 C   0  0  0  0  0  0  0  0  0  0  0  0
  -32.8439  -16.2630   22.6992 C   0  0  0  0  0  0  0  0  0  0  0  0
  -30.8612  -16.1440   21.2403 C   0  0  0  0  0  0  0  0  0  0  0  0
  -24.2573  -33.0538   22.8522 C   0  0  1  0  0  0  0  0  0  0  0  0
  -22.9970  -30.0993   20.8235 C   0  0  1  0  0  0  0  0  0  0  0  0
  -31.4059  -14.8877   20.5393 C   0  0  2  0  0  0  0  0  0  0  0  0
  -32.4038  -20.3386   18.8279 C   0  0  0  0  0  0  0  0  0  0  0  0
  -18.8928  -23.5434   20.4002 C   0  0  0  0  0  0  0  0  0  0  0  0
  -21.3427  -28.0309   24.6111 C   0  0  0  0  0  0  0  0  0  0  0  0
  -20.2650  -25.8019   24.2393 C   0  0  0  0  0  0  0  0  0  0  0  0
  -19.0849  -27.8871   23.5453 C   0  0  0  0  0  0  0  0  0  0  0  0
  -21.1664  -24.9779   17.7079 C   0  0  0  0  0  0  0  0  0  0  0  0
  -21.0860  -27.0954   22.2184 C   0  0  1  0  0  0  0  0  0  0  0  0
  -31.5289  -20.2530   20.0695 C   0  0  2  0  0  0  0  0  0  0  0  0
  -19.7010  -24.6243   19.6994 C   0  0  2  0  0  0  0  0  0  0  0  0
  -20.4695  -27.2101   23.6411 C   0  0  0  0  0  0  0  0  0  0  0  0
  -29.1201  -13.9680   20.6476 N   0  0  0  0  0  0  0  0  0  0  0  0
  -30.2935  -14.0114   19.9939 N   0  0  0  0  0  0  0  0  0  0  0  0
  -22.6619  -28.7389   21.2493 N   0  0  0  0  0  0  0  0  0  0  0  0
  -31.9731  -16.9613   21.7505 N   0  0  0  0  0  0  0  0  0  0  0  0
  -31.4352  -13.1555   18.1032 N   0  0  0  0  0  0  0  0  0  0  0  0
  -27.3743  -11.1965   17.8433 N   0  0  0  0  0  0  0  0  0  0  0  0
  -30.0792  -22.1929   20.0553 N   0  0  0  0  0  0  0  0  0  0  0  0
  -23.7777  -32.1636   21.8168 N   0  0  0  0  0  0  0  0  0  0  0  0
  -20.2675  -26.3462   21.2711 N   0  0  0  0  0  0  0  0  0  0  0  0
  -31.3752  -18.8845   20.5106 N   0  0  0  0  0  0  0  0  0  0  0  0
  -20.3566  -24.0208   18.5049 N   0  3  0  0  0  0  0  0  0  0  0  0
  -29.4318  -11.3564   16.8435 O   0  0  0  0  0  0  0  0  0  0  0  0
  -27.8745  -22.6029   19.4100 O   0  0  0  0  0  0  0  0  0  0  0  0
  -23.5767  -30.2364   23.1083 O   0  0  0  0  0  0  0  0  0  0  0  0
  -20.3824  -29.2063   21.3965 O   0  0  0  0  0  0  0  0  0  0  0  0
  -29.2195  -20.1455   19.3431 O   0  0  0  0  0  0  0  0  0  0  0  0
  -21.8646  -24.7421   20.7680 O   0  0  0  0  0  0  0  0  0  0  0  0
  -33.1976  -18.9249   21.9013 O   0  0  0  0  0  0  0  0  0  0  0  0
  -23.1440  -11.9015   21.3990 O   0  0  0  0  0  0  0  0  0  0  0  0
  -28.3978  -26.6257   20.4204 O   0  0  0  0  0  0  0  0  0  1  0  0
  -21.6021   -6.6097   21.2459 F   0  0  0  0  0  0  0  0  0  0  0  0
  -23.2230  -10.4689   19.0359 F   0  0  0  0  0  0  0  0  0  0  0  0
  1  2  1  0  0  0  0
  1  5  2  0  0  0  0
  2  6  2  0  0  0  0
  3  8  2  0  0  0  0
  3 15  1  0  0  0  0
  4  9  1  0  0  0  0
  4 15  2  0  0  0  0
  5 17  1  0  0  0  0
  6 19  1  0  0  0  0
  7 10  2  0  0  0  0
  7 18  1  0  0  0  0
  8 21  1  0  0  0  0
  9 21  2  0  0  0  0
 10 22  1  0  0  0  0
 11 12  2  0  0  0  0
 11 23  1  0  0  0  0
 12 24  1  0  0  0  0
 13 20  1  0  0  0  0
 13 22  2  0  0  0  0
 14 24  2  0  0  0  0
 14 25  1  0  0  0  0
 15 26  1  0  0  0  0
 16 26  1  0  0  0  0
 16 27  2  0  0  0  0
 16 30  1  0  0  0  0
 17 19  2  0  0  0  0
 17 37  1  0  0  0  0
 18 20  2  0  0  0  0
 18 38  1  0  0  0  0
 19 46  1  0  0  0  0
 20 39  1  0  0  0  0
 21 77  1  0  0  0  0
 22 78  1  0  0  0  0
 23 25  2  0  0  0  0
 23 77  1  0  0  0  0
 24 79  1  0  0  0  0
 25 80  1  0  0  0  0
 26 59  2  0  0  0  0
 27 60  1  0  0  0  0
 27 63  1  0  0  0  0
 28 29  2  0  0  0  0
 28 31  1  0  0  0  0
 29 78  1  0  0  0  0
 30 64  1  0  0  0  0
 30 70  2  0  0  0  0
 31 65  1  0  0  0  0
 31 71  2  0  0  0  0
 32 47  1  0  0  0  0
 32 66  1  0  0  0  0
 32 72  2  0  0  0  0
 33 55  1  0  0  0  0
 33 61  1  0  0  0  0
 33 73  2  0  0  0  0
 34 56  1  0  0  0  0
 34 65  1  0  0  0  0
 34 74  2  0  0  0  0
 35 57  1  0  0  0  0
 35 67  1  0  0  0  0
 35 75  2  0  0  0  0
 36 62  1  0  0  0  0
 36 68  1  0  0  0  0
 36 76  2  0  0  0  0
 37 40  1  0  0  0  0
 38 47  1  0  0  0  0
 39 61  1  0  0  0  0
 40 42  1  0  0  0  0
 41 43  1  0  0  0  0
 41 44  1  0  0  0  0
 42 46  1  0  0  0  0
 43 48  1  0  0  0  0
 44 62  1  0  0  0  0
 45 48  1  0  0  0  0
 45 62  1  0  0  0  0
 46 66  1  0  0  0  0
 47 61  1  0  0  0  0
 48 60  1  0  0  0  0
 49 56  1  0  0  0  0
 50 57  1  0  0  0  0
 51 58  1  0  0  0  0
 52 58  1  0  0  0  0
 53 58  1  0  0  0  0
 54 69  1  0  0  0  0
 55 58  1  0  0  0  0
 55 67  1  0  0  0  0
 56 68  1  0  0  0  0
 57 69  1  0  0  0  0
 59 60  1  0  0  0  0
M  CHG  1  69   1
M  ISO  4  29 101  36 100  68 100  78 101
M  END
> <Batch ID>
0075

> <Smiles>
CNC(C)C(=O)NC(C(=O)N1Cc2cc([101O:1][101CH:1]=CC(=O)NC(=O)C(C)[100NH:0][100C:0](=O)N3CCCC(n4nc(-c5ccc(Oc6ccc(F)cc6F)cc5)c(C(N)=O)c4N)C3)ccc2CC1C(=O)NC1CCCc2ccccc21)C(C)(C)C

> <Shape>
0.319

> <Color>
0.093

> <Negative vol penalty>
0.000

$$$$

  -OEChem-04042323473D

 87 96  0     1  0  0  0  0  0999 V2000
  -38.0144  -24.8910   20.5413 C   0  0  0  0  0  0  0  0  0  0  0  0
  -36.9456  -24.5524   19.7176 C   0  0  0  0  0  0  0  0  0  0  0  0
  -23.1100   -9.8763   19.9645 C   0  0  0  0  0  0  0  0  0  0  0  0
  -23.9213   -9.9063   22.2400 C   0  0  0  0  0  0  0  0  0  0  0  0
  -37.7944  -25.1598   21.8916 C   0  0  0  0  0  0  0  0  0  0  0  0
  -35.6563  -24.4814   20.2440 C   0  0  0  0  0  0  0  0  0  0  0  0
  -30.4345  -25.9591   17.4058 C   0  0  0  0  0  0  0  0  0  0  0  0
  -22.3960   -8.7088   20.2344 C   0  0  0  0  0  0  0  0  0  0  0  0
  -23.2074   -8.7388   22.5099 C   0  0  0  0  0  0  0  0  0  0  0  0
  -29.4692  -25.1900   16.7575 C   0  0  0  0  0  0  0  0  0  0  0  0
  -19.4986   -7.8560   21.7545 C   0  0  0  0  0  0  0  0  0  0  0  0
  -18.1823   -7.7812   21.2992 C   0  0  0  0  0  0  0  0  0  0  0  0
  -27.9786  -18.6370   20.4008 C   0  0  0  0  0  0  0  0  0  0  0  0
  -28.1495  -25.1554   18.7766 C   0  0  0  0  0  0  0  0  0  0  0  0
  -29.1935  -16.4254   19.2312 C   0  0  0  0  0  0  0  0  0  0  0  0
  -18.7521   -5.8459   19.9698 C   0  0  0  0  0  0  0  0  0  0  0  0
  -23.8727  -10.4750   20.9672 C   0  0  0  0  0  0  0  0  0  0  0  0
  -24.1593  -13.0063   20.8326 C   0  0  0  0  0  0  0  0  0  0  0  0
  -36.5004  -25.1015   22.4327 C   0  0  0  0  0  0  0  0  0  0  0  0
  -30.2695  -26.3236   18.7498 C   0  0  0  0  0  0  0  0  0  0  0  0
  -35.4190  -24.7484   21.6031 C   0  0  0  0  0  0  0  0  0  0  0  0
  -28.8157  -17.8169   21.1758 C   0  0  0  0  0  0  0  0  0  0  0  0
  -29.1130  -25.9313   19.4389 C   0  0  0  0  0  0  0  0  0  0  0  0
  -29.4207  -16.6829   20.5933 C   0  0  0  0  0  0  0  0  0  0  0  0
  -27.7397  -18.3456   19.0605 C   0  0  0  0  0  0  0  0  0  0  0  0
  -22.4447   -8.1400   21.5071 C   0  0  0  0  0  0  0  0  0  0  0  0
  -28.3278  -24.7856   17.4437 C   0  0  0  0  0  0  0  0  0  0  0  0
  -20.4417   -6.9258   21.3174 C   0  0  0  0  0  0  0  0  0  0  0  0
  -17.8090   -6.7762   20.4069 C   0  0  0  0  0  0  0  0  0  0  0  0
  -28.3523  -17.2444   18.4751 C   0  0  0  0  0  0  0  0  0  0  0  0
  -20.0684   -5.9208   20.4251 C   0  0  0  0  0  0  0  0  0  0  0  0
  -24.6109  -11.6807   20.6889 C   0  0  0  0  0  0  0  0  0  0  0  0
  -25.2271  -13.7770   20.4426 C   0  0  0  0  0  0  0  0  0  0  0  0
  -22.8882  -13.4970   21.2789 C   0  0  0  0  0  0  0  0  0  0  0  0
  -31.8702  -25.7642   21.4384 C   0  0  0  0  0  0  0  0  0  0  0  0
  -29.7242  -27.8494   22.6909 C   0  0  0  0  0  0  0  0  0  0  0  0
  -26.2186  -20.3234   18.7180 C   0  0  0  0  0  0  0  0  0  0  0  0
  -26.6536  -29.3237   22.4788 C   0  0  0  0  0  0  0  0  0  0  0  0
  -30.8244  -14.6283   20.9453 C   0  0  0  0  0  0  0  0  0  0  0  0
  -36.3186  -25.3542   23.9085 C   0  0  0  0  0  0  0  0  0  0  0  0
  -31.3074  -27.1760   19.4270 C   0  0  0  0  0  0  0  0  0  0  0  0
  -29.0836  -18.2216   22.6037 C   0  0  0  0  0  0  0  0  0  0  0  0
  -28.8787  -26.3134   20.8768 C   0  0  0  0  0  0  0  0  0  0  0  0
  -34.8697  -25.6231   24.3064 C   0  0  0  0  0  0  0  0  0  0  0  0
  -29.7070  -17.0989   23.4191 C   0  0  0  0  0  0  0  0  0  0  0  0
  -29.5518  -12.5584   18.1490 C   0  0  0  0  0  0  0  0  0  0  0  0
  -33.9402  -24.5999   23.6614 C   0  0  0  0  0  0  0  0  0  0  0  0
  -28.1471  -12.1849   18.6180 C   0  0  0  0  0  0  0  0  0  0  0  0
  -30.8092  -16.4241   22.6215 C   0  0  0  0  0  0  0  0  0  0  0  0
  -30.4971  -12.7912   19.3234 C   0  0  0  0  0  0  0  0  0  0  0  0
  -28.5881  -13.4400   20.7662 C   0  0  0  0  0  0  0  0  0  0  0  0
  -34.0024  -24.6853   22.1316 C   0  0  1  0  0  0  0  0  0  0  0  0
  -31.2800  -27.0558   20.9476 C   0  0  1  0  0  0  0  0  0  0  0  0
  -27.6074  -13.2358   19.6017 C   0  0  2  0  0  0  0  0  0  0  0  0
  -25.1666  -30.9577   23.6688 C   0  0  0  0  0  0  0  0  0  0  0  0
  -29.0758  -25.7291   24.7871 C   0  0  0  0  0  0  0  0  0  0  0  0
  -26.9869  -27.0000   25.3254 C   0  0  0  0  0  0  0  0  0  0  0  0
  -29.2164  -28.0635   25.6733 C   0  0  0  0  0  0  0  0  0  0  0  0
  -26.6007  -31.1491   20.1499 C   0  0  0  0  0  0  0  0  0  0  0  0
  -25.4118  -20.9220   17.5741 C   0  0  0  0  0  0  0  0  0  0  0  0
  -26.2071  -21.9402   16.7644 C   0  0  0  0  0  0  0  0  0  0  0  0
  -26.6309  -23.1283   17.6157 C   0  0  0  0  0  0  0  0  0  1  0  0
  -28.3570  -27.7279   23.3194 C   0  0  1  0  0  0  0  0  0  0  0  0
  -26.2233  -30.7752   22.5904 C   0  0  2  0  0  0  0  0  0  0  0  0
  -28.4140  -27.1211   24.7498 C   0  0  0  0  0  0  0  0  0  0  0  0
  -25.8676  -11.6097   20.2422 N   0  0  0  0  0  0  0  0  0  0  0  0
  -26.2148  -12.9004   20.1019 N   0  0  0  0  0  0  0  0  0  0  0  0
  -30.2812  -15.8460   21.3854 N   0  0  0  0  0  0  0  0  0  0  0  0
  -29.9254  -27.1423   21.4970 N   0  0  0  0  0  0  0  0  0  0  0  0
  -29.9456  -13.7462   20.2856 N   0  0  0  0  0  0  0  0  0  0  0  0
  -25.4081  -15.1123   20.3612 N   0  0  0  0  0  0  0  0  0  0  0  0
  -21.9032  -12.5682   21.6415 N   0  0  0  0  0  0  0  0  0  0  0  0
  -26.9031  -19.1684   18.3060 N   0  0  0  0  0  0  0  0  0  0  0  0
  -33.2337  -25.8158   21.6568 N   0  0  0  0  0  0  0  0  0  0  0  0
  -27.7598  -29.0576   23.2578 N   0  0  0  0  0  0  0  0  0  0  0  0
  -25.6596  -31.2494   21.2949 N   0  3  0  0  0  0  0  0  0  0  0  0
  -22.6278  -14.7227   21.3383 O   0  0  0  0  0  0  0  0  0  0  0  0
  -31.1423  -24.7931   21.6080 O   0  0  0  0  0  0  0  0  0  0  0  0
  -30.5798  -28.5517   23.2354 O   0  0  0  0  0  0  0  0  0  0  0  0
  -26.2334  -20.8255   19.8370 O   0  0  0  0  0  0  0  0  0  0  0  0
  -26.0650  -28.5067   21.7742 O   0  0  0  0  0  0  0  0  0  0  0  0
  -31.9987  -14.3257   21.1900 O   0  0  0  0  0  0  0  0  0  0  0  0
  -21.7480   -7.0010   21.7709 O   0  0  0  0  0  0  0  0  0  0  0  0
  -27.3774  -24.0287   16.8089 O   0  0  0  0  0  0  0  0  0  1  0  0
  -16.5446   -6.7036   19.9709 F   0  0  0  0  0  0  0  0  0  0  0  0
  -28.1510  -16.9623   17.1798 F   0  0  0  0  0  0  0  0  0  0  0  0
  -20.9697   -5.0236   20.0026 F   0  0  0  0  0  0  0  0  0  0  0  0
  1  2  1  0  0  0  0
  1  5  2  0  0  0  0
  2  6  2  0  0  0  0
  3  8  2  0  0  0  0
  3 17  1  0  0  0  0
  4  9  1  0  0  0  0
  4 17  2  0  0  0  0
  5 19  1  0  0  0  0
  6 21  1  0  0  0  0
  7 10  2  0  0  0  0
  7 20  1  0  0  0  0
  8 26  1  0  0  0  0
  9 26  2  0  0  0  0
 10 27  1  0  0  0  0
 11 12  2  0  0  0  0
 11 28  1  0  0  0  0
 12 29  1  0  0  0  0
 13 22  2  0  0  0  0
 13 25  1  0  0  0  0
 14 23  1  0  0  0  0
 14 27  2  0  0  0  0
 15 24  2  0  0  0  0
 15 30  1  0  0  0  0
 16 29  2  0  0  0  0
 16 31  1  0  0  0  0
 17 32  1  0  0  0  0
 18 32  1  0  0  0  0
 18 33  2  0  0  0  0
 18 34  1  0  0  0  0
 19 21  2  0  0  0  0
 19 40  1  0  0  0  0
 20 23  2  0  0  0  0
 20 41  1  0  0  0  0
 21 52  1  0  0  0  0
 22 24  1  0  0  0  0
 22 42  1  0  0  0  0
 23 43  1  0  0  0  0
 24 68  1  0  0  0  0
 25 30  2  0  0  0  0
 25 73  1  0  0  0  0
 26 83  1  0  0  0  0
 27 84  1  0  0  0  0
 28 31  2  0  0  0  0
 28 83  1  0  0  0  0
 29 85  1  0  0  0  0
 30 86  1  0  0  0  0
 31 87  1  0  0  0  0
 32 66  2  0  0  0  0
 33 67  1  0  0  0  0
 33 71  1  0  0  0  0
 34 72  1  0  0  0  0
 34 77  2  0  0  0  0
 35 53  1  0  0  0  0
 35 74  1  0  0  0  0
 35 78  2  0  0  0  0
 36 63  1  0  0  0  0
 36 69  1  0  0  0  0
 36 79  2  0  0  0  0
 37 60  1  0  0  0  0
 37 73  1  0  0  0  0
 37 80  2  0  0  0  0
 38 64  1  0  0  0  0
 38 75  1  0  0  0  0
 38 81  2  0  0  0  0
 39 68  1  0  0  0  0
 39 70  1  0  0  0  0
 39 82  2  0  0  0  0
 40 44  1  0  0  0  0
 41 53  1  0  0  0  0
 42 45  1  0  0  0  0
 43 69  1  0  0  0  0
 44 47  1  0  0  0  0
 45 49  1  0  0  0  0
 46 48  1  0  0  0  0
 46 50  1  0  0  0  0
 47 52  1  0  0  0  0
 48 54  1  0  0  0  0
 49 68  1  0  0  0  0
 50 70  1  0  0  0  0
 51 54  1  0  0  0  0
 51 70  1  0  0  0  0
 52 74  1  0  0  0  0
 53 69  1  0  0  0  0
 54 67  1  0  0  0  0
 55 64  1  0  0  0  0
 56 65  1  0  0  0  0
 57 65  1  0  0  0  0
 58 65  1  0  0  0  0
 59 76  1  0  0  0  0
 60 61  1  0  0  0  0
 61 62  1  0  0  0  0
 62 84  1  0  0  0  0
 63 65  1  0  0  0  0
 63 75  1  0  0  0  0
 64 76  1  0  0  0  0
 66 67  1  0  0  0  0
M  CHG  1  76   1
M  ISO  4  39 100  62 101  68 100  84 101
M  END
> <Batch ID>
0075

> <Smiles>
CNC(C)C(=O)NC(C(=O)N1Cc2cc([101O:1][101CH2:1]CCC(=O)Nc3cc4c(cc3F)[100N:0]([100C:0](=O)N3CCCC(n5nc(-c6ccc(Oc7ccc(F)cc7F)cc6)c(C(N)=O)c5N)C3)CCC4)ccc2CC1C(=O)NC1CCCc2ccccc21)C(C)(C)C

> <Shape>
0.271

> <Color>
0.173

> <Negative vol penalty>
0.000

$$$$

  -OEChem-04042323473D

 87 96  0     1  0  0  0  0  0999 V2000
  -19.6635   -8.5175   23.0271 C   0  0  0  0  0  0  0  0  0  0  0  0
  -20.4551   -8.7555   21.9081 C   0  0  0  0  0  0  0  0  0  0  0  0
  -30.8727  -21.3274   23.2464 C   0  0  0  0  0  0  0  0  0  0  0  0
  -26.6750  -31.3962   23.0677 C   0  0  0  0  0  0  0  0  0  0  0  0
  -25.4552  -31.7651   21.0151 C   0  0  0  0  0  0  0  0  0  0  0  0
  -19.1724   -9.5884   23.7726 C   0  0  0  0  0  0  0  0  0  0  0  0
  -20.7552  -10.0646   21.5334 C   0  0  0  0  0  0  0  0  0  0  0  0
  -27.5817  -12.3191   21.0774 C   0  0  0  0  0  0  0  0  0  0  0  0
  -31.2906  -20.2776   22.4286 C   0  0  0  0  0  0  0  0  0  0  0  0
  -30.0237  -22.3112   22.7394 C   0  0  0  0  0  0  0  0  0  0  0  0
  -26.8442  -32.7729   23.2147 C   0  0  0  0  0  0  0  0  0  0  0  0
  -25.6243  -33.1419   21.1621 C   0  0  0  0  0  0  0  0  0  0  0  0
  -28.8653  -12.7659   20.7631 C   0  0  0  0  0  0  0  0  0  0  0  0
  -25.0039  -35.4117   24.2554 C   0  0  0  0  0  0  0  0  0  0  0  0
  -24.7750  -35.9619   25.5165 C   0  0  0  0  0  0  0  0  0  0  0  0
  -27.9848  -14.9540   20.2299 C   0  0  0  0  0  0  0  0  0  0  0  0
  -30.0107  -21.1955   20.5965 C   0  0  0  0  0  0  0  0  0  0  0  0
  -27.0545  -36.7599   25.5820 C   0  0  0  0  0  0  0  0  0  0  0  0
  -25.9806  -30.8923   21.9679 C   0  0  0  0  0  0  0  0  0  0  0  0
  -25.1559  -28.5933   22.7041 C   0  0  0  0  0  0  0  0  0  0  0  0
  -19.4746  -10.9112   23.4125 C   0  0  0  0  0  0  0  0  0  0  0  0
  -26.4955  -13.1936   20.9837 C   0  0  0  0  0  0  0  0  0  0  0  0
  -20.2666  -11.1543   22.2740 C   0  0  0  0  0  0  0  0  0  0  0  0
  -26.6984  -14.5157   20.5553 C   0  0  0  0  0  0  0  0  0  0  0  0
  -30.8596  -20.2117   21.1036 C   0  0  0  0  0  0  0  0  0  0  0  0
  -29.5928  -22.2453   21.4144 C   0  0  0  0  0  0  0  0  0  0  0  0
  -26.3188  -33.6458   22.2619 C   0  0  0  0  0  0  0  0  0  0  0  0
  -29.0663  -14.0800   20.3402 C   0  0  0  0  0  0  0  0  0  0  0  0
  -26.2581  -35.5354   23.6575 C   0  0  0  0  0  0  0  0  0  0  0  0
  -25.8003  -36.6360   26.1798 C   0  0  0  0  0  0  0  0  0  0  0  0
  -27.2834  -36.2096   24.3208 C   0  0  0  0  0  0  0  0  0  0  0  0
  -25.8060  -29.4702   21.8152 C   0  0  0  0  0  0  0  0  0  0  0  0
  -25.2603  -27.3603   22.1079 C   0  0  0  0  0  0  0  0  0  0  0  0
  -31.1923  -16.6893   20.1300 C   0  0  0  0  0  0  0  0  0  0  0  0
  -31.4366  -19.2949   18.8664 C   0  0  0  0  0  0  0  0  0  0  0  0
  -24.5148  -28.8685   23.9567 C   0  0  0  0  0  0  0  0  0  0  0  0
  -30.8314  -15.5583   20.7549 C   0  0  0  0  0  0  0  0  0  1  0  0
  -22.8017  -13.6981   21.4049 C   0  0  0  0  0  0  0  0  0  0  0  0
  -24.1720  -16.2392   22.4419 C   0  0  0  0  0  0  0  0  0  0  0  0
  -26.0797  -18.6803   23.8700 C   0  0  0  0  0  0  0  0  0  0  0  0
  -28.7059  -23.6540   19.5381 C   0  0  0  0  0  0  0  0  0  0  0  0
  -18.8818  -12.0374   24.2217 C   0  0  0  0  0  0  0  0  0  0  0  0
  -25.0869  -12.7383   21.2530 C   0  0  0  0  0  0  0  0  0  0  0  0
  -25.4956  -15.4113   20.4361 C   0  0  0  0  0  0  0  0  0  0  0  0
  -31.0496  -16.8356   18.6414 C   0  0  0  0  0  0  0  0  0  0  0  0
  -31.7491  -17.8725   20.8800 C   0  0  0  0  0  0  0  0  0  0  0  0
  -31.8518  -18.0272   18.1405 C   0  0  0  0  0  0  0  0  0  0  0  0
  -19.5556  -13.3848   23.9752 C   0  0  0  0  0  0  0  0  0  0  0  0
  -26.7440  -26.0178   17.4751 C   0  0  0  0  0  0  0  0  0  0  0  0
  -19.7322  -13.6277   22.4797 C   0  0  0  0  0  0  0  0  0  0  0  0
  -26.3461  -27.0964   18.4809 C   0  0  0  0  0  0  0  0  0  0  0  0
  -28.0612  -25.3480   17.8544 C   0  0  0  0  0  0  0  0  0  0  0  0
  -27.6667  -25.8630   20.2462 C   0  0  0  0  0  0  0  0  0  0  0  0
  -20.6345  -12.5596   21.8500 C   0  0  1  0  0  0  0  0  0  0  0  0
  -24.2129  -13.8291   21.8976 C   0  0  1  0  0  0  0  0  0  0  0  0
  -26.3225  -26.5250   19.9082 C   0  0  1  0  0  0  0  0  0  0  0  0
  -30.9497  -15.3542   22.2310 C   0  0  0  0  0  0  0  0  0  0  0  0
  -25.8929  -20.8668   25.0872 C   0  0  0  0  0  0  0  0  0  0  0  0
  -23.5126  -17.6412   19.8145 C   0  0  0  0  0  0  0  0  0  0  0  0
  -24.2670  -19.7903   20.8540 C   0  0  0  0  0  0  0  0  0  0  0  0
  -22.3222  -18.5577   21.8139 C   0  0  0  0  0  0  0  0  0  0  0  0
  -27.9911  -24.1000   21.8450 C   0  0  0  0  0  0  0  0  0  0  0  0
  -27.4312  -17.5934   26.2681 C   0  0  0  0  0  0  0  0  0  0  0  0
  -24.6541  -17.6334   22.1304 C   0  0  1  0  0  0  0  0  0  0  0  0
  -26.0005  -19.3563   25.2269 C   0  0  2  0  0  0  0  0  0  0  0  0
  -23.7065  -18.3833   21.1520 C   0  0  0  0  0  0  0  0  0  0  0  0
  -26.2880  -28.8472   20.7365 N   0  0  0  0  0  0  0  0  0  0  0  0
  -25.9405  -27.5657   20.9437 N   0  0  0  0  0  0  0  0  0  0  0  0
  -31.2910  -19.1274   20.2601 N   0  0  0  0  0  0  0  0  0  0  0  0
  -24.6066  -15.2149   21.5919 N   0  0  0  0  0  0  0  0  0  0  0  0
  -28.0454  -24.8623   19.2352 N   0  0  0  0  0  0  0  0  0  0  0  0
  -24.8359  -26.1314   22.4712 N   0  0  0  0  0  0  0  0  0  0  0  0
  -24.4984  -30.1903   24.4225 N   0  0  0  0  0  0  0  0  0  0  0  0
  -22.0241  -12.8316   22.1493 N   0  0  0  0  0  0  0  0  0  0  0  0
  -24.8347  -18.2996   23.4156 N   0  0  0  0  0  0  0  0  0  0  0  0
  -28.7148  -23.2629   20.8907 N   0  0  0  0  0  0  0  0  0  0  0  0
  -27.2147  -19.0441   26.0327 N   0  3  0  0  0  0  0  0  0  0  0  0
  -31.3192  -20.3453   18.2360 O   0  0  0  0  0  0  0  0  0  0  0  0
  -23.9870  -27.9665   24.6504 O   0  0  0  0  0  0  0  0  0  0  0  0
  -22.4429  -14.3369   20.4226 O   0  0  0  0  0  0  0  0  0  0  0  0
  -23.4258  -16.0610   23.4087 O   0  0  0  0  0  0  0  0  0  0  0  0
  -27.1394  -18.5104   23.2712 O   0  0  0  0  0  0  0  0  0  0  0  0
  -29.2960  -22.9959   18.6725 O   0  0  0  0  0  0  0  0  0  0  0  0
  -26.4835  -34.9892   22.4051 O   0  0  0  0  0  0  0  0  0  0  0  0
  -30.3227  -14.5109   20.0393 O   0  0  0  0  0  0  0  0  0  1  0  0
  -25.5799  -37.1657   27.3901 F   0  0  0  0  0  0  0  0  0  0  0  0
  -28.4900  -36.3327   23.7511 F   0  0  0  0  0  0  0  0  0  0  0  0
  1  2  1  0  0  0  0
  1  6  2  0  0  0  0
  2  7  2  0  0  0  0
  3  9  2  0  0  0  0
  3 10  1  0  0  0  0
  4 11  2  0  0  0  0
  4 19  1  0  0  0  0
  5 12  1  0  0  0  0
  5 19  2  0  0  0  0
  6 21  1  0  0  0  0
  7 23  1  0  0  0  0
  8 13  2  0  0  0  0
  8 22  1  0  0  0  0
  9 25  1  0  0  0  0
 10 26  2  0  0  0  0
 11 27  1  0  0  0  0
 12 27  2  0  0  0  0
 13 28  1  0  0  0  0
 14 15  2  0  0  0  0
 14 29  1  0  0  0  0
 15 30  1  0  0  0  0
 16 24  1  0  0  0  0
 16 28  2  0  0  0  0
 17 25  2  0  0  0  0
 17 26  1  0  0  0  0
 18 30  2  0  0  0  0
 18 31  1  0  0  0  0
 19 32  1  0  0  0  0
 20 32  1  0  0  0  0
 20 33  2  0  0  0  0
 20 36  1  0  0  0  0
 21 23  2  0  0  0  0
 21 42  1  0  0  0  0
 22 24  2  0  0  0  0
 22 43  1  0  0  0  0
 23 54  1  0  0  0  0
 24 44  1  0  0  0  0
 25 69  1  0  0  0  0
 26 76  1  0  0  0  0
 27 84  1  0  0  0  0
 28 85  1  0  0  0  0
 29 31  2  0  0  0  0
 29 84  1  0  0  0  0
 30 86  1  0  0  0  0
 31 87  1  0  0  0  0
 32 67  2  0  0  0  0
 33 68  1  0  0  0  0
 33 72  1  0  0  0  0
 34 37  2  0  0  0  0
 34 45  1  0  0  0  0
 34 46  1  0  0  0  0
 35 47  1  0  0  0  0
 35 69  1  0  0  0  0
 35 78  2  0  0  0  0
 36 73  1  0  0  0  0
 36 79  2  0  0  0  0
 37 57  1  0  0  0  0
 37 85  1  0  0  0  0
 38 55  1  0  0  0  0
 38 74  1  0  0  0  0
 38 80  2  0  0  0  0
 39 64  1  0  0  0  0
 39 70  1  0  0  0  0
 39 81  2  0  0  0  0
 40 65  1  0  0  0  0
 40 75  1  0  0  0  0
 40 82  2  0  0  0  0
 41 71  1  0  0  0  0
 41 76  1  0  0  0  0
 41 83  2  0  0  0  0
 42 48  1  0  0  0  0
 43 55  1  0  0  0  0
 44 70  1  0  0  0  0
 45 47  1  0  0  0  0
 46 69  1  0  0  0  0
 48 50  1  0  0  0  0
 49 51  1  0  0  0  0
 49 52  1  0  0  0  0
 50 54  1  0  0  0  0
 51 56  1  0  0  0  0
 52 71  1  0  0  0  0
 53 56  1  0  0  0  0
 53 71  1  0  0  0  0
 54 74  1  0  0  0  0
 55 70  1  0  0  0  0
 56 68  1  0  0  0  0
 58 65  1  0  0  0  0
 59 66  1  0  0  0  0
 60 66  1  0  0  0  0
 61 66  1  0  0  0  0
 62 76  1  0  0  0  0
 63 77  1  0  0  0  0
 64 66  1  0  0  0  0
 64 75  1  0  0  0  0
 65 77  1  0  0  0  0
 67 68  1  0  0  0  0
M  CHG  1  77   1
M  ISO  4  37 101  41 100  76 100  85 101
M  END
> <Batch ID>
0075

> <Smiles>
CNC(C)C(=O)NC(C(=O)N1Cc2cc([101O:1][101C:1](C)=C3CCC(=O)N(c4cccc([100N:0](C)[100C:0](=O)N5CCCC(n6nc(-c7ccc(Oc8ccc(F)cc8F)cc7)c(C(N)=O)c6N)C5)c4)C3)ccc2CC1C(=O)NC1CCCc2ccccc21)C(C)(C)C

> <Shape>
0.229

> <Color>
0.081

> <Negative vol penalty>
0.000

$$$$

  -OEChem-04042323473D

 85 94  0     1  0  0  0  0  0999 V2000
  -20.2425  -12.6660   24.0625 C   0  0  0  0  0  0  0  0  0  0  0  0
  -21.4567  -12.8172   24.7245 C   0  0  0  0  0  0  0  0  0  0  0  0
  -23.1902   -9.8194   19.9312 C   0  0  0  0  0  0  0  0  0  0  0  0
  -23.5688   -9.9995   22.3105 C   0  0  0  0  0  0  0  0  0  0  0  0
  -19.3882  -13.7583   23.9173 C   0  0  0  0  0  0  0  0  0  0  0  0
  -21.8178  -14.0612   25.2408 C   0  0  0  0  0  0  0  0  0  0  0  0
  -23.7138  -13.7438   29.9258 C   0  0  0  0  0  0  0  0  0  0  0  0
  -22.4242   -8.6726   20.1398 C   0  0  0  0  0  0  0  0  0  0  0  0
  -22.8027   -8.8526   22.5192 C   0  0  0  0  0  0  0  0  0  0  0  0
  -25.0350  -13.3165   30.0505 C   0  0  0  0  0  0  0  0  0  0  0  0
  -21.2461   -5.7683   23.6477 C   0  0  0  0  0  0  0  0  0  0  0  0
  -21.7428   -4.8084   24.5295 C   0  0  0  0  0  0  0  0  0  0  0  0
  -25.7441  -15.6068   30.3169 C   0  0  0  0  0  0  0  0  0  0  0  0
  -30.4837  -13.4389   25.2410 C   0  0  0  0  0  0  0  0  0  0  0  0
  -32.0172  -15.0953   26.1022 C   0  0  0  0  0  0  0  0  0  0  0  0
  -32.1164  -14.4510   23.7758 C   0  0  0  0  0  0  0  0  0  0  0  0
  -23.7013   -4.5451   23.1395 C   0  0  0  0  0  0  0  0  0  0  0  0
  -23.7626  -10.4829   21.0165 C   0  0  0  0  0  0  0  0  0  0  0  0
  -24.1008  -12.9996   20.7732 C   0  0  0  0  0  0  0  0  0  0  0  0
  -19.7348  -15.0140   24.4406 C   0  0  0  0  0  0  0  0  0  0  0  0
  -23.3986  -15.1089   29.9850 C   0  0  0  0  0  0  0  0  0  0  0  0
  -20.9680  -15.1716   25.1013 C   0  0  0  0  0  0  0  0  0  0  0  0
  -24.4178  -16.0486   30.1953 C   0  0  0  0  0  0  0  0  0  0  0  0
  -30.9618  -14.2058   26.3035 C   0  0  0  0  0  0  0  0  0  0  0  0
  -31.0611  -13.5615   23.9771 C   0  0  0  0  0  0  0  0  0  0  0  0
  -22.2304   -8.1892   21.4338 C   0  0  0  0  0  0  0  0  0  0  0  0
  -26.0508  -14.2483   30.2431 C   0  0  0  0  0  0  0  0  0  0  0  0
  -21.9769   -6.1165   22.5118 C   0  0  0  0  0  0  0  0  0  0  0  0
  -22.9704   -4.1968   24.2754 C   0  0  0  0  0  0  0  0  0  0  0  0
  -32.5945  -15.2179   24.8383 C   0  0  0  0  0  0  0  0  0  0  0  0
  -23.2045   -5.5049   22.2577 C   0  0  0  0  0  0  0  0  0  0  0  0
  -24.5545  -11.6673   20.8016 C   0  0  0  0  0  0  0  0  0  0  0  0
  -25.2318  -13.7425   20.5379 C   0  0  0  0  0  0  0  0  0  0  0  0
  -29.3770  -13.3152   28.0192 C   0  0  0  0  0  0  0  0  0  0  0  0
  -22.7755  -13.5192   20.9443 C   0  0  0  0  0  0  0  0  0  0  0  0
  -22.1016  -17.2008   27.9736 C   0  0  0  0  0  0  0  0  0  0  0  0
  -22.2349  -19.1692   30.5485 C   0  0  0  0  0  0  0  0  0  0  0  0
  -23.6884  -19.9311   33.5408 C   0  0  0  0  0  0  0  0  0  0  0  0
  -31.0365  -12.7829   21.5814 C   0  0  0  0  0  0  0  0  0  0  0  0
  -18.8000  -16.1764   24.2176 C   0  0  0  0  0  0  0  0  0  0  0  0
  -21.9652  -15.5515   29.8755 C   0  0  0  0  0  0  0  0  0  0  0  0
  -24.1297  -17.5241   30.2864 C   0  0  0  0  0  0  0  0  0  0  0  0
  -19.0889  -17.3724   25.1213 C   0  0  0  0  0  0  0  0  0  0  0  0
  -29.5236  -13.4648   18.4313 C   0  0  0  0  0  0  0  0  0  0  0  0
  -20.5827  -17.6808   25.1373 C   0  0  0  0  0  0  0  0  0  0  0  0
  -28.0355  -13.2083   18.6807 C   0  0  0  0  0  0  0  0  0  0  0  0
  -30.4050  -12.4798   19.1972 C   0  0  0  0  0  0  0  0  0  0  0  0
  -28.6454  -12.1377   20.8872 C   0  0  0  0  0  0  0  0  0  0  0  0
  -30.6971  -14.7547   28.8095 C   0  0  0  0  0  0  0  0  0  0  0  0
  -21.3840  -16.4991   25.6969 C   0  0  1  0  0  0  0  0  0  0  0  0
  -21.8207  -17.0055   29.4367 C   0  0  1  0  0  0  0  0  0  0  0  0
  -27.7193  -13.1461   20.1879 C   0  0  2  0  0  0  0  0  0  0  0  0
  -29.5472  -13.9162   29.4443 C   0  0  2  0  0  0  0  0  0  0  0  0
  -30.0012  -12.9040   30.4903 C   0  0  0  0  0  0  0  0  0  0  0  0
  -23.6113  -21.6204   35.3948 C   0  0  0  0  0  0  0  0  0  0  0  0
  -23.7261  -21.1659   28.7879 C   0  0  0  0  0  0  0  0  0  0  0  0
  -24.4390  -22.3620   30.8686 C   0  0  0  0  0  0  0  0  0  0  0  0
  -22.0161  -22.1842   30.3023 C   0  0  0  0  0  0  0  0  0  0  0  0
  -22.9540  -17.8757   35.5396 C   0  0  0  0  0  0  0  0  0  0  0  0
  -28.3562  -14.7296   29.9125 C   0  0  0  0  0  0  0  0  0  1  0  0
  -23.2549  -20.1321   31.1064 C   0  0  1  0  0  0  0  0  0  0  0  0
  -23.0899  -20.2838   34.8905 C   0  0  2  0  0  0  0  0  0  0  0  0
  -23.3650  -21.4335   30.2627 C   0  0  0  0  0  0  0  0  0  0  0  0
  -25.8710  -11.5665   20.6003 N   0  0  0  0  0  0  0  0  0  0  0  0
  -26.2543  -12.8450   20.4430 N   0  0  0  0  0  0  0  0  0  0  0  0
  -30.3931  -14.0851   27.5499 N   0  0  0  0  0  0  0  0  0  0  0  0
  -22.7133  -17.9077   30.1671 N   0  0  0  0  0  0  0  0  0  0  0  0
  -30.0514  -12.4780   20.6184 N   0  0  0  0  0  0  0  0  0  0  0  0
  -25.4414  -15.0695   20.4048 N   0  0  0  0  0  0  0  0  0  0  0  0
  -21.7290  -12.6167   21.1783 N   0  0  0  0  0  0  0  0  0  0  0  0
  -30.5759  -12.7824   22.8976 N   0  0  0  0  0  0  0  0  0  0  0  0
  -21.2855  -16.4600   27.1402 N   0  0  0  0  0  0  0  0  0  0  0  0
  -22.8875  -20.3534   32.5009 N   0  0  0  0  0  0  0  0  0  0  0  0
  -23.4281  -19.2376   35.8965 N   0  3  0  0  0  0  0  0  0  0  0  0
  -28.6539  -12.4981   27.4963 O   0  0  0  0  0  0  0  0  0  0  0  0
  -22.5240  -14.7462   20.8748 O   0  0  0  0  0  0  0  0  0  0  0  0
  -22.9918  -17.9681   27.6265 O   0  0  0  0  0  0  0  0  0  0  0  0
  -21.0557  -19.5208   30.4612 O   0  0  0  0  0  0  0  0  0  0  0  0
  -24.7610  -19.3432   33.4209 O   0  0  0  0  0  0  0  0  0  0  0  0
  -32.1965  -13.0533   21.2599 O   0  0  0  0  0  0  0  0  0  0  0  0
  -21.4828   -7.0703   21.6378 O   0  0  0  0  0  0  0  0  0  0  0  0
  -27.3413  -13.8340   30.3644 O   0  0  0  0  0  0  0  0  0  1  0  0
  -23.4479   -3.2762   25.1231 F   0  0  0  0  0  0  0  0  0  0  0  0
  -33.6085  -16.0715   24.6449 F   0  0  0  0  0  0  0  0  0  0  0  0
  -23.9118   -5.8362   21.1687 F   0  0  0  0  0  0  0  0  0  0  0  0
  1  2  1  0  0  0  0
  1  5  2  0  0  0  0
  2  6  2  0  0  0  0
  3  8  2  0  0  0  0
  3 18  1  0  0  0  0
  4  9  1  0  0  0  0
  4 18  2  0  0  0  0
  5 20  1  0  0  0  0
  6 22  1  0  0  0  0
  7 10  2  0  0  0  0
  7 21  1  0  0  0  0
  8 26  1  0  0  0  0
  9 26  2  0  0  0  0
 10 27  1  0  0  0  0
 11 12  2  0  0  0  0
 11 28  1  0  0  0  0
 12 29  1  0  0  0  0
 13 23  1  0  0  0  0
 13 27  2  0  0  0  0
 14 24  2  0  0  0  0
 14 25  1  0  0  0  0
 15 24  1  0  0  0  0
 15 30  2  0  0  0  0
 16 25  2  0  0  0  0
 16 30  1  0  0  0  0
 17 29  2  0  0  0  0
 17 31  1  0  0  0  0
 18 32  1  0  0  0  0
 19 32  1  0  0  0  0
 19 33  2  0  0  0  0
 19 35  1  0  0  0  0
 20 22  2  0  0  0  0
 20 40  1  0  0  0  0
 21 23  2  0  0  0  0
 21 41  1  0  0  0  0
 22 50  1  0  0  0  0
 23 42  1  0  0  0  0
 24 66  1  0  0  0  0
 25 71  1  0  0  0  0
 26 81  1  0  0  0  0
 27 82  1  0  0  0  0
 28 31  2  0  0  0  0
 28 81  1  0  0  0  0
 29 83  1  0  0  0  0
 30 84  1  0  0  0  0
 31 85  1  0  0  0  0
 32 64  2  0  0  0  0
 33 65  1  0  0  0  0
 33 69  1  0  0  0  0
 34 53  1  0  0  0  0
 34 66  1  0  0  0  0
 34 75  2  0  0  0  0
 35 70  1  0  0  0  0
 35 76  2  0  0  0  0
 36 51  1  0  0  0  0
 36 72  1  0  0  0  0
 36 77  2  0  0  0  0
 37 61  1  0  0  0  0
 37 67  1  0  0  0  0
 37 78  2  0  0  0  0
 38 62  1  0  0  0  0
 38 73  1  0  0  0  0
 38 79  2  0  0  0  0
 39 68  1  0  0  0  0
 39 71  1  0  0  0  0
 39 80  2  0  0  0  0
 40 43  1  0  0  0  0
 41 51  1  0  0  0  0
 42 67  1  0  0  0  0
 43 45  1  0  0  0  0
 44 46  1  0  0  0  0
 44 47  1  0  0  0  0
 45 50  1  0  0  0  0
 46 52  1  0  0  0  0
 47 68  1  0  0  0  0
 48 52  1  0  0  0  0
 48 68  1  0  0  0  0
 49 53  1  0  0  0  0
 49 66  1  0  0  0  0
 50 72  1  0  0  0  0
 51 67  1  0  0  0  0
 52 65  1  0  0  0  0
 53 54  1  0  0  0  0
 53 60  1  0  0  0  0
 55 62  1  0  0  0  0
 56 63  1  0  0  0  0
 57 63  1  0  0  0  0
 58 63  1  0  0  0  0
 59 74  1  0  0  0  0
 60 82  1  0  0  0  0
 61 63  1  0  0  0  0
 61 73  1  0  0  0  0
 62 74  1  0  0  0  0
 64 65  1  0  0  0  0
M  CHG  1  74   1
M  ISO  4  39 100  60 101  71 100  82 101
M  END
> <Batch ID>
0075

> <Smiles>
CNC(C)C(=O)NC(C(=O)N1Cc2cc([101O:1][101CH2:1]C3(C)CN(c4cc(F)cc([100NH:0][100C:0](=O)N5CCCC(n6nc(-c7ccc(Oc8ccc(F)cc8F)cc7)c(C(N)=O)c6N)C5)c4)C3=O)ccc2CC1C(=O)NC1CCCc2ccccc21)C(C)(C)C

> <Shape>
0.139

> <Color>
0.182

> <Negative vol penalty>
0.000

$$$$

  -OEChem-04042323473D

 87 96  0     1  0  0  0  0  0999 V2000
  -22.1395   -8.5701   20.7027 C   0  0  0  0  0  0  0  0  0  0  0  0
  -22.4946   -9.8338   20.2417 C   0  0  0  0  0  0  0  0  0  0  0  0
  -18.9542  -29.1740   22.1757 C   0  0  0  0  0  0  0  0  0  0  0  0
  -20.0078  -27.2725   23.2300 C   0  0  0  0  0  0  0  0  0  0  0  0
  -28.5766  -24.3284   21.9281 C   0  0  0  0  0  0  0  0  0  0  0  0
  -22.9149   -7.9410   21.6757 C   0  0  0  0  0  0  0  0  0  0  0  0
  -23.6248  -10.4696   20.7544 C   0  0  0  0  0  0  0  0  0  0  0  0
  -27.4653  -14.1571   17.7282 C   0  0  0  0  0  0  0  0  0  0  0  0
  -27.8536  -25.5192   21.9962 C   0  0  0  0  0  0  0  0  0  0  0  0
  -17.7808  -28.4364   22.0181 C   0  0  0  0  0  0  0  0  0  0  0  0
  -18.8344  -26.5350   23.0725 C   0  0  0  0  0  0  0  0  0  0  0  0
  -27.5670  -15.5455   17.6508 C   0  0  0  0  0  0  0  0  0  0  0  0
  -15.1640  -27.4793   23.9335 C   0  0  0  0  0  0  0  0  0  0  0  0
  -13.9589  -28.1007   24.2607 C   0  0  0  0  0  0  0  0  0  0  0  0
  -29.2495  -15.5125   19.3792 C   0  0  0  0  0  0  0  0  0  0  0  0
  -28.8143  -26.2227   19.8940 C   0  0  0  0  0  0  0  0  0  0  0  0
  -13.1842  -27.7924   21.9931 C   0  0  0  0  0  0  0  0  0  0  0  0
  -20.0677  -28.5920   22.7816 C   0  0  0  0  0  0  0  0  0  0  0  0
  -29.4186  -24.0847   20.8430 C   0  0  0  0  0  0  0  0  0  0  0  0
  -21.6372  -30.1593   24.0417 C   0  0  0  0  0  0  0  0  0  0  0  0
  -24.0606   -8.5653   22.1936 C   0  0  0  0  0  0  0  0  0  0  0  0
  -28.2484  -13.4359   18.6409 C   0  0  0  0  0  0  0  0  0  0  0  0
  -24.4155   -9.8488   21.7363 C   0  0  0  0  0  0  0  0  0  0  0  0
  -29.1577  -14.1149   19.4644 C   0  0  0  0  0  0  0  0  0  0  0  0
  -27.9724  -26.4664   20.9791 C   0  0  0  0  0  0  0  0  0  0  0  0
  -17.7209  -27.1170   22.4665 C   0  0  0  0  0  0  0  0  0  0  0  0
  -28.4571  -16.2236   18.4784 C   0  0  0  0  0  0  0  0  0  0  0  0
  -15.3793  -27.0145   22.6361 C   0  0  0  0  0  0  0  0  0  0  0  0
  -12.9689  -28.2572   23.2906 C   0  0  0  0  0  0  0  0  0  0  0  0
  -29.5374  -25.0318   19.8259 C   0  0  0  0  0  0  0  0  0  0  0  0
  -14.3894  -27.1710   21.6659 C   0  0  0  0  0  0  0  0  0  0  0  0
  -21.2802  -29.3532   22.9442 C   0  0  0  0  0  0  0  0  0  0  0  0
  -22.8729  -30.6603   23.7123 C   0  0  0  0  0  0  0  0  0  0  0  0
  -30.1817  -22.8257   20.7742 C   0  0  0  0  0  0  0  0  0  0  0  0
  -20.9163  -30.4309   25.2509 C   0  0  0  0  0  0  0  0  0  0  0  0
  -27.6337  -11.5612   21.1331 C   0  0  0  0  0  0  0  0  0  0  0  0
  -30.8400  -11.0745   21.0627 C   0  0  0  0  0  0  0  0  0  0  0  0
  -33.9241  -12.2151   20.1494 C   0  0  0  0  0  0  0  0  0  0  0  0
  -27.2402  -28.7204   20.1250 C   0  0  0  0  0  0  0  0  0  0  0  0
  -24.8408   -7.8660   23.2785 C   0  0  0  0  0  0  0  0  0  0  0  0
  -28.1461  -11.9361   18.6933 C   0  0  0  0  0  0  0  0  0  0  0  0
  -30.0355  -13.3852   20.4469 C   0  0  0  0  0  0  0  0  0  0  0  0
  -26.2343   -8.4489   23.4989 C   0  0  0  0  0  0  0  0  0  0  0  0
  -25.5437  -31.8438   19.9175 C   0  0  0  0  0  0  0  0  0  0  0  0
  -26.1716   -9.9715   23.5657 C   0  0  0  0  0  0  0  0  0  0  0  0
  -24.2933  -31.6349   20.7749 C   0  0  0  0  0  0  0  0  0  0  0  0
  -28.0624  -20.3056   19.2856 C   0  0  0  0  0  0  0  0  0  0  0  0
  -25.9178  -30.5812   19.1432 C   0  0  0  0  0  0  0  0  0  0  0  0
  -28.3092  -21.7835   19.5702 C   0  0  0  0  0  0  0  0  0  0  0  0
  -24.8026  -29.1599   20.8182 C   0  0  0  0  0  0  0  0  0  0  0  0
  -30.3318  -20.4742   20.0595 C   0  0  0  0  0  0  0  0  0  0  0  0
  -25.6483  -10.5604   22.2500 C   0  0  1  0  0  0  0  0  0  0  0  0
  -28.6206  -11.3509   20.0199 C   0  0  1  0  0  0  0  0  0  0  0  0
  -24.4241  -30.3847   21.6668 C   0  0  2  0  0  0  0  0  0  0  0  0
  -29.4644  -19.7181   19.0365 C   0  0  2  0  0  0  0  0  0  0  0  0
  -29.9374  -20.0103   17.6034 C   0  0  0  0  0  0  0  0  0  0  0  0
  -36.3585  -11.6160   20.2610 C   0  0  0  0  0  0  0  0  0  0  0  0
  -30.9010  -11.8808   24.0048 C   0  0  0  0  0  0  0  0  0  0  0  0
  -33.3775  -12.1849   23.7982 C   0  0  0  0  0  0  0  0  0  0  0  0
  -32.3633   -9.9365   23.4254 C   0  0  0  0  0  0  0  0  0  0  0  0
  -34.1617  -12.1463   17.2002 C   0  0  0  0  0  0  0  0  0  0  0  0
  -29.4903  -18.2089   19.2827 C   0  0  0  0  0  0  0  0  0  1  0  0
  -32.0374  -11.7463   21.6904 C   0  0  1  0  0  0  0  0  0  0  0  0
  -35.0808  -11.5338   19.4404 C   0  0  2  0  0  0  0  0  0  0  0  0
  -32.1520  -11.4513   23.2126 C   0  0  0  0  0  0  0  0  0  0  0  0
  -22.2136  -29.3400   21.9889 N   0  0  0  0  0  0  0  0  0  0  0  0
  -23.1693  -30.1441   22.4851 N   0  0  0  0  0  0  0  0  0  0  0  0
  -29.6469  -21.7745   20.1800 N   0  0  0  0  0  0  0  0  0  0  0  0
  -29.8943  -11.9198   20.4652 N   0  0  0  0  0  0  0  0  0  0  0  0
  -26.0282  -29.4391   20.0534 N   0  0  0  0  0  0  0  0  0  0  0  0
  -23.7240  -31.4876   24.3554 N   0  0  0  0  0  0  0  0  0  0  0  0
  -19.6605  -29.8344   25.4284 N   0  0  0  0  0  0  0  0  0  0  0  0
  -27.2374  -27.6758   21.0488 N   0  0  0  0  0  0  0  0  0  0  0  0
  -26.6901  -10.5579   21.2455 N   0  0  0  0  0  0  0  0  0  0  0  0
  -33.1967  -11.3253   20.9112 N   0  0  0  0  0  0  0  0  0  0  0  0
  -31.3974  -22.7684   21.3100 N   0  3  0  0  0  0  0  0  0  0  0  0
  -35.3288  -12.1761   18.1188 N   0  3  0  0  0  0  0  0  0  0  0  0
  -21.3650  -31.1934   26.1402 O   0  0  0  0  0  0  0  0  0  0  0  0
  -27.7226  -12.5590   21.8389 O   0  0  0  0  0  0  0  0  0  0  0  0
  -30.7508   -9.8446   21.0947 O   0  0  0  0  0  0  0  0  0  0  0  0
  -33.6916  -13.4170   20.0413 O   0  0  0  0  0  0  0  0  0  0  0  0
  -28.2182  -29.0274   19.4385 O   0  0  0  0  0  0  0  0  0  0  0  0
  -16.5760  -26.3971   22.3130 O   0  0  0  0  0  0  0  0  0  0  0  0
  -28.5579  -17.5788   18.4053 O   0  0  0  0  0  0  0  0  0  1  0  0
  -11.8111  -28.8526   23.6053 F   0  0  0  0  0  0  0  0  0  0  0  0
  -30.3453  -24.8075   18.7802 F   0  0  0  0  0  0  0  0  0  0  0  0
  -14.5900  -26.7254   20.4181 F   0  0  0  0  0  0  0  0  0  0  0  0
  1  2  1  0  0  0  0
  1  6  2  0  0  0  0
  2  7  2  0  0  0  0
  3 10  2  0  0  0  0
  3 18  1  0  0  0  0
  4 11  1  0  0  0  0
  4 18  2  0  0  0  0
  5  9  2  0  0  0  0
  5 19  1  0  0  0  0
  6 21  1  0  0  0  0
  7 23  1  0  0  0  0
  8 12  2  0  0  0  0
  8 22  1  0  0  0  0
  9 25  1  0  0  0  0
 10 26  1  0  0  0  0
 11 26  2  0  0  0  0
 12 27  1  0  0  0  0
 13 14  2  0  0  0  0
 13 28  1  0  0  0  0
 14 29  1  0  0  0  0
 15 24  1  0  0  0  0
 15 27  2  0  0  0  0
 16 25  2  0  0  0  0
 16 30  1  0  0  0  0
 17 29  2  0  0  0  0
 17 31  1  0  0  0  0
 18 32  1  0  0  0  0
 19 30  2  0  0  0  0
 19 34  1  0  0  0  0
 20 32  1  0  0  0  0
 20 33  2  0  0  0  0
 20 35  1  0  0  0  0
 21 23  2  0  0  0  0
 21 40  1  0  0  0  0
 22 24  2  0  0  0  0
 22 41  1  0  0  0  0
 23 52  1  0  0  0  0
 24 42  1  0  0  0  0
 25 73  1  0  0  0  0
 26 83  1  0  0  0  0
 27 84  1  0  0  0  0
 28 31  2  0  0  0  0
 28 83  1  0  0  0  0
 29 85  1  0  0  0  0
 30 86  1  0  0  0  0
 31 87  1  0  0  0  0
 32 66  2  0  0  0  0
 33 67  1  0  0  0  0
 33 71  1  0  0  0  0
 34 68  1  0  0  0  0
 34 76  2  0  0  0  0
 35 72  1  0  0  0  0
 35 78  2  0  0  0  0
 36 53  1  0  0  0  0
 36 74  1  0  0  0  0
 36 79  2  0  0  0  0
 37 63  1  0  0  0  0
 37 69  1  0  0  0  0
 37 80  2  0  0  0  0
 38 64  1  0  0  0  0
 38 75  1  0  0  0  0
 38 81  2  0  0  0  0
 39 70  1  0  0  0  0
 39 73  1  0  0  0  0
 39 82  2  0  0  0  0
 40 43  1  0  0  0  0
 41 53  1  0  0  0  0
 42 69  1  0  0  0  0
 43 45  1  0  0  0  0
 44 46  1  0  0  0  0
 44 48  1  0  0  0  0
 45 52  1  0  0  0  0
 46 54  1  0  0  0  0
 47 49  1  0  0  0  0
 47 55  1  0  0  0  0
 48 70  1  0  0  0  0
 49 68  1  0  0  0  0
 50 54  1  0  0  0  0
 50 70  1  0  0  0  0
 51 55  1  0  0  0  0
 51 68  1  0  0  0  0
 52 74  1  0  0  0  0
 53 69  1  0  0  0  0
 54 67  1  0  0  0  0
 55 56  1  0  0  0  0
 55 62  1  0  0  0  0
 57 64  1  0  0  0  0
 58 65  1  0  0  0  0
 59 65  1  0  0  0  0
 60 65  1  0  0  0  0
 61 77  1  0  0  0  0
 62 84  1  0  0  0  0
 63 65  1  0  0  0  0
 63 75  1  0  0  0  0
 64 77  1  0  0  0  0
 66 67  1  0  0  0  0
M  CHG  2  76   1  77   1
M  ISO  4  39 100  62 101  73 100  84 101
M  END
> <Batch ID>
0075

> <Smiles>
CNC(C)C(=O)NC(C(=O)N1Cc2cc([101O:1][101CH2:1]C3(C)CCN(C(=N)c4ccc([100NH:0][100C:0](=O)N5CCCC(n6nc(-c7ccc(Oc8ccc(F)cc8F)cc7)c(C(N)=O)c6N)C5)cc4F)C3)ccc2CC1C(=O)NC1CCCc2ccccc21)C(C)(C)C

> <Shape>
0.279

> <Color>
0.071

> <Negative vol penalty>
0.000

$$$$

  -OEChem-04042323473D

 86 95  0     1  0  0  0  0  0999 V2000
  -17.7303  -27.6046   22.5368 C   0  0  0  0  0  0  0  0  0  0  0  0
  -18.5109  -26.5312   22.1198 C   0  0  0  0  0  0  0  0  0  0  0  0
  -24.7765  -12.0966   19.7683 C   0  0  0  0  0  0  0  0  0  0  0  0
  -27.7448  -23.1312   20.3859 C   0  0  0  0  0  0  0  0  0  0  0  0
  -29.6079  -23.3371   18.8616 C   0  0  0  0  0  0  0  0  0  0  0  0
  -26.0201  -12.1627   20.3967 C   0  0  0  0  0  0  0  0  0  0  0  0
  -18.3146  -28.6597   23.2362 C   0  0  0  0  0  0  0  0  0  0  0  0
  -19.8765  -26.5128   22.4011 C   0  0  0  0  0  0  0  0  0  0  0  0
  -21.4502  -22.0086   24.0983 C   0  0  0  0  0  0  0  0  0  0  0  0
  -23.9279  -13.2035   19.7830 C   0  0  0  0  0  0  0  0  0  0  0  0
  -27.6892  -24.5197   20.5055 C   0  0  0  0  0  0  0  0  0  0  0  0
  -29.5523  -24.7257   18.9811 C   0  0  0  0  0  0  0  0  0  0  0  0
  -21.6389  -21.0022   23.1521 C   0  0  0  0  0  0  0  0  0  0  0  0
  -26.5107  -27.1295   18.7074 C   0  0  0  0  0  0  0  0  0  0  0  0
  -25.2566  -27.7364   18.6384 C   0  0  0  0  0  0  0  0  0  0  0  0
  -25.5663  -14.4427   21.0546 C   0  0  0  0  0  0  0  0  0  0  0  0
  -24.0131  -21.4283   23.1811 C   0  0  0  0  0  0  0  0  0  0  0  0
  -25.5685  -28.6333   20.8600 C   0  0  0  0  0  0  0  0  0  0  0  0
  -28.7043  -22.5398   19.5640 C   0  0  0  0  0  0  0  0  0  0  0  0
  -26.4149  -13.3357   21.0399 C   0  0  0  0  0  0  0  0  0  0  0  0
  -28.0839  -20.3046   18.5024 C   0  0  0  0  0  0  0  0  0  0  0  0
  -19.6862  -28.6498   23.5346 C   0  0  0  0  0  0  0  0  0  0  0  0
  -22.5421  -22.7411   24.5857 C   0  0  0  0  0  0  0  0  0  0  0  0
  -20.4799  -27.5695   23.1039 C   0  0  0  0  0  0  0  0  0  0  0  0
  -23.8358  -22.4418   24.1353 C   0  0  0  0  0  0  0  0  0  0  0  0
  -24.3228  -14.3766   20.4262 C   0  0  0  0  0  0  0  0  0  0  0  0
  -28.5929  -25.3170   19.8031 C   0  0  0  0  0  0  0  0  0  0  0  0
  -22.9201  -20.7138   22.6913 C   0  0  0  0  0  0  0  0  0  0  0  0
  -27.2936  -27.2745   19.8527 C   0  0  0  0  0  0  0  0  0  0  0  0
  -24.7856  -28.4883   19.7147 C   0  0  0  0  0  0  0  0  0  0  0  0
  -26.8226  -28.0264   20.9290 C   0  0  0  0  0  0  0  0  0  0  0  0
  -28.7626  -21.1054   19.4405 C   0  0  0  0  0  0  0  0  0  0  0  0
  -28.4718  -19.0215   18.8019 C   0  0  0  0  0  0  0  0  0  0  0  0
  -23.7090  -16.7576   21.0450 C   0  0  0  0  0  0  0  0  0  0  0  0
  -27.7396  -13.4047   21.7087 C   0  0  0  0  0  0  0  0  0  0  0  0
  -27.1834  -20.6865   17.4541 C   0  0  0  0  0  0  0  0  0  0  0  0
  -23.3984  -25.8015   24.5217 C   0  0  0  0  0  0  0  0  0  0  0  0
  -25.7874  -24.7704   26.4586 C   0  0  0  0  0  0  0  0  0  0  0  0
  -27.7436  -22.1835   27.5207 C   0  0  0  0  0  0  0  0  0  0  0  0
  -29.5183  -14.9667   22.4297 C   0  0  0  0  0  0  0  0  0  0  0  0
  -20.2818  -29.8353   24.2518 C   0  0  0  0  0  0  0  0  0  0  0  0
  -22.3249  -23.8055   25.6260 C   0  0  0  0  0  0  0  0  0  0  0  0
  -25.0437  -23.1853   24.6421 C   0  0  0  0  0  0  0  0  0  0  0  0
  -21.6651  -29.5617   24.8364 C   0  0  0  0  0  0  0  0  0  0  0  0
  -32.1078  -17.3109   21.8853 C   0  0  0  0  0  0  0  0  0  0  0  0
  -22.5491  -28.8601   23.8102 C   0  0  0  0  0  0  0  0  0  0  0  0
  -31.4168  -18.4400   21.1159 C   0  0  0  0  0  0  0  0  0  0  0  0
  -21.4350  -16.6916   20.3458 C   0  0  0  0  0  0  0  0  0  0  0  0
  -31.1965  -16.7138   22.9566 C   0  0  0  0  0  0  0  0  0  0  0  0
  -22.1762  -15.5094   19.7541 C   0  0  0  0  0  0  0  0  0  0  0  0
  -29.1883  -17.4122   21.7167 C   0  0  0  0  0  0  0  0  0  0  0  0
  -21.9601  -27.5015   23.4116 C   0  0  1  0  0  0  0  0  0  0  0  0
  -22.5518  -17.6714   20.6753 C   0  0  1  0  0  0  0  0  0  0  0  0
  -23.4496  -24.8352   25.6712 C   0  0  1  0  0  0  0  0  0  0  0  0
  -30.0401  -17.9992   20.5796 C   0  0  1  0  0  0  0  0  0  0  0  0
  -29.6338  -21.6563   29.0848 C   0  0  0  0  0  0  0  0  0  0  0  0
  -27.7517  -26.0701   24.5190 C   0  0  0  0  0  0  0  0  0  0  0  0
  -29.5798  -24.7289   25.5809 C   0  0  0  0  0  0  0  0  0  0  0  0
  -28.3060  -26.3910   26.9365 C   0  0  0  0  0  0  0  0  0  0  0  0
  -26.0903  -20.2710   29.0595 C   0  0  0  0  0  0  0  0  0  0  0  0
  -22.1855  -18.6430   21.7814 C   0  0  0  0  0  0  0  0  0  1  0  0
  -27.1823  -24.2348   26.2435 C   0  0  1  0  0  0  0  0  0  0  0  0
  -28.1238  -21.7139   28.9133 C   0  0  2  0  0  0  0  0  0  0  0  0
  -28.1822  -25.3433   25.8088 C   0  0  0  0  0  0  0  0  0  0  0  0
  -29.5238  -20.3909   20.2735 N   0  0  0  0  0  0  0  0  0  0  0  0
  -29.3257  -19.1276   19.8601 N   0  0  0  0  0  0  0  0  0  0  0  0
  -23.4545  -15.5091   20.4408 N   0  0  0  0  0  0  0  0  0  0  0  0
  -24.7789  -24.2214   25.6540 N   0  0  0  0  0  0  0  0  0  0  0  0
  -29.9180  -16.3130   22.3664 N   0  0  0  0  0  0  0  0  0  0  0  0
  -28.1622  -17.8241   18.2607 N   0  0  0  0  0  0  0  0  0  0  0  0
  -26.8936  -22.0472   17.2849 N   0  0  0  0  0  0  0  0  0  0  0  0
  -28.3026  -14.6780   21.7999 N   0  0  0  0  0  0  0  0  0  0  0  0
  -22.2190  -26.5170   24.4403 N   0  0  0  0  0  0  0  0  0  0  0  0
  -27.5507  -23.5481   27.4768 N   0  0  0  0  0  0  0  0  0  0  0  0
  -27.5693  -20.3549   29.1711 N   0  3  0  0  0  0  0  0  0  0  0  0
  -24.6750  -17.1302   21.6951 O   0  0  0  0  0  0  0  0  0  0  0  0
  -28.2330  -12.3773   22.1657 O   0  0  0  0  0  0  0  0  0  0  0  0
  -26.6388  -19.8445   16.7005 O   0  0  0  0  0  0  0  0  0  0  0  0
  -24.3584  -25.8924   23.7655 O   0  0  0  0  0  0  0  0  0  0  0  0
  -25.5983  -25.6386   27.3142 O   0  0  0  0  0  0  0  0  0  0  0  0
  -27.6327  -21.4170   26.5664 O   0  0  0  0  0  0  0  0  0  0  0  0
  -30.2027  -14.0903   22.9671 O   0  0  0  0  0  0  0  0  0  0  0  0
  -28.5387  -26.6720   19.9193 O   0  0  0  0  0  0  0  0  0  0  0  0
  -23.1070  -19.7324   21.7673 O   0  0  0  0  0  0  0  0  0  1  0  0
  -23.5820  -29.0723   19.6477 F   0  0  0  0  0  0  0  0  0  0  0  0
  -27.5707  -28.1702   22.0314 F   0  0  0  0  0  0  0  0  0  0  0  0
  1  2  1  0  0  0  0
  1  7  2  0  0  0  0
  2  8  2  0  0  0  0
  3  6  1  0  0  0  0
  3 10  2  0  0  0  0
  4 11  2  0  0  0  0
  4 19  1  0  0  0  0
  5 12  1  0  0  0  0
  5 19  2  0  0  0  0
  6 20  2  0  0  0  0
  7 22  1  0  0  0  0
  8 24  1  0  0  0  0
  9 13  2  0  0  0  0
  9 23  1  0  0  0  0
 10 26  1  0  0  0  0
 11 27  1  0  0  0  0
 12 27  2  0  0  0  0
 13 28  1  0  0  0  0
 14 15  2  0  0  0  0
 14 29  1  0  0  0  0
 15 30  1  0  0  0  0
 16 20  1  0  0  0  0
 16 26  2  0  0  0  0
 17 25  1  0  0  0  0
 17 28  2  0  0  0  0
 18 30  2  0  0  0  0
 18 31  1  0  0  0  0
 19 32  1  0  0  0  0
 20 35  1  0  0  0  0
 21 32  1  0  0  0  0
 21 33  2  0  0  0  0
 21 36  1  0  0  0  0
 22 24  2  0  0  0  0
 22 41  1  0  0  0  0
 23 25  2  0  0  0  0
 23 42  1  0  0  0  0
 24 52  1  0  0  0  0
 25 43  1  0  0  0  0
 26 67  1  0  0  0  0
 27 83  1  0  0  0  0
 28 84  1  0  0  0  0
 29 31  2  0  0  0  0
 29 83  1  0  0  0  0
 30 85  1  0  0  0  0
 31 86  1  0  0  0  0
 32 65  2  0  0  0  0
 33 66  1  0  0  0  0
 33 70  1  0  0  0  0
 34 53  1  0  0  0  0
 34 67  1  0  0  0  0
 34 76  2  0  0  0  0
 35 72  1  0  0  0  0
 35 77  2  0  0  0  0
 36 71  1  0  0  0  0
 36 78  2  0  0  0  0
 37 54  1  0  0  0  0
 37 73  1  0  0  0  0
 37 79  2  0  0  0  0
 38 62  1  0  0  0  0
 38 68  1  0  0  0  0
 38 80  2  0  0  0  0
 39 63  1  0  0  0  0
 39 74  1  0  0  0  0
 39 81  2  0  0  0  0
 40 69  1  0  0  0  0
 40 72  1  0  0  0  0
 40 82  2  0  0  0  0
 41 44  1  0  0  0  0
 42 54  1  0  0  0  0
 43 68  1  0  0  0  0
 44 46  1  0  0  0  0
 45 47  1  0  0  0  0
 45 49  1  0  0  0  0
 46 52  1  0  0  0  0
 47 55  1  0  0  0  0
 48 50  1  0  0  0  0
 48 53  1  0  0  0  0
 49 69  1  0  0  0  0
 50 67  1  0  0  0  0
 51 55  1  0  0  0  0
 51 69  1  0  0  0  0
 52 73  1  0  0  0  0
 53 61  1  0  0  0  0
 54 68  1  0  0  0  0
 55 66  1  0  0  0  0
 56 63  1  0  0  0  0
 57 64  1  0  0  0  0
 58 64  1  0  0  0  0
 59 64  1  0  0  0  0
 60 75  1  0  0  0  0
 61 84  1  0  0  0  0
 62 64  1  0  0  0  0
 62 74  1  0  0  0  0
 63 75  1  0  0  0  0
 65 66  1  0  0  0  0
M  CHG  1  75   1
M  ISO  4  40 100  61 101  72 100  84 101
M  END
> <Batch ID>
0075

> <Smiles>
CNC(C)C(=O)NC(C(=O)N1Cc2cc([101O:1][101CH2:1]C3CCN(c4cccc(C(=O)[100NH:0][100C:0](=O)N5CCCC(n6nc(-c7ccc(Oc8ccc(F)cc8F)cc7)c(C(N)=O)c6N)C5)c4)C3=O)ccc2CC1C(=O)NC1CCCc2ccccc21)C(C)(C)C

> <Shape>
0.229

> <Color>
0.078

> <Negative vol penalty>
0.000

$$$$

  -OEChem-04042323473D

 87 96  0     1  0  0  0  0  0999 V2000
  -29.1883  -35.6451   24.2819 C   0  0  0  0  0  0  0  0  0  0  0  0
  -29.2512  -34.3041   23.9170 C   0  0  0  0  0  0  0  0  0  0  0  0
  -25.1419  -10.3392   23.6489 C   0  0  0  0  0  0  0  0  0  0  0  0
  -25.6397  -12.6335   24.2192 C   0  0  0  0  0  0  0  0  0  0  0  0
  -28.0017  -36.1737   24.7883 C   0  0  0  0  0  0  0  0  0  0  0  0
  -28.1277  -33.4905   24.0594 C   0  0  0  0  0  0  0  0  0  0  0  0
  -27.3239  -30.5617   20.0072 C   0  0  0  0  0  0  0  0  0  0  0  0
  -27.5421  -20.5332   20.4640 C   0  0  0  0  0  0  0  0  0  0  0  0
  -27.2826  -19.2109   20.1037 C   0  0  0  0  0  0  0  0  0  0  0  0
  -25.2346   -9.9845   24.9947 C   0  0  0  0  0  0  0  0  0  0  0  0
  -25.7323  -12.2789   25.5651 C   0  0  0  0  0  0  0  0  0  0  0  0
  -28.1209  -29.4255   19.8746 C   0  0  0  0  0  0  0  0  0  0  0  0
  -23.3032  -10.1872   27.7627 C   0  0  0  0  0  0  0  0  0  0  0  0
  -22.3126   -9.3546   28.2833 C   0  0  0  0  0  0  0  0  0  0  0  0
  -26.3258  -28.0717   20.7488 C   0  0  0  0  0  0  0  0  0  0  0  0
  -29.4051  -19.1078   18.9540 C   0  0  0  0  0  0  0  0  0  0  0  0
  -23.9903   -7.7090   28.8441 C   0  0  0  0  0  0  0  0  0  0  0  0
  -25.3446  -11.6637   23.2611 C   0  0  0  0  0  0  0  0  0  0  0  0
  -24.1293  -11.8922   21.0299 C   0  0  0  0  0  0  0  0  0  0  0  0
  -26.8603  -35.3685   24.9279 C   0  0  0  0  0  0  0  0  0  0  0  0
  -26.0235  -30.4627   20.5226 C   0  0  0  0  0  0  0  0  0  0  0  0
  -26.9251  -34.0085   24.5694 C   0  0  0  0  0  0  0  0  0  0  0  0
  -25.5134  -29.2078   20.8845 C   0  0  0  0  0  0  0  0  0  0  0  0
  -28.7330  -21.1428   20.0692 C   0  0  0  0  0  0  0  0  0  0  0  0
  -28.2141  -18.4982   19.3487 C   0  0  0  0  0  0  0  0  0  0  0  0
  -25.5297  -10.9543   25.9528 C   0  0  0  0  0  0  0  0  0  0  0  0
  -27.6229  -28.1806   20.2481 C   0  0  0  0  0  0  0  0  0  0  0  0
  -24.6374   -9.7806   27.7827 C   0  0  0  0  0  0  0  0  0  0  0  0
  -22.6561   -8.1156   28.8240 C   0  0  0  0  0  0  0  0  0  0  0  0
  -29.6645  -20.4301   19.3143 C   0  0  0  0  0  0  0  0  0  0  0  0
  -24.9809   -8.5416   28.3234 C   0  0  0  0  0  0  0  0  0  0  0  0
  -25.2496  -12.0306   21.8710 C   0  0  0  0  0  0  0  0  0  0  0  0
  -24.5478  -12.3825   19.8171 C   0  0  0  0  0  0  0  0  0  0  0  0
  -29.9453  -24.6655   19.9218 C   0  0  0  0  0  0  0  0  0  0  0  0
  -22.8267  -11.3675   21.3190 C   0  0  0  0  0  0  0  0  0  0  0  0
  -24.5262  -31.6304   23.0718 C   0  0  0  0  0  0  0  0  0  0  0  0
  -21.9279  -30.2726   21.6834 C   0  0  0  0  0  0  0  0  0  0  0  0
  -20.6804  -27.9139   19.5558 C   0  0  0  0  0  0  0  0  0  0  0  0
  -28.7679  -16.3066   18.2367 C   0  0  0  0  0  0  0  0  0  0  0  0
  -25.6139  -35.9732   25.5242 C   0  0  0  0  0  0  0  0  0  0  0  0
  -25.1670  -31.6941   20.6343 C   0  0  0  0  0  0  0  0  0  0  0  0
  -24.1168  -29.0450   21.4242 C   0  0  0  0  0  0  0  0  0  0  0  0
  -29.1951  -23.4660   19.3798 C   0  0  0  0  0  0  0  0  0  0  0  0
  -24.3594  -35.1349   25.2928 C   0  0  0  0  0  0  0  0  0  0  0  0
  -28.4929  -12.9249   17.1569 C   0  0  0  0  0  0  0  0  0  0  0  0
  -24.6327  -33.6672   25.6060 C   0  0  0  0  0  0  0  0  0  0  0  0
  -27.5233  -12.3008   18.1631 C   0  0  0  0  0  0  0  0  0  0  0  0
  -29.3220  -24.0808   22.2524 C   0  0  0  0  0  0  0  0  0  0  0  0
  -29.4180  -13.9449   17.8185 C   0  0  0  0  0  0  0  0  0  0  0  0
  -28.4576  -22.9437   21.7134 C   0  0  0  0  0  0  0  0  0  0  0  0
  -27.7671  -14.3670   19.5977 C   0  0  0  0  0  0  0  0  0  0  0  0
  -25.7204  -33.1000   24.6858 C   0  0  1  0  0  0  0  0  0  0  0  0
  -24.0402  -31.5479   21.6524 C   0  0  1  0  0  0  0  0  0  0  0  0
  -26.7715  -13.3807   18.9657 C   0  0  2  0  0  0  0  0  0  0  0  0
  -29.4872  -25.2448   21.2617 C   0  0  1  0  0  0  0  0  0  0  0  0
  -30.5446  -26.2166   21.8104 C   0  0  0  0  0  0  0  0  0  0  0  0
  -18.5148  -27.0214   18.6552 C   0  0  0  0  0  0  0  0  0  0  0  0
  -21.4297  -28.8250   24.3228 C   0  0  0  0  0  0  0  0  0  0  0  0
  -19.8860  -27.2772   23.1022 C   0  0  0  0  0  0  0  0  0  0  0  0
  -19.3710  -29.7153   23.2165 C   0  0  0  0  0  0  0  0  0  0  0  0
  -21.4138  -28.6146   16.7755 C   0  0  0  0  0  0  0  0  0  0  0  0
  -28.1740  -26.0101   21.0489 C   0  0  0  0  0  0  0  0  0  1  0  0
  -21.2675  -28.9166   21.7476 C   0  0  1  0  0  0  0  0  0  0  0  0
  -19.6546  -28.0050   18.4405 C   0  0  2  0  0  0  0  0  0  0  0  0
  -20.5156  -28.6865   23.0890 C   0  0  0  0  0  0  0  0  0  0  0  0
  -26.3009  -12.5667   21.2454 N   0  0  0  0  0  0  0  0  0  0  0  0
  -25.8430  -12.7694   19.9983 N   0  0  0  0  0  0  0  0  0  0  0  0
  -28.9900  -22.4718   20.4314 N   0  0  1  0  0  0  0  0  0  0  0  0
  -23.3204  -30.2796   21.5205 N   0  0  0  0  0  0  0  0  0  0  0  0
  -28.6358  -14.9388   18.5569 N   0  0  0  0  0  0  0  0  0  0  0  0
  -23.9306  -12.5160   18.6239 N   0  0  0  0  0  0  0  0  0  0  0  0
  -21.8379  -12.2488   21.7771 N   0  0  0  0  0  0  0  0  0  0  0  0
  -27.9505  -17.1549   18.9829 N   0  0  0  0  0  0  0  0  0  0  0  0
  -25.1750  -32.8117   23.3766 N   0  0  0  0  0  0  0  0  0  0  0  0
  -20.4208  -28.8184   20.5636 N   0  0  0  0  0  0  0  0  0  0  0  0
  -20.2907  -27.7076   17.1260 N   0  3  0  0  0  0  0  0  0  0  0  0
  -30.8280  -25.1990   19.2466 O   0  0  0  0  0  0  0  0  0  0  0  0
  -22.5525  -10.1501   21.1911 O   0  0  0  0  0  0  0  0  0  0  0  0
  -24.3259  -30.6923   23.8344 O   0  0  0  0  0  0  0  0  0  0  0  0
  -21.2329  -31.2883   21.7673 O   0  0  0  0  0  0  0  0  0  0  0  0
  -21.6160  -27.1172   19.5367 O   0  0  0  0  0  0  0  0  0  0  0  0
  -29.5287  -16.6941   17.3462 O   0  0  0  0  0  0  0  0  0  0  0  0
  -25.6199  -10.6086   27.2661 O   0  0  0  0  0  0  0  0  0  0  0  0
  -28.3990  -27.0701   20.1204 O   0  0  0  0  0  0  0  0  0  1  0  0
  -21.7048   -7.3168   29.3253 F   0  0  0  0  0  0  0  0  0  0  0  0
  -30.8115  -21.0071   18.9286 F   0  0  0  0  0  0  0  0  0  0  0  0
  -26.2611   -8.1460   28.3465 F   0  0  0  0  0  0  0  0  0  0  0  0
  1  2  1  0  0  0  0
  1  5  2  0  0  0  0
  2  6  2  0  0  0  0
  3 10  2  0  0  0  0
  3 18  1  0  0  0  0
  4 11  1  0  0  0  0
  4 18  2  0  0  0  0
  5 20  1  0  0  0  0
  6 22  1  0  0  0  0
  7 12  2  0  0  0  0
  7 21  1  0  0  0  0
  8  9  2  0  0  0  0
  8 24  1  0  0  0  0
  9 25  1  0  0  0  0
 10 26  1  0  0  0  0
 11 26  2  0  0  0  0
 12 27  1  0  0  0  0
 13 14  2  0  0  0  0
 13 28  1  0  0  0  0
 14 29  1  0  0  0  0
 15 23  1  0  0  0  0
 15 27  2  0  0  0  0
 16 25  2  0  0  0  0
 16 30  1  0  0  0  0
 17 29  2  0  0  0  0
 17 31  1  0  0  0  0
 18 32  1  0  0  0  0
 19 32  1  0  0  0  0
 19 33  2  0  0  0  0
 19 35  1  0  0  0  0
 20 22  2  0  0  0  0
 20 40  1  0  0  0  0
 21 23  2  0  0  0  0
 21 41  1  0  0  0  0
 22 52  1  0  0  0  0
 23 42  1  0  0  0  0
 24 30  2  0  0  0  0
 24 68  1  0  0  0  0
 25 73  1  0  0  0  0
 26 83  1  0  0  0  0
 27 84  1  0  0  0  0
 28 31  2  0  0  0  0
 28 83  1  0  0  0  0
 29 85  1  0  0  0  0
 30 86  1  0  0  0  0
 31 87  1  0  0  0  0
 32 66  2  0  0  0  0
 33 67  1  0  0  0  0
 33 71  1  0  0  0  0
 34 43  1  0  0  0  0
 34 55  1  0  0  0  0
 34 77  2  0  0  0  0
 35 72  1  0  0  0  0
 35 78  2  0  0  0  0
 36 53  1  0  0  0  0
 36 74  1  0  0  0  0
 36 79  2  0  0  0  0
 37 63  1  0  0  0  0
 37 69  1  0  0  0  0
 37 80  2  0  0  0  0
 38 64  1  0  0  0  0
 38 75  1  0  0  0  0
 38 81  2  0  0  0  0
 39 70  1  0  0  0  0
 39 73  1  0  0  0  0
 39 82  2  0  0  0  0
 40 44  1  0  0  0  0
 41 53  1  0  0  0  0
 42 69  1  0  0  0  0
 43 68  1  0  0  0  0
 44 46  1  0  0  0  0
 45 47  1  0  0  0  0
 45 49  1  0  0  0  0
 46 52  1  0  0  0  0
 47 54  1  0  0  0  0
 48 50  1  0  0  0  0
 48 55  1  0  0  0  0
 49 70  1  0  0  0  0
 50 68  1  0  0  0  0
 51 54  1  0  0  0  0
 51 70  1  0  0  0  0
 52 74  1  0  0  0  0
 53 69  1  0  0  0  0
 54 67  1  0  0  0  0
 55 56  1  0  0  0  0
 55 62  1  0  0  0  0
 57 64  1  0  0  0  0
 58 65  1  0  0  0  0
 59 65  1  0  0  0  0
 60 65  1  0  0  0  0
 61 76  1  0  0  0  0
 62 84  1  0  0  0  0
 63 65  1  0  0  0  0
 63 75  1  0  0  0  0
 64 76  1  0  0  0  0
 66 67  1  0  0  0  0
M  CHG  1  76   1
M  ISO  4  39 100  62 101  73 100  84 101
M  END
> <Batch ID>
0075

> <Smiles>
CNC(C)C(=O)NC(C(=O)N1Cc2cc([101O:1][101CH2:1]C3(C)CCN(c4ccc([100NH:0][100C:0](=O)N5CCCC(n6nc(-c7ccc(Oc8ccc(F)cc8F)cc7)c(C(N)=O)c6N)C5)cc4F)CC3=O)ccc2CC1C(=O)NC1CCCc2ccccc21)C(C)(C)C

> <Shape>
0.301

> <Color>
0.098

> <Negative vol penalty>
0.000

$$$$

  -OEChem-04042323473D

 89 98  0     1  0  0  0  0  0999 V2000
  -29.6154  -11.9908   19.6060 C   0  0  0  0  0  0  0  0  0  0  0  0
  -29.5053  -13.3620   19.3984 C   0  0  0  0  0  0  0  0  0  0  0  0
  -30.0046  -23.8174   24.1934 C   0  0  0  0  0  0  0  0  0  0  0  0
  -28.2130  -22.7352   22.9868 C   0  0  0  0  0  0  0  0  0  0  0  0
  -28.4744  -11.2322   19.8640 C   0  0  0  0  0  0  0  0  0  0  0  0
  -28.2539  -13.9752   19.4477 C   0  0  0  0  0  0  0  0  0  0  0  0
  -25.1299  -20.1452   21.3157 C   0  0  0  0  0  0  0  0  0  0  0  0
  -30.2580  -22.6309   24.8815 C   0  0  0  0  0  0  0  0  0  0  0  0
  -28.4664  -21.5486   23.6749 C   0  0  0  0  0  0  0  0  0  0  0  0
  -24.2720  -21.1168   20.8022 C   0  0  0  0  0  0  0  0  0  0  0  0
  -30.6969  -19.0141   23.5285 C   0  0  0  0  0  0  0  0  0  0  0  0
  -30.7316  -17.8323   22.7884 C   0  0  0  0  0  0  0  0  0  0  0  0
  -19.0247  -27.0057   21.6451 C   0  0  0  0  0  0  0  0  0  0  0  0
  -21.3548  -26.6793   21.0962 C   0  0  0  0  0  0  0  0  0  0  0  0
  -22.3797  -19.7186   21.3344 C   0  0  0  0  0  0  0  0  0  0  0  0
  -20.6992  -28.4926   22.5519 C   0  0  0  0  0  0  0  0  0  0  0  0
  -28.9119  -16.9507   24.1107 C   0  0  0  0  0  0  0  0  0  0  0  0
  -28.9820  -23.8696   23.2461 C   0  0  0  0  0  0  0  0  0  0  0  0
  -20.0199  -26.2925   20.9769 C   0  0  0  0  0  0  0  0  0  0  0  0
  -29.2892  -25.5101   21.3169 C   0  0  0  0  0  0  0  0  0  0  0  0
  -27.2095  -11.8379   19.9260 C   0  0  0  0  0  0  0  0  0  0  0  0
  -24.6189  -18.9463   21.8333 C   0  0  0  0  0  0  0  0  0  0  0  0
  -27.0948  -13.2238   19.7054 C   0  0  0  0  0  0  0  0  0  0  0  0
  -23.2330  -18.7345   21.8562 C   0  0  0  0  0  0  0  0  0  0  0  0
  -19.3644  -28.1058   22.4325 C   0  0  0  0  0  0  0  0  0  0  0  0
  -21.6944  -27.7794   21.8837 C   0  0  0  0  0  0  0  0  0  0  0  0
  -29.4889  -21.4964   24.6222 C   0  0  0  0  0  0  0  0  0  0  0  0
  -22.8969  -20.9024   20.8088 C   0  0  0  0  0  0  0  0  0  0  0  0
  -29.7698  -19.1642   24.5598 C   0  0  0  0  0  0  0  0  0  0  0  0
  -29.8391  -16.8006   23.0794 C   0  0  0  0  0  0  0  0  0  0  0  0
  -28.8773  -18.1325   24.8509 C   0  0  0  0  0  0  0  0  0  0  0  0
  -28.7194  -25.0952   22.5355 C   0  0  0  0  0  0  0  0  0  0  0  0
  -28.7162  -26.7335   21.0688 C   0  0  0  0  0  0  0  0  0  0  0  0
  -17.0347  -28.6565   23.1519 C   0  0  0  0  0  0  0  0  0  0  0  0
  -19.6605  -25.1276   20.1435 C   0  0  0  0  0  0  0  0  0  0  0  0
  -30.2505  -24.8488   20.4836 C   0  0  0  0  0  0  0  0  0  0  0  0
  -24.9172  -15.8718   21.0835 C   0  0  0  0  0  0  0  0  0  0  0  0
  -23.2042  -15.4434   23.8047 C   0  0  0  0  0  0  0  0  0  0  0  0
  -21.0057  -16.7284   26.0767 C   0  0  0  0  0  0  0  0  0  0  0  0
  -23.5575  -29.2401   22.7449 C   0  0  0  0  0  0  0  0  0  0  0  0
  -25.9993  -10.9692   20.1611 C   0  0  0  0  0  0  0  0  0  0  0  0
  -25.5560  -17.9196   22.4080 C   0  0  0  0  0  0  0  0  0  0  0  0
  -22.6328  -17.4730   22.4192 C   0  0  0  0  0  0  0  0  0  0  0  0
  -24.7553  -11.7548   20.5678 C   0  0  0  0  0  0  0  0  0  0  0  0
  -26.8314  -30.5129   23.3268 C   0  0  0  0  0  0  0  0  0  0  0  0
  -24.5693  -12.9671   19.6609 C   0  0  0  0  0  0  0  0  0  0  0  0
  -27.7394  -29.3073   23.0731 C   0  0  0  0  0  0  0  0  0  0  0  0
  -25.5213  -30.1047   23.9982 C   0  0  0  0  0  0  0  0  0  0  0  0
  -25.6870  -27.8327   23.0604 C   0  0  0  0  0  0  0  0  0  0  0  0
  -18.4633  -29.9748   23.9645 C   0  0  0  0  0  0  0  0  0  0  0  0
  -25.7578  -13.9293   19.7755 C   0  0  1  0  0  0  0  0  0  0  0  0
  -24.9581  -16.5164   22.4401 C   0  0  1  0  0  0  0  0  0  0  0  0
  -26.9912  -28.1854   22.3267 C   0  0  2  0  0  0  0  0  0  0  0  0
  -16.9133  -29.8854   24.0985 C   0  0  0  0  0  0  0  0  0  0  0  0
  -16.4151  -29.5395   25.4974 C   0  0  0  0  0  0  0  0  0  0  0  0
  -16.1542  -31.0595   23.4898 C   0  0  0  0  0  0  0  0  0  0  0  0
  -19.7620  -16.1278   28.1719 C   0  0  0  0  0  0  0  0  0  0  0  0
  -21.2490  -13.7731   22.1623 C   0  0  0  0  0  0  0  0  0  0  0  0
  -19.5931  -14.0061   24.0256 C   0  0  0  0  0  0  0  0  0  0  0  0
  -21.7653  -12.8472   24.4274 C   0  0  0  0  0  0  0  0  0  0  0  0
  -22.3332  -18.8773   27.6192 C   0  0  0  0  0  0  0  0  0  0  0  0
  -19.8985  -22.7086   19.7098 C   0  0  0  0  0  0  0  0  0  0  0  0
  -20.6597  -21.5633   20.3460 C   0  0  0  0  0  0  0  0  0  1  0  0
  -21.7349  -15.3590   24.1409 C   0  0  1  0  0  0  0  0  0  0  0  0
  -21.0236  -16.7505   27.5945 C   0  0  2  0  0  0  0  0  0  0  0  0
  -21.0967  -14.0194   23.6766 C   0  0  0  0  0  0  0  0  0  0  0  0
  -27.8512  -25.9830   23.0275 N   0  0  0  0  0  0  0  0  0  0  0  0
  -27.8712  -26.9680   22.1134 N   0  0  0  0  0  0  0  0  0  0  0  0
  -18.3690  -28.8191   23.1012 N   0  0  0  0  0  0  0  0  0  0  0  0
  -23.5907  -16.4966   22.9637 N   0  0  0  0  0  0  0  0  0  0  0  0
  -24.8662  -29.0415   23.2333 N   0  0  0  0  0  0  0  0  0  0  0  0
  -28.8578  -27.6208   20.0613 N   0  0  0  0  0  0  0  0  0  0  0  0
  -18.8357  -25.3220   19.1145 N   0  0  0  0  0  0  0  0  0  0  0  0
  -30.7357  -23.5974   20.8870 N   0  0  0  0  0  0  0  0  0  0  0  0
  -23.0503  -28.1730   22.0042 N   0  0  0  0  0  0  0  0  0  0  0  0
  -25.6603  -14.7105   20.9898 N   0  0  0  0  0  0  0  0  0  0  0  0
  -21.6295  -15.6058   25.5749 N   0  0  0  0  0  0  0  0  0  0  0  0
  -20.1771  -23.9347   20.4617 N   0  3  0  0  0  0  0  0  0  0  0  0
  -21.1255  -18.1520   28.0910 N   0  3  0  0  0  0  0  0  0  0  0  0
  -16.2726  -27.8621   22.6496 O   0  0  0  0  0  0  0  0  0  0  0  0
  -30.6790  -25.3601   19.4214 O   0  0  0  0  0  0  0  0  0  0  0  0
  -24.2588  -16.3887   20.1885 O   0  0  0  0  0  0  0  0  0  0  0  0
  -23.9814  -14.6099   24.2767 O   0  0  0  0  0  0  0  0  0  0  0  0
  -20.4868  -17.6163   25.4037 O   0  0  0  0  0  0  0  0  0  0  0  0
  -22.9430  -30.2912   22.9442 O   0  0  0  0  0  0  0  0  0  0  0  0
  -29.7361  -20.3383   25.2932 O   0  0  0  0  0  0  0  0  0  0  0  0
  -22.0573  -21.8488   20.3076 O   0  0  0  0  0  0  0  0  0  1  0  0
  -29.8715  -15.6665   22.3676 F   0  0  0  0  0  0  0  0  0  0  0  0
  -27.9835  -18.2713   25.8397 F   0  0  0  0  0  0  0  0  0  0  0  0
  1  2  1  0  0  0  0
  1  5  2  0  0  0  0
  2  6  2  0  0  0  0
  3  8  2  0  0  0  0
  3 18  1  0  0  0  0
  4  9  1  0  0  0  0
  4 18  2  0  0  0  0
  5 21  1  0  0  0  0
  6 23  1  0  0  0  0
  7 10  2  0  0  0  0
  7 22  1  0  0  0  0
  8 27  1  0  0  0  0
  9 27  2  0  0  0  0
 10 28  1  0  0  0  0
 11 12  2  0  0  0  0
 11 29  1  0  0  0  0
 12 30  1  0  0  0  0
 13 19  2  0  0  0  0
 13 25  1  0  0  0  0
 14 19  1  0  0  0  0
 14 26  2  0  0  0  0
 15 24  1  0  0  0  0
 15 28  2  0  0  0  0
 16 25  2  0  0  0  0
 16 26  1  0  0  0  0
 17 30  2  0  0  0  0
 17 31  1  0  0  0  0
 18 32  1  0  0  0  0
 19 35  1  0  0  0  0
 20 32  1  0  0  0  0
 20 33  2  0  0  0  0
 20 36  1  0  0  0  0
 21 23  2  0  0  0  0
 21 41  1  0  0  0  0
 22 24  2  0  0  0  0
 22 42  1  0  0  0  0
 23 51  1  0  0  0  0
 24 43  1  0  0  0  0
 25 69  1  0  0  0  0
 26 75  1  0  0  0  0
 27 86  1  0  0  0  0
 28 87  1  0  0  0  0
 29 31  2  0  0  0  0
 29 86  1  0  0  0  0
 30 88  1  0  0  0  0
 31 89  1  0  0  0  0
 32 67  2  0  0  0  0
 33 68  1  0  0  0  0
 33 72  1  0  0  0  0
 34 54  1  0  0  0  0
 34 69  1  0  0  0  0
 34 80  2  0  0  0  0
 35 73  1  0  0  0  0
 35 78  2  0  0  0  0
 36 74  1  0  0  0  0
 36 81  2  0  0  0  0
 37 52  1  0  0  0  0
 37 76  1  0  0  0  0
 37 82  2  0  0  0  0
 38 64  1  0  0  0  0
 38 70  1  0  0  0  0
 38 83  2  0  0  0  0
 39 65  1  0  0  0  0
 39 77  1  0  0  0  0
 39 84  2  0  0  0  0
 40 71  1  0  0  0  0
 40 75  1  0  0  0  0
 40 85  2  0  0  0  0
 41 44  1  0  0  0  0
 42 52  1  0  0  0  0
 43 70  1  0  0  0  0
 44 46  1  0  0  0  0
 45 47  1  0  0  0  0
 45 48  1  0  0  0  0
 46 51  1  0  0  0  0
 47 53  1  0  0  0  0
 48 71  1  0  0  0  0
 49 53  1  0  0  0  0
 49 71  1  0  0  0  0
 50 54  1  0  0  0  0
 50 69  1  0  0  0  0
 51 76  1  0  0  0  0
 52 70  1  0  0  0  0
 53 68  1  0  0  0  0
 54 55  1  0  0  0  0
 54 56  1  0  0  0  0
 57 65  1  0  0  0  0
 58 66  1  0  0  0  0
 59 66  1  0  0  0  0
 60 66  1  0  0  0  0
 61 79  1  0  0  0  0
 62 63  1  0  0  0  0
 62 78  1  0  0  0  0
 63 87  1  0  0  0  0
 64 66  1  0  0  0  0
 64 77  1  0  0  0  0
 65 79  1  0  0  0  0
 67 68  1  0  0  0  0
M  CHG  2  78   1  79   1
M  ISO  4  40 100  63 101  75 100  87 101
M  END
> <Batch ID>
0075

> <Smiles>
CNC(C)C(=O)NC(C(=O)N1Cc2cc([101O:1][101CH2:1]CNC(=N)c3cc([100NH:0][100C:0](=O)N4CCCC(n5nc(-c6ccc(Oc7ccc(F)cc7F)cc6)c(C(N)=O)c5N)C4)cc(N4CC(C)(C)C4=O)c3)ccc2CC1C(=O)NC1CCCc2ccccc21)C(C)(C)C

> <Shape>
0.205

> <Color>
0.075

> <Negative vol penalty>
0.000

$$$$

  -OEChem-04042323473D

 86 94  0     1  0  0  0  0  0999 V2000
  -24.9597  -24.1433   15.8246 C   0  0  0  0  0  0  0  0  0  0  0  0
  -24.2353  -25.1056   16.5189 C   0  0  0  0  0  0  0  0  0  0  0  0
  -24.7224  -12.7942   19.6786 C   0  0  0  0  0  0  0  0  0  0  0  0
  -25.5224  -13.2342   21.9155 C   0  0  0  0  0  0  0  0  0  0  0  0
  -20.8372  -23.0823   23.8175 C   0  0  0  0  0  0  0  0  0  0  0  0
  -21.5433  -24.5298   22.0166 C   0  0  0  0  0  0  0  0  0  0  0  0
  -26.2272  -23.7743   16.2703 C   0  0  0  0  0  0  0  0  0  0  0  0
  -24.7829  -25.7079   17.6521 C   0  0  0  0  0  0  0  0  0  0  0  0
  -22.2693  -29.4448   19.6323 C   0  0  0  0  0  0  0  0  0  0  0  0
  -21.8970  -22.2191   23.5393 C   0  0  0  0  0  0  0  0  0  0  0  0
  -22.6032  -23.6666   21.7384 C   0  0  0  0  0  0  0  0  0  0  0  0
  -25.3310  -11.5394   19.7078 C   0  0  0  0  0  0  0  0  0  0  0  0
  -26.1309  -11.9794   21.9447 C   0  0  0  0  0  0  0  0  0  0  0  0
  -21.0757  -29.2645   20.3299 C   0  0  0  0  0  0  0  0  0  0  0  0
  -25.1935   -8.7691   22.4300 C   0  0  0  0  0  0  0  0  0  0  0  0
  -25.0330   -7.9993   23.5821 C   0  0  0  0  0  0  0  0  0  0  0  0
  -22.2544  -29.5670   22.4128 C   0  0  0  0  0  0  0  0  0  0  0  0
  -27.4278   -7.9768   23.9008 C   0  0  0  0  0  0  0  0  0  0  0  0
  -24.8182  -13.6416   20.7824 C   0  0  0  0  0  0  0  0  0  0  0  0
  -20.6603  -24.2376   23.0561 C   0  0  0  0  0  0  0  0  0  0  0  0
  -22.8807  -15.2579   21.1583 C   0  0  0  0  0  0  0  0  0  0  0  0
  -26.7847  -24.3639   17.4168 C   0  0  0  0  0  0  0  0  0  0  0  0
  -23.4684  -29.6770   20.3214 C   0  0  0  0  0  0  0  0  0  0  0  0
  -26.0705  -25.3664   18.1040 C   0  0  0  0  0  0  0  0  0  0  0  0
  -23.4614  -29.7524   21.7215 C   0  0  0  0  0  0  0  0  0  0  0  0
  -22.7800  -22.5113   22.4998 C   0  0  0  0  0  0  0  0  0  0  0  0
  -26.0352  -11.1320   20.8408 C   0  0  0  0  0  0  0  0  0  0  0  0
  -21.0686  -29.3227   21.7205 C   0  0  0  0  0  0  0  0  0  0  0  0
  -26.4712   -9.1427   22.0133 C   0  0  0  0  0  0  0  0  0  0  0  0
  -26.1501   -7.6032   24.3175 C   0  0  0  0  0  0  0  0  0  0  0  0
  -27.5883   -8.7466   22.7487 C   0  0  0  0  0  0  0  0  0  0  0  0
  -24.1902  -14.9381   20.7527 C   0  0  0  0  0  0  0  0  0  0  0  0
  -22.7714  -16.6083   20.9326 C   0  0  0  0  0  0  0  0  0  0  0  0
  -19.5383  -25.1514   23.3504 C   0  0  0  0  0  0  0  0  0  0  0  0
  -21.8547  -14.4101   21.6915 C   0  0  0  0  0  0  0  0  0  0  0  0
  -26.2424  -28.1460   20.5752 C   0  0  0  0  0  0  0  0  0  0  0  0
  -18.0671  -27.6423   22.8754 C   0  0  0  0  0  0  0  0  0  0  0  0
  -27.1052  -30.7918   22.2418 C   0  0  0  0  0  0  0  0  0  0  0  0
  -26.1431  -33.4801   24.1112 C   0  0  0  0  0  0  0  0  0  0  0  0
  -24.8228  -21.7766   21.2217 C   0  0  0  0  0  0  0  0  0  0  0  0
  -28.1636  -23.9329   17.8504 C   0  0  0  0  0  0  0  0  0  0  0  0
  -24.7428  -29.8960   19.5530 C   0  0  0  0  0  0  0  0  0  0  0  0
  -24.7181  -30.0193   22.5075 C   0  0  0  0  0  0  0  0  0  0  0  0
  -28.4725  -24.2976   19.2988 C   0  0  0  0  0  0  0  0  0  0  0  0
  -25.8210  -19.7889   18.4415 C   0  0  0  0  0  0  0  0  0  0  0  0
  -28.1336  -25.7593   19.5503 C   0  0  0  0  0  0  0  0  0  0  0  0
  -25.3780  -18.3760   18.8283 C   0  0  0  0  0  0  0  0  0  0  0  0
  -26.3264  -20.5755   19.6496 C   0  0  0  0  0  0  0  0  0  0  0  0
  -24.9604  -19.2086   21.1776 C   0  0  0  0  0  0  0  0  0  0  0  0
  -26.6332  -26.0131   19.3568 C   0  0  1  0  0  0  0  0  0  0  0  0
  -25.9942  -29.6149   20.3790 C   0  0  1  0  0  0  0  0  0  0  0  0
  -24.3826  -18.3998   20.0047 C   0  0  2  0  0  0  0  0  0  0  0  0
  -27.0769  -35.4423   25.3663 C   0  0  0  0  0  0  0  0  0  0  0  0
  -16.6454  -25.7110   23.7072 C   0  0  0  0  0  0  0  0  0  0  0  0
  -16.7073  -26.2891   21.2484 C   0  0  0  0  0  0  0  0  0  0  0  0
  -27.9576  -28.9340   24.5073 C   0  0  0  0  0  0  0  0  0  0  0  0
  -27.9726  -30.9176   26.0348 C   0  0  0  0  0  0  0  0  0  0  0  0
  -29.5183  -30.8405   24.0784 C   0  0  0  0  0  0  0  0  0  0  0  0
  -24.7116  -35.4126   22.3862 C   0  0  0  0  0  0  0  0  0  0  0  0
  -18.9225  -28.3017   21.8063 C   0  0  0  0  0  0  0  0  0  1  0  0
  -27.0470  -31.2082   23.6918 C   0  0  1  0  0  0  0  0  0  0  0  0
  -26.5266  -34.9471   24.0379 C   0  0  2  0  0  0  0  0  0  0  0  0
  -17.4812  -26.2654   22.5607 C   0  0  0  0  0  0  0  0  0  0  0  0
  -28.1004  -30.4681   24.5636 C   0  0  0  0  0  0  0  0  0  0  0  0
  -24.8646  -15.9998   20.3032 N   0  0  0  0  0  0  0  0  0  0  0  0
  -23.9752  -17.0000   20.4250 N   0  0  0  0  0  0  0  0  0  0  0  0
  -25.9400  -30.2204   21.7112 N   0  0  0  0  0  0  0  0  0  0  0  0
  -25.3296  -20.5582   20.7224 N   0  0  0  0  0  0  0  0  0  0  0  0
  -21.7641  -17.4871   21.1208 N   0  0  0  0  0  0  0  0  0  0  0  0
  -19.4805  -25.7053   24.5615 N   0  0  0  0  0  0  0  0  0  0  0  0
  -22.1343  -13.0470   21.8588 N   0  0  0  0  0  0  0  0  0  0  0  0
  -23.8567  -21.6346   22.2172 N   0  0  0  0  0  0  0  0  0  0  0  0
  -26.3863  -27.4376   19.3976 N   0  0  0  0  0  0  0  0  0  0  0  0
  -27.1754  -32.6614   23.7046 N   0  0  0  0  0  0  0  0  0  0  0  0
  -18.6383  -25.3742   22.3895 N   0  3  0  0  0  0  0  0  0  0  0  0
  -25.3399  -35.7756   23.6826 N   0  3  0  0  0  0  0  0  0  0  0  0
  -20.7180  -14.8454   21.9948 O   0  0  0  0  0  0  0  0  0  0  0  0
  -26.3006  -27.6895   21.7109 O   0  0  0  0  0  0  0  0  0  0  0  0
  -17.8796  -28.1940   23.9619 O   0  0  0  0  0  0  0  0  0  0  0  0
  -28.1438  -30.9736   21.6017 O   0  0  0  0  0  0  0  0  0  0  0  0
  -25.0395  -33.0985   24.4946 O   0  0  0  0  0  0  0  0  0  0  0  0
  -25.1970  -22.8654   20.7783 O   0  0  0  0  0  0  0  0  0  0  0  0
  -26.6289   -9.9076   20.8697 O   0  0  0  0  0  0  0  0  0  0  0  0
  -19.9051  -29.1465   22.4038 O   0  0  0  0  0  0  0  0  0  1  0  0
  -25.9956   -6.8653   25.4247 F   0  0  0  0  0  0  0  0  0  0  0  0
  -28.8182   -9.1035   22.3540 F   0  0  0  0  0  0  0  0  0  0  0  0
  1  2  1  0  0  0  0
  1  7  2  0  0  0  0
  2  8  2  0  0  0  0
  3 12  2  0  0  0  0
  3 19  1  0  0  0  0
  4 13  1  0  0  0  0
  4 19  2  0  0  0  0
  5 10  2  0  0  0  0
  5 20  1  0  0  0  0
  6 11  1  0  0  0  0
  6 20  2  0  0  0  0
  7 22  1  0  0  0  0
  8 24  1  0  0  0  0
  9 14  2  0  0  0  0
  9 23  1  0  0  0  0
 10 26  1  0  0  0  0
 11 26  2  0  0  0  0
 12 27  1  0  0  0  0
 13 27  2  0  0  0  0
 14 28  1  0  0  0  0
 15 16  2  0  0  0  0
 15 29  1  0  0  0  0
 16 30  1  0  0  0  0
 17 25  1  0  0  0  0
 17 28  2  0  0  0  0
 18 30  2  0  0  0  0
 18 31  1  0  0  0  0
 19 32  1  0  0  0  0
 20 34  1  0  0  0  0
 21 32  1  0  0  0  0
 21 33  2  0  0  0  0
 21 35  1  0  0  0  0
 22 24  2  0  0  0  0
 22 41  1  0  0  0  0
 23 25  2  0  0  0  0
 23 42  1  0  0  0  0
 24 50  1  0  0  0  0
 25 43  1  0  0  0  0
 26 72  1  0  0  0  0
 27 83  1  0  0  0  0
 28 84  1  0  0  0  0
 29 31  2  0  0  0  0
 29 83  1  0  0  0  0
 30 85  1  0  0  0  0
 31 86  1  0  0  0  0
 32 65  2  0  0  0  0
 33 66  1  0  0  0  0
 33 69  1  0  0  0  0
 34 70  1  0  0  0  0
 34 75  2  0  0  0  0
 35 71  1  0  0  0  0
 35 77  2  0  0  0  0
 36 51  1  0  0  0  0
 36 73  1  0  0  0  0
 36 78  2  0  0  0  0
 37 60  1  0  0  0  0
 37 63  1  0  0  0  0
 37 79  2  0  0  0  0
 38 61  1  0  0  0  0
 38 67  1  0  0  0  0
 38 80  2  0  0  0  0
 39 62  1  0  0  0  0
 39 74  1  0  0  0  0
 39 81  2  0  0  0  0
 40 68  1  0  0  0  0
 40 72  1  0  0  0  0
 40 82  2  0  0  0  0
 41 44  1  0  0  0  0
 42 51  1  0  0  0  0
 43 67  1  0  0  0  0
 44 46  1  0  0  0  0
 45 47  1  0  0  0  0
 45 48  1  0  0  0  0
 46 50  1  0  0  0  0
 47 52  1  0  0  0  0
 48 68  1  0  0  0  0
 49 52  1  0  0  0  0
 49 68  1  0  0  0  0
 50 73  1  0  0  0  0
 51 67  1  0  0  0  0
 52 66  1  0  0  0  0
 53 62  1  0  0  0  0
 54 63  1  0  0  0  0
 55 63  1  0  0  0  0
 56 64  1  0  0  0  0
 57 64  1  0  0  0  0
 58 64  1  0  0  0  0
 59 76  1  0  0  0  0
 60 84  1  0  0  0  0
 61 64  1  0  0  0  0
 61 74  1  0  0  0  0
 62 76  1  0  0  0  0
 63 75  1  0  0  0  0
 65 66  1  0  0  0  0
M  CHG  2  75   1  76   1
M  ISO  4  40 100  60 101  72 100  84 101
M  END
> <Batch ID>
0075

> <Smiles>
CNC(C)C(=O)NC(C(=O)N1Cc2cc([101O:1][101CH2:1]C(=O)C(C)(C)NC(=N)c3ccc([100NH:0][100C:0](=O)N4CCCC(n5nc(-c6ccc(Oc7ccc(F)cc7F)cc6)c(C(N)=O)c5N)C4)cc3)ccc2CC1C(=O)NC1CCCc2ccccc21)C(C)(C)C

> <Shape>
0.239

> <Color>
0.059

> <Negative vol penalty>
0.000

$$$$

  -OEChem-04042323473D

 86 95  0     1  0  0  0  0  0999 V2000
  -17.0880  -26.8241   22.2867 C   0  0  0  0  0  0  0  0  0  0  0  0
  -18.3103  -26.2104   22.5415 C   0  0  0  0  0  0  0  0  0  0  0  0
  -24.1983   -9.6026   21.6104 C   0  0  0  0  0  0  0  0  0  0  0  0
  -24.6911  -10.8074   23.6457 C   0  0  0  0  0  0  0  0  0  0  0  0
  -17.0532  -28.0934   21.7110 C   0  0  0  0  0  0  0  0  0  0  0  0
  -19.4985  -26.8654   22.2197 C   0  0  0  0  0  0  0  0  0  0  0  0
  -24.7955  -26.5980   25.2816 C   0  0  0  0  0  0  0  0  0  0  0  0
  -23.7852   -8.5024   22.3617 C   0  0  0  0  0  0  0  0  0  0  0  0
  -24.2779   -9.7072   24.3970 C   0  0  0  0  0  0  0  0  0  0  0  0
  -25.9577  -25.8542   25.0822 C   0  0  0  0  0  0  0  0  0  0  0  0
  -21.0466   -7.5668   24.1104 C   0  0  0  0  0  0  0  0  0  0  0  0
  -19.8605   -6.9352   23.7366 C   0  0  0  0  0  0  0  0  0  0  0  0
  -26.9409  -27.7170   23.9063 C   0  0  0  0  0  0  0  0  0  0  0  0
  -28.4783  -20.7810   21.3713 C   0  0  0  0  0  0  0  0  0  0  0  0
  -30.6338  -19.1311   20.7275 C   0  0  0  0  0  0  0  0  0  0  0  0
  -21.0711   -4.8759   23.3749 C   0  0  0  0  0  0  0  0  0  0  0  0
  -24.6513  -10.7551   22.2524 C   0  0  0  0  0  0  0  0  0  0  0  0
  -24.2840  -12.9659   21.0338 C   0  0  0  0  0  0  0  0  0  0  0  0
  -18.2417  -28.7683   21.3909 C   0  0  0  0  0  0  0  0  0  0  0  0
  -24.6930  -27.9053   24.7846 C   0  0  0  0  0  0  0  0  0  0  0  0
  -19.4795  -28.1444   21.6379 C   0  0  0  0  0  0  0  0  0  0  0  0
  -25.7773  -28.4762   24.1030 C   0  0  0  0  0  0  0  0  0  0  0  0
  -29.7816  -21.2701   21.4595 C   0  0  0  0  0  0  0  0  0  0  0  0
  -29.3305  -18.6420   20.6393 C   0  0  0  0  0  0  0  0  0  0  0  0
  -23.8250   -8.5547   23.7550 C   0  0  0  0  0  0  0  0  0  0  0  0
  -27.0296  -26.4126   24.3919 C   0  0  0  0  0  0  0  0  0  0  0  0
  -22.2450   -6.8530   24.1163 C   0  0  0  0  0  0  0  0  0  0  0  0
  -19.8727   -5.5897   23.3689 C   0  0  0  0  0  0  0  0  0  0  0  0
  -28.2527  -19.4669   20.9613 C   0  0  0  0  0  0  0  0  0  0  0  0
  -30.8594  -20.4452   21.1376 C   0  0  0  0  0  0  0  0  0  0  0  0
  -22.2573   -5.5076   23.7486 C   0  0  0  0  0  0  0  0  0  0  0  0
  -25.0788  -11.8918   21.4769 C   0  0  0  0  0  0  0  0  0  0  0  0
  -25.1539  -13.7754   20.3450 C   0  0  0  0  0  0  0  0  0  0  0  0
  -30.9714  -24.5596   22.4546 C   0  0  0  0  0  0  0  0  0  0  0  0
  -29.6577  -24.7551   22.5869 C   0  0  0  0  0  0  0  0  0  0  0  0
  -28.9906  -23.4854   22.2139 C   0  0  0  0  0  0  0  0  0  0  0  0
  -22.8845  -13.2102   21.2275 C   0  0  0  0  0  0  0  0  0  0  0  0
  -22.8071  -29.3644   22.6828 C   0  0  0  0  0  0  0  0  0  0  0  0
  -24.3805  -32.0135   23.6972 C   0  0  0  0  0  0  0  0  0  0  0  0
  -27.1767  -33.3549   25.1216 C   0  0  0  0  0  0  0  0  0  0  0  0
  -30.0635  -16.3584   19.8684 C   0  0  0  0  0  0  0  0  0  0  0  0
  -18.1530  -30.1194   20.7264 C   0  0  0  0  0  0  0  0  0  0  0  0
  -23.4426  -28.7039   25.0313 C   0  0  0  0  0  0  0  0  0  0  0  0
  -25.7253  -29.8828   23.5670 C   0  0  0  0  0  0  0  0  0  0  0  0
  -31.3103  -23.1884   21.9954 C   0  0  0  0  0  0  0  0  0  0  0  0
  -19.4632  -30.9019   20.7601 C   0  0  0  0  0  0  0  0  0  0  0  0
  -29.9124  -12.9575   18.8253 C   0  0  0  0  0  0  0  0  0  0  0  0
  -20.6299  -30.0075   20.3529 C   0  0  0  0  0  0  0  0  0  0  0  0
  -28.5760  -12.4654   19.3857 C   0  0  0  0  0  0  0  0  0  0  0  0
  -30.6013  -13.9341   19.7768 C   0  0  0  0  0  0  0  0  0  0  0  0
  -28.4390  -14.5779   20.7662 C   0  0  0  0  0  0  0  0  0  0  0  0
  -20.7904  -28.8331   21.3258 C   0  0  1  0  0  0  0  0  0  0  0  0
  -23.2550  -29.8435   24.0346 C   0  0  1  0  0  0  0  0  0  0  0  0
  -27.6770  -13.6419   19.8138 C   0  0  2  0  0  0  0  0  0  0  0  0
  -28.1879  -35.5535   25.7859 C   0  0  0  0  0  0  0  0  0  0  0  0
  -25.0252  -32.5979   20.7726 C   0  0  0  0  0  0  0  0  0  0  0  0
  -26.7805  -34.2036   21.5528 C   0  0  0  0  0  0  0  0  0  0  0  0
  -24.3848  -34.6045   22.1209 C   0  0  0  0  0  0  0  0  0  0  0  0
  -27.2984  -32.5695   27.9725 C   0  0  0  0  0  0  0  0  0  0  0  0
  -28.9185  -25.9696   23.0166 C   0  0  0  0  0  0  0  0  0  1  0  0
  -25.6370  -32.7372   23.2771 C   0  0  1  0  0  0  0  0  0  0  0  0
  -27.3511  -34.3673   26.2393 C   0  0  2  0  0  0  0  0  0  0  0  0
  -25.4575  -33.5086   21.9391 C   0  0  0  0  0  0  0  0  0  0  0  0
  -26.3554  -12.0055   21.1011 N   0  0  0  0  0  0  0  0  0  0  0  0
  -26.3694  -13.1607   20.4144 N   0  0  0  0  0  0  0  0  0  0  0  0
  -30.0032  -22.5793   21.8688 N   0  0  0  0  0  0  0  0  0  0  0  0
  -24.4786  -30.6210   23.8282 N   0  0  0  0  0  0  0  0  0  0  0  0
  -29.6912  -15.0240   20.1355 N   0  0  0  0  0  0  0  0  0  0  0  0
  -24.9900  -14.9459   19.6926 N   0  0  0  0  0  0  0  0  0  0  0  0
  -22.1385  -12.2767   21.9598 N   0  0  0  0  0  0  0  0  0  0  0  0
  -29.1044  -17.3066   20.2230 N   0  0  0  0  0  0  0  0  0  0  0  0
  -21.4353  -29.2713   22.5450 N   0  0  0  0  0  0  0  0  0  0  0  0
  -26.0199  -33.5790   24.4054 N   0  0  0  0  0  0  0  0  0  0  0  0
  -28.0251  -33.7364   27.4091 N   0  3  0  0  0  0  0  0  0  0  0  0
  -27.7822  -23.3132   22.2225 O   0  0  0  0  0  0  0  0  0  0  0  0
  -22.3092  -14.2178   20.7509 O   0  0  0  0  0  0  0  0  0  0  0  0
  -23.6440  -29.1003   21.8275 O   0  0  0  0  0  0  0  0  0  0  0  0
  -23.3519  -32.6607   23.9084 O   0  0  0  0  0  0  0  0  0  0  0  0
  -27.9876  -32.4575   24.9033 O   0  0  0  0  0  0  0  0  0  0  0  0
  -31.1415  -16.6375   19.3374 O   0  0  0  0  0  0  0  0  0  0  0  0
  -23.4217   -7.4813   24.4884 O   0  0  0  0  0  0  0  0  0  0  0  0
  -28.1649  -25.6885   24.1953 O   0  0  0  0  0  0  0  0  0  1  0  0
  -18.7334   -4.9828   23.0115 F   0  0  0  0  0  0  0  0  0  0  0  0
  -26.9957  -19.0077   20.8798 F   0  0  0  0  0  0  0  0  0  0  0  0
  -32.1162  -20.9049   21.2180 F   0  0  0  0  0  0  0  0  0  0  0  0
  -23.4053   -4.8163   23.7535 F   0  0  0  0  0  0  0  0  0  0  0  0
  1  2  1  0  0  0  0
  1  5  2  0  0  0  0
  2  6  2  0  0  0  0
  3  8  2  0  0  0  0
  3 17  1  0  0  0  0
  4  9  1  0  0  0  0
  4 17  2  0  0  0  0
  5 19  1  0  0  0  0
  6 21  1  0  0  0  0
  7 10  2  0  0  0  0
  7 20  1  0  0  0  0
  8 25  1  0  0  0  0
  9 25  2  0  0  0  0
 10 26  1  0  0  0  0
 11 12  2  0  0  0  0
 11 27  1  0  0  0  0
 12 28  1  0  0  0  0
 13 22  1  0  0  0  0
 13 26  2  0  0  0  0
 14 23  1  0  0  0  0
 14 29  2  0  0  0  0
 15 24  2  0  0  0  0
 15 30  1  0  0  0  0
 16 28  2  0  0  0  0
 16 31  1  0  0  0  0
 17 32  1  0  0  0  0
 18 32  1  0  0  0  0
 18 33  2  0  0  0  0
 18 37  1  0  0  0  0
 19 21  2  0  0  0  0
 19 42  1  0  0  0  0
 20 22  2  0  0  0  0
 20 43  1  0  0  0  0
 21 52  1  0  0  0  0
 22 44  1  0  0  0  0
 23 30  2  0  0  0  0
 23 66  1  0  0  0  0
 24 29  1  0  0  0  0
 24 71  1  0  0  0  0
 25 81  1  0  0  0  0
 26 82  1  0  0  0  0
 27 31  2  0  0  0  0
 27 81  1  0  0  0  0
 28 83  1  0  0  0  0
 29 84  1  0  0  0  0
 30 85  1  0  0  0  0
 31 86  1  0  0  0  0
 32 64  2  0  0  0  0
 33 65  1  0  0  0  0
 33 69  1  0  0  0  0
 34 35  2  0  0  0  0
 34 45  1  0  0  0  0
 35 36  1  0  0  0  0
 35 60  1  0  0  0  0
 36 66  1  0  0  0  0
 36 75  2  0  0  0  0
 37 70  1  0  0  0  0
 37 76  2  0  0  0  0
 38 53  1  0  0  0  0
 38 72  1  0  0  0  0
 38 77  2  0  0  0  0
 39 61  1  0  0  0  0
 39 67  1  0  0  0  0
 39 78  2  0  0  0  0
 40 62  1  0  0  0  0
 40 73  1  0  0  0  0
 40 79  2  0  0  0  0
 41 68  1  0  0  0  0
 41 71  1  0  0  0  0
 41 80  2  0  0  0  0
 42 46  1  0  0  0  0
 43 53  1  0  0  0  0
 44 67  1  0  0  0  0
 45 66  1  0  0  0  0
 46 48  1  0  0  0  0
 47 49  1  0  0  0  0
 47 50  1  0  0  0  0
 48 52  1  0  0  0  0
 49 54  1  0  0  0  0
 50 68  1  0  0  0  0
 51 54  1  0  0  0  0
 51 68  1  0  0  0  0
 52 72  1  0  0  0  0
 53 67  1  0  0  0  0
 54 65  1  0  0  0  0
 55 62  1  0  0  0  0
 56 63  1  0  0  0  0
 57 63  1  0  0  0  0
 58 63  1  0  0  0  0
 59 74  1  0  0  0  0
 60 82  1  0  0  0  0
 61 63  1  0  0  0  0
 61 73  1  0  0  0  0
 62 74  1  0  0  0  0
 64 65  1  0  0  0  0
M  CHG  1  74   1
M  ISO  4  41 100  60 101  71 100  82 101
M  END
> <Batch ID>
0075

> <Smiles>
CNC(C)C(=O)NC(C(=O)N1Cc2cc([101O:1][101CH2:1]C3=CCN(c4cc(F)c([100NH:0][100C:0](=O)N5CCCC(n6nc(-c7ccc(Oc8ccc(F)cc8F)cc7)c(C(N)=O)c6N)C5)cc4F)C3=O)ccc2CC1C(=O)NC1CCCc2ccccc21)C(C)(C)C

> <Shape>
0.300

> <Color>
0.155

> <Negative vol penalty>
0.000

$$$$

  -OEChem-04042323473D

 86 95  0     1  0  0  0  0  0999 V2000
  -24.5447  -31.7052   20.3728 C   0  0  0  0  0  0  0  0  0  0  0  0
  -24.6469  -30.5235   19.6458 C   0  0  0  0  0  0  0  0  0  0  0  0
  -28.8973  -21.0878   20.1505 C   0  0  0  0  0  0  0  0  0  0  0  0
  -31.0570  -20.5262   19.2245 C   0  0  0  0  0  0  0  0  0  0  0  0
  -24.7525  -31.6945   21.7514 C   0  0  0  0  0  0  0  0  0  0  0  0
  -24.9581  -29.3304   20.2970 C   0  0  0  0  0  0  0  0  0  0  0  0
  -23.6600  -22.2927   19.9774 C   0  0  0  0  0  0  0  0  0  0  0  0
  -28.8982  -22.2814   19.4288 C   0  0  0  0  0  0  0  0  0  0  0  0
  -31.0579  -21.7198   18.5028 C   0  0  0  0  0  0  0  0  0  0  0  0
  -24.3352  -21.0733   19.9453 C   0  0  0  0  0  0  0  0  0  0  0  0
  -30.3037  -25.3447   19.6839 C   0  0  0  0  0  0  0  0  0  0  0  0
  -29.9157  -26.5057   20.3525 C   0  0  0  0  0  0  0  0  0  0  0  0
  -24.5952  -21.1610   22.3420 C   0  0  0  0  0  0  0  0  0  0  0  0
  -23.7313  -10.7484   22.2490 C   0  0  0  0  0  0  0  0  0  0  0  0
  -26.0548  -10.9318   21.6128 C   0  0  0  0  0  0  0  0  0  0  0  0
  -28.1076  -26.8078   18.7788 C   0  0  0  0  0  0  0  0  0  0  0  0
  -29.9767  -20.2102   20.0484 C   0  0  0  0  0  0  0  0  0  0  0  0
  -29.9109  -18.8296   22.1926 C   0  0  0  0  0  0  0  0  0  0  0  0
  -25.0569  -30.4989   22.4212 C   0  0  0  0  0  0  0  0  0  0  0  0
  -23.4566  -22.9619   21.1928 C   0  0  0  0  0  0  0  0  0  0  0  0
  -25.1715  -29.3038   21.6857 C   0  0  0  0  0  0  0  0  0  0  0  0
  -23.9149  -22.3875   22.3871 C   0  0  0  0  0  0  0  0  0  0  0  0
  -24.5933  -12.8453   21.4144 C   0  0  0  0  0  0  0  0  0  0  0  0
  -23.5315  -12.0852   21.9047 C   0  0  0  0  0  0  0  0  0  0  0  0
  -25.8550  -12.2687   21.2684 C   0  0  0  0  0  0  0  0  0  0  0  0
  -29.9784  -22.5974   18.6049 C   0  0  0  0  0  0  0  0  0  0  0  0
  -24.8054  -20.5087   21.1274 C   0  0  0  0  0  0  0  0  0  0  0  0
  -29.5936  -24.9152   18.5626 C   0  0  0  0  0  0  0  0  0  0  0  0
  -28.8177  -27.2373   19.9000 C   0  0  0  0  0  0  0  0  0  0  0  0
  -24.9930  -10.1717   22.1031 C   0  0  0  0  0  0  0  0  0  0  0  0
  -28.4956  -25.6468   18.1102 C   0  0  0  0  0  0  0  0  0  0  0  0
  -29.9766  -18.9773   20.7941 C   0  0  0  0  0  0  0  0  0  0  0  0
  -29.9417  -17.4717   22.3963 C   0  0  0  0  0  0  0  0  0  0  0  0
  -29.8292  -19.8305   23.2159 C   0  0  0  0  0  0  0  0  0  0  0  0
  -24.3510  -25.7696   22.3847 C   0  0  0  0  0  0  0  0  0  0  0  0
  -22.4055  -24.9101   24.8339 C   0  0  0  0  0  0  0  0  0  0  0  0
  -20.8812  -22.4063   26.5816 C   0  0  0  0  0  0  0  0  0  0  0  0
  -28.0404  -12.5495   20.0473 C   0  0  0  0  0  0  0  0  0  0  0  0
  -25.3195  -30.5451   23.9056 C   0  0  0  0  0  0  0  0  0  0  0  0
  -22.7030  -24.2634   21.2136 C   0  0  0  0  0  0  0  0  0  0  0  0
  -23.7044  -23.0558   23.7203 C   0  0  0  0  0  0  0  0  0  0  0  0
  -25.2765  -29.1738   24.5748 C   0  0  0  0  0  0  0  0  0  0  0  0
  -31.4335  -13.5805   19.7285 C   0  0  0  0  0  0  0  0  0  0  0  0
  -26.0754  -28.1586   23.7635 C   0  0  0  0  0  0  0  0  0  0  0  0
  -24.6450  -15.2267   22.2267 C   0  0  0  0  0  0  0  0  0  0  0  0
  -24.4938  -16.6867   21.8078 C   0  0  0  0  0  0  0  0  0  0  0  0
  -31.3990  -15.0629   20.1073 C   0  0  0  0  0  0  0  0  0  0  0  0
  -30.1850  -13.1643   18.9527 C   0  0  0  0  0  0  0  0  0  0  0  0
  -28.8763  -14.9810   19.9803 C   0  0  0  0  0  0  0  0  0  0  0  0
  -25.0271  -15.9557   19.4666 C   0  0  0  0  0  0  0  0  0  0  0  0
  -25.4828  -27.9852   22.3598 C   0  0  1  0  0  0  0  0  0  0  0  0
  -24.3753  -14.2949   21.0395 C   0  0  1  0  0  0  0  0  0  0  0  0
  -23.0034  -25.1081   22.4479 C   0  0  1  0  0  0  0  0  0  0  0  0
  -25.3363  -16.9793   20.5614 C   0  0  1  0  0  0  0  0  0  0  0  0
  -30.0829  -15.4322   20.8194 C   0  0  2  0  0  0  0  0  0  0  0  0
  -19.3838  -22.0112   28.5562 C   0  0  0  0  0  0  0  0  0  0  0  0
  -24.7531  -25.4241   26.7140 C   0  0  0  0  0  0  0  0  0  0  0  0
  -23.5315  -24.1354   28.4790 C   0  0  0  0  0  0  0  0  0  0  0  0
  -22.5428  -26.2330   27.5596 C   0  0  0  0  0  0  0  0  0  0  0  0
  -18.7906  -21.1644   24.8946 C   0  0  0  0  0  0  0  0  0  0  0  0
  -25.1082  -18.4028   20.0646 C   0  0  0  0  0  0  0  0  0  1  0  0
  -22.5853  -24.1507   26.1262 C   0  0  1  0  0  0  0  0  0  0  0  0
  -19.4486  -22.2348   27.0534 C   0  0  2  0  0  0  0  0  0  0  0  0
  -23.3590  -24.9739   27.1945 C   0  0  0  0  0  0  0  0  0  0  0  0
  -30.0443  -17.8066   20.1546 N   0  0  0  0  0  0  0  0  0  0  0  0
  -30.0213  -16.9104   21.1558 N   0  0  0  0  0  0  0  0  0  0  0  0
  -22.9674  -24.3299   23.6878 N   0  0  0  0  0  0  0  0  0  0  0  0
  -28.9773  -13.5422   19.6899 N   0  0  0  0  0  0  0  0  0  0  0  0
  -22.2461  -12.6503   22.0598 N   0  0  0  0  0  0  0  0  0  0  0  0
  -29.9083  -16.7149   23.5137 N   0  0  0  0  0  0  0  0  0  0  0  0
  -28.5612  -20.2596   23.6311 N   0  0  0  0  0  0  0  0  0  0  0  0
  -26.9484  -13.0223   20.7742 N   0  0  0  0  0  0  0  0  0  0  0  0
  -24.3018  -27.1503   22.4094 N   0  0  0  0  0  0  0  0  0  0  0  0
  -21.2510  -23.7341   26.5439 N   0  0  0  0  0  0  0  0  0  0  0  0
  -18.8167  -21.0669   26.3768 N   0  3  0  0  0  0  0  0  0  0  0  0
  -30.8506  -20.3413   23.7350 O   0  0  0  0  0  0  0  0  0  0  0  0
  -25.3608  -25.0784   22.3199 O   0  0  0  0  0  0  0  0  0  0  0  0
  -21.7831  -25.9750   24.8398 O   0  0  0  0  0  0  0  0  0  0  0  0
  -21.6015  -21.4571   26.2806 O   0  0  0  0  0  0  0  0  0  0  0  0
  -28.2091  -11.3628   19.7552 O   0  0  0  0  0  0  0  0  0  0  0  0
  -25.2356  -14.6252   19.9420 O   0  0  0  0  0  0  0  0  0  0  0  0
  -29.9795  -23.7619   17.9004 O   0  0  0  0  0  0  0  0  0  0  0  0
  -25.4653  -19.3189   21.0988 O   0  0  0  0  0  0  0  0  0  1  0  0
  -28.4443  -28.3514   20.5431 F   0  0  0  0  0  0  0  0  0  0  0  0
  -25.1848   -8.8881   22.4343 F   0  0  0  0  0  0  0  0  0  0  0  0
  -27.8088  -25.2385   17.0343 F   0  0  0  0  0  0  0  0  0  0  0  0
  1  2  1  0  0  0  0
  1  5  2  0  0  0  0
  2  6  2  0  0  0  0
  3  8  2  0  0  0  0
  3 17  1  0  0  0  0
  4  9  1  0  0  0  0
  4 17  2  0  0  0  0
  5 19  1  0  0  0  0
  6 21  1  0  0  0  0
  7 10  2  0  0  0  0
  7 20  1  0  0  0  0
  8 26  1  0  0  0  0
  9 26  2  0  0  0  0
 10 27  1  0  0  0  0
 11 12  2  0  0  0  0
 11 28  1  0  0  0  0
 12 29  1  0  0  0  0
 13 22  1  0  0  0  0
 13 27  2  0  0  0  0
 14 24  2  0  0  0  0
 14 30  1  0  0  0  0
 15 25  1  0  0  0  0
 15 30  2  0  0  0  0
 16 29  2  0  0  0  0
 16 31  1  0  0  0  0
 17 32  1  0  0  0  0
 18 32  1  0  0  0  0
 18 33  2  0  0  0  0
 18 34  1  0  0  0  0
 19 21  2  0  0  0  0
 19 39  1  0  0  0  0
 20 22  2  0  0  0  0
 20 40  1  0  0  0  0
 21 51  1  0  0  0  0
 22 41  1  0  0  0  0
 23 24  1  0  0  0  0
 23 25  2  0  0  0  0
 23 52  1  0  0  0  0
 24 69  1  0  0  0  0
 25 72  1  0  0  0  0
 26 82  1  0  0  0  0
 27 83  1  0  0  0  0
 28 31  2  0  0  0  0
 28 82  1  0  0  0  0
 29 84  1  0  0  0  0
 30 85  1  0  0  0  0
 31 86  1  0  0  0  0
 32 65  2  0  0  0  0
 33 66  1  0  0  0  0
 33 70  1  0  0  0  0
 34 71  1  0  0  0  0
 34 76  2  0  0  0  0
 35 53  1  0  0  0  0
 35 73  1  0  0  0  0
 35 77  2  0  0  0  0
 36 62  1  0  0  0  0
 36 67  1  0  0  0  0
 36 78  2  0  0  0  0
 37 63  1  0  0  0  0
 37 74  1  0  0  0  0
 37 79  2  0  0  0  0
 38 68  1  0  0  0  0
 38 72  1  0  0  0  0
 38 80  2  0  0  0  0
 39 42  1  0  0  0  0
 40 53  1  0  0  0  0
 41 67  1  0  0  0  0
 42 44  1  0  0  0  0
 43 47  1  0  0  0  0
 43 48  1  0  0  0  0
 44 51  1  0  0  0  0
 45 46  1  0  0  0  0
 45 52  1  0  0  0  0
 46 54  1  0  0  0  0
 47 55  1  0  0  0  0
 48 68  1  0  0  0  0
 49 55  1  0  0  0  0
 49 68  1  0  0  0  0
 50 54  1  0  0  0  0
 50 81  1  0  0  0  0
 51 73  1  0  0  0  0
 52 81  1  0  0  0  0
 53 67  1  0  0  0  0
 54 61  1  0  0  0  0
 55 66  1  0  0  0  0
 56 63  1  0  0  0  0
 57 64  1  0  0  0  0
 58 64  1  0  0  0  0
 59 64  1  0  0  0  0
 60 75  1  0  0  0  0
 61 83  1  0  0  0  0
 62 64  1  0  0  0  0
 62 74  1  0  0  0  0
 63 75  1  0  0  0  0
 65 66  1  0  0  0  0
M  CHG  1  75   1
M  ISO  4  38 100  61 101  72 100  83 101
M  END
> <Batch ID>
0075

> <Smiles>
CNC(C)C(=O)NC(C(=O)N1Cc2cc([101O:1][101CH2:1]C3CCC(c4c(N)cc(F)cc4[100NH:0][100C:0](=O)N4CCCC(n5nc(-c6ccc(Oc7ccc(F)cc7F)cc6)c(C(N)=O)c5N)C4)OC3)ccc2CC1C(=O)NC1CCCc2ccccc21)C(C)(C)C

> <Shape>
0.240

> <Color>
0.063

> <Negative vol penalty>
0.000

$$$$

  -OEChem-04042323473D

 89 98  0     1  0  0  0  0  0999 V2000
  -19.1345  -24.8486   15.3247 C   0  0  0  0  0  0  0  0  0  0  0  0
  -20.4021  -24.6603   15.8661 C   0  0  0  0  0  0  0  0  0  0  0  0
  -22.6251  -10.2261   20.2064 C   0  0  0  0  0  0  0  0  0  0  0  0
  -24.3463   -9.3182   21.6382 C   0  0  0  0  0  0  0  0  0  0  0  0
  -29.3059  -17.2481   20.6655 C   0  0  0  0  0  0  0  0  0  0  0  0
  -18.6542  -26.1397   15.1099 C   0  0  0  0  0  0  0  0  0  0  0  0
  -21.1907  -25.7633   16.1920 C   0  0  0  0  0  0  0  0  0  0  0  0
  -23.4125  -25.2933   20.7183 C   0  0  0  0  0  0  0  0  0  0  0  0
  -29.1361  -18.6240   20.5117 C   0  0  0  0  0  0  0  0  0  0  0  0
  -21.8829   -9.0546   20.3558 C   0  0  0  0  0  0  0  0  0  0  0  0
  -23.6041   -8.1467   21.7877 C   0  0  0  0  0  0  0  0  0  0  0  0
  -24.5389  -24.4751   20.7928 C   0  0  0  0  0  0  0  0  0  0  0  0
  -20.9364   -7.1017   23.5799 C   0  0  0  0  0  0  0  0  0  0  0  0
  -20.8144   -6.5731   24.8649 C   0  0  0  0  0  0  0  0  0  0  0  0
  -25.9545  -26.4267   20.7128 C   0  0  0  0  0  0  0  0  0  0  0  0
  -30.6473  -19.0165   22.3554 C   0  0  0  0  0  0  0  0  0  0  0  0
  -21.8740   -4.5315   24.1256 C   0  0  0  0  0  0  0  0  0  0  0  0
  -23.8569  -10.3579   20.8476 C   0  0  0  0  0  0  0  0  0  0  0  0
  -30.1464  -16.7564   21.6643 C   0  0  0  0  0  0  0  0  0  0  0  0
  -24.2331  -12.8733   21.0451 C   0  0  0  0  0  0  0  0  0  0  0  0
  -19.4334  -27.2591   15.4423 C   0  0  0  0  0  0  0  0  0  0  0  0
  -23.5491  -26.6861   20.6294 C   0  0  0  0  0  0  0  0  0  0  0  0
  -20.7208  -27.0706   15.9803 C   0  0  0  0  0  0  0  0  0  0  0  0
  -24.8282  -27.2606   20.6399 C   0  0  0  0  0  0  0  0  0  0  0  0
  -30.8171  -17.6406   22.5092 C   0  0  0  0  0  0  0  0  0  0  0  0
  -29.8068  -19.5082   21.3567 C   0  0  0  0  0  0  0  0  0  0  0  0
  -22.3724   -8.0149   21.1464 C   0  0  0  0  0  0  0  0  0  0  0  0
  -25.8102  -25.0416   20.7871 C   0  0  0  0  0  0  0  0  0  0  0  0
  -21.5271   -6.3452   22.5677 C   0  0  0  0  0  0  0  0  0  0  0  0
  -21.2832   -5.2880   25.1378 C   0  0  0  0  0  0  0  0  0  0  0  0
  -21.9959   -5.0602   22.8406 C   0  0  0  0  0  0  0  0  0  0  0  0
  -24.6243  -11.5675   20.6932 C   0  0  0  0  0  0  0  0  0  0  0  0
  -25.3064  -13.6579   20.7004 C   0  0  0  0  0  0  0  0  0  0  0  0
  -29.3561  -21.5165   19.9845 C   0  0  0  0  0  0  0  0  0  0  0  0
  -29.2039  -22.8377   19.7964 C   0  0  0  0  0  0  0  0  0  0  0  0
  -30.3060  -15.3150   21.8021 C   0  0  0  0  0  0  0  0  0  0  0  0
  -23.0089  -13.3355   21.6312 C   0  0  0  0  0  0  0  0  0  0  0  0
  -30.8379  -14.4903   20.6930 C   0  0  0  0  0  0  0  0  0  0  0  0
  -22.7516  -28.8853   18.4774 C   0  0  0  0  0  0  0  0  0  0  0  0
  -23.7862  -30.9385   20.7657 C   0  0  0  0  0  0  0  0  0  0  0  0
  -25.7359  -31.4677   23.5163 C   0  0  0  0  0  0  0  0  0  0  0  0
  -18.8903  -28.6350   15.1480 C   0  0  0  0  0  0  0  0  0  0  0  0
  -22.3235  -27.5564   20.5767 C   0  0  0  0  0  0  0  0  0  0  0  0
  -25.0284  -28.7515   20.5666 C   0  0  0  0  0  0  0  0  0  0  0  0
  -19.6397  -29.7527   15.8687 C   0  0  0  0  0  0  0  0  0  0  0  0
  -29.4325  -12.6049   17.9862 C   0  0  0  0  0  0  0  0  0  0  0  0
  -21.1466  -29.5609   15.7297 C   0  0  0  0  0  0  0  0  0  0  0  0
  -28.0381  -12.2416   18.4955 C   0  0  0  0  0  0  0  0  0  0  0  0
  -29.0893  -23.0608   22.2933 C   0  0  0  0  0  0  0  0  0  0  0  0
  -30.4515  -12.6336   19.1208 C   0  0  0  0  0  0  0  0  0  0  0  0
  -29.8884  -21.7527   22.3832 C   0  0  0  0  0  0  0  0  0  0  0  0
  -28.6753  -13.1789   20.7629 C   0  0  0  0  0  0  0  0  0  0  0  0
  -21.5962  -28.2419   16.3698 C   0  0  1  0  0  0  0  0  0  0  0  0
  -22.5922  -28.9305   19.9708 C   0  0  1  0  0  0  0  0  0  0  0  0
  -27.6133  -13.1671   19.6495 C   0  0  2  0  0  0  0  0  0  0  0  0
  -29.2831  -23.8190   20.9528 C   0  0  1  0  0  0  0  0  0  0  0  0
  -31.7237  -17.1405   23.5863 C   0  0  0  0  0  0  0  0  0  0  0  0
  -30.6575  -24.5124   20.9282 C   0  0  0  0  0  0  0  0  0  0  0  0
  -26.4028  -33.2582   25.1431 C   0  0  0  0  0  0  0  0  0  0  0  0
  -25.6166  -32.1690   18.6573 C   0  0  0  0  0  0  0  0  0  0  0  0
  -26.8999  -33.2609   20.5091 C   0  0  0  0  0  0  0  0  0  0  0  0
  -24.4952  -33.8243   20.1595 C   0  0  0  0  0  0  0  0  0  0  0  0
  -24.6279  -29.9593   25.8089 C   0  0  0  0  0  0  0  0  0  0  0  0
  -30.0282  -23.1111   17.6473 C   0  0  0  0  0  0  0  0  0  0  0  0
  -28.1829  -24.8926   20.8486 C   0  0  0  0  0  0  0  0  0  1  0  0
  -25.1129  -31.5674   21.1170 C   0  0  1  0  0  0  0  0  0  0  0  0
  -25.4355  -32.1211   24.8532 C   0  0  2  0  0  0  0  0  0  0  0  0
  -25.5278  -32.6772   20.1102 C   0  0  0  0  0  0  0  0  0  0  0  0
  -25.8504  -11.5213   20.1653 N   0  0  0  0  0  0  0  0  0  0  0  0
  -30.0000  -14.6633   22.8899 N   0  0  0  0  0  0  0  0  0  0  0  0
  -26.2388  -12.8077   20.1829 N   0  0  0  0  0  0  0  0  0  0  0  0
  -29.6322  -20.9090   21.2010 N   0  0  0  0  0  0  0  0  0  0  0  0
  -30.0008  -13.4921   20.2144 N   0  0  0  0  0  0  0  0  0  0  0  0
  -23.7993  -29.5599   20.5102 N   0  0  0  0  0  0  0  0  0  0  0  0
  -25.5340  -14.9854   20.7925 N   0  0  0  0  0  0  0  0  0  0  0  0
  -22.9165  -13.3911   23.0286 N   0  0  0  0  0  0  0  0  0  0  0  0
  -21.6554  -28.3733   17.8098 N   0  0  0  0  0  0  0  0  0  0  0  0
  -24.9944  -32.0264   22.4968 N   0  0  0  0  0  0  0  0  0  0  0  0
  -25.5417  -31.1217   25.9536 N   0  3  0  0  0  0  0  0  0  0  0  0
  -22.0205  -13.6732   20.9366 O   0  0  0  0  0  0  0  0  0  0  0  0
  -31.9660  -14.7788   20.3153 O   0  0  0  0  0  0  0  0  0  0  0  0
  -23.7916  -29.2866   17.9684 O   0  0  0  0  0  0  0  0  0  0  0  0
  -22.7744  -31.6430   20.7266 O   0  0  0  0  0  0  0  0  0  0  0  0
  -26.5497  -30.5557   23.3885 O   0  0  0  0  0  0  0  0  0  0  0  0
  -21.6483   -6.8717   21.2926 O   0  0  0  0  0  0  0  0  0  0  0  0
  -26.9113  -24.2452   20.8591 O   0  0  0  0  0  0  0  0  0  1  0  0
  -28.9834  -23.3841   18.5480 O   0  0  0  0  0  0  0  0  0  0  0  0
  -21.1673   -4.7811   26.3722 F   0  0  0  0  0  0  0  0  0  0  0  0
  -22.5654   -4.3291   21.8726 F   0  0  0  0  0  0  0  0  0  0  0  0
  1  2  1  0  0  0  0
  1  6  2  0  0  0  0
  2  7  2  0  0  0  0
  3 10  2  0  0  0  0
  3 18  1  0  0  0  0
  4 11  1  0  0  0  0
  4 18  2  0  0  0  0
  5  9  2  0  0  0  0
  5 19  1  0  0  0  0
  6 21  1  0  0  0  0
  7 23  1  0  0  0  0
  8 12  2  0  0  0  0
  8 22  1  0  0  0  0
  9 26  1  0  0  0  0
 10 27  1  0  0  0  0
 11 27  2  0  0  0  0
 12 28  1  0  0  0  0
 13 14  2  0  0  0  0
 13 29  1  0  0  0  0
 14 30  1  0  0  0  0
 15 24  1  0  0  0  0
 15 28  2  0  0  0  0
 16 25  1  0  0  0  0
 16 26  2  0  0  0  0
 17 30  2  0  0  0  0
 17 31  1  0  0  0  0
 18 32  1  0  0  0  0
 19 25  2  0  0  0  0
 19 36  1  0  0  0  0
 20 32  1  0  0  0  0
 20 33  2  0  0  0  0
 20 37  1  0  0  0  0
 21 23  2  0  0  0  0
 21 42  1  0  0  0  0
 22 24  2  0  0  0  0
 22 43  1  0  0  0  0
 23 53  1  0  0  0  0
 24 44  1  0  0  0  0
 25 57  1  0  0  0  0
 26 72  1  0  0  0  0
 27 85  1  0  0  0  0
 28 86  1  0  0  0  0
 29 31  2  0  0  0  0
 29 85  1  0  0  0  0
 30 88  1  0  0  0  0
 31 89  1  0  0  0  0
 32 69  2  0  0  0  0
 33 71  1  0  0  0  0
 33 75  1  0  0  0  0
 34 35  2  0  0  0  0
 34 72  1  0  0  0  0
 35 56  1  0  0  0  0
 35 87  1  0  0  0  0
 36 38  1  0  0  0  0
 36 70  2  0  0  0  0
 37 76  1  0  0  0  0
 37 80  2  0  0  0  0
 38 73  1  0  0  0  0
 38 81  2  0  0  0  0
 39 54  1  0  0  0  0
 39 77  1  0  0  0  0
 39 82  2  0  0  0  0
 40 66  1  0  0  0  0
 40 74  1  0  0  0  0
 40 83  2  0  0  0  0
 41 67  1  0  0  0  0
 41 78  1  0  0  0  0
 41 84  2  0  0  0  0
 42 45  1  0  0  0  0
 43 54  1  0  0  0  0
 44 74  1  0  0  0  0
 45 47  1  0  0  0  0
 46 48  1  0  0  0  0
 46 50  1  0  0  0  0
 47 53  1  0  0  0  0
 48 55  1  0  0  0  0
 49 51  1  0  0  0  0
 49 56  1  0  0  0  0
 50 73  1  0  0  0  0
 51 72  1  0  0  0  0
 52 55  1  0  0  0  0
 52 73  1  0  0  0  0
 53 77  1  0  0  0  0
 54 74  1  0  0  0  0
 55 71  1  0  0  0  0
 56 58  1  0  0  0  0
 56 65  1  0  0  0  0
 59 67  1  0  0  0  0
 60 68  1  0  0  0  0
 61 68  1  0  0  0  0
 62 68  1  0  0  0  0
 63 79  1  0  0  0  0
 64 87  1  0  0  0  0
 65 86  1  0  0  0  0
 66 68  1  0  0  0  0
 66 78  1  0  0  0  0
 67 79  1  0  0  0  0
 69 71  1  0  0  0  0
M  CHG  1  79   1
M  ISO  4  36 100  38 100  65 101  86 101
M  END
> <Batch ID>
0075

> <Smiles>
CNC(C)C(=O)NC(C(=O)N1Cc2cc([101O:1][101CH2:1]C3(C)CCN(c4ccc([100C:0](=N)[100C:0](=O)N5CCCC(n6nc(-c7ccc(Oc8ccc(F)cc8F)cc7)c(C(N)=O)c6N)C5)c(C)c4)C=C3OC)ccc2CC1C(=O)NC1CCCc2ccccc21)C(C)(C)C

> <Shape>
0.374

> <Color>
0.189

> <Negative vol penalty>
0.000

$$$$

  -OEChem-04042323473D

 87 96  0     1  0  0  0  0  0999 V2000
  -24.1244  -11.4045   20.4702 C   0  0  0  0  0  0  0  0  0  0  0  0
  -23.7390  -12.7231   20.6893 C   0  0  0  0  0  0  0  0  0  0  0  0
  -26.6240  -26.4708   17.7804 C   0  0  0  0  0  0  0  0  0  0  0  0
  -28.0394  -28.3589   17.2620 C   0  0  0  0  0  0  0  0  0  0  0  0
  -19.8850  -26.7150   21.4882 C   0  0  0  0  0  0  0  0  0  0  0  0
  -25.4619  -11.0375   20.6130 C   0  0  0  0  0  0  0  0  0  0  0  0
  -24.6907  -13.6754   21.0524 C   0  0  0  0  0  0  0  0  0  0  0  0
  -24.1760  -18.0122   18.4888 C   0  0  0  0  0  0  0  0  0  0  0  0
  -19.7943  -25.3293   21.3570 C   0  0  0  0  0  0  0  0  0  0  0  0
  -26.8795  -25.9329   16.5191 C   0  0  0  0  0  0  0  0  0  0  0  0
  -28.2950  -27.8209   16.0007 C   0  0  0  0  0  0  0  0  0  0  0  0
  -23.1634  -18.8782   18.8993 C   0  0  0  0  0  0  0  0  0  0  0  0
  -26.7200  -27.6100   13.0164 C   0  0  0  0  0  0  0  0  0  0  0  0
  -26.6593  -28.4706   11.9204 C   0  0  0  0  0  0  0  0  0  0  0  0
  -24.7890  -20.2049   20.0896 C   0  0  0  0  0  0  0  0  0  0  0  0
  -19.9276  -25.0933   23.7578 C   0  0  0  0  0  0  0  0  0  0  0  0
  -28.9712  -27.9867   11.4123 C   0  0  0  0  0  0  0  0  0  0  0  0
  -27.2039  -27.6839   18.1519 C   0  0  0  0  0  0  0  0  0  0  0  0
  -19.9970  -27.2899   22.7542 C   0  0  0  0  0  0  0  0  0  0  0  0
  -27.6696  -28.0184   20.6376 C   0  0  0  0  0  0  0  0  0  0  0  0
  -26.4321  -11.9877   20.9686 C   0  0  0  0  0  0  0  0  0  0  0  0
  -25.5033  -18.2303   18.8852 C   0  0  0  0  0  0  0  0  0  0  0  0
  -26.0422  -13.3205   21.2014 C   0  0  0  0  0  0  0  0  0  0  0  0
  -25.8169  -19.3417   19.6806 C   0  0  0  0  0  0  0  0  0  0  0  0
  -19.8156  -24.5184   22.4918 C   0  0  0  0  0  0  0  0  0  0  0  0
  -20.0183  -26.4790   23.8889 C   0  0  0  0  0  0  0  0  0  0  0  0
  -27.7150  -26.6079   15.6293 C   0  0  0  0  0  0  0  0  0  0  0  0
  -23.4694  -19.9731   19.7022 C   0  0  0  0  0  0  0  0  0  0  0  0
  -27.9063  -26.9378   13.3105 C   0  0  0  0  0  0  0  0  0  0  0  0
  -27.7848  -28.6589   11.1183 C   0  0  0  0  0  0  0  0  0  0  0  0
  -29.0319  -27.1261   12.5084 C   0  0  0  0  0  0  0  0  0  0  0  0
  -26.9398  -28.2404   19.4544 C   0  0  0  0  0  0  0  0  0  0  0  0
  -27.0197  -28.7676   21.5877 C   0  0  0  0  0  0  0  0  0  0  0  0
  -20.0216  -20.3519   22.4684 C   0  0  0  0  0  0  0  0  0  0  0  0
  -20.4507  -20.9885   21.3660 C   0  0  0  0  0  0  0  0  0  0  0  0
  -20.0942  -28.7685   22.8589 C   0  0  0  0  0  0  0  0  0  0  0  0
  -28.8313  -27.2075   20.8581 C   0  0  0  0  0  0  0  0  0  0  0  0
  -27.6287  -16.6027   20.5990 C   0  0  0  0  0  0  0  0  0  0  0  0
  -29.6247  -18.9825   19.6637 C   0  0  0  0  0  0  0  0  0  0  0  0
  -29.9917  -22.1978   18.5801 C   0  0  0  0  0  0  0  0  0  0  0  0
  -21.4345  -30.7233   22.1474 C   0  0  0  0  0  0  0  0  0  0  0  0
  -27.8579  -11.5338   21.1572 C   0  0  0  0  0  0  0  0  0  0  0  0
  -26.5879  -17.3019   18.4118 C   0  0  0  0  0  0  0  0  0  0  0  0
  -27.2291  -19.6316   20.1167 C   0  0  0  0  0  0  0  0  0  0  0  0
  -19.2681  -21.0444   23.5604 C   0  0  0  0  0  0  0  0  0  0  0  0
  -20.2490  -22.4719   21.1561 C   0  0  0  0  0  0  0  0  0  0  0  0
  -28.8645  -12.6812   21.1790 C   0  0  0  0  0  0  0  0  0  0  0  0
  -24.3498  -32.7208   22.0590 C   0  0  0  0  0  0  0  0  0  0  0  0
  -28.3725  -13.8059   22.0845 C   0  0  0  0  0  0  0  0  0  0  0  0
  -25.4185  -31.7756   21.5033 C   0  0  0  0  0  0  0  0  0  0  0  0
  -18.7100  -22.3974   23.1223 C   0  0  0  0  0  0  0  0  0  0  0  0
  -22.9929  -32.4975   21.3928 C   0  0  0  0  0  0  0  0  0  0  0  0
  -23.5806  -30.1700   20.8490 C   0  0  0  0  0  0  0  0  0  0  0  0
  -27.0492  -14.3874   21.5725 C   0  0  1  0  0  0  0  0  0  0  0  0
  -27.8283  -17.3303   19.2996 C   0  0  1  0  0  0  0  0  0  0  0  0
  -24.9482  -30.3076   21.5373 C   0  0  1  0  0  0  0  0  0  0  0  0
  -31.7474  -23.8714   17.9366 C   0  0  0  0  0  0  0  0  0  0  0  0
  -30.2959  -19.4075   22.6097 C   0  0  0  0  0  0  0  0  0  0  0  0
  -31.2676  -21.6317   21.9956 C   0  0  0  0  0  0  0  0  0  0  0  0
  -32.2569  -19.5401   21.0633 C   0  0  0  0  0  0  0  0  0  0  0  0
  -28.9238  -22.4341   15.8301 C   0  0  0  0  0  0  0  0  0  0  0  0
  -21.1787  -20.2648   20.2710 C   0  0  0  0  0  0  0  0  0  1  0  0
  -30.0106  -20.3333   20.2165 C   0  0  1  0  0  0  0  0  0  0  0  0
  -30.8000  -22.7904   17.4400 C   0  0  2  0  0  0  0  0  0  0  0  0
  -30.9307  -20.2219   21.4648 C   0  0  0  0  0  0  0  0  0  0  0  0
  -25.9053  -29.0659   19.6340 N   0  0  0  0  0  0  0  0  0  0  0  0
  -25.9803  -29.3691   20.9411 N   0  0  0  0  0  0  0  0  0  0  0  0
  -19.7241  -23.1311   22.3600 N   0  0  2  0  0  0  0  0  0  0  0  0
  -28.2535  -18.6912   19.6333 N   0  0  0  0  0  0  0  0  0  0  0  0
  -22.6154  -31.0855   21.4761 N   0  0  0  0  0  0  0  0  0  0  0  0
  -20.1330  -27.0414   25.1798 N   0  0  0  0  0  0  0  0  0  0  0  0
  -27.2415  -28.9639   22.9047 N   0  0  0  0  0  0  0  0  0  0  0  0
  -29.3709  -26.5039   19.7726 N   0  0  0  0  0  0  0  0  0  0  0  0
  -21.1844  -29.3479   22.2090 N   0  0  0  0  0  0  0  0  0  0  0  0
  -27.2859  -15.2721   20.4519 N   0  0  0  0  0  0  0  0  0  0  0  0
  -30.5971  -21.0762   19.1063 N   0  0  0  0  0  0  0  0  0  0  0  0
  -29.8942  -23.3915   16.4206 N   0  3  0  0  0  0  0  0  0  0  0  0
  -19.2171  -29.3846   23.4580 O   0  0  0  0  0  0  0  0  0  0  0  0
  -29.3650  -27.0967   21.9879 O   0  0  0  0  0  0  0  0  0  0  0  0
  -27.7763  -17.2035   21.6568 O   0  0  0  0  0  0  0  0  0  0  0  0
  -30.5068  -18.2171   19.2668 O   0  0  0  0  0  0  0  0  0  0  0  0
  -28.9314  -22.6836   18.9678 O   0  0  0  0  0  0  0  0  0  0  0  0
  -20.6869  -31.5500   22.6793 O   0  0  0  0  0  0  0  0  0  0  0  0
  -27.9648  -26.0831   14.3985 O   0  0  0  0  0  0  0  0  0  0  0  0
  -22.4829  -20.8196   20.1049 O   0  0  0  0  0  0  0  0  0  1  0  0
  -27.7259  -29.4842   10.0649 F   0  0  0  0  0  0  0  0  0  0  0  0
  -30.1740  -26.4821   12.7852 F   0  0  0  0  0  0  0  0  0  0  0  0
  1  2  1  0  0  0  0
  1  6  2  0  0  0  0
  2  7  2  0  0  0  0
  3 10  2  0  0  0  0
  3 18  1  0  0  0  0
  4 11  1  0  0  0  0
  4 18  2  0  0  0  0
  5  9  2  0  0  0  0
  5 19  1  0  0  0  0
  6 21  1  0  0  0  0
  7 23  1  0  0  0  0
  8 12  2  0  0  0  0
  8 22  1  0  0  0  0
  9 25  1  0  0  0  0
 10 27  1  0  0  0  0
 11 27  2  0  0  0  0
 12 28  1  0  0  0  0
 13 14  2  0  0  0  0
 13 29  1  0  0  0  0
 14 30  1  0  0  0  0
 15 24  1  0  0  0  0
 15 28  2  0  0  0  0
 16 25  2  0  0  0  0
 16 26  1  0  0  0  0
 17 30  2  0  0  0  0
 17 31  1  0  0  0  0
 18 32  1  0  0  0  0
 19 26  2  0  0  0  0
 19 36  1  0  0  0  0
 20 32  1  0  0  0  0
 20 33  2  0  0  0  0
 20 37  1  0  0  0  0
 21 23  2  0  0  0  0
 21 42  1  0  0  0  0
 22 24  2  0  0  0  0
 22 43  1  0  0  0  0
 23 54  1  0  0  0  0
 24 44  1  0  0  0  0
 25 68  1  0  0  0  0
 26 71  1  0  0  0  0
 27 84  1  0  0  0  0
 28 85  1  0  0  0  0
 29 31  2  0  0  0  0
 29 84  1  0  0  0  0
 30 86  1  0  0  0  0
 31 87  1  0  0  0  0
 32 66  2  0  0  0  0
 33 67  1  0  0  0  0
 33 72  1  0  0  0  0
 34 35  2  0  0  0  0
 34 45  1  0  0  0  0
 35 46  1  0  0  0  0
 35 62  1  0  0  0  0
 36 74  1  0  0  0  0
 36 78  2  0  0  0  0
 37 73  1  0  0  0  0
 37 79  2  0  0  0  0
 38 55  1  0  0  0  0
 38 75  1  0  0  0  0
 38 80  2  0  0  0  0
 39 63  1  0  0  0  0
 39 69  1  0  0  0  0
 39 81  2  0  0  0  0
 40 64  1  0  0  0  0
 40 76  1  0  0  0  0
 40 82  2  0  0  0  0
 41 70  1  0  0  0  0
 41 74  1  0  0  0  0
 41 83  2  0  0  0  0
 42 47  1  0  0  0  0
 43 55  1  0  0  0  0
 44 69  1  0  0  0  0
 45 51  1  0  0  0  0
 46 68  1  0  0  0  0
 47 49  1  0  0  0  0
 48 50  1  0  0  0  0
 48 52  1  0  0  0  0
 49 54  1  0  0  0  0
 50 56  1  0  0  0  0
 51 68  1  0  0  0  0
 52 70  1  0  0  0  0
 53 56  1  0  0  0  0
 53 70  1  0  0  0  0
 54 75  1  0  0  0  0
 55 69  1  0  0  0  0
 56 67  1  0  0  0  0
 57 64  1  0  0  0  0
 58 65  1  0  0  0  0
 59 65  1  0  0  0  0
 60 65  1  0  0  0  0
 61 77  1  0  0  0  0
 62 85  1  0  0  0  0
 63 65  1  0  0  0  0
 63 76  1  0  0  0  0
 64 77  1  0  0  0  0
 66 67  1  0  0  0  0
M  CHG  1  77   1
M  ISO  4  41 100  62 101  74 100  85 101
M  END
> <Batch ID>
0075

> <Smiles>
CNC(C)C(=O)NC(C(=O)N1Cc2cc([101O:1][101CH2:1]C3=CCCN(c4ccc(C(=O)[100NH:0][100C:0](=O)N5CCCC(n6nc(-c7ccc(Oc8ccc(F)cc8F)cc7)c(C(N)=O)c6N)C5)c(N)c4)C3)ccc2CC1C(=O)NC1CCCc2ccccc21)C(C)(C)C

> <Shape>
0.236

> <Color>
0.070

> <Negative vol penalty>
0.000

$$$$

  -OEChem-04042323473D

 86 95  0     1  0  0  0  0  0999 V2000
  -17.9307  -25.2395   22.1709 C   0  0  0  0  0  0  0  0  0  0  0  0
  -19.2570  -25.1925   21.7536 C   0  0  0  0  0  0  0  0  0  0  0  0
  -30.3761  -19.5517   21.2995 C   0  0  0  0  0  0  0  0  0  0  0  0
  -23.5109  -10.9284   22.8992 C   0  0  0  0  0  0  0  0  0  0  0  0
  -23.6426   -9.4054   21.0283 C   0  0  0  0  0  0  0  0  0  0  0  0
  -17.2990  -26.4703   22.3443 C   0  0  0  0  0  0  0  0  0  0  0  0
  -19.9520  -26.3762   21.5083 C   0  0  0  0  0  0  0  0  0  0  0  0
  -24.6122  -26.3393   23.4898 C   0  0  0  0  0  0  0  0  0  0  0  0
  -30.0384  -20.8680   20.9853 C   0  0  0  0  0  0  0  0  0  0  0  0
  -29.6644  -18.4947   20.7320 C   0  0  0  0  0  0  0  0  0  0  0  0
  -22.5461  -10.1151   23.4934 C   0  0  0  0  0  0  0  0  0  0  0  0
  -22.6778   -8.5920   21.6226 C   0  0  0  0  0  0  0  0  0  0  0  0
  -25.5925  -25.6290   22.7983 C   0  0  0  0  0  0  0  0  0  0  0  0
  -20.5117   -5.9276   22.8171 C   0  0  0  0  0  0  0  0  0  0  0  0
  -20.7382   -4.5513   22.8251 C   0  0  0  0  0  0  0  0  0  0  0  0
  -26.4113  -27.6915   21.8524 C   0  0  0  0  0  0  0  0  0  0  0  0
  -28.2772  -20.0705   19.5364 C   0  0  0  0  0  0  0  0  0  0  0  0
  -22.7712   -4.8932   24.0848 C   0  0  0  0  0  0  0  0  0  0  0  0
  -24.0591  -10.5736   21.6666 C   0  0  0  0  0  0  0  0  0  0  0  0
  -26.4516  -11.3347   21.2142 C   0  0  0  0  0  0  0  0  0  0  0  0
  -17.9895  -27.6699   22.1103 C   0  0  0  0  0  0  0  0  0  0  0  0
  -24.5171  -27.7323   23.3591 C   0  0  0  0  0  0  0  0  0  0  0  0
  -19.3284  -27.6241   21.6774 C   0  0  0  0  0  0  0  0  0  0  0  0
  -25.4306  -28.4175   22.5454 C   0  0  0  0  0  0  0  0  0  0  0  0
  -28.9890  -21.1275   20.1038 C   0  0  0  0  0  0  0  0  0  0  0  0
  -28.6150  -18.7541   19.8506 C   0  0  0  0  0  0  0  0  0  0  0  0
  -22.1295   -8.9468   22.8551 C   0  0  0  0  0  0  0  0  0  0  0  0
  -26.4904  -26.3047   21.9772 C   0  0  0  0  0  0  0  0  0  0  0  0
  -21.4149   -6.7867   23.4429 C   0  0  0  0  0  0  0  0  0  0  0  0
  -21.8679   -4.0341   23.4589 C   0  0  0  0  0  0  0  0  0  0  0  0
  -22.5447   -6.2695   24.0768 C   0  0  0  0  0  0  0  0  0  0  0  0
  -25.0554  -11.4137   21.0519 C   0  0  0  0  0  0  0  0  0  0  0  0
  -26.9466  -12.3446   20.4258 C   0  0  0  0  0  0  0  0  0  0  0  0
  -27.7030  -22.9561   18.9855 C   0  0  0  0  0  0  0  0  0  0  0  0
  -27.2313  -10.4293   22.0067 C   0  0  0  0  0  0  0  0  0  0  0  0
  -22.2974  -29.7381   22.2850 C   0  0  0  0  0  0  0  0  0  0  0  0
  -27.0685  -25.1714   20.0152 C   0  0  0  0  0  0  0  0  0  1  0  0
  -24.3556  -31.9903   23.3867 C   0  0  0  0  0  0  0  0  0  0  0  0
  -27.5574  -32.8316   24.2159 C   0  0  0  0  0  0  0  0  0  0  0  0
  -26.5185  -17.7960   18.9113 C   0  0  0  0  0  0  0  0  0  0  0  0
  -17.2501  -28.9752   22.2657 C   0  0  0  0  0  0  0  0  0  0  0  0
  -23.4708  -28.4869   24.1326 C   0  0  0  0  0  0  0  0  0  0  0  0
  -25.3837  -29.9146   22.3869 C   0  0  0  0  0  0  0  0  0  0  0  0
  -18.1703  -30.1906   22.3457 C   0  0  0  0  0  0  0  0  0  0  0  0
  -24.6923  -15.2490   16.9651 C   0  0  0  0  0  0  0  0  0  0  0  0
  -19.2359  -30.1261   21.2561 C   0  0  0  0  0  0  0  0  0  0  0  0
  -24.6866  -14.0432   17.9031 C   0  0  0  0  0  0  0  0  0  0  0  0
  -24.7184  -16.5660   17.7351 C   0  0  0  0  0  0  0  0  0  0  0  0
  -25.8364  -15.4627   19.6491 C   0  0  0  0  0  0  0  0  0  0  0  0
  -29.2536  -23.6902   20.2047 C   0  0  0  0  0  0  0  0  0  0  0  0
  -20.1233  -28.8869   21.4251 C   0  0  1  0  0  0  0  0  0  0  0  0
  -23.1417  -29.8462   23.5233 C   0  0  1  0  0  0  0  0  0  0  0  0
  -25.8536  -14.1201   18.9027 C   0  0  1  0  0  0  0  0  0  0  0  0
  -28.1921  -24.3994   19.3055 C   0  0  1  0  0  0  0  0  0  0  0  0
  -28.7731  -25.1410   18.1070 C   0  0  0  0  0  0  0  0  0  0  0  0
  -28.9356  -34.7557   25.0499 C   0  0  0  0  0  0  0  0  0  0  0  0
  -24.2437  -33.2674   20.6179 C   0  0  0  0  0  0  0  0  0  0  0  0
  -26.3031  -34.5629   21.2087 C   0  0  0  0  0  0  0  0  0  0  0  0
  -24.2059  -34.8924   22.5186 C   0  0  0  0  0  0  0  0  0  0  0  0
  -28.6222  -16.4791   18.8108 C   0  0  0  0  0  0  0  0  0  0  0  0
  -28.3617  -31.3515   26.6493 C   0  0  0  0  0  0  0  0  0  0  0  0
  -25.5206  -32.7516   22.8018 C   0  0  1  0  0  0  0  0  0  0  0  0
  -28.1326  -33.5240   25.4382 C   0  0  2  0  0  0  0  0  0  0  0  0
  -25.0683  -33.8401   21.7880 C   0  0  0  0  0  0  0  0  0  0  0  0
  -24.6872  -12.3962   20.2255 N   0  0  0  0  0  0  0  0  0  0  0  0
  -25.8592  -12.9440   19.8615 N   0  0  0  0  0  0  0  0  0  0  0  0
  -28.6568  -22.4258   19.7941 N   0  0  0  0  0  0  0  0  0  0  0  0
  -24.3386  -30.6070   23.1589 N   0  0  0  0  0  0  0  0  0  0  0  0
  -25.8093  -16.5948   18.7102 N   0  0  0  0  0  0  0  0  0  0  0  0
  -28.2015  -12.7696   20.1673 N   0  0  0  0  0  0  0  0  0  0  0  0
  -26.5629   -9.4518   22.7564 N   0  0  0  0  0  0  0  0  0  0  0  0
  -21.0891  -29.0973   22.4821 N   0  0  0  0  0  0  0  0  0  0  0  0
  -26.2803  -33.2689   23.9348 N   0  0  0  0  0  0  0  0  0  0  0  0
  -27.8788  -17.6595   19.2635 N   0  0  0  0  0  0  0  0  0  0  0  0
  -29.0275  -32.5961   26.1860 N   0  3  0  0  0  0  0  0  0  0  0  0
  -26.8373  -22.4595   18.3009 O   0  0  0  0  0  0  0  0  0  0  0  0
  -28.4827  -10.4960   22.0616 O   0  0  0  0  0  0  0  0  0  0  0  0
  -22.7109  -30.2031   21.2293 O   0  0  0  0  0  0  0  0  0  0  0  0
  -25.9578  -25.3866   19.5289 O   0  0  0  0  0  0  0  0  0  0  0  0
  -23.4961  -32.5995   24.0285 O   0  0  0  0  0  0  0  0  0  0  0  0
  -28.1802  -31.9898   23.5724 O   0  0  0  0  0  0  0  0  0  0  0  0
  -25.9857  -18.9017   18.7588 O   0  0  0  0  0  0  0  0  0  0  0  0
  -21.1882   -8.1528   23.4348 O   0  0  0  0  0  0  0  0  0  0  0  0
  -27.4478  -25.6137   21.3006 O   0  0  0  0  0  0  0  0  0  1  0  0
  -22.0845   -2.7123   23.4678 F   0  0  0  0  0  0  0  0  0  0  0  0
  -23.4154   -7.0898   24.6808 F   0  0  0  0  0  0  0  0  0  0  0  0
  1  2  1  0  0  0  0
  1  6  2  0  0  0  0
  2  7  2  0  0  0  0
  3  9  2  0  0  0  0
  3 10  1  0  0  0  0
  4 11  2  0  0  0  0
  4 19  1  0  0  0  0
  5 12  1  0  0  0  0
  5 19  2  0  0  0  0
  6 21  1  0  0  0  0
  7 23  1  0  0  0  0
  8 13  2  0  0  0  0
  8 22  1  0  0  0  0
  9 25  1  0  0  0  0
 10 26  2  0  0  0  0
 11 27  1  0  0  0  0
 12 27  2  0  0  0  0
 13 28  1  0  0  0  0
 14 15  2  0  0  0  0
 14 29  1  0  0  0  0
 15 30  1  0  0  0  0
 16 24  1  0  0  0  0
 16 28  2  0  0  0  0
 17 25  2  0  0  0  0
 17 26  1  0  0  0  0
 18 30  2  0  0  0  0
 18 31  1  0  0  0  0
 19 32  1  0  0  0  0
 20 32  1  0  0  0  0
 20 33  2  0  0  0  0
 20 35  1  0  0  0  0
 21 23  2  0  0  0  0
 21 41  1  0  0  0  0
 22 24  2  0  0  0  0
 22 42  1  0  0  0  0
 23 51  1  0  0  0  0
 24 43  1  0  0  0  0
 25 67  1  0  0  0  0
 26 74  1  0  0  0  0
 27 83  1  0  0  0  0
 28 84  1  0  0  0  0
 29 31  2  0  0  0  0
 29 83  1  0  0  0  0
 30 85  1  0  0  0  0
 31 86  1  0  0  0  0
 32 65  2  0  0  0  0
 33 66  1  0  0  0  0
 33 70  1  0  0  0  0
 34 54  1  0  0  0  0
 34 67  1  0  0  0  0
 34 76  2  0  0  0  0
 35 71  1  0  0  0  0
 35 77  2  0  0  0  0
 36 52  1  0  0  0  0
 36 72  1  0  0  0  0
 36 78  2  0  0  0  0
 37 54  1  0  0  0  0
 37 79  2  0  0  0  0
 37 84  1  0  0  0  0
 38 62  1  0  0  0  0
 38 68  1  0  0  0  0
 38 80  2  0  0  0  0
 39 63  1  0  0  0  0
 39 73  1  0  0  0  0
 39 81  2  0  0  0  0
 40 69  1  0  0  0  0
 40 74  1  0  0  0  0
 40 82  2  0  0  0  0
 41 44  1  0  0  0  0
 42 52  1  0  0  0  0
 43 68  1  0  0  0  0
 44 46  1  0  0  0  0
 45 47  1  0  0  0  0
 45 48  1  0  0  0  0
 46 51  1  0  0  0  0
 47 53  1  0  0  0  0
 48 69  1  0  0  0  0
 49 53  1  0  0  0  0
 49 69  1  0  0  0  0
 50 54  1  0  0  0  0
 50 67  1  0  0  0  0
 51 72  1  0  0  0  0
 52 68  1  0  0  0  0
 53 66  1  0  0  0  0
 54 55  1  0  0  0  0
 56 63  1  0  0  0  0
 57 64  1  0  0  0  0
 58 64  1  0  0  0  0
 59 64  1  0  0  0  0
 60 74  1  0  0  0  0
 61 75  1  0  0  0  0
 62 64  1  0  0  0  0
 62 73  1  0  0  0  0
 63 75  1  0  0  0  0
 65 66  1  0  0  0  0
M  CHG  1  75   1
M  ISO  4  37 101  40 100  74 100  84 101
M  END
> <Batch ID>
0075

> <Smiles>
CNC(C)C(=O)NC(C(=O)N1Cc2cc([101O:1][101C:1](=O)C3(C)CN(c4cccc([100N:0](C)[100C:0](=O)N5CCCC(n6nc(-c7ccc(Oc8ccc(F)cc8F)cc7)c(C(N)=O)c6N)C5)c4)C3=O)ccc2CC1C(=O)NC1CCCc2ccccc21)C(C)(C)C

> <Shape>
0.311

> <Color>
0.078

> <Negative vol penalty>
0.000

$$$$

  -OEChem-04042323473D

 86 95  0     1  0  0  0  0  0999 V2000
  -16.9021  -30.4540   21.5004 C   0  0  0  0  0  0  0  0  0  0  0  0
  -18.1760  -30.3077   20.9608 C   0  0  0  0  0  0  0  0  0  0  0  0
  -26.6379  -21.3175   15.8249 C   0  0  0  0  0  0  0  0  0  0  0  0
  -26.2101  -12.0877   21.3728 C   0  0  0  0  0  0  0  0  0  0  0  0
  -25.1795  -13.0144   19.3939 C   0  0  0  0  0  0  0  0  0  0  0  0
  -16.7254  -31.1709   22.6831 C   0  0  0  0  0  0  0  0  0  0  0  0
  -19.2739  -30.8793   21.6030 C   0  0  0  0  0  0  0  0  0  0  0  0
  -23.2279  -27.7264   21.8674 C   0  0  0  0  0  0  0  0  0  0  0  0
  -26.7214  -22.6294   16.2913 C   0  0  0  0  0  0  0  0  0  0  0  0
  -27.3279  -20.2985   16.4816 C   0  0  0  0  0  0  0  0  0  0  0  0
  -24.9846  -11.5427   21.7558 C   0  0  0  0  0  0  0  0  0  0  0  0
  -23.9540  -12.4693   19.7768 C   0  0  0  0  0  0  0  0  0  0  0  0
  -23.9944  -27.5682   20.7136 C   0  0  0  0  0  0  0  0  0  0  0  0
  -23.0865   -8.8650   20.9434 C   0  0  0  0  0  0  0  0  0  0  0  0
  -23.0767   -7.5453   21.3948 C   0  0  0  0  0  0  0  0  0  0  0  0
  -25.6314  -29.1036   21.5977 C   0  0  0  0  0  0  0  0  0  0  0  0
  -28.1851  -21.9034   18.0711 C   0  0  0  0  0  0  0  0  0  0  0  0
  -22.1960   -8.2792   23.5215 C   0  0  0  0  0  0  0  0  0  0  0  0
  -26.3076  -12.8236   20.1918 C   0  0  0  0  0  0  0  0  0  0  0  0
  -28.5611  -12.7812   18.9972 C   0  0  0  0  0  0  0  0  0  0  0  0
  -17.8229  -31.7433   23.3453 C   0  0  0  0  0  0  0  0  0  0  0  0
  -23.6528  -28.5843   22.8921 C   0  0  0  0  0  0  0  0  0  0  0  0
  -19.1115  -31.6056   22.7949 C   0  0  0  0  0  0  0  0  0  0  0  0
  -24.8698  -29.2690   22.7646 C   0  0  0  0  0  0  0  0  0  0  0  0
  -27.4950  -22.9224   17.4144 C   0  0  0  0  0  0  0  0  0  0  0  0
  -28.1015  -20.5915   17.6047 C   0  0  0  0  0  0  0  0  0  0  0  0
  -23.8566  -11.7334   20.9578 C   0  0  0  0  0  0  0  0  0  0  0  0
  -25.1949  -28.2590   20.5774 C   0  0  0  0  0  0  0  0  0  0  0  0
  -22.6511   -9.8919   21.7811 C   0  0  0  0  0  0  0  0  0  0  0  0
  -22.6315   -7.2524   22.6839 C   0  0  0  0  0  0  0  0  0  0  0  0
  -22.2058   -9.5990   23.0701 C   0  0  0  0  0  0  0  0  0  0  0  0
  -27.5731  -13.3874   19.7959 C   0  0  0  0  0  0  0  0  0  0  0  0
  -29.5603  -13.7200   18.9154 C   0  0  0  0  0  0  0  0  0  0  0  0
  -28.2008  -26.0881   19.0980 C   0  0  0  0  0  0  0  0  0  0  0  0
  -28.5746  -11.4853   18.3839 C   0  0  0  0  0  0  0  0  0  0  0  0
  -22.4918  -31.2203   24.2364 C   0  0  0  0  0  0  0  0  0  0  0  0
  -25.0005  -30.8276   26.2549 C   0  0  0  0  0  0  0  0  0  0  0  0
  -28.1103  -29.5289   26.7933 C   0  0  0  0  0  0  0  0  0  0  0  0
  -29.6151  -19.6756   19.3981 C   0  0  0  0  0  0  0  0  0  0  0  0
  -17.5764  -32.5495   24.5959 C   0  0  0  0  0  0  0  0  0  0  0  0
  -22.8277  -28.7234   24.1420 C   0  0  0  0  0  0  0  0  0  0  0  0
  -25.3804  -30.1864   23.8446 C   0  0  0  0  0  0  0  0  0  0  0  0
  -28.3671  -24.5933   19.0429 C   0  0  0  0  0  0  0  0  0  0  0  0
  -18.8393  -32.8059   25.4141 C   0  0  0  0  0  0  0  0  0  0  0  0
  -31.4844  -17.3632   21.3567 C   0  0  0  0  0  0  0  0  0  0  0  0
  -19.9775  -33.2663   24.5090 C   0  0  0  0  0  0  0  0  0  0  0  0
  -30.7871  -16.0250   21.1012 C   0  0  0  0  0  0  0  0  0  0  0  0
  -30.4878  -18.5195   21.4172 C   0  0  0  0  0  0  0  0  0  0  0  0
  -28.8887  -17.2847   20.0075 C   0  0  0  0  0  0  0  0  0  0  0  0
  -27.1014  -25.3815   17.1203 C   0  0  0  0  0  0  0  0  0  0  0  0
  -20.3304  -32.1898   23.4754 C   0  0  1  0  0  0  0  0  0  0  0  0
  -23.1040  -30.0187   24.8991 C   0  0  1  0  0  0  0  0  0  0  0  0
  -29.8581  -16.0989   19.8736 C   0  0  2  0  0  0  0  0  0  0  0  0
  -27.1971  -26.5854   18.0775 C   0  0  2  0  0  0  0  0  0  0  0  0
  -26.7177  -28.3347   16.3574 C   0  0  0  0  0  0  0  0  0  0  0  0
  -29.9209  -29.4064   28.5264 C   0  0  0  0  0  0  0  0  0  0  0  0
  -25.8033  -33.7012   25.6159 C   0  0  0  0  0  0  0  0  0  0  0  0
  -28.0599  -33.2123   26.5839 C   0  0  0  0  0  0  0  0  0  0  0  0
  -26.0285  -33.0661   28.0243 C   0  0  0  0  0  0  0  0  0  0  0  0
  -27.9290  -26.5787   26.9414 C   0  0  0  0  0  0  0  0  0  0  0  0
  -27.7013  -27.8367   17.3661 C   0  0  0  0  0  0  0  0  0  0  0  0
  -25.8659  -26.8481   18.7843 C   0  0  0  0  0  0  0  0  0  1  0  0
  -26.4384  -31.2871   26.2753 C   0  0  1  0  0  0  0  0  0  0  0  0
  -28.6831  -28.7343   27.9529 C   0  0  2  0  0  0  0  0  0  0  0  0
  -26.5722  -32.8009   26.6035 C   0  0  0  0  0  0  0  0  0  0  0  0
  -27.9137  -14.6162   20.1934 N   0  0  0  0  0  0  0  0  0  0  0  0
  -29.1270  -14.7897   19.6422 N   0  0  0  0  0  0  0  0  0  0  0  0
  -27.5772  -24.2237   17.8772 N   0  0  3  0  0  0  0  0  0  0  0  0
  -24.5347  -30.2941   25.0449 N   0  0  0  0  0  0  0  0  0  0  0  0
  -29.6447  -18.5290   20.2198 N   0  0  0  0  0  0  0  0  0  0  0  0
  -30.7585  -13.7266   18.2936 N   0  0  0  0  0  0  0  0  0  0  0  0
  -27.4668  -10.6469   18.5691 N   0  0  0  0  0  0  0  0  0  0  0  0
  -28.8033  -19.5562   18.2706 N   0  0  0  0  0  0  0  0  0  0  0  0
  -21.1204  -31.1423   24.0862 N   0  0  0  0  0  0  0  0  0  0  0  0
  -27.1342  -30.4092   27.2100 N   0  0  0  0  0  0  0  0  0  0  0  0
  -29.0574  -27.3627   27.5063 N   0  3  0  0  0  0  0  0  0  0  0  0
  -28.7814  -26.8013   19.9072 O   0  0  0  0  0  0  0  0  0  0  0  0
  -29.5474  -11.0763   17.7057 O   0  0  0  0  0  0  0  0  0  0  0  0
  -23.2104  -32.1500   23.8884 O   0  0  0  0  0  0  0  0  0  0  0  0
  -24.3179  -30.9315   27.2771 O   0  0  0  0  0  0  0  0  0  0  0  0
  -28.4932  -29.3859   25.6342 O   0  0  0  0  0  0  0  0  0  0  0  0
  -30.2835  -20.6790   19.6599 O   0  0  0  0  0  0  0  0  0  0  0  0
  -22.6607  -11.2015   21.3311 O   0  0  0  0  0  0  0  0  0  0  0  0
  -25.9446  -28.1069   19.4519 O   0  0  0  0  0  0  0  0  0  1  0  0
  -22.6207   -5.9848   23.1167 F   0  0  0  0  0  0  0  0  0  0  0  0
  -21.7852  -10.5811   23.8790 F   0  0  0  0  0  0  0  0  0  0  0  0
  1  2  1  0  0  0  0
  1  6  2  0  0  0  0
  2  7  2  0  0  0  0
  3  9  2  0  0  0  0
  3 10  1  0  0  0  0
  4 11  2  0  0  0  0
  4 19  1  0  0  0  0
  5 12  1  0  0  0  0
  5 19  2  0  0  0  0
  6 21  1  0  0  0  0
  7 23  1  0  0  0  0
  8 13  2  0  0  0  0
  8 22  1  0  0  0  0
  9 25  1  0  0  0  0
 10 26  2  0  0  0  0
 11 27  1  0  0  0  0
 12 27  2  0  0  0  0
 13 28  1  0  0  0  0
 14 15  2  0  0  0  0
 14 29  1  0  0  0  0
 15 30  1  0  0  0  0
 16 24  1  0  0  0  0
 16 28  2  0  0  0  0
 17 25  2  0  0  0  0
 17 26  1  0  0  0  0
 18 30  2  0  0  0  0
 18 31  1  0  0  0  0
 19 32  1  0  0  0  0
 20 32  1  0  0  0  0
 20 33  2  0  0  0  0
 20 35  1  0  0  0  0
 21 23  2  0  0  0  0
 21 40  1  0  0  0  0
 22 24  2  0  0  0  0
 22 41  1  0  0  0  0
 23 51  1  0  0  0  0
 24 42  1  0  0  0  0
 25 68  1  0  0  0  0
 26 73  1  0  0  0  0
 27 83  1  0  0  0  0
 28 84  1  0  0  0  0
 29 31  2  0  0  0  0
 29 83  1  0  0  0  0
 30 85  1  0  0  0  0
 31 86  1  0  0  0  0
 32 66  2  0  0  0  0
 33 67  1  0  0  0  0
 33 71  1  0  0  0  0
 34 43  1  0  0  0  0
 34 54  1  0  0  0  0
 34 77  2  0  0  0  0
 35 72  1  0  0  0  0
 35 78  2  0  0  0  0
 36 52  1  0  0  0  0
 36 74  1  0  0  0  0
 36 79  2  0  0  0  0
 37 63  1  0  0  0  0
 37 69  1  0  0  0  0
 37 80  2  0  0  0  0
 38 64  1  0  0  0  0
 38 75  1  0  0  0  0
 38 81  2  0  0  0  0
 39 70  1  0  0  0  0
 39 73  1  0  0  0  0
 39 82  2  0  0  0  0
 40 44  1  0  0  0  0
 41 52  1  0  0  0  0
 42 69  1  0  0  0  0
 43 68  1  0  0  0  0
 44 46  1  0  0  0  0
 45 47  1  0  0  0  0
 45 48  1  0  0  0  0
 46 51  1  0  0  0  0
 47 53  1  0  0  0  0
 48 70  1  0  0  0  0
 49 53  1  0  0  0  0
 49 70  1  0  0  0  0
 50 54  1  0  0  0  0
 50 68  1  0  0  0  0
 51 74  1  0  0  0  0
 52 69  1  0  0  0  0
 53 67  1  0  0  0  0
 54 61  1  0  0  0  0
 54 62  1  0  0  0  0
 55 61  1  0  0  0  0
 56 64  1  0  0  0  0
 57 65  1  0  0  0  0
 58 65  1  0  0  0  0
 59 65  1  0  0  0  0
 60 76  1  0  0  0  0
 62 84  1  0  0  0  0
 63 65  1  0  0  0  0
 63 75  1  0  0  0  0
 64 76  1  0  0  0  0
 66 67  1  0  0  0  0
M  CHG  1  76   1
M  ISO  4  39 100  62 101  73 100  84 101
M  END
> <Batch ID>
0075

> <Smiles>
CCC1([101CH2:1][101O:1]c2ccc3c(c2)CN(C(=O)C(NC(=O)C(C)NC)C(C)(C)C)C(C(=O)NC2CCCc4ccccc42)C3)CN(c2cccc([100NH:0][100C:0](=O)N3CCCC(n4nc(-c5ccc(Oc6ccc(F)cc6F)cc5)c(C(N)=O)c4N)C3)c2)CC1=O

> <Shape>
0.268

> <Color>
0.064

> <Negative vol penalty>
0.000

$$$$

  -OEChem-04042323473D

 84 92  0     1  0  0  0  0  0999 V2000
  -28.2892  -24.7083   16.5442 C   0  0  0  0  0  0  0  0  0  0  0  0
  -27.1039  -24.8581   17.2571 C   0  0  0  0  0  0  0  0  0  0  0  0
  -28.7763  -15.8970   21.6202 C   0  0  0  0  0  0  0  0  0  0  0  0
  -27.0484  -16.1070   19.9446 C   0  0  0  0  0  0  0  0  0  0  0  0
  -29.4756  -25.2412   17.0467 C   0  0  0  0  0  0  0  0  0  0  0  0
  -27.1046  -25.5398   18.4735 C   0  0  0  0  0  0  0  0  0  0  0  0
  -23.2420  -28.7892   18.8814 C   0  0  0  0  0  0  0  0  0  0  0  0
  -20.2219  -20.5093   21.4432 C   0  0  0  0  0  0  0  0  0  0  0  0
  -19.9477  -21.7694   23.4862 C   0  0  0  0  0  0  0  0  0  0  0  0
  -29.1215  -14.6466   21.1075 C   0  0  0  0  0  0  0  0  0  0  0  0
  -27.3936  -14.8566   19.4319 C   0  0  0  0  0  0  0  0  0  0  0  0
  -21.9911  -28.2560   19.1893 C   0  0  0  0  0  0  0  0  0  0  0  0
  -29.7938  -13.5606   17.4369 C   0  0  0  0  0  0  0  0  0  0  0  0
  -29.9010  -13.4369   16.0517 C   0  0  0  0  0  0  0  0  0  0  0  0
  -19.2851  -21.3279   20.8125 C   0  0  0  0  0  0  0  0  0  0  0  0
  -19.0109  -22.5881   22.8555 C   0  0  0  0  0  0  0  0  0  0  0  0
  -22.2916  -28.8979   21.4951 C   0  0  0  0  0  0  0  0  0  0  0  0
  -28.1657  -11.7559   16.0675 C   0  0  0  0  0  0  0  0  0  0  0  0
  -27.7397  -16.6272   21.0388 C   0  0  0  0  0  0  0  0  0  0  0  0
  -27.9048  -19.1686   21.1857 C   0  0  0  0  0  0  0  0  0  0  0  0
  -29.4890  -25.9382   18.2652 C   0  0  0  0  0  0  0  0  0  0  0  0
  -24.0331  -29.3721   19.8819 C   0  0  0  0  0  0  0  0  0  0  0  0
  -28.2925  -26.0813   18.9934 C   0  0  0  0  0  0  0  0  0  0  0  0
  -23.5511  -29.4401   21.1969 C   0  0  0  0  0  0  0  0  0  0  0  0
  -20.5532  -20.7300   22.7801 C   0  0  0  0  0  0  0  0  0  0  0  0
  -28.4302  -14.1264   20.0133 C   0  0  0  0  0  0  0  0  0  0  0  0
  -21.5170  -28.3076   20.4968 C   0  0  0  0  0  0  0  0  0  0  0  0
  -28.8726  -12.7819   18.1375 C   0  0  0  0  0  0  0  0  0  0  0  0
  -29.0869  -12.5346   15.3670 C   0  0  0  0  0  0  0  0  0  0  0  0
  -28.0586  -11.8796   17.4528 C   0  0  0  0  0  0  0  0  0  0  0  0
  -18.6796  -22.3673   21.5186 C   0  0  0  0  0  0  0  0  0  0  0  0
  -27.3822  -17.9187   21.5683 C   0  0  0  0  0  0  0  0  0  0  0  0
  -27.2443  -20.0744   21.9793 C   0  0  0  0  0  0  0  0  0  0  0  0
  -28.8985  -19.4828   20.2011 C   0  0  0  0  0  0  0  0  0  0  0  0
  -26.8899  -28.7504   21.1292 C   0  0  0  0  0  0  0  0  0  0  0  0
  -26.3701  -31.5312   22.7164 C   0  0  0  0  0  0  0  0  0  0  0  0
  -18.9699  -25.7697   20.8337 C   0  0  0  0  0  0  0  0  0  0  0  0
  -24.1270  -33.8009   23.9263 C   0  0  0  0  0  0  0  0  0  0  0  0
  -21.9462  -19.9812   24.7410 C   0  0  0  0  0  0  0  0  0  0  0  0
  -30.8045  -26.4555   18.7910 C   0  0  0  0  0  0  0  0  0  0  0  0
  -25.3687  -29.9667   19.5285 C   0  0  0  0  0  0  0  0  0  0  0  0
  -24.3528  -30.0733   22.3036 C   0  0  0  0  0  0  0  0  0  0  0  0
  -30.6515  -27.4884   19.9045 C   0  0  0  0  0  0  0  0  0  0  0  0
  -25.1308  -20.4620   26.2591 C   0  0  0  0  0  0  0  0  0  0  0  0
  -29.6338  -27.0137   20.9369 C   0  0  0  0  0  0  0  0  0  0  0  0
  -26.1173  -19.9838   25.1914 C   0  0  0  0  0  0  0  0  0  0  0  0
  -23.8618  -19.6118   26.2803 C   0  0  0  0  0  0  0  0  0  0  0  0
  -24.1732  -18.9935   23.9160 C   0  0  0  0  0  0  0  0  0  0  0  0
  -28.2483  -26.8358   20.3044 C   0  0  1  0  0  0  0  0  0  0  0  0
  -26.3095  -30.0759   20.7244 C   0  0  1  0  0  0  0  0  0  0  0  0
  -25.4393  -19.8596   23.8128 C   0  0  2  0  0  0  0  0  0  0  0  0
  -24.0003  -35.9519   25.2125 C   0  0  0  0  0  0  0  0  0  0  0  0
  -26.9353  -30.0149   25.3032 C   0  0  0  0  0  0  0  0  0  0  0  0
  -25.8858  -31.9085   26.5606 C   0  0  0  0  0  0  0  0  0  0  0  0
  -27.9361  -32.3043   25.1960 C   0  0  0  0  0  0  0  0  0  0  0  0
  -22.8430  -35.2127   21.6642 C   0  0  0  0  0  0  0  0  0  0  0  0
  -19.8463  -26.6859   20.0125 C   0  0  0  0  0  0  0  0  0  1  0  0
  -25.7281  -31.9087   24.0295 C   0  0  1  0  0  0  0  0  0  0  0  0
  -24.0768  -35.3153   23.8335 C   0  0  2  0  0  0  0  0  0  0  0  0
  -26.6068  -31.5204   25.2521 C   0  0  0  0  0  0  0  0  0  0  0  0
  -26.4608  -18.0176   22.5302 N   0  0  0  0  0  0  0  0  0  0  0  0
  -26.3993  -19.3405   22.7588 N   0  0  0  0  0  0  0  0  0  0  0  0
  -25.6552  -30.6351   21.9091 N   0  0  0  0  0  0  0  0  0  0  0  0
  -23.2722  -19.5426   24.9414 N   0  0  0  0  0  0  0  0  0  0  0  0
  -27.3097  -21.4191   22.0794 N   0  0  0  0  0  0  0  0  0  0  0  0
  -29.4756  -18.4319   19.4753 N   0  0  0  0  0  0  0  0  0  0  0  0
  -21.5049  -19.8984   23.4208 N   0  0  0  0  0  0  0  0  0  0  0  0
  -27.6044  -28.1199   20.1284 N   0  0  0  0  0  0  0  0  0  0  0  0
  -25.4239  -33.3328   23.9406 N   0  0  0  0  0  0  0  0  0  0  0  0
  -18.5018  -24.6358   20.0952 N   0  0  0  0  0  0  0  0  0  0  0  0
  -22.8850  -35.7469   23.0498 N   0  3  0  0  0  0  0  0  0  0  0  0
  -29.2756  -20.6592   19.9831 O   0  0  0  0  0  0  0  0  0  0  0  0
  -26.7046  -28.3314   22.2657 O   0  0  0  0  0  0  0  0  0  0  0  0
  -27.4622  -32.0190   22.4148 O   0  0  0  0  0  0  0  0  0  0  0  0
  -18.6934  -25.9782   22.0094 O   0  0  0  0  0  0  0  0  0  0  0  0
  -23.1169  -33.1032   23.9843 O   0  0  0  0  0  0  0  0  0  0  0  0
  -21.2625  -20.4250   25.6671 O   0  0  0  0  0  0  0  0  0  0  0  0
  -16.6243  -23.9642   21.7375 O   0  0  0  0  0  0  0  0  0  0  0  0
  -16.9376  -22.6380   19.6203 O   0  0  0  0  0  0  0  0  0  0  0  0
  -28.7669  -12.9064   19.5126 O   0  0  0  0  0  0  0  0  0  0  0  0
  -20.2967  -27.7873   20.8001 O   0  0  0  0  0  0  0  0  0  1  0  0
  -29.1888  -12.4171   14.0366 F   0  0  0  0  0  0  0  0  0  0  0  0
  -27.1709  -11.1296   18.1202 F   0  0  0  0  0  0  0  0  0  0  0  0
  -17.4922  -23.4044   20.7195 S   0  0  0  0  0  0  0  0  0  0  0  0
  1  2  1  0  0  0  0
  1  5  2  0  0  0  0
  2  6  2  0  0  0  0
  3 10  2  0  0  0  0
  3 19  1  0  0  0  0
  4 11  1  0  0  0  0
  4 19  2  0  0  0  0
  5 21  1  0  0  0  0
  6 23  1  0  0  0  0
  7 12  2  0  0  0  0
  7 22  1  0  0  0  0
  8 15  2  0  0  0  0
  8 25  1  0  0  0  0
  9 16  1  0  0  0  0
  9 25  2  0  0  0  0
 10 26  1  0  0  0  0
 11 26  2  0  0  0  0
 12 27  1  0  0  0  0
 13 14  2  0  0  0  0
 13 28  1  0  0  0  0
 14 29  1  0  0  0  0
 15 31  1  0  0  0  0
 16 31  2  0  0  0  0
 17 24  1  0  0  0  0
 17 27  2  0  0  0  0
 18 29  2  0  0  0  0
 18 30  1  0  0  0  0
 19 32  1  0  0  0  0
 20 32  1  0  0  0  0
 20 33  2  0  0  0  0
 20 34  1  0  0  0  0
 21 23  2  0  0  0  0
 21 40  1  0  0  0  0
 22 24  2  0  0  0  0
 22 41  1  0  0  0  0
 23 49  1  0  0  0  0
 24 42  1  0  0  0  0
 25 67  1  0  0  0  0
 26 80  1  0  0  0  0
 27 81  1  0  0  0  0
 28 30  2  0  0  0  0
 28 80  1  0  0  0  0
 29 82  1  0  0  0  0
 30 83  1  0  0  0  0
 31 84  1  0  0  0  0
 32 61  2  0  0  0  0
 33 62  1  0  0  0  0
 33 65  1  0  0  0  0
 34 66  1  0  0  0  0
 34 72  2  0  0  0  0
 35 50  1  0  0  0  0
 35 68  1  0  0  0  0
 35 73  2  0  0  0  0
 36 58  1  0  0  0  0
 36 63  1  0  0  0  0
 36 74  2  0  0  0  0
 37 57  1  0  0  0  0
 37 70  1  0  0  0  0
 37 75  2  0  0  0  0
 38 59  1  0  0  0  0
 38 69  1  0  0  0  0
 38 76  2  0  0  0  0
 39 64  1  0  0  0  0
 39 67  1  0  0  0  0
 39 77  2  0  0  0  0
 40 43  1  0  0  0  0
 41 50  1  0  0  0  0
 42 63  1  0  0  0  0
 43 45  1  0  0  0  0
 44 46  1  0  0  0  0
 44 47  1  0  0  0  0
 45 49  1  0  0  0  0
 46 51  1  0  0  0  0
 47 64  1  0  0  0  0
 48 51  1  0  0  0  0
 48 64  1  0  0  0  0
 49 68  1  0  0  0  0
 50 63  1  0  0  0  0
 51 62  1  0  0  0  0
 52 59  1  0  0  0  0
 53 60  1  0  0  0  0
 54 60  1  0  0  0  0
 55 60  1  0  0  0  0
 56 71  1  0  0  0  0
 57 81  1  0  0  0  0
 58 60  1  0  0  0  0
 58 69  1  0  0  0  0
 59 71  1  0  0  0  0
 61 62  1  0  0  0  0
 70 84  1  0  0  0  0
 78 84  2  0  0  0  0
 79 84  2  0  0  0  0
M  CHG  1  71   1
M  ISO  4  39 100  57 101  67 100  81 101
M  END
> <Batch ID>
0075

> <Smiles>
CNC(C)C(=O)NC(C(=O)N1Cc2cc([101O:1][101CH2:1]C(=O)NS(=O)(=O)c3ccc([100NH:0][100C:0](=O)N4CCCC(n5nc(-c6ccc(Oc7ccc(F)cc7F)cc6)c(C(N)=O)c5N)C4)cc3)ccc2CC1C(=O)NC1CCCc2ccccc21)C(C)(C)C

> <Shape>
0.268

> <Color>
0.070

> <Negative vol penalty>
0.000

$$$$

  -OEChem-04042323473D

 88 97  0     1  0  0  0  0  0999 V2000
  -35.6581  -29.0287   14.4447 C   0  0  0  0  0  0  0  0  0  0  0  0
  -36.2382  -29.0895   15.7077 C   0  0  0  0  0  0  0  0  0  0  0  0
  -23.0155   -9.9093   19.8983 C   0  0  0  0  0  0  0  0  0  0  0  0
  -23.8094   -9.8003   22.1775 C   0  0  0  0  0  0  0  0  0  0  0  0
  -34.2705  -29.0658   14.3137 C   0  0  0  0  0  0  0  0  0  0  0  0
  -35.4311  -29.1885   16.8404 C   0  0  0  0  0  0  0  0  0  0  0  0
  -35.1022  -24.6120   23.1630 C   0  0  0  0  0  0  0  0  0  0  0  0
  -30.6502  -18.0365   24.2454 C   0  0  0  0  0  0  0  0  0  0  0  0
  -30.0306  -17.2056   23.3120 C   0  0  0  0  0  0  0  0  0  0  0  0
  -22.2502   -8.7626   20.1100 C   0  0  0  0  0  0  0  0  0  0  0  0
  -23.0441   -8.6536   22.3892 C   0  0  0  0  0  0  0  0  0  0  0  0
  -34.8412  -23.7880   24.2580 C   0  0  0  0  0  0  0  0  0  0  0  0
  -19.8084   -7.8996   23.0078 C   0  0  0  0  0  0  0  0  0  0  0  0
  -19.0683   -7.8250   24.1877 C   0  0  0  0  0  0  0  0  0  0  0  0
  -32.5695  -24.6121   24.3503 C   0  0  0  0  0  0  0  0  0  0  0  0
  -32.1869  -16.3372   22.6537 C   0  0  0  0  0  0  0  0  0  0  0  0
  -20.2775   -5.8312   24.8202 C   0  0  0  0  0  0  0  0  0  0  0  0
  -23.7952  -10.4282   20.9320 C   0  0  0  0  0  0  0  0  0  0  0  0
  -24.1908  -12.9483   20.9156 C   0  0  0  0  0  0  0  0  0  0  0  0
  -33.4456  -29.1555   15.4460 C   0  0  0  0  0  0  0  0  0  0  0  0
  -34.0921  -25.4288   22.6472 C   0  0  0  0  0  0  0  0  0  0  0  0
  -34.0312  -29.2281   16.7244 C   0  0  0  0  0  0  0  0  0  0  0  0
  -32.8215  -25.4303   23.2458 C   0  0  0  0  0  0  0  0  0  0  0  0
  -32.8065  -17.1682   23.5871 C   0  0  0  0  0  0  0  0  0  0  0  0
  -32.0382  -18.0179   24.3829 C   0  0  0  0  0  0  0  0  0  0  0  0
  -30.7989  -16.3559   22.5161 C   0  0  0  0  0  0  0  0  0  0  0  0
  -22.2645   -8.1347   21.3555 C   0  0  0  0  0  0  0  0  0  0  0  0
  -33.5781  -23.7883   24.8503 C   0  0  0  0  0  0  0  0  0  0  0  0
  -20.7831   -6.9399   22.7340 C   0  0  0  0  0  0  0  0  0  0  0  0
  -19.3029   -6.7908   25.0939 C   0  0  0  0  0  0  0  0  0  0  0  0
  -21.0176   -5.9058   23.6402 C   0  0  0  0  0  0  0  0  0  0  0  0
  -24.5864  -11.6124   20.7137 C   0  0  0  0  0  0  0  0  0  0  0  0
  -25.2937  -13.6893   20.5678 C   0  0  0  0  0  0  0  0  0  0  0  0
  -32.1781  -20.1296   25.7751 C   0  0  0  0  0  0  0  0  0  0  0  0
  -22.9384  -13.4725   21.3764 C   0  0  0  0  0  0  0  0  0  0  0  0
  -33.0831  -27.9510   20.0595 C   0  0  0  0  0  0  0  0  0  0  0  0
  -30.7227  -26.0196   20.3892 C   0  0  0  0  0  0  0  0  0  0  0  0
  -28.5232  -23.4362   20.7435 C   0  0  0  0  0  0  0  0  0  0  0  0
  -30.7836  -14.6092   20.7009 C   0  0  0  0  0  0  0  0  0  0  0  0
  -31.9524  -29.2401   15.2515 C   0  0  0  0  0  0  0  0  0  0  0  0
  -34.3459  -26.3778   21.5076 C   0  0  0  0  0  0  0  0  0  0  0  0
  -31.7756  -26.3509   22.6788 C   0  0  0  0  0  0  0  0  0  0  0  0
  -31.1559  -28.9681   16.5250 C   0  0  0  0  0  0  0  0  0  0  0  0
  -29.5811  -12.3250   18.2486 C   0  0  0  0  0  0  0  0  0  0  0  0
  -31.7443  -29.7445   17.6987 C   0  0  0  0  0  0  0  0  0  0  0  0
  -28.1419  -12.0459   18.6880 C   0  0  0  0  0  0  0  0  0  0  0  0
  -34.0247  -19.4957   27.1409 C   0  0  0  0  0  0  0  0  0  0  0  0
  -30.5188  -12.4817   19.4444 C   0  0  0  0  0  0  0  0  0  0  0  0
  -33.9280  -18.5561   25.9556 C   0  0  0  0  0  0  0  0  0  0  0  0
  -28.6491  -13.1861   20.8856 C   0  0  0  0  0  0  0  0  0  0  0  0
  -33.1884  -29.3109   17.9785 C   0  0  1  0  0  0  0  0  0  0  0  0
  -33.2172  -20.7152   26.7147 C   0  0  1  0  0  0  0  0  0  0  0  0
  -33.1302  -26.5439   20.5783 C   0  0  1  0  0  0  0  0  0  0  0  0
  -27.6553  -13.0850   19.7170 C   0  0  2  0  0  0  0  0  0  0  0  0
  -34.9998  -18.0868   22.7537 C   0  0  0  0  0  0  0  0  0  0  0  0
  -26.2993  -22.6157   19.9200 C   0  0  0  0  0  0  0  0  0  0  0  0
  -29.3163  -28.0732   22.1523 C   0  0  0  0  0  0  0  0  0  0  0  0
  -27.2612  -26.6469   22.0521 C   0  0  0  0  0  0  0  0  0  0  0  0
  -28.1939  -27.6362   19.9607 C   0  0  0  0  0  0  0  0  0  0  0  0
  -29.7169  -20.9699   19.6249 C   0  0  0  0  0  0  0  0  0  0  0  0
  -34.5804  -14.9551   24.5611 C   0  0  0  0  0  0  0  0  0  0  0  0
  -34.0584  -21.7537   25.9849 C   0  0  0  0  0  0  0  0  0  1  0  0
  -34.2949  -17.1281   23.7129 C   0  0  2  0  0  0  0  0  0  0  0  0
  -29.4151  -25.7265   21.0804 C   0  0  1  0  0  0  0  0  0  0  0  0
  -27.8061  -22.5758   19.7188 C   0  0  2  0  0  0  0  0  0  0  0  0
  -28.5712  -27.0100   21.3209 C   0  0  0  0  0  0  0  0  0  0  0  0
  -25.8425  -11.5078   20.2717 N   0  0  0  0  0  0  0  0  0  0  0  0
  -26.2457  -12.7874   20.1930 N   0  0  0  0  0  0  0  0  0  0  0  0
  -32.6528  -18.8760   25.3439 N   0  0  0  0  0  0  0  0  0  0  0  0
  -31.8189  -26.3155   21.2086 N   0  0  0  0  0  0  0  0  0  0  0  0
  -29.9958  -13.4851   20.3742 N   0  0  0  0  0  0  0  0  0  0  0  0
  -25.5323  -15.0179   20.5489 N   0  0  0  0  0  0  0  0  0  0  0  0
  -21.9118  -12.5713   21.6902 N   0  0  0  0  0  0  0  0  0  0  0  0
  -30.1690  -15.5114   21.5686 N   0  0  0  0  0  0  0  0  0  0  0  0
  -33.2089  -28.0491   18.6869 N   0  0  0  0  0  0  0  0  0  0  0  0
  -28.7447  -24.7132   20.2728 N   0  0  0  0  0  0  0  0  0  0  0  0
  -28.2571  -21.1594   19.8252 N   0  3  0  0  0  0  0  0  0  0  0  0
  -31.1652  -20.7368   25.4567 O   0  0  0  0  0  0  0  0  0  0  0  0
  -22.7302  -14.7042   21.4905 O   0  0  0  0  0  0  0  0  0  0  0  0
  -32.9415  -28.8804   20.8456 O   0  0  0  0  0  0  0  0  0  0  0  0
  -30.7724  -25.9932   19.1563 O   0  0  0  0  0  0  0  0  0  0  0  0
  -28.8505  -23.0185   21.8520 O   0  0  0  0  0  0  0  0  0  0  0  0
  -31.9091  -14.7739   20.2232 O   0  0  0  0  0  0  0  0  0  0  0  0
  -21.5176   -7.0158   21.5625 O   0  0  0  0  0  0  0  0  0  0  0  0
  -33.3288  -22.9781   25.9163 O   0  0  0  0  0  0  0  0  0  1  0  0
  -34.7495  -15.7996   23.4352 O   0  0  0  0  0  0  0  0  0  0  0  0
  -18.5931   -6.7202   26.2277 F   0  0  0  0  0  0  0  0  0  0  0  0
  -21.9535   -4.9817   23.3832 F   0  0  0  0  0  0  0  0  0  0  0  0
  1  2  1  0  0  0  0
  1  5  2  0  0  0  0
  2  6  2  0  0  0  0
  3 10  2  0  0  0  0
  3 18  1  0  0  0  0
  4 11  1  0  0  0  0
  4 18  2  0  0  0  0
  5 20  1  0  0  0  0
  6 22  1  0  0  0  0
  7 12  2  0  0  0  0
  7 21  1  0  0  0  0
  8  9  2  0  0  0  0
  8 25  1  0  0  0  0
  9 26  1  0  0  0  0
 10 27  1  0  0  0  0
 11 27  2  0  0  0  0
 12 28  1  0  0  0  0
 13 14  2  0  0  0  0
 13 29  1  0  0  0  0
 14 30  1  0  0  0  0
 15 23  1  0  0  0  0
 15 28  2  0  0  0  0
 16 24  1  0  0  0  0
 16 26  2  0  0  0  0
 17 30  2  0  0  0  0
 17 31  1  0  0  0  0
 18 32  1  0  0  0  0
 19 32  1  0  0  0  0
 19 33  2  0  0  0  0
 19 35  1  0  0  0  0
 20 22  2  0  0  0  0
 20 40  1  0  0  0  0
 21 23  2  0  0  0  0
 21 41  1  0  0  0  0
 22 51  1  0  0  0  0
 23 42  1  0  0  0  0
 24 25  2  0  0  0  0
 24 63  1  0  0  0  0
 25 69  1  0  0  0  0
 26 74  1  0  0  0  0
 27 84  1  0  0  0  0
 28 85  1  0  0  0  0
 29 31  2  0  0  0  0
 29 84  1  0  0  0  0
 30 87  1  0  0  0  0
 31 88  1  0  0  0  0
 32 67  2  0  0  0  0
 33 68  1  0  0  0  0
 33 72  1  0  0  0  0
 34 52  1  0  0  0  0
 34 69  1  0  0  0  0
 34 78  2  0  0  0  0
 35 73  1  0  0  0  0
 35 79  2  0  0  0  0
 36 53  1  0  0  0  0
 36 75  1  0  0  0  0
 36 80  2  0  0  0  0
 37 64  1  0  0  0  0
 37 70  1  0  0  0  0
 37 81  2  0  0  0  0
 38 65  1  0  0  0  0
 38 76  1  0  0  0  0
 38 82  2  0  0  0  0
 39 71  1  0  0  0  0
 39 74  1  0  0  0  0
 39 83  2  0  0  0  0
 40 43  1  0  0  0  0
 41 53  1  0  0  0  0
 42 70  1  0  0  0  0
 43 45  1  0  0  0  0
 44 46  1  0  0  0  0
 44 48  1  0  0  0  0
 45 51  1  0  0  0  0
 46 54  1  0  0  0  0
 47 49  1  0  0  0  0
 47 52  1  0  0  0  0
 48 71  1  0  0  0  0
 49 69  1  0  0  0  0
 50 54  1  0  0  0  0
 50 71  1  0  0  0  0
 51 75  1  0  0  0  0
 52 62  1  0  0  0  0
 53 70  1  0  0  0  0
 54 68  1  0  0  0  0
 55 63  1  0  0  0  0
 56 65  1  0  0  0  0
 57 66  1  0  0  0  0
 58 66  1  0  0  0  0
 59 66  1  0  0  0  0
 60 77  1  0  0  0  0
 61 86  1  0  0  0  0
 62 85  1  0  0  0  0
 63 86  1  0  0  0  0
 64 66  1  0  0  0  0
 64 76  1  0  0  0  0
 65 77  1  0  0  0  0
 67 68  1  0  0  0  0
M  CHG  1  77   1
M  ISO  4  39 100  62 101  74 100  85 101
M  END
> <Batch ID>
0075

> <Smiles>
CNC(C)C(=O)NC(C(=O)N1Cc2cc([101O:1][101CH2:1]C3CCN(c4ccc([100NH:0][100C:0](=O)N5CCCC(n6nc(-c7ccc(Oc8ccc(F)cc8F)cc7)c(C(N)=O)c6N)C5)cc4C(C)OC)C3=O)ccc2CC1C(=O)NC1CCCc2ccccc21)C(C)(C)C

> <Shape>
0.231

> <Color>
0.199

> <Negative vol penalty>
0.000

$$$$

  -OEChem-04042323473D

 86 94  0     1  0  0  0  0  0999 V2000
  -33.7448  -33.1824   15.9357 C   0  0  0  0  0  0  0  0  0  0  0  0
  -33.1940  -32.1079   16.6268 C   0  0  0  0  0  0  0  0  0  0  0  0
  -23.7208   -9.6902   21.3596 C   0  0  0  0  0  0  0  0  0  0  0  0
  -24.3378  -10.6934   23.4692 C   0  0  0  0  0  0  0  0  0  0  0  0
  -31.6159  -19.6786   21.5924 C   0  0  0  0  0  0  0  0  0  0  0  0
  -33.7642  -34.4487   16.5188 C   0  0  0  0  0  0  0  0  0  0  0  0
  -32.6632  -32.2990   17.9020 C   0  0  0  0  0  0  0  0  0  0  0  0
  -28.1938  -29.9973   18.5108 C   0  0  0  0  0  0  0  0  0  0  0  0
  -31.2396  -18.4299   21.0978 C   0  0  0  0  0  0  0  0  0  0  0  0
  -23.1758   -8.5998   22.0375 C   0  0  0  0  0  0  0  0  0  0  0  0
  -23.7927   -9.6030   24.1471 C   0  0  0  0  0  0  0  0  0  0  0  0
  -28.2113  -28.6209   18.7321 C   0  0  0  0  0  0  0  0  0  0  0  0
  -20.3340   -7.8819   23.7232 C   0  0  0  0  0  0  0  0  0  0  0  0
  -19.0844   -7.4202   23.3098 C   0  0  0  0  0  0  0  0  0  0  0  0
  -29.2895  -20.2779   21.8495 C   0  0  0  0  0  0  0  0  0  0  0  0
  -27.9188  -29.0034   21.0959 C   0  0  0  0  0  0  0  0  0  0  0  0
  -20.0467   -5.2605   22.8131 C   0  0  0  0  0  0  0  0  0  0  0  0
  -24.3019  -10.7370   22.0755 C   0  0  0  0  0  0  0  0  0  0  0  0
  -30.6409  -20.6026   21.9683 C   0  0  0  0  0  0  0  0  0  0  0  0
  -24.2059  -13.0503   21.0045 C   0  0  0  0  0  0  0  0  0  0  0  0
  -33.2247  -34.6573   17.7979 C   0  0  0  0  0  0  0  0  0  0  0  0
  -28.0493  -30.8889   19.5834 C   0  0  0  0  0  0  0  0  0  0  0  0
  -32.6766  -33.5690   18.5033 C   0  0  0  0  0  0  0  0  0  0  0  0
  -27.8972  -30.3906   20.8852 C   0  0  0  0  0  0  0  0  0  0  0  0
  -29.8882  -18.1052   20.9789 C   0  0  0  0  0  0  0  0  0  0  0  0
  -23.2117   -8.5562   23.4313 C   0  0  0  0  0  0  0  0  0  0  0  0
  -28.0767  -28.1238   20.0252 C   0  0  0  0  0  0  0  0  0  0  0  0
  -21.4400   -7.0329   23.6815 C   0  0  0  0  0  0  0  0  0  0  0  0
  -18.9407   -6.1095   22.8547 C   0  0  0  0  0  0  0  0  0  0  0  0
  -28.9132  -19.0292   21.3548 C   0  0  0  0  0  0  0  0  0  0  0  0
  -21.2963   -5.7222   23.2265 C   0  0  0  0  0  0  0  0  0  0  0  0
  -24.8656  -11.8634   21.3757 C   0  0  0  0  0  0  0  0  0  0  0  0
  -25.1699  -13.7947   20.3695 C   0  0  0  0  0  0  0  0  0  0  0  0
  -31.0399  -21.9298   22.4943 C   0  0  0  0  0  0  0  0  0  0  0  0
  -22.8436  -13.4447   21.2148 C   0  0  0  0  0  0  0  0  0  0  0  0
  -29.8425  -33.1910   20.8438 C   0  0  0  0  0  0  0  0  0  0  0  0
  -27.2129  -33.7017   22.6731 C   0  0  0  0  0  0  0  0  0  0  0  0
  -24.3414  -32.4538   24.0312 C   0  0  0  0  0  0  0  0  0  0  0  0
  -30.3526  -15.8062   20.0596 C   0  0  0  0  0  0  0  0  0  0  0  0
  -30.7585  -24.3037   22.0637 C   0  0  0  0  0  0  0  0  0  0  0  0
  -33.3110  -36.0345   18.4064 C   0  0  0  0  0  0  0  0  0  0  0  0
  -28.0055  -32.3700   19.3248 C   0  0  0  0  0  0  0  0  0  0  0  0
  -27.7189  -31.3050   22.0686 C   0  0  0  0  0  0  0  0  0  0  0  0
  -32.3901  -36.2282   19.6084 C   0  0  0  0  0  0  0  0  0  0  0  0
  -29.8095  -12.5220   18.7960 C   0  0  0  0  0  0  0  0  0  0  0  0
  -32.5017  -35.0435   20.5627 C   0  0  0  0  0  0  0  0  0  0  0  0
  -28.4206  -12.1555   19.3240 C   0  0  0  0  0  0  0  0  0  0  0  0
  -30.6020  -13.3465   19.8090 C   0  0  0  0  0  0  0  0  0  0  0  0
  -28.5236  -14.1749   20.8400 C   0  0  0  0  0  0  0  0  0  0  0  0
  -32.0687  -33.7412   19.8784 C   0  0  1  0  0  0  0  0  0  0  0  0
  -28.3688  -33.2017   20.5510 C   0  0  1  0  0  0  0  0  0  0  0  0
  -27.6634  -13.3994   19.8289 C   0  0  2  0  0  0  0  0  0  0  0  0
  -22.4205  -33.0980   25.5120 C   0  0  0  0  0  0  0  0  0  0  0  0
  -29.0221  -33.4658   25.1187 C   0  0  0  0  0  0  0  0  0  0  0  0
  -26.9702  -33.1638   26.5211 C   0  0  0  0  0  0  0  0  0  0  0  0
  -27.3134  -35.2867   25.2569 C   0  0  0  0  0  0  0  0  0  0  0  0
  -22.3686  -31.9684   21.8792 C   0  0  0  0  0  0  0  0  0  0  0  0
  -29.3470  -24.7426   20.0626 C   0  0  0  0  0  0  0  0  0  0  0  0
  -28.8643  -25.9859   19.3434 C   0  0  0  0  0  0  0  0  0  1  0  0
  -26.7140  -33.1776   23.9981 C   0  0  1  0  0  0  0  0  0  0  0  0
  -22.9281  -33.0056   24.0814 C   0  0  2  0  0  0  0  0  0  0  0  0
  -27.5102  -33.7560   25.2018 C   0  0  0  0  0  0  0  0  0  0  0  0
  -26.1493  -11.8500   21.0072 N   0  0  0  0  0  0  0  0  0  0  0  0
  -26.3041  -13.0377   20.3977 N   0  0  0  0  0  0  0  0  0  0  0  0
  -27.6890  -32.7453   21.7651 N   0  0  0  0  0  0  0  0  0  0  0  0
  -29.8239  -14.5104   20.2390 N   0  0  0  0  0  0  0  0  0  0  0  0
  -25.1495  -15.0163   19.7954 N   0  0  0  0  0  0  0  0  0  0  0  0
  -31.7823  -21.9248   23.6026 N   0  0  0  0  0  0  0  0  0  0  0  0
  -21.9878  -12.5601   21.8850 N   0  0  0  0  0  0  0  0  0  0  0  0
  -31.4915  -24.7913   23.0650 N   0  0  0  0  0  0  0  0  0  0  0  0
  -29.5094  -16.8357   20.4762 N   0  0  0  0  0  0  0  0  0  0  0  0
  -30.6254  -33.6632   19.8076 N   0  0  0  0  0  0  0  0  0  0  0  0
  -25.2834  -33.4607   24.0366 N   0  0  0  0  0  0  0  0  0  0  0  0
  -30.5740  -22.9982   21.8330 N   0  3  0  0  0  0  0  0  0  0  0  0
  -30.1749  -25.1484   21.2011 N   0  3  0  0  0  0  0  0  0  0  0  0
  -22.0021  -32.1292   23.3098 N   0  3  0  0  0  0  0  0  0  0  0  0
  -22.3943  -14.5421   20.8057 O   0  0  0  0  0  0  0  0  0  0  0  0
  -30.2398  -32.7858   21.9299 O   0  0  0  0  0  0  0  0  0  0  0  0
  -27.1746  -34.9141   22.4493 O   0  0  0  0  0  0  0  0  0  0  0  0
  -24.5855  -31.2497   23.9950 O   0  0  0  0  0  0  0  0  0  0  0  0
  -31.4597  -15.9901   19.5472 O   0  0  0  0  0  0  0  0  0  0  0  0
  -22.6798   -7.4925   24.0931 O   0  0  0  0  0  0  0  0  0  0  0  0
  -28.0942  -26.7808   20.2441 O   0  0  0  0  0  0  0  0  0  1  0  0
  -17.7403   -5.6658   22.4592 F   0  0  0  0  0  0  0  0  0  0  0  0
  -27.6115  -18.7283   21.2436 F   0  0  0  0  0  0  0  0  0  0  0  0
  -22.3549   -4.9015   23.1853 F   0  0  0  0  0  0  0  0  0  0  0  0
  1  2  1  0  0  0  0
  1  6  2  0  0  0  0
  2  7  2  0  0  0  0
  3 10  2  0  0  0  0
  3 18  1  0  0  0  0
  4 11  1  0  0  0  0
  4 18  2  0  0  0  0
  5  9  2  0  0  0  0
  5 19  1  0  0  0  0
  6 21  1  0  0  0  0
  7 23  1  0  0  0  0
  8 12  2  0  0  0  0
  8 22  1  0  0  0  0
  9 25  1  0  0  0  0
 10 26  1  0  0  0  0
 11 26  2  0  0  0  0
 12 27  1  0  0  0  0
 13 14  2  0  0  0  0
 13 28  1  0  0  0  0
 14 29  1  0  0  0  0
 15 19  2  0  0  0  0
 15 30  1  0  0  0  0
 16 24  1  0  0  0  0
 16 27  2  0  0  0  0
 17 29  2  0  0  0  0
 17 31  1  0  0  0  0
 18 32  1  0  0  0  0
 19 34  1  0  0  0  0
 20 32  1  0  0  0  0
 20 33  2  0  0  0  0
 20 35  1  0  0  0  0
 21 23  2  0  0  0  0
 21 41  1  0  0  0  0
 22 24  2  0  0  0  0
 22 42  1  0  0  0  0
 23 50  1  0  0  0  0
 24 43  1  0  0  0  0
 25 30  2  0  0  0  0
 25 71  1  0  0  0  0
 26 82  1  0  0  0  0
 27 83  1  0  0  0  0
 28 31  2  0  0  0  0
 28 82  1  0  0  0  0
 29 84  1  0  0  0  0
 30 85  1  0  0  0  0
 31 86  1  0  0  0  0
 32 63  2  0  0  0  0
 33 64  1  0  0  0  0
 33 67  1  0  0  0  0
 34 68  1  0  0  0  0
 34 74  2  0  0  0  0
 35 69  1  0  0  0  0
 35 77  2  0  0  0  0
 36 51  1  0  0  0  0
 36 72  1  0  0  0  0
 36 78  2  0  0  0  0
 37 60  1  0  0  0  0
 37 65  1  0  0  0  0
 37 79  2  0  0  0  0
 38 61  1  0  0  0  0
 38 73  1  0  0  0  0
 38 80  2  0  0  0  0
 39 66  1  0  0  0  0
 39 71  1  0  0  0  0
 39 81  2  0  0  0  0
 40 70  1  0  0  0  0
 40 74  1  0  0  0  0
 40 75  2  0  0  0  0
 41 44  1  0  0  0  0
 42 51  1  0  0  0  0
 43 65  1  0  0  0  0
 44 46  1  0  0  0  0
 45 47  1  0  0  0  0
 45 48  1  0  0  0  0
 46 50  1  0  0  0  0
 47 52  1  0  0  0  0
 48 66  1  0  0  0  0
 49 52  1  0  0  0  0
 49 66  1  0  0  0  0
 50 72  1  0  0  0  0
 51 65  1  0  0  0  0
 52 64  1  0  0  0  0
 53 61  1  0  0  0  0
 54 62  1  0  0  0  0
 55 62  1  0  0  0  0
 56 62  1  0  0  0  0
 57 76  1  0  0  0  0
 58 59  1  0  0  0  0
 58 75  1  0  0  0  0
 59 83  1  0  0  0  0
 60 62  1  0  0  0  0
 60 73  1  0  0  0  0
 61 76  1  0  0  0  0
 63 64  1  0  0  0  0
M  CHG  3  74   1  75   1  76   1
M  ISO  4  39 100  59 101  71 100  83 101
M  END
> <Batch ID>
0075

> <Smiles>
CNC(C)C(=O)NC(C(=O)N1Cc2cc([101O:1][101CH2:1]CN=C(N)NC(=N)c3ccc([100NH:0][100C:0](=O)N4CCCC(n5nc(-c6ccc(Oc7ccc(F)cc7F)cc6)c(C(N)=O)c5N)C4)c(F)c3)ccc2CC1C(=O)NC1CCCc2ccccc21)C(C)(C)C

> <Shape>
0.253

> <Color>
0.162

> <Negative vol penalty>
0.000

$$$$

  -OEChem-04042323473D

 95104  0     1  0  0  0  0  0999 V2000
  -29.0530  -18.6945   18.5422 C   0  0  0  0  0  0  0  0  0  0  0  0
  -27.8427  -19.3336   18.7867 C   0  0  0  0  0  0  0  0  0  0  0  0
  -23.1530   -9.7620   19.9780 C   0  0  0  0  0  0  0  0  0  0  0  0
  -23.9649   -9.6976   22.2525 C   0  0  0  0  0  0  0  0  0  0  0  0
  -30.2388  -19.2501   19.0180 C   0  0  0  0  0  0  0  0  0  0  0  0
  -27.8190  -20.5345   19.4966 C   0  0  0  0  0  0  0  0  0  0  0  0
  -23.5014  -22.8751   19.7855 C   0  0  0  0  0  0  0  0  0  0  0  0
  -22.4530   -8.5751   20.1942 C   0  0  0  0  0  0  0  0  0  0  0  0
  -23.2649   -8.5106   22.4688 C   0  0  0  0  0  0  0  0  0  0  0  0
  -22.4451  -22.4141   20.5701 C   0  0  0  0  0  0  0  0  0  0  0  0
  -23.1396   -5.2683   20.3297 C   0  0  0  0  0  0  0  0  0  0  0  0
  -23.2183   -4.2821   19.3465 C   0  0  0  0  0  0  0  0  0  0  0  0
  -22.9405  -24.1036   22.2191 C   0  0  0  0  0  0  0  0  0  0  0  0
  -29.3167  -19.9077   25.0553 C   0  0  0  0  0  0  0  0  0  0  0  0
  -30.3097  -17.9248   24.0967 C   0  0  0  0  0  0  0  0  0  0  0  0
  -28.0256  -18.5082   23.5681 C   0  0  0  0  0  0  0  0  0  0  0  0
  -20.8221   -4.3826   19.0540 C   0  0  0  0  0  0  0  0  0  0  0  0
  -23.9090  -10.3233   21.0071 C   0  0  0  0  0  0  0  0  0  0  0  0
  -24.0971  -12.7975   20.4151 C   0  0  0  0  0  0  0  0  0  0  0  0
  -30.2274  -20.4521   19.7447 C   0  0  0  0  0  0  0  0  0  0  0  0
  -24.2933  -23.9487   20.2177 C   0  0  0  0  0  0  0  0  0  0  0  0
  -29.0076  -21.1237   19.9644 C   0  0  0  0  0  0  0  0  0  0  0  0
  -24.0046  -24.5780   21.4370 C   0  0  0  0  0  0  0  0  0  0  0  0
  -30.4090  -19.0522   24.9120 C   0  0  0  0  0  0  0  0  0  0  0  0
  -28.1249  -19.6356   24.3834 C   0  0  0  0  0  0  0  0  0  0  0  0
  -29.1180  -17.6528   23.4248 C   0  0  0  0  0  0  0  0  0  0  0  0
  -22.5089   -7.9494   21.4396 C   0  0  0  0  0  0  0  0  0  0  0  0
  -22.1664  -23.0265   21.7885 C   0  0  0  0  0  0  0  0  0  0  0  0
  -21.9022   -5.8117   20.6752 C   0  0  0  0  0  0  0  0  0  0  0  0
  -22.0595   -3.8393   18.7086 C   0  0  0  0  0  0  0  0  0  0  0  0
  -20.7435   -5.3688   20.0373 C   0  0  0  0  0  0  0  0  0  0  0  0
  -24.6328  -11.5490   20.7842 C   0  0  0  0  0  0  0  0  0  0  0  0
  -25.1878  -13.6279   20.3313 C   0  0  0  0  0  0  0  0  0  0  0  0
  -24.6890  -20.9179   25.0925 C   0  0  0  0  0  0  0  0  0  0  0  0
  -22.7352  -13.1729   20.1701 C   0  0  0  0  0  0  0  0  0  0  0  0
  -27.3676  -24.3228   20.9335 C   0  0  0  0  0  0  0  0  0  0  0  0
  -26.5253  -27.4444   21.1953 C   0  0  0  0  0  0  0  0  0  0  0  0
  -23.7587  -29.3204   22.5530 C   0  0  0  0  0  0  0  0  0  0  0  0
  -21.2131  -20.8874   24.9499 C   0  0  0  0  0  0  0  0  0  0  0  0
  -30.0070  -15.5574   22.3453 C   0  0  0  0  0  0  0  0  0  0  0  0
  -31.5410  -21.0131   20.2295 C   0  0  0  0  0  0  0  0  0  0  0  0
  -25.4123  -24.4512   19.3472 C   0  0  0  0  0  0  0  0  0  0  0  0
  -24.8120  -25.7472   21.9365 C   0  0  0  0  0  0  0  0  0  0  0  0
  -25.6693  -19.9791   24.4246 C   0  0  0  0  0  0  0  0  0  0  0  0
  -31.3732  -22.0423   21.3426 C   0  0  0  0  0  0  0  0  0  0  0  0
  -30.1393  -12.5790   20.3988 C   0  0  0  0  0  0  0  0  0  0  0  0
  -30.3276  -23.0731   20.9441 C   0  0  0  0  0  0  0  0  0  0  0  0
  -28.6744  -12.1482   20.2952 C   0  0  0  0  0  0  0  0  0  0  0  0
  -25.9883  -22.7011   24.3768 C   0  0  0  0  0  0  0  0  0  0  0  0
  -30.4574  -13.1834   21.7652 C   0  0  0  0  0  0  0  0  0  0  0  0
  -27.2307  -21.9174   24.7757 C   0  0  0  0  0  0  0  0  0  0  0  0
  -28.1054  -13.8461   22.0786 C   0  0  0  0  0  0  0  0  0  0  0  0
  -28.9542  -22.4150   20.7606 C   0  0  1  0  0  0  0  0  0  0  0  0
  -26.4748  -25.2213   20.1252 C   0  0  1  0  0  0  0  0  0  0  0  0
  -27.7213  -13.2907   20.6974 C   0  0  2  0  0  0  0  0  0  0  0  0
  -22.8531  -31.5756   21.9272 C   0  0  0  0  0  0  0  0  0  0  0  0
  -18.9119  -21.4497   24.0923 C   0  0  0  0  0  0  0  0  0  0  0  0
  -19.8749  -19.1858   23.6686 C   0  0  0  0  0  0  0  0  0  0  0  0
  -28.3465  -28.4712   23.4176 C   0  0  0  0  0  0  0  0  0  0  0  0
  -26.5529  -30.1042   24.0377 C   0  0  0  0  0  0  0  0  0  0  0  0
  -27.6120  -30.2145   21.7818 C   0  0  0  0  0  0  0  0  0  0  0  0
  -21.0392  -28.2366   22.1188 C   0  0  0  0  0  0  0  0  0  0  0  0
  -23.4827  -20.3110   25.7587 C   0  0  0  0  0  0  0  0  0  0  0  0
  -20.8117  -21.1917   22.4625 C   0  0  0  0  0  0  0  0  0  1  0  0
  -26.0181  -28.3248   22.3117 C   0  0  1  0  0  0  0  0  0  0  0  0
  -22.6977  -30.0711   21.7686 C   0  0  2  0  0  0  0  0  0  0  0  0
  -31.6831  -19.3432   25.6304 C   0  0  0  0  0  0  0  0  0  0  0  0
  -20.2121  -20.6852   23.7898 C   0  0  0  0  0  0  0  0  0  0  0  0
  -27.1270  -29.2508   22.8867 C   0  0  0  0  0  0  0  0  0  0  0  0
  -25.9607  -11.5790   20.9250 N   0  0  0  0  0  0  0  0  0  0  0  0
  -24.8091  -22.2029   25.0809 N   0  0  0  0  0  0  0  0  0  0  0  0
  -26.2685  -12.8564   20.6428 N   0  0  0  0  0  0  0  0  0  0  0  0
  -27.0326  -20.4912   24.5270 N   0  0  3  0  0  0  0  0  0  0  0  0
  -25.8996  -26.1978   21.0525 N   0  0  0  0  0  0  0  0  0  0  0  0
  -29.5168  -14.2618   22.0771 N   0  0  0  0  0  0  0  0  0  0  0  0
  -25.3184  -14.9355   20.0222 N   0  0  0  0  0  0  0  0  0  0  0  0
  -21.9678  -13.6424   21.2448 N   0  0  0  0  0  0  0  0  0  0  0  0
  -32.5820  -20.1793   24.8320 N   0  0  0  0  0  0  0  0  0  0  0  0
  -29.0177  -16.5076   22.5964 N   0  0  0  0  0  0  0  0  0  0  0  0
  -28.0425  -23.3783   20.1838 N   0  0  0  0  0  0  0  0  0  0  0  0
  -22.4257  -20.2364   24.7777 N   0  0  0  0  0  0  0  0  0  0  0  0
  -24.8627  -29.0372   21.7770 N   0  0  0  0  0  0  0  0  0  0  0  0
  -21.3368  -29.6871   22.2394 N   0  3  0  0  0  0  0  0  0  0  0  0
  -22.2094  -13.0789   19.0351 O   0  0  0  0  0  0  0  0  0  0  0  0
  -27.4400  -24.4761   22.1471 O   0  0  0  0  0  0  0  0  0  0  0  0
  -27.4381  -27.8507   20.4718 O   0  0  0  0  0  0  0  0  0  0  0  0
  -23.6233  -29.0190   23.7368 O   0  0  0  0  0  0  0  0  0  0  0  0
  -20.9436  -21.5712   25.9380 O   0  0  0  0  0  0  0  0  0  0  0  0
  -31.2140  -15.8116   22.3250 O   0  0  0  0  0  0  0  0  0  0  0  0
  -21.8258   -6.7913   21.6510 O   0  0  0  0  0  0  0  0  0  0  0  0
  -21.1364  -22.5781   22.5566 O   0  0  0  0  0  0  0  0  0  1  0  0
  -22.1354   -2.8933   17.7633 F   0  0  0  0  0  0  0  0  0  0  0  0
  -19.5520   -5.8879   20.3640 F   0  0  0  0  0  0  0  0  0  0  0  0
  -31.4821  -19.9878   26.8240 F   0  0  0  0  0  0  0  0  0  0  0  0
  -32.3762  -18.2109   25.9727 F   0  0  0  0  0  0  0  0  0  0  0  0
  1  2  1  0  0  0  0
  1  5  2  0  0  0  0
  2  6  2  0  0  0  0
  3  8  2  0  0  0  0
  3 18  1  0  0  0  0
  4  9  1  0  0  0  0
  4 18  2  0  0  0  0
  5 20  1  0  0  0  0
  6 22  1  0  0  0  0
  7 10  2  0  0  0  0
  7 21  1  0  0  0  0
  8 27  1  0  0  0  0
  9 27  2  0  0  0  0
 10 28  1  0  0  0  0
 11 12  2  0  0  0  0
 11 29  1  0  0  0  0
 12 30  1  0  0  0  0
 13 23  1  0  0  0  0
 13 28  2  0  0  0  0
 14 24  1  0  0  0  0
 14 25  2  0  0  0  0
 15 24  2  0  0  0  0
 15 26  1  0  0  0  0
 16 25  1  0  0  0  0
 16 26  2  0  0  0  0
 17 30  2  0  0  0  0
 17 31  1  0  0  0  0
 18 32  1  0  0  0  0
 19 32  1  0  0  0  0
 19 33  2  0  0  0  0
 19 35  1  0  0  0  0
 20 22  2  0  0  0  0
 20 41  1  0  0  0  0
 21 23  2  0  0  0  0
 21 42  1  0  0  0  0
 22 53  1  0  0  0  0
 23 43  1  0  0  0  0
 24 67  1  0  0  0  0
 25 73  1  0  0  0  0
 26 79  1  0  0  0  0
 27 90  1  0  0  0  0
 28 91  1  0  0  0  0
 29 31  2  0  0  0  0
 29 90  1  0  0  0  0
 30 92  1  0  0  0  0
 31 93  1  0  0  0  0
 32 70  2  0  0  0  0
 33 72  1  0  0  0  0
 33 76  1  0  0  0  0
 34 44  1  0  0  0  0
 34 63  1  0  0  0  0
 34 71  2  0  0  0  0
 35 77  1  0  0  0  0
 35 84  2  0  0  0  0
 36 54  1  0  0  0  0
 36 80  1  0  0  0  0
 36 85  2  0  0  0  0
 37 65  1  0  0  0  0
 37 74  1  0  0  0  0
 37 86  2  0  0  0  0
 38 66  1  0  0  0  0
 38 82  1  0  0  0  0
 38 87  2  0  0  0  0
 39 68  1  0  0  0  0
 39 81  1  0  0  0  0
 39 88  2  0  0  0  0
 40 75  1  0  0  0  0
 40 79  1  0  0  0  0
 40 89  2  0  0  0  0
 41 45  1  0  0  0  0
 42 54  1  0  0  0  0
 43 74  1  0  0  0  0
 44 73  1  0  0  0  0
 45 47  1  0  0  0  0
 46 48  1  0  0  0  0
 46 50  1  0  0  0  0
 47 53  1  0  0  0  0
 48 55  1  0  0  0  0
 49 51  1  0  0  0  0
 49 71  1  0  0  0  0
 50 75  1  0  0  0  0
 51 73  1  0  0  0  0
 52 55  1  0  0  0  0
 52 75  1  0  0  0  0
 53 80  1  0  0  0  0
 54 74  1  0  0  0  0
 55 72  1  0  0  0  0
 56 66  1  0  0  0  0
 57 68  1  0  0  0  0
 58 68  1  0  0  0  0
 59 69  1  0  0  0  0
 60 69  1  0  0  0  0
 61 69  1  0  0  0  0
 62 83  1  0  0  0  0
 63 81  1  0  0  0  0
 64 68  1  0  0  0  0
 64 91  1  0  0  0  0
 65 69  1  0  0  0  0
 65 82  1  0  0  0  0
 66 83  1  0  0  0  0
 67 78  1  0  0  0  0
 67 94  1  0  0  0  0
 67 95  1  0  0  0  0
 70 72  1  0  0  0  0
M  CHG  1  83   1
M  ISO  4  40 100  64 101  79 100  91 101
M  END
> <Batch ID>
0075

> <Smiles>
CNC(C)C(=O)NC(C(=O)N1Cc2cc([101O:1][101CH2:1]C(C)(C)C(=O)NCC3=NCCN(c4cc([100NH:0][100C:0](=O)N5CCCC(n6nc(-c7ccc(Oc8ccc(F)cc8F)cc7)c(C(N)=O)c6N)C5)cc(C(N)(F)F)c4)C3)ccc2CC1C(=O)NC1CCCc2ccccc21)C(C)(C)C

> <Shape>
0.232

> <Color>
0.139

> <Negative vol penalty>
0.000

$$$$

  -OEChem-04042323473D

 85 94  0     1  0  0  0  0  0999 V2000
  -29.0093  -33.9415   25.7006 C   0  0  0  0  0  0  0  0  0  0  0  0
  -28.7478  -32.6228   25.3424 C   0  0  0  0  0  0  0  0  0  0  0  0
  -22.3525  -10.2928   20.5681 C   0  0  0  0  0  0  0  0  0  0  0  0
  -24.3278   -9.3308   21.5729 C   0  0  0  0  0  0  0  0  0  0  0  0
  -27.9779  -34.8796   25.7027 C   0  0  0  0  0  0  0  0  0  0  0  0
  -27.4545  -32.2414   24.9871 C   0  0  0  0  0  0  0  0  0  0  0  0
  -27.3572  -29.3231   20.8496 C   0  0  0  0  0  0  0  0  0  0  0  0
  -30.6594  -18.9192   19.2925 C   0  0  0  0  0  0  0  0  0  0  0  0
  -30.1579  -20.2208   19.2883 C   0  0  0  0  0  0  0  0  0  0  0  0
  -21.7074   -9.0592   20.6550 C   0  0  0  0  0  0  0  0  0  0  0  0
  -23.6827   -8.0971   21.6599 C   0  0  0  0  0  0  0  0  0  0  0  0
  -27.7015  -27.9815   21.0085 C   0  0  0  0  0  0  0  0  0  0  0  0
  -21.3982   -6.6186   23.6637 C   0  0  0  0  0  0  0  0  0  0  0  0
  -21.5131   -5.9119   24.8608 C   0  0  0  0  0  0  0  0  0  0  0  0
  -25.3629  -27.3901   21.0296 C   0  0  0  0  0  0  0  0  0  0  0  0
  -28.9684  -19.7690   21.3421 C   0  0  0  0  0  0  0  0  0  0  0  0
  -22.5467   -4.0763   23.6777 C   0  0  0  0  0  0  0  0  0  0  0  0
  -23.6627  -10.4286   21.0270 C   0  0  0  0  0  0  0  0  0  0  0  0
  -24.3386  -12.7277   21.9017 C   0  0  0  0  0  0  0  0  0  0  0  0
  -26.6732  -34.5117   25.3379 C   0  0  0  0  0  0  0  0  0  0  0  0
  -26.0107  -29.7102   20.7904 C   0  0  0  0  0  0  0  0  0  0  0  0
  -26.4044  -33.1752   24.9856 C   0  0  0  0  0  0  0  0  0  0  0  0
  -25.0042  -28.7370   20.8674 C   0  0  0  0  0  0  0  0  0  0  0  0
  -30.3153  -18.0425   20.3214 C   0  0  0  0  0  0  0  0  0  0  0  0
  -29.3125  -20.6457   20.3132 C   0  0  0  0  0  0  0  0  0  0  0  0
  -29.4698  -18.4674   21.3462 C   0  0  0  0  0  0  0  0  0  0  0  0
  -22.3725   -7.9613   21.2010 C   0  0  0  0  0  0  0  0  0  0  0  0
  -26.7043  -27.0151   21.1014 C   0  0  0  0  0  0  0  0  0  0  0  0
  -21.8574   -6.0542   22.4737 C   0  0  0  0  0  0  0  0  0  0  0  0
  -22.0874   -4.6407   24.8678 C   0  0  0  0  0  0  0  0  0  0  0  0
  -22.4317   -4.7831   22.4807 C   0  0  0  0  0  0  0  0  0  0  0  0
  -24.3298  -11.7026   20.9369 C   0  0  0  0  0  0  0  0  0  0  0  0
  -25.1070  -13.7192   21.3423 C   0  0  0  0  0  0  0  0  0  0  0  0
  -28.1863  -23.8275   20.3361 C   0  0  0  0  0  0  0  0  0  0  0  0
  -28.9807  -22.9707   19.4550 C   0  0  0  0  0  0  0  0  0  0  0  0
  -27.7979  -25.1147   20.2870 C   0  0  0  0  0  0  0  0  0  1  0  0
  -23.7084  -12.7791   23.1885 C   0  0  0  0  0  0  0  0  0  0  0  0
  -24.1308  -31.5673   22.5570 C   0  0  0  0  0  0  0  0  0  0  0  0
  -21.9928  -30.9943   20.1857 C   0  0  0  0  0  0  0  0  0  0  0  0
  -20.9564  -28.9610   17.6483 C   0  0  0  0  0  0  0  0  0  0  0  0
  -29.6560  -15.3653   18.5598 C   0  0  0  0  0  0  0  0  0  0  0  0
  -25.5816  -35.5504   25.4009 C   0  0  0  0  0  0  0  0  0  0  0  0
  -25.6564  -31.1585   20.5919 C   0  0  0  0  0  0  0  0  0  0  0  0
  -23.5442  -29.0982   20.7890 C   0  0  0  0  0  0  0  0  0  0  0  0
  -28.0171  -22.6567   21.2770 C   0  0  0  0  0  0  0  0  0  0  0  0
  -24.3146  -35.1488   24.6501 C   0  0  0  0  0  0  0  0  0  0  0  0
  -26.8765  -14.2518   16.6336 C   0  0  0  0  0  0  0  0  0  0  0  0
  -23.9235  -33.7145   24.9918 C   0  0  0  0  0  0  0  0  0  0  0  0
  -25.9705  -13.5688   17.6596 C   0  0  0  0  0  0  0  0  0  0  0  0
  -28.3539  -14.0170   16.9404 C   0  0  0  0  0  0  0  0  0  0  0  0
  -27.8619  -13.6986   19.3342 C   0  0  0  0  0  0  0  0  0  0  0  0
  -25.0196  -32.7284   24.5701 C   0  0  1  0  0  0  0  0  0  0  0  0
  -24.2447  -31.4978   21.0604 C   0  0  1  0  0  0  0  0  0  0  0  0
  -26.3633  -13.9536   19.0986 C   0  0  2  0  0  0  0  0  0  0  0  0
  -19.1555  -28.7354   15.9153 C   0  0  0  0  0  0  0  0  0  0  0  0
  -20.0369  -30.0784   22.3411 C   0  0  0  0  0  0  0  0  0  0  0  0
  -18.6687  -29.0000   20.5429 C   0  0  0  0  0  0  0  0  0  0  0  0
  -19.0174  -31.4700   20.5304 C   0  0  0  0  0  0  0  0  0  0  0  0
  -22.9132  -29.0836   15.4314 C   0  0  0  0  0  0  0  0  0  0  0  0
  -30.8670  -16.6542   20.3010 C   0  0  0  0  0  0  0  0  0  0  0  0
  -20.9403  -29.9437   19.9261 C   0  0  1  0  0  0  0  0  0  0  0  0
  -20.5492  -29.2635   16.2175 C   0  0  2  0  0  0  0  0  0  0  0  0
  -19.6932  -30.1161   20.8386 C   0  0  0  0  0  0  0  0  0  0  0  0
  -25.0365  -12.0141   19.8471 N   0  0  0  0  0  0  0  0  0  0  0  0
  -25.4964  -13.2462   20.1237 N   0  0  0  0  0  0  0  0  0  0  0  0
  -28.8180  -21.9293   20.3082 N   0  0  0  0  0  0  0  0  0  0  0  0
  -23.2483  -30.5281   20.6009 N   0  0  0  0  0  0  0  0  0  0  0  0
  -28.6610  -14.4035   18.3196 N   0  0  0  0  0  0  0  0  0  0  0  0
  -29.1105  -17.5926   22.3952 N   0  0  0  0  0  0  0  0  0  0  0  0
  -25.4808  -14.9407   21.7787 N   0  0  0  0  0  0  0  0  0  0  0  0
  -22.9557  -11.6740   23.6085 N   0  0  0  0  0  0  0  0  0  0  0  0
  -24.9690  -32.4969   23.1425 N   0  0  0  0  0  0  0  0  0  0  0  0
  -20.6484  -30.0024   18.4979 N   0  0  0  0  0  0  0  0  0  0  0  0
  -29.8799  -15.6787   19.8949 N   0  0  0  0  0  0  0  0  0  0  0  0
  -21.5066  -28.6364   15.2630 N   0  3  0  0  0  0  0  0  0  0  0  0
  -29.5614  -23.1246   18.4007 O   0  0  0  0  0  0  0  0  0  0  0  0
  -23.7963  -13.7821   23.9367 O   0  0  0  0  0  0  0  0  0  0  0  0
  -23.3400  -30.8330   23.1375 O   0  0  0  0  0  0  0  0  0  0  0  0
  -21.7136  -32.1842   20.0191 O   0  0  0  0  0  0  0  0  0  0  0  0
  -21.4905  -27.9049   17.9798 O   0  0  0  0  0  0  0  0  0  0  0  0
  -30.2937  -15.9088   17.6515 O   0  0  0  0  0  0  0  0  0  0  0  0
  -21.7433   -6.7574   21.2862 O   0  0  0  0  0  0  0  0  0  0  0  0
  -27.0376  -25.7049   21.2572 O   0  0  0  0  0  0  0  0  0  1  0  0
  -22.1992   -3.9628   26.0176 F   0  0  0  0  0  0  0  0  0  0  0  0
  -22.8758   -4.2361   21.3407 F   0  0  0  0  0  0  0  0  0  0  0  0
  1  2  1  0  0  0  0
  1  5  2  0  0  0  0
  2  6  2  0  0  0  0
  3 10  2  0  0  0  0
  3 18  1  0  0  0  0
  4 11  1  0  0  0  0
  4 18  2  0  0  0  0
  5 20  1  0  0  0  0
  6 22  1  0  0  0  0
  7 12  2  0  0  0  0
  7 21  1  0  0  0  0
  8  9  2  0  0  0  0
  8 24  1  0  0  0  0
  9 25  1  0  0  0  0
 10 27  1  0  0  0  0
 11 27  2  0  0  0  0
 12 28  1  0  0  0  0
 13 14  2  0  0  0  0
 13 29  1  0  0  0  0
 14 30  1  0  0  0  0
 15 23  1  0  0  0  0
 15 28  2  0  0  0  0
 16 25  2  0  0  0  0
 16 26  1  0  0  0  0
 17 30  2  0  0  0  0
 17 31  1  0  0  0  0
 18 32  1  0  0  0  0
 19 32  1  0  0  0  0
 19 33  2  0  0  0  0
 19 37  1  0  0  0  0
 20 22  2  0  0  0  0
 20 42  1  0  0  0  0
 21 23  2  0  0  0  0
 21 43  1  0  0  0  0
 22 52  1  0  0  0  0
 23 44  1  0  0  0  0
 24 26  2  0  0  0  0
 24 60  1  0  0  0  0
 25 66  1  0  0  0  0
 26 69  1  0  0  0  0
 27 82  1  0  0  0  0
 28 83  1  0  0  0  0
 29 31  2  0  0  0  0
 29 82  1  0  0  0  0
 30 84  1  0  0  0  0
 31 85  1  0  0  0  0
 32 64  2  0  0  0  0
 33 65  1  0  0  0  0
 33 70  1  0  0  0  0
 34 35  1  0  0  0  0
 34 36  2  0  0  0  0
 34 45  1  0  0  0  0
 35 66  1  0  0  0  0
 35 76  2  0  0  0  0
 36 83  1  0  0  0  0
 37 71  1  0  0  0  0
 37 77  2  0  0  0  0
 38 53  1  0  0  0  0
 38 72  1  0  0  0  0
 38 78  2  0  0  0  0
 39 61  1  0  0  0  0
 39 67  1  0  0  0  0
 39 79  2  0  0  0  0
 40 62  1  0  0  0  0
 40 73  1  0  0  0  0
 40 80  2  0  0  0  0
 41 68  1  0  0  0  0
 41 74  1  0  0  0  0
 41 81  2  0  0  0  0
 42 46  1  0  0  0  0
 43 53  1  0  0  0  0
 44 67  1  0  0  0  0
 45 66  1  0  0  0  0
 46 48  1  0  0  0  0
 47 49  1  0  0  0  0
 47 50  1  0  0  0  0
 48 52  1  0  0  0  0
 49 54  1  0  0  0  0
 50 68  1  0  0  0  0
 51 54  1  0  0  0  0
 51 68  1  0  0  0  0
 52 72  1  0  0  0  0
 53 67  1  0  0  0  0
 54 65  1  0  0  0  0
 55 62  1  0  0  0  0
 56 63  1  0  0  0  0
 57 63  1  0  0  0  0
 58 63  1  0  0  0  0
 59 75  1  0  0  0  0
 60 74  1  0  0  0  0
 61 63  1  0  0  0  0
 61 73  1  0  0  0  0
 62 75  1  0  0  0  0
 64 65  1  0  0  0  0
M  CHG  1  75   1
M  ISO  4  36 101  41 100  74 100  83 101
M  END
> <Batch ID>
0075

> <Smiles>
CNC(C)C(=O)NC(C(=O)N1Cc2cc([101O:1][101CH:1]=C3CN(c4ccc(C[100NH:0][100C:0](=O)N5CCCC(n6nc(-c7ccc(Oc8ccc(F)cc8F)cc7)c(C(N)=O)c6N)C5)c(N)c4)C3=O)ccc2CC1C(=O)NC1CCCc2ccccc21)C(C)(C)C

> <Shape>
0.335

> <Color>
0.122

> <Negative vol penalty>
0.000

$$$$

  -OEChem-04042323473D

 87 96  0     1  0  0  0  0  0999 V2000
  -21.7442  -11.6368   20.5659 C   0  0  0  0  0  0  0  0  0  0  0  0
  -21.6783  -12.8756   21.1954 C   0  0  0  0  0  0  0  0  0  0  0  0
  -18.2389  -28.1925   23.3383 C   0  0  0  0  0  0  0  0  0  0  0  0
  -28.9452  -28.1381   25.7629 C   0  0  0  0  0  0  0  0  0  0  0  0
  -27.0287  -26.6877   26.0092 C   0  0  0  0  0  0  0  0  0  0  0  0
  -22.9776  -11.1235   20.1670 C   0  0  0  0  0  0  0  0  0  0  0  0
  -22.8461  -13.6016   21.4273 C   0  0  0  0  0  0  0  0  0  0  0  0
  -22.3558  -18.5006   20.2421 C   0  0  0  0  0  0  0  0  0  0  0  0
  -18.8928  -28.8527   22.2981 C   0  0  0  0  0  0  0  0  0  0  0  0
  -18.6688  -26.9282   23.7413 C   0  0  0  0  0  0  0  0  0  0  0  0
  -29.1846  -28.0547   27.1345 C   0  0  0  0  0  0  0  0  0  0  0  0
  -27.2682  -26.6043   27.3808 C   0  0  0  0  0  0  0  0  0  0  0  0
  -21.6796  -19.3113   21.1527 C   0  0  0  0  0  0  0  0  0  0  0  0
  -30.0876  -28.5127   30.6271 C   0  0  0  0  0  0  0  0  0  0  0  0
  -30.3826  -29.6935   31.3085 C   0  0  0  0  0  0  0  0  0  0  0  0
  -23.7919  -20.1090   22.0019 C   0  0  0  0  0  0  0  0  0  0  0  0
  -20.4064  -26.9843   22.0636 C   0  0  0  0  0  0  0  0  0  0  0  0
  -28.2452  -30.6074   30.6501 C   0  0  0  0  0  0  0  0  0  0  0  0
  -27.8672  -27.4546   25.2002 C   0  0  0  0  0  0  0  0  0  0  0  0
  -28.1283  -26.6969   22.7784 C   0  0  0  0  0  0  0  0  0  0  0  0
  -24.1601  -11.8479   20.3854 C   0  0  0  0  0  0  0  0  0  0  0  0
  -23.7576  -18.4797   20.2119 C   0  0  0  0  0  0  0  0  0  0  0  0
  -24.0967  -13.0969   21.0320 C   0  0  0  0  0  0  0  0  0  0  0  0
  -24.4835  -19.2990   21.0882 C   0  0  0  0  0  0  0  0  0  0  0  0
  -19.9765  -28.2486   21.6607 C   0  0  0  0  0  0  0  0  0  0  0  0
  -19.7526  -26.3241   23.1039 C   0  0  0  0  0  0  0  0  0  0  0  0
  -28.3461  -27.2878   27.9435 C   0  0  0  0  0  0  0  0  0  0  0  0
  -22.3977  -20.1136   22.0347 C   0  0  0  0  0  0  0  0  0  0  0  0
  -28.8714  -28.3792   29.9572 C   0  0  0  0  0  0  0  0  0  0  0  0
  -29.4614  -30.7408   31.3200 C   0  0  0  0  0  0  0  0  0  0  0  0
  -27.9502  -29.4266   29.9687 C   0  0  0  0  0  0  0  0  0  0  0  0
  -27.6190  -27.5408   23.7835 C   0  0  0  0  0  0  0  0  0  0  0  0
  -27.6005  -27.1948   21.6121 C   0  0  0  0  0  0  0  0  0  0  0  0
  -21.2192  -24.3406   22.9883 C   0  0  0  0  0  0  0  0  0  0  0  0
  -21.3659  -23.1601   23.6052 C   0  0  0  0  0  0  0  0  0  0  0  0
  -20.3449  -23.0552   24.6366 C   0  0  0  0  0  0  0  0  0  0  0  0
  -20.1395  -22.0394   25.4808 C   0  0  0  0  0  0  0  0  0  0  0  0
  -29.0003  -25.5642   22.8890 C   0  0  0  0  0  0  0  0  0  0  0  0
  -25.9790  -16.2591   20.7000 C   0  0  0  0  0  0  0  0  0  0  0  0
  -27.9885  -18.6100   19.7212 C   0  0  0  0  0  0  0  0  0  0  0  0
  -28.5713  -21.9509   19.3403 C   0  0  0  0  0  0  0  0  0  0  0  0
  -22.6888  -30.3972   20.3998 C   0  0  0  0  0  0  0  0  0  0  0  0
  -25.4749  -11.2309   19.9789 C   0  0  0  0  0  0  0  0  0  0  0  0
  -24.4718  -17.6197   19.2056 C   0  0  0  0  0  0  0  0  0  0  0  0
  -25.9893  -19.3284   21.0824 C   0  0  0  0  0  0  0  0  0  0  0  0
  -19.5244  -24.3339   24.5927 C   0  0  0  0  0  0  0  0  0  0  0  0
  -26.6264  -12.2315   19.9247 C   0  0  0  0  0  0  0  0  0  0  0  0
  -26.0558  -31.2718   19.6417 C   0  0  0  0  0  0  0  0  0  0  0  0
  -26.6315  -13.1076   21.1735 C   0  0  0  0  0  0  0  0  0  0  0  0
  -26.8842  -30.3386   20.5265 C   0  0  0  0  0  0  0  0  0  0  0  0
  -24.7779  -31.7272   20.3428 C   0  0  0  0  0  0  0  0  0  0  0  0
  -24.7620  -29.7019   21.7470 C   0  0  0  0  0  0  0  0  0  0  0  0
  -25.3387  -13.9255   21.2788 C   0  0  1  0  0  0  0  0  0  0  0  0
  -25.9055  -17.2914   19.6106 C   0  0  1  0  0  0  0  0  0  0  0  0
  -26.0330  -29.1715   21.0619 C   0  0  2  0  0  0  0  0  0  0  0  0
  -19.2077  -27.9335   18.7067 C   0  0  0  0  0  0  0  0  0  0  0  0
  -30.3190  -23.5679   18.5476 C   0  0  0  0  0  0  0  0  0  0  0  0
  -29.5718  -18.1537   22.2892 C   0  0  0  0  0  0  0  0  0  0  0  0
  -30.6889  -20.3621   21.9103 C   0  0  0  0  0  0  0  0  0  0  0  0
  -30.9734  -18.5214   20.2509 C   0  0  0  0  0  0  0  0  0  0  0  0
  -26.7897  -23.0236   17.2346 C   0  0  0  0  0  0  0  0  0  0  0  0
  -22.3836  -22.1181   23.3143 C   0  0  0  0  0  0  0  0  0  1  0  0
  -20.6240  -28.1618   19.2203 C   0  0  0  0  0  0  0  0  0  0  0  0
  -20.6748  -28.9545   20.5481 C   0  0  2  0  0  0  0  0  0  0  0  0
  -28.7516  -19.7179   20.4060 C   0  0  1  0  0  0  0  0  0  0  0  0
  -29.0929  -22.7546   18.1628 C   0  0  2  0  0  0  0  0  0  0  0  0
  -29.9681  -19.1870   21.2158 C   0  0  0  0  0  0  0  0  0  0  0  0
  -26.8287  -28.5020   23.2983 N   0  0  0  0  0  0  0  0  0  0  0  0
  -26.8373  -28.2651   21.9754 N   0  0  0  0  0  0  0  0  0  0  0  0
  -20.1756  -25.0807   23.5006 N   0  0  0  0  0  0  0  0  0  0  0  0
  -26.6420  -18.4651   20.0842 N   0  0  0  0  0  0  0  0  0  0  0  0
  -24.0159  -30.5728   20.8251 N   0  0  0  0  0  0  0  0  0  0  0  0
  -27.7196  -26.8171   20.3216 N   0  0  0  0  0  0  0  0  0  0  0  0
  -29.4492  -25.1885   24.1624 N   0  0  0  0  0  0  0  0  0  0  0  0
  -25.3810  -15.0562   20.3765 N   0  0  0  0  0  0  0  0  0  0  0  0
  -29.1004  -20.6778   19.3642 N   0  0  0  0  0  0  0  0  0  0  0  0
  -22.0407  -29.2741   20.8991 N   0  0  0  0  0  0  0  0  0  0  0  0
  -28.0438  -23.6910   17.6694 N   0  3  0  0  0  0  0  0  0  0  0  0
  -29.3835  -24.9147   21.8866 O   0  0  0  0  0  0  0  0  0  0  0  0
  -26.5382  -16.5333   21.7554 O   0  0  0  0  0  0  0  0  0  0  0  0
  -28.5639  -17.9037   18.8895 O   0  0  0  0  0  0  0  0  0  0  0  0
  -27.7771  -22.4081   20.1593 O   0  0  0  0  0  0  0  0  0  0  0  0
  -22.1250  -31.1803   19.6278 O   0  0  0  0  0  0  0  0  0  0  0  0
  -28.5796  -27.2060   29.2819 O   0  0  0  0  0  0  0  0  0  0  0  0
  -21.7401  -20.9054   22.9249 O   0  0  0  0  0  0  0  0  0  1  0  0
  -29.7443  -31.8741   31.9756 F   0  0  0  0  0  0  0  0  0  0  0  0
  -26.7797  -29.3038   29.3280 F   0  0  0  0  0  0  0  0  0  0  0  0
  1  2  1  0  0  0  0
  1  6  2  0  0  0  0
  2  7  2  0  0  0  0
  3  9  1  0  0  0  0
  3 10  2  0  0  0  0
  4 11  2  0  0  0  0
  4 19  1  0  0  0  0
  5 12  1  0  0  0  0
  5 19  2  0  0  0  0
  6 21  1  0  0  0  0
  7 23  1  0  0  0  0
  8 13  2  0  0  0  0
  8 22  1  0  0  0  0
  9 25  2  0  0  0  0
 10 26  1  0  0  0  0
 11 27  1  0  0  0  0
 12 27  2  0  0  0  0
 13 28  1  0  0  0  0
 14 15  2  0  0  0  0
 14 29  1  0  0  0  0
 15 30  1  0  0  0  0
 16 24  1  0  0  0  0
 16 28  2  0  0  0  0
 17 25  1  0  0  0  0
 17 26  2  0  0  0  0
 18 30  2  0  0  0  0
 18 31  1  0  0  0  0
 19 32  1  0  0  0  0
 20 32  1  0  0  0  0
 20 33  2  0  0  0  0
 20 38  1  0  0  0  0
 21 23  2  0  0  0  0
 21 43  1  0  0  0  0
 22 24  2  0  0  0  0
 22 44  1  0  0  0  0
 23 53  1  0  0  0  0
 24 45  1  0  0  0  0
 25 64  1  0  0  0  0
 26 70  1  0  0  0  0
 27 84  1  0  0  0  0
 28 85  1  0  0  0  0
 29 31  2  0  0  0  0
 29 84  1  0  0  0  0
 30 86  1  0  0  0  0
 31 87  1  0  0  0  0
 32 68  2  0  0  0  0
 33 69  1  0  0  0  0
 33 73  1  0  0  0  0
 34 35  2  0  0  0  0
 34 70  1  0  0  0  0
 35 36  1  0  0  0  0
 35 62  1  0  0  0  0
 36 37  2  0  0  0  0
 36 46  1  0  0  0  0
 38 74  1  0  0  0  0
 38 79  2  0  0  0  0
 39 54  1  0  0  0  0
 39 75  1  0  0  0  0
 39 80  2  0  0  0  0
 40 65  1  0  0  0  0
 40 71  1  0  0  0  0
 40 81  2  0  0  0  0
 41 66  1  0  0  0  0
 41 76  1  0  0  0  0
 41 82  2  0  0  0  0
 42 72  1  0  0  0  0
 42 77  1  0  0  0  0
 42 83  2  0  0  0  0
 43 47  1  0  0  0  0
 44 54  1  0  0  0  0
 45 71  1  0  0  0  0
 46 70  1  0  0  0  0
 47 49  1  0  0  0  0
 48 50  1  0  0  0  0
 48 51  1  0  0  0  0
 49 53  1  0  0  0  0
 50 55  1  0  0  0  0
 51 72  1  0  0  0  0
 52 55  1  0  0  0  0
 52 72  1  0  0  0  0
 53 75  1  0  0  0  0
 54 71  1  0  0  0  0
 55 69  1  0  0  0  0
 56 63  1  0  0  0  0
 57 66  1  0  0  0  0
 58 67  1  0  0  0  0
 59 67  1  0  0  0  0
 60 67  1  0  0  0  0
 61 78  1  0  0  0  0
 62 85  1  0  0  0  0
 63 64  1  0  0  0  0
 64 77  1  0  0  0  0
 65 67  1  0  0  0  0
 65 76  1  0  0  0  0
 66 78  1  0  0  0  0
 68 69  1  0  0  0  0
M  CHG  1  78   1
M  ISO  4  42 100  62 101  77 100  85 101
M  END
> <Batch ID>
0075

> <Smiles>
C=C1CN(c2cccc(C(CC)[100NH:0][100C:0](=O)N3CCCC(n4nc(-c5ccc(Oc6ccc(F)cc6F)cc5)c(C(N)=O)c4N)C3)c2)C=C1[101CH2:1][101O:1]c1ccc2c(c1)CN(C(=O)C(NC(=O)C(C)NC)C(C)(C)C)C(C(=O)NC1CCCc3ccccc31)C2

> <Shape>
0.211

> <Color>
0.080

> <Negative vol penalty>
0.000

$$$$

  -OEChem-04042323473D

 86 95  0     1  0  0  0  0  0999 V2000
  -28.9060  -24.3741   17.8505 C   0  0  0  0  0  0  0  0  0  0  0  0
  -27.6617  -24.5847   18.4359 C   0  0  0  0  0  0  0  0  0  0  0  0
  -28.0772  -19.0263   22.9036 C   0  0  0  0  0  0  0  0  0  0  0  0
  -26.9678  -21.0676   22.2406 C   0  0  0  0  0  0  0  0  0  0  0  0
  -30.0402  -24.9800   18.3894 C   0  0  0  0  0  0  0  0  0  0  0  0
  -27.5510  -25.4005   19.5614 C   0  0  0  0  0  0  0  0  0  0  0  0
  -23.6472  -28.6118   19.2567 C   0  0  0  0  0  0  0  0  0  0  0  0
  -28.8197  -19.0463   21.7230 C   0  0  0  0  0  0  0  0  0  0  0  0
  -27.7104  -21.0877   21.0599 C   0  0  0  0  0  0  0  0  0  0  0  0
  -22.3775  -28.0968   19.5141 C   0  0  0  0  0  0  0  0  0  0  0  0
  -30.7491  -18.3666   18.7165 C   0  0  0  0  0  0  0  0  0  0  0  0
  -30.8761  -17.1718   18.0082 C   0  0  0  0  0  0  0  0  0  0  0  0
  -22.4698  -29.0020   21.7482 C   0  0  0  0  0  0  0  0  0  0  0  0
  -19.1004  -22.3619   23.8523 C   0  0  0  0  0  0  0  0  0  0  0  0
  -17.6893  -20.4103   24.0454 C   0  0  0  0  0  0  0  0  0  0  0  0
  -28.4754  -17.0642   17.7593 C   0  0  0  0  0  0  0  0  0  0  0  0
  -27.1512  -20.0370   23.1624 C   0  0  0  0  0  0  0  0  0  0  0  0
  -26.7284  -20.6043   25.6133 C   0  0  0  0  0  0  0  0  0  0  0  0
  -29.9420  -25.8114   19.5163 C   0  0  0  0  0  0  0  0  0  0  0  0
  -24.3435  -29.3177   20.2483 C   0  0  0  0  0  0  0  0  0  0  0  0
  -28.6851  -26.0170   20.1167 C   0  0  0  0  0  0  0  0  0  0  0  0
  -23.7472  -29.5272   21.5000 C   0  0  0  0  0  0  0  0  0  0  0  0
  -18.0770  -23.0360   23.1861 C   0  0  0  0  0  0  0  0  0  0  0  0
  -18.9066  -21.0490   24.2819 C   0  0  0  0  0  0  0  0  0  0  0  0
  -28.6363  -20.0770   20.8012 C   0  0  0  0  0  0  0  0  0  0  0  0
  -21.7898  -28.2894   20.7609 C   0  0  0  0  0  0  0  0  0  0  0  0
  -29.4852  -18.9102   18.9464 C   0  0  0  0  0  0  0  0  0  0  0  0
  -29.7393  -16.5206   17.5295 C   0  0  0  0  0  0  0  0  0  0  0  0
  -16.6659  -21.0844   23.3791 C   0  0  0  0  0  0  0  0  0  0  0  0
  -28.3484  -18.2590   18.4677 C   0  0  0  0  0  0  0  0  0  0  0  0
  -16.8598  -22.3973   22.9495 C   0  0  0  0  0  0  0  0  0  0  0  0
  -26.3835  -20.0165   24.3815 C   0  0  0  0  0  0  0  0  0  0  0  0
  -25.6766  -20.3035   26.4438 C   0  0  0  0  0  0  0  0  0  0  0  0
  -19.3980  -25.1046   22.9131 C   0  0  0  0  0  0  0  0  0  0  0  0
  -19.2547  -26.3279   22.3851 C   0  0  0  0  0  0  0  0  0  0  0  0
  -17.9183  -26.4253   21.8177 C   0  0  0  0  0  0  0  0  0  0  0  0
  -17.3705  -27.4743   21.1962 C   0  0  0  0  0  0  0  0  0  0  0  0
  -27.8952  -21.3552   25.9745 C   0  0  0  0  0  0  0  0  0  0  0  0
  -27.0833  -28.8888   21.8018 C   0  0  0  0  0  0  0  0  0  0  0  0
  -26.4083  -31.8235   23.0079 C   0  0  0  0  0  0  0  0  0  0  0  0
  -24.0533  -34.1794   23.7498 C   0  0  0  0  0  0  0  0  0  0  0  0
  -19.9173  -19.0591   25.4503 C   0  0  0  0  0  0  0  0  0  0  0  0
  -31.2028  -26.4066   20.0913 C   0  0  0  0  0  0  0  0  0  0  0  0
  -25.7013  -29.8899   19.9461 C   0  0  0  0  0  0  0  0  0  0  0  0
  -24.4444  -30.2954   22.5919 C   0  0  0  0  0  0  0  0  0  0  0  0
  -17.2270  -25.0930   22.0569 C   0  0  0  0  0  0  0  0  0  0  0  0
  -30.9459  -27.5571   21.0612 C   0  0  0  0  0  0  0  0  0  0  0  0
  -22.2803  -16.9995   27.1389 C   0  0  0  0  0  0  0  0  0  0  0  0
  -29.8443  -27.1865   22.0492 C   0  0  0  0  0  0  0  0  0  0  0  0
  -23.6319  -17.5967   26.7404 C   0  0  0  0  0  0  0  0  0  0  0  0
  -21.2767  -17.0497   25.9883 C   0  0  0  0  0  0  0  0  0  0  0  0
  -22.4451  -18.9716   24.9831 C   0  0  0  0  0  0  0  0  0  0  0  0
  -28.5209  -26.9152   21.3235 C   0  0  1  0  0  0  0  0  0  0  0  0
  -26.5324  -30.1499   21.1986 C   0  0  1  0  0  0  0  0  0  0  0  0
  -23.4688  -19.0024   26.1297 C   0  0  2  0  0  0  0  0  0  0  0  0
  -23.8004  -36.4606   24.7644 C   0  0  0  0  0  0  0  0  0  0  0  0
  -26.7531  -30.6213   25.7910 C   0  0  0  0  0  0  0  0  0  0  0  0
  -25.5852  -32.6284   26.7266 C   0  0  0  0  0  0  0  0  0  0  0  0
  -27.7451  -32.8995   25.5085 C   0  0  0  0  0  0  0  0  0  0  0  0
  -22.9646  -35.3031   21.2376 C   0  0  0  0  0  0  0  0  0  0  0  0
  -20.2637  -27.4174   22.3631 C   0  0  0  0  0  0  0  0  0  1  0  0
  -25.6509  -32.3377   24.2083 C   0  0  1  0  0  0  0  0  0  0  0  0
  -24.0020  -35.6723   23.4796 C   0  0  2  0  0  0  0  0  0  0  0  0
  -26.4210  -32.1055   25.5389 C   0  0  0  0  0  0  0  0  0  0  0  0
  -25.2048  -19.3896   24.4215 N   0  0  0  0  0  0  0  0  0  0  0  0
  -24.7999  -19.5816   25.6885 N   0  0  0  0  0  0  0  0  0  0  0  0
  -18.2697  -24.3274   22.7647 N   0  0  0  0  0  0  0  0  0  0  0  0
  -25.7729  -30.8297   22.2499 N   0  0  0  0  0  0  0  0  0  0  0  0
  -21.1714  -18.4127   25.4629 N   0  0  0  0  0  0  0  0  0  0  0  0
  -25.4255  -20.5886   27.7392 N   0  0  0  0  0  0  0  0  0  0  0  0
  -28.8785  -21.5720   24.9995 N   0  0  0  0  0  0  0  0  0  0  0  0
  -19.9460  -20.3637   24.9584 N   0  0  0  0  0  0  0  0  0  0  0  0
  -27.8870  -28.1602   20.9459 N   0  0  0  0  0  0  0  0  0  0  0  0
  -25.3468  -33.7372   23.9302 N   0  0  0  0  0  0  0  0  0  0  0  0
  -22.8812  -35.9924   22.5510 N   0  3  0  0  0  0  0  0  0  0  0  0
  -28.0686  -21.8061   27.1321 O   0  0  0  0  0  0  0  0  0  0  0  0
  -26.8012  -28.5991   22.9586 O   0  0  0  0  0  0  0  0  0  0  0  0
  -27.5197  -32.2915   22.7480 O   0  0  0  0  0  0  0  0  0  0  0  0
  -23.0464  -33.4765   23.7997 O   0  0  0  0  0  0  0  0  0  0  0  0
  -18.8981  -18.5065   25.8720 O   0  0  0  0  0  0  0  0  0  0  0  0
  -29.3609  -20.0970   19.6491 O   0  0  0  0  0  0  0  0  0  0  0  0
  -20.5508  -27.7871   21.0150 O   0  0  0  0  0  0  0  0  0  1  0  0
  -29.8615  -15.3740   16.8479 F   0  0  0  0  0  0  0  0  0  0  0  0
  -15.4969  -20.4712   23.1521 F   0  0  0  0  0  0  0  0  0  0  0  0
  -27.1316  -18.7770   18.6843 F   0  0  0  0  0  0  0  0  0  0  0  0
  -15.8693  -23.0357   22.3103 F   0  0  0  0  0  0  0  0  0  0  0  0
  1  2  1  0  0  0  0
  1  5  2  0  0  0  0
  2  6  2  0  0  0  0
  3  8  2  0  0  0  0
  3 17  1  0  0  0  0
  4  9  1  0  0  0  0
  4 17  2  0  0  0  0
  5 19  1  0  0  0  0
  6 21  1  0  0  0  0
  7 10  2  0  0  0  0
  7 20  1  0  0  0  0
  8 25  1  0  0  0  0
  9 25  2  0  0  0  0
 10 26  1  0  0  0  0
 11 12  2  0  0  0  0
 11 27  1  0  0  0  0
 12 28  1  0  0  0  0
 13 22  1  0  0  0  0
 13 26  2  0  0  0  0
 14 23  1  0  0  0  0
 14 24  2  0  0  0  0
 15 24  1  0  0  0  0
 15 29  2  0  0  0  0
 16 28  2  0  0  0  0
 16 30  1  0  0  0  0
 17 32  1  0  0  0  0
 18 32  1  0  0  0  0
 18 33  2  0  0  0  0
 18 38  1  0  0  0  0
 19 21  2  0  0  0  0
 19 43  1  0  0  0  0
 20 22  2  0  0  0  0
 20 44  1  0  0  0  0
 21 53  1  0  0  0  0
 22 45  1  0  0  0  0
 23 31  2  0  0  0  0
 23 67  1  0  0  0  0
 24 72  1  0  0  0  0
 25 81  1  0  0  0  0
 26 82  1  0  0  0  0
 27 30  2  0  0  0  0
 27 81  1  0  0  0  0
 28 83  1  0  0  0  0
 29 31  1  0  0  0  0
 29 84  1  0  0  0  0
 30 85  1  0  0  0  0
 31 86  1  0  0  0  0
 32 65  2  0  0  0  0
 33 66  1  0  0  0  0
 33 70  1  0  0  0  0
 34 35  2  0  0  0  0
 34 67  1  0  0  0  0
 35 36  1  0  0  0  0
 35 61  1  0  0  0  0
 36 37  2  0  0  0  0
 36 46  1  0  0  0  0
 38 71  1  0  0  0  0
 38 76  2  0  0  0  0
 39 54  1  0  0  0  0
 39 73  1  0  0  0  0
 39 77  2  0  0  0  0
 40 62  1  0  0  0  0
 40 68  1  0  0  0  0
 40 78  2  0  0  0  0
 41 63  1  0  0  0  0
 41 74  1  0  0  0  0
 41 79  2  0  0  0  0
 42 69  1  0  0  0  0
 42 72  1  0  0  0  0
 42 80  2  0  0  0  0
 43 47  1  0  0  0  0
 44 54  1  0  0  0  0
 45 68  1  0  0  0  0
 46 67  1  0  0  0  0
 47 49  1  0  0  0  0
 48 50  1  0  0  0  0
 48 51  1  0  0  0  0
 49 53  1  0  0  0  0
 50 55  1  0  0  0  0
 51 69  1  0  0  0  0
 52 55  1  0  0  0  0
 52 69  1  0  0  0  0
 53 73  1  0  0  0  0
 54 68  1  0  0  0  0
 55 66  1  0  0  0  0
 56 63  1  0  0  0  0
 57 64  1  0  0  0  0
 58 64  1  0  0  0  0
 59 64  1  0  0  0  0
 60 75  1  0  0  0  0
 61 82  1  0  0  0  0
 62 64  1  0  0  0  0
 62 74  1  0  0  0  0
 63 75  1  0  0  0  0
 65 66  1  0  0  0  0
M  CHG  1  75   1
M  ISO  4  42 100  61 101  72 100  82 101
M  END
> <Batch ID>
0075

> <Smiles>
C=C1CN(c2cc([100NH:0][100C:0](=O)N3CCCC(n4nc(-c5ccc(Oc6ccc(F)cc6F)cc5)c(C(N)=O)c4N)C3)cc(F)c2F)C=C1[101CH2:1][101O:1]c1ccc2c(c1)CN(C(=O)C(NC(=O)C(C)NC)C(C)(C)C)C(C(=O)NC1CCCc3ccccc31)C2

> <Shape>
0.246

> <Color>
0.061

> <Negative vol penalty>
0.000

$$$$

  -OEChem-04042323473D

 90 99  0     1  0  0  0  0  0999 V2000
  -28.9504  -17.8880   19.3780 C   0  0  0  0  0  0  0  0  0  0  0  0
  -27.8435  -18.6743   19.0747 C   0  0  0  0  0  0  0  0  0  0  0  0
  -24.6310  -14.9922   19.5110 C   0  0  0  0  0  0  0  0  0  0  0  0
  -23.2409  -14.5115   21.4276 C   0  0  0  0  0  0  0  0  0  0  0  0
  -29.9087  -18.3527   20.2778 C   0  0  0  0  0  0  0  0  0  0  0  0
  -27.6938  -19.9254   19.6719 C   0  0  0  0  0  0  0  0  0  0  0  0
  -25.1037  -26.4712   18.3448 C   0  0  0  0  0  0  0  0  0  0  0  0
  -19.5000  -25.2303   25.2328 C   0  0  0  0  0  0  0  0  0  0  0  0
  -21.7472  -25.6761   25.9998 C   0  0  0  0  0  0  0  0  0  0  0  0
  -19.6367  -26.2185   24.2579 C   0  0  0  0  0  0  0  0  0  0  0  0
  -21.8840  -26.6642   25.0249 C   0  0  0  0  0  0  0  0  0  0  0  0
  -25.2013  -13.7229   19.6062 C   0  0  0  0  0  0  0  0  0  0  0  0
  -23.8111  -13.2421   21.5228 C   0  0  0  0  0  0  0  0  0  0  0  0
  -24.2424  -27.4203   18.8934 C   0  0  0  0  0  0  0  0  0  0  0  0
  -23.4970  -10.2504   19.9828 C   0  0  0  0  0  0  0  0  0  0  0  0
  -22.6394   -9.1702   20.1906 C   0  0  0  0  0  0  0  0  0  0  0  0
  -26.0016  -28.1533   20.3722 C   0  0  0  0  0  0  0  0  0  0  0  0
  -23.7817   -8.6608   22.2576 C   0  0  0  0  0  0  0  0  0  0  0  0
  -23.6509  -15.3866   20.4217 C   0  0  0  0  0  0  0  0  0  0  0  0
  -22.3486  -17.2306   19.2337 C   0  0  0  0  0  0  0  0  0  0  0  0
  -29.7756  -19.6142   20.8790 C   0  0  0  0  0  0  0  0  0  0  0  0
  -26.4195  -26.3485   18.8141 C   0  0  0  0  0  0  0  0  0  0  0  0
  -28.6506  -20.4069   20.5816 C   0  0  0  0  0  0  0  0  0  0  0  0
  -26.8785  -27.2036   19.8261 C   0  0  0  0  0  0  0  0  0  0  0  0
  -20.5552  -24.9591   26.1038 C   0  0  0  0  0  0  0  0  0  0  0  0
  -20.8287  -26.9354   24.1539 C   0  0  0  0  0  0  0  0  0  0  0  0
  -24.7913  -12.8478   20.6120 C   0  0  0  0  0  0  0  0  0  0  0  0
  -24.6904  -28.2596   19.9093 C   0  0  0  0  0  0  0  0  0  0  0  0
  -24.4971  -10.5357   20.9124 C   0  0  0  0  0  0  0  0  0  0  0  0
  -22.7816   -8.3755   21.3280 C   0  0  0  0  0  0  0  0  0  0  0  0
  -24.6394   -9.7410   22.0498 C   0  0  0  0  0  0  0  0  0  0  0  0
  -23.0618  -16.6980   20.3243 C   0  0  0  0  0  0  0  0  0  0  0  0
  -22.0029  -18.4977   19.6354 C   0  0  0  0  0  0  0  0  0  0  0  0
  -22.1046  -28.7515   22.9274 C   0  0  0  0  0  0  0  0  0  0  0  0
  -22.0273  -16.6334   17.9704 C   0  0  0  0  0  0  0  0  0  0  0  0
  -28.0928  -24.0418   20.2223 C   0  0  0  0  0  0  0  0  0  0  0  0
  -30.5485  -26.1270   19.8435 C   0  0  0  0  0  0  0  0  0  0  0  0
  -31.5696  -29.3587   19.4428 C   0  0  0  0  0  0  0  0  0  0  0  0
  -20.1212  -22.4968   26.5204 C   0  0  0  0  0  0  0  0  0  0  0  0
  -21.1495  -20.8695   24.9503 C   0  0  0  0  0  0  0  0  0  0  0  0
  -30.8132  -20.0537   21.8814 C   0  0  0  0  0  0  0  0  0  0  0  0
  -27.3443  -25.3376   18.1934 C   0  0  0  0  0  0  0  0  0  0  0  0
  -28.2880  -27.1259   20.3512 C   0  0  0  0  0  0  0  0  0  0  0  0
  -30.7716  -21.5492   22.1851 C   0  0  0  0  0  0  0  0  0  0  0  0
  -23.4799  -22.0566   22.4832 C   0  0  0  0  0  0  0  0  0  0  0  0
  -29.3367  -22.0041   22.4320 C   0  0  0  0  0  0  0  0  0  0  0  0
  -23.5540  -20.8591   21.5323 C   0  0  0  0  0  0  0  0  0  0  0  0
  -20.3024  -29.5677   21.5981 C   0  0  0  0  0  0  0  0  0  0  0  0
  -23.3928  -21.5987   23.9356 C   0  0  0  0  0  0  0  0  0  0  0  0
  -19.9192  -28.2271   22.1949 C   0  0  0  0  0  0  0  0  0  0  0  0
  -22.3364  -19.4736   23.2793 C   0  0  0  0  0  0  0  0  0  0  0  0
  -28.4655  -21.7801   21.1901 C   0  0  1  0  0  0  0  0  0  0  0  0
  -28.5075  -24.9542   19.1029 C   0  0  1  0  0  0  0  0  0  0  0  0
  -22.4083  -19.8608   21.7904 C   0  0  2  0  0  0  0  0  0  0  0  0
  -21.8312  -29.5821   21.6744 C   0  0  1  0  0  0  0  0  0  0  0  0
  -22.3754  -31.0018   21.8127 C   0  0  0  0  0  0  0  0  0  0  0  0
  -33.6410  -30.7544   19.2002 C   0  0  0  0  0  0  0  0  0  0  0  0
  -19.2187  -24.2577   28.0909 C   0  0  0  0  0  0  0  0  0  0  0  0
  -21.6380  -23.6925   28.0922 C   0  0  0  0  0  0  0  0  0  0  0  0
  -31.0907  -25.8375   22.8322 C   0  0  0  0  0  0  0  0  0  0  0  0
  -32.4922  -27.9084   22.7077 C   0  0  0  0  0  0  0  0  0  0  0  0
  -33.1403  -25.8855   21.3999 C   0  0  0  0  0  0  0  0  0  0  0  0
  -30.7466  -30.3230   16.7685 C   0  0  0  0  0  0  0  0  0  0  0  0
  -22.4636  -28.8826   20.4655 C   0  0  0  0  0  0  0  0  0  1  0  0
  -31.1384  -27.2453   20.6684 C   0  0  1  0  0  0  0  0  0  0  0  0
  -32.5462  -29.9931   18.4690 C   0  0  2  0  0  0  0  0  0  0  0  0
  -20.4045  -23.8706   27.1777 C   0  0  0  0  0  0  0  0  0  0  0  0
  -31.9382  -26.7196   21.8937 C   0  0  0  0  0  0  0  0  0  0  0  0
  -23.1640  -17.5565   21.3423 N   0  0  0  0  0  0  0  0  0  0  0  0
  -22.5106  -18.6415   20.8931 N   0  0  0  0  0  0  0  0  0  0  0  0
  -20.9691  -27.9468   23.1559 N   0  0  0  0  0  0  0  0  0  0  0  0
  -29.1522  -26.1170   19.7165 N   0  0  0  0  0  0  0  0  0  0  0  0
  -22.2592  -20.6800   24.1083 N   0  0  0  0  0  0  0  0  0  0  0  0
  -21.3173  -19.4918   19.0319 N   0  0  0  0  0  0  0  0  0  0  0  0
  -20.8273  -15.9185   17.8553 N   0  0  0  0  0  0  0  0  0  0  0  0
  -28.7170  -22.8091   20.2040 N   0  0  0  0  0  0  0  0  0  0  0  0
  -21.1378  -22.0783   25.6537 N   0  0  0  0  0  0  0  0  0  0  0  0
  -31.9230  -28.0613   19.7481 N   0  0  0  0  0  0  0  0  0  0  0  0
  -31.8351  -30.9429   17.5672 N   0  3  0  0  0  0  0  0  0  0  0  0
  -23.1674  -28.7880   23.5318 O   0  0  0  0  0  0  0  0  0  0  0  0
  -22.7898  -16.7169   16.9779 O   0  0  0  0  0  0  0  0  0  0  0  0
  -27.2686  -24.4281   21.0428 O   0  0  0  0  0  0  0  0  0  0  0  0
  -31.2995  -25.2971   19.3248 O   0  0  0  0  0  0  0  0  0  0  0  0
  -30.5932  -29.9556   19.8909 O   0  0  0  0  0  0  0  0  0  0  0  0
  -19.1080  -21.8440   26.7682 O   0  0  0  0  0  0  0  0  0  0  0  0
  -20.2315  -20.0486   25.0427 O   0  0  0  0  0  0  0  0  0  0  0  0
  -25.3474  -11.6089   20.7051 O   0  0  0  0  0  0  0  0  0  0  0  0
  -23.8437  -29.1951   20.4520 O   0  0  0  0  0  0  0  0  0  1  0  0
  -21.9569   -7.3391   21.5282 F   0  0  0  0  0  0  0  0  0  0  0  0
  -25.5975  -10.0109   22.9470 F   0  0  0  0  0  0  0  0  0  0  0  0
  1  2  1  0  0  0  0
  1  5  2  0  0  0  0
  2  6  2  0  0  0  0
  3 12  2  0  0  0  0
  3 19  1  0  0  0  0
  4 13  1  0  0  0  0
  4 19  2  0  0  0  0
  5 21  1  0  0  0  0
  6 23  1  0  0  0  0
  7 14  2  0  0  0  0
  7 22  1  0  0  0  0
  8 10  2  0  0  0  0
  8 25  1  0  0  0  0
  9 11  1  0  0  0  0
  9 25  2  0  0  0  0
 10 26  1  0  0  0  0
 11 26  2  0  0  0  0
 12 27  1  0  0  0  0
 13 27  2  0  0  0  0
 14 28  1  0  0  0  0
 15 16  2  0  0  0  0
 15 29  1  0  0  0  0
 16 30  1  0  0  0  0
 17 24  1  0  0  0  0
 17 28  2  0  0  0  0
 18 30  2  0  0  0  0
 18 31  1  0  0  0  0
 19 32  1  0  0  0  0
 20 32  1  0  0  0  0
 20 33  2  0  0  0  0
 20 35  1  0  0  0  0
 21 23  2  0  0  0  0
 21 41  1  0  0  0  0
 22 24  2  0  0  0  0
 22 42  1  0  0  0  0
 23 52  1  0  0  0  0
 24 43  1  0  0  0  0
 25 67  1  0  0  0  0
 26 71  1  0  0  0  0
 27 87  1  0  0  0  0
 28 88  1  0  0  0  0
 29 31  2  0  0  0  0
 29 87  1  0  0  0  0
 30 89  1  0  0  0  0
 31 90  1  0  0  0  0
 32 69  2  0  0  0  0
 33 70  1  0  0  0  0
 33 74  1  0  0  0  0
 34 55  1  0  0  0  0
 34 71  1  0  0  0  0
 34 80  2  0  0  0  0
 35 75  1  0  0  0  0
 35 81  2  0  0  0  0
 36 53  1  0  0  0  0
 36 76  1  0  0  0  0
 36 82  2  0  0  0  0
 37 65  1  0  0  0  0
 37 72  1  0  0  0  0
 37 83  2  0  0  0  0
 38 66  1  0  0  0  0
 38 78  1  0  0  0  0
 38 84  2  0  0  0  0
 39 67  1  0  0  0  0
 39 77  1  0  0  0  0
 39 85  2  0  0  0  0
 40 73  1  0  0  0  0
 40 77  1  0  0  0  0
 40 86  2  0  0  0  0
 41 44  1  0  0  0  0
 42 53  1  0  0  0  0
 43 72  1  0  0  0  0
 44 46  1  0  0  0  0
 45 47  1  0  0  0  0
 45 49  1  0  0  0  0
 46 52  1  0  0  0  0
 47 54  1  0  0  0  0
 48 50  1  0  0  0  0
 48 55  1  0  0  0  0
 49 73  1  0  0  0  0
 50 71  1  0  0  0  0
 51 54  1  0  0  0  0
 51 73  1  0  0  0  0
 52 76  1  0  0  0  0
 53 72  1  0  0  0  0
 54 70  1  0  0  0  0
 55 56  1  0  0  0  0
 55 64  1  0  0  0  0
 57 66  1  0  0  0  0
 58 67  1  0  0  0  0
 59 67  1  0  0  0  0
 60 68  1  0  0  0  0
 61 68  1  0  0  0  0
 62 68  1  0  0  0  0
 63 79  1  0  0  0  0
 64 88  1  0  0  0  0
 65 68  1  0  0  0  0
 65 78  1  0  0  0  0
 66 79  1  0  0  0  0
 69 70  1  0  0  0  0
M  CHG  1  79   1
M  ISO  4  40 100  64 101  77 100  88 101
M  END
> <Batch ID>
0075

> <Smiles>
CNC(C)C(=O)NC(C(=O)N1Cc2cc([101O:1][101CH2:1]C3(C)CCN(c4ccc(C(C)(C)C(=O)[100NH:0][100C:0](=O)N5CCCC(n6nc(-c7ccc(Oc8ccc(F)cc8F)cc7)c(C(N)=O)c6N)C5)cc4)C3=O)ccc2CC1C(=O)NC1CCCc2ccccc21)C(C)(C)C

> <Shape>
0.243

> <Color>
0.061

> <Negative vol penalty>
0.000

$$$$

  -OEChem-04042323473D

 86 94  0     1  0  0  0  0  0999 V2000
  -19.3832  -27.3106   26.4427 C   0  0  0  0  0  0  0  0  0  0  0  0
  -20.4257  -26.7811   25.6890 C   0  0  0  0  0  0  0  0  0  0  0  0
  -25.5441  -16.7075   14.2226 C   0  0  0  0  0  0  0  0  0  0  0  0
  -24.5049   -9.1202   22.2344 C   0  0  0  0  0  0  0  0  0  0  0  0
  -23.8892   -9.2892   19.9043 C   0  0  0  0  0  0  0  0  0  0  0  0
  -25.8528  -18.0615   14.0922 C   0  0  0  0  0  0  0  0  0  0  0  0
  -18.5799  -28.3175   25.9089 C   0  0  0  0  0  0  0  0  0  0  0  0
  -20.6649  -27.2575   24.4004 C   0  0  0  0  0  0  0  0  0  0  0  0
  -26.1034  -27.8678   21.6517 C   0  0  0  0  0  0  0  0  0  0  0  0
  -25.6814  -16.0768   15.4591 C   0  0  0  0  0  0  0  0  0  0  0  0
  -23.3596   -8.3637   22.4822 C   0  0  0  0  0  0  0  0  0  0  0  0
  -22.7438   -8.5326   20.1521 C   0  0  0  0  0  0  0  0  0  0  0  0
  -26.7884  -27.0665   20.7392 C   0  0  0  0  0  0  0  0  0  0  0  0
  -22.3450   -5.1668   22.0540 C   0  0  0  0  0  0  0  0  0  0  0  0
  -22.4817   -4.0218   22.8388 C   0  0  0  0  0  0  0  0  0  0  0  0
  -26.4362  -18.1541   16.4349 C   0  0  0  0  0  0  0  0  0  0  0  0
  -25.9260  -28.4043   18.9264 C   0  0  0  0  0  0  0  0  0  0  0  0
  -20.9215   -4.9344   24.4419 C   0  0  0  0  0  0  0  0  0  0  0  0
  -24.7697   -9.5830   20.9454 C   0  0  0  0  0  0  0  0  0  0  0  0
  -26.2988  -18.7848   15.1983 C   0  0  0  0  0  0  0  0  0  0  0  0
  -27.2236   -9.8872   20.3181 C   0  0  0  0  0  0  0  0  0  0  0  0
  -18.8155  -28.8132   24.6169 C   0  0  0  0  0  0  0  0  0  0  0  0
  -25.3146  -28.9384   21.2069 C   0  0  0  0  0  0  0  0  0  0  0  0
  -19.8632  -28.2710   23.8484 C   0  0  0  0  0  0  0  0  0  0  0  0
  -25.2341  -29.2191   19.8355 C   0  0  0  0  0  0  0  0  0  0  0  0
  -26.1275  -16.8001   16.5653 C   0  0  0  0  0  0  0  0  0  0  0  0
  -22.4790   -8.0698   21.4411 C   0  0  0  0  0  0  0  0  0  0  0  0
  -26.6975  -27.3330   19.3762 C   0  0  0  0  0  0  0  0  0  0  0  0
  -21.4966   -6.1957   22.4632 C   0  0  0  0  0  0  0  0  0  0  0  0
  -21.7699   -3.9056   24.0327 C   0  0  0  0  0  0  0  0  0  0  0  0
  -20.7849   -6.0794   23.6571 C   0  0  0  0  0  0  0  0  0  0  0  0
  -25.9524  -10.3650   20.6889 C   0  0  0  0  0  0  0  0  0  0  0  0
  -27.9933  -11.0182   20.1959 C   0  0  0  0  0  0  0  0  0  0  0  0
  -27.6384  -24.3301   17.6247 C   0  0  0  0  0  0  0  0  0  0  0  0
  -27.0669  -25.2187   18.4465 C   0  0  0  0  0  0  0  0  0  1  0  0
  -26.6271  -20.2269   15.0580 C   0  0  0  0  0  0  0  0  0  0  0  0
  -27.6689   -8.5414   20.1033 C   0  0  0  0  0  0  0  0  0  0  0  0
  -22.2263  -29.6716   21.3771 C   0  0  0  0  0  0  0  0  0  0  0  0
  -23.2147  -32.4604   20.0474 C   0  0  0  0  0  0  0  0  0  0  0  0
  -25.5488  -34.1167   18.1885 C   0  0  0  0  0  0  0  0  0  0  0  0
  -26.6963  -16.7310   19.0184 C   0  0  0  0  0  0  0  0  0  0  0  0
  -17.8910  -29.8692   24.0648 C   0  0  0  0  0  0  0  0  0  0  0  0
  -24.6033  -29.8096   22.2058 C   0  0  0  0  0  0  0  0  0  0  0  0
  -24.4169  -30.3691   19.3080 C   0  0  0  0  0  0  0  0  0  0  0  0
  -18.4452  -30.5803   22.8329 C   0  0  0  0  0  0  0  0  0  0  0  0
  -28.3888  -15.4799   21.8903 C   0  0  0  0  0  0  0  0  0  0  0  0
  -19.0081  -29.5680   21.8403 C   0  0  0  0  0  0  0  0  0  0  0  0
  -28.0768  -13.9818   21.8709 C   0  0  0  0  0  0  0  0  0  0  0  0
  -27.1995  -16.3131   21.4157 C   0  0  0  0  0  0  0  0  0  0  0  0
  -26.3349  -14.4226   20.0937 C   0  0  0  0  0  0  0  0  0  0  0  0
  -20.1697  -28.7788   22.4561 C   0  0  1  0  0  0  0  0  0  0  0  0
  -23.4169  -30.5589   21.6072 C   0  0  1  0  0  0  0  0  0  0  0  0
  -27.5248  -13.5387   20.5018 C   0  0  2  0  0  0  0  0  0  0  0  0
  -28.5304  -22.0611   18.0180 C   0  0  0  0  0  0  0  0  0  0  0  0
  -26.0647  -36.3808   17.2372 C   0  0  0  0  0  0  0  0  0  0  0  0
  -25.4757  -23.1473   15.8126 C   0  0  0  0  0  0  0  0  0  0  0  0
  -21.1181  -32.0223   17.8743 C   0  0  0  0  0  0  0  0  0  0  0  0
  -22.2949  -33.7444   16.4894 C   0  0  0  0  0  0  0  0  0  0  0  0
  -21.3011  -34.3803   18.6872 C   0  0  0  0  0  0  0  0  0  0  0  0
  -28.0673  -34.3186   19.7298 C   0  0  0  0  0  0  0  0  0  0  0  0
  -27.2857  -22.8608   17.6089 C   0  0  2  0  0  0  0  0  0  0  0  0
  -23.3968  -32.9669   18.6370 C   0  0  1  0  0  0  0  0  0  0  0  0
  -26.2634  -35.4371   18.4131 C   0  0  2  0  0  0  0  0  0  0  0  0
  -26.7527  -22.4131   16.2244 C   0  0  1  0  0  0  0  0  0  0  0  0
  -22.0417  -33.2556   17.9315 C   0  0  0  0  0  0  0  0  0  0  0  0
  -25.9127  -11.6959   20.7954 N   0  0  0  0  0  0  0  0  0  0  0  0
  -27.1685  -12.0639   20.4898 N   0  0  0  0  0  0  0  0  0  0  0  0
  -23.7349  -31.1880   20.3238 N   0  0  0  0  0  0  0  0  0  0  0  0
  -26.7332  -15.8389   20.1109 N   0  0  0  0  0  0  0  0  0  0  0  0
  -29.2884  -11.2102   19.8668 N   0  0  0  0  0  0  0  0  0  0  0  0
  -26.7482   -7.4981   20.2717 N   0  0  0  0  0  0  0  0  0  0  0  0
  -26.2666  -16.1593   17.8214 N   0  0  0  0  0  0  0  0  0  0  0  0
  -26.4937  -20.9886   16.2062 N   0  0  0  0  0  0  0  0  0  0  0  0
  -21.3764  -29.5778   22.4626 N   0  0  0  0  0  0  0  0  0  0  0  0
  -24.2806  -34.1239   18.7297 N   0  0  0  0  0  0  0  0  0  0  0  0
  -27.7255  -35.2108   18.5922 N   0  3  0  0  0  0  0  0  0  0  0  0
  -26.9693  -20.6603   13.9609 O   0  0  0  0  0  0  0  0  0  0  0  0
  -28.8524   -8.2708   19.7879 O   0  0  0  0  0  0  0  0  0  0  0  0
  -22.0882  -29.1145   20.2944 O   0  0  0  0  0  0  0  0  0  0  0  0
  -22.6387  -33.1705   20.8754 O   0  0  0  0  0  0  0  0  0  0  0  0
  -26.0627  -33.1746   17.5895 O   0  0  0  0  0  0  0  0  0  0  0  0
  -27.0479  -17.9083   19.1298 O   0  0  0  0  0  0  0  0  0  0  0  0
  -21.3614   -7.3314   21.6825 O   0  0  0  0  0  0  0  0  0  0  0  0
  -27.3645  -26.5521   18.4833 O   0  0  0  0  0  0  0  0  0  1  0  0
  -21.9001   -2.8053   24.7855 F   0  0  0  0  0  0  0  0  0  0  0  0
  -19.9675   -7.0640   24.0549 F   0  0  0  0  0  0  0  0  0  0  0  0
  1  2  1  0  0  0  0
  1  7  2  0  0  0  0
  2  8  2  0  0  0  0
  3  6  2  0  0  0  0
  3 10  1  0  0  0  0
  4 11  2  0  0  0  0
  4 19  1  0  0  0  0
  5 12  1  0  0  0  0
  5 19  2  0  0  0  0
  6 20  1  0  0  0  0
  7 22  1  0  0  0  0
  8 24  1  0  0  0  0
  9 13  2  0  0  0  0
  9 23  1  0  0  0  0
 10 26  2  0  0  0  0
 11 27  1  0  0  0  0
 12 27  2  0  0  0  0
 13 28  1  0  0  0  0
 14 15  2  0  0  0  0
 14 29  1  0  0  0  0
 15 30  1  0  0  0  0
 16 20  2  0  0  0  0
 16 26  1  0  0  0  0
 17 25  1  0  0  0  0
 17 28  2  0  0  0  0
 18 30  2  0  0  0  0
 18 31  1  0  0  0  0
 19 32  1  0  0  0  0
 20 36  1  0  0  0  0
 21 32  1  0  0  0  0
 21 33  2  0  0  0  0
 21 37  1  0  0  0  0
 22 24  2  0  0  0  0
 22 42  1  0  0  0  0
 23 25  2  0  0  0  0
 23 43  1  0  0  0  0
 24 51  1  0  0  0  0
 25 44  1  0  0  0  0
 26 72  1  0  0  0  0
 27 83  1  0  0  0  0
 28 84  1  0  0  0  0
 29 31  2  0  0  0  0
 29 83  1  0  0  0  0
 30 85  1  0  0  0  0
 31 86  1  0  0  0  0
 32 66  2  0  0  0  0
 33 67  1  0  0  0  0
 33 70  1  0  0  0  0
 34 35  2  0  0  0  0
 34 61  1  0  0  0  0
 35 84  1  0  0  0  0
 36 73  1  0  0  0  0
 36 77  2  0  0  0  0
 37 71  1  0  0  0  0
 37 78  2  0  0  0  0
 38 52  1  0  0  0  0
 38 74  1  0  0  0  0
 38 79  2  0  0  0  0
 39 62  1  0  0  0  0
 39 68  1  0  0  0  0
 39 80  2  0  0  0  0
 40 63  1  0  0  0  0
 40 75  1  0  0  0  0
 40 81  2  0  0  0  0
 41 69  1  0  0  0  0
 41 72  1  0  0  0  0
 41 82  2  0  0  0  0
 42 45  1  0  0  0  0
 43 52  1  0  0  0  0
 44 68  1  0  0  0  0
 45 47  1  0  0  0  0
 46 48  1  0  0  0  0
 46 49  1  0  0  0  0
 47 51  1  0  0  0  0
 48 53  1  0  0  0  0
 49 69  1  0  0  0  0
 50 53  1  0  0  0  0
 50 69  1  0  0  0  0
 51 74  1  0  0  0  0
 52 68  1  0  0  0  0
 53 67  1  0  0  0  0
 54 61  1  0  0  0  0
 55 63  1  0  0  0  0
 56 64  1  0  0  0  0
 57 65  1  0  0  0  0
 58 65  1  0  0  0  0
 59 65  1  0  0  0  0
 60 76  1  0  0  0  0
 61 64  1  0  0  0  0
 62 65  1  0  0  0  0
 62 75  1  0  0  0  0
 63 76  1  0  0  0  0
 64 73  1  0  0  0  0
 66 67  1  0  0  0  0
M  CHG  1  76   1
M  ISO  4  35 101  41 100  72 100  84 101
M  END
> <Batch ID>
0075

> <Smiles>
CNC(C)C(=O)NC(C(=O)N1Cc2cc([101O:1][101CH:1]=CC(C)C(C)NC(=O)c3cccc([100NH:0][100C:0](=O)N4CCCC(n5nc(-c6ccc(Oc7ccc(F)cc7F)cc6)c(C(N)=O)c5N)C4)c3)ccc2CC1C(=O)NC1CCCc2ccccc21)C(C)(C)C

> <Shape>
0.214

> <Color>
0.124

> <Negative vol penalty>
0.000

$$$$

  -OEChem-04042323473D

 90 99  0     1  0  0  0  0  0999 V2000
  -24.8172  -37.9789   19.2190 C   0  0  0  0  0  0  0  0  0  0  0  0
  -25.0878  -36.8353   18.4746 C   0  0  0  0  0  0  0  0  0  0  0  0
  -22.6806  -12.4097   18.7490 C   0  0  0  0  0  0  0  0  0  0  0  0
  -23.2310  -10.3559   19.8961 C   0  0  0  0  0  0  0  0  0  0  0  0
  -25.0995  -38.0037   20.5842 C   0  0  0  0  0  0  0  0  0  0  0  0
  -25.6420  -35.7160   19.0948 C   0  0  0  0  0  0  0  0  0  0  0  0
  -25.6023  -28.5600   18.7682 C   0  0  0  0  0  0  0  0  0  0  0  0
  -30.1518  -20.8221   21.9113 C   0  0  0  0  0  0  0  0  0  0  0  0
  -29.8785  -19.4550   21.9563 C   0  0  0  0  0  0  0  0  0  0  0  0
  -21.7122  -11.7351   18.0057 C   0  0  0  0  0  0  0  0  0  0  0  0
  -22.2625   -9.6812   19.1528 C   0  0  0  0  0  0  0  0  0  0  0  0
  -26.4810  -27.4807   18.6861 C   0  0  0  0  0  0  0  0  0  0  0  0
  -18.5541  -10.6163   18.4615 C   0  0  0  0  0  0  0  0  0  0  0  0
  -17.3082  -11.2261   18.3150 C   0  0  0  0  0  0  0  0  0  0  0  0
  -26.8533  -27.6105   21.0660 C   0  0  0  0  0  0  0  0  0  0  0  0
  -29.7648  -20.8211   19.5265 C   0  0  0  0  0  0  0  0  0  0  0  0
  -17.5971  -11.2399   15.9163 C   0  0  0  0  0  0  0  0  0  0  0  0
  -23.4401  -11.7201   19.6942 C   0  0  0  0  0  0  0  0  0  0  0  0
  -24.2659  -13.0612   21.7010 C   0  0  0  0  0  0  0  0  0  0  0  0
  -25.6485  -36.8809   21.2233 C   0  0  0  0  0  0  0  0  0  0  0  0
  -25.3505  -29.1807   20.0002 C   0  0  0  0  0  0  0  0  0  0  0  0
  -25.9332  -35.7263   20.4695 C   0  0  0  0  0  0  0  0  0  0  0  0
  -25.9691  -28.6959   21.1615 C   0  0  0  0  0  0  0  0  0  0  0  0
  -29.4916  -19.4540   19.5714 C   0  0  0  0  0  0  0  0  0  0  0  0
  -30.0949  -21.5052   20.6964 C   0  0  0  0  0  0  0  0  0  0  0  0
  -29.5484  -18.7710   20.7863 C   0  0  0  0  0  0  0  0  0  0  0  0
  -21.5031  -10.3709   18.2076 C   0  0  0  0  0  0  0  0  0  0  0  0
  -27.1089  -27.0076   19.8346 C   0  0  0  0  0  0  0  0  0  0  0  0
  -19.3216  -10.3184   17.3355 C   0  0  0  0  0  0  0  0  0  0  0  0
  -16.8297  -11.5379   17.0424 C   0  0  0  0  0  0  0  0  0  0  0  0
  -18.8431  -10.6301   16.0629 C   0  0  0  0  0  0  0  0  0  0  0  0
  -24.4411  -12.4163   20.4619 C   0  0  0  0  0  0  0  0  0  0  0  0
  -25.5077  -13.5630   22.0054 C   0  0  0  0  0  0  0  0  0  0  0  0
  -31.2387  -23.5574   21.5202 C   0  0  0  0  0  0  0  0  0  0  0  0
  -29.8148  -23.7794   19.7218 C   0  0  0  0  0  0  0  0  0  0  0  0
  -23.0863  -13.1946   22.5049 C   0  0  0  0  0  0  0  0  0  0  0  0
  -30.7334  -25.9672   18.9021 C   0  0  0  0  0  0  0  0  0  0  0  0
  -25.7952  -32.1015   21.1728 C   0  0  0  0  0  0  0  0  0  0  0  0
  -24.1723  -30.9058   23.7142 C   0  0  0  0  0  0  0  0  0  0  0  0
  -23.2173  -28.1681   25.5143 C   0  0  0  0  0  0  0  0  0  0  0  0
  -30.0373  -16.4202   20.1307 C   0  0  0  0  0  0  0  0  0  0  0  0
  -25.9805  -36.9714   22.6917 C   0  0  0  0  0  0  0  0  0  0  0  0
  -24.3795  -30.3269   20.0762 C   0  0  0  0  0  0  0  0  0  0  0  0
  -25.7170  -29.3143   22.5115 C   0  0  0  0  0  0  0  0  0  0  0  0
  -31.3584  -24.9905   21.0850 C   0  0  0  0  0  0  0  0  0  0  0  0
  -26.2194  -35.6136   23.3470 C   0  0  0  0  0  0  0  0  0  0  0  0
  -30.0194  -12.7386   19.8939 C   0  0  0  0  0  0  0  0  0  0  0  0
  -27.1401  -34.7582   22.4824 C   0  0  0  0  0  0  0  0  0  0  0  0
  -28.5400  -12.3941   20.0573 C   0  0  0  0  0  0  0  0  0  0  0  0
  -30.2147  -14.1100   19.2542 C   0  0  0  0  0  0  0  0  0  0  0  0
  -28.0267  -14.8672   20.1314 C   0  0  0  0  0  0  0  0  0  0  0  0
  -26.5112  -34.4836   21.1111 C   0  0  1  0  0  0  0  0  0  0  0  0
  -24.5924  -31.2102   21.3017 C   0  0  1  0  0  0  0  0  0  0  0  0
  -27.7971  -13.5096   20.8127 C   0  0  1  0  0  0  0  0  0  0  0  0
  -30.2266  -25.1914   20.0841 C   0  0  2  0  0  0  0  0  0  0  0  0
  -29.1386  -18.7468   18.3033 C   0  0  0  0  0  0  0  0  0  0  0  0
  -31.1708  -27.3838   19.1597 C   0  0  0  0  0  0  0  0  0  0  0  0
  -21.9257  -27.5099   27.5627 C   0  0  0  0  0  0  0  0  0  0  0  0
  -26.4912  -31.8281   25.4698 C   0  0  0  0  0  0  0  0  0  0  0  0
  -25.6182  -30.3400   27.2841 C   0  0  0  0  0  0  0  0  0  0  0  0
  -24.2225  -32.2287   26.4429 C   0  0  0  0  0  0  0  0  0  0  0  0
  -28.3279  -16.8778   21.8738 C   0  0  0  0  0  0  0  0  0  0  0  0
  -21.2912  -26.5752   23.9295 C   0  0  0  0  0  0  0  0  0  0  0  0
  -29.0320  -25.9135   20.7066 C   0  0  0  0  0  0  0  0  0  1  0  0
  -24.5557  -30.1891   24.9864 C   0  0  1  0  0  0  0  0  0  0  0  0
  -21.8664  -27.7432   26.0611 C   0  0  2  0  0  0  0  0  0  0  0  0
  -25.2283  -31.1358   26.0202 C   0  0  0  0  0  0  0  0  0  0  0  0
  -25.6953  -12.4995   20.0101 N   0  0  0  0  0  0  0  0  0  0  0  0
  -26.3194  -13.2026   20.9704 N   0  0  0  0  0  0  0  0  0  0  0  0
  -30.3730  -22.9100   20.6509 N   0  0  0  0  0  0  0  0  0  0  0  0
  -24.7643  -30.4365   22.5330 N   0  0  0  0  0  0  0  0  0  0  0  0
  -29.4617  -15.1445   19.9643 N   0  0  0  0  0  0  0  0  0  0  0  0
  -25.9734  -14.2731   23.0548 N   0  0  0  0  0  0  0  0  0  0  0  0
  -21.8947  -12.6185   22.0436 N   0  0  0  0  0  0  0  0  0  0  0  0
  -25.5023  -33.4513   21.2154 N   0  0  0  0  0  0  0  0  0  0  0  0
  -23.3421  -29.5407   25.4712 N   0  0  0  0  0  0  0  0  0  0  0  0
  -29.2674  -17.3563   20.8544 N   0  0  0  0  0  0  0  0  0  0  0  0
  -21.4162  -26.4821   25.4069 N   0  3  0  0  0  0  0  0  0  0  0  0
  -31.8320  -23.1269   22.5006 O   0  0  0  0  0  0  0  0  0  0  0  0
  -29.1277  -23.5255   18.7398 O   0  0  0  0  0  0  0  0  0  0  0  0
  -23.0849  -13.8205   23.5919 O   0  0  0  0  0  0  0  0  0  0  0  0
  -30.7901  -25.4685   17.7792 O   0  0  0  0  0  0  0  0  0  0  0  0
  -26.9068  -31.6016   21.0457 O   0  0  0  0  0  0  0  0  0  0  0  0
  -23.3715  -31.8426   23.7657 O   0  0  0  0  0  0  0  0  0  0  0  0
  -24.0774  -27.3630   25.1641 O   0  0  0  0  0  0  0  0  0  0  0  0
  -31.1620  -16.6905   19.6932 O   0  0  0  0  0  0  0  0  0  0  0  0
  -20.5579   -9.7123   17.4827 O   0  0  0  0  0  0  0  0  0  0  0  0
  -27.9675  -25.9547   19.7572 O   0  0  0  0  0  0  0  0  0  1  0  0
  -15.6325  -12.1220   16.9017 F   0  0  0  0  0  0  0  0  0  0  0  0
  -19.5753  -10.3452   14.9774 F   0  0  0  0  0  0  0  0  0  0  0  0
  1  2  1  0  0  0  0
  1  5  2  0  0  0  0
  2  6  2  0  0  0  0
  3 10  2  0  0  0  0
  3 18  1  0  0  0  0
  4 11  1  0  0  0  0
  4 18  2  0  0  0  0
  5 20  1  0  0  0  0
  6 22  1  0  0  0  0
  7 12  2  0  0  0  0
  7 21  1  0  0  0  0
  8  9  2  0  0  0  0
  8 25  1  0  0  0  0
  9 26  1  0  0  0  0
 10 27  1  0  0  0  0
 11 27  2  0  0  0  0
 12 28  1  0  0  0  0
 13 14  2  0  0  0  0
 13 29  1  0  0  0  0
 14 30  1  0  0  0  0
 15 23  1  0  0  0  0
 15 28  2  0  0  0  0
 16 24  1  0  0  0  0
 16 25  2  0  0  0  0
 17 30  2  0  0  0  0
 17 31  1  0  0  0  0
 18 32  1  0  0  0  0
 19 32  1  0  0  0  0
 19 33  2  0  0  0  0
 19 36  1  0  0  0  0
 20 22  2  0  0  0  0
 20 42  1  0  0  0  0
 21 23  2  0  0  0  0
 21 43  1  0  0  0  0
 22 52  1  0  0  0  0
 23 44  1  0  0  0  0
 24 26  2  0  0  0  0
 24 56  1  0  0  0  0
 25 70  1  0  0  0  0
 26 77  1  0  0  0  0
 27 87  1  0  0  0  0
 28 88  1  0  0  0  0
 29 31  2  0  0  0  0
 29 87  1  0  0  0  0
 30 89  1  0  0  0  0
 31 90  1  0  0  0  0
 32 68  2  0  0  0  0
 33 69  1  0  0  0  0
 33 73  1  0  0  0  0
 34 45  1  0  0  0  0
 34 70  1  0  0  0  0
 34 79  2  0  0  0  0
 35 55  1  0  0  0  0
 35 70  1  0  0  0  0
 35 80  2  0  0  0  0
 36 74  1  0  0  0  0
 36 81  2  0  0  0  0
 37 55  1  0  0  0  0
 37 57  1  0  0  0  0
 37 82  2  0  0  0  0
 38 53  1  0  0  0  0
 38 75  1  0  0  0  0
 38 83  2  0  0  0  0
 39 65  1  0  0  0  0
 39 71  1  0  0  0  0
 39 84  2  0  0  0  0
 40 66  1  0  0  0  0
 40 76  1  0  0  0  0
 40 85  2  0  0  0  0
 41 72  1  0  0  0  0
 41 77  1  0  0  0  0
 41 86  2  0  0  0  0
 42 46  1  0  0  0  0
 43 53  1  0  0  0  0
 44 71  1  0  0  0  0
 45 55  1  0  0  0  0
 46 48  1  0  0  0  0
 47 49  1  0  0  0  0
 47 50  1  0  0  0  0
 48 52  1  0  0  0  0
 49 54  1  0  0  0  0
 50 72  1  0  0  0  0
 51 54  1  0  0  0  0
 51 72  1  0  0  0  0
 52 75  1  0  0  0  0
 53 71  1  0  0  0  0
 54 69  1  0  0  0  0
 55 64  1  0  0  0  0
 58 66  1  0  0  0  0
 59 67  1  0  0  0  0
 60 67  1  0  0  0  0
 61 67  1  0  0  0  0
 62 77  1  0  0  0  0
 63 78  1  0  0  0  0
 64 88  1  0  0  0  0
 65 67  1  0  0  0  0
 65 76  1  0  0  0  0
 66 78  1  0  0  0  0
 68 69  1  0  0  0  0
M  CHG  1  78   1
M  ISO  4  41 100  64 101  77 100  88 101
M  END
> <Batch ID>
0075

> <Smiles>
CNC(C)C(=O)NC(C(=O)N1Cc2cc([101O:1][101CH2:1]C3(C(C)=O)CC(=O)N(c4ccc([100N:0](C)[100C:0](=O)N5CCCC(n6nc(-c7ccc(Oc8ccc(F)cc8F)cc7)c(C(N)=O)c6N)C5)c(C)c4)C3=O)ccc2CC1C(=O)NC1CCCc2ccccc21)C(C)(C)C

> <Shape>
0.295

> <Color>
0.127

> <Negative vol penalty>
0.000

$$$$

  -OEChem-04042323473D

 86 95  0     1  0  0  0  0  0999 V2000
  -28.0793  -32.1095   20.7145 C   0  0  0  0  0  0  0  0  0  0  0  0
  -28.3139  -30.7386   20.7446 C   0  0  0  0  0  0  0  0  0  0  0  0
  -23.8385  -15.7904   22.0090 C   0  0  0  0  0  0  0  0  0  0  0  0
  -23.1387  -15.3406   19.7407 C   0  0  0  0  0  0  0  0  0  0  0  0
  -26.7754  -32.5946   20.8061 C   0  0  0  0  0  0  0  0  0  0  0  0
  -27.2448  -29.8519   20.8674 C   0  0  0  0  0  0  0  0  0  0  0  0
  -27.5928  -25.9349   17.6767 C   0  0  0  0  0  0  0  0  0  0  0  0
  -31.0086  -17.2811   20.3958 C   0  0  0  0  0  0  0  0  0  0  0  0
  -29.9526  -17.4940   22.5583 C   0  0  0  0  0  0  0  0  0  0  0  0
  -31.2563  -15.9321   20.6495 C   0  0  0  0  0  0  0  0  0  0  0  0
  -30.2003  -16.1449   22.8120 C   0  0  0  0  0  0  0  0  0  0  0  0
  -23.0378  -16.9323   22.0296 C   0  0  0  0  0  0  0  0  0  0  0  0
  -22.3379  -16.4826   19.7613 C   0  0  0  0  0  0  0  0  0  0  0  0
  -28.4730  -24.9098   18.0205 C   0  0  0  0  0  0  0  0  0  0  0  0
  -19.8304  -19.0815   19.3416 C   0  0  0  0  0  0  0  0  0  0  0  0
  -18.5367  -18.9766   18.8309 C   0  0  0  0  0  0  0  0  0  0  0  0
  -26.6195  -23.6013   18.8400 C   0  0  0  0  0  0  0  0  0  0  0  0
  -18.0248  -17.2823   20.4754 C   0  0  0  0  0  0  0  0  0  0  0  0
  -23.8890  -14.9945   20.8645 C   0  0  0  0  0  0  0  0  0  0  0  0
  -24.3454  -12.5094   21.2155 C   0  0  0  0  0  0  0  0  0  0  0  0
  -25.6889  -31.7131   20.9205 C   0  0  0  0  0  0  0  0  0  0  0  0
  -26.2183  -25.8051   17.9223 C   0  0  0  0  0  0  0  0  0  0  0  0
  -25.9252  -30.3257   20.9621 C   0  0  0  0  0  0  0  0  0  0  0  0
  -25.7236  -24.6251   18.4960 C   0  0  0  0  0  0  0  0  0  0  0  0
  -30.3568  -18.0621   21.3502 C   0  0  0  0  0  0  0  0  0  0  0  0
  -30.8521  -15.3640   21.8575 C   0  0  0  0  0  0  0  0  0  0  0  0
  -22.2875  -17.2784   20.9058 C   0  0  0  0  0  0  0  0  0  0  0  0
  -27.9867  -23.7440   18.6049 C   0  0  0  0  0  0  0  0  0  0  0  0
  -20.2214  -18.2867   20.4192 C   0  0  0  0  0  0  0  0  0  0  0  0
  -17.6339  -18.0771   19.3978 C   0  0  0  0  0  0  0  0  0  0  0  0
  -19.3185  -17.3871   20.9861 C   0  0  0  0  0  0  0  0  0  0  0  0
  -24.7163  -13.8151   20.8424 C   0  0  0  0  0  0  0  0  0  0  0  0
  -25.4784  -11.7596   21.0137 C   0  0  0  0  0  0  0  0  0  0  0  0
  -30.3932  -20.1937   20.0246 C   0  0  0  0  0  0  0  0  0  0  0  0
  -29.5053  -20.3722   21.8413 C   0  0  0  0  0  0  0  0  0  0  0  0
  -23.0890  -12.0181   21.7010 C   0  0  0  0  0  0  0  0  0  0  0  0
  -24.0998  -27.3709   19.7012 C   0  0  0  0  0  0  0  0  0  0  0  0
  -21.9875  -25.3985   18.2279 C   0  0  0  0  0  0  0  0  0  0  0  0
  -21.4237  -22.4501   16.6044 C   0  0  0  0  0  0  0  0  0  0  0  0
  -31.1632  -13.0234   21.0726 C   0  0  0  0  0  0  0  0  0  0  0  0
  -24.3012  -32.2861   21.0641 C   0  0  0  0  0  0  0  0  0  0  0  0
  -25.2787  -26.9091   17.5211 C   0  0  0  0  0  0  0  0  0  0  0  0
  -24.2543  -24.4280   18.7619 C   0  0  0  0  0  0  0  0  0  0  0  0
  -23.1925  -31.2668   20.8150 C   0  0  0  0  0  0  0  0  0  0  0  0
  -29.4258  -11.5729   18.3302 C   0  0  0  0  0  0  0  0  0  0  0  0
  -23.4839  -29.9682   21.5604 C   0  0  0  0  0  0  0  0  0  0  0  0
  -27.9730  -11.8697   18.7002 C   0  0  0  0  0  0  0  0  0  0  0  0
  -30.3538  -12.7383   18.6746 C   0  0  0  0  0  0  0  0  0  0  0  0
  -28.8032  -13.4853   20.4528 C   0  0  0  0  0  0  0  0  0  0  0  0
  -24.7895  -29.3313   21.0694 C   0  0  1  0  0  0  0  0  0  0  0  0
  -23.9603  -26.8798   18.2880 C   0  0  1  0  0  0  0  0  0  0  0  0
  -27.8562  -12.3085   20.1706 C   0  0  1  0  0  0  0  0  0  0  0  0
  -29.7420  -21.4136   20.7206 C   0  0  0  0  0  0  0  0  0  0  0  0
  -30.7100  -22.5318   21.0826 C   0  0  0  0  0  0  0  0  0  0  0  0
  -19.5881  -21.0996   15.5536 C   0  0  0  0  0  0  0  0  0  0  0  0
  -20.9931  -24.5984   20.9993 C   0  0  0  0  0  0  0  0  0  0  0  0
  -19.8787  -22.6166   19.9509 C   0  0  0  0  0  0  0  0  0  0  0  0
  -19.1896  -24.9233   19.2974 C   0  0  0  0  0  0  0  0  0  0  0  0
  -31.5524  -13.5782   23.4634 C   0  0  0  0  0  0  0  0  0  0  0  0
  -22.7289  -22.5271   13.9493 C   0  0  0  0  0  0  0  0  0  0  0  0
  -28.4824  -21.9254   20.0550 C   0  0  0  0  0  0  0  0  0  1  0  0
  -21.4222  -24.0291   18.5178 C   0  0  1  0  0  0  0  0  0  0  0  0
  -20.6784  -22.1338   15.3203 C   0  0  2  0  0  0  0  0  0  0  0  0
  -20.3989  -24.0461   19.6882 C   0  0  0  0  0  0  0  0  0  0  0  0
  -25.9858  -13.8939   20.4346 N   0  0  0  0  0  0  0  0  0  0  0  0
  -26.4224  -12.6281   20.5503 N   0  0  0  0  0  0  0  0  0  0  0  0
  -30.1129  -19.3920   21.1005 N   0  0  0  0  0  0  0  0  0  0  0  0
  -23.3765  -25.5387   18.3576 N   0  0  0  0  0  0  0  0  0  0  0  0
  -30.1778  -13.1482   20.0751 N   0  0  0  0  0  0  0  0  0  0  0  0
  -25.7493  -10.4488   21.1893 N   0  0  0  0  0  0  0  0  0  0  0  0
  -22.0296  -12.9237   21.8491 N   0  0  0  0  0  0  0  0  0  0  0  0
  -24.5806  -28.6623   19.8031 N   0  0  0  0  0  0  0  0  0  0  0  0
  -20.8793  -23.5362   17.2566 N   0  0  0  0  0  0  0  0  0  0  0  0
  -31.1084  -13.9674   22.1205 N   0  0  0  0  0  0  0  0  0  0  0  0
  -21.6185  -21.6022   14.2933 N   0  3  0  0  0  0  0  0  0  0  0  0
  -30.9396  -19.9825   18.9653 O   0  0  0  0  0  0  0  0  0  0  0  0
  -28.9973  -20.3729   22.9401 O   0  0  0  0  0  0  0  0  0  0  0  0
  -22.9158  -10.8148   22.0104 O   0  0  0  0  0  0  0  0  0  0  0  0
  -23.7925  -26.6332   20.6302 O   0  0  0  0  0  0  0  0  0  0  0  0
  -21.2256  -26.3085   17.8915 O   0  0  0  0  0  0  0  0  0  0  0  0
  -22.3897  -21.7967   16.9921 O   0  0  0  0  0  0  0  0  0  0  0  0
  -32.0103  -12.1225   21.0434 O   0  0  0  0  0  0  0  0  0  0  0  0
  -21.5059  -18.3925   20.9257 O   0  0  0  0  0  0  0  0  0  0  0  0
  -28.8438  -22.7422   18.9421 O   0  0  0  0  0  0  0  0  0  1  0  0
  -16.3910  -17.9776   18.9082 F   0  0  0  0  0  0  0  0  0  0  0  0
  -19.6880  -16.6218   22.0223 F   0  0  0  0  0  0  0  0  0  0  0  0
  1  2  1  0  0  0  0
  1  5  2  0  0  0  0
  2  6  2  0  0  0  0
  3 12  2  0  0  0  0
  3 19  1  0  0  0  0
  4 13  1  0  0  0  0
  4 19  2  0  0  0  0
  5 21  1  0  0  0  0
  6 23  1  0  0  0  0
  7 14  2  0  0  0  0
  7 22  1  0  0  0  0
  8 10  2  0  0  0  0
  8 25  1  0  0  0  0
  9 11  1  0  0  0  0
  9 25  2  0  0  0  0
 10 26  1  0  0  0  0
 11 26  2  0  0  0  0
 12 27  1  0  0  0  0
 13 27  2  0  0  0  0
 14 28  1  0  0  0  0
 15 16  2  0  0  0  0
 15 29  1  0  0  0  0
 16 30  1  0  0  0  0
 17 24  1  0  0  0  0
 17 28  2  0  0  0  0
 18 30  2  0  0  0  0
 18 31  1  0  0  0  0
 19 32  1  0  0  0  0
 20 32  1  0  0  0  0
 20 33  2  0  0  0  0
 20 36  1  0  0  0  0
 21 23  2  0  0  0  0
 21 41  1  0  0  0  0
 22 24  2  0  0  0  0
 22 42  1  0  0  0  0
 23 50  1  0  0  0  0
 24 43  1  0  0  0  0
 25 67  1  0  0  0  0
 26 74  1  0  0  0  0
 27 83  1  0  0  0  0
 28 84  1  0  0  0  0
 29 31  2  0  0  0  0
 29 83  1  0  0  0  0
 30 85  1  0  0  0  0
 31 86  1  0  0  0  0
 32 65  2  0  0  0  0
 33 66  1  0  0  0  0
 33 70  1  0  0  0  0
 34 53  1  0  0  0  0
 34 67  1  0  0  0  0
 34 76  2  0  0  0  0
 35 53  1  0  0  0  0
 35 67  1  0  0  0  0
 35 77  2  0  0  0  0
 36 71  1  0  0  0  0
 36 78  2  0  0  0  0
 37 51  1  0  0  0  0
 37 72  1  0  0  0  0
 37 79  2  0  0  0  0
 38 62  1  0  0  0  0
 38 68  1  0  0  0  0
 38 80  2  0  0  0  0
 39 63  1  0  0  0  0
 39 73  1  0  0  0  0
 39 81  2  0  0  0  0
 40 69  1  0  0  0  0
 40 74  1  0  0  0  0
 40 82  2  0  0  0  0
 41 44  1  0  0  0  0
 42 51  1  0  0  0  0
 43 68  1  0  0  0  0
 44 46  1  0  0  0  0
 45 47  1  0  0  0  0
 45 48  1  0  0  0  0
 46 50  1  0  0  0  0
 47 52  1  0  0  0  0
 48 69  1  0  0  0  0
 49 52  1  0  0  0  0
 49 69  1  0  0  0  0
 50 72  1  0  0  0  0
 51 68  1  0  0  0  0
 52 66  1  0  0  0  0
 53 54  1  0  0  0  0
 53 61  1  0  0  0  0
 55 63  1  0  0  0  0
 56 64  1  0  0  0  0
 57 64  1  0  0  0  0
 58 64  1  0  0  0  0
 59 74  1  0  0  0  0
 60 75  1  0  0  0  0
 61 84  1  0  0  0  0
 62 64  1  0  0  0  0
 62 73  1  0  0  0  0
 63 75  1  0  0  0  0
 65 66  1  0  0  0  0
M  CHG  1  75   1
M  ISO  4  40 100  61 101  74 100  84 101
M  END
> <Batch ID>
0075

> <Smiles>
CNC(C)C(=O)NC(C(=O)N1Cc2cc([101O:1][101CH2:1]C3(C)C(=O)N(c4ccc([100N:0](C)[100C:0](=O)N5CCCC(n6nc(-c7ccc(Oc8ccc(F)cc8F)cc7)c(C(N)=O)c6N)C5)cc4)C3=O)ccc2CC1C(=O)NC1CCCc2ccccc21)C(C)(C)C

> <Shape>
0.229

> <Color>
0.089

> <Negative vol penalty>
0.000

$$$$

  -OEChem-04042323473D

 87 96  0     1  0  0  0  0  0999 V2000
  -31.8731  -23.1134   23.6144 C   0  0  0  0  0  0  0  0  0  0  0  0
  -22.4177  -35.2298   24.2005 C   0  0  0  0  0  0  0  0  0  0  0  0
  -23.5020  -34.5189   23.6961 C   0  0  0  0  0  0  0  0  0  0  0  0
  -27.2943  -22.6750   24.6615 C   0  0  0  0  0  0  0  0  0  0  0  0
  -25.6390  -12.2284   22.5960 C   0  0  0  0  0  0  0  0  0  0  0  0
  -24.8855  -13.8550   24.2156 C   0  0  0  0  0  0  0  0  0  0  0  0
  -21.3363  -34.5477   24.7566 C   0  0  0  0  0  0  0  0  0  0  0  0
  -23.5059  -33.1255   23.7484 C   0  0  0  0  0  0  0  0  0  0  0  0
  -25.9169  -29.2933   19.6244 C   0  0  0  0  0  0  0  0  0  0  0  0
  -28.4747  -23.4150   24.5941 C   0  0  0  0  0  0  0  0  0  0  0  0
  -27.0383  -21.6827   23.7151 C   0  0  0  0  0  0  0  0  0  0  0  0
  -25.7554  -11.2751   23.6075 C   0  0  0  0  0  0  0  0  0  0  0  0
  -25.0018  -12.9016   25.2272 C   0  0  0  0  0  0  0  0  0  0  0  0
  -27.1298  -28.6075   19.5779 C   0  0  0  0  0  0  0  0  0  0  0  0
  -23.7013   -9.2417   25.3621 C   0  0  0  0  0  0  0  0  0  0  0  0
  -23.1992   -7.9649   25.1104 C   0  0  0  0  0  0  0  0  0  0  0  0
  -26.0532  -26.6534   20.4953 C   0  0  0  0  0  0  0  0  0  0  0  0
  -29.1430  -22.1708   22.6340 C   0  0  0  0  0  0  0  0  0  0  0  0
  -25.4010   -7.0314   25.4542 C   0  0  0  0  0  0  0  0  0  0  0  0
  -25.2041  -13.5184   22.9000 C   0  0  0  0  0  0  0  0  0  0  0  0
  -23.9516  -14.7689   21.0629 C   0  0  0  0  0  0  0  0  0  0  0  0
  -21.3227  -33.1449   24.8070 C   0  0  0  0  0  0  0  0  0  0  0  0
  -24.7634  -28.6667   20.1177 C   0  0  0  0  0  0  0  0  0  0  0  0
  -22.4239  -32.4240   24.3069 C   0  0  0  0  0  0  0  0  0  0  0  0
  -24.8263  -27.3326   20.5446 C   0  0  0  0  0  0  0  0  0  0  0  0
  -29.3990  -23.1630   23.5804 C   0  0  0  0  0  0  0  0  0  0  0  0
  -27.9626  -21.4306   22.7013 C   0  0  0  0  0  0  0  0  0  0  0  0
  -25.4367  -11.6116   24.9231 C   0  0  0  0  0  0  0  0  0  0  0  0
  -27.1988  -27.2883   20.0160 C   0  0  0  0  0  0  0  0  0  0  0  0
  -25.0532   -9.4134   25.6598 C   0  0  0  0  0  0  0  0  0  0  0  0
  -24.0491   -6.8598   25.1564 C   0  0  0  0  0  0  0  0  0  0  0  0
  -25.9030   -8.3083   25.7059 C   0  0  0  0  0  0  0  0  0  0  0  0
  -25.0843  -14.5039   21.8557 C   0  0  0  0  0  0  0  0  0  0  0  0
  -24.3472  -15.7850   20.2277 C   0  0  0  0  0  0  0  0  0  0  0  0
  -30.2291  -26.0556   22.1644 C   0  0  0  0  0  0  0  0  0  0  0  0
  -22.6576  -14.1518   21.0799 C   0  0  0  0  0  0  0  0  0  0  0  0
  -22.7965  -29.1898   22.5593 C   0  0  0  0  0  0  0  0  0  0  0  0
  -21.0991  -26.7815   21.2025 C   0  0  0  0  0  0  0  0  0  0  0  0
  -21.0834  -24.0203   19.1969 C   0  0  0  0  0  0  0  0  0  0  0  0
  -28.5138  -20.0451   20.6709 C   0  0  0  0  0  0  0  0  0  0  0  0
  -20.1524  -32.4533   25.4604 C   0  0  0  0  0  0  0  0  0  0  0  0
  -23.4569  -29.4117   20.1364 C   0  0  0  0  0  0  0  0  0  0  0  0
  -23.6123  -26.6081   21.0641 C   0  0  0  0  0  0  0  0  0  0  0  0
  -20.0678  -30.9636   25.1379 C   0  0  0  0  0  0  0  0  0  0  0  0
  -28.2452  -17.5875   18.1086 C   0  0  0  0  0  0  0  0  0  0  0  0
  -21.4346  -30.3049   25.2950 C   0  0  0  0  0  0  0  0  0  0  0  0
  -27.2962  -16.5450   18.7042 C   0  0  0  0  0  0  0  0  0  0  0  0
  -30.9199  -25.2324   20.0345 C   0  0  0  0  0  0  0  0  0  0  0  0
  -29.1736  -18.1799   19.1673 C   0  0  0  0  0  0  0  0  0  0  0  0
  -31.4222  -24.2992   21.1201 C   0  0  0  0  0  0  0  0  0  0  0  0
  -27.5486  -17.6773   20.9494 C   0  0  0  0  0  0  0  0  0  0  0  0
  -22.4541  -30.9111   24.3231 C   0  0  1  0  0  0  0  0  0  0  0  0
  -30.6360  -26.5369   20.7829 C   0  0  1  0  0  0  0  0  0  0  0  0
  -22.4577  -28.8405   21.1378 C   0  0  1  0  0  0  0  0  0  0  0  0
  -26.5499  -17.0994   19.9334 C   0  0  2  0  0  0  0  0  0  0  0  0
  -19.5543  -22.2403   18.3075 C   0  0  0  0  0  0  0  0  0  0  0  0
  -21.1530  -25.3836   23.9141 C   0  0  0  0  0  0  0  0  0  0  0  0
  -20.4808  -23.2670   22.7582 C   0  0  0  0  0  0  0  0  0  0  0  0
  -18.9636  -25.2466   22.7131 C   0  0  0  0  0  0  0  0  0  0  0  0
  -21.5689  -24.8402   16.3950 C   0  0  0  0  0  0  0  0  0  0  0  0
  -29.5727  -27.3891   20.1175 C   0  0  0  0  0  0  0  0  0  1  0  0
  -30.6790  -23.9659   23.5078 C   0  0  2  0  0  0  0  0  0  0  0  0
  -21.0833  -25.2778   21.3354 C   0  0  1  0  0  0  0  0  0  0  0  0
  -20.1693  -23.6085   18.0570 C   0  0  2  0  0  0  0  0  0  0  0  0
  -20.4437  -24.8077   22.6723 C   0  0  0  0  0  0  0  0  0  0  0  0
  -32.8159  -22.4422   23.7015 N   0  0  0  0  0  0  0  0  0  0  0  0
  -26.1217  -15.2882   21.5514 N   0  0  0  0  0  0  0  0  0  0  0  0
  -25.6424  -16.0561   20.5580 N   0  0  0  0  0  0  0  0  0  0  0  0
  -30.7352  -24.7641   22.3024 N   0  0  0  0  0  0  0  0  0  0  0  0
  -22.3594  -27.3812   21.0684 N   0  0  0  0  0  0  0  0  0  0  0  0
  -28.3964  -18.6890   20.2994 N   0  0  0  0  0  0  0  0  0  0  0  0
  -23.7100  -16.4641   19.2503 N   0  0  0  0  0  0  0  0  0  0  0  0
  -22.4200  -13.1229   22.0015 N   0  0  0  0  0  0  0  0  0  0  0  0
  -27.7025  -20.4221   21.7406 N   0  0  0  0  0  0  0  0  0  0  0  0
  -22.2548  -30.3861   22.9892 N   0  0  0  0  0  0  0  0  0  0  0  0
  -20.4153  -24.7696   20.1421 N   0  0  0  0  0  0  0  0  0  0  0  0
  -20.9300  -23.5545   16.7766 N   0  3  0  0  0  0  0  0  0  0  0  0
  -29.6194  -26.7166   22.9918 O   0  0  0  0  0  0  0  0  0  0  0  0
  -21.7443  -14.4912   20.2898 O   0  0  0  0  0  0  0  0  0  0  0  0
  -23.4964  -28.4294   23.2179 O   0  0  0  0  0  0  0  0  0  0  0  0
  -20.0322  -27.4005   21.2099 O   0  0  0  0  0  0  0  0  0  0  0  0
  -22.2704  -23.7054   19.2459 O   0  0  0  0  0  0  0  0  0  0  0  0
  -29.2575  -20.8216   20.0660 O   0  0  0  0  0  0  0  0  0  0  0  0
  -25.5499  -10.6815   25.9103 O   0  0  0  0  0  0  0  0  0  0  0  0
  -28.3816  -26.6168   19.9723 O   0  0  0  0  0  0  0  0  0  1  0  0
  -23.5665   -5.6336   24.9162 F   0  0  0  0  0  0  0  0  0  0  0  0
  -27.2024   -8.4668   25.9925 F   0  0  0  0  0  0  0  0  0  0  0  0
  1 62  1  0  0  0  0
  1 66  3  0  0  0  0
  2  3  1  0  0  0  0
  2  7  2  0  0  0  0
  3  8  2  0  0  0  0
  4 10  2  0  0  0  0
  4 11  1  0  0  0  0
  5 12  2  0  0  0  0
  5 20  1  0  0  0  0
  6 13  1  0  0  0  0
  6 20  2  0  0  0  0
  7 22  1  0  0  0  0
  8 24  1  0  0  0  0
  9 14  2  0  0  0  0
  9 23  1  0  0  0  0
 10 26  1  0  0  0  0
 11 27  2  0  0  0  0
 12 28  1  0  0  0  0
 13 28  2  0  0  0  0
 14 29  1  0  0  0  0
 15 16  2  0  0  0  0
 15 30  1  0  0  0  0
 16 31  1  0  0  0  0
 17 25  1  0  0  0  0
 17 29  2  0  0  0  0
 18 26  2  0  0  0  0
 18 27  1  0  0  0  0
 19 31  2  0  0  0  0
 19 32  1  0  0  0  0
 20 33  1  0  0  0  0
 21 33  1  0  0  0  0
 21 34  2  0  0  0  0
 21 36  1  0  0  0  0
 22 24  2  0  0  0  0
 22 41  1  0  0  0  0
 23 25  2  0  0  0  0
 23 42  1  0  0  0  0
 24 52  1  0  0  0  0
 25 43  1  0  0  0  0
 26 62  1  0  0  0  0
 27 74  1  0  0  0  0
 28 84  1  0  0  0  0
 29 85  1  0  0  0  0
 30 32  2  0  0  0  0
 30 84  1  0  0  0  0
 31 86  1  0  0  0  0
 32 87  1  0  0  0  0
 33 67  2  0  0  0  0
 34 68  1  0  0  0  0
 34 72  1  0  0  0  0
 35 53  1  0  0  0  0
 35 69  1  0  0  0  0
 35 78  2  0  0  0  0
 36 73  1  0  0  0  0
 36 79  2  0  0  0  0
 37 54  1  0  0  0  0
 37 75  1  0  0  0  0
 37 80  2  0  0  0  0
 38 63  1  0  0  0  0
 38 70  1  0  0  0  0
 38 81  2  0  0  0  0
 39 64  1  0  0  0  0
 39 76  1  0  0  0  0
 39 82  2  0  0  0  0
 40 71  1  0  0  0  0
 40 74  1  0  0  0  0
 40 83  2  0  0  0  0
 41 44  1  0  0  0  0
 42 54  1  0  0  0  0
 43 70  1  0  0  0  0
 44 46  1  0  0  0  0
 45 47  1  0  0  0  0
 45 49  1  0  0  0  0
 46 52  1  0  0  0  0
 47 55  1  0  0  0  0
 48 50  1  0  0  0  0
 48 53  1  0  0  0  0
 49 71  1  0  0  0  0
 50 69  1  0  0  0  0
 51 55  1  0  0  0  0
 51 71  1  0  0  0  0
 52 75  1  0  0  0  0
 53 61  1  0  0  0  0
 54 70  1  0  0  0  0
 55 68  1  0  0  0  0
 56 64  1  0  0  0  0
 57 65  1  0  0  0  0
 58 65  1  0  0  0  0
 59 65  1  0  0  0  0
 60 77  1  0  0  0  0
 61 85  1  0  0  0  0
 62 69  1  0  0  0  0
 63 65  1  0  0  0  0
 63 76  1  0  0  0  0
 64 77  1  0  0  0  0
 67 68  1  0  0  0  0
M  CHG  1  77   1
M  ISO  4  40 100  61 101  74 100  85 101
M  END
> <Batch ID>
0075

> <Smiles>
CNC(C)C(=O)NC(C(=O)N1Cc2cc([101O:1][101CH2:1]C3CCN(C(C#N)c4cccc([100NH:0][100C:0](=O)N5CCCC(n6nc(-c7ccc(Oc8ccc(F)cc8F)cc7)c(C(N)=O)c6N)C5)c4)C3=O)ccc2CC1C(=O)NC1CCCc2ccccc21)C(C)(C)C

> <Shape>
0.183

> <Color>
0.101

> <Negative vol penalty>
0.000

$$$$

  -OEChem-04042323473D

 88 97  0     1  0  0  0  0  0999 V2000
  -29.0510  -36.8845   20.6727 C   0  0  0  0  0  0  0  0  0  0  0  0
  -29.3419  -35.5371   20.4847 C   0  0  0  0  0  0  0  0  0  0  0  0
  -26.5759   -7.0312   22.1409 C   0  0  0  0  0  0  0  0  0  0  0  0
  -26.1989   -6.7353   19.7729 C   0  0  0  0  0  0  0  0  0  0  0  0
  -28.0560  -37.2626   21.5733 C   0  0  0  0  0  0  0  0  0  0  0  0
  -28.6387  -34.5670   21.1979 C   0  0  0  0  0  0  0  0  0  0  0  0
  -27.0413  -28.9901   19.2351 C   0  0  0  0  0  0  0  0  0  0  0  0
  -25.5209   -6.1618   22.4175 C   0  0  0  0  0  0  0  0  0  0  0  0
  -25.1439   -5.8658   20.0495 C   0  0  0  0  0  0  0  0  0  0  0  0
  -27.6087  -27.7308   19.4248 C   0  0  0  0  0  0  0  0  0  0  0  0
  -22.1438   -6.2858   22.4841 C   0  0  0  0  0  0  0  0  0  0  0  0
  -21.2350   -6.6646   23.4720 C   0  0  0  0  0  0  0  0  0  0  0  0
  -28.5922  -19.0604   21.1604 C   0  0  0  0  0  0  0  0  0  0  0  0
  -26.0848  -27.3258   21.2504 C   0  0  0  0  0  0  0  0  0  0  0  0
  -21.7844   -4.6813   24.7377 C   0  0  0  0  0  0  0  0  0  0  0  0
  -26.9150   -7.3180   20.8185 C   0  0  0  0  0  0  0  0  0  0  0  0
  -29.1871  -18.2692   22.1852 C   0  0  0  0  0  0  0  0  0  0  0  0
  -29.3603   -7.8802   20.3581 C   0  0  0  0  0  0  0  0  0  0  0  0
  -27.3335  -36.2962   22.2908 C   0  0  0  0  0  0  0  0  0  0  0  0
  -25.9969  -29.4318   20.0601 C   0  0  0  0  0  0  0  0  0  0  0  0
  -27.6340  -34.9325   22.1099 C   0  0  0  0  0  0  0  0  0  0  0  0
  -25.5042  -28.5902   21.0675 C   0  0  0  0  0  0  0  0  0  0  0  0
  -24.8048   -5.5791   21.3719 C   0  0  0  0  0  0  0  0  0  0  0  0
  -27.1324  -26.8996   20.4344 C   0  0  0  0  0  0  0  0  0  0  0  0
  -22.8729   -5.1048   22.6228 C   0  0  0  0  0  0  0  0  0  0  0  0
  -21.0553   -5.8624   24.5989 C   0  0  0  0  0  0  0  0  0  0  0  0
  -22.6932   -4.3026   23.7497 C   0  0  0  0  0  0  0  0  0  0  0  0
  -28.0044   -8.2165   20.5321 C   0  0  0  0  0  0  0  0  0  0  0  0
  -29.9820   -9.0792   20.1084 C   0  0  0  0  0  0  0  0  0  0  0  0
  -28.8721  -20.4005   21.3130 C   0  0  0  0  0  0  0  0  0  0  0  0
  -29.8994  -19.0349   23.0821 C   0  0  0  0  0  0  0  0  0  0  0  0
  -27.4983  -22.6833   18.8598 C   0  0  0  0  0  0  0  0  0  0  0  0
  -28.1477  -23.5438   19.6471 C   0  0  0  0  0  0  0  0  0  0  0  0
  -27.7049  -21.3337   19.4220 C   0  0  0  0  0  0  0  0  0  0  0  0
  -29.0718  -16.8620   22.2876 C   0  0  0  0  0  0  0  0  0  0  0  0
  -28.4016  -16.0274   21.4278 C   0  0  0  0  0  0  0  0  0  0  0  0
  -30.0005   -6.5987   20.4168 C   0  0  0  0  0  0  0  0  0  0  0  0
  -28.3818  -14.6149   21.6591 C   0  0  0  0  0  0  0  0  0  0  0  0
  -25.6159  -31.8373   22.1027 C   0  0  0  0  0  0  0  0  0  0  0  0
  -22.5615  -30.7504   22.2088 C   0  0  0  0  0  0  0  0  0  0  0  0
  -20.3960  -28.1476   21.7809 C   0  0  0  0  0  0  0  0  0  0  0  0
  -26.2995  -36.7551   23.2882 C   0  0  0  0  0  0  0  0  0  0  0  0
  -25.3777  -30.7823   19.8253 C   0  0  0  0  0  0  0  0  0  0  0  0
  -24.3712  -29.0091   21.9672 C   0  0  0  0  0  0  0  0  0  0  0  0
  -28.8368  -22.8738   20.7855 C   0  0  0  0  0  0  0  0  0  0  0  0
  -25.3436  -35.6489   23.7272 C   0  0  0  0  0  0  0  0  0  0  0  0
  -29.2001  -13.4056   18.2695 C   0  0  0  0  0  0  0  0  0  0  0  0
  -26.1172  -34.3796   24.0694 C   0  0  0  0  0  0  0  0  0  0  0  0
  -29.0420  -11.8991   18.4506 C   0  0  0  0  0  0  0  0  0  0  0  0
  -28.2281  -14.1944   19.1457 C   0  0  0  0  0  0  0  0  0  0  0  0
  -28.1484  -12.3230   20.7728 C   0  0  0  0  0  0  0  0  0  0  0  0
  -26.8761  -33.8496   22.8468 C   0  0  1  0  0  0  0  0  0  0  0  0
  -24.6634  -31.3341   21.0552 C   0  0  1  0  0  0  0  0  0  0  0  0
  -29.1536  -11.5188   19.9347 C   0  0  1  0  0  0  0  0  0  0  0  0
  -17.9661  -27.5535   21.9807 C   0  0  0  0  0  0  0  0  0  0  0  0
  -22.8449  -30.6223   25.2441 C   0  0  0  0  0  0  0  0  0  0  0  0
  -20.8093  -29.1660   25.3030 C   0  0  0  0  0  0  0  0  0  0  0  0
  -20.6463  -31.5000   24.4378 C   0  0  0  0  0  0  0  0  0  0  0  0
  -20.1981  -27.4998   18.8999 C   0  0  0  0  0  0  0  0  0  0  0  0
  -32.1302  -17.5748   23.9863 C   0  0  0  0  0  0  0  0  0  0  0  0
  -28.2215  -25.0169   19.4725 C   0  0  0  0  0  0  0  0  0  1  0  0
  -21.8144  -29.7412   23.0470 C   0  0  1  0  0  0  0  0  0  0  0  0
  -19.0655  -28.0530   21.0562 C   0  0  2  0  0  0  0  0  0  0  0  0
  -21.5514  -30.2500   24.4925 C   0  0  0  0  0  0  0  0  0  0  0  0
  -27.7774   -9.5265   20.4040 N   0  0  0  0  0  0  0  0  0  0  0  0
  -29.8995  -17.8412   25.4397 N   0  0  0  0  0  0  0  0  0  0  0  0
  -28.9991  -10.0239   20.1469 N   0  0  0  0  0  0  0  0  0  0  0  0
  -28.5028  -21.4821   20.5634 N   0  0  0  0  0  0  0  0  0  0  0  0
  -28.2888  -13.7663   20.5494 N   0  0  0  0  0  0  0  0  0  0  0  0
  -23.8031  -30.3412   21.7021 N   0  0  0  0  0  0  0  0  0  0  0  0
  -31.2682   -9.4069   19.8619 N   0  0  0  0  0  0  0  0  0  0  0  0
  -29.2133   -5.4702   20.6839 N   0  0  0  0  0  0  0  0  0  0  0  0
  -25.9718  -33.1637   21.9489 N   0  0  0  0  0  0  0  0  0  0  0  0
  -20.6054  -29.4069   22.3020 N   0  0  0  0  0  0  0  0  0  0  0  0
  -19.1699  -27.1168   19.9015 N   0  3  0  0  0  0  0  0  0  0  0  0
  -27.2366  -20.3192   18.9305 O   0  0  0  0  0  0  0  0  0  0  0  0
  -31.2365   -6.4604   20.2539 O   0  0  0  0  0  0  0  0  0  0  0  0
  -28.4310  -14.2288   22.8250 O   0  0  0  0  0  0  0  0  0  0  0  0
  -25.9985  -31.0789   22.9859 O   0  0  0  0  0  0  0  0  0  0  0  0
  -22.0586  -31.8582   22.0051 O   0  0  0  0  0  0  0  0  0  0  0  0
  -21.1704  -27.1982   21.8783 O   0  0  0  0  0  0  0  0  0  0  0  0
  -31.5189  -19.8924   24.9164 O   0  0  0  0  0  0  0  0  0  0  0  0
  -23.7754   -4.7305   21.6415 O   0  0  0  0  0  0  0  0  0  0  0  0
  -27.6849  -25.6702   20.6221 O   0  0  0  0  0  0  0  0  0  1  0  0
  -20.1836   -6.2270   25.5483 F   0  0  0  0  0  0  0  0  0  0  0  0
  -23.3917   -3.1674   23.8892 F   0  0  0  0  0  0  0  0  0  0  0  0
  -29.8487  -20.7004   22.6873 S   0  0  0  0  0  0  0  0  0  0  0  0
  -30.8362  -18.6665   24.5268 S   0  0  2  0  0  0  0  0  0  0  0  0
  1  2  1  0  0  0  0
  1  5  2  0  0  0  0
  2  6  2  0  0  0  0
  3  8  2  0  0  0  0
  3 16  1  0  0  0  0
  4  9  1  0  0  0  0
  4 16  2  0  0  0  0
  5 19  1  0  0  0  0
  6 21  1  0  0  0  0
  7 10  2  0  0  0  0
  7 20  1  0  0  0  0
  8 23  1  0  0  0  0
  9 23  2  0  0  0  0
 10 24  1  0  0  0  0
 11 12  2  0  0  0  0
 11 25  1  0  0  0  0
 12 26  1  0  0  0  0
 13 17  1  0  0  0  0
 13 30  2  0  0  0  0
 14 22  1  0  0  0  0
 14 24  2  0  0  0  0
 15 26  2  0  0  0  0
 15 27  1  0  0  0  0
 16 28  1  0  0  0  0
 17 31  2  0  0  0  0
 17 35  1  0  0  0  0
 18 28  1  0  0  0  0
 18 29  2  0  0  0  0
 18 37  1  0  0  0  0
 19 21  2  0  0  0  0
 19 42  1  0  0  0  0
 20 22  2  0  0  0  0
 20 43  1  0  0  0  0
 21 52  1  0  0  0  0
 22 44  1  0  0  0  0
 23 83  1  0  0  0  0
 24 84  1  0  0  0  0
 25 27  2  0  0  0  0
 25 83  1  0  0  0  0
 26 85  1  0  0  0  0
 27 86  1  0  0  0  0
 28 65  2  0  0  0  0
 29 67  1  0  0  0  0
 29 71  1  0  0  0  0
 30 68  1  0  0  0  0
 30 87  1  0  0  0  0
 31 87  1  0  0  0  0
 31 88  1  0  0  0  0
 32 33  2  0  0  0  0
 32 34  1  0  0  0  0
 33 45  1  0  0  0  0
 33 61  1  0  0  0  0
 34 68  1  0  0  0  0
 34 76  2  0  0  0  0
 35 36  2  0  0  0  0
 36 38  1  0  0  0  0
 37 72  1  0  0  0  0
 37 77  2  0  0  0  0
 38 69  1  0  0  0  0
 38 78  2  0  0  0  0
 39 53  1  0  0  0  0
 39 73  1  0  0  0  0
 39 79  2  0  0  0  0
 40 62  1  0  0  0  0
 40 70  1  0  0  0  0
 40 80  2  0  0  0  0
 41 63  1  0  0  0  0
 41 74  1  0  0  0  0
 41 81  2  0  0  0  0
 42 46  1  0  0  0  0
 43 53  1  0  0  0  0
 44 70  1  0  0  0  0
 45 68  1  0  0  0  0
 46 48  1  0  0  0  0
 47 49  1  0  0  0  0
 47 50  1  0  0  0  0
 48 52  1  0  0  0  0
 49 54  1  0  0  0  0
 50 69  1  0  0  0  0
 51 54  1  0  0  0  0
 51 69  1  0  0  0  0
 52 73  1  0  0  0  0
 53 70  1  0  0  0  0
 54 67  1  0  0  0  0
 55 63  1  0  0  0  0
 56 64  1  0  0  0  0
 57 64  1  0  0  0  0
 58 64  1  0  0  0  0
 59 75  1  0  0  0  0
 60 88  1  0  0  0  0
 61 84  1  0  0  0  0
 62 64  1  0  0  0  0
 62 74  1  0  0  0  0
 63 75  1  0  0  0  0
 65 67  1  0  0  0  0
 66 88  2  0  0  0  0
 82 88  2  0  0  0  0
M  CHG  1  75   1
M  ISO  4  36 100  38 100  61 101  84 101
M  END
> <Batch ID>
0075

> <Smiles>
CNC(C)C(=O)NC(C(=O)N1Cc2cc([101O:1][101CH2:1]C3=CC(=O)N(c4cc(C=[100CH:0][100C:0](=O)N5CCCC(n6nc(-c7ccc(Oc8ccc(F)cc8F)cc7)c(C(N)=O)c6N)C5)c(S(C)(=N)=O)s4)C3)ccc2CC1C(=O)NC1CCCc2ccccc21)C(C)(C)C

> <Shape>
0.274

> <Color>
0.077

> <Negative vol penalty>
0.000

$$$$
