
  -OEChem-04042323503D

 90 99  0     1  0  0  0  0  0999 V2000
  -37.1666  -12.8211   23.8090 C   0  0  0  0  0  0  0  0  0  0  0  0
  -36.6126  -14.0621   23.5117 C   0  0  0  0  0  0  0  0  0  0  0  0
  -30.0552  -27.6076   17.2170 C   0  0  0  0  0  0  0  0  0  0  0  0
  -19.7528  -27.1026   23.7721 C   0  0  0  0  0  0  0  0  0  0  0  0
  -18.4511  -28.6250   22.4214 C   0  0  0  0  0  0  0  0  0  0  0  0
  -36.6784  -11.6736   23.1855 C   0  0  0  0  0  0  0  0  0  0  0  0
  -35.5707  -14.1565   22.5897 C   0  0  0  0  0  0  0  0  0  0  0  0
  -30.8618  -18.0690   22.7431 C   0  0  0  0  0  0  0  0  0  0  0  0
  -30.3555  -26.2464   17.1664 C   0  0  0  0  0  0  0  0  0  0  0  0
  -29.0358  -28.0664   18.0514 C   0  0  0  0  0  0  0  0  0  0  0  0
  -18.7507  -27.1065   24.7423 C   0  0  0  0  0  0  0  0  0  0  0  0
  -17.4489  -28.6290   23.3916 C   0  0  0  0  0  0  0  0  0  0  0  0
  -30.6269  -19.2800   22.0933 C   0  0  0  0  0  0  0  0  0  0  0  0
  -14.3873  -28.7573   25.3482 C   0  0  0  0  0  0  0  0  0  0  0  0
  -13.0664  -28.6327   24.9178 C   0  0  0  0  0  0  0  0  0  0  0  0
  -29.3701  -18.1175   20.3939 C   0  0  0  0  0  0  0  0  0  0  0  0
  -13.5903  -26.4906   23.9308 C   0  0  0  0  0  0  0  0  0  0  0  0
  -19.6030  -27.8619   22.6116 C   0  0  0  0  0  0  0  0  0  0  0  0
  -20.7556  -26.9854   20.5114 C   0  0  0  0  0  0  0  0  0  0  0  0
  -35.6236  -11.7527   22.2626 C   0  0  0  0  0  0  0  0  0  0  0  0
  -30.3610  -16.8698   22.2163 C   0  0  0  0  0  0  0  0  0  0  0  0
  -35.0689  -13.0091   21.9522 C   0  0  0  0  0  0  0  0  0  0  0  0
  -29.5978  -16.8929   21.0402 C   0  0  0  0  0  0  0  0  0  0  0  0
  -29.6364  -25.3440   17.9501 C   0  0  0  0  0  0  0  0  0  0  0  0
  -28.3167  -27.1640   18.8351 C   0  0  0  0  0  0  0  0  0  0  0  0
  -17.5988  -27.8697   24.5521 C   0  0  0  0  0  0  0  0  0  0  0  0
  -29.8834  -19.3040   20.9170 C   0  0  0  0  0  0  0  0  0  0  0  0
  -15.3098  -27.7487   25.0699 C   0  0  0  0  0  0  0  0  0  0  0  0
  -12.6679  -27.4993   24.2091 C   0  0  0  0  0  0  0  0  0  0  0  0
  -14.9112  -26.6153   24.3612 C   0  0  0  0  0  0  0  0  0  0  0  0
  -28.6170  -25.8027   18.7844 C   0  0  0  0  0  0  0  0  0  0  0  0
  -20.6381  -27.8587   21.6093 C   0  0  0  0  0  0  0  0  0  0  0  0
  -21.8986  -27.3937   19.8686 C   0  0  0  0  0  0  0  0  0  0  0  0
  -30.9042  -21.9447   17.3677 C   0  0  0  0  0  0  0  0  0  0  0  0
  -29.9357  -21.7297   18.2664 C   0  0  0  0  0  0  0  0  0  0  0  0
  -30.9339  -23.4066   17.1041 C   0  0  0  0  0  0  0  0  0  0  0  0
  -25.4628  -24.5015   19.5470 C   0  0  0  0  0  0  0  0  0  0  0  0
  -26.0153  -25.6322   19.0963 C   0  0  0  0  0  0  0  0  0  0  0  0
  -19.9072  -25.9020   20.1085 C   0  0  0  0  0  0  0  0  0  0  0  0
  -26.1529  -26.8203   19.9946 C   0  0  0  0  0  0  0  0  0  0  0  0
  -31.6618  -14.1800   21.1316 C   0  0  0  0  0  0  0  0  0  0  0  0
  -28.5708  -13.2094   20.9695 C   0  0  0  0  0  0  0  0  0  0  0  0
  -25.2756  -14.0619   20.7210 C   0  0  0  0  0  0  0  0  0  0  0  0
  -27.2301  -29.0155   20.0304 C   0  0  0  0  0  0  0  0  0  0  0  0
  -35.1611  -10.4905   21.5787 C   0  0  0  0  0  0  0  0  0  0  0  0
  -30.6005  -15.5751   22.9436 C   0  0  0  0  0  0  0  0  0  0  0  0
  -29.0207  -15.6358   20.4445 C   0  0  0  0  0  0  0  0  0  0  0  0
  -29.2463  -22.9876   18.6777 C   0  0  0  0  0  0  0  0  0  0  0  0
  -33.8042  -10.6311   20.8937 C   0  0  0  0  0  0  0  0  0  0  0  0
  -24.7394  -31.5239   20.4753 C   0  0  0  0  0  0  0  0  0  0  0  0
  -33.7490  -11.9185   20.0775 C   0  0  0  0  0  0  0  0  0  0  0  0
  -23.4634  -30.7283   20.7473 C   0  0  0  0  0  0  0  0  0  0  0  0
  -25.9547  -30.8537   21.1071 C   0  0  0  0  0  0  0  0  0  0  0  0
  -24.8761  -28.6292   20.9457 C   0  0  0  0  0  0  0  0  0  0  0  0
  -33.9210  -13.1492   20.9761 C   0  0  1  0  0  0  0  0  0  0  0  0
  -30.4780  -14.3513   22.0410 C   0  0  1  0  0  0  0  0  0  0  0  0
  -23.6250  -29.2623   20.3098 C   0  0  1  0  0  0  0  0  0  0  0  0
  -31.8375  -21.0168   16.6854 C   0  0  0  0  0  0  0  0  0  0  0  0
  -22.9845  -13.0489   20.5733 C   0  0  0  0  0  0  0  0  0  0  0  0
  -29.0826  -12.4838   18.0503 C   0  0  0  0  0  0  0  0  0  0  0  0
  -26.6037  -12.3910   17.7114 C   0  0  0  0  0  0  0  0  0  0  0  0
  -27.7016  -10.8233   19.3113 C   0  0  0  0  0  0  0  0  0  0  0  0
  -24.4089  -15.3698   23.2304 C   0  0  0  0  0  0  0  0  0  0  0  0
  -29.5041  -20.4394   18.8620 C   0  0  0  0  0  0  0  0  0  1  0  0
  -27.4856  -13.2673   19.9217 C   0  0  1  0  0  0  0  0  0  0  0  0
  -24.0553  -13.6043   21.4994 C   0  0  2  0  0  0  0  0  0  0  0  0
  -27.7307  -12.2650   18.7586 C   0  0  0  0  0  0  0  0  0  0  0  0
  -21.6276  -28.7541   21.6640 N   0  0  0  0  0  0  0  0  0  0  0  0
  -22.3778  -28.4456   20.5925 N   0  0  0  0  0  0  0  0  0  0  0  0
  -29.9384  -23.9887   17.8973 N   0  0  0  0  0  0  0  0  0  0  0  0
  -29.2878  -14.3941   21.1891 N   0  0  0  0  0  0  0  0  0  0  0  0
  -26.0644  -29.4566   20.6871 N   0  0  0  0  0  0  0  0  0  0  0  0
  -22.5305  -26.9520   18.7604 N   0  0  0  0  0  0  0  0  0  0  0  0
  -18.7736  -25.6178   20.8821 N   0  0  0  0  0  0  0  0  0  0  0  0
  -32.6897  -13.4370   21.6800 N   0  0  0  0  0  0  0  0  0  0  0  0
  -26.2250  -13.0663   20.6280 N   0  0  0  0  0  0  0  0  0  0  0  0
  -27.2576  -27.6447   19.7013 N   0  0  0  0  0  0  0  0  0  0  0  0
  -23.4714  -14.7427   22.2635 N   0  3  0  0  0  0  0  0  0  0  0  0
  -31.7042  -23.9506   16.3286 O   0  0  0  0  0  0  0  0  0  0  0  0
  -20.1563  -25.1960   19.1020 O   0  0  0  0  0  0  0  0  0  0  0  0
  -25.3726  -26.9793   20.9325 O   0  0  0  0  0  0  0  0  0  0  0  0
  -31.6433  -14.6834   20.0145 O   0  0  0  0  0  0  0  0  0  0  0  0
  -28.7701  -12.1539   21.5760 O   0  0  0  0  0  0  0  0  0  0  0  0
  -25.3750  -15.1886   20.2402 O   0  0  0  0  0  0  0  0  0  0  0  0
  -28.1915  -29.7501   19.7791 O   0  0  0  0  0  0  0  0  0  0  0  0
  -16.6206  -27.8736   25.4985 O   0  0  0  0  0  0  0  0  0  0  0  0
  -29.6532  -20.4846   20.2805 O   0  0  0  0  0  0  0  0  0  1  0  0
  -11.3990  -27.3790   23.7972 F   0  0  0  0  0  0  0  0  0  0  0  0
  -15.7925  -25.6424   24.0918 F   0  0  0  0  0  0  0  0  0  0  0  0
  -27.9247  -24.9343   19.5376 F   0  0  0  0  0  0  0  0  0  0  0  0
  1  2  1  0  0  0  0
  1  6  2  0  0  0  0
  2  7  2  0  0  0  0
  3  9  1  0  0  0  0
  3 10  2  0  0  0  0
  4 11  2  0  0  0  0
  4 18  1  0  0  0  0
  5 12  1  0  0  0  0
  5 18  2  0  0  0  0
  6 20  1  0  0  0  0
  7 22  1  0  0  0  0
  8 13  2  0  0  0  0
  8 21  1  0  0  0  0
  9 24  2  0  0  0  0
 10 25  1  0  0  0  0
 11 26  1  0  0  0  0
 12 26  2  0  0  0  0
 13 27  1  0  0  0  0
 14 15  2  0  0  0  0
 14 28  1  0  0  0  0
 15 29  1  0  0  0  0
 16 23  1  0  0  0  0
 16 27  2  0  0  0  0
 17 29  2  0  0  0  0
 17 30  1  0  0  0  0
 18 32  1  0  0  0  0
 19 32  1  0  0  0  0
 19 33  2  0  0  0  0
 19 39  1  0  0  0  0
 20 22  2  0  0  0  0
 20 45  1  0  0  0  0
 21 23  2  0  0  0  0
 21 46  1  0  0  0  0
 22 55  1  0  0  0  0
 23 47  1  0  0  0  0
 24 31  1  0  0  0  0
 24 70  1  0  0  0  0
 25 31  2  0  0  0  0
 25 77  1  0  0  0  0
 26 86  1  0  0  0  0
 27 87  1  0  0  0  0
 28 30  2  0  0  0  0
 28 86  1  0  0  0  0
 29 88  1  0  0  0  0
 30 89  1  0  0  0  0
 31 90  1  0  0  0  0
 32 68  2  0  0  0  0
 33 69  1  0  0  0  0
 33 73  1  0  0  0  0
 34 35  2  0  0  0  0
 34 36  1  0  0  0  0
 34 58  1  0  0  0  0
 35 48  1  0  0  0  0
 35 64  1  0  0  0  0
 36 70  1  0  0  0  0
 36 79  2  0  0  0  0
 37 38  2  0  0  0  0
 38 40  1  0  0  0  0
 39 74  1  0  0  0  0
 39 80  2  0  0  0  0
 40 77  1  0  0  0  0
 40 81  2  0  0  0  0
 41 56  1  0  0  0  0
 41 75  1  0  0  0  0
 41 82  2  0  0  0  0
 42 65  1  0  0  0  0
 42 71  1  0  0  0  0
 42 83  2  0  0  0  0
 43 66  1  0  0  0  0
 43 76  1  0  0  0  0
 43 84  2  0  0  0  0
 44 72  1  0  0  0  0
 44 77  1  0  0  0  0
 44 85  2  0  0  0  0
 45 49  1  0  0  0  0
 46 56  1  0  0  0  0
 47 71  1  0  0  0  0
 48 70  1  0  0  0  0
 49 51  1  0  0  0  0
 50 52  1  0  0  0  0
 50 53  1  0  0  0  0
 51 55  1  0  0  0  0
 52 57  1  0  0  0  0
 53 72  1  0  0  0  0
 54 57  1  0  0  0  0
 54 72  1  0  0  0  0
 55 75  1  0  0  0  0
 56 71  1  0  0  0  0
 57 69  1  0  0  0  0
 59 66  1  0  0  0  0
 60 67  1  0  0  0  0
 61 67  1  0  0  0  0
 62 67  1  0  0  0  0
 63 78  1  0  0  0  0
 64 87  1  0  0  0  0
 65 67  1  0  0  0  0
 65 76  1  0  0  0  0
 66 78  1  0  0  0  0
 68 69  1  0  0  0  0
M  CHG  1  78   1
M  ISO  4  44 100  64 101  77 100  87 101
M  END
> <Batch ID>
0076

> <Smiles>
C=CC(=O)[100N:0](c1cccc(N2CC([101CH2:1][101O:1]c3ccc4c(c3)CN(C(=O)C(NC(=O)C(C)NC)C(C)(C)C)C(C(=O)NC3CCCc5ccccc53)C4)=C(C)C2=O)c1F)[100C:0](=O)N1CCCC(n2nc(-c3ccc(Oc4ccc(F)cc4F)cc3)c(C(N)=O)c2N)C1

> <Shape>
0.289

> <Color>
0.074

> <Negative vol penalty>
0.000

$$$$

  -OEChem-04042323503D

 86 95  0     1  0  0  0  0  0999 V2000
  -29.5328  -24.6757   17.2190 C   0  0  0  0  0  0  0  0  0  0  0  0
  -28.3098  -24.7260   17.8802 C   0  0  0  0  0  0  0  0  0  0  0  0
  -23.7433  -11.3412   19.9271 C   0  0  0  0  0  0  0  0  0  0  0  0
  -24.6765  -12.6471   21.7330 C   0  0  0  0  0  0  0  0  0  0  0  0
  -30.6233  -25.3871   17.7175 C   0  0  0  0  0  0  0  0  0  0  0  0
  -28.1770  -25.4870   19.0411 C   0  0  0  0  0  0  0  0  0  0  0  0
  -23.9320  -28.2480   19.0790 C   0  0  0  0  0  0  0  0  0  0  0  0
  -21.0243  -21.7991   24.4519 C   0  0  0  0  0  0  0  0  0  0  0  0
  -25.0280  -11.0877   19.4466 C   0  0  0  0  0  0  0  0  0  0  0  0
  -25.9612  -12.3935   21.2525 C   0  0  0  0  0  0  0  0  0  0  0  0
  -22.7443  -27.5856   19.3860 C   0  0  0  0  0  0  0  0  0  0  0  0
  -27.9703  -13.5403   18.7869 C   0  0  0  0  0  0  0  0  0  0  0  0
  -21.4802  -20.5912   24.9799 C   0  0  0  0  0  0  0  0  0  0  0  0
  -28.8600  -14.6124   18.7188 C   0  0  0  0  0  0  0  0  0  0  0  0
  -22.8688  -28.4218   21.6453 C   0  0  0  0  0  0  0  0  0  0  0  0
  -19.6415  -20.5909   22.8817 C   0  0  0  0  0  0  0  0  0  0  0  0
  -30.3587  -13.4643   20.2264 C   0  0  0  0  0  0  0  0  0  0  0  0
  -23.5675  -12.1210   21.0703 C   0  0  0  0  0  0  0  0  0  0  0  0
  -21.5138  -11.6169   22.4972 C   0  0  0  0  0  0  0  0  0  0  0  0
  -30.5012  -26.1649   18.8798 C   0  0  0  0  0  0  0  0  0  0  0  0
  -24.6039  -28.9947   20.0575 C   0  0  0  0  0  0  0  0  0  0  0  0
  -29.2673  -26.2084   19.5565 C   0  0  0  0  0  0  0  0  0  0  0  0
  -24.0635  -29.0949   21.3475 C   0  0  0  0  0  0  0  0  0  0  0  0
  -20.1049  -21.7990   23.4029 C   0  0  0  0  0  0  0  0  0  0  0  0
  -20.0974  -19.3830   23.4097 C   0  0  0  0  0  0  0  0  0  0  0  0
  -26.1369  -11.6138   20.1093 C   0  0  0  0  0  0  0  0  0  0  0  0
  -22.2140  -27.6700   20.6701 C   0  0  0  0  0  0  0  0  0  0  0  0
  -28.2747  -12.4303   19.5749 C   0  0  0  0  0  0  0  0  0  0  0  0
  -30.0542  -14.5744   19.4385 C   0  0  0  0  0  0  0  0  0  0  0  0
  -21.0168  -19.3831   24.4588 C   0  0  0  0  0  0  0  0  0  0  0  0
  -29.4689  -12.3923   20.2946 C   0  0  0  0  0  0  0  0  0  0  0  0
  -22.2407  -12.3837   21.5669 C   0  0  0  0  0  0  0  0  0  0  0  0
  -20.3204  -12.2830   22.6333 C   0  0  0  0  0  0  0  0  0  0  0  0
  -20.4056  -24.1904   22.8495 C   0  0  0  0  0  0  0  0  0  0  0  0
  -20.0041  -25.3742   22.3544 C   0  0  0  0  0  0  0  0  0  0  0  0
  -17.7103  -24.3855   22.1964 C   0  0  0  0  0  0  0  0  0  0  0  0
  -16.4454  -24.5872   22.5964 C   0  0  0  0  0  0  0  0  0  0  0  0
  -21.8844  -10.4104   23.1775 C   0  0  0  0  0  0  0  0  0  0  0  0
  -27.4617  -28.8255   21.4389 C   0  0  0  0  0  0  0  0  0  0  0  0
  -26.5404  -31.6248   22.7944 C   0  0  0  0  0  0  0  0  0  0  0  0
  -23.9884  -33.6758   23.7573 C   0  0  0  0  0  0  0  0  0  0  0  0
  -18.7129  -17.9829   21.8384 C   0  0  0  0  0  0  0  0  0  0  0  0
  -31.7207  -26.8787   19.4070 C   0  0  0  0  0  0  0  0  0  0  0  0
  -25.8700  -29.7253   19.7032 C   0  0  0  0  0  0  0  0  0  0  0  0
  -24.7355  -29.9003   22.4284 C   0  0  0  0  0  0  0  0  0  0  0  0
  -18.6112  -25.5305   21.7950 C   0  0  0  0  0  0  0  0  0  0  0  0
  -18.3338  -23.0062   22.1718 C   0  0  0  0  0  0  0  0  0  0  0  0
  -31.3966  -27.9607   20.4339 C   0  0  0  0  0  0  0  0  0  0  0  0
  -17.3256  -15.1331   20.2163 C   0  0  0  0  0  0  0  0  0  0  0  0
  -30.4032  -27.4367   21.4661 C   0  0  0  0  0  0  0  0  0  0  0  0
  -18.3595  -14.0333   20.4684 C   0  0  0  0  0  0  0  0  0  0  0  0
  -17.9865  -16.4914   19.9883 C   0  0  0  0  0  0  0  0  0  0  0  0
  -19.9654  -15.8055   21.2855 C   0  0  0  0  0  0  0  0  0  0  0  0
  -29.0770  -27.0424   20.8048 C   0  0  1  0  0  0  0  0  0  0  0  0
  -26.7404  -30.0358   20.9170 C   0  0  1  0  0  0  0  0  0  0  0  0
  -19.3446  -14.4312   21.5850 C   0  0  2  0  0  0  0  0  0  0  0  0
  -23.5463  -35.8798   24.8729 C   0  0  0  0  0  0  0  0  0  0  0  0
  -27.1802  -30.3783   25.5050 C   0  0  0  0  0  0  0  0  0  0  0  0
  -25.8558  -32.2100   26.5817 C   0  0  0  0  0  0  0  0  0  0  0  0
  -27.8966  -32.7616   25.2575 C   0  0  0  0  0  0  0  0  0  0  0  0
  -22.6351  -34.7519   21.3553 C   0  0  0  0  0  0  0  0  0  0  0  0
  -20.8912  -26.5803   22.3189 C   0  0  0  0  0  0  0  0  0  1  0  0
  -25.8036  -32.0111   24.0541 C   0  0  1  0  0  0  0  0  0  0  0  0
  -23.7569  -35.1616   23.5490 C   0  0  2  0  0  0  0  0  0  0  0  0
  -26.6722  -31.8234   25.3300 C   0  0  0  0  0  0  0  0  0  0  0  0
  -21.5654  -13.4549   21.1419 N   0  0  0  0  0  0  0  0  0  0  0  0
  -20.4017  -13.3659   21.8082 N   0  0  0  0  0  0  0  0  0  0  0  0
  -19.6401  -23.0296   22.8655 N   0  0  0  0  0  0  0  0  0  0  0  0
  -25.9744  -30.5913   22.0345 N   0  0  0  0  0  0  0  0  0  0  0  0
  -18.9025  -16.8034   21.0876 N   0  0  0  0  0  0  0  0  0  0  0  0
  -19.2199  -12.0421   23.3771 N   0  0  0  0  0  0  0  0  0  0  0  0
  -23.1477   -9.8601   22.9216 N   0  0  0  0  0  0  0  0  0  0  0  0
  -19.6252  -18.1572   22.8785 N   0  0  0  0  0  0  0  0  0  0  0  0
  -28.2885  -28.2201   20.5119 N   0  0  0  0  0  0  0  0  0  0  0  0
  -25.3311  -33.3760   23.8484 N   0  0  0  0  0  0  0  0  0  0  0  0
  -22.5544  -35.3841   22.6972 N   0  3  0  0  0  0  0  0  0  0  0  0
  -21.1115   -9.8284   23.9759 O   0  0  0  0  0  0  0  0  0  0  0  0
  -27.2825  -28.4682   22.5973 O   0  0  0  0  0  0  0  0  0  0  0  0
  -27.5759  -32.2229   22.4920 O   0  0  0  0  0  0  0  0  0  0  0  0
  -23.0697  -32.8631   23.8354 O   0  0  0  0  0  0  0  0  0  0  0  0
  -17.7911  -18.7659   21.5950 O   0  0  0  0  0  0  0  0  0  0  0  0
  -27.3907  -11.3664   19.6408 O   0  0  0  0  0  0  0  0  0  0  0  0
  -21.0552  -27.0238   20.9725 O   0  0  0  0  0  0  0  0  0  1  0  0
  -30.9093  -15.6033   19.3718 F   0  0  0  0  0  0  0  0  0  0  0  0
  -21.4621  -18.2282   24.9739 F   0  0  0  0  0  0  0  0  0  0  0  0
  -29.7674  -11.3281   21.0523 F   0  0  0  0  0  0  0  0  0  0  0  0
  1  2  1  0  0  0  0
  1  5  2  0  0  0  0
  2  6  2  0  0  0  0
  3  9  2  0  0  0  0
  3 18  1  0  0  0  0
  4 10  1  0  0  0  0
  4 18  2  0  0  0  0
  5 20  1  0  0  0  0
  6 22  1  0  0  0  0
  7 11  2  0  0  0  0
  7 21  1  0  0  0  0
  8 13  2  0  0  0  0
  8 24  1  0  0  0  0
  9 26  1  0  0  0  0
 10 26  2  0  0  0  0
 11 27  1  0  0  0  0
 12 14  2  0  0  0  0
 12 28  1  0  0  0  0
 13 30  1  0  0  0  0
 14 29  1  0  0  0  0
 15 23  1  0  0  0  0
 15 27  2  0  0  0  0
 16 24  2  0  0  0  0
 16 25  1  0  0  0  0
 17 29  2  0  0  0  0
 17 31  1  0  0  0  0
 18 32  1  0  0  0  0
 19 32  1  0  0  0  0
 19 33  2  0  0  0  0
 19 38  1  0  0  0  0
 20 22  2  0  0  0  0
 20 43  1  0  0  0  0
 21 23  2  0  0  0  0
 21 44  1  0  0  0  0
 22 54  1  0  0  0  0
 23 45  1  0  0  0  0
 24 68  1  0  0  0  0
 25 30  2  0  0  0  0
 25 73  1  0  0  0  0
 26 82  1  0  0  0  0
 27 83  1  0  0  0  0
 28 31  2  0  0  0  0
 28 82  1  0  0  0  0
 29 84  1  0  0  0  0
 30 85  1  0  0  0  0
 31 86  1  0  0  0  0
 32 66  2  0  0  0  0
 33 67  1  0  0  0  0
 33 71  1  0  0  0  0
 34 35  2  0  0  0  0
 34 68  1  0  0  0  0
 35 46  1  0  0  0  0
 35 62  1  0  0  0  0
 36 37  2  0  0  0  0
 36 46  1  0  0  0  0
 36 47  1  0  0  0  0
 38 72  1  0  0  0  0
 38 77  2  0  0  0  0
 39 55  1  0  0  0  0
 39 74  1  0  0  0  0
 39 78  2  0  0  0  0
 40 63  1  0  0  0  0
 40 69  1  0  0  0  0
 40 79  2  0  0  0  0
 41 64  1  0  0  0  0
 41 75  1  0  0  0  0
 41 80  2  0  0  0  0
 42 70  1  0  0  0  0
 42 73  1  0  0  0  0
 42 81  2  0  0  0  0
 43 48  1  0  0  0  0
 44 55  1  0  0  0  0
 45 69  1  0  0  0  0
 47 68  1  0  0  0  0
 48 50  1  0  0  0  0
 49 51  1  0  0  0  0
 49 52  1  0  0  0  0
 50 54  1  0  0  0  0
 51 56  1  0  0  0  0
 52 70  1  0  0  0  0
 53 56  1  0  0  0  0
 53 70  1  0  0  0  0
 54 74  1  0  0  0  0
 55 69  1  0  0  0  0
 56 67  1  0  0  0  0
 57 64  1  0  0  0  0
 58 65  1  0  0  0  0
 59 65  1  0  0  0  0
 60 65  1  0  0  0  0
 61 76  1  0  0  0  0
 62 83  1  0  0  0  0
 63 65  1  0  0  0  0
 63 75  1  0  0  0  0
 64 76  1  0  0  0  0
 66 67  1  0  0  0  0
M  CHG  1  76   1
M  ISO  4  42 100  62 101  73 100  83 101
M  END
> <Batch ID>
0076

> <Smiles>
C=C1CC([101CH2:1][101O:1]c2ccc3c(c2)CN(C(=O)C(NC(=O)C(C)NC)C(C)(C)C)C(C(=O)NC2CCCc4ccccc42)C3)=CN(c2ccc(F)c([100NH:0][100C:0](=O)N3CCCC(n4nc(-c5ccc(Oc6ccc(F)cc6F)cc5)c(C(N)=O)c4N)C3)c2)C1

> <Shape>
0.283

> <Color>
0.072

> <Negative vol penalty>
0.000

$$$$

  -OEChem-04042323503D

 89 98  0     1  0  0  0  0  0999 V2000
  -27.1312  -37.3173   26.2182 C   0  0  0  0  0  0  0  0  0  0  0  0
  -27.9138  -36.5723   25.3419 C   0  0  0  0  0  0  0  0  0  0  0  0
  -22.8598  -10.4399   21.7202 C   0  0  0  0  0  0  0  0  0  0  0  0
  -24.6692   -8.8390   21.7187 C   0  0  0  0  0  0  0  0  0  0  0  0
  -26.0333  -36.7279   26.8437 C   0  0  0  0  0  0  0  0  0  0  0  0
  -27.5995  -35.2371   25.0913 C   0  0  0  0  0  0  0  0  0  0  0  0
  -27.8455  -30.3268   19.8811 C   0  0  0  0  0  0  0  0  0  0  0  0
  -27.7173  -20.4453   20.4255 C   0  0  0  0  0  0  0  0  0  0  0  0
  -29.9405  -20.1177   19.5384 C   0  0  0  0  0  0  0  0  0  0  0  0
  -27.3923  -19.1293   20.0971 C   0  0  0  0  0  0  0  0  0  0  0  0
  -29.6155  -18.8015   19.2100 C   0  0  0  0  0  0  0  0  0  0  0  0
  -21.9413   -9.4020   21.5634 C   0  0  0  0  0  0  0  0  0  0  0  0
  -23.7507   -7.8010   21.5619 C   0  0  0  0  0  0  0  0  0  0  0  0
  -28.3047  -29.0323   19.6419 C   0  0  0  0  0  0  0  0  0  0  0  0
  -21.6119   -6.0545   23.5102 C   0  0  0  0  0  0  0  0  0  0  0  0
  -21.7754   -4.9207   24.3060 C   0  0  0  0  0  0  0  0  0  0  0  0
  -26.3379  -28.1422   20.7182 C   0  0  0  0  0  0  0  0  0  0  0  0
  -22.0202   -3.5635   22.3223 C   0  0  0  0  0  0  0  0  0  0  0  0
  -24.2238  -10.1584   21.7977 C   0  0  0  0  0  0  0  0  0  0  0  0
  -25.2415  -12.1528   23.0202 C   0  0  0  0  0  0  0  0  0  0  0  0
  -25.6997  -35.3875   26.5931 C   0  0  0  0  0  0  0  0  0  0  0  0
  -26.6323  -30.5392   20.5515 C   0  0  0  0  0  0  0  0  0  0  0  0
  -26.4969  -34.6288   25.7149 C   0  0  0  0  0  0  0  0  0  0  0  0
  -25.8643  -29.4403   20.9625 C   0  0  0  0  0  0  0  0  0  0  0  0
  -28.9914  -20.9396   20.1461 C   0  0  0  0  0  0  0  0  0  0  0  0
  -28.3414  -18.3073   19.4894 C   0  0  0  0  0  0  0  0  0  0  0  0
  -22.3867   -8.0825   21.4843 C   0  0  0  0  0  0  0  0  0  0  0  0
  -27.5523  -27.9398   20.0630 C   0  0  0  0  0  0  0  0  0  0  0  0
  -21.6524   -5.9428   22.1203 C   0  0  0  0  0  0  0  0  0  0  0  0
  -21.9796   -3.6752   23.7121 C   0  0  0  0  0  0  0  0  0  0  0  0
  -21.8566   -4.6973   21.5264 C   0  0  0  0  0  0  0  0  0  0  0  0
  -25.1732  -11.2302   21.9591 C   0  0  0  0  0  0  0  0  0  0  0  0
  -26.3086  -12.9585   22.7065 C   0  0  0  0  0  0  0  0  0  0  0  0
  -28.3884  -23.3113   20.5025 C   0  0  0  0  0  0  0  0  0  0  0  0
  -28.6582  -24.5918   20.8111 C   0  0  0  0  0  0  0  0  0  0  0  0
  -30.9146  -23.8040   21.5544 C   0  0  0  0  0  0  0  0  0  0  0  0
  -31.7349  -23.8045   22.6163 C   0  0  0  0  0  0  0  0  0  0  0  0
  -25.1679  -14.6842   19.1442 C   0  0  0  0  0  0  0  0  0  0  0  0
  -26.3893  -15.1338   18.8394 C   0  0  0  0  0  0  0  0  0  0  0  0
  -24.4143  -12.2708   24.1854 C   0  0  0  0  0  0  0  0  0  0  0  0
  -26.6747  -16.6017   18.8210 C   0  0  0  0  0  0  0  0  0  0  0  0
  -25.7907  -31.9451   23.2752 C   0  0  0  0  0  0  0  0  0  0  0  0
  -22.7882  -31.3437   22.2049 C   0  0  0  0  0  0  0  0  0  0  0  0
  -20.7403  -29.4627   20.2264 C   0  0  0  0  0  0  0  0  0  0  0  0
  -29.0544  -16.0273   18.9153 C   0  0  0  0  0  0  0  0  0  0  0  0
  -24.5315  -34.7804   27.3290 C   0  0  0  0  0  0  0  0  0  0  0  0
  -26.1379  -31.9415   20.7781 C   0  0  0  0  0  0  0  0  0  0  0  0
  -24.5452  -29.6143   21.6682 C   0  0  0  0  0  0  0  0  0  0  0  0
  -30.0553  -24.9989   21.2111 C   0  0  0  0  0  0  0  0  0  0  0  0
  -30.7569  -22.5906   20.6628 C   0  0  0  0  0  0  0  0  0  0  0  0
  -24.0449  -33.4673   26.7215 C   0  0  0  0  0  0  0  0  0  0  0  0
  -29.8920  -12.5075   19.1715 C   0  0  0  0  0  0  0  0  0  0  0  0
  -25.2248  -32.5483   26.4213 C   0  0  0  0  0  0  0  0  0  0  0  0
  -28.7227  -11.9237   19.9657 C   0  0  0  0  0  0  0  0  0  0  0  0
  -29.4477  -13.6603   18.2745 C   0  0  0  0  0  0  0  0  0  0  0  0
  -27.5517  -14.1554   19.7854 C   0  0  0  0  0  0  0  0  0  0  0  0
  -26.1734  -33.1847   25.3984 C   0  0  1  0  0  0  0  0  0  0  0  0
  -25.1378  -32.0444   21.9256 C   0  0  1  0  0  0  0  0  0  0  0  0
  -27.9759  -13.0265   20.7372 C   0  0  1  0  0  0  0  0  0  0  0  0
  -18.3288  -29.1825   19.5909 C   0  0  0  0  0  0  0  0  0  0  0  0
  -22.2479  -29.9654   24.8729 C   0  0  0  0  0  0  0  0  0  0  0  0
  -20.2286  -28.9072   23.8379 C   0  0  0  0  0  0  0  0  0  0  0  0
  -20.3706  -31.3899   24.0355 C   0  0  0  0  0  0  0  0  0  0  0  0
  -21.2991  -30.0651   17.3832 C   0  0  0  0  0  0  0  0  0  0  0  0
  -27.6200  -25.6705   20.7714 C   0  0  0  0  0  0  0  0  0  1  0  0
  -21.8154  -30.1970   22.3380 C   0  0  1  0  0  0  0  0  0  0  0  0
  -19.6490  -29.8541   19.2463 C   0  0  2  0  0  0  0  0  0  0  0  0
  -21.1914  -30.1113   23.7595 C   0  0  0  0  0  0  0  0  0  0  0  0
  -26.1213  -11.4305   21.0399 N   0  0  0  0  0  0  0  0  0  0  0  0
  -26.7955  -12.4882   21.5225 N   0  0  0  0  0  0  0  0  0  0  0  0
  -29.3221  -22.2809   20.4789 N   0  0  0  0  0  0  0  0  0  0  0  0
  -24.1075  -31.0052   21.8722 N   0  0  0  0  0  0  0  0  0  0  0  0
  -28.7107  -14.6664   19.0389 N   0  0  0  0  0  0  0  0  0  0  0  0
  -26.8686  -14.0165   23.3307 N   0  0  0  0  0  0  0  0  0  0  0  0
  -24.7820  -11.5665   25.3400 N   0  0  0  0  0  0  0  0  0  0  0  0
  -25.6281  -33.0688   24.0629 N   0  0  0  0  0  0  0  0  0  0  0  0
  -20.8398  -30.3628   21.2661 N   0  0  0  0  0  0  0  0  0  0  0  0
  -28.0035  -16.9394   19.1481 N   0  0  0  0  0  0  0  0  0  0  0  0
  -20.0303  -29.4579   17.8612 N   0  3  0  0  0  0  0  0  0  0  0  0
  -23.3707  -12.9668   24.1970 O   0  0  0  0  0  0  0  0  0  0  0  0
  -25.7994  -17.3975   18.4823 O   0  0  0  0  0  0  0  0  0  0  0  0
  -26.3959  -30.9241   23.5800 O   0  0  0  0  0  0  0  0  0  0  0  0
  -22.3905  -32.4978   22.3822 O   0  0  0  0  0  0  0  0  0  0  0  0
  -21.4325  -28.4569   20.0857 O   0  0  0  0  0  0  0  0  0  0  0  0
  -30.1978  -16.4218   18.6621 O   0  0  0  0  0  0  0  0  0  0  0  0
  -21.4907   -7.0694   21.3316 O   0  0  0  0  0  0  0  0  0  0  0  0
  -27.9985  -26.6753   19.8314 O   0  0  0  0  0  0  0  0  0  1  0  0
  -22.1382   -2.5868   24.4765 F   0  0  0  0  0  0  0  0  0  0  0  0
  -21.8977   -4.5839   20.1918 F   0  0  0  0  0  0  0  0  0  0  0  0
  1  2  1  0  0  0  0
  1  5  2  0  0  0  0
  2  6  2  0  0  0  0
  3 12  2  0  0  0  0
  3 19  1  0  0  0  0
  4 13  1  0  0  0  0
  4 19  2  0  0  0  0
  5 21  1  0  0  0  0
  6 23  1  0  0  0  0
  7 14  2  0  0  0  0
  7 22  1  0  0  0  0
  8 10  2  0  0  0  0
  8 25  1  0  0  0  0
  9 11  1  0  0  0  0
  9 25  2  0  0  0  0
 10 26  1  0  0  0  0
 11 26  2  0  0  0  0
 12 27  1  0  0  0  0
 13 27  2  0  0  0  0
 14 28  1  0  0  0  0
 15 16  2  0  0  0  0
 15 29  1  0  0  0  0
 16 30  1  0  0  0  0
 17 24  1  0  0  0  0
 17 28  2  0  0  0  0
 18 30  2  0  0  0  0
 18 31  1  0  0  0  0
 19 32  1  0  0  0  0
 20 32  1  0  0  0  0
 20 33  2  0  0  0  0
 20 40  1  0  0  0  0
 21 23  2  0  0  0  0
 21 46  1  0  0  0  0
 22 24  2  0  0  0  0
 22 47  1  0  0  0  0
 23 57  1  0  0  0  0
 24 48  1  0  0  0  0
 25 71  1  0  0  0  0
 26 78  1  0  0  0  0
 27 86  1  0  0  0  0
 28 87  1  0  0  0  0
 29 31  2  0  0  0  0
 29 86  1  0  0  0  0
 30 88  1  0  0  0  0
 31 89  1  0  0  0  0
 32 69  2  0  0  0  0
 33 70  1  0  0  0  0
 33 74  1  0  0  0  0
 34 35  2  0  0  0  0
 34 71  1  0  0  0  0
 35 49  1  0  0  0  0
 35 65  1  0  0  0  0
 36 37  2  0  0  0  0
 36 49  1  0  0  0  0
 36 50  1  0  0  0  0
 38 39  2  0  0  0  0
 39 41  1  0  0  0  0
 40 75  1  0  0  0  0
 40 80  2  0  0  0  0
 41 78  1  0  0  0  0
 41 81  2  0  0  0  0
 42 58  1  0  0  0  0
 42 76  1  0  0  0  0
 42 82  2  0  0  0  0
 43 66  1  0  0  0  0
 43 72  1  0  0  0  0
 43 83  2  0  0  0  0
 44 67  1  0  0  0  0
 44 77  1  0  0  0  0
 44 84  2  0  0  0  0
 45 73  1  0  0  0  0
 45 78  1  0  0  0  0
 45 85  2  0  0  0  0
 46 51  1  0  0  0  0
 47 58  1  0  0  0  0
 48 72  1  0  0  0  0
 50 71  1  0  0  0  0
 51 53  1  0  0  0  0
 52 54  1  0  0  0  0
 52 55  1  0  0  0  0
 53 57  1  0  0  0  0
 54 59  1  0  0  0  0
 55 73  1  0  0  0  0
 56 59  1  0  0  0  0
 56 73  1  0  0  0  0
 57 76  1  0  0  0  0
 58 72  1  0  0  0  0
 59 70  1  0  0  0  0
 60 67  1  0  0  0  0
 61 68  1  0  0  0  0
 62 68  1  0  0  0  0
 63 68  1  0  0  0  0
 64 79  1  0  0  0  0
 65 87  1  0  0  0  0
 66 68  1  0  0  0  0
 66 77  1  0  0  0  0
 67 79  1  0  0  0  0
 69 70  1  0  0  0  0
M  CHG  1  79   1
M  ISO  4  45 100  65 101  78 100  87 101
M  END
> <Batch ID>
0076

> <Smiles>
C=CC(=O)[100N:0](c1ccc(N2C=C([101CH2:1][101O:1]c3ccc4c(c3)CN(C(=O)C(NC(=O)C(C)NC)C(C)(C)C)C(C(=O)NC3CCCc5ccccc53)C4)CC(=C)C2)cc1)[100C:0](=O)N1CCCC(n2nc(-c3ccc(Oc4ccc(F)cc4F)cc3)c(C(N)=O)c2N)C1

> <Shape>
0.341

> <Color>
0.113

> <Negative vol penalty>
0.000

$$$$

  -OEChem-04042323503D

 85 94  0     1  0  0  0  0  0999 V2000
  -28.8605  -37.3242   21.3201 C   0  0  0  0  0  0  0  0  0  0  0  0
  -29.2174  -36.0076   21.0471 C   0  0  0  0  0  0  0  0  0  0  0  0
  -24.5476   -8.6370   20.3447 C   0  0  0  0  0  0  0  0  0  0  0  0
  -22.9015  -10.3821   20.6307 C   0  0  0  0  0  0  0  0  0  0  0  0
  -27.8300  -37.5937   22.2197 C   0  0  0  0  0  0  0  0  0  0  0  0
  -28.5448  -34.9597   21.6747 C   0  0  0  0  0  0  0  0  0  0  0  0
  -27.2498  -29.4673   19.2950 C   0  0  0  0  0  0  0  0  0  0  0  0
  -26.4931  -19.7853   16.3772 C   0  0  0  0  0  0  0  0  0  0  0  0
  -26.9674  -20.9177   17.0391 C   0  0  0  0  0  0  0  0  0  0  0  0
  -23.7011   -7.7333   20.9869 C   0  0  0  0  0  0  0  0  0  0  0  0
  -22.0550   -9.4784   21.2729 C   0  0  0  0  0  0  0  0  0  0  0  0
  -27.8707  -28.2245   19.4117 C   0  0  0  0  0  0  0  0  0  0  0  0
  -22.8028   -6.9844   24.1581 C   0  0  0  0  0  0  0  0  0  0  0  0
  -23.3626   -6.1460   25.1220 C   0  0  0  0  0  0  0  0  0  0  0  0
  -26.3284  -27.6255   21.1672 C   0  0  0  0  0  0  0  0  0  0  0  0
  -27.9974  -19.5093   18.7103 C   0  0  0  0  0  0  0  0  0  0  0  0
  -22.6830   -4.2157   23.8377 C   0  0  0  0  0  0  0  0  0  0  0  0
  -24.1478   -9.9614   20.1666 C   0  0  0  0  0  0  0  0  0  0  0  0
  -25.0789  -11.1754   18.1254 C   0  0  0  0  0  0  0  0  0  0  0  0
  -27.1379  -36.5483   22.8512 C   0  0  0  0  0  0  0  0  0  0  0  0
  -26.1686  -29.8033   20.1225 C   0  0  0  0  0  0  0  0  0  0  0  0
  -27.5050  -35.2155   22.5846 C   0  0  0  0  0  0  0  0  0  0  0  0
  -25.6939  -28.8723   21.0573 C   0  0  0  0  0  0  0  0  0  0  0  0
  -26.7708  -18.5149   16.8818 C   0  0  0  0  0  0  0  0  0  0  0  0
  -27.7196  -20.7798   18.2057 C   0  0  0  0  0  0  0  0  0  0  0  0
  -27.5230  -18.3769   18.0483 C   0  0  0  0  0  0  0  0  0  0  0  0
  -22.4548   -8.1540   21.4510 C   0  0  0  0  0  0  0  0  0  0  0  0
  -27.4119  -27.3044   20.3499 C   0  0  0  0  0  0  0  0  0  0  0  0
  -22.1831   -6.4386   23.0340 C   0  0  0  0  0  0  0  0  0  0  0  0
  -23.3027   -4.7616   24.9618 C   0  0  0  0  0  0  0  0  0  0  0  0
  -22.1232   -5.0543   22.8737 C   0  0  0  0  0  0  0  0  0  0  0  0
  -25.0220  -10.8955   19.5038 C   0  0  0  0  0  0  0  0  0  0  0  0
  -26.0642  -12.1251   18.0082 C   0  0  0  0  0  0  0  0  0  0  0  0
  -28.0086  -23.2142   18.5036 C   0  0  0  0  0  0  0  0  0  0  0  0
  -28.5980  -24.0604   19.3593 C   0  0  0  0  0  0  0  0  0  0  0  0
  -29.2449  -23.2774   20.4013 C   0  0  0  0  0  0  0  0  0  0  0  0
  -29.9427  -23.7304   21.4476 C   0  0  0  0  0  0  0  0  0  0  0  0
  -24.3098  -10.6261   17.0472 C   0  0  0  0  0  0  0  0  0  0  0  0
  -25.6330  -32.0412   22.3154 C   0  0  0  0  0  0  0  0  0  0  0  0
  -22.6306  -30.8139   22.2717 C   0  0  0  0  0  0  0  0  0  0  0  0
  -20.5976  -28.1531   21.6130 C   0  0  0  0  0  0  0  0  0  0  0  0
  -28.5501  -16.8023   19.7252 C   0  0  0  0  0  0  0  0  0  0  0  0
  -26.0626  -36.8900   23.8521 C   0  0  0  0  0  0  0  0  0  0  0  0
  -25.4927  -31.1378   19.9658 C   0  0  0  0  0  0  0  0  0  0  0  0
  -24.5238  -29.1765   21.9555 C   0  0  0  0  0  0  0  0  0  0  0  0
  -28.9867  -21.8118   20.0920 C   0  0  0  0  0  0  0  0  0  0  0  0
  -25.1498  -35.7143   24.1906 C   0  0  0  0  0  0  0  0  0  0  0  0
  -29.4594  -13.7821   21.3771 C   0  0  0  0  0  0  0  0  0  0  0  0
  -25.9738  -34.4600   24.4637 C   0  0  0  0  0  0  0  0  0  0  0  0
  -28.3907  -12.7849   20.9236 C   0  0  0  0  0  0  0  0  0  0  0  0
  -28.8802  -15.1812   21.5794 C   0  0  0  0  0  0  0  0  0  0  0  0
  -27.0644  -14.7182   19.9802 C   0  0  0  0  0  0  0  0  0  0  0  0
  -26.7824  -34.0510   23.2266 C   0  0  1  0  0  0  0  0  0  0  0  0
  -24.7274  -31.5700   21.2128 C   0  0  1  0  0  0  0  0  0  0  0  0
  -27.6131  -13.3095   19.7006 C   0  0  2  0  0  0  0  0  0  0  0  0
  -26.2497  -17.3197   16.1519 C   0  0  0  0  0  0  0  0  0  0  0  0
  -18.1941  -27.4385   21.7119 C   0  0  0  0  0  0  0  0  0  0  0  0
  -22.8547  -30.4875   25.2971 C   0  0  0  0  0  0  0  0  0  0  0  0
  -20.8878  -28.9410   25.2059 C   0  0  0  0  0  0  0  0  0  0  0  0
  -20.6355  -31.3200   24.4992 C   0  0  0  0  0  0  0  0  0  0  0  0
  -20.4916  -27.6995   18.6903 C   0  0  0  0  0  0  0  0  0  0  0  0
  -28.6072  -25.5439   19.2880 C   0  0  0  0  0  0  0  0  0  1  0  0
  -21.9133  -29.7165   23.0199 C   0  0  1  0  0  0  0  0  0  0  0  0
  -19.2887  -28.0499   20.8511 C   0  0  2  0  0  0  0  0  0  0  0  0
  -21.5961  -30.1110   24.4901 C   0  0  0  0  0  0  0  0  0  0  0  0
  -25.9013  -11.6096   20.2117 N   0  0  0  0  0  0  0  0  0  0  0  0
  -26.5201  -12.3474   19.2743 N   0  0  0  0  0  0  0  0  0  0  0  0
  -28.1860  -21.8939   18.8565 N   0  0  0  0  0  0  0  0  0  0  0  0
  -23.9004  -30.4971   21.7687 N   0  0  0  0  0  0  0  0  0  0  0  0
  -28.1616  -15.6138   20.3789 N   0  0  0  0  0  0  0  0  0  0  0  0
  -26.5766  -12.7833   16.9468 N   0  0  0  0  0  0  0  0  0  0  0  0
  -23.3385   -9.6603   17.3436 N   0  0  0  0  0  0  0  0  0  0  0  0
  -27.8156  -17.0951   18.5765 N   0  0  0  0  0  0  0  0  0  0  0  0
  -25.9303  -33.3896   22.2618 N   0  0  0  0  0  0  0  0  0  0  0  0
  -20.7373  -29.3812   22.2243 N   0  0  0  0  0  0  0  0  0  0  0  0
  -19.4611  -27.2020   19.6377 N   0  3  0  0  0  0  0  0  0  0  0  0
  -24.4903  -10.9693   15.8542 O   0  0  0  0  0  0  0  0  0  0  0  0
  -26.0313  -31.2409   23.1536 O   0  0  0  0  0  0  0  0  0  0  0  0
  -22.0815  -31.9097   22.1322 O   0  0  0  0  0  0  0  0  0  0  0  0
  -21.4129  -27.2348   21.6641 O   0  0  0  0  0  0  0  0  0  0  0  0
  -29.4847  -17.4940   20.1376 O   0  0  0  0  0  0  0  0  0  0  0  0
  -21.6285   -7.2724   22.0775 O   0  0  0  0  0  0  0  0  0  0  0  0
  -28.0165  -26.0909   20.4663 O   0  0  0  0  0  0  0  0  0  1  0  0
  -23.8417   -3.9566   25.8868 F   0  0  0  0  0  0  0  0  0  0  0  0
  -21.5302   -4.5240   21.7953 F   0  0  0  0  0  0  0  0  0  0  0  0
  1  2  1  0  0  0  0
  1  5  2  0  0  0  0
  2  6  2  0  0  0  0
  3 10  2  0  0  0  0
  3 18  1  0  0  0  0
  4 11  1  0  0  0  0
  4 18  2  0  0  0  0
  5 20  1  0  0  0  0
  6 22  1  0  0  0  0
  7 12  2  0  0  0  0
  7 21  1  0  0  0  0
  8  9  2  0  0  0  0
  8 24  1  0  0  0  0
  9 25  1  0  0  0  0
 10 27  1  0  0  0  0
 11 27  2  0  0  0  0
 12 28  1  0  0  0  0
 13 14  2  0  0  0  0
 13 29  1  0  0  0  0
 14 30  1  0  0  0  0
 15 23  1  0  0  0  0
 15 28  2  0  0  0  0
 16 25  2  0  0  0  0
 16 26  1  0  0  0  0
 17 30  2  0  0  0  0
 17 31  1  0  0  0  0
 18 32  1  0  0  0  0
 19 32  1  0  0  0  0
 19 33  2  0  0  0  0
 19 38  1  0  0  0  0
 20 22  2  0  0  0  0
 20 43  1  0  0  0  0
 21 23  2  0  0  0  0
 21 44  1  0  0  0  0
 22 53  1  0  0  0  0
 23 45  1  0  0  0  0
 24 26  2  0  0  0  0
 24 56  1  0  0  0  0
 25 68  1  0  0  0  0
 26 73  1  0  0  0  0
 27 82  1  0  0  0  0
 28 83  1  0  0  0  0
 29 31  2  0  0  0  0
 29 82  1  0  0  0  0
 30 84  1  0  0  0  0
 31 85  1  0  0  0  0
 32 66  2  0  0  0  0
 33 67  1  0  0  0  0
 33 71  1  0  0  0  0
 34 35  2  0  0  0  0
 34 68  1  0  0  0  0
 35 36  1  0  0  0  0
 35 62  1  0  0  0  0
 36 37  2  0  0  0  0
 36 46  1  0  0  0  0
 38 72  1  0  0  0  0
 38 77  2  0  0  0  0
 39 54  1  0  0  0  0
 39 74  1  0  0  0  0
 39 78  2  0  0  0  0
 40 63  1  0  0  0  0
 40 69  1  0  0  0  0
 40 79  2  0  0  0  0
 41 64  1  0  0  0  0
 41 75  1  0  0  0  0
 41 80  2  0  0  0  0
 42 70  1  0  0  0  0
 42 73  1  0  0  0  0
 42 81  2  0  0  0  0
 43 47  1  0  0  0  0
 44 54  1  0  0  0  0
 45 69  1  0  0  0  0
 46 68  1  0  0  0  0
 47 49  1  0  0  0  0
 48 50  1  0  0  0  0
 48 51  1  0  0  0  0
 49 53  1  0  0  0  0
 50 55  1  0  0  0  0
 51 70  1  0  0  0  0
 52 55  1  0  0  0  0
 52 70  1  0  0  0  0
 53 74  1  0  0  0  0
 54 69  1  0  0  0  0
 55 67  1  0  0  0  0
 57 64  1  0  0  0  0
 58 65  1  0  0  0  0
 59 65  1  0  0  0  0
 60 65  1  0  0  0  0
 61 76  1  0  0  0  0
 62 83  1  0  0  0  0
 63 65  1  0  0  0  0
 63 75  1  0  0  0  0
 64 76  1  0  0  0  0
 66 67  1  0  0  0  0
M  CHG  1  76   1
M  ISO  4  42 100  62 101  73 100  83 101
M  END
> <Batch ID>
0076

> <Smiles>
C=C1CN(c2ccc(C)c([100NH:0][100C:0](=O)N3CCCC(n4nc(-c5ccc(Oc6ccc(F)cc6F)cc5)c(C(N)=O)c4N)C3)c2)C=C1[101CH2:1][101O:1]c1ccc2c(c1)CN(C(=O)C(NC(=O)C(C)NC)C(C)(C)C)C(C(=O)NC1CCCc3ccccc31)C2

> <Shape>
0.313

> <Color>
0.111

> <Negative vol penalty>
0.000

$$$$

  -OEChem-04042323503D

 90 99  0     1  0  0  0  0  0999 V2000
  -20.4745  -17.5568   20.4141 C   0  0  0  0  0  0  0  0  0  0  0  0
  -21.7023  -18.1590   20.6696 C   0  0  0  0  0  0  0  0  0  0  0  0
  -34.6418  -27.3621   22.0003 C   0  0  0  0  0  0  0  0  0  0  0  0
  -23.0406  -28.4951   22.2131 C   0  0  0  0  0  0  0  0  0  0  0  0
  -23.3093  -30.3702   20.7135 C   0  0  0  0  0  0  0  0  0  0  0  0
  -20.3335  -16.1769   20.5552 C   0  0  0  0  0  0  0  0  0  0  0  0
  -22.7895  -17.3818   21.0674 C   0  0  0  0  0  0  0  0  0  0  0  0
  -27.0541  -18.6143   18.6304 C   0  0  0  0  0  0  0  0  0  0  0  0
  -33.9475  -26.2014   21.6594 C   0  0  0  0  0  0  0  0  0  0  0  0
  -34.2341  -28.5943   21.4891 C   0  0  0  0  0  0  0  0  0  0  0  0
  -21.9121  -29.0997   22.7668 C   0  0  0  0  0  0  0  0  0  0  0  0
  -22.1808  -30.9748   21.2671 C   0  0  0  0  0  0  0  0  0  0  0  0
  -27.7246  -19.7589   19.0595 C   0  0  0  0  0  0  0  0  0  0  0  0
  -18.6526  -29.5001   21.9615 C   0  0  0  0  0  0  0  0  0  0  0  0
  -17.5263  -28.7037   22.1685 C   0  0  0  0  0  0  0  0  0  0  0  0
  -29.2688  -18.3820   20.2999 C   0  0  0  0  0  0  0  0  0  0  0  0
  -17.6210  -29.1846   24.5343 C   0  0  0  0  0  0  0  0  0  0  0  0
  -23.7392  -29.1304   21.1864 C   0  0  0  0  0  0  0  0  0  0  0  0
  -24.9461  -27.6244   19.5182 C   0  0  0  0  0  0  0  0  0  0  0  0
  -21.4220  -15.3811   20.9457 C   0  0  0  0  0  0  0  0  0  0  0  0
  -27.4801  -17.3434   19.0423 C   0  0  0  0  0  0  0  0  0  0  0  0
  -22.6625  -15.9901   21.2152 C   0  0  0  0  0  0  0  0  0  0  0  0
  -28.6036  -17.2227   19.8726 C   0  0  0  0  0  0  0  0  0  0  0  0
  -32.8456  -26.2727   20.8072 C   0  0  0  0  0  0  0  0  0  0  0  0
  -33.1321  -28.6656   20.6369 C   0  0  0  0  0  0  0  0  0  0  0  0
  -21.4822  -30.3395   22.2938 C   0  0  0  0  0  0  0  0  0  0  0  0
  -28.8304  -19.6431   19.8966 C   0  0  0  0  0  0  0  0  0  0  0  0
  -19.2632  -30.1386   23.0410 C   0  0  0  0  0  0  0  0  0  0  0  0
  -17.0105  -28.5460   23.4548 C   0  0  0  0  0  0  0  0  0  0  0  0
  -18.7474  -29.9809   24.3273 C   0  0  0  0  0  0  0  0  0  0  0  0
  -32.4378  -27.5048   20.2959 C   0  0  0  0  0  0  0  0  0  0  0  0
  -24.9054  -28.5067   20.6144 C   0  0  0  0  0  0  0  0  0  0  0  0
  -26.2772  -27.3186   19.3729 C   0  0  0  0  0  0  0  0  0  0  0  0
  -30.9399  -23.0861   21.1133 C   0  0  0  0  0  0  0  0  0  0  0  0
  -34.8882  -30.7676   19.5581 C   0  0  0  0  0  0  0  0  0  0  0  0
  -33.6097  -30.9767   19.8800 C   0  0  0  0  0  0  0  0  0  0  0  0
  -23.8764  -27.1260   18.7040 C   0  0  0  0  0  0  0  0  0  0  0  0
  -26.1816  -14.9775   20.7217 C   0  0  0  0  0  0  0  0  0  0  0  0
  -28.8906  -13.4088   19.8714 C   0  0  0  0  0  0  0  0  0  0  0  0
  -32.1533  -13.5861   18.8865 C   0  0  0  0  0  0  0  0  0  0  0  0
  -31.3231  -30.2085   19.9700 C   0  0  0  0  0  0  0  0  0  0  0  0
  -21.2088  -13.8995   21.1305 C   0  0  0  0  0  0  0  0  0  0  0  0
  -26.7622  -16.1171   18.5491 C   0  0  0  0  0  0  0  0  0  0  0  0
  -29.1134  -15.8803   20.3269 C   0  0  0  0  0  0  0  0  0  0  0  0
  -32.1057  -24.0000   21.4243 C   0  0  0  0  0  0  0  0  0  0  0  0
  -22.5080  -13.1004   21.1935 C   0  0  0  0  0  0  0  0  0  0  0  0
  -30.2470  -27.4986   22.2981 C   0  0  0  0  0  0  0  0  0  0  0  0
  -23.5057  -13.7764   22.1285 C   0  0  0  0  0  0  0  0  0  0  0  0
  -28.7442  -27.4533   22.0257 C   0  0  0  0  0  0  0  0  0  0  0  0
  -30.7709  -23.9422   18.8016 C   0  0  0  0  0  0  0  0  0  0  0  0
  -30.8045  -28.9014   22.0878 C   0  0  0  0  0  0  0  0  0  0  0  0
  -32.0308  -24.7696   19.0431 C   0  0  0  0  0  0  0  0  0  0  0  0
  -29.0227  -29.4231   20.4507 C   0  0  0  0  0  0  0  0  0  0  0  0
  -23.8718  -15.1777   21.6248 C   0  0  1  0  0  0  0  0  0  0  0  0
  -30.7617  -22.6787   19.6589 C   0  0  2  0  0  0  0  0  0  0  0  0
  -26.9717  -14.9009   19.4459 C   0  0  1  0  0  0  0  0  0  0  0  0
  -28.4190  -28.0203   20.6332 C   0  0  2  0  0  0  0  0  0  0  0  0
  -34.1171  -12.1359   18.3052 C   0  0  0  0  0  0  0  0  0  0  0  0
  -28.2570  -22.7338   19.7981 C   0  0  0  0  0  0  0  0  0  0  0  0
  -29.3817  -21.3842   18.0029 C   0  0  0  0  0  0  0  0  0  0  0  0
  -29.3324  -12.8241   22.8333 C   0  0  0  0  0  0  0  0  0  0  0  0
  -31.7059  -12.2394   22.2924 C   0  0  0  0  0  0  0  0  0  0  0  0
  -29.8399  -10.9105   21.3052 C   0  0  0  0  0  0  0  0  0  0  0  0
  -32.2903  -14.6735   16.1373 C   0  0  0  0  0  0  0  0  0  0  0  0
  -30.2695  -13.2567   20.4668 C   0  0  1  0  0  0  0  0  0  0  0  0
  -32.9078  -12.8870   17.7701 C   0  0  2  0  0  0  0  0  0  0  0  0
  -29.4768  -21.8863   19.4429 C   0  0  0  0  0  0  0  0  0  1  0  0
  -30.2764  -12.3332   21.7176 C   0  0  0  0  0  0  0  0  0  0  0  0
  -26.1145  -28.7457   21.1292 N   0  0  0  0  0  0  0  0  0  0  0  0
  -26.9275  -28.0091   20.3530 N   0  0  0  0  0  0  0  0  0  0  0  0
  -32.1500  -25.1053   20.4669 N   0  0  2  0  0  0  0  0  0  0  0  0
  -28.3739  -14.7113   19.8228 N   0  0  0  0  0  0  0  0  0  0  0  0
  -30.4547  -29.4265   20.7600 N   0  0  0  0  0  0  0  0  0  0  0  0
  -26.9432  -26.5289   18.5038 N   0  0  0  0  0  0  0  0  0  0  0  0
  -22.5690  -27.5417   18.9907 N   0  0  0  0  0  0  0  0  0  0  0  0
  -24.8175  -15.0912   20.5327 N   0  0  0  0  0  0  0  0  0  0  0  0
  -31.1340  -12.8016   19.3833 N   0  0  0  0  0  0  0  0  0  0  0  0
  -32.7115  -29.9469   20.1077 N   0  0  0  0  0  0  0  0  0  0  0  0
  -33.3788  -13.8792   16.7628 N   0  3  0  0  0  0  0  0  0  0  0  0
  -30.2448  -22.6250   22.0188 O   0  0  0  0  0  0  0  0  0  0  0  0
  -24.0723  -26.3225   17.7608 O   0  0  0  0  0  0  0  0  0  0  0  0
  -26.7662  -14.9351   21.7979 O   0  0  0  0  0  0  0  0  0  0  0  0
  -28.2968  -12.4097   19.4580 O   0  0  0  0  0  0  0  0  0  0  0  0
  -32.4418  -14.7137   19.2811 O   0  0  0  0  0  0  0  0  0  0  0  0
  -30.8943  -31.0592   19.1797 O   0  0  0  0  0  0  0  0  0  0  0  0
  -20.3809  -30.9296   22.8337 O   0  0  0  0  0  0  0  0  0  0  0  0
  -29.4862  -20.7587   20.3174 O   0  0  0  0  0  0  0  0  0  1  0  0
  -15.9280  -27.7824   23.6532 F   0  0  0  0  0  0  0  0  0  0  0  0
  -19.3289  -30.5928   25.3681 F   0  0  0  0  0  0  0  0  0  0  0  0
  -31.3775  -27.5730   19.4763 F   0  0  0  0  0  0  0  0  0  0  0  0
  1  2  1  0  0  0  0
  1  6  2  0  0  0  0
  2  7  2  0  0  0  0
  3  9  1  0  0  0  0
  3 10  2  0  0  0  0
  4 11  2  0  0  0  0
  4 18  1  0  0  0  0
  5 12  1  0  0  0  0
  5 18  2  0  0  0  0
  6 20  1  0  0  0  0
  7 22  1  0  0  0  0
  8 13  2  0  0  0  0
  8 21  1  0  0  0  0
  9 24  2  0  0  0  0
 10 25  1  0  0  0  0
 11 26  1  0  0  0  0
 12 26  2  0  0  0  0
 13 27  1  0  0  0  0
 14 15  2  0  0  0  0
 14 28  1  0  0  0  0
 15 29  1  0  0  0  0
 16 23  1  0  0  0  0
 16 27  2  0  0  0  0
 17 29  2  0  0  0  0
 17 30  1  0  0  0  0
 18 32  1  0  0  0  0
 19 32  1  0  0  0  0
 19 33  2  0  0  0  0
 19 37  1  0  0  0  0
 20 22  2  0  0  0  0
 20 42  1  0  0  0  0
 21 23  2  0  0  0  0
 21 43  1  0  0  0  0
 22 54  1  0  0  0  0
 23 44  1  0  0  0  0
 24 31  1  0  0  0  0
 24 71  1  0  0  0  0
 25 31  2  0  0  0  0
 25 78  1  0  0  0  0
 26 86  1  0  0  0  0
 27 87  1  0  0  0  0
 28 30  2  0  0  0  0
 28 86  1  0  0  0  0
 29 88  1  0  0  0  0
 30 89  1  0  0  0  0
 31 90  1  0  0  0  0
 32 69  2  0  0  0  0
 33 70  1  0  0  0  0
 33 74  1  0  0  0  0
 34 45  1  0  0  0  0
 34 55  1  0  0  0  0
 34 80  2  0  0  0  0
 35 36  2  0  0  0  0
 36 78  1  0  0  0  0
 37 75  1  0  0  0  0
 37 81  2  0  0  0  0
 38 56  1  0  0  0  0
 38 76  1  0  0  0  0
 38 82  2  0  0  0  0
 39 65  1  0  0  0  0
 39 72  1  0  0  0  0
 39 83  2  0  0  0  0
 40 66  1  0  0  0  0
 40 77  1  0  0  0  0
 40 84  2  0  0  0  0
 41 73  1  0  0  0  0
 41 78  1  0  0  0  0
 41 85  2  0  0  0  0
 42 46  1  0  0  0  0
 43 56  1  0  0  0  0
 44 72  1  0  0  0  0
 45 71  1  0  0  0  0
 46 48  1  0  0  0  0
 47 49  1  0  0  0  0
 47 51  1  0  0  0  0
 48 54  1  0  0  0  0
 49 57  1  0  0  0  0
 50 52  1  0  0  0  0
 50 55  1  0  0  0  0
 51 73  1  0  0  0  0
 52 71  1  0  0  0  0
 53 57  1  0  0  0  0
 53 73  1  0  0  0  0
 54 76  1  0  0  0  0
 55 67  1  0  0  0  0
 56 72  1  0  0  0  0
 57 70  1  0  0  0  0
 58 66  1  0  0  0  0
 59 67  1  0  0  0  0
 60 67  1  0  0  0  0
 61 68  1  0  0  0  0
 62 68  1  0  0  0  0
 63 68  1  0  0  0  0
 64 79  1  0  0  0  0
 65 68  1  0  0  0  0
 65 77  1  0  0  0  0
 66 79  1  0  0  0  0
 67 87  1  0  0  0  0
 69 70  1  0  0  0  0
M  CHG  1  79   1
M  ISO  4  41 100  67 101  78 100  87 101
M  END
> <Batch ID>
0076

> <Smiles>
C=C[100N:0](c1cccc(N2CCC([101C:1](C)(C)[101O:1]c3ccc4c(c3)CN(C(=O)C(NC(=O)C(C)NC)C(C)(C)C)C(C(=O)NC3CCCc5ccccc53)C4)C(=O)C2)c1F)[100C:0](=O)N1CCCC(n2nc(-c3ccc(Oc4ccc(F)cc4F)cc3)c(C(N)=O)c2N)C1

> <Shape>
0.272

> <Color>
0.070

> <Negative vol penalty>
0.000

$$$$

  -OEChem-04042323503D

 88 97  0     1  0  0  0  0  0999 V2000
  -29.5015  -35.1814   21.1487 C   0  0  0  0  0  0  0  0  0  0  0  0
  -30.1891  -34.0119   21.4569 C   0  0  0  0  0  0  0  0  0  0  0  0
  -23.1291   -9.8542   19.8658 C   0  0  0  0  0  0  0  0  0  0  0  0
  -23.9357   -9.7507   22.1409 C   0  0  0  0  0  0  0  0  0  0  0  0
  -28.2450  -35.4171   21.7052 C   0  0  0  0  0  0  0  0  0  0  0  0
  -29.6211  -33.0780   22.3227 C   0  0  0  0  0  0  0  0  0  0  0  0
  -30.1736  -26.9852   22.0422 C   0  0  0  0  0  0  0  0  0  0  0  0
  -32.1293  -18.7614   22.2758 C   0  0  0  0  0  0  0  0  0  0  0  0
  -31.6512  -17.5512   21.7735 C   0  0  0  0  0  0  0  0  0  0  0  0
  -22.4368   -8.6584   20.0568 C   0  0  0  0  0  0  0  0  0  0  0  0
  -23.2434   -8.5549   22.3319 C   0  0  0  0  0  0  0  0  0  0  0  0
  -30.9967  -26.0859   22.7186 C   0  0  0  0  0  0  0  0  0  0  0  0
  -20.0626   -7.5903   22.9424 C   0  0  0  0  0  0  0  0  0  0  0  0
  -19.3324   -7.4473   24.1222 C   0  0  0  0  0  0  0  0  0  0  0  0
  -29.2283  -25.6704   24.3058 C   0  0  0  0  0  0  0  0  0  0  0  0
  -30.0898  -19.0425   23.5400 C   0  0  0  0  0  0  0  0  0  0  0  0
  -20.6646   -5.5204   24.7132 C   0  0  0  0  0  0  0  0  0  0  0  0
  -23.8786  -10.4003   20.9078 C   0  0  0  0  0  0  0  0  0  0  0  0
  -24.1176  -12.9399   20.9396 C   0  0  0  0  0  0  0  0  0  0  0  0
  -27.6571  -34.4811   22.5706 C   0  0  0  0  0  0  0  0  0  0  0  0
  -28.8732  -27.2425   22.4996 C   0  0  0  0  0  0  0  0  0  0  0  0
  -28.3562  -33.3021   22.8923 C   0  0  0  0  0  0  0  0  0  0  0  0
  -28.3898  -26.5715   23.6320 C   0  0  0  0  0  0  0  0  0  0  0  0
  -31.3486  -19.5071   23.1591 C   0  0  0  0  0  0  0  0  0  0  0  0
  -30.3924  -17.0866   22.1544 C   0  0  0  0  0  0  0  0  0  0  0  0
  -29.6117  -17.8323   23.0377 C   0  0  0  0  0  0  0  0  0  0  0  0
  -22.4940   -8.0088   21.2898 C   0  0  0  0  0  0  0  0  0  0  0  0
  -30.5251  -25.4305   23.8523 C   0  0  0  0  0  0  0  0  0  0  0  0
  -21.0938   -6.6983   22.6480 C   0  0  0  0  0  0  0  0  0  0  0  0
  -19.6334   -6.4124   25.0076 C   0  0  0  0  0  0  0  0  0  0  0  0
  -21.3948   -5.6634   23.5334 C   0  0  0  0  0  0  0  0  0  0  0  0
  -24.5944  -11.6352   20.7110 C   0  0  0  0  0  0  0  0  0  0  0  0
  -25.1714  -13.7543   20.6039 C   0  0  0  0  0  0  0  0  0  0  0  0
  -31.2845  -21.6099   24.5090 C   0  0  0  0  0  0  0  0  0  0  0  0
  -22.8367  -13.3766   21.4132 C   0  0  0  0  0  0  0  0  0  0  0  0
  -27.3371  -29.8143   23.5628 C   0  0  0  0  0  0  0  0  0  0  0  0
  -24.7771  -27.8225   23.5211 C   0  0  0  0  0  0  0  0  0  0  0  0
  -27.4455  -18.0136   24.3023 C   0  0  0  0  0  0  0  0  0  0  0  0
  -23.5939  -24.6229   23.6161 C   0  0  0  0  0  0  0  0  0  0  0  0
  -30.5943  -15.0094   20.7435 C   0  0  0  0  0  0  0  0  0  0  0  0
  -26.3174  -34.8017   23.1848 C   0  0  0  0  0  0  0  0  0  0  0  0
  -27.9886  -28.1953   21.7433 C   0  0  0  0  0  0  0  0  0  0  0  0
  -26.9944  -26.7973   24.1520 C   0  0  0  0  0  0  0  0  0  0  0  0
  -25.6227  -33.5888   23.7983 C   0  0  0  0  0  0  0  0  0  0  0  0
  -29.5273  -12.7028   18.2498 C   0  0  0  0  0  0  0  0  0  0  0  0
  -26.6007  -32.7893   24.6533 C   0  0  0  0  0  0  0  0  0  0  0  0
  -28.1096  -12.3268   18.6866 C   0  0  0  0  0  0  0  0  0  0  0  0
  -30.4575  -12.8942   19.4464 C   0  0  0  0  0  0  0  0  0  0  0  0
  -28.5525  -13.4536   20.9050 C   0  0  0  0  0  0  0  0  0  0  0  0
  -33.0782  -21.4020   23.4233 C   0  0  0  0  0  0  0  0  0  0  0  0
  -27.7624  -32.2535   23.8078 C   0  0  1  0  0  0  0  0  0  0  0  0
  -26.8603  -28.7677   22.5958 C   0  0  1  0  0  0  0  0  0  0  0  0
  -27.5630  -13.3138   19.7366 C   0  0  2  0  0  0  0  0  0  0  0  0
  -32.5531  -22.5033   24.3926 C   0  0  2  0  0  0  0  0  0  0  0  0
  -26.1821  -17.2072   24.4698 C   0  0  0  0  0  0  0  0  0  0  0  0
  -33.3381  -22.6322   25.6934 C   0  0  0  0  0  0  0  0  0  0  0  0
  -21.4535  -23.3129   23.6029 C   0  0  0  0  0  0  0  0  0  0  0  0
  -24.2984  -28.5798   26.4379 C   0  0  0  0  0  0  0  0  0  0  0  0
  -22.7962  -26.5867   26.6362 C   0  0  0  0  0  0  0  0  0  0  0  0
  -22.2258  -28.4230   25.0471 C   0  0  0  0  0  0  0  0  0  0  0  0
  -24.3254  -23.2316   21.1085 C   0  0  0  0  0  0  0  0  0  0  0  0
  -32.2975  -23.8487   23.7414 C   0  0  0  0  0  0  0  0  0  1  0  0
  -24.1472  -26.8704   24.5089 C   0  0  1  0  0  0  0  0  0  0  0  0
  -22.5719  -23.9009   22.7566 C   0  0  2  0  0  0  0  0  0  0  0  0
  -23.3939  -27.6120   25.6491 C   0  0  0  0  0  0  0  0  0  0  0  0
  -25.8531  -11.6171   20.2644 N   0  0  0  0  0  0  0  0  0  0  0  0
  -26.1761  -12.9205   20.2097 N   0  0  0  0  0  0  0  0  0  0  0  0
  -31.8203  -20.7005   23.6539 N   0  0  0  0  0  0  0  0  0  0  0  0
  -26.1700  -27.7430   23.3816 N   0  0  0  0  0  0  0  0  0  0  0  0
  -29.8765  -13.8453   20.3966 N   0  0  0  0  0  0  0  0  0  0  0  0
  -25.3273  -15.0952   20.6104 N   0  0  0  0  0  0  0  0  0  0  0  0
  -21.8688  -12.4078   21.7114 N   0  0  0  0  0  0  0  0  0  0  0  0
  -28.3462  -17.3882   23.4327 N   0  0  0  0  0  0  0  0  0  0  0  0
  -29.9280  -15.8550   21.6298 N   0  0  0  0  0  0  0  0  0  0  0  0
  -27.3422  -31.0962   23.0471 N   0  0  0  0  0  0  0  0  0  0  0  0
  -23.3090  -25.9673   23.7276 N   0  0  0  0  0  0  0  0  0  0  0  0
  -23.2213  -22.7930   22.0004 N   0  3  0  0  0  0  0  0  0  0  0  0
  -30.2313  -21.6612   25.1025 O   0  0  0  0  0  0  0  0  0  0  0  0
  -22.5531  -14.5907   21.5516 O   0  0  0  0  0  0  0  0  0  0  0  0
  -27.6740  -29.4833   24.6936 O   0  0  0  0  0  0  0  0  0  0  0  0
  -24.0590  -28.6029   22.8912 O   0  0  0  0  0  0  0  0  0  0  0  0
  -27.5914  -19.0815   24.8881 O   0  0  0  0  0  0  0  0  0  0  0  0
  -24.5474  -24.0506   24.1396 O   0  0  0  0  0  0  0  0  0  0  0  0
  -31.7059  -15.2526   20.2667 O   0  0  0  0  0  0  0  0  0  0  0  0
  -21.8184   -6.8421   21.4766 O   0  0  0  0  0  0  0  0  0  0  0  0
  -31.3266  -24.5527   24.5147 O   0  0  0  0  0  0  0  0  0  1  0  0
  -18.9331   -6.2762   26.1413 F   0  0  0  0  0  0  0  0  0  0  0  0
  -22.3851   -4.8041   23.2565 F   0  0  0  0  0  0  0  0  0  0  0  0
  1  2  1  0  0  0  0
  1  5  2  0  0  0  0
  2  6  2  0  0  0  0
  3 10  2  0  0  0  0
  3 18  1  0  0  0  0
  4 11  1  0  0  0  0
  4 18  2  0  0  0  0
  5 20  1  0  0  0  0
  6 22  1  0  0  0  0
  7 12  2  0  0  0  0
  7 21  1  0  0  0  0
  8  9  2  0  0  0  0
  8 24  1  0  0  0  0
  9 25  1  0  0  0  0
 10 27  1  0  0  0  0
 11 27  2  0  0  0  0
 12 28  1  0  0  0  0
 13 14  2  0  0  0  0
 13 29  1  0  0  0  0
 14 30  1  0  0  0  0
 15 23  1  0  0  0  0
 15 28  2  0  0  0  0
 16 24  2  0  0  0  0
 16 26  1  0  0  0  0
 17 30  2  0  0  0  0
 17 31  1  0  0  0  0
 18 32  1  0  0  0  0
 19 32  1  0  0  0  0
 19 33  2  0  0  0  0
 19 35  1  0  0  0  0
 20 22  2  0  0  0  0
 20 41  1  0  0  0  0
 21 23  2  0  0  0  0
 21 42  1  0  0  0  0
 22 51  1  0  0  0  0
 23 43  1  0  0  0  0
 24 68  1  0  0  0  0
 25 26  2  0  0  0  0
 25 74  1  0  0  0  0
 26 73  1  0  0  0  0
 27 85  1  0  0  0  0
 28 86  1  0  0  0  0
 29 31  2  0  0  0  0
 29 85  1  0  0  0  0
 30 87  1  0  0  0  0
 31 88  1  0  0  0  0
 32 66  2  0  0  0  0
 33 67  1  0  0  0  0
 33 71  1  0  0  0  0
 34 54  1  0  0  0  0
 34 68  1  0  0  0  0
 34 78  2  0  0  0  0
 35 72  1  0  0  0  0
 35 79  2  0  0  0  0
 36 52  1  0  0  0  0
 36 75  1  0  0  0  0
 36 80  2  0  0  0  0
 37 63  1  0  0  0  0
 37 69  1  0  0  0  0
 37 81  2  0  0  0  0
 38 55  1  0  0  0  0
 38 73  1  0  0  0  0
 38 82  2  0  0  0  0
 39 64  1  0  0  0  0
 39 76  1  0  0  0  0
 39 83  2  0  0  0  0
 40 70  1  0  0  0  0
 40 74  1  0  0  0  0
 40 84  2  0  0  0  0
 41 44  1  0  0  0  0
 42 52  1  0  0  0  0
 43 69  1  0  0  0  0
 44 46  1  0  0  0  0
 45 47  1  0  0  0  0
 45 48  1  0  0  0  0
 46 51  1  0  0  0  0
 47 53  1  0  0  0  0
 48 70  1  0  0  0  0
 49 53  1  0  0  0  0
 49 70  1  0  0  0  0
 50 54  1  0  0  0  0
 50 68  1  0  0  0  0
 51 75  1  0  0  0  0
 52 69  1  0  0  0  0
 53 67  1  0  0  0  0
 54 56  1  0  0  0  0
 54 62  1  0  0  0  0
 57 64  1  0  0  0  0
 58 65  1  0  0  0  0
 59 65  1  0  0  0  0
 60 65  1  0  0  0  0
 61 77  1  0  0  0  0
 62 86  1  0  0  0  0
 63 65  1  0  0  0  0
 63 76  1  0  0  0  0
 64 77  1  0  0  0  0
 66 67  1  0  0  0  0
M  CHG  1  77   1
M  ISO  4  40 100  62 101  74 100  86 101
M  END
> <Batch ID>
0076

> <Smiles>
CNC(C)C(=O)NC(C(=O)N1Cc2cc([101O:1][101CH2:1]C3(C)CN(c4ccc([100NH:0][100C:0](=O)N5CCCC(n6nc(-c7ccc(Oc8ccc(F)cc8F)cc7)c(C(N)=O)c6N)C5)c(NC(C)=O)c4)C3=O)ccc2CC1C(=O)NC1CCCc2ccccc21)C(C)(C)C

> <Shape>
0.239

> <Color>
0.185

> <Negative vol penalty>
0.000

$$$$

  -OEChem-04042323503D

 87 96  0     1  0  0  0  0  0999 V2000
  -27.2325  -36.3484   25.0916 C   0  0  0  0  0  0  0  0  0  0  0  0
  -27.9338  -35.2321   24.6473 C   0  0  0  0  0  0  0  0  0  0  0  0
  -23.0938   -9.9151   19.9613 C   0  0  0  0  0  0  0  0  0  0  0  0
  -23.8942   -9.9382   22.2407 C   0  0  0  0  0  0  0  0  0  0  0  0
  -28.7435  -17.7998   22.0784 C   0  0  0  0  0  0  0  0  0  0  0  0
  -25.8676  -36.2516   25.3595 C   0  0  0  0  0  0  0  0  0  0  0  0
  -27.2708  -34.0180   24.4716 C   0  0  0  0  0  0  0  0  0  0  0  0
  -27.3399  -28.1661   20.3403 C   0  0  0  0  0  0  0  0  0  0  0  0
  -28.0086  -18.8974   21.6305 C   0  0  0  0  0  0  0  0  0  0  0  0
  -22.3757   -8.7488   20.2252 C   0  0  0  0  0  0  0  0  0  0  0  0
  -23.1761   -8.7718   22.5047 C   0  0  0  0  0  0  0  0  0  0  0  0
  -27.3784  -26.7762   20.4422 C   0  0  0  0  0  0  0  0  0  0  0  0
  -19.4689   -7.8997   21.7294 C   0  0  0  0  0  0  0  0  0  0  0  0
  -18.1547   -7.8291   21.2676 C   0  0  0  0  0  0  0  0  0  0  0  0
  -29.1635  -17.1473   19.7904 C   0  0  0  0  0  0  0  0  0  0  0  0
  -25.0028  -26.7470   20.8603 C   0  0  0  0  0  0  0  0  0  0  0  0
  -18.7262   -5.8954   19.9368 C   0  0  0  0  0  0  0  0  0  0  0  0
  -23.8531  -10.5098   20.9690 C   0  0  0  0  0  0  0  0  0  0  0  0
  -29.3211  -16.9247   21.1584 C   0  0  0  0  0  0  0  0  0  0  0  0
  -24.1464  -13.0406   20.8413 C   0  0  0  0  0  0  0  0  0  0  0  0
  -25.1856  -35.0381   25.1777 C   0  0  0  0  0  0  0  0  0  0  0  0
  -26.1324  -28.8590   20.5088 C   0  0  0  0  0  0  0  0  0  0  0  0
  -25.8958  -33.9045   24.7385 C   0  0  0  0  0  0  0  0  0  0  0  0
  -24.9512  -28.1456   20.7576 C   0  0  0  0  0  0  0  0  0  0  0  0
  -27.8510  -19.1199   20.2625 C   0  0  0  0  0  0  0  0  0  0  0  0
  -22.4169   -8.1771   21.4969 C   0  0  0  0  0  0  0  0  0  0  0  0
  -26.2103  -26.0666   20.7051 C   0  0  0  0  0  0  0  0  0  0  0  0
  -20.4119   -6.9682   21.2949 C   0  0  0  0  0  0  0  0  0  0  0  0
  -17.7833   -6.8269   20.3713 C   0  0  0  0  0  0  0  0  0  0  0  0
  -28.4285  -18.2449   19.3424 C   0  0  0  0  0  0  0  0  0  0  0  0
  -20.0405   -5.9660   20.3986 C   0  0  0  0  0  0  0  0  0  0  0  0
  -24.5955  -11.7143   20.6968 C   0  0  0  0  0  0  0  0  0  0  0  0
  -25.2180  -13.8096   20.4581 C   0  0  0  0  0  0  0  0  0  0  0  0
  -27.4293  -21.5546   20.1062 C   0  0  0  0  0  0  0  0  0  0  0  0
  -26.7539  -22.6450   19.6959 C   0  0  0  0  0  0  0  0  0  0  0  0
  -25.5245  -22.4685   18.9202 C   0  0  0  0  0  0  0  0  0  0  0  0
  -24.9196  -23.4471   18.2278 C   0  0  0  0  0  0  0  0  0  0  0  0
  -30.0876  -15.7801   21.6244 C   0  0  0  0  0  0  0  0  0  0  0  0
  -22.8744  -13.5335   21.2825 C   0  0  0  0  0  0  0  0  0  0  0  0
  -30.7133  -14.8324   20.6737 C   0  0  0  0  0  0  0  0  0  0  0  0
  -25.0633  -31.0361   22.5632 C   0  0  0  0  0  0  0  0  0  0  0  0
  -22.4892  -31.0677   20.5895 C   0  0  0  0  0  0  0  0  0  0  0  0
  -20.5970  -29.4295   18.2695 C   0  0  0  0  0  0  0  0  0  0  0  0
  -23.7196  -34.9702   25.5255 C   0  0  0  0  0  0  0  0  0  0  0  0
  -26.1029  -30.3563   20.3694 C   0  0  0  0  0  0  0  0  0  0  0  0
  -23.6257  -28.8405   20.9265 C   0  0  0  0  0  0  0  0  0  0  0  0
  -24.9379  -21.0729   18.9538 C   0  0  0  0  0  0  0  0  0  0  0  0
  -23.0146  -33.7421   24.9554 C   0  0  0  0  0  0  0  0  0  0  0  0
  -29.5401  -12.5482   18.1713 C   0  0  0  0  0  0  0  0  0  0  0  0
  -23.8429  -32.4862   25.2071 C   0  0  0  0  0  0  0  0  0  0  0  0
  -28.1259  -12.2071   18.6397 C   0  0  0  0  0  0  0  0  0  0  0  0
  -26.0077  -19.9763   18.8556 C   0  0  0  0  0  0  0  0  0  0  0  0
  -30.4815  -12.7671   19.3512 C   0  0  0  0  0  0  0  0  0  0  0  0
  -28.5875  -13.4655   20.7912 C   0  0  0  0  0  0  0  0  0  0  0  0
  -25.2068  -32.5763   24.5121 C   0  0  1  0  0  0  0  0  0  0  0  0
  -24.9089  -30.9982   21.0691 C   0  0  1  0  0  0  0  0  0  0  0  0
  -27.6013  -13.2645   19.6274 C   0  0  2  0  0  0  0  0  0  0  0  0
  -18.5333  -29.6959   16.8669 C   0  0  0  0  0  0  0  0  0  0  0  0
  -20.7555  -30.5538   23.0472 C   0  0  0  0  0  0  0  0  0  0  0  0
  -18.8936  -29.8930   21.5094 C   0  0  0  0  0  0  0  0  0  0  0  0
  -19.8097  -32.2119   21.4315 C   0  0  0  0  0  0  0  0  0  0  0  0
  -22.1338  -29.1747   15.7531 C   0  0  0  0  0  0  0  0  0  0  0  0
  -27.2345  -24.0270   20.0368 C   0  0  0  0  0  0  0  0  0  1  0  0
  -21.1900  -30.3025   20.5146 C   0  0  1  0  0  0  0  0  0  0  0  0
  -20.0426  -29.8721   16.9274 C   0  0  2  0  0  0  0  0  0  0  0  0
  -20.1874  -30.7271   21.6245 C   0  0  0  0  0  0  0  0  0  0  0  0
  -25.8543  -11.6412   20.2561 N   0  0  0  0  0  0  0  0  0  0  0  0
  -30.2777  -15.5112   22.8879 N   0  0  0  0  0  0  0  0  0  0  0  0
  -26.2052  -12.9313   20.1202 N   0  0  0  0  0  0  0  0  0  0  0  0
  -27.1021  -20.2372   19.8092 N   0  0  0  0  0  0  0  0  0  0  0  0
  -29.9370  -13.7491   20.2867 N   0  0  0  0  0  0  0  0  0  0  0  0
  -23.6496  -30.3060   20.7875 N   0  0  0  0  0  0  0  0  0  0  0  0
  -25.4027  -15.1446   20.3805 N   0  0  0  0  0  0  0  0  0  0  0  0
  -21.8855  -12.6063   21.6384 N   0  0  0  0  0  0  0  0  0  0  0  0
  -25.0709  -32.3111   23.0959 N   0  0  0  0  0  0  0  0  0  0  0  0
  -20.6887  -30.4814   19.1562 N   0  0  0  0  0  0  0  0  0  0  0  0
  -20.6534  -29.0750   15.8263 N   0  3  0  0  0  0  0  0  0  0  0  0
  -22.6167  -14.7597   21.3433 O   0  0  0  0  0  0  0  0  0  0  0  0
  -31.8553  -15.1077   20.3295 O   0  0  0  0  0  0  0  0  0  0  0  0
  -25.1663  -29.9863   23.1868 O   0  0  0  0  0  0  0  0  0  0  0  0
  -22.4758  -32.2953   20.4695 O   0  0  0  0  0  0  0  0  0  0  0  0
  -20.9134  -28.2662   18.5085 O   0  0  0  0  0  0  0  0  0  0  0  0
  -21.7161   -7.0392   21.7549 O   0  0  0  0  0  0  0  0  0  0  0  0
  -26.2452  -24.7100   20.8056 O   0  0  0  0  0  0  0  0  0  1  0  0
  -16.5208   -6.7583   19.9291 F   0  0  0  0  0  0  0  0  0  0  0  0
  -28.2834  -18.4490   18.0254 F   0  0  0  0  0  0  0  0  0  0  0  0
  -20.9417   -5.0675   19.9785 F   0  0  0  0  0  0  0  0  0  0  0  0
  1  2  1  0  0  0  0
  1  6  2  0  0  0  0
  2  7  2  0  0  0  0
  3 10  2  0  0  0  0
  3 18  1  0  0  0  0
  4 11  1  0  0  0  0
  4 18  2  0  0  0  0
  5  9  2  0  0  0  0
  5 19  1  0  0  0  0
  6 21  1  0  0  0  0
  7 23  1  0  0  0  0
  8 12  2  0  0  0  0
  8 22  1  0  0  0  0
  9 25  1  0  0  0  0
 10 26  1  0  0  0  0
 11 26  2  0  0  0  0
 12 27  1  0  0  0  0
 13 14  2  0  0  0  0
 13 28  1  0  0  0  0
 14 29  1  0  0  0  0
 15 19  2  0  0  0  0
 15 30  1  0  0  0  0
 16 24  1  0  0  0  0
 16 27  2  0  0  0  0
 17 29  2  0  0  0  0
 17 31  1  0  0  0  0
 18 32  1  0  0  0  0
 19 38  1  0  0  0  0
 20 32  1  0  0  0  0
 20 33  2  0  0  0  0
 20 39  1  0  0  0  0
 21 23  2  0  0  0  0
 21 44  1  0  0  0  0
 22 24  2  0  0  0  0
 22 45  1  0  0  0  0
 23 55  1  0  0  0  0
 24 46  1  0  0  0  0
 25 30  2  0  0  0  0
 25 70  1  0  0  0  0
 26 83  1  0  0  0  0
 27 84  1  0  0  0  0
 28 31  2  0  0  0  0
 28 83  1  0  0  0  0
 29 85  1  0  0  0  0
 30 86  1  0  0  0  0
 31 87  1  0  0  0  0
 32 67  2  0  0  0  0
 33 69  1  0  0  0  0
 33 73  1  0  0  0  0
 34 35  2  0  0  0  0
 34 70  1  0  0  0  0
 35 36  1  0  0  0  0
 35 63  1  0  0  0  0
 36 37  2  0  0  0  0
 36 47  1  0  0  0  0
 38 40  1  0  0  0  0
 38 68  2  0  0  0  0
 39 74  1  0  0  0  0
 39 78  2  0  0  0  0
 40 71  1  0  0  0  0
 40 79  2  0  0  0  0
 41 56  1  0  0  0  0
 41 75  1  0  0  0  0
 41 80  2  0  0  0  0
 42 64  1  0  0  0  0
 42 72  1  0  0  0  0
 42 81  2  0  0  0  0
 43 65  1  0  0  0  0
 43 76  1  0  0  0  0
 43 82  2  0  0  0  0
 44 48  1  0  0  0  0
 45 56  1  0  0  0  0
 46 72  1  0  0  0  0
 47 52  1  0  0  0  0
 48 50  1  0  0  0  0
 49 51  1  0  0  0  0
 49 53  1  0  0  0  0
 50 55  1  0  0  0  0
 51 57  1  0  0  0  0
 52 70  1  0  0  0  0
 53 71  1  0  0  0  0
 54 57  1  0  0  0  0
 54 71  1  0  0  0  0
 55 75  1  0  0  0  0
 56 72  1  0  0  0  0
 57 69  1  0  0  0  0
 58 65  1  0  0  0  0
 59 66  1  0  0  0  0
 60 66  1  0  0  0  0
 61 66  1  0  0  0  0
 62 77  1  0  0  0  0
 63 84  1  0  0  0  0
 64 66  1  0  0  0  0
 64 76  1  0  0  0  0
 65 77  1  0  0  0  0
 67 69  1  0  0  0  0
M  CHG  1  77   1
M  ISO  4  38 100  40 100  63 101  84 101
M  END
> <Batch ID>
0076

> <Smiles>
C=C1CCN(c2ccc([100C:0](=N)[100C:0](=O)N3CCCC(n4nc(-c5ccc(Oc6ccc(F)cc6F)cc5)c(C(N)=O)c4N)C3)cc2F)C=C1[101CH2:1][101O:1]c1ccc2c(c1)CN(C(=O)C(NC(=O)C(C)NC)C(C)(C)C)C(C(=O)NC1CCCc3ccccc31)C2

> <Shape>
0.333

> <Color>
0.217

> <Negative vol penalty>
0.000

$$$$

  -OEChem-04042323503D

 87 96  0     1  0  0  0  0  0999 V2000
  -30.1450  -35.5752   22.2346 C   0  0  0  0  0  0  0  0  0  0  0  0
  -30.0776  -34.1920   22.1020 C   0  0  0  0  0  0  0  0  0  0  0  0
  -22.7530  -11.9664   22.4629 C   0  0  0  0  0  0  0  0  0  0  0  0
  -24.5003  -10.4624   23.1852 C   0  0  0  0  0  0  0  0  0  0  0  0
  -29.1471  -36.2572   22.9296 C   0  0  0  0  0  0  0  0  0  0  0  0
  -29.0127  -33.4898   22.6653 C   0  0  0  0  0  0  0  0  0  0  0  0
  -27.0984  -30.0128   19.5204 C   0  0  0  0  0  0  0  0  0  0  0  0
  -29.5909  -19.7433   18.1384 C   0  0  0  0  0  0  0  0  0  0  0  0
  -29.5624  -18.3765   18.4149 C   0  0  0  0  0  0  0  0  0  0  0  0
  -22.0674  -11.7434   23.6570 C   0  0  0  0  0  0  0  0  0  0  0  0
  -23.8148  -10.2394   24.3793 C   0  0  0  0  0  0  0  0  0  0  0  0
  -27.8050  -28.8185   19.3853 C   0  0  0  0  0  0  0  0  0  0  0  0
  -21.1795   -8.4023   25.4336 C   0  0  0  0  0  0  0  0  0  0  0  0
  -21.0674   -7.0858   25.8804 C   0  0  0  0  0  0  0  0  0  0  0  0
  -26.2731  -27.7467   20.9096 C   0  0  0  0  0  0  0  0  0  0  0  0
  -27.8079  -20.1023   19.7289 C   0  0  0  0  0  0  0  0  0  0  0  0
  -22.2363   -7.6755   27.9110 C   0  0  0  0  0  0  0  0  0  0  0  0
  -23.9694  -11.3258   22.2270 C   0  0  0  0  0  0  0  0  0  0  0  0
  -24.2184  -11.2953   19.6883 C   0  0  0  0  0  0  0  0  0  0  0  0
  -28.0643  -35.5640   23.4934 C   0  0  0  0  0  0  0  0  0  0  0  0
  -25.9783  -30.0859   20.3610 C   0  0  0  0  0  0  0  0  0  0  0  0
  -28.0001  -34.1629   23.3696 C   0  0  0  0  0  0  0  0  0  0  0  0
  -25.5524  -28.9423   21.0516 C   0  0  0  0  0  0  0  0  0  0  0  0
  -27.7794  -18.7354   20.0053 C   0  0  0  0  0  0  0  0  0  0  0  0
  -28.7137  -20.6063   18.7954 C   0  0  0  0  0  0  0  0  0  0  0  0
  -28.6566  -17.8725   19.3484 C   0  0  0  0  0  0  0  0  0  0  0  0
  -22.5983  -10.8800   24.6153 C   0  0  0  0  0  0  0  0  0  0  0  0
  -27.3941  -27.6860   20.0822 C   0  0  0  0  0  0  0  0  0  0  0  0
  -21.8200   -9.3555   26.2254 C   0  0  0  0  0  0  0  0  0  0  0  0
  -21.5958   -6.7223   27.1191 C   0  0  0  0  0  0  0  0  0  0  0  0
  -22.3484   -8.9920   27.4641 C   0  0  0  0  0  0  0  0  0  0  0  0
  -24.6777  -11.5553   20.9934 C   0  0  0  0  0  0  0  0  0  0  0  0
  -25.2553  -11.6838   18.8756 C   0  0  0  0  0  0  0  0  0  0  0  0
  -28.8341  -24.8097   18.4478 C   0  0  0  0  0  0  0  0  0  0  0  0
  -29.9702  -24.1020   18.2912 C   0  0  0  0  0  0  0  0  0  0  0  0
  -27.5284  -24.0838   18.3558 C   0  0  0  0  0  0  0  0  0  0  0  0
  -22.9664  -10.7513   19.2498 C   0  0  0  0  0  0  0  0  0  0  0  0
  -25.2354  -31.7445   22.9688 C   0  0  0  0  0  0  0  0  0  0  0  0
  -22.3314  -30.3619   22.5476 C   0  0  0  0  0  0  0  0  0  0  0  0
  -21.0723  -27.1046   21.6408 C   0  0  0  0  0  0  0  0  0  0  0  0
  -29.7207  -15.5975   19.5447 C   0  0  0  0  0  0  0  0  0  0  0  0
  -27.0344  -36.3393   24.2762 C   0  0  0  0  0  0  0  0  0  0  0  0
  -25.2111  -31.3745   20.4751 C   0  0  0  0  0  0  0  0  0  0  0  0
  -24.3445  -28.9630   21.9510 C   0  0  0  0  0  0  0  0  0  0  0  0
  -30.0010  -22.6006   18.1131 C   0  0  0  0  0  0  0  0  0  0  0  0
  -27.5161  -22.6078   18.0449 C   0  0  0  0  0  0  0  0  0  0  0  0
  -25.7438  -35.5618   24.5217 C   0  0  0  0  0  0  0  0  0  0  0  0
  -30.0241  -12.1207   18.8399 C   0  0  0  0  0  0  0  0  0  0  0  0
  -26.0555  -34.1479   25.0018 C   0  0  0  0  0  0  0  0  0  0  0  0
  -28.6439  -11.5585   19.1876 C   0  0  0  0  0  0  0  0  0  0  0  0
  -30.4417  -13.2332   19.8000 C   0  0  0  0  0  0  0  0  0  0  0  0
  -28.0871  -13.7593   20.2982 C   0  0  0  0  0  0  0  0  0  0  0  0
  -26.8478  -33.3686   23.9452 C   0  0  1  0  0  0  0  0  0  0  0  0
  -24.3900  -31.4696   21.7574 C   0  0  1  0  0  0  0  0  0  0  0  0
  -27.5953  -12.6804   19.3196 C   0  0  2  0  0  0  0  0  0  0  0  0
  -26.7998  -18.2233   21.0110 C   0  0  0  0  0  0  0  0  0  0  0  0
  -31.3449  -24.7226   18.2692 C   0  0  0  0  0  0  0  0  0  0  0  0
  -18.9200  -26.4368   20.5366 C   0  0  0  0  0  0  0  0  0  0  0  0
  -21.3198  -29.9875   25.4018 C   0  0  0  0  0  0  0  0  0  0  0  0
  -20.0630  -27.9692   24.6174 C   0  0  0  0  0  0  0  0  0  0  0  0
  -19.5213  -30.2162   23.6791 C   0  0  0  0  0  0  0  0  0  0  0  0
  -22.4923  -25.6497   19.4900 C   0  0  0  0  0  0  0  0  0  0  0  0
  -28.7363  -26.2859   18.7058 C   0  0  0  0  0  0  0  0  0  1  0  0
  -21.6796  -29.0815   23.0110 C   0  0  1  0  0  0  0  0  0  0  0  0
  -20.4002  -26.7214   20.3347 C   0  0  2  0  0  0  0  0  0  0  0  0
  -20.6740  -29.3154   24.1736 C   0  0  0  0  0  0  0  0  0  0  0  0
  -25.9105  -12.0691   21.0134 N   0  0  0  0  0  0  0  0  0  0  0  0
  -26.2346  -12.1350   19.7108 N   0  0  0  0  0  0  0  0  0  0  0  0
  -28.7429  -21.9796   18.5179 N   0  0  1  0  0  0  0  0  0  0  0  0
  -23.6312  -30.2482   22.0345 N   0  0  0  0  0  0  0  0  0  0  0  0
  -29.4020  -14.2622   19.8707 N   0  0  0  0  0  0  0  0  0  0  0  0
  -25.4157  -11.6800   17.5352 N   0  0  0  0  0  0  0  0  0  0  0  0
  -22.0127  -10.4056   20.2170 N   0  0  0  0  0  0  0  0  0  0  0  0
  -28.6444  -16.4812   19.6166 N   0  0  0  0  0  0  0  0  0  0  0  0
  -25.9694  -32.9126   22.8893 N   0  0  0  0  0  0  0  0  0  0  0  0
  -21.0896  -28.4711   21.8245 N   0  0  0  0  0  0  0  0  0  0  0  0
  -21.0391  -25.5032   19.7614 N   0  3  0  0  0  0  0  0  0  0  0  0
  -26.4665  -24.6983   18.4704 O   0  0  0  0  0  0  0  0  0  0  0  0
  -22.7076  -10.5616   18.0372 O   0  0  0  0  0  0  0  0  0  0  0  0
  -25.2216  -30.9560   23.9068 O   0  0  0  0  0  0  0  0  0  0  0  0
  -21.7074  -31.4227   22.6309 O   0  0  0  0  0  0  0  0  0  0  0  0
  -21.5322  -26.2746   22.4218 O   0  0  0  0  0  0  0  0  0  0  0  0
  -30.8581  -15.9274   19.1990 O   0  0  0  0  0  0  0  0  0  0  0  0
  -21.9298  -10.6623   25.7807 O   0  0  0  0  0  0  0  0  0  0  0  0
  -28.0825  -26.5193   19.9526 O   0  0  0  0  0  0  0  0  0  1  0  0
  -21.4867   -5.4583   27.5487 F   0  0  0  0  0  0  0  0  0  0  0  0
  -22.9638   -9.9036   28.2297 F   0  0  0  0  0  0  0  0  0  0  0  0
  1  2  1  0  0  0  0
  1  5  2  0  0  0  0
  2  6  2  0  0  0  0
  3 10  2  0  0  0  0
  3 18  1  0  0  0  0
  4 11  1  0  0  0  0
  4 18  2  0  0  0  0
  5 20  1  0  0  0  0
  6 22  1  0  0  0  0
  7 12  2  0  0  0  0
  7 21  1  0  0  0  0
  8  9  2  0  0  0  0
  8 25  1  0  0  0  0
  9 26  1  0  0  0  0
 10 27  1  0  0  0  0
 11 27  2  0  0  0  0
 12 28  1  0  0  0  0
 13 14  2  0  0  0  0
 13 29  1  0  0  0  0
 14 30  1  0  0  0  0
 15 23  1  0  0  0  0
 15 28  2  0  0  0  0
 16 24  1  0  0  0  0
 16 25  2  0  0  0  0
 17 30  2  0  0  0  0
 17 31  1  0  0  0  0
 18 32  1  0  0  0  0
 19 32  1  0  0  0  0
 19 33  2  0  0  0  0
 19 37  1  0  0  0  0
 20 22  2  0  0  0  0
 20 42  1  0  0  0  0
 21 23  2  0  0  0  0
 21 43  1  0  0  0  0
 22 53  1  0  0  0  0
 23 44  1  0  0  0  0
 24 26  2  0  0  0  0
 24 56  1  0  0  0  0
 25 69  1  0  0  0  0
 26 74  1  0  0  0  0
 27 84  1  0  0  0  0
 28 85  1  0  0  0  0
 29 31  2  0  0  0  0
 29 84  1  0  0  0  0
 30 86  1  0  0  0  0
 31 87  1  0  0  0  0
 32 67  2  0  0  0  0
 33 68  1  0  0  0  0
 33 72  1  0  0  0  0
 34 35  2  0  0  0  0
 34 36  1  0  0  0  0
 34 63  1  0  0  0  0
 35 45  1  0  0  0  0
 35 57  1  0  0  0  0
 36 46  1  0  0  0  0
 36 78  2  0  0  0  0
 37 73  1  0  0  0  0
 37 79  2  0  0  0  0
 38 54  1  0  0  0  0
 38 75  1  0  0  0  0
 38 80  2  0  0  0  0
 39 64  1  0  0  0  0
 39 70  1  0  0  0  0
 39 81  2  0  0  0  0
 40 65  1  0  0  0  0
 40 76  1  0  0  0  0
 40 82  2  0  0  0  0
 41 71  1  0  0  0  0
 41 74  1  0  0  0  0
 41 83  2  0  0  0  0
 42 47  1  0  0  0  0
 43 54  1  0  0  0  0
 44 70  1  0  0  0  0
 45 69  1  0  0  0  0
 46 69  1  0  0  0  0
 47 49  1  0  0  0  0
 48 50  1  0  0  0  0
 48 51  1  0  0  0  0
 49 53  1  0  0  0  0
 50 55  1  0  0  0  0
 51 71  1  0  0  0  0
 52 55  1  0  0  0  0
 52 71  1  0  0  0  0
 53 75  1  0  0  0  0
 54 70  1  0  0  0  0
 55 68  1  0  0  0  0
 58 65  1  0  0  0  0
 59 66  1  0  0  0  0
 60 66  1  0  0  0  0
 61 66  1  0  0  0  0
 62 77  1  0  0  0  0
 63 85  1  0  0  0  0
 64 66  1  0  0  0  0
 64 76  1  0  0  0  0
 65 77  1  0  0  0  0
 67 68  1  0  0  0  0
M  CHG  1  77   1
M  ISO  4  41 100  63 101  74 100  85 101
M  END
> <Batch ID>
0076

> <Smiles>
C=C1CN(c2ccc([100NH:0][100C:0](=O)N3CCCC(n4nc(-c5ccc(Oc6ccc(F)cc6F)cc5)c(C(N)=O)c4N)C3)c(C)c2)CC(=O)C1[101CH2:1][101O:1]c1ccc2c(c1)CN(C(=O)C(NC(=O)C(C)NC)C(C)(C)C)C(C(=O)NC1CCCc3ccccc31)C2

> <Shape>
0.321

> <Color>
0.091

> <Negative vol penalty>
0.000

$$$$

  -OEChem-04042323503D

 93102  0     1  0  0  0  0  0999 V2000
  -26.0912  -38.3431   20.3969 C   0  0  0  0  0  0  0  0  0  0  0  0
  -26.1909  -37.3090   19.4716 C   0  0  0  0  0  0  0  0  0  0  0  0
  -22.9805  -10.0324   19.9151 C   0  0  0  0  0  0  0  0  0  0  0  0
  -23.8591   -9.8176   22.1554 C   0  0  0  0  0  0  0  0  0  0  0  0
  -30.9546  -21.2953   18.7709 C   0  0  0  0  0  0  0  0  0  0  0  0
  -30.6208  -22.5463   20.8107 C   0  0  0  0  0  0  0  0  0  0  0  0
  -26.3280  -38.0933   21.7480 C   0  0  0  0  0  0  0  0  0  0  0  0
  -26.5286  -36.0246   19.8968 C   0  0  0  0  0  0  0  0  0  0  0  0
  -25.3004  -29.1346   18.3686 C   0  0  0  0  0  0  0  0  0  0  0  0
  -31.0227  -20.1127   19.5073 C   0  0  0  0  0  0  0  0  0  0  0  0
  -30.6889  -21.3636   21.5471 C   0  0  0  0  0  0  0  0  0  0  0  0
  -22.2133   -8.8831   20.1058 C   0  0  0  0  0  0  0  0  0  0  0  0
  -23.0919   -8.6684   22.3461 C   0  0  0  0  0  0  0  0  0  0  0  0
  -25.9879  -27.9496   18.1099 C   0  0  0  0  0  0  0  0  0  0  0  0
  -19.8753   -7.9120   23.0545 C   0  0  0  0  0  0  0  0  0  0  0  0
  -19.1797   -7.7912   24.2574 C   0  0  0  0  0  0  0  0  0  0  0  0
  -26.2971  -27.6187   20.4793 C   0  0  0  0  0  0  0  0  0  0  0  0
  -20.3938   -5.7627   24.7558 C   0  0  0  0  0  0  0  0  0  0  0  0
  -23.8034  -10.4996   20.9399 C   0  0  0  0  0  0  0  0  0  0  0  0
  -30.7537  -22.5122   19.4226 C   0  0  0  0  0  0  0  0  0  0  0  0
  -24.2210  -13.0149   21.0182 C   0  0  0  0  0  0  0  0  0  0  0  0
  -26.6592  -36.8031   22.1912 C   0  0  0  0  0  0  0  0  0  0  0  0
  -25.1153  -29.5769   19.6864 C   0  0  0  0  0  0  0  0  0  0  0  0
  -26.7713  -35.7576   21.2550 C   0  0  0  0  0  0  0  0  0  0  0  0
  -25.6047  -28.8083   20.7522 C   0  0  0  0  0  0  0  0  0  0  0  0
  -30.8898  -20.1468   20.8954 C   0  0  0  0  0  0  0  0  0  0  0  0
  -22.2690   -8.2012   21.3213 C   0  0  0  0  0  0  0  0  0  0  0  0
  -26.4889  -27.1929   19.1651 C   0  0  0  0  0  0  0  0  0  0  0  0
  -20.8301   -6.9581   22.7021 C   0  0  0  0  0  0  0  0  0  0  0  0
  -19.4390   -6.7166   25.1081 C   0  0  0  0  0  0  0  0  0  0  0  0
  -21.0894   -5.8835   23.5527 C   0  0  0  0  0  0  0  0  0  0  0  0
  -24.5966  -11.6863   20.7434 C   0  0  0  0  0  0  0  0  0  0  0  0
  -25.3167  -13.7623   20.6611 C   0  0  0  0  0  0  0  0  0  0  0  0
  -30.1879  -17.3613   23.0709 C   0  0  0  0  0  0  0  0  0  0  0  0
  -30.6815  -23.7643   18.6432 C   0  0  0  0  0  0  0  0  0  0  0  0
  -22.9918  -13.5277   21.5490 C   0  0  0  0  0  0  0  0  0  0  0  0
  -26.0040  -32.1441   21.3366 C   0  0  0  0  0  0  0  0  0  0  0  0
  -29.9487  -26.8497   18.8545 C   0  0  0  0  0  0  0  0  0  0  0  0
  -24.1197  -30.8399   23.6324 C   0  0  0  0  0  0  0  0  0  0  0  0
  -22.6596  -28.0465   24.9408 C   0  0  0  0  0  0  0  0  0  0  0  0
  -30.8332  -14.6065   20.6346 C   0  0  0  0  0  0  0  0  0  0  0  0
  -26.9525  -36.5916   23.6555 C   0  0  0  0  0  0  0  0  0  0  0  0
  -24.3482  -30.8436   19.9499 C   0  0  0  0  0  0  0  0  0  0  0  0
  -25.4150  -29.2289   22.1859 C   0  0  0  0  0  0  0  0  0  0  0  0
  -30.2216  -18.8534   22.8669 C   0  0  0  0  0  0  0  0  0  0  0  0
  -26.9384  -35.1236   24.0736 C   0  0  0  0  0  0  0  0  0  0  0  0
  -29.4948  -12.4725   18.1183 C   0  0  0  0  0  0  0  0  0  0  0  0
  -27.7309  -34.2783   23.0816 C   0  0  0  0  0  0  0  0  0  0  0  0
  -28.0731  -12.1826   18.6028 C   0  0  0  0  0  0  0  0  0  0  0  0
  -30.4803  -12.5617   19.2815 C   0  0  0  0  0  0  0  0  0  0  0  0
  -28.6786  -13.2220   20.8280 C   0  0  0  0  0  0  0  0  0  0  0  0
  -31.1848  -17.7059   20.9511 C   0  0  0  0  0  0  0  0  0  0  0  0
  -27.1110  -34.3457   21.6806 C   0  0  1  0  0  0  0  0  0  0  0  0
  -24.6652  -31.4626   21.3077 C   0  0  1  0  0  0  0  0  0  0  0  0
  -27.6390  -13.1784   19.6951 C   0  0  2  0  0  0  0  0  0  0  0  0
  -31.0340  -16.6381   22.0458 C   0  0  1  0  0  0  0  0  0  0  0  0
  -29.9627  -28.2412   18.2739 C   0  0  0  0  0  0  0  0  0  0  0  0
  -32.3748  -16.2544   22.6645 C   0  0  0  0  0  0  0  0  0  0  0  0
  -21.2083  -27.2893   26.8428 C   0  0  0  0  0  0  0  0  0  0  0  0
  -27.3028  -24.8331   16.8393 C   0  0  0  0  0  0  0  0  0  0  0  0
  -26.5005  -31.0493   25.5293 C   0  0  0  0  0  0  0  0  0  0  0  0
  -25.3302  -29.4532   27.0627 C   0  0  0  0  0  0  0  0  0  0  0  0
  -24.2999  -31.6653   26.5453 C   0  0  0  0  0  0  0  0  0  0  0  0
  -20.5477  -27.0904   23.1011 C   0  0  0  0  0  0  0  0  0  0  0  0
  -29.3690  -25.7491   17.9840 C   0  0  2  0  0  0  0  0  0  0  0  0
  -24.3348  -29.8681   24.7674 C   0  0  1  0  0  0  0  0  0  0  0  0
  -21.2391  -27.7743   25.4017 C   0  0  2  0  0  0  0  0  0  0  0  0
  -27.8845  -25.9576   17.6880 C   0  0  2  0  0  0  0  0  0  1  0  0
  -25.1218  -30.5018   25.9492 C   0  0  0  0  0  0  0  0  0  0  0  0
  -25.8340  -11.5919   20.2496 N   0  0  0  0  0  0  0  0  0  0  0  0
  -26.2455  -12.8707   20.2112 N   0  0  0  0  0  0  0  0  0  0  0  0
  -30.9590  -18.9509   21.6400 N   0  0  1  0  0  0  0  0  0  0  0  0
  -24.6637  -30.4782   22.3919 N   0  0  0  0  0  0  0  0  0  0  0  0
  -30.0108  -13.5240   20.2813 N   0  0  0  0  0  0  0  0  0  0  0  0
  -25.5665  -15.0886   20.6911 N   0  0  0  0  0  0  0  0  0  0  0  0
  -31.7392  -24.1088   17.9087 N   0  0  0  0  0  0  0  0  0  0  0  0
  -21.9697  -12.6213   21.8622 N   0  0  0  0  0  0  0  0  0  0  0  0
  -25.9404  -33.4982   21.6047 N   0  0  0  0  0  0  0  0  0  0  0  0
  -23.0142  -29.3655   25.1303 N   0  0  0  0  0  0  0  0  0  0  0  0
  -30.3096  -15.4747   21.5848 N   0  0  0  0  0  0  0  0  0  0  0  0
  -29.5611  -24.4926   18.7132 N   0  3  0  0  0  0  0  0  0  0  0  0
  -20.6059  -26.7344   24.5422 N   0  3  0  0  0  0  0  0  0  0  0  0
  -29.5829  -16.8194   23.9879 O   0  0  0  0  0  0  0  0  0  0  0  0
  -22.7993  -14.7547   21.7245 O   0  0  0  0  0  0  0  0  0  0  0  0
  -27.0197  -31.4896   21.1323 O   0  0  0  0  0  0  0  0  0  0  0  0
  -30.3776  -26.6399   19.9895 O   0  0  0  0  0  0  0  0  0  0  0  0
  -23.4860  -31.8783   23.8373 O   0  0  0  0  0  0  0  0  0  0  0  0
  -23.3837  -27.1753   24.4639 O   0  0  0  0  0  0  0  0  0  0  0  0
  -31.9490  -14.7889   20.1360 O   0  0  0  0  0  0  0  0  0  0  0  0
  -21.5204   -7.0799   21.5078 O   0  0  0  0  0  0  0  0  0  0  0  0
  -27.1609  -26.0363   18.9154 O   0  0  0  0  0  0  0  0  0  1  0  0
  -18.7720   -6.6016   26.2640 F   0  0  0  0  0  0  0  0  0  0  0  0
  -22.0063   -4.9646   23.2202 F   0  0  0  0  0  0  0  0  0  0  0  0
  1  2  1  0  0  0  0
  1  7  2  0  0  0  0
  2  8  2  0  0  0  0
  3 12  2  0  0  0  0
  3 19  1  0  0  0  0
  4 13  1  0  0  0  0
  4 19  2  0  0  0  0
  5 10  2  0  0  0  0
  5 20  1  0  0  0  0
  6 11  1  0  0  0  0
  6 20  2  0  0  0  0
  7 22  1  0  0  0  0
  8 24  1  0  0  0  0
  9 14  2  0  0  0  0
  9 23  1  0  0  0  0
 10 26  1  0  0  0  0
 11 26  2  0  0  0  0
 12 27  1  0  0  0  0
 13 27  2  0  0  0  0
 14 28  1  0  0  0  0
 15 16  2  0  0  0  0
 15 29  1  0  0  0  0
 16 30  1  0  0  0  0
 17 25  1  0  0  0  0
 17 28  2  0  0  0  0
 18 30  2  0  0  0  0
 18 31  1  0  0  0  0
 19 32  1  0  0  0  0
 20 35  1  0  0  0  0
 21 32  1  0  0  0  0
 21 33  2  0  0  0  0
 21 36  1  0  0  0  0
 22 24  2  0  0  0  0
 22 42  1  0  0  0  0
 23 25  2  0  0  0  0
 23 43  1  0  0  0  0
 24 53  1  0  0  0  0
 25 44  1  0  0  0  0
 26 72  1  0  0  0  0
 27 90  1  0  0  0  0
 28 91  1  0  0  0  0
 29 31  2  0  0  0  0
 29 90  1  0  0  0  0
 30 92  1  0  0  0  0
 31 93  1  0  0  0  0
 32 70  2  0  0  0  0
 33 71  1  0  0  0  0
 33 75  1  0  0  0  0
 34 45  1  0  0  0  0
 34 56  1  0  0  0  0
 34 83  2  0  0  0  0
 35 76  1  0  0  0  0
 35 81  2  0  0  0  0
 36 77  1  0  0  0  0
 36 84  2  0  0  0  0
 37 54  1  0  0  0  0
 37 78  1  0  0  0  0
 37 85  2  0  0  0  0
 38 57  1  0  0  0  0
 38 65  1  0  0  0  0
 38 86  2  0  0  0  0
 39 66  1  0  0  0  0
 39 73  1  0  0  0  0
 39 87  2  0  0  0  0
 40 67  1  0  0  0  0
 40 79  1  0  0  0  0
 40 88  2  0  0  0  0
 41 74  1  0  0  0  0
 41 80  1  0  0  0  0
 41 89  2  0  0  0  0
 42 46  1  0  0  0  0
 43 54  1  0  0  0  0
 44 73  1  0  0  0  0
 45 72  1  0  0  0  0
 46 48  1  0  0  0  0
 47 49  1  0  0  0  0
 47 50  1  0  0  0  0
 48 53  1  0  0  0  0
 49 55  1  0  0  0  0
 50 74  1  0  0  0  0
 51 55  1  0  0  0  0
 51 74  1  0  0  0  0
 52 56  1  0  0  0  0
 52 72  1  0  0  0  0
 53 78  1  0  0  0  0
 54 73  1  0  0  0  0
 55 71  1  0  0  0  0
 56 58  1  0  0  0  0
 56 80  1  0  0  0  0
 59 67  1  0  0  0  0
 60 68  1  0  0  0  0
 61 69  1  0  0  0  0
 62 69  1  0  0  0  0
 63 69  1  0  0  0  0
 64 82  1  0  0  0  0
 65 68  1  0  0  0  0
 65 81  1  0  0  0  0
 66 69  1  0  0  0  0
 66 79  1  0  0  0  0
 67 82  1  0  0  0  0
 68 91  1  0  0  0  0
 70 71  1  0  0  0  0
M  CHG  2  81   1  82   1
M  ISO  4  41 100  68 101  80 100  91 101
M  END
> <Batch ID>
0076

> <Smiles>
CNC(C)C(=O)NC(C(=O)N1Cc2cc([101O:1][101CH:1](C)C(NC(=N)c3ccc(N4CC(=O)C(C)([100NH:0][100C:0](=O)N5CCCC(n6nc(-c7ccc(Oc8ccc(F)cc8F)cc7)c(C(N)=O)c6N)C5)C4)cc3)C(C)=O)ccc2CC1C(=O)NC1CCCc2ccccc21)C(C)(C)C

> <Shape>
0.388

> <Color>
0.234

> <Negative vol penalty>
0.000

$$$$

  -OEChem-04042323503D

 87 96  0     1  0  0  0  0  0999 V2000
  -31.4987  -28.1219   25.7955 C   0  0  0  0  0  0  0  0  0  0  0  0
  -31.1452  -27.3073   24.7245 C   0  0  0  0  0  0  0  0  0  0  0  0
  -29.7288  -17.5439   14.1242 C   0  0  0  0  0  0  0  0  0  0  0  0
  -23.1437   -9.9521   19.8727 C   0  0  0  0  0  0  0  0  0  0  0  0
  -23.7555   -9.8054   22.2053 C   0  0  0  0  0  0  0  0  0  0  0  0
  -30.5320  -28.9091   26.4198 C   0  0  0  0  0  0  0  0  0  0  0  0
  -29.8245  -27.2786   24.2780 C   0  0  0  0  0  0  0  0  0  0  0  0
  -27.9051  -26.5976   18.5024 C   0  0  0  0  0  0  0  0  0  0  0  0
  -29.1160  -18.7878   14.2749 C   0  0  0  0  0  0  0  0  0  0  0  0
  -29.7147  -16.6274   15.1757 C   0  0  0  0  0  0  0  0  0  0  0  0
  -22.3837   -8.7893   19.9988 C   0  0  0  0  0  0  0  0  0  0  0  0
  -22.9955   -8.6426   22.3315 C   0  0  0  0  0  0  0  0  0  0  0  0
  -27.4442  -25.4903   17.7915 C   0  0  0  0  0  0  0  0  0  0  0  0
  -23.3166   -5.3624   21.5778 C   0  0  0  0  0  0  0  0  0  0  0  0
  -23.8835   -4.2890   22.2649 C   0  0  0  0  0  0  0  0  0  0  0  0
  -25.1703  -26.1311   18.2796 C   0  0  0  0  0  0  0  0  0  0  0  0
  -28.4752  -18.1989   16.5288 C   0  0  0  0  0  0  0  0  0  0  0  0
  -22.0767   -4.3606   23.8673 C   0  0  0  0  0  0  0  0  0  0  0  0
  -23.8296  -10.4601   20.9759 C   0  0  0  0  0  0  0  0  0  0  0  0
  -24.1821  -12.9858   21.0433 C   0  0  0  0  0  0  0  0  0  0  0  0
  -29.2007  -28.8973   25.9745 C   0  0  0  0  0  0  0  0  0  0  0  0
  -27.0009  -27.4754   19.1174 C   0  0  0  0  0  0  0  0  0  0  0  0
  -28.8389  -28.0654   24.8978 C   0  0  0  0  0  0  0  0  0  0  0  0
  -25.6223  -27.2502   18.9955 C   0  0  0  0  0  0  0  0  0  0  0  0
  -28.4892  -19.1154   15.4772 C   0  0  0  0  0  0  0  0  0  0  0  0
  -29.0879  -16.9550   16.3780 C   0  0  0  0  0  0  0  0  0  0  0  0
  -22.3096   -8.1346   21.2282 C   0  0  0  0  0  0  0  0  0  0  0  0
  -26.0767  -25.2553   17.6825 C   0  0  0  0  0  0  0  0  0  0  0  0
  -22.1298   -5.9349   22.0354 C   0  0  0  0  0  0  0  0  0  0  0  0
  -23.2635   -3.7881   23.4096 C   0  0  0  0  0  0  0  0  0  0  0  0
  -21.5099   -5.4340   23.1802 C   0  0  0  0  0  0  0  0  0  0  0  0
  -24.6153  -11.6609   20.8461 C   0  0  0  0  0  0  0  0  0  0  0  0
  -25.2963  -13.7512   20.8001 C   0  0  0  0  0  0  0  0  0  0  0  0
  -27.0788  -22.5011   15.2279 C   0  0  0  0  0  0  0  0  0  0  0  0
  -26.6949  -22.1276   16.5955 C   0  0  0  0  0  0  0  0  0  0  0  0
  -27.8343  -21.3397   14.6430 C   0  0  0  0  0  0  0  0  0  0  0  0
  -22.8882  -13.4803   21.4133 C   0  0  0  0  0  0  0  0  0  0  0  0
  -26.0071  -22.9331   17.4125 C   0  0  0  0  0  0  0  0  0  1  0  0
  -26.4295  -28.3712   22.1132 C   0  0  0  0  0  0  0  0  0  0  0  0
  -24.3833  -30.4473   20.6901 C   0  0  0  0  0  0  0  0  0  0  0  0
  -22.4472  -31.2122   17.9858 C   0  0  0  0  0  0  0  0  0  0  0  0
  -29.6852  -14.7395   17.3424 C   0  0  0  0  0  0  0  0  0  0  0  0
  -28.1814  -29.7297   26.7113 C   0  0  0  0  0  0  0  0  0  0  0  0
  -27.5134  -28.6800   19.8580 C   0  0  0  0  0  0  0  0  0  0  0  0
  -24.6096  -28.1737   19.6201 C   0  0  0  0  0  0  0  0  0  0  0  0
  -27.2025  -20.7510   16.8634 C   0  0  0  0  0  0  0  0  0  0  0  0
  -26.8801  -29.9247   25.9375 C   0  0  0  0  0  0  0  0  0  0  0  0
  -30.1382  -12.4512   20.2004 C   0  0  0  0  0  0  0  0  0  0  0  0
  -26.3996  -28.5980   25.3581 C   0  0  0  0  0  0  0  0  0  0  0  0
  -28.7022  -12.1044   20.5899 C   0  0  0  0  0  0  0  0  0  0  0  0
  -30.2634  -12.7572   18.7109 C   0  0  0  0  0  0  0  0  0  0  0  0
  -27.8949  -13.4737   18.6256 C   0  0  0  0  0  0  0  0  0  0  0  0
  -27.4217  -28.0256   24.3686 C   0  0  1  0  0  0  0  0  0  0  0  0
  -26.5173  -29.2226   20.8782 C   0  0  1  0  0  0  0  0  0  0  0  0
  -27.7282  -13.2023   20.1284 C   0  0  1  0  0  0  0  0  0  0  0  0
  -25.6134  -22.5590   18.8052 C   0  0  0  0  0  0  0  0  0  0  0  0
  -20.8606  -32.9577   17.1295 C   0  0  0  0  0  0  0  0  0  0  0  0
  -22.2027  -29.3638   22.5288 C   0  0  0  0  0  0  0  0  0  0  0  0
  -20.5045  -30.4162   21.0199 C   0  0  0  0  0  0  0  0  0  0  0  0
  -22.1646  -31.8445   22.2144 C   0  0  0  0  0  0  0  0  0  0  0  0
  -28.6291  -16.4622   18.7869 C   0  0  0  0  0  0  0  0  0  0  0  0
  -24.1900  -31.8287   15.6746 C   0  0  0  0  0  0  0  0  0  0  0  0
  -22.9306  -30.4059   20.2816 C   0  0  1  0  0  0  0  0  0  0  0  0
  -22.3065  -32.4888   17.1764 C   0  0  2  0  0  0  0  0  0  0  0  0
  -21.9695  -30.4889   21.5009 C   0  0  0  0  0  0  0  0  0  0  0  0
  -25.9042  -11.5855   20.5038 N   0  0  0  0  0  0  0  0  0  0  0  0
  -26.2904  -12.8725   20.4840 N   0  0  0  0  0  0  0  0  0  0  0  0
  -27.8779  -20.3560   15.6267 N   0  0  0  0  0  0  0  0  0  0  0  0
  -25.1604  -29.3343   20.3392 N   0  0  0  0  0  0  0  0  0  0  0  0
  -29.2958  -13.7708   18.2891 N   0  0  0  0  0  0  0  0  0  0  0  0
  -25.5129  -15.0834   20.8278 N   0  0  0  0  0  0  0  0  0  0  0  0
  -21.8555  -12.5568   21.6253 N   0  0  0  0  0  0  0  0  0  0  0  0
  -27.3357  -28.7139   23.0984 N   0  0  0  0  0  0  0  0  0  0  0  0
  -22.7506  -31.4747   19.3050 N   0  0  0  0  0  0  0  0  0  0  0  0
  -29.0736  -16.0058   17.4660 N   0  0  0  0  0  0  0  0  0  0  0  0
  -22.7754  -32.2703   15.7788 N   0  3  0  0  0  0  0  0  0  0  0  0
  -26.8656  -23.5272   14.6231 O   0  0  0  0  0  0  0  0  0  0  0  0
  -28.2762  -21.3680   13.5126 O   0  0  0  0  0  0  0  0  0  0  0  0
  -22.6505  -14.7059   21.5358 O   0  0  0  0  0  0  0  0  0  0  0  0
  -25.5999  -27.4710   22.1686 O   0  0  0  0  0  0  0  0  0  0  0  0
  -24.8144  -31.4341   21.2919 O   0  0  0  0  0  0  0  0  0  0  0  0
  -22.2989  -30.0941   17.4975 O   0  0  0  0  0  0  0  0  0  0  0  0
  -30.5338  -14.5000   16.4751 O   0  0  0  0  0  0  0  0  0  0  0  0
  -21.5679   -7.0000   21.3517 O   0  0  0  0  0  0  0  0  0  0  0  0
  -25.6241  -24.1750   16.9897 O   0  0  0  0  0  0  0  0  0  1  0  0
  -23.8072   -2.7563   24.0684 F   0  0  0  0  0  0  0  0  0  0  0  0
  -20.3690   -5.9792   23.6240 F   0  0  0  0  0  0  0  0  0  0  0  0
  1  2  1  0  0  0  0
  1  6  2  0  0  0  0
  2  7  2  0  0  0  0
  3  9  2  0  0  0  0
  3 10  1  0  0  0  0
  4 11  2  0  0  0  0
  4 19  1  0  0  0  0
  5 12  1  0  0  0  0
  5 19  2  0  0  0  0
  6 21  1  0  0  0  0
  7 23  1  0  0  0  0
  8 13  2  0  0  0  0
  8 22  1  0  0  0  0
  9 25  1  0  0  0  0
 10 26  2  0  0  0  0
 11 27  1  0  0  0  0
 12 27  2  0  0  0  0
 13 28  1  0  0  0  0
 14 15  2  0  0  0  0
 14 29  1  0  0  0  0
 15 30  1  0  0  0  0
 16 24  1  0  0  0  0
 16 28  2  0  0  0  0
 17 25  2  0  0  0  0
 17 26  1  0  0  0  0
 18 30  2  0  0  0  0
 18 31  1  0  0  0  0
 19 32  1  0  0  0  0
 20 32  1  0  0  0  0
 20 33  2  0  0  0  0
 20 37  1  0  0  0  0
 21 23  2  0  0  0  0
 21 43  1  0  0  0  0
 22 24  2  0  0  0  0
 22 44  1  0  0  0  0
 23 53  1  0  0  0  0
 24 45  1  0  0  0  0
 25 68  1  0  0  0  0
 26 75  1  0  0  0  0
 27 84  1  0  0  0  0
 28 85  1  0  0  0  0
 29 31  2  0  0  0  0
 29 84  1  0  0  0  0
 30 86  1  0  0  0  0
 31 87  1  0  0  0  0
 32 66  2  0  0  0  0
 33 67  1  0  0  0  0
 33 71  1  0  0  0  0
 34 35  1  0  0  0  0
 34 36  1  0  0  0  0
 34 77  2  0  0  0  0
 35 38  2  0  0  0  0
 35 46  1  0  0  0  0
 36 68  1  0  0  0  0
 36 78  2  0  0  0  0
 37 72  1  0  0  0  0
 37 79  2  0  0  0  0
 38 56  1  0  0  0  0
 38 85  1  0  0  0  0
 39 54  1  0  0  0  0
 39 73  1  0  0  0  0
 39 80  2  0  0  0  0
 40 63  1  0  0  0  0
 40 69  1  0  0  0  0
 40 81  2  0  0  0  0
 41 64  1  0  0  0  0
 41 74  1  0  0  0  0
 41 82  2  0  0  0  0
 42 70  1  0  0  0  0
 42 75  1  0  0  0  0
 42 83  2  0  0  0  0
 43 47  1  0  0  0  0
 44 54  1  0  0  0  0
 45 69  1  0  0  0  0
 46 68  1  0  0  0  0
 47 49  1  0  0  0  0
 48 50  1  0  0  0  0
 48 51  1  0  0  0  0
 49 53  1  0  0  0  0
 50 55  1  0  0  0  0
 51 70  1  0  0  0  0
 52 55  1  0  0  0  0
 52 70  1  0  0  0  0
 53 73  1  0  0  0  0
 54 69  1  0  0  0  0
 55 67  1  0  0  0  0
 57 64  1  0  0  0  0
 58 65  1  0  0  0  0
 59 65  1  0  0  0  0
 60 65  1  0  0  0  0
 61 75  1  0  0  0  0
 62 76  1  0  0  0  0
 63 65  1  0  0  0  0
 63 74  1  0  0  0  0
 64 76  1  0  0  0  0
 66 67  1  0  0  0  0
M  CHG  1  76   1
M  ISO  4  38 101  42 100  75 100  85 101
M  END
> <Batch ID>
0076

> <Smiles>
CNC(C)C(=O)NC(C(=O)N1Cc2cc([101O:1][101C:1](C)=C3CN(c4cccc([100N:0](C)[100C:0](=O)N5CCCC(n6nc(-c7ccc(Oc8ccc(F)cc8F)cc7)c(C(N)=O)c6N)C5)c4)C(=O)C3=O)ccc2CC1C(=O)NC1CCCc2ccccc21)C(C)(C)C

> <Shape>
0.244

> <Color>
0.185

> <Negative vol penalty>
0.000

$$$$

  -OEChem-04042323503D

 93103  0     1  0  0  0  0  0999 V2000
  -23.9186  -38.4714   19.3028 C   0  0  0  0  0  0  0  0  0  0  0  0
  -24.9748  -37.6494   19.6826 C   0  0  0  0  0  0  0  0  0  0  0  0
  -22.3688  -10.2701   20.6909 C   0  0  0  0  0  0  0  0  0  0  0  0
  -24.2107   -9.2861   21.9059 C   0  0  0  0  0  0  0  0  0  0  0  0
  -22.6535  -38.2796   19.8567 C   0  0  0  0  0  0  0  0  0  0  0  0
  -24.7668  -36.6358   20.6173 C   0  0  0  0  0  0  0  0  0  0  0  0
  -26.1038  -29.7495   18.9794 C   0  0  0  0  0  0  0  0  0  0  0  0
  -21.7272   -9.0320   20.6608 C   0  0  0  0  0  0  0  0  0  0  0  0
  -23.5691   -8.0479   21.8758 C   0  0  0  0  0  0  0  0  0  0  0  0
  -26.5354  -28.4335   18.8122 C   0  0  0  0  0  0  0  0  0  0  0  0
  -21.0638   -6.5017   23.5352 C   0  0  0  0  0  0  0  0  0  0  0  0
  -21.0341   -5.7600   24.7161 C   0  0  0  0  0  0  0  0  0  0  0  0
  -30.4082  -25.7385   20.6720 C   0  0  0  0  0  0  0  0  0  0  0  0
  -29.4973  -25.4440   18.4538 C   0  0  0  0  0  0  0  0  0  0  0  0
  -25.7040  -27.8700   21.0120 C   0  0  0  0  0  0  0  0  0  0  0  0
  -31.5696  -26.6479   18.7586 C   0  0  0  0  0  0  0  0  0  0  0  0
  -22.2207   -3.9645   23.6183 C   0  0  0  0  0  0  0  0  0  0  0  0
  -23.6106  -10.3972   21.3134 C   0  0  0  0  0  0  0  0  0  0  0  0
  -24.6804  -12.4496   20.2407 C   0  0  0  0  0  0  0  0  0  0  0  0
  -22.4277  -37.2569   20.7915 C   0  0  0  0  0  0  0  0  0  0  0  0
  -25.4561  -30.1275   20.1588 C   0  0  0  0  0  0  0  0  0  0  0  0
  -23.4978  -36.4310   21.1852 C   0  0  0  0  0  0  0  0  0  0  0  0
  -29.4138  -25.2390   19.8310 C   0  0  0  0  0  0  0  0  0  0  0  0
  -25.2583  -29.1838   21.1801 C   0  0  0  0  0  0  0  0  0  0  0  0
  -31.4861  -26.4430   20.1358 C   0  0  0  0  0  0  0  0  0  0  0  0
  -22.3273   -7.9209   21.2533 C   0  0  0  0  0  0  0  0  0  0  0  0
  -26.3362  -27.4962   19.8261 C   0  0  0  0  0  0  0  0  0  0  0  0
  -21.6719   -5.9747   22.3957 C   0  0  0  0  0  0  0  0  0  0  0  0
  -30.5752  -26.1484   17.9176 C   0  0  0  0  0  0  0  0  0  0  0  0
  -21.6126   -4.4914   24.7577 C   0  0  0  0  0  0  0  0  0  0  0  0
  -22.2504   -4.7061   22.4373 C   0  0  0  0  0  0  0  0  0  0  0  0
  -24.2742  -11.6757   21.3443 C   0  0  0  0  0  0  0  0  0  0  0  0
  -25.2570  -13.5651   20.7972 C   0  0  0  0  0  0  0  0  0  0  0  0
  -24.5483  -12.1839   18.8380 C   0  0  0  0  0  0  0  0  0  0  0  0
  -27.4150  -21.7027   22.6488 C   0  0  0  0  0  0  0  0  0  0  0  0
  -23.7847  -32.8642   22.1063 C   0  0  0  0  0  0  0  0  0  0  0  0
  -22.1390  -30.3152   22.5591 C   0  0  0  0  0  0  0  0  0  0  0  0
  -19.6750  -28.0295   23.1435 C   0  0  0  0  0  0  0  0  0  0  0  0
  -24.6940  -17.6529   24.7139 C   0  0  0  0  0  0  0  0  0  0  0  0
  -21.0538  -37.1184   21.3981 C   0  0  0  0  0  0  0  0  0  0  0  0
  -25.0293  -31.5488   20.4071 C   0  0  0  0  0  0  0  0  0  0  0  0
  -24.5879  -29.6439   22.4457 C   0  0  0  0  0  0  0  0  0  0  0  0
  -20.8306  -35.7823   22.1019 C   0  0  0  0  0  0  0  0  0  0  0  0
  -26.5846  -14.5791   25.5609 C   0  0  0  0  0  0  0  0  0  0  0  0
  -22.0183  -35.4461   22.9981 C   0  0  0  0  0  0  0  0  0  0  0  0
  -26.1190  -13.5985   24.4860 C   0  0  0  0  0  0  0  0  0  0  0  0
  -27.0010  -19.2681   22.6089 C   0  0  0  0  0  0  0  0  0  0  0  0
  -25.2692  -20.8555   23.5299 C   0  0  0  0  0  0  0  0  0  0  0  0
  -27.6457  -23.3952   19.4671 C   0  0  0  0  0  0  0  0  0  0  0  0
  -25.5241  -15.6329   25.8639 C   0  0  0  0  0  0  0  0  0  0  0  0
  -25.9419  -18.1649   22.5682 C   0  0  0  0  0  0  0  0  0  0  0  0
  -24.2426  -19.7315   23.4457 C   0  0  0  0  0  0  0  0  0  0  0  0
  -26.8757  -22.4357   20.3683 C   0  0  0  0  0  0  0  0  0  0  0  0
  -24.5903  -15.3966   23.5847 C   0  0  0  0  0  0  0  0  0  0  0  0
  -28.6186  -23.6009   21.6443 C   0  0  0  0  0  0  0  0  0  0  0  0
  -23.3060  -35.3048   22.1777 C   0  0  1  0  0  0  0  0  0  0  0  0
  -26.3791  -20.6635   22.4907 C   0  0  0  0  0  0  0  0  0  0  0  0
  -23.7269  -31.6544   21.2206 C   0  0  1  0  0  0  0  0  0  0  0  0
  -25.6536  -14.3476   23.2256 C   0  0  2  0  0  0  0  0  0  0  0  0
  -28.2338  -24.4685   20.4189 C   0  0  1  0  0  0  0  0  0  0  0  0
  -32.5492  -26.9777   21.0345 C   0  0  0  0  0  0  0  0  0  0  0  0
  -17.8795  -27.4481   24.7974 C   0  0  0  0  0  0  0  0  0  0  0  0
  -24.2537  -29.2168   24.4632 C   0  0  0  0  0  0  0  0  0  0  0  0
  -22.4594  -27.8568   25.5582 C   0  0  0  0  0  0  0  0  0  0  0  0
  -22.3257  -30.3476   25.5851 C   0  0  0  0  0  0  0  0  0  0  0  0
  -17.5431  -28.3436   21.1149 C   0  0  0  0  0  0  0  0  0  0  0  0
  -29.6053  -25.8116   15.7725 C   0  0  0  0  0  0  0  0  0  0  0  0
  -27.1448  -25.4881   20.8129 C   0  0  0  0  0  0  0  0  0  1  0  0
  -21.8921  -29.1063   23.4256 C   0  0  1  0  0  0  0  0  0  0  0  0
  -18.2131  -28.1971   23.5166 C   0  0  2  0  0  0  0  0  0  0  0  0
  -22.7378  -29.1294   24.7301 C   0  0  0  0  0  0  0  0  0  0  0  0
  -24.5680  -12.2509   22.5135 N   0  0  0  0  0  0  0  0  0  0  0  0
  -25.1651  -13.3979   22.1477 N   0  0  0  0  0  0  0  0  0  0  0  0
  -27.6200  -22.5171   21.6296 N   0  0  0  0  0  0  0  0  0  0  0  0
  -23.4530  -30.5225   22.1222 N   0  0  0  0  0  0  0  0  0  0  0  0
  -25.0634  -16.2991   24.6455 N   0  0  0  0  0  0  0  0  0  0  0  0
  -24.8853  -18.4220   23.5561 N   0  0  0  0  0  0  0  0  0  0  0  0
  -25.8288  -14.6628   20.2582 N   0  0  0  0  0  0  0  0  0  0  0  0
  -25.5802  -11.4925   18.1889 N   0  0  0  0  0  0  0  0  0  0  0  0
  -23.3379  -34.0246   21.5035 N   0  0  0  0  0  0  0  0  0  0  0  0
  -20.4514  -29.0511   23.6484 N   0  0  0  0  0  0  0  0  0  0  0  0
  -28.0767  -21.7482   23.7952 N   0  3  0  0  0  0  0  0  0  0  0  0
  -17.3378  -27.6788   22.4275 N   0  3  0  0  0  0  0  0  0  0  0  0
  -23.5523  -12.5632   18.1764 O   0  0  0  0  0  0  0  0  0  0  0  0
  -24.2023  -32.7540   23.2531 O   0  0  0  0  0  0  0  0  0  0  0  0
  -21.1954  -31.0604   22.2805 O   0  0  0  0  0  0  0  0  0  0  0  0
  -20.0876  -27.0847   22.4744 O   0  0  0  0  0  0  0  0  0  0  0  0
  -24.2241  -18.1436   25.7481 O   0  0  0  0  0  0  0  0  0  0  0  0
  -21.7013   -6.7126   21.2243 O   0  0  0  0  0  0  0  0  0  0  0  0
  -30.6565  -26.3489   16.5737 O   0  0  0  0  0  0  0  0  0  0  0  0
  -26.7600  -26.1998   19.6529 O   0  0  0  0  0  0  0  0  0  1  0  0
  -21.5853   -3.7799   25.8923 F   0  0  0  0  0  0  0  0  0  0  0  0
  -22.8371   -4.1951   21.3463 F   0  0  0  0  0  0  0  0  0  0  0  0
  1  2  1  0  0  0  0
  1  5  2  0  0  0  0
  2  6  2  0  0  0  0
  3  8  2  0  0  0  0
  3 18  1  0  0  0  0
  4  9  1  0  0  0  0
  4 18  2  0  0  0  0
  5 20  1  0  0  0  0
  6 22  1  0  0  0  0
  7 10  2  0  0  0  0
  7 21  1  0  0  0  0
  8 26  1  0  0  0  0
  9 26  2  0  0  0  0
 10 27  1  0  0  0  0
 11 12  2  0  0  0  0
 11 28  1  0  0  0  0
 12 30  1  0  0  0  0
 13 23  1  0  0  0  0
 13 25  2  0  0  0  0
 14 23  2  0  0  0  0
 14 29  1  0  0  0  0
 15 24  1  0  0  0  0
 15 27  2  0  0  0  0
 16 25  1  0  0  0  0
 16 29  2  0  0  0  0
 17 30  2  0  0  0  0
 17 31  1  0  0  0  0
 18 32  1  0  0  0  0
 19 32  1  0  0  0  0
 19 33  2  0  0  0  0
 19 34  1  0  0  0  0
 20 22  2  0  0  0  0
 20 40  1  0  0  0  0
 21 24  2  0  0  0  0
 21 41  1  0  0  0  0
 22 56  1  0  0  0  0
 23 60  1  0  0  0  0
 24 42  1  0  0  0  0
 25 61  1  0  0  0  0
 26 89  1  0  0  0  0
 27 91  1  0  0  0  0
 28 31  2  0  0  0  0
 28 89  1  0  0  0  0
 29 90  1  0  0  0  0
 30 92  1  0  0  0  0
 31 93  1  0  0  0  0
 32 72  2  0  0  0  0
 33 73  1  0  0  0  0
 33 78  1  0  0  0  0
 34 79  1  0  0  0  0
 34 84  2  0  0  0  0
 35 57  1  0  0  0  0
 35 74  1  0  0  0  0
 35 82  2  0  0  0  0
 36 58  1  0  0  0  0
 36 80  1  0  0  0  0
 36 85  2  0  0  0  0
 37 69  1  0  0  0  0
 37 75  1  0  0  0  0
 37 86  2  0  0  0  0
 38 70  1  0  0  0  0
 38 81  1  0  0  0  0
 38 87  2  0  0  0  0
 39 76  1  0  0  0  0
 39 77  1  0  0  0  0
 39 88  2  0  0  0  0
 40 43  1  0  0  0  0
 41 58  1  0  0  0  0
 42 75  1  0  0  0  0
 43 45  1  0  0  0  0
 44 46  1  0  0  0  0
 44 50  1  0  0  0  0
 45 56  1  0  0  0  0
 46 59  1  0  0  0  0
 47 51  1  0  0  0  0
 47 57  1  0  0  0  0
 48 52  1  0  0  0  0
 48 57  1  0  0  0  0
 49 53  1  0  0  0  0
 49 60  1  0  0  0  0
 50 76  1  0  0  0  0
 51 77  1  0  0  0  0
 52 77  1  0  0  0  0
 53 74  1  0  0  0  0
 54 59  1  0  0  0  0
 54 76  1  0  0  0  0
 55 60  1  0  0  0  0
 55 74  1  0  0  0  0
 56 80  1  0  0  0  0
 58 75  1  0  0  0  0
 59 73  1  0  0  0  0
 60 68  1  0  0  0  0
 62 70  1  0  0  0  0
 63 71  1  0  0  0  0
 64 71  1  0  0  0  0
 65 71  1  0  0  0  0
 66 83  1  0  0  0  0
 67 90  1  0  0  0  0
 68 91  1  0  0  0  0
 69 71  1  0  0  0  0
 69 81  1  0  0  0  0
 70 83  1  0  0  0  0
 72 73  1  0  0  0  0
M  CHG  2  82   1  83   1
M  ISO  4  39 100  68 101  77 100  91 101
M  END
> <Batch ID>
0076

> <Smiles>
CNC(C)C(=O)NC(C(=O)N1Cc2cc([101O:1][101CH2:1]C3(c4cc(C)cc(OC)c4)CCN(C(=N)C4CC[100N:0]([100C:0](=O)N5CCCC(n6nc(-c7ccc(Oc8ccc(F)cc8F)cc7)c(C(N)=O)c6N)C5)CC4)C3)ccc2CC1C(=O)NC1CCCc2ccccc21)C(C)(C)C

> <Shape>
0.268

> <Color>
0.127

> <Negative vol penalty>
0.000

$$$$

  -OEChem-04042323503D

 87 96  0     1  0  0  0  0  0999 V2000
  -33.0818  -25.2389   19.6087 C   0  0  0  0  0  0  0  0  0  0  0  0
  -31.6933  -25.1575   19.6384 C   0  0  0  0  0  0  0  0  0  0  0  0
  -20.9825  -19.9942   15.7152 C   0  0  0  0  0  0  0  0  0  0  0  0
  -23.9018   -9.4422   19.9299 C   0  0  0  0  0  0  0  0  0  0  0  0
  -23.1778  -10.1862   22.1115 C   0  0  0  0  0  0  0  0  0  0  0  0
  -33.7638  -25.8778   20.6434 C   0  0  0  0  0  0  0  0  0  0  0  0
  -30.9860  -25.7140   20.7035 C   0  0  0  0  0  0  0  0  0  0  0  0
  -26.9415  -28.3542   19.1815 C   0  0  0  0  0  0  0  0  0  0  0  0
  -20.8979  -21.3683   15.9391 C   0  0  0  0  0  0  0  0  0  0  0  0
  -21.5349  -19.1616   16.6887 C   0  0  0  0  0  0  0  0  0  0  0  0
  -23.1339   -8.2862   20.0693 C   0  0  0  0  0  0  0  0  0  0  0  0
  -22.4099   -9.0302   22.2510 C   0  0  0  0  0  0  0  0  0  0  0  0
  -25.8080  -27.6290   18.8171 C   0  0  0  0  0  0  0  0  0  0  0  0
  -20.5423   -6.1065   23.3345 C   0  0  0  0  0  0  0  0  0  0  0  0
  -20.6026   -5.4312   24.5534 C   0  0  0  0  0  0  0  0  0  0  0  0
  -24.8310  -28.0832   20.9754 C   0  0  0  0  0  0  0  0  0  0  0  0
  -22.9779   -5.1048   24.2551 C   0  0  0  0  0  0  0  0  0  0  0  0
  -23.9238  -10.3923   20.9510 C   0  0  0  0  0  0  0  0  0  0  0  0
  -26.1107  -11.6641   20.6230 C   0  0  0  0  0  0  0  0  0  0  0  0
  -33.0639  -26.4509   21.7169 C   0  0  0  0  0  0  0  0  0  0  0  0
  -27.0331  -28.9413   20.4517 C   0  0  0  0  0  0  0  0  0  0  0  0
  -31.6593  -26.3601   21.7542 C   0  0  0  0  0  0  0  0  0  0  0  0
  -25.9657  -28.8176   21.3525 C   0  0  0  0  0  0  0  0  0  0  0  0
  -21.3659  -21.9100   17.1363 C   0  0  0  0  0  0  0  0  0  0  0  0
  -22.0028  -19.7033   17.8858 C   0  0  0  0  0  0  0  0  0  0  0  0
  -22.3879   -8.0801   21.2298 C   0  0  0  0  0  0  0  0  0  0  0  0
  -24.7537  -27.4909   19.7151 C   0  0  0  0  0  0  0  0  0  0  0  0
  -21.6997   -6.2809   22.5757 C   0  0  0  0  0  0  0  0  0  0  0  0
  -21.8204   -4.9304   25.0138 C   0  0  0  0  0  0  0  0  0  0  0  0
  -22.9175   -5.7801   23.0361 C   0  0  0  0  0  0  0  0  0  0  0  0
  -21.9183  -21.0775   18.1097 C   0  0  0  0  0  0  0  0  0  0  0  0
  -24.7173  -11.5864   20.8078 C   0  0  0  0  0  0  0  0  0  0  0  0
  -26.3721  -13.0102   20.5443 C   0  0  0  0  0  0  0  0  0  0  0  0
  -22.3896  -24.1127   17.5929 C   0  0  0  0  0  0  0  0  0  0  0  0
  -22.3613  -25.4334   17.8521 C   0  0  0  0  0  0  0  0  0  0  0  0
  -21.0431  -26.0839   17.9631 C   0  0  0  0  0  0  0  0  0  0  0  0
  -19.8353  -25.2323   17.9649 C   0  0  0  0  0  0  0  0  0  0  0  0
  -20.9293  -27.4258   18.0177 C   0  0  0  0  0  0  0  0  0  0  0  0
  -18.7179  -25.5117   18.6581 C   0  0  0  0  0  0  0  0  0  0  0  0
  -27.0819  -10.6134   20.5307 C   0  0  0  0  0  0  0  0  0  0  0  0
  -28.9719  -28.5979   22.9470 C   0  0  0  0  0  0  0  0  0  0  0  0
  -27.2904  -31.1183   24.1057 C   0  0  0  0  0  0  0  0  0  0  0  0
  -24.4024  -32.9362   24.0711 C   0  0  0  0  0  0  0  0  0  0  0  0
  -22.7254  -17.4678   18.8157 C   0  0  0  0  0  0  0  0  0  0  0  0
  -33.8475  -27.0899   22.8360 C   0  0  0  0  0  0  0  0  0  0  0  0
  -28.2514  -29.7430   20.8196 C   0  0  0  0  0  0  0  0  0  0  0  0
  -26.0060  -29.4456   22.7209 C   0  0  0  0  0  0  0  0  0  0  0  0
  -19.9518  -23.9386   17.1753 C   0  0  0  0  0  0  0  0  0  0  0  0
  -33.0009  -27.9816   23.7406 C   0  0  0  0  0  0  0  0  0  0  0  0
  -24.0361  -16.8361   22.3664 C   0  0  0  0  0  0  0  0  0  0  0  0
  -31.7028  -27.2768   24.1214 C   0  0  0  0  0  0  0  0  0  0  0  0
  -25.0677  -15.7511   22.0665 C   0  0  0  0  0  0  0  0  0  0  0  0
  -23.7324  -17.6971   21.1468 C   0  0  0  0  0  0  0  0  0  0  0  0
  -23.5335  -15.4613   20.0434 C   0  0  0  0  0  0  0  0  0  0  0  0
  -30.8552  -26.9732   22.8800 C   0  0  1  0  0  0  0  0  0  0  0  0
  -28.4538  -29.8646   22.3268 C   0  0  1  0  0  0  0  0  0  0  0  0
  -24.8973  -15.1264   20.6676 C   0  0  2  0  0  0  0  0  0  0  0  0
  -23.3089  -34.9177   25.1553 C   0  0  0  0  0  0  0  0  0  0  0  0
  -26.7595  -29.4536   26.6071 C   0  0  0  0  0  0  0  0  0  0  0  0
  -24.9324  -31.0584   27.2027 C   0  0  0  0  0  0  0  0  0  0  0  0
  -27.2904  -31.8575   27.0471 C   0  0  0  0  0  0  0  0  0  0  0  0
  -24.1762  -34.3692   21.4916 C   0  0  0  0  0  0  0  0  0  0  0  0
  -23.6318  -26.2083   18.0561 C   0  0  0  0  0  0  0  0  0  1  0  0
  -26.0358  -31.2782   24.9300 C   0  0  1  0  0  0  0  0  0  0  0  0
  -24.1544  -34.4316   23.9884 C   0  0  2  0  0  0  0  0  0  0  0  0
  -26.2543  -30.8983   26.4217 C   0  0  0  0  0  0  0  0  0  0  0  0
  -24.1342  -12.7875   20.8445 N   0  0  0  0  0  0  0  0  0  0  0  0
  -25.1663  -13.6327   20.6817 N   0  0  0  0  0  0  0  0  0  0  0  0
  -21.2780  -23.3104   17.3616 N   0  0  0  0  0  0  0  0  0  0  0  0
  -27.2214  -30.2143   23.0362 N   0  0  0  0  0  0  0  0  0  0  0  0
  -23.3237  -16.9120   19.9730 N   0  0  0  0  0  0  0  0  0  0  0  0
  -27.5134  -13.7102   20.3717 N   0  0  0  0  0  0  0  0  0  0  0  0
  -27.6942  -10.1642   21.7087 N   0  0  0  0  0  0  0  0  0  0  0  0
  -22.5637  -18.8546   18.8727 N   0  0  0  0  0  0  0  0  0  0  0  0
  -30.1776  -28.1687   22.4260 N   0  0  0  0  0  0  0  0  0  0  0  0
  -25.5834  -32.6496   24.7227 N   0  0  0  0  0  0  0  0  0  0  0  0
  -23.4460  -34.7699   22.7217 N   0  3  0  0  0  0  0  0  0  0  0  0
  -27.4094  -10.0998   19.4342 O   0  0  0  0  0  0  0  0  0  0  0  0
  -28.3264  -28.0513   23.8337 O   0  0  0  0  0  0  0  0  0  0  0  0
  -28.2925  -31.7766   24.3957 O   0  0  0  0  0  0  0  0  0  0  0  0
  -23.6244  -32.1053   23.6077 O   0  0  0  0  0  0  0  0  0  0  0  0
  -22.3994  -16.7674   17.8550 O   0  0  0  0  0  0  0  0  0  0  0  0
  -21.6383   -6.9523   21.3661 O   0  0  0  0  0  0  0  0  0  0  0  0
  -23.6464  -26.7830   19.3623 O   0  0  0  0  0  0  0  0  0  1  0  0
  -21.8785   -4.2832   26.1851 F   0  0  0  0  0  0  0  0  0  0  0  0
  -24.0330   -5.9457   22.3121 F   0  0  0  0  0  0  0  0  0  0  0  0
  -22.3681  -21.5991   19.2613 F   0  0  0  0  0  0  0  0  0  0  0  0
  1  2  1  0  0  0  0
  1  6  2  0  0  0  0
  2  7  2  0  0  0  0
  3  9  2  0  0  0  0
  3 10  1  0  0  0  0
  4 11  2  0  0  0  0
  4 18  1  0  0  0  0
  5 12  1  0  0  0  0
  5 18  2  0  0  0  0
  6 20  1  0  0  0  0
  7 22  1  0  0  0  0
  8 13  2  0  0  0  0
  8 21  1  0  0  0  0
  9 24  1  0  0  0  0
 10 25  2  0  0  0  0
 11 26  1  0  0  0  0
 12 26  2  0  0  0  0
 13 27  1  0  0  0  0
 14 15  2  0  0  0  0
 14 28  1  0  0  0  0
 15 29  1  0  0  0  0
 16 23  1  0  0  0  0
 16 27  2  0  0  0  0
 17 29  2  0  0  0  0
 17 30  1  0  0  0  0
 18 32  1  0  0  0  0
 19 32  1  0  0  0  0
 19 33  2  0  0  0  0
 19 40  1  0  0  0  0
 20 22  2  0  0  0  0
 20 45  1  0  0  0  0
 21 23  2  0  0  0  0
 21 46  1  0  0  0  0
 22 55  1  0  0  0  0
 23 47  1  0  0  0  0
 24 31  2  0  0  0  0
 24 69  1  0  0  0  0
 25 31  1  0  0  0  0
 25 74  1  0  0  0  0
 26 83  1  0  0  0  0
 27 84  1  0  0  0  0
 28 30  2  0  0  0  0
 28 83  1  0  0  0  0
 29 85  1  0  0  0  0
 30 86  1  0  0  0  0
 31 87  1  0  0  0  0
 32 67  2  0  0  0  0
 33 68  1  0  0  0  0
 33 72  1  0  0  0  0
 34 35  2  0  0  0  0
 34 69  1  0  0  0  0
 35 36  1  0  0  0  0
 35 63  1  0  0  0  0
 36 37  1  0  0  0  0
 36 38  2  0  0  0  0
 37 39  2  0  0  0  0
 37 48  1  0  0  0  0
 40 73  1  0  0  0  0
 40 78  2  0  0  0  0
 41 56  1  0  0  0  0
 41 75  1  0  0  0  0
 41 79  2  0  0  0  0
 42 64  1  0  0  0  0
 42 70  1  0  0  0  0
 42 80  2  0  0  0  0
 43 65  1  0  0  0  0
 43 76  1  0  0  0  0
 43 81  2  0  0  0  0
 44 71  1  0  0  0  0
 44 74  1  0  0  0  0
 44 82  2  0  0  0  0
 45 49  1  0  0  0  0
 46 56  1  0  0  0  0
 47 70  1  0  0  0  0
 48 69  1  0  0  0  0
 49 51  1  0  0  0  0
 50 52  1  0  0  0  0
 50 53  1  0  0  0  0
 51 55  1  0  0  0  0
 52 57  1  0  0  0  0
 53 71  1  0  0  0  0
 54 57  1  0  0  0  0
 54 71  1  0  0  0  0
 55 75  1  0  0  0  0
 56 70  1  0  0  0  0
 57 68  1  0  0  0  0
 58 65  1  0  0  0  0
 59 66  1  0  0  0  0
 60 66  1  0  0  0  0
 61 66  1  0  0  0  0
 62 77  1  0  0  0  0
 63 84  1  0  0  0  0
 64 66  1  0  0  0  0
 64 76  1  0  0  0  0
 65 77  1  0  0  0  0
 67 68  1  0  0  0  0
M  CHG  1  77   1
M  ISO  4  44 100  63 101  74 100  84 101
M  END
> <Batch ID>
0076

> <Smiles>
C=C1CN(c2cccc([100NH:0][100C:0](=O)N3CCCC(n4nc(-c5ccc(Oc6ccc(F)cc6F)cc5)c(C(N)=O)c4N)C3)c2F)C=C([101CH2:1][101O:1]c2ccc3c(c2)CN(C(=O)C(NC(=O)C(C)NC)C(C)(C)C)C(C(=O)NC2CCCc4ccccc42)C3)C1=C

> <Shape>
0.224

> <Color>
0.122

> <Negative vol penalty>
0.000

$$$$

  -OEChem-04042323503D

 87 97  0     1  0  0  0  0  0999 V2000
  -17.0771  -27.6403   20.9423 C   0  0  0  0  0  0  0  0  0  0  0  0
  -18.3078  -27.1662   20.4996 C   0  0  0  0  0  0  0  0  0  0  0  0
  -21.2692  -10.1558   20.3022 C   0  0  0  0  0  0  0  0  0  0  0  0
  -22.7701  -10.1508   22.1954 C   0  0  0  0  0  0  0  0  0  0  0  0
  -16.9866  -28.9039   21.5247 C   0  0  0  0  0  0  0  0  0  0  0  0
  -19.4486  -27.9560   20.6380 C   0  0  0  0  0  0  0  0  0  0  0  0
  -25.1457  -26.0248   21.7867 C   0  0  0  0  0  0  0  0  0  0  0  0
  -21.2577   -8.7610   20.3076 C   0  0  0  0  0  0  0  0  0  0  0  0
  -22.7586   -8.7560   22.2009 C   0  0  0  0  0  0  0  0  0  0  0  0
  -26.2438  -25.7968   20.9584 C   0  0  0  0  0  0  0  0  0  0  0  0
  -20.7046   -6.2878   23.2541 C   0  0  0  0  0  0  0  0  0  0  0  0
  -20.5565   -5.6473   24.4843 C   0  0  0  0  0  0  0  0  0  0  0  0
  -28.9649  -21.2812   20.2316 C   0  0  0  0  0  0  0  0  0  0  0  0
  -27.0815  -27.9997   21.4727 C   0  0  0  0  0  0  0  0  0  0  0  0
  -27.4934  -22.1454   22.0000 C   0  0  0  0  0  0  0  0  0  0  0  0
  -22.6898   -4.5568   24.1733 C   0  0  0  0  0  0  0  0  0  0  0  0
  -22.0254  -10.8507   21.2460 C   0  0  0  0  0  0  0  0  0  0  0  0
  -21.1663  -13.1520   21.9343 C   0  0  0  0  0  0  0  0  0  0  0  0
  -18.1285  -29.7056   21.6791 C   0  0  0  0  0  0  0  0  0  0  0  0
  -25.0015  -27.2482   22.4568 C   0  0  0  0  0  0  0  0  0  0  0  0
  -19.3731  -29.2320   21.2218 C   0  0  0  0  0  0  0  0  0  0  0  0
  -28.1800  -20.1605   20.2200 C   0  0  0  0  0  0  0  0  0  0  0  0
  -25.9821  -28.2398   22.3109 C   0  0  0  0  0  0  0  0  0  0  0  0
  -27.0989  -20.0544   21.0600 C   0  0  0  0  0  0  0  0  0  0  0  0
  -28.6093  -22.2898   21.1388 C   0  0  0  0  0  0  0  0  0  0  0  0
  -22.0024   -8.0611   21.2570 C   0  0  0  0  0  0  0  0  0  0  0  0
  -27.2104  -26.7854   20.7990 C   0  0  0  0  0  0  0  0  0  0  0  0
  -21.8453   -6.0628   22.4835 C   0  0  0  0  0  0  0  0  0  0  0  0
  -21.5491   -4.7818   24.9439 C   0  0  0  0  0  0  0  0  0  0  0  0
  -26.7072  -20.9921   21.9723 C   0  0  0  0  0  0  0  0  0  0  0  0
  -22.8379   -5.1973   22.9431 C   0  0  0  0  0  0  0  0  0  0  0  0
  -22.0382  -12.2915   21.2406 C   0  0  0  0  0  0  0  0  0  0  0  0
  -21.5925  -14.4144   21.6008 C   0  0  0  0  0  0  0  0  0  0  0  0
  -20.0694  -12.8382   22.8026 C   0  0  0  0  0  0  0  0  0  0  0  0
  -30.5022  -23.7924   20.4432 C   0  0  0  0  0  0  0  0  0  0  0  0
  -22.8523  -29.5897   22.4136 C   0  0  0  0  0  0  0  0  0  0  0  0
  -24.6310  -30.7405   24.8701 C   0  0  0  0  0  0  0  0  0  0  0  0
  -27.6469  -30.8433   26.4640 C   0  0  0  0  0  0  0  0  0  0  0  0
  -25.8585  -17.9114   21.1299 C   0  0  0  0  0  0  0  0  0  0  0  0
  -17.9732  -31.0838   22.2716 C   0  0  0  0  0  0  0  0  0  0  0  0
  -23.8250  -27.4684   23.3677 C   0  0  0  0  0  0  0  0  0  0  0  0
  -27.8991  -18.7998   19.6508 C   0  0  0  0  0  0  0  0  0  0  0  0
  -25.8843  -29.5628   23.0241 C   0  0  0  0  0  0  0  0  0  0  0  0
  -19.2927  -31.7054   22.7220 C   0  0  0  0  0  0  0  0  0  0  0  0
  -24.8185  -16.0027   18.0897 C   0  0  0  0  0  0  0  0  0  0  0  0
  -20.3592  -31.5329   21.6452 C   0  0  0  0  0  0  0  0  0  0  0  0
  -32.5239  -25.4910   20.4691 C   0  0  0  0  0  0  0  0  0  0  0  0
  -32.0807  -26.9346   20.1634 C   0  0  0  0  0  0  0  0  0  0  0  0
  -24.0084  -14.8814   18.7264 C   0  0  0  0  0  0  0  0  0  0  0  0
  -25.9424  -16.5023   18.9976 C   0  0  0  0  0  0  0  0  0  0  0  0
  -24.6572  -15.7635   20.9915 C   0  0  0  0  0  0  0  0  0  0  0  0
  -20.6375  -30.0489   21.3770 C   0  0  1  0  0  0  0  0  0  0  0  0
  -31.0373  -25.1535   20.8109 C   0  0  1  0  0  0  0  0  0  0  0  0
  -23.5154  -28.9445   23.5976 C   0  0  1  0  0  0  0  0  0  0  0  0
  -30.6668  -26.3685   19.8866 C   0  0  1  0  0  0  0  0  0  0  0  0
  -23.4887  -15.3215   20.1006 C   0  0  2  0  0  0  0  0  0  0  0  0
  -28.8046  -31.9015   28.4229 C   0  0  0  0  0  0  0  0  0  0  0  0
  -24.8319  -33.3667   23.3296 C   0  0  0  0  0  0  0  0  0  0  0  0
  -26.7273  -34.0206   24.8290 C   0  0  0  0  0  0  0  0  0  0  0  0
  -24.4589  -33.6257   25.7889 C   0  0  0  0  0  0  0  0  0  0  0  0
  -28.1863  -28.2150   27.7130 C   0  0  0  0  0  0  0  0  0  0  0  0
  -29.4990  -27.2278   20.3274 C   0  0  0  0  0  0  0  0  0  1  0  0
  -25.8259  -31.6555   24.9879 C   0  0  1  0  0  0  0  0  0  0  0  0
  -28.0175  -30.6977   27.9289 C   0  0  2  0  0  0  0  0  0  0  0  0
  -25.4621  -33.1430   24.7188 C   0  0  0  0  0  0  0  0  0  0  0  0
  -22.9493  -12.9515   20.5206 N   0  0  0  0  0  0  0  0  0  0  0  0
  -22.6522  -14.2401   20.7601 N   0  0  0  0  0  0  0  0  0  0  0  0
  -26.7737  -18.7924   20.6078 N   0  0  0  0  0  0  0  0  0  0  0  0
  -24.7122  -29.7328   23.8987 N   0  0  0  0  0  0  0  0  0  0  0  0
  -25.4851  -16.8006   20.3590 N   0  0  0  0  0  0  0  0  0  0  0  0
  -21.1603  -15.6454   21.9476 N   0  0  0  0  0  0  0  0  0  0  0  0
  -19.7676  -11.4898   23.0374 N   0  0  0  0  0  0  0  0  0  0  0  0
  -29.3711  -23.4585   21.1988 N   0  0  0  0  0  0  0  0  0  0  0  0
  -21.4737  -29.4949   22.4202 N   0  0  0  0  0  0  0  0  0  0  0  0
  -26.3997  -31.4099   26.3066 N   0  0  0  0  0  0  0  0  0  0  0  0
  -28.8473  -29.4770   28.1344 N   0  3  0  0  0  0  0  0  0  0  0  0
  -19.3670  -13.7272   23.3409 O   0  0  0  0  0  0  0  0  0  0  0  0
  -31.0444  -23.1182   19.5735 O   0  0  0  0  0  0  0  0  0  0  0  0
  -23.5403  -30.1344   21.5583 O   0  0  0  0  0  0  0  0  0  0  0  0
  -23.6642  -30.9091   25.6174 O   0  0  0  0  0  0  0  0  0  0  0  0
  -28.3910  -30.4932   25.5506 O   0  0  0  0  0  0  0  0  0  0  0  0
  -25.4141  -18.0734   22.2752 O   0  0  0  0  0  0  0  0  0  0  0  0
  -21.9912   -6.7001   21.2627 O   0  0  0  0  0  0  0  0  0  0  0  0
  -28.2908  -26.5640   19.9845 O   0  0  0  0  0  0  0  0  0  1  0  0
  -21.4074   -4.1679   26.1260 F   0  0  0  0  0  0  0  0  0  0  0  0
  -25.6548  -20.8362   22.7790 F   0  0  0  0  0  0  0  0  0  0  0  0
  -23.9365   -4.9781   22.2077 F   0  0  0  0  0  0  0  0  0  0  0  0
  1  2  1  0  0  0  0
  1  5  2  0  0  0  0
  2  6  2  0  0  0  0
  3  8  2  0  0  0  0
  3 17  1  0  0  0  0
  4  9  1  0  0  0  0
  4 17  2  0  0  0  0
  5 19  1  0  0  0  0
  6 21  1  0  0  0  0
  7 10  2  0  0  0  0
  7 20  1  0  0  0  0
  8 26  1  0  0  0  0
  9 26  2  0  0  0  0
 10 27  1  0  0  0  0
 11 12  2  0  0  0  0
 11 28  1  0  0  0  0
 12 29  1  0  0  0  0
 13 22  1  0  0  0  0
 13 25  2  0  0  0  0
 14 23  1  0  0  0  0
 14 27  2  0  0  0  0
 15 25  1  0  0  0  0
 15 30  2  0  0  0  0
 16 29  2  0  0  0  0
 16 31  1  0  0  0  0
 17 32  1  0  0  0  0
 18 32  1  0  0  0  0
 18 33  2  0  0  0  0
 18 34  1  0  0  0  0
 19 21  2  0  0  0  0
 19 40  1  0  0  0  0
 20 23  2  0  0  0  0
 20 41  1  0  0  0  0
 21 52  1  0  0  0  0
 22 24  2  0  0  0  0
 22 42  1  0  0  0  0
 23 43  1  0  0  0  0
 24 30  1  0  0  0  0
 24 68  1  0  0  0  0
 25 73  1  0  0  0  0
 26 83  1  0  0  0  0
 27 84  1  0  0  0  0
 28 31  2  0  0  0  0
 28 83  1  0  0  0  0
 29 85  1  0  0  0  0
 30 86  1  0  0  0  0
 31 87  1  0  0  0  0
 32 66  2  0  0  0  0
 33 67  1  0  0  0  0
 33 71  1  0  0  0  0
 34 72  1  0  0  0  0
 34 77  2  0  0  0  0
 35 53  1  0  0  0  0
 35 73  1  0  0  0  0
 35 78  2  0  0  0  0
 36 54  1  0  0  0  0
 36 74  1  0  0  0  0
 36 79  2  0  0  0  0
 37 63  1  0  0  0  0
 37 69  1  0  0  0  0
 37 80  2  0  0  0  0
 38 64  1  0  0  0  0
 38 75  1  0  0  0  0
 38 81  2  0  0  0  0
 39 68  1  0  0  0  0
 39 70  1  0  0  0  0
 39 82  2  0  0  0  0
 40 44  1  0  0  0  0
 41 54  1  0  0  0  0
 42 68  1  0  0  0  0
 43 69  1  0  0  0  0
 44 46  1  0  0  0  0
 45 49  1  0  0  0  0
 45 50  1  0  0  0  0
 46 52  1  0  0  0  0
 47 48  1  0  0  0  0
 47 53  1  0  0  0  0
 48 55  1  0  0  0  0
 49 56  1  0  0  0  0
 50 70  1  0  0  0  0
 51 56  1  0  0  0  0
 51 70  1  0  0  0  0
 52 74  1  0  0  0  0
 53 55  1  0  0  0  0
 54 69  1  0  0  0  0
 55 62  1  0  0  0  0
 56 67  1  0  0  0  0
 57 64  1  0  0  0  0
 58 65  1  0  0  0  0
 59 65  1  0  0  0  0
 60 65  1  0  0  0  0
 61 76  1  0  0  0  0
 62 84  1  0  0  0  0
 63 65  1  0  0  0  0
 63 75  1  0  0  0  0
 64 76  1  0  0  0  0
 66 67  1  0  0  0  0
M  CHG  1  76   1
M  ISO  4  39 100  62 101  68 100  84 101
M  END
> <Batch ID>
0076

> <Smiles>
CNC(C)C(=O)NC(C(=O)N1Cc2cc([101O:1][101CH2:1]C3CCC3C(=O)Nc3cc(F)c4c(c3)C[100N:0]4[100C:0](=O)N3CCCC(n4nc(-c5ccc(Oc6ccc(F)cc6F)cc5)c(C(N)=O)c4N)C3)ccc2CC1C(=O)NC1CCCc2ccccc21)C(C)(C)C

> <Shape>
0.293

> <Color>
0.077

> <Negative vol penalty>
0.000

$$$$

  -OEChem-04042323503D

 86 95  0     1  0  0  0  0  0999 V2000
  -29.8995  -31.1827   14.3757 C   0  0  0  0  0  0  0  0  0  0  0  0
  -30.0095  -30.2871   15.4345 C   0  0  0  0  0  0  0  0  0  0  0  0
  -23.4588  -16.1292   22.2093 C   0  0  0  0  0  0  0  0  0  0  0  0
  -22.9435  -15.9544   19.8554 C   0  0  0  0  0  0  0  0  0  0  0  0
  -29.0826  -32.3061   14.4964 C   0  0  0  0  0  0  0  0  0  0  0  0
  -29.3035  -30.5150   16.6152 C   0  0  0  0  0  0  0  0  0  0  0  0
  -27.0507  -26.3327   18.3697 C   0  0  0  0  0  0  0  0  0  0  0  0
  -29.4291  -17.9843   23.4362 C   0  0  0  0  0  0  0  0  0  0  0  0
  -30.6444  -18.0978   21.3512 C   0  0  0  0  0  0  0  0  0  0  0  0
  -29.7233  -16.6243   23.5337 C   0  0  0  0  0  0  0  0  0  0  0  0
  -30.9387  -16.7378   21.4487 C   0  0  0  0  0  0  0  0  0  0  0  0
  -22.6040  -17.2264   22.3150 C   0  0  0  0  0  0  0  0  0  0  0  0
  -22.0887  -17.0516   19.9610 C   0  0  0  0  0  0  0  0  0  0  0  0
  -27.8540  -25.4089   19.0369 C   0  0  0  0  0  0  0  0  0  0  0  0
  -20.8329  -20.2969   23.1265 C   0  0  0  0  0  0  0  0  0  0  0  0
  -21.2842  -21.4060   23.8418 C   0  0  0  0  0  0  0  0  0  0  0  0
  -27.0761  -26.2692   21.1521 C   0  0  0  0  0  0  0  0  0  0  0  0
  -23.1383  -21.6392   22.3105 C   0  0  0  0  0  0  0  0  0  0  0  0
  -23.6286  -15.4933   20.9795 C   0  0  0  0  0  0  0  0  0  0  0  0
  -24.1796  -13.0033   21.0429 C   0  0  0  0  0  0  0  0  0  0  0  0
  -28.3586  -32.5428   15.6756 C   0  0  0  0  0  0  0  0  0  0  0  0
  -26.2610  -27.2404   19.0900 C   0  0  0  0  0  0  0  0  0  0  0  0
  -28.4771  -31.6433   16.7523 C   0  0  0  0  0  0  0  0  0  0  0  0
  -26.2617  -27.2017   20.4917 C   0  0  0  0  0  0  0  0  0  0  0  0
  -29.8896  -18.7210   22.3450 C   0  0  0  0  0  0  0  0  0  0  0  0
  -30.4781  -16.0011   22.5400 C   0  0  0  0  0  0  0  0  0  0  0  0
  -21.9189  -17.6875   21.1909 C   0  0  0  0  0  0  0  0  0  0  0  0
  -27.8690  -25.3790   20.4283 C   0  0  0  0  0  0  0  0  0  0  0  0
  -21.5343  -19.8588   22.0032 C   0  0  0  0  0  0  0  0  0  0  0  0
  -22.4368  -22.0772   23.4338 C   0  0  0  0  0  0  0  0  0  0  0  0
  -22.6870  -20.5300   21.5952 C   0  0  0  0  0  0  0  0  0  0  0  0
  -24.5120  -14.3602   20.8696 C   0  0  0  0  0  0  0  0  0  0  0  0
  -25.3592  -12.3315   20.8337 C   0  0  0  0  0  0  0  0  0  0  0  0
  -29.1277  -22.2581   22.7599 C   0  0  0  0  0  0  0  0  0  0  0  0
  -29.1380  -22.1703   21.4315 C   0  0  0  0  0  0  0  0  0  0  0  0
  -29.4095  -20.9277   23.3175 C   0  0  0  0  0  0  0  0  0  0  0  0
  -29.4472  -20.7746   21.0647 C   0  0  0  0  0  0  0  0  0  0  0  0
  -22.9175  -12.4037   21.3641 C   0  0  0  0  0  0  0  0  0  0  0  0
  -26.1416  -30.4074   19.3350 C   0  0  0  0  0  0  0  0  0  0  0  0
  -23.5079  -29.7801   21.1218 C   0  0  0  0  0  0  0  0  0  0  0  0
  -21.7929  -27.5716   23.0783 C   0  0  0  0  0  0  0  0  0  0  0  0
  -30.9574  -13.7979   21.4876 C   0  0  0  0  0  0  0  0  0  0  0  0
  -27.5253  -33.7958   15.7767 C   0  0  0  0  0  0  0  0  0  0  0  0
  -25.3796  -28.2129   18.3553 C   0  0  0  0  0  0  0  0  0  0  0  0
  -25.4167  -28.1413   21.3113 C   0  0  0  0  0  0  0  0  0  0  0  0
  -26.5185  -33.7668   16.9238 C   0  0  0  0  0  0  0  0  0  0  0  0
  -29.4905  -12.6535   18.4574 C   0  0  0  0  0  0  0  0  0  0  0  0
  -27.1834  -33.2745   18.2053 C   0  0  0  0  0  0  0  0  0  0  0  0
  -28.0025  -12.8421   18.7505 C   0  0  0  0  0  0  0  0  0  0  0  0
  -30.3340  -13.7990   19.0181 C   0  0  0  0  0  0  0  0  0  0  0  0
  -28.6273  -14.2446   20.7539 C   0  0  0  0  0  0  0  0  0  0  0  0
  -27.7077  -31.8430   18.0400 C   0  0  1  0  0  0  0  0  0  0  0  0
  -25.0072  -29.4323   19.1929 C   0  0  1  0  0  0  0  0  0  0  0  0
  -27.7610  -13.0789   20.2518 C   0  0  1  0  0  0  0  0  0  0  0  0
  -19.6882  -27.3577   24.4281 C   0  0  0  0  0  0  0  0  0  0  0  0
  -24.7521  -31.4827   23.3270 C   0  0  0  0  0  0  0  0  0  0  0  0
  -23.1173  -30.4736   24.9325 C   0  0  0  0  0  0  0  0  0  0  0  0
  -22.2960  -31.8262   23.0041 C   0  0  0  0  0  0  0  0  0  0  0  0
  -31.1495  -14.0486   23.9524 C   0  0  0  0  0  0  0  0  0  0  0  0
  -20.8089  -25.3375   21.4051 C   0  0  0  0  0  0  0  0  0  0  0  0
  -28.9017  -23.2367   20.4250 C   0  0  0  0  0  0  0  0  0  1  0  0
  -23.2461  -29.5209   22.5858 C   0  0  1  0  0  0  0  0  0  0  0  0
  -20.3381  -27.1381   23.0708 C   0  0  2  0  0  0  0  0  0  0  0  0
  -23.3704  -30.8093   23.4472 C   0  0  0  0  0  0  0  0  0  0  0  0
  -25.8017  -14.5415   20.5733 N   0  0  0  0  0  0  0  0  0  0  0  0
  -26.2902  -13.2896   20.5588 N   0  0  0  0  0  0  0  0  0  0  0  0
  -29.5961  -20.0765   22.2474 N   0  0  0  0  0  0  0  0  0  0  0  0
  -24.5766  -29.0779   20.5469 N   0  0  0  0  0  0  0  0  0  0  0  0
  -30.0399  -14.0140   20.4420 N   0  0  0  0  0  0  0  0  0  0  0  0
  -25.6805  -11.0206   20.8600 N   0  0  0  0  0  0  0  0  0  0  0  0
  -21.8075  -13.2399   21.5458 N   0  0  0  0  0  0  0  0  0  0  0  0
  -26.6203  -30.8925   18.1330 N   0  0  0  0  0  0  0  0  0  0  0  0
  -21.9391  -28.8770   22.6590 N   0  0  0  0  0  0  0  0  0  0  0  0
  -30.7829  -14.5932   22.6406 N   0  0  0  0  0  0  0  0  0  0  0  0
  -20.2301  -25.6922   22.7265 N   0  3  0  0  0  0  0  0  0  0  0  0
  -29.4565  -20.6905   24.5137 O   0  0  0  0  0  0  0  0  0  0  0  0
  -29.5387  -20.3697   19.9168 O   0  0  0  0  0  0  0  0  0  0  0  0
  -22.7817  -11.1644   21.5026 O   0  0  0  0  0  0  0  0  0  0  0  0
  -26.5511  -30.6990   20.4525 O   0  0  0  0  0  0  0  0  0  0  0  0
  -22.7861  -30.5709   20.5092 O   0  0  0  0  0  0  0  0  0  0  0  0
  -22.7077  -26.8278   23.4253 O   0  0  0  0  0  0  0  0  0  0  0  0
  -31.8473  -12.9425   21.4079 O   0  0  0  0  0  0  0  0  0  0  0  0
  -21.0845  -18.7579   21.2937 O   0  0  0  0  0  0  0  0  0  0  0  0
  -28.6527  -24.4787   21.0820 O   0  0  0  0  0  0  0  0  0  1  0  0
  -22.8693  -23.1432   24.1199 F   0  0  0  0  0  0  0  0  0  0  0  0
  -23.3644  -20.1145   20.5161 F   0  0  0  0  0  0  0  0  0  0  0  0
  1  2  1  0  0  0  0
  1  5  2  0  0  0  0
  2  6  2  0  0  0  0
  3 12  2  0  0  0  0
  3 19  1  0  0  0  0
  4 13  1  0  0  0  0
  4 19  2  0  0  0  0
  5 21  1  0  0  0  0
  6 23  1  0  0  0  0
  7 14  2  0  0  0  0
  7 22  1  0  0  0  0
  8 10  2  0  0  0  0
  8 25  1  0  0  0  0
  9 11  1  0  0  0  0
  9 25  2  0  0  0  0
 10 26  1  0  0  0  0
 11 26  2  0  0  0  0
 12 27  1  0  0  0  0
 13 27  2  0  0  0  0
 14 28  1  0  0  0  0
 15 16  2  0  0  0  0
 15 29  1  0  0  0  0
 16 30  1  0  0  0  0
 17 24  1  0  0  0  0
 17 28  2  0  0  0  0
 18 30  2  0  0  0  0
 18 31  1  0  0  0  0
 19 32  1  0  0  0  0
 20 32  1  0  0  0  0
 20 33  2  0  0  0  0
 20 38  1  0  0  0  0
 21 23  2  0  0  0  0
 21 43  1  0  0  0  0
 22 24  2  0  0  0  0
 22 44  1  0  0  0  0
 23 52  1  0  0  0  0
 24 45  1  0  0  0  0
 25 67  1  0  0  0  0
 26 74  1  0  0  0  0
 27 83  1  0  0  0  0
 28 84  1  0  0  0  0
 29 31  2  0  0  0  0
 29 83  1  0  0  0  0
 30 85  1  0  0  0  0
 31 86  1  0  0  0  0
 32 65  2  0  0  0  0
 33 66  1  0  0  0  0
 33 70  1  0  0  0  0
 34 35  2  0  0  0  0
 34 36  1  0  0  0  0
 35 37  1  0  0  0  0
 35 61  1  0  0  0  0
 36 67  1  0  0  0  0
 36 76  2  0  0  0  0
 37 67  1  0  0  0  0
 37 77  2  0  0  0  0
 38 71  1  0  0  0  0
 38 78  2  0  0  0  0
 39 53  1  0  0  0  0
 39 72  1  0  0  0  0
 39 79  2  0  0  0  0
 40 62  1  0  0  0  0
 40 68  1  0  0  0  0
 40 80  2  0  0  0  0
 41 63  1  0  0  0  0
 41 73  1  0  0  0  0
 41 81  2  0  0  0  0
 42 69  1  0  0  0  0
 42 74  1  0  0  0  0
 42 82  2  0  0  0  0
 43 46  1  0  0  0  0
 44 53  1  0  0  0  0
 45 68  1  0  0  0  0
 46 48  1  0  0  0  0
 47 49  1  0  0  0  0
 47 50  1  0  0  0  0
 48 52  1  0  0  0  0
 49 54  1  0  0  0  0
 50 69  1  0  0  0  0
 51 54  1  0  0  0  0
 51 69  1  0  0  0  0
 52 72  1  0  0  0  0
 53 68  1  0  0  0  0
 54 66  1  0  0  0  0
 55 63  1  0  0  0  0
 56 64  1  0  0  0  0
 57 64  1  0  0  0  0
 58 64  1  0  0  0  0
 59 74  1  0  0  0  0
 60 75  1  0  0  0  0
 61 84  1  0  0  0  0
 62 64  1  0  0  0  0
 62 73  1  0  0  0  0
 63 75  1  0  0  0  0
 65 66  1  0  0  0  0
M  CHG  1  75   1
M  ISO  4  42 100  61 101  74 100  84 101
M  END
> <Batch ID>
0076

> <Smiles>
CNC(C)C(=O)NC(C(=O)N1Cc2cc([101O:1][101CH2:1]C3=CC(=O)N(c4ccc([100N:0](C)[100C:0](=O)N5CCCC(n6nc(-c7ccc(Oc8ccc(F)cc8F)cc7)c(C(N)=O)c6N)C5)cc4)C3=O)ccc2CC1C(=O)NC1CCCc2ccccc21)C(C)(C)C

> <Shape>
0.258

> <Color>
0.100

> <Negative vol penalty>
0.000

$$$$

  -OEChem-04042323503D

 83 91  0     1  0  0  0  0  0999 V2000
  -28.2036  -33.9910   25.1235 C   0  0  0  0  0  0  0  0  0  0  0  0
  -28.3157  -32.6490   24.7745 C   0  0  0  0  0  0  0  0  0  0  0  0
  -23.9291  -11.9275   23.7189 C   0  0  0  0  0  0  0  0  0  0  0  0
  -23.2166  -14.0765   22.8756 C   0  0  0  0  0  0  0  0  0  0  0  0
  -30.6868  -19.8546   18.6019 C   0  0  0  0  0  0  0  0  0  0  0  0
  -26.9434  -34.5659   25.2821 C   0  0  0  0  0  0  0  0  0  0  0  0
  -27.1675  -31.8808   24.5849 C   0  0  0  0  0  0  0  0  0  0  0  0
  -27.4267  -28.9912   20.4342 C   0  0  0  0  0  0  0  0  0  0  0  0
  -30.5148  -18.4768   18.7348 C   0  0  0  0  0  0  0  0  0  0  0  0
  -23.2230  -12.1567   24.8997 C   0  0  0  0  0  0  0  0  0  0  0  0
  -22.5104  -14.3058   24.0565 C   0  0  0  0  0  0  0  0  0  0  0  0
  -28.1850  -27.8243   20.5171 C   0  0  0  0  0  0  0  0  0  0  0  0
  -21.3127  -12.0206   27.9896 C   0  0  0  0  0  0  0  0  0  0  0  0
  -20.5355  -10.9776   28.4934 C   0  0  0  0  0  0  0  0  0  0  0  0
  -28.3119  -20.1165   18.2440 C   0  0  0  0  0  0  0  0  0  0  0  0
  -26.1663  -26.5422   20.8341 C   0  0  0  0  0  0  0  0  0  0  0  0
  -19.2355  -10.9629   26.4570 C   0  0  0  0  0  0  0  0  0  0  0  0
  -23.9260  -12.8874   22.7068 C   0  0  0  0  0  0  0  0  0  0  0  0
  -29.5853  -20.6745   18.3565 C   0  0  0  0  0  0  0  0  0  0  0  0
  -24.1771  -12.0336   20.3161 C   0  0  0  0  0  0  0  0  0  0  0  0
  -25.7791  -33.8068   25.0850 C   0  0  0  0  0  0  0  0  0  0  0  0
  -26.0310  -28.9437   20.5617 C   0  0  0  0  0  0  0  0  0  0  0  0
  -25.8905  -32.4457   24.7424 C   0  0  0  0  0  0  0  0  0  0  0  0
  -25.3924  -27.7097   20.7499 C   0  0  0  0  0  0  0  0  0  0  0  0
  -29.2414  -17.9188   18.6223 C   0  0  0  0  0  0  0  0  0  0  0  0
  -22.5136  -13.3458   25.0685 C   0  0  0  0  0  0  0  0  0  0  0  0
  -27.5551  -26.5998   20.7200 C   0  0  0  0  0  0  0  0  0  0  0  0
  -21.0513  -12.5348   26.7196 C   0  0  0  0  0  0  0  0  0  0  0  0
  -19.4969  -10.4487   27.7271 C   0  0  0  0  0  0  0  0  0  0  0  0
  -28.1399  -18.7387   18.3769 C   0  0  0  0  0  0  0  0  0  0  0  0
  -20.0127  -12.0059   25.9533 C   0  0  0  0  0  0  0  0  0  0  0  0
  -24.6557  -12.6515   21.4870 C   0  0  0  0  0  0  0  0  0  0  0  0
  -25.2478  -12.0520   19.4560 C   0  0  0  0  0  0  0  0  0  0  0  0
  -28.7537  -23.3604   19.8259 C   0  0  0  0  0  0  0  0  0  0  0  0
  -29.7690  -22.1452   18.2144 C   0  0  0  0  0  0  0  0  0  0  0  0
  -22.8807  -11.4915   20.0314 C   0  0  0  0  0  0  0  0  0  0  0  0
  -23.9219  -30.1672   22.6010 C   0  0  0  0  0  0  0  0  0  0  0  0
  -21.7701  -28.9159   20.5210 C   0  0  0  0  0  0  0  0  0  0  0  0
  -21.0836  -26.6115   18.0992 C   0  0  0  0  0  0  0  0  0  0  0  0
  -30.0590  -15.5664   19.0016 C   0  0  0  0  0  0  0  0  0  0  0  0
  -24.4392  -34.4601   25.3141 C   0  0  0  0  0  0  0  0  0  0  0  0
  -25.2251  -30.2082   20.4432 C   0  0  0  0  0  0  0  0  0  0  0  0
  -23.8951  -27.6022   20.8728 C   0  0  0  0  0  0  0  0  0  0  0  0
  -23.2697  -33.6728   24.7286 C   0  0  0  0  0  0  0  0  0  0  0  0
  -30.0367  -12.0326   19.4369 C   0  0  0  0  0  0  0  0  0  0  0  0
  -23.3878  -32.1950   25.0879 C   0  0  0  0  0  0  0  0  0  0  0  0
  -28.6089  -11.7334   19.8996 C   0  0  0  0  0  0  0  0  0  0  0  0
  -30.5544  -13.3503   20.0109 C   0  0  0  0  0  0  0  0  0  0  0  0
  -28.2584  -14.2126   20.2427 C   0  0  0  0  0  0  0  0  0  0  0  0
  -24.6682  -31.5860   24.5038 C   0  0  1  0  0  0  0  0  0  0  0  0
  -23.8526  -30.1059   21.1013 C   0  0  1  0  0  0  0  0  0  0  0  0
  -27.6699  -12.9273   19.6382 C   0  0  2  0  0  0  0  0  0  0  0  0
  -19.2269  -25.8073   16.6148 C   0  0  0  0  0  0  0  0  0  0  0  0
  -20.4942  -27.4862   22.8954 C   0  0  0  0  0  0  0  0  0  0  0  0
  -19.2991  -26.0028   21.2707 C   0  0  0  0  0  0  0  0  0  0  0  0
  -18.8658  -28.4594   21.2658 C   0  0  0  0  0  0  0  0  0  0  0  0
  -22.5963  -27.2857   15.6465 C   0  0  0  0  0  0  0  0  0  0  0  0
  -27.6740  -24.2521   20.3596 C   0  0  0  0  0  0  0  0  0  1  0  0
  -21.0673  -27.5873   20.3800 C   0  0  1  0  0  0  0  0  0  0  0  0
  -20.4176  -26.7449   16.7416 C   0  0  2  0  0  0  0  0  0  0  0  0
  -19.9600  -27.3858   21.4526 C   0  0  0  0  0  0  0  0  0  0  0  0
  -25.9311  -13.0344   21.3836 N   0  0  0  0  0  0  0  0  0  0  0  0
  -28.7389  -22.9725   18.5919 N   0  0  0  0  0  0  0  0  0  0  0  0
  -26.2631  -12.6560   20.1375 N   0  0  0  0  0  0  0  0  0  0  0  0
  -23.1514  -28.8674   20.7565 N   0  0  0  0  0  0  0  0  0  0  0  0
  -29.6157  -14.4364   19.7209 N   0  0  0  0  0  0  0  0  0  0  0  0
  -25.4104  -11.6102   18.1908 N   0  0  0  0  0  0  0  0  0  0  0  0
  -21.8965  -11.5551   21.0272 N   0  0  0  0  0  0  0  0  0  0  0  0
  -29.0701  -16.5187   18.7573 N   0  0  0  0  0  0  0  0  0  0  0  0
  -24.5030  -31.3213   23.0906 N   0  0  0  0  0  0  0  0  0  0  0  0
  -20.5853  -27.5245   19.0044 N   0  0  0  0  0  0  0  0  0  0  0  0
  -30.8359  -22.6628   17.7161 N   0  3  0  0  0  0  0  0  0  0  0  0
  -21.3864  -26.4238   15.6556 N   0  3  0  0  0  0  0  0  0  0  0  0
  -22.6081  -10.9516   18.9324 O   0  0  0  0  0  0  0  0  0  0  0  0
  -23.4795  -29.2369   23.2648 O   0  0  0  0  0  0  0  0  0  0  0  0
  -21.1187  -29.9585   20.4186 O   0  0  0  0  0  0  0  0  0  0  0  0
  -21.9557  -25.7780   18.3343 O   0  0  0  0  0  0  0  0  0  0  0  0
  -31.2232  -15.6682   18.6061 O   0  0  0  0  0  0  0  0  0  0  0  0
  -21.8243  -13.5697   26.2206 O   0  0  0  0  0  0  0  0  0  0  0  0
  -28.2930  -25.4594   20.8020 O   0  0  0  0  0  0  0  0  0  1  0  0
  -18.7517   -9.4461   28.2103 F   0  0  0  0  0  0  0  0  0  0  0  0
  -26.9111  -18.2135   18.2663 F   0  0  0  0  0  0  0  0  0  0  0  0
  -19.7575  -12.4949   24.7320 F   0  0  0  0  0  0  0  0  0  0  0  0
  1  2  1  0  0  0  0
  1  6  2  0  0  0  0
  2  7  2  0  0  0  0
  3 10  2  0  0  0  0
  3 18  1  0  0  0  0
  4 11  1  0  0  0  0
  4 18  2  0  0  0  0
  5  9  2  0  0  0  0
  5 19  1  0  0  0  0
  6 21  1  0  0  0  0
  7 23  1  0  0  0  0
  8 12  2  0  0  0  0
  8 22  1  0  0  0  0
  9 25  1  0  0  0  0
 10 26  1  0  0  0  0
 11 26  2  0  0  0  0
 12 27  1  0  0  0  0
 13 14  2  0  0  0  0
 13 28  1  0  0  0  0
 14 29  1  0  0  0  0
 15 19  2  0  0  0  0
 15 30  1  0  0  0  0
 16 24  1  0  0  0  0
 16 27  2  0  0  0  0
 17 29  2  0  0  0  0
 17 31  1  0  0  0  0
 18 32  1  0  0  0  0
 19 35  1  0  0  0  0
 20 32  1  0  0  0  0
 20 33  2  0  0  0  0
 20 36  1  0  0  0  0
 21 23  2  0  0  0  0
 21 41  1  0  0  0  0
 22 24  2  0  0  0  0
 22 42  1  0  0  0  0
 23 50  1  0  0  0  0
 24 43  1  0  0  0  0
 25 30  2  0  0  0  0
 25 69  1  0  0  0  0
 26 79  1  0  0  0  0
 27 80  1  0  0  0  0
 28 31  2  0  0  0  0
 28 79  1  0  0  0  0
 29 81  1  0  0  0  0
 30 82  1  0  0  0  0
 31 83  1  0  0  0  0
 32 62  2  0  0  0  0
 33 64  1  0  0  0  0
 33 67  1  0  0  0  0
 34 58  1  0  0  0  0
 34 63  2  0  0  0  0
 35 63  1  0  0  0  0
 35 72  2  0  0  0  0
 36 68  1  0  0  0  0
 36 74  2  0  0  0  0
 37 51  1  0  0  0  0
 37 70  1  0  0  0  0
 37 75  2  0  0  0  0
 38 59  1  0  0  0  0
 38 65  1  0  0  0  0
 38 76  2  0  0  0  0
 39 60  1  0  0  0  0
 39 71  1  0  0  0  0
 39 77  2  0  0  0  0
 40 66  1  0  0  0  0
 40 69  1  0  0  0  0
 40 78  2  0  0  0  0
 41 44  1  0  0  0  0
 42 51  1  0  0  0  0
 43 65  1  0  0  0  0
 44 46  1  0  0  0  0
 45 47  1  0  0  0  0
 45 48  1  0  0  0  0
 46 50  1  0  0  0  0
 47 52  1  0  0  0  0
 48 66  1  0  0  0  0
 49 52  1  0  0  0  0
 49 66  1  0  0  0  0
 50 70  1  0  0  0  0
 51 65  1  0  0  0  0
 52 64  1  0  0  0  0
 53 60  1  0  0  0  0
 54 61  1  0  0  0  0
 55 61  1  0  0  0  0
 56 61  1  0  0  0  0
 57 73  1  0  0  0  0
 58 80  1  0  0  0  0
 59 61  1  0  0  0  0
 59 71  1  0  0  0  0
 60 73  1  0  0  0  0
 62 64  1  0  0  0  0
M  CHG  2  72   1  73   1
M  ISO  4  40 100  58 101  69 100  80 101
M  END
> <Batch ID>
0076

> <Smiles>
CNC(C)C(=O)NC(C(=O)N1Cc2cc([101O:1][101CH:1]=CNC(=N)c3ccc([100NH:0][100C:0](=O)N4CCCC(n5nc(-c6ccc(Oc7ccc(F)cc7F)cc6)c(C(N)=O)c5N)C4)c(F)c3)ccc2CC1C(=O)NC1CCCc2ccccc21)C(C)(C)C

> <Shape>
0.274

> <Color>
0.084

> <Negative vol penalty>
0.000

$$$$

  -OEChem-04042323503D

 89 98  0     1  0  0  0  0  0999 V2000
  -20.9425  -15.0884   19.6685 C   0  0  0  0  0  0  0  0  0  0  0  0
  -21.6214  -16.2789   19.9083 C   0  0  0  0  0  0  0  0  0  0  0  0
  -19.4976  -20.5322   22.5260 C   0  0  0  0  0  0  0  0  0  0  0  0
  -20.3793  -21.5640   24.5247 C   0  0  0  0  0  0  0  0  0  0  0  0
  -21.5507  -13.8690   19.9633 C   0  0  0  0  0  0  0  0  0  0  0  0
  -22.9085  -16.2505   20.4439 C   0  0  0  0  0  0  0  0  0  0  0  0
  -27.5623  -20.1327   19.1531 C   0  0  0  0  0  0  0  0  0  0  0  0
  -25.4756  -28.3399   18.5278 C   0  0  0  0  0  0  0  0  0  0  0  0
  -26.3184  -27.6600   19.4067 C   0  0  0  0  0  0  0  0  0  0  0  0
  -19.2443  -19.3621   23.2417 C   0  0  0  0  0  0  0  0  0  0  0  0
  -20.1259  -20.3939   25.2405 C   0  0  0  0  0  0  0  0  0  0  0  0
  -28.0779  -21.2564   19.7974 C   0  0  0  0  0  0  0  0  0  0  0  0
  -21.0015  -16.7073   24.3769 C   0  0  0  0  0  0  0  0  0  0  0  0
  -21.3638  -15.4964   23.7870 C   0  0  0  0  0  0  0  0  0  0  0  0
  -24.6954  -27.9615   21.1505 C   0  0  0  0  0  0  0  0  0  0  0  0
  -29.7126  -19.8669   20.8997 C   0  0  0  0  0  0  0  0  0  0  0  0
  -19.0618  -14.7676   23.8692 C   0  0  0  0  0  0  0  0  0  0  0  0
  -20.0652  -21.6331   23.1675 C   0  0  0  0  0  0  0  0  0  0  0  0
  -23.8326  -28.6466   20.2693 C   0  0  0  0  0  0  0  0  0  0  0  0
  -21.1652  -22.9874   21.3064 C   0  0  0  0  0  0  0  0  0  0  0  0
  -22.8497  -13.8253   20.4938 C   0  0  0  0  0  0  0  0  0  0  0  0
  -28.1120  -18.8636   19.3853 C   0  0  0  0  0  0  0  0  0  0  0  0
  -23.5341  -15.0293   20.7473 C   0  0  0  0  0  0  0  0  0  0  0  0
  -29.2052  -18.7295   20.2534 C   0  0  0  0  0  0  0  0  0  0  0  0
  -24.2270  -28.8572   18.9368 C   0  0  0  0  0  0  0  0  0  0  0  0
  -25.9289  -27.4748   20.7229 C   0  0  0  0  0  0  0  0  0  0  0  0
  -19.5584  -19.2929   24.5990 C   0  0  0  0  0  0  0  0  0  0  0  0
  -29.1517  -21.1233   20.6726 C   0  0  0  0  0  0  0  0  0  0  0  0
  -19.6693  -16.9484   24.7130 C   0  0  0  0  0  0  0  0  0  0  0  0
  -20.3940  -14.5265   23.5331 C   0  0  0  0  0  0  0  0  0  0  0  0
  -18.6995  -15.9785   24.4591 C   0  0  0  0  0  0  0  0  0  0  0  0
  -20.3276  -22.8419   22.4285 C   0  0  0  0  0  0  0  0  0  0  0  0
  -21.0738  -24.3184   20.9800 C   0  0  0  0  0  0  0  0  0  0  0  0
  -22.5266  -29.0554   20.8404 C   0  0  0  0  0  0  0  0  0  0  0  0
  -22.3836  -30.2941   17.8877 C   0  0  0  0  0  0  0  0  0  0  0  0
  -21.9551  -22.0070   20.6204 C   0  0  0  0  0  0  0  0  0  0  0  0
  -27.0753  -16.0633   20.5383 C   0  0  0  0  0  0  0  0  0  0  0  0
  -30.1273  -15.1386   19.5981 C   0  0  0  0  0  0  0  0  0  0  0  0
  -28.0231  -26.2301   21.3612 C   0  0  0  0  0  0  0  0  0  0  0  0
  -29.2039  -11.8772   19.9858 C   0  0  0  0  0  0  0  0  0  0  0  0
  -21.1364  -29.6170   22.5750 C   0  0  0  0  0  0  0  0  0  0  0  0
  -23.4476  -12.4848   20.8405 C   0  0  0  0  0  0  0  0  0  0  0  0
  -27.5604  -17.6681   18.6566 C   0  0  0  0  0  0  0  0  0  0  0  0
  -29.8328  -17.3906   20.5331 C   0  0  0  0  0  0  0  0  0  0  0  0
  -21.3728  -29.2684   19.9051 C   0  0  0  0  0  0  0  0  0  0  0  0
  -21.6343  -30.5546   19.1618 C   0  0  0  0  0  0  0  0  0  0  0  0
  -24.9581  -12.5290   21.0562 C   0  0  0  0  0  0  0  0  0  0  0  0
  -17.9188  -27.9105   22.6064 C   0  0  0  0  0  0  0  0  0  0  0  0
  -25.3354  -13.7055   21.9509 C   0  0  0  0  0  0  0  0  0  0  0  0
  -18.3386  -26.4443   22.5073 C   0  0  0  0  0  0  0  0  0  0  0  0
  -18.9179  -28.7266   23.4217 C   0  0  0  0  0  0  0  0  0  0  0  0
  -20.7469  -27.1638   22.8178 C   0  0  0  0  0  0  0  0  0  0  0  0
  -24.9411  -15.0389   21.3043 C   0  0  1  0  0  0  0  0  0  0  0  0
  -27.9084  -16.3362   19.3181 C   0  0  1  0  0  0  0  0  0  0  0  0
  -19.7774  -26.3167   21.9766 C   0  0  1  0  0  0  0  0  0  0  0  0
  -30.0014   -9.5387   19.5470 C   0  0  0  0  0  0  0  0  0  0  0  0
  -29.4486  -15.4655   16.6421 C   0  0  0  0  0  0  0  0  0  0  0  0
  -29.3372  -12.9706   16.4644 C   0  0  0  0  0  0  0  0  0  0  0  0
  -31.4795  -14.0797   17.0994 C   0  0  0  0  0  0  0  0  0  0  0  0
  -29.1724  -11.2018   22.8671 C   0  0  0  0  0  0  0  0  0  0  0  0
  -28.5924  -25.5784   22.6138 C   0  0  0  0  0  0  0  0  0  0  0  0
  -29.5015  -24.3955   22.2991 C   0  0  0  0  0  0  0  0  0  0  0  0
  -28.7501  -23.2846   21.5800 C   0  0  0  0  0  0  0  0  0  1  0  0
  -29.5807  -14.0049   18.7670 C   0  0  1  0  0  0  0  0  0  0  0  0
  -29.9471  -10.6801   20.5505 C   0  0  2  0  0  0  0  0  0  0  0  0
  -29.9452  -14.1441   17.2619 C   0  0  0  0  0  0  0  0  0  0  0  0
  -19.7470  -23.9889   22.7907 N   0  0  0  0  0  0  0  0  0  0  0  0
  -22.3805  -29.2362   22.1080 N   0  0  0  0  0  0  0  0  0  0  0  0
  -20.2206  -24.8679   21.8912 N   0  0  0  0  0  0  0  0  0  0  0  0
  -23.5329  -29.5461   17.9101 N   0  0  0  0  0  0  0  0  0  0  0  0
  -29.3148  -16.2714   19.7354 N   0  0  0  0  0  0  0  0  0  0  0  0
  -20.2823  -28.5505   22.9117 N   0  0  0  0  0  0  0  0  0  0  0  0
  -21.6410  -25.0607   20.0054 N   0  0  0  0  0  0  0  0  0  0  0  0
  -21.9339  -20.6858   21.0877 N   0  0  0  0  0  0  0  0  0  0  0  0
  -26.7741  -26.7854   21.6246 N   0  0  0  0  0  0  0  0  0  0  0  0
  -25.8912  -15.4017   20.2746 N   0  0  0  0  0  0  0  0  0  0  0  0
  -30.0621  -12.7752   19.3871 N   0  0  0  0  0  0  0  0  0  0  0  0
  -29.2740  -10.1881   21.7858 N   0  3  0  0  0  0  0  0  0  0  0  0
  -21.9848  -30.8044   16.8347 O   0  0  0  0  0  0  0  0  0  0  0  0
  -22.6717  -22.2974   19.6327 O   0  0  0  0  0  0  0  0  0  0  0  0
  -27.4778  -16.4248   21.6379 O   0  0  0  0  0  0  0  0  0  0  0  0
  -31.2465  -15.0286   20.1063 O   0  0  0  0  0  0  0  0  0  0  0  0
  -28.6297  -26.2324   20.2952 O   0  0  0  0  0  0  0  0  0  0  0  0
  -27.9837  -12.0014   20.0643 O   0  0  0  0  0  0  0  0  0  0  0  0
  -20.7769  -30.7911   22.6927 O   0  0  0  0  0  0  0  0  0  0  0  0
  -19.3111  -18.1514   25.2978 O   0  0  0  0  0  0  0  0  0  0  0  0
  -29.6573  -22.2186   21.3024 O   0  0  0  0  0  0  0  0  0  1  0  0
  -20.7418  -13.3643   22.9653 F   0  0  0  0  0  0  0  0  0  0  0  0
  -17.4179  -16.2049   24.7787 F   0  0  0  0  0  0  0  0  0  0  0  0
  1  2  1  0  0  0  0
  1  5  2  0  0  0  0
  2  6  2  0  0  0  0
  3 10  2  0  0  0  0
  3 18  1  0  0  0  0
  4 11  1  0  0  0  0
  4 18  2  0  0  0  0
  5 21  1  0  0  0  0
  6 23  1  0  0  0  0
  7 12  2  0  0  0  0
  7 22  1  0  0  0  0
  8  9  2  0  0  0  0
  8 25  1  0  0  0  0
  9 26  1  0  0  0  0
 10 27  1  0  0  0  0
 11 27  2  0  0  0  0
 12 28  1  0  0  0  0
 13 14  2  0  0  0  0
 13 29  1  0  0  0  0
 14 30  1  0  0  0  0
 15 19  1  0  0  0  0
 15 26  2  0  0  0  0
 16 24  1  0  0  0  0
 16 28  2  0  0  0  0
 17 30  2  0  0  0  0
 17 31  1  0  0  0  0
 18 32  1  0  0  0  0
 19 25  2  0  0  0  0
 19 34  1  0  0  0  0
 20 32  1  0  0  0  0
 20 33  2  0  0  0  0
 20 36  1  0  0  0  0
 21 23  2  0  0  0  0
 21 42  1  0  0  0  0
 22 24  2  0  0  0  0
 22 43  1  0  0  0  0
 23 53  1  0  0  0  0
 24 44  1  0  0  0  0
 25 70  1  0  0  0  0
 26 75  1  0  0  0  0
 27 86  1  0  0  0  0
 28 87  1  0  0  0  0
 29 31  2  0  0  0  0
 29 86  1  0  0  0  0
 30 88  1  0  0  0  0
 31 89  1  0  0  0  0
 32 67  2  0  0  0  0
 33 69  1  0  0  0  0
 33 73  1  0  0  0  0
 34 45  1  0  0  0  0
 34 68  2  0  0  0  0
 35 46  1  0  0  0  0
 35 70  1  0  0  0  0
 35 79  2  0  0  0  0
 36 74  1  0  0  0  0
 36 80  2  0  0  0  0
 37 54  1  0  0  0  0
 37 76  1  0  0  0  0
 37 81  2  0  0  0  0
 38 64  1  0  0  0  0
 38 71  1  0  0  0  0
 38 82  2  0  0  0  0
 39 61  1  0  0  0  0
 39 75  1  0  0  0  0
 39 83  2  0  0  0  0
 40 65  1  0  0  0  0
 40 77  1  0  0  0  0
 40 84  2  0  0  0  0
 41 68  1  0  0  0  0
 41 72  1  0  0  0  0
 41 85  2  0  0  0  0
 42 47  1  0  0  0  0
 43 54  1  0  0  0  0
 44 71  1  0  0  0  0
 45 46  1  0  0  0  0
 47 49  1  0  0  0  0
 48 50  1  0  0  0  0
 48 51  1  0  0  0  0
 49 53  1  0  0  0  0
 50 55  1  0  0  0  0
 51 72  1  0  0  0  0
 52 55  1  0  0  0  0
 52 72  1  0  0  0  0
 53 76  1  0  0  0  0
 54 71  1  0  0  0  0
 55 69  1  0  0  0  0
 56 65  1  0  0  0  0
 57 66  1  0  0  0  0
 58 66  1  0  0  0  0
 59 66  1  0  0  0  0
 60 78  1  0  0  0  0
 61 62  1  0  0  0  0
 62 63  1  0  0  0  0
 63 87  1  0  0  0  0
 64 66  1  0  0  0  0
 64 77  1  0  0  0  0
 65 78  1  0  0  0  0
 67 69  1  0  0  0  0
M  CHG  1  78   1
M  ISO  4  41 100  63 101  68 100  87 101
M  END
> <Batch ID>
0076

> <Smiles>
CNC(C)C(=O)NC(C(=O)N1Cc2cc([101O:1][101CH2:1]CCC(=O)Nc3ccc4c(c3)C([100NH:0][100C:0](=O)N3CCCC(n5nc(-c6ccc(Oc7ccc(F)cc7F)cc6)c(C(N)=O)c5N)C3)=CCC(=O)N4)ccc2CC1C(=O)NC1CCCc2ccccc21)C(C)(C)C

> <Shape>
0.241

> <Color>
0.070

> <Negative vol penalty>
0.000

$$$$

  -OEChem-04042323503D

 86 95  0     1  0  0  0  0  0999 V2000
  -29.7209  -37.0495   20.7338 C   0  0  0  0  0  0  0  0  0  0  0  0
  -29.7985  -35.7300   20.2999 C   0  0  0  0  0  0  0  0  0  0  0  0
  -24.0962   -9.5814   22.2106 C   0  0  0  0  0  0  0  0  0  0  0  0
  -24.6488  -11.2246   23.8934 C   0  0  0  0  0  0  0  0  0  0  0  0
  -29.0981  -37.3485   21.9448 C   0  0  0  0  0  0  0  0  0  0  0  0
  -29.2541  -34.7085   21.0774 C   0  0  0  0  0  0  0  0  0  0  0  0
  -26.5602  -29.5890   19.0675 C   0  0  0  0  0  0  0  0  0  0  0  0
  -30.4148  -20.1404   18.9480 C   0  0  0  0  0  0  0  0  0  0  0  0
  -30.1892  -18.7667   18.8595 C   0  0  0  0  0  0  0  0  0  0  0  0
  -23.7543   -8.6717   23.2112 C   0  0  0  0  0  0  0  0  0  0  0  0
  -24.3069  -10.3149   24.8939 C   0  0  0  0  0  0  0  0  0  0  0  0
  -27.0251  -28.2840   18.9104 C   0  0  0  0  0  0  0  0  0  0  0  0
  -21.1339   -8.1025   25.2708 C   0  0  0  0  0  0  0  0  0  0  0  0
  -19.9514   -7.3797   25.1132 C   0  0  0  0  0  0  0  0  0  0  0  0
  -26.1075  -27.7043   21.0648 C   0  0  0  0  0  0  0  0  0  0  0  0
  -28.0443  -20.5115   19.2309 C   0  0  0  0  0  0  0  0  0  0  0  0
  -21.2068   -5.3159   25.1588 C   0  0  0  0  0  0  0  0  0  0  0  0
  -24.5435  -10.8578   22.5517 C   0  0  0  0  0  0  0  0  0  0  0  0
  -24.0490  -12.7282   20.8889 C   0  0  0  0  0  0  0  0  0  0  0  0
  -28.5373  -36.3311   22.7329 C   0  0  0  0  0  0  0  0  0  0  0  0
  -25.8739  -29.9649   20.2311 C   0  0  0  0  0  0  0  0  0  0  0  0
  -28.6244  -34.9939   22.3007 C   0  0  0  0  0  0  0  0  0  0  0  0
  -25.6328  -29.0140   21.2330 C   0  0  0  0  0  0  0  0  0  0  0  0
  -29.3424  -21.0128   19.1338 C   0  0  0  0  0  0  0  0  0  0  0  0
  -28.8911  -18.2655   18.9566 C   0  0  0  0  0  0  0  0  0  0  0  0
  -27.8186  -19.1379   19.1423 C   0  0  0  0  0  0  0  0  0  0  0  0
  -23.8596   -9.0384   24.5528 C   0  0  0  0  0  0  0  0  0  0  0  0
  -26.8013  -27.3421   19.9104 C   0  0  0  0  0  0  0  0  0  0  0  0
  -22.3529   -7.4321   25.3723 C   0  0  0  0  0  0  0  0  0  0  0  0
  -19.9878   -5.9864   25.0573 C   0  0  0  0  0  0  0  0  0  0  0  0
  -22.3893   -6.0388   25.3163 C   0  0  0  0  0  0  0  0  0  0  0  0
  -24.8974  -11.7978   21.5186 C   0  0  0  0  0  0  0  0  0  0  0  0
  -24.8590  -13.3778   19.9898 C   0  0  0  0  0  0  0  0  0  0  0  0
  -30.5962  -24.4656   19.2795 C   0  0  0  0  0  0  0  0  0  0  0  0
  -29.1521  -24.6746   19.4481 C   0  0  0  0  0  0  0  0  0  0  0  0
  -30.8197  -22.9850   19.1385 C   0  0  0  0  0  0  0  0  0  0  0  0
  -28.5987  -25.8773   19.6033 C   0  0  0  0  0  0  0  0  0  1  0  0
  -22.6536  -12.9826   21.0981 C   0  0  0  0  0  0  0  0  0  0  0  0
  -26.3944  -32.0595   22.5646 C   0  0  0  0  0  0  0  0  0  0  0  0
  -23.4276  -31.1524   23.5118 C   0  0  0  0  0  0  0  0  0  0  0  0
  -20.9791  -28.7752   23.4878 C   0  0  0  0  0  0  0  0  0  0  0  0
  -29.6569  -15.8815   18.6803 C   0  0  0  0  0  0  0  0  0  0  0  0
  -27.9159  -36.6979   24.0573 C   0  0  0  0  0  0  0  0  0  0  0  0
  -25.3556  -31.3697   20.3735 C   0  0  0  0  0  0  0  0  0  0  0  0
  -24.8835  -29.3617   22.4925 C   0  0  0  0  0  0  0  0  0  0  0  0
  -28.4805  -23.3434   19.4127 C   0  0  0  0  0  0  0  0  0  0  0  0
  -27.0338  -35.5977   24.6418 C   0  0  0  0  0  0  0  0  0  0  0  0
  -29.5619  -12.3305   18.4381 C   0  0  0  0  0  0  0  0  0  0  0  0
  -27.7397  -34.2479   24.5605 C   0  0  0  0  0  0  0  0  0  0  0  0
  -28.2701  -11.9519   19.1661 C   0  0  0  0  0  0  0  0  0  0  0  0
  -30.2651  -13.5102   19.1071 C   0  0  0  0  0  0  0  0  0  0  0  0
  -28.1340  -14.3187   20.0418 C   0  0  0  0  0  0  0  0  0  0  0  0
  -28.0239  -33.8607   23.1042 C   0  0  1  0  0  0  0  0  0  0  0  0
  -25.1179  -31.7746   21.8251 C   0  0  1  0  0  0  0  0  0  0  0  0
  -27.3565  -13.1769   19.3668 C   0  0  2  0  0  0  0  0  0  0  0  0
  -18.6825  -28.3036   24.3826 C   0  0  0  0  0  0  0  0  0  0  0  0
  -24.6215  -30.5593   26.2565 C   0  0  0  0  0  0  0  0  0  0  0  0
  -22.5648  -29.2340   26.7875 C   0  0  0  0  0  0  0  0  0  0  0  0
  -22.3844  -31.6760   26.3111 C   0  0  0  0  0  0  0  0  0  0  0  0
  -19.8335  -28.5744   20.7663 C   0  0  0  0  0  0  0  0  0  0  0  0
  -22.8763  -30.0765   24.4160 C   0  0  1  0  0  0  0  0  0  0  0  0
  -19.4873  -28.8683   23.2224 C   0  0  2  0  0  0  0  0  0  0  0  0
  -23.1276  -30.3801   25.9200 C   0  0  0  0  0  0  0  0  0  0  0  0
  -26.1502  -11.8485   21.0584 N   0  0  0  0  0  0  0  0  0  0  0  0
  -26.0951  -12.8186   20.1299 N   0  0  0  0  0  0  0  0  0  0  0  0
  -29.5678  -22.3827   19.2223 N   0  0  0  0  0  0  0  0  0  0  0  0
  -24.4022  -30.7498   22.5878 N   0  0  0  0  0  0  0  0  0  0  0  0
  -29.3398  -14.6350   19.2602 N   0  0  0  0  0  0  0  0  0  0  0  0
  -26.4958  -18.6516   19.2436 N   0  0  0  0  0  0  0  0  0  0  0  0
  -24.6274  -14.3671   19.1009 N   0  0  0  0  0  0  0  0  0  0  0  0
  -21.9732  -12.2245   22.0608 N   0  0  0  0  0  0  0  0  0  0  0  0
  -28.6870  -16.8664   18.8639 N   0  0  0  0  0  0  0  0  0  0  0  0
  -26.8204  -33.3705   22.4674 N   0  0  0  0  0  0  0  0  0  0  0  0
  -21.4684  -29.9287   24.0633 N   0  0  0  0  0  0  0  0  0  0  0  0
  -19.1320  -28.1090   21.9903 N   0  3  0  0  0  0  0  0  0  0  0  0
  -31.4921  -25.2783   19.2516 O   0  0  0  0  0  0  0  0  0  0  0  0
  -31.9295  -22.5175   18.9838 O   0  0  0  0  0  0  0  0  0  0  0  0
  -22.0248  -13.8450   20.4390 O   0  0  0  0  0  0  0  0  0  0  0  0
  -26.9509  -31.1572   23.1792 O   0  0  0  0  0  0  0  0  0  0  0  0
  -23.0037  -32.3061   23.6166 O   0  0  0  0  0  0  0  0  0  0  0  0
  -21.6431  -27.7775   23.2154 O   0  0  0  0  0  0  0  0  0  0  0  0
  -30.6989  -16.0543   18.0427 O   0  0  0  0  0  0  0  0  0  0  0  0
  -23.5259   -8.1511   25.5294 O   0  0  0  0  0  0  0  0  0  0  0  0
  -27.2545  -26.0678   19.7599 O   0  0  0  0  0  0  0  0  0  1  0  0
  -18.8520   -5.2924   24.9075 F   0  0  0  0  0  0  0  0  0  0  0  0
  -23.5572   -5.3891   25.4144 F   0  0  0  0  0  0  0  0  0  0  0  0
  1  2  1  0  0  0  0
  1  5  2  0  0  0  0
  2  6  2  0  0  0  0
  3 10  2  0  0  0  0
  3 18  1  0  0  0  0
  4 11  1  0  0  0  0
  4 18  2  0  0  0  0
  5 20  1  0  0  0  0
  6 22  1  0  0  0  0
  7 12  2  0  0  0  0
  7 21  1  0  0  0  0
  8  9  2  0  0  0  0
  8 24  1  0  0  0  0
  9 25  1  0  0  0  0
 10 27  1  0  0  0  0
 11 27  2  0  0  0  0
 12 28  1  0  0  0  0
 13 14  2  0  0  0  0
 13 29  1  0  0  0  0
 14 30  1  0  0  0  0
 15 23  1  0  0  0  0
 15 28  2  0  0  0  0
 16 24  2  0  0  0  0
 16 26  1  0  0  0  0
 17 30  2  0  0  0  0
 17 31  1  0  0  0  0
 18 32  1  0  0  0  0
 19 32  1  0  0  0  0
 19 33  2  0  0  0  0
 19 38  1  0  0  0  0
 20 22  2  0  0  0  0
 20 43  1  0  0  0  0
 21 23  2  0  0  0  0
 21 44  1  0  0  0  0
 22 53  1  0  0  0  0
 23 45  1  0  0  0  0
 24 66  1  0  0  0  0
 25 26  2  0  0  0  0
 25 72  1  0  0  0  0
 26 69  1  0  0  0  0
 27 83  1  0  0  0  0
 28 84  1  0  0  0  0
 29 31  2  0  0  0  0
 29 83  1  0  0  0  0
 30 85  1  0  0  0  0
 31 86  1  0  0  0  0
 32 64  2  0  0  0  0
 33 65  1  0  0  0  0
 33 70  1  0  0  0  0
 34 35  1  0  0  0  0
 34 36  1  0  0  0  0
 34 76  2  0  0  0  0
 35 37  2  0  0  0  0
 35 46  1  0  0  0  0
 36 66  1  0  0  0  0
 36 77  2  0  0  0  0
 37 84  1  0  0  0  0
 38 71  1  0  0  0  0
 38 78  2  0  0  0  0
 39 54  1  0  0  0  0
 39 73  1  0  0  0  0
 39 79  2  0  0  0  0
 40 61  1  0  0  0  0
 40 67  1  0  0  0  0
 40 80  2  0  0  0  0
 41 62  1  0  0  0  0
 41 74  1  0  0  0  0
 41 81  2  0  0  0  0
 42 68  1  0  0  0  0
 42 72  1  0  0  0  0
 42 82  2  0  0  0  0
 43 47  1  0  0  0  0
 44 54  1  0  0  0  0
 45 67  1  0  0  0  0
 46 66  1  0  0  0  0
 47 49  1  0  0  0  0
 48 50  1  0  0  0  0
 48 51  1  0  0  0  0
 49 53  1  0  0  0  0
 50 55  1  0  0  0  0
 51 68  1  0  0  0  0
 52 55  1  0  0  0  0
 52 68  1  0  0  0  0
 53 73  1  0  0  0  0
 54 67  1  0  0  0  0
 55 65  1  0  0  0  0
 56 62  1  0  0  0  0
 57 63  1  0  0  0  0
 58 63  1  0  0  0  0
 59 63  1  0  0  0  0
 60 75  1  0  0  0  0
 61 63  1  0  0  0  0
 61 74  1  0  0  0  0
 62 75  1  0  0  0  0
 64 65  1  0  0  0  0
M  CHG  1  75   1
M  ISO  4  37 101  42 100  72 100  84 101
M  END
> <Batch ID>
0076

> <Smiles>
CNC(C)C(=O)NC(C(=O)N1Cc2cc([101O:1][101CH:1]=C3CN(c4ccc([100NH:0][100C:0](=O)N5CCCC(n6nc(-c7ccc(Oc8ccc(F)cc8F)cc7)c(C(N)=O)c6N)C5)c(N)c4)C(=O)C3=O)ccc2CC1C(=O)NC1CCCc2ccccc21)C(C)(C)C

> <Shape>
0.322

> <Color>
0.125

> <Negative vol penalty>
0.000

$$$$

  -OEChem-04042323503D

 87 96  0     1  0  0  0  0  0999 V2000
  -28.6469  -36.7828   23.6191 C   0  0  0  0  0  0  0  0  0  0  0  0
  -28.9915  -35.5778   23.0153 C   0  0  0  0  0  0  0  0  0  0  0  0
  -24.9952   -8.6950   21.3436 C   0  0  0  0  0  0  0  0  0  0  0  0
  -23.5483   -9.9114   19.8390 C   0  0  0  0  0  0  0  0  0  0  0  0
  -27.5996  -36.8260   24.5385 C   0  0  0  0  0  0  0  0  0  0  0  0
  -28.2897  -34.4150   23.3314 C   0  0  0  0  0  0  0  0  0  0  0  0
  -26.9731  -29.7702   19.5634 C   0  0  0  0  0  0  0  0  0  0  0  0
  -28.5705  -19.9311   16.0239 C   0  0  0  0  0  0  0  0  0  0  0  0
  -23.9755   -7.7729   21.5788 C   0  0  0  0  0  0  0  0  0  0  0  0
  -22.5285   -8.9893   20.0741 C   0  0  0  0  0  0  0  0  0  0  0  0
  -27.5736  -28.5286   19.3596 C   0  0  0  0  0  0  0  0  0  0  0  0
  -21.1548   -7.5980   23.4328 C   0  0  0  0  0  0  0  0  0  0  0  0
  -28.7303  -18.5800   15.7163 C   0  0  0  0  0  0  0  0  0  0  0  0
  -20.9186   -7.2170   24.7537 C   0  0  0  0  0  0  0  0  0  0  0  0
  -25.9826  -27.5188   20.8658 C   0  0  0  0  0  0  0  0  0  0  0  0
  -28.1977  -19.3592   18.3415 C   0  0  0  0  0  0  0  0  0  0  0  0
  -21.3967   -4.9202   24.1765 C   0  0  0  0  0  0  0  0  0  0  0  0
  -24.7816   -9.7644   20.4737 C   0  0  0  0  0  0  0  0  0  0  0  0
  -26.8228  -10.6560   19.2302 C   0  0  0  0  0  0  0  0  0  0  0  0
  -26.8784  -35.6651   24.8588 C   0  0  0  0  0  0  0  0  0  0  0  0
  -25.8779  -29.8976   20.4297 C   0  0  0  0  0  0  0  0  0  0  0  0
  -27.2327  -34.4425   24.2570 C   0  0  0  0  0  0  0  0  0  0  0  0
  -25.3684  -28.7628   21.0768 C   0  0  0  0  0  0  0  0  0  0  0  0
  -28.3042  -20.3207   17.3366 C   0  0  0  0  0  0  0  0  0  0  0  0
  -28.3575  -18.0081   18.0338 C   0  0  0  0  0  0  0  0  0  0  0  0
  -22.7421   -7.9200   20.9440 C   0  0  0  0  0  0  0  0  0  0  0  0
  -27.0801  -27.4031   20.0131 C   0  0  0  0  0  0  0  0  0  0  0  0
  -21.5119   -6.6402   22.4838 C   0  0  0  0  0  0  0  0  0  0  0  0
  -21.0395   -5.8781   25.1255 C   0  0  0  0  0  0  0  0  0  0  0  0
  -28.6238  -17.6186   16.7212 C   0  0  0  0  0  0  0  0  0  0  0  0
  -21.6329   -5.3012   22.8557 C   0  0  0  0  0  0  0  0  0  0  0  0
  -25.8344  -10.7176   20.2308 C   0  0  0  0  0  0  0  0  0  0  0  0
  -27.5755  -11.7889   19.4209 C   0  0  0  0  0  0  0  0  0  0  0  0
  -27.6192  -24.0539   17.1173 C   0  0  0  0  0  0  0  0  0  0  0  0
  -28.2428  -24.4939   18.2202 C   0  0  0  0  0  0  0  0  0  0  0  0
  -28.8653  -23.5439   19.1286 C   0  0  0  0  0  0  0  0  0  0  0  0
  -27.6266  -22.6208   16.7095 C   0  0  0  0  0  0  0  0  0  0  0  0
  -29.8322  -23.8605   20.0054 C   0  0  0  0  0  0  0  0  0  0  0  0
  -27.0409   -9.6635   18.2188 C   0  0  0  0  0  0  0  0  0  0  0  0
  -25.3230  -31.4889   23.1249 C   0  0  0  0  0  0  0  0  0  0  0  0
  -22.3054  -30.3760   22.7027 C   0  0  0  0  0  0  0  0  0  0  0  0
  -20.2510  -28.0234   21.3275 C   0  0  0  0  0  0  0  0  0  0  0  0
  -27.9892  -17.2530   20.4088 C   0  0  0  0  0  0  0  0  0  0  0  0
  -25.7850  -35.7522   25.8940 C   0  0  0  0  0  0  0  0  0  0  0  0
  -25.2247  -31.2394   20.6181 C   0  0  0  0  0  0  0  0  0  0  0  0
  -24.1821  -28.8426   22.0013 C   0  0  0  0  0  0  0  0  0  0  0  0
  -28.3172  -22.1432   19.0517 C   0  0  0  0  0  0  0  0  0  0  0  0
  -24.8480  -34.5470   25.8932 C   0  0  0  0  0  0  0  0  0  0  0  0
  -27.6086  -15.1187   23.2332 C   0  0  0  0  0  0  0  0  0  0  0  0
  -25.6477  -33.2491   25.8411 C   0  0  0  0  0  0  0  0  0  0  0  0
  -27.1944  -13.7783   22.6215 C   0  0  0  0  0  0  0  0  0  0  0  0
  -26.9991  -16.2989   22.4787 C   0  0  0  0  0  0  0  0  0  0  0  0
  -26.8245  -14.9597   20.4182 C   0  0  0  0  0  0  0  0  0  0  0  0
  -26.4791  -33.1646   24.5553 C   0  0  1  0  0  0  0  0  0  0  0  0
  -24.4367  -31.3428   21.9203 C   0  0  1  0  0  0  0  0  0  0  0  0
  -27.4662  -13.7430   21.1048 C   0  0  2  0  0  0  0  0  0  0  0  0
  -17.8360  -27.3555   21.1892 C   0  0  0  0  0  0  0  0  0  0  0  0
  -22.4543  -29.2597   25.5385 C   0  0  0  0  0  0  0  0  0  0  0  0
  -20.4685  -27.8311   25.0057 C   0  0  0  0  0  0  0  0  0  0  0  0
  -20.2663  -30.3167   24.9470 C   0  0  0  0  0  0  0  0  0  0  0  0
  -20.2066  -28.3579   18.3872 C   0  0  0  0  0  0  0  0  0  0  0  0
  -28.2750  -25.9613   18.5471 C   0  0  0  0  0  0  0  0  0  1  0  0
  -21.5554  -29.1346   23.1214 C   0  0  1  0  0  0  0  0  0  0  0  0
  -18.9588  -28.1503   20.5409 C   0  0  2  0  0  0  0  0  0  0  0  0
  -21.2097  -29.1340   24.6373 C   0  0  0  0  0  0  0  0  0  0  0  0
  -25.9466  -11.8036   21.0002 N   0  0  0  0  0  0  0  0  0  0  0  0
  -27.0144  -12.4349   20.4830 N   0  0  0  0  0  0  0  0  0  0  0  0
  -28.1388  -21.7187   17.6547 N   0  0  0  0  0  0  0  0  0  0  0  0
  -23.5820  -30.1779   22.1578 N   0  0  0  0  0  0  0  0  0  0  0  0
  -27.3011  -16.2006   21.0490 N   0  0  0  0  0  0  0  0  0  0  0  0
  -28.6561  -12.2855   18.7821 N   0  0  0  0  0  0  0  0  0  0  0  0
  -26.1741   -8.5634   18.1642 N   0  0  0  0  0  0  0  0  0  0  0  0
  -28.2491  -17.0333   19.0565 N   0  0  0  0  0  0  0  0  0  0  0  0
  -25.6404  -32.7977   23.4345 N   0  0  0  0  0  0  0  0  0  0  0  0
  -20.3937  -29.0440   22.2436 N   0  0  0  0  0  0  0  0  0  0  0  0
  -19.1474  -27.6488   19.1503 N   0  3  0  0  0  0  0  0  0  0  0  0
  -27.1742  -22.3463   15.5986 O   0  0  0  0  0  0  0  0  0  0  0  0
  -27.9866   -9.7412   17.3983 O   0  0  0  0  0  0  0  0  0  0  0  0
  -25.6903  -30.4883   23.7296 O   0  0  0  0  0  0  0  0  0  0  0  0
  -21.7751  -31.4804   22.8470 O   0  0  0  0  0  0  0  0  0  0  0  0
  -21.0518  -27.1082   21.1497 O   0  0  0  0  0  0  0  0  0  0  0  0
  -28.3473  -18.2619   21.0218 O   0  0  0  0  0  0  0  0  0  0  0  0
  -21.7469   -7.0202   21.1731 O   0  0  0  0  0  0  0  0  0  0  0  0
  -27.6647  -26.1901   19.8166 O   0  0  0  0  0  0  0  0  0  1  0  0
  -20.8142   -5.5125   26.3943 F   0  0  0  0  0  0  0  0  0  0  0  0
  -28.7789  -16.3231   16.4135 F   0  0  0  0  0  0  0  0  0  0  0  0
  -21.9769   -4.3767   21.9487 F   0  0  0  0  0  0  0  0  0  0  0  0
  1  2  1  0  0  0  0
  1  5  2  0  0  0  0
  2  6  2  0  0  0  0
  3  9  2  0  0  0  0
  3 18  1  0  0  0  0
  4 10  1  0  0  0  0
  4 18  2  0  0  0  0
  5 20  1  0  0  0  0
  6 22  1  0  0  0  0
  7 11  2  0  0  0  0
  7 21  1  0  0  0  0
  8 13  2  0  0  0  0
  8 24  1  0  0  0  0
  9 26  1  0  0  0  0
 10 26  2  0  0  0  0
 11 27  1  0  0  0  0
 12 14  2  0  0  0  0
 12 28  1  0  0  0  0
 13 30  1  0  0  0  0
 14 29  1  0  0  0  0
 15 23  1  0  0  0  0
 15 27  2  0  0  0  0
 16 24  2  0  0  0  0
 16 25  1  0  0  0  0
 17 29  2  0  0  0  0
 17 31  1  0  0  0  0
 18 32  1  0  0  0  0
 19 32  1  0  0  0  0
 19 33  2  0  0  0  0
 19 39  1  0  0  0  0
 20 22  2  0  0  0  0
 20 44  1  0  0  0  0
 21 23  2  0  0  0  0
 21 45  1  0  0  0  0
 22 54  1  0  0  0  0
 23 46  1  0  0  0  0
 24 68  1  0  0  0  0
 25 30  2  0  0  0  0
 25 73  1  0  0  0  0
 26 83  1  0  0  0  0
 27 84  1  0  0  0  0
 28 31  2  0  0  0  0
 28 83  1  0  0  0  0
 29 85  1  0  0  0  0
 30 86  1  0  0  0  0
 31 87  1  0  0  0  0
 32 66  2  0  0  0  0
 33 67  1  0  0  0  0
 33 71  1  0  0  0  0
 34 35  2  0  0  0  0
 34 37  1  0  0  0  0
 35 36  1  0  0  0  0
 35 62  1  0  0  0  0
 36 38  2  0  0  0  0
 36 47  1  0  0  0  0
 37 68  1  0  0  0  0
 37 77  2  0  0  0  0
 39 72  1  0  0  0  0
 39 78  2  0  0  0  0
 40 55  1  0  0  0  0
 40 74  1  0  0  0  0
 40 79  2  0  0  0  0
 41 63  1  0  0  0  0
 41 69  1  0  0  0  0
 41 80  2  0  0  0  0
 42 64  1  0  0  0  0
 42 75  1  0  0  0  0
 42 81  2  0  0  0  0
 43 70  1  0  0  0  0
 43 73  1  0  0  0  0
 43 82  2  0  0  0  0
 44 48  1  0  0  0  0
 45 55  1  0  0  0  0
 46 69  1  0  0  0  0
 47 68  1  0  0  0  0
 48 50  1  0  0  0  0
 49 51  1  0  0  0  0
 49 52  1  0  0  0  0
 50 54  1  0  0  0  0
 51 56  1  0  0  0  0
 52 70  1  0  0  0  0
 53 56  1  0  0  0  0
 53 70  1  0  0  0  0
 54 74  1  0  0  0  0
 55 69  1  0  0  0  0
 56 67  1  0  0  0  0
 57 64  1  0  0  0  0
 58 65  1  0  0  0  0
 59 65  1  0  0  0  0
 60 65  1  0  0  0  0
 61 76  1  0  0  0  0
 62 84  1  0  0  0  0
 63 65  1  0  0  0  0
 63 75  1  0  0  0  0
 64 76  1  0  0  0  0
 66 67  1  0  0  0  0
M  CHG  1  76   1
M  ISO  4  43 100  62 101  73 100  84 101
M  END
> <Batch ID>
0076

> <Smiles>
C=C1CN(c2ccc(F)c([100NH:0][100C:0](=O)N3CCCC(n4nc(-c5ccc(Oc6ccc(F)cc6F)cc5)c(C(N)=O)c4N)C3)c2)C(=O)C=C1[101CH2:1][101O:1]c1ccc2c(c1)CN(C(=O)C(NC(=O)C(C)NC)C(C)(C)C)C(C(=O)NC1CCCc3ccccc31)C2

> <Shape>
0.323

> <Color>
0.098

> <Negative vol penalty>
0.000

$$$$

  -OEChem-04042323503D

 84 92  0     1  0  0  0  0  0999 V2000
  -27.5512  -23.8866   16.9616 C   0  0  0  0  0  0  0  0  0  0  0  0
  -26.3956  -24.1742   17.6808 C   0  0  0  0  0  0  0  0  0  0  0  0
  -27.0824  -13.6574   19.8900 C   0  0  0  0  0  0  0  0  0  0  0  0
  -24.7979  -14.2930   20.3526 C   0  0  0  0  0  0  0  0  0  0  0  0
  -28.7846  -24.3588   17.4084 C   0  0  0  0  0  0  0  0  0  0  0  0
  -26.4729  -24.9333   18.8479 C   0  0  0  0  0  0  0  0  0  0  0  0
  -22.8765  -28.4902   19.0935 C   0  0  0  0  0  0  0  0  0  0  0  0
  -20.5671  -20.9596   19.6119 C   0  0  0  0  0  0  0  0  0  0  0  0
  -19.2355  -21.2883   19.8654 C   0  0  0  0  0  0  0  0  0  0  0  0
  -26.8750  -12.4399   20.5380 C   0  0  0  0  0  0  0  0  0  0  0  0
  -24.5904  -13.0754   21.0006 C   0  0  0  0  0  0  0  0  0  0  0  0
  -21.5955  -28.0764   19.4561 C   0  0  0  0  0  0  0  0  0  0  0  0
  -23.9928   -9.8642   20.1335 C   0  0  0  0  0  0  0  0  0  0  0  0
  -22.8178   -9.1702   19.8450 C   0  0  0  0  0  0  0  0  0  0  0  0
  -21.2854  -22.7137   21.1098 C   0  0  0  0  0  0  0  0  0  0  0  0
  -21.9910  -28.8453   21.7081 C   0  0  0  0  0  0  0  0  0  0  0  0
  -22.1758   -9.2900   22.1710 C   0  0  0  0  0  0  0  0  0  0  0  0
  -26.0439  -14.5841   19.7973 C   0  0  0  0  0  0  0  0  0  0  0  0
  -19.9538  -23.0426   21.3633 C   0  0  0  0  0  0  0  0  0  0  0  0
  -26.6336  -16.0383   17.7860 C   0  0  0  0  0  0  0  0  0  0  0  0
  -28.8758  -25.1323   18.5764 C   0  0  0  0  0  0  0  0  0  0  0  0
  -23.7298  -29.0757   20.0398 C   0  0  0  0  0  0  0  0  0  0  0  0
  -27.7088  -25.4153   19.3115 C   0  0  0  0  0  0  0  0  0  0  0  0
  -23.2815  -29.2680   21.3544 C   0  0  0  0  0  0  0  0  0  0  0  0
  -21.5921  -21.6722   20.2341 C   0  0  0  0  0  0  0  0  0  0  0  0
  -18.9288  -22.3298   20.7411 C   0  0  0  0  0  0  0  0  0  0  0  0
  -25.6289  -12.1488   21.0933 C   0  0  0  0  0  0  0  0  0  0  0  0
  -21.1536  -28.2513   20.7642 C   0  0  0  0  0  0  0  0  0  0  0  0
  -24.2594  -10.2711   21.4409 C   0  0  0  0  0  0  0  0  0  0  0  0
  -21.9093   -8.8831   20.8637 C   0  0  0  0  0  0  0  0  0  0  0  0
  -23.3509   -9.9840   22.4596 C   0  0  0  0  0  0  0  0  0  0  0  0
  -26.2578  -15.8422   19.1284 C   0  0  0  0  0  0  0  0  0  0  0  0
  -26.7038  -17.4027   17.6448 C   0  0  0  0  0  0  0  0  0  0  0  0
  -19.6606  -24.1563   22.3018 C   0  0  0  0  0  0  0  0  0  0  0  0
  -26.8957  -15.0733   16.7585 C   0  0  0  0  0  0  0  0  0  0  0  0
  -26.5564  -28.3205   21.2823 C   0  0  0  0  0  0  0  0  0  0  0  0
  -26.2813  -31.2326   22.6847 C   0  0  0  0  0  0  0  0  0  0  0  0
  -24.2418  -33.7436   23.7720 C   0  0  0  0  0  0  0  0  0  0  0  0
  -24.0814  -21.9434   20.5101 C   0  0  0  0  0  0  0  0  0  0  0  0
  -30.2372  -25.5808   19.0456 C   0  0  0  0  0  0  0  0  0  0  0  0
  -25.0991  -29.5410   19.6262 C   0  0  0  0  0  0  0  0  0  0  0  0
  -24.1514  -29.9099   22.4030 C   0  0  0  0  0  0  0  0  0  0  0  0
  -30.1857  -26.6943   20.0886 C   0  0  0  0  0  0  0  0  0  0  0  0
  -27.5800  -21.3868   20.1535 C   0  0  0  0  0  0  0  0  0  0  0  0
  -29.1564  -26.3690   21.1663 C   0  0  0  0  0  0  0  0  0  0  0  0
  -27.6718  -19.9214   19.7221 C   0  0  0  0  0  0  0  0  0  0  0  0
  -26.4559  -21.6114   21.1633 C   0  0  0  0  0  0  0  0  0  0  0  0
  -25.2300  -19.6504   20.3143 C   0  0  0  0  0  0  0  0  0  0  0  0
  -27.7487  -26.2565   20.5688 C   0  0  1  0  0  0  0  0  0  0  0  0
  -26.0698  -29.6569   20.7974 C   0  0  1  0  0  0  0  0  0  0  0  0
  -26.3061  -19.3867   19.2484 C   0  0  2  0  0  0  0  0  0  0  0  0
  -24.3047  -35.9789   24.9108 C   0  0  0  0  0  0  0  0  0  0  0  0
  -17.2773  -26.9610   22.0749 C   0  0  0  0  0  0  0  0  0  0  0  0
  -26.7831  -29.8530   25.3596 C   0  0  0  0  0  0  0  0  0  0  0  0
  -25.9060  -31.9012   26.5014 C   0  0  0  0  0  0  0  0  0  0  0  0
  -27.9519  -32.0464   25.0816 C   0  0  0  0  0  0  0  0  0  0  0  0
  -23.0222  -35.0962   21.4392 C   0  0  0  0  0  0  0  0  0  0  0  0
  -19.7170  -27.4312   22.4729 C   0  0  0  0  0  0  0  0  0  1  0  0
  -25.6969  -31.7450   23.9789 C   0  0  1  0  0  0  0  0  0  0  0  0
  -24.3045  -35.2478   23.5773 C   0  0  2  0  0  0  0  0  0  0  0  0
  -18.6046  -26.3873   22.5532 C   0  0  2  0  0  0  0  0  0  0  0  0
  -26.5685  -31.3725   25.2113 C   0  0  0  0  0  0  0  0  0  0  0  0
  -26.1004  -16.9903   19.7927 N   0  0  0  0  0  0  0  0  0  0  0  0
  -26.3788  -17.9208   18.8639 N   0  0  0  0  0  0  0  0  0  0  0  0
  -25.4842  -30.3424   21.9512 N   0  0  0  0  0  0  0  0  0  0  0  0
  -25.1920  -21.0836   20.6447 N   0  0  0  0  0  0  0  0  0  0  0  0
  -17.5737  -22.6473   20.9835 N   0  0  0  0  0  0  0  0  0  0  0  0
  -27.0114  -18.1978   16.5981 N   0  0  0  0  0  0  0  0  0  0  0  0
  -25.8307  -14.6508   15.9513 N   0  0  0  0  0  0  0  0  0  0  0  0
  -22.9446  -21.3376   19.9761 N   0  0  0  0  0  0  0  0  0  0  0  0
  -18.9458  -25.2193   21.7733 N   0  0  0  0  0  0  0  0  0  0  0  0
  -27.2004  -27.5718   20.3159 N   0  0  0  0  0  0  0  0  0  0  0  0
  -25.4996  -33.1792   23.7981 N   0  0  0  0  0  0  0  0  0  0  0  0
  -23.1330  -35.7168   22.7844 N   0  3  0  0  0  0  0  0  0  0  0  0
  -20.0713  -24.0909   23.4575 O   0  0  0  0  0  0  0  0  0  0  0  0
  -28.0372  -14.5875   16.5726 O   0  0  0  0  0  0  0  0  0  0  0  0
  -26.3633  -27.9937   22.4474 O   0  0  0  0  0  0  0  0  0  0  0  0
  -27.4008  -31.6138   22.3339 O   0  0  0  0  0  0  0  0  0  0  0  0
  -23.1832  -33.1311   23.8928 O   0  0  0  0  0  0  0  0  0  0  0  0
  -24.1431  -23.1364   20.8185 O   0  0  0  0  0  0  0  0  0  0  0  0
  -25.4260  -10.9607   21.7256 O   0  0  0  0  0  0  0  0  0  0  0  0
  -19.9039  -27.8477   21.1209 O   0  0  0  0  0  0  0  0  0  1  0  0
  -20.7802   -8.2180   20.5862 F   0  0  0  0  0  0  0  0  0  0  0  0
  -23.6010  -10.3733   23.7173 F   0  0  0  0  0  0  0  0  0  0  0  0
  1  2  1  0  0  0  0
  1  5  2  0  0  0  0
  2  6  2  0  0  0  0
  3 10  2  0  0  0  0
  3 18  1  0  0  0  0
  4 11  1  0  0  0  0
  4 18  2  0  0  0  0
  5 21  1  0  0  0  0
  6 23  1  0  0  0  0
  7 12  2  0  0  0  0
  7 22  1  0  0  0  0
  8  9  2  0  0  0  0
  8 25  1  0  0  0  0
  9 26  1  0  0  0  0
 10 27  1  0  0  0  0
 11 27  2  0  0  0  0
 12 28  1  0  0  0  0
 13 14  2  0  0  0  0
 13 29  1  0  0  0  0
 14 30  1  0  0  0  0
 15 19  1  0  0  0  0
 15 25  2  0  0  0  0
 16 24  1  0  0  0  0
 16 28  2  0  0  0  0
 17 30  2  0  0  0  0
 17 31  1  0  0  0  0
 18 32  1  0  0  0  0
 19 26  2  0  0  0  0
 19 34  1  0  0  0  0
 20 32  1  0  0  0  0
 20 33  2  0  0  0  0
 20 35  1  0  0  0  0
 21 23  2  0  0  0  0
 21 40  1  0  0  0  0
 22 24  2  0  0  0  0
 22 41  1  0  0  0  0
 23 49  1  0  0  0  0
 24 42  1  0  0  0  0
 25 70  1  0  0  0  0
 26 67  1  0  0  0  0
 27 81  1  0  0  0  0
 28 82  1  0  0  0  0
 29 31  2  0  0  0  0
 29 81  1  0  0  0  0
 30 83  1  0  0  0  0
 31 84  1  0  0  0  0
 32 63  2  0  0  0  0
 33 64  1  0  0  0  0
 33 68  1  0  0  0  0
 34 71  1  0  0  0  0
 34 75  2  0  0  0  0
 35 69  1  0  0  0  0
 35 76  2  0  0  0  0
 36 50  1  0  0  0  0
 36 72  1  0  0  0  0
 36 77  2  0  0  0  0
 37 59  1  0  0  0  0
 37 65  1  0  0  0  0
 37 78  2  0  0  0  0
 38 60  1  0  0  0  0
 38 73  1  0  0  0  0
 38 79  2  0  0  0  0
 39 66  1  0  0  0  0
 39 70  1  0  0  0  0
 39 80  2  0  0  0  0
 40 43  1  0  0  0  0
 41 50  1  0  0  0  0
 42 65  1  0  0  0  0
 43 45  1  0  0  0  0
 44 46  1  0  0  0  0
 44 47  1  0  0  0  0
 45 49  1  0  0  0  0
 46 51  1  0  0  0  0
 47 66  1  0  0  0  0
 48 51  1  0  0  0  0
 48 66  1  0  0  0  0
 49 72  1  0  0  0  0
 50 65  1  0  0  0  0
 51 64  1  0  0  0  0
 52 60  1  0  0  0  0
 53 61  1  0  0  0  0
 54 62  1  0  0  0  0
 55 62  1  0  0  0  0
 56 62  1  0  0  0  0
 57 74  1  0  0  0  0
 58 61  1  0  0  0  0
 58 82  1  0  0  0  0
 59 62  1  0  0  0  0
 59 73  1  0  0  0  0
 60 74  1  0  0  0  0
 61 71  1  0  0  0  0
 63 64  1  0  0  0  0
M  CHG  1  74   1
M  ISO  4  39 100  58 101  70 100  82 101
M  END
> <Batch ID>
0076

> <Smiles>
CNC(C)C(=O)NC(C(=O)N1Cc2cc([101O:1][101CH2:1]C(C)NC(=O)c3cc([100NH:0][100C:0](=O)N4CCCC(n5nc(-c6ccc(Oc7ccc(F)cc7F)cc6)c(C(N)=O)c5N)C4)ccc3N)ccc2CC1C(=O)NC1CCCc2ccccc21)C(C)(C)C

> <Shape>
0.288

> <Color>
0.073

> <Negative vol penalty>
0.000

$$$$

  -OEChem-04042323503D

 86 95  0     1  0  0  0  0  0999 V2000
  -17.2398  -28.6650   24.7875 C   0  0  0  0  0  0  0  0  0  0  0  0
  -18.2742  -27.7363   24.8415 C   0  0  0  0  0  0  0  0  0  0  0  0
  -23.1320   -9.8420   21.5278 C   0  0  0  0  0  0  0  0  0  0  0  0
  -23.6518  -11.0072   23.5794 C   0  0  0  0  0  0  0  0  0  0  0  0
  -17.2074  -29.6119   23.7646 C   0  0  0  0  0  0  0  0  0  0  0  0
  -19.2762  -27.7532   23.8718 C   0  0  0  0  0  0  0  0  0  0  0  0
  -23.9090  -27.2617   25.8568 C   0  0  0  0  0  0  0  0  0  0  0  0
  -30.6273  -19.1542   22.2939 C   0  0  0  0  0  0  0  0  0  0  0  0
  -28.4602  -18.8805   21.2616 C   0  0  0  0  0  0  0  0  0  0  0  0
  -30.0913  -20.0994   23.1685 C   0  0  0  0  0  0  0  0  0  0  0  0
  -27.9242  -19.8258   22.1362 C   0  0  0  0  0  0  0  0  0  0  0  0
  -22.4055   -8.8950   22.2497 C   0  0  0  0  0  0  0  0  0  0  0  0
  -22.9253  -10.0603   24.3013 C   0  0  0  0  0  0  0  0  0  0  0  0
  -24.3069  -25.9802   26.2352 C   0  0  0  0  0  0  0  0  0  0  0  0
  -23.0561   -6.1790   24.1534 C   0  0  0  0  0  0  0  0  0  0  0  0
  -23.2534   -4.8344   23.8391 C   0  0  0  0  0  0  0  0  0  0  0  0
  -25.5650  -25.7725   24.1875 C   0  0  0  0  0  0  0  0  0  0  0  0
  -20.9134   -4.6224   23.2766 C   0  0  0  0  0  0  0  0  0  0  0  0
  -23.7552  -10.8981   22.1927 C   0  0  0  0  0  0  0  0  0  0  0  0
  -24.0226  -13.0748   20.8897 C   0  0  0  0  0  0  0  0  0  0  0  0
  -18.2147  -29.6466   22.7875 C   0  0  0  0  0  0  0  0  0  0  0  0
  -24.3280  -27.8049   24.6337 C   0  0  0  0  0  0  0  0  0  0  0  0
  -19.2564  -28.7005   22.8341 C   0  0  0  0  0  0  0  0  0  0  0  0
  -25.1731  -27.0621   23.7970 C   0  0  0  0  0  0  0  0  0  0  0  0
  -29.8117  -18.5448   21.3404 C   0  0  0  0  0  0  0  0  0  0  0  0
  -28.7398  -20.4352   23.0897 C   0  0  0  0  0  0  0  0  0  0  0  0
  -22.3022   -9.0042   23.6364 C   0  0  0  0  0  0  0  0  0  0  0  0
  -25.1326  -25.2343   25.3992 C   0  0  0  0  0  0  0  0  0  0  0  0
  -21.7873   -6.7452   24.0294 C   0  0  0  0  0  0  0  0  0  0  0  0
  -22.1821   -4.0561   23.4006 C   0  0  0  0  0  0  0  0  0  0  0  0
  -20.7160   -5.9670   23.5910 C   0  0  0  0  0  0  0  0  0  0  0  0
  -24.5062  -11.8763   21.4476 C   0  0  0  0  0  0  0  0  0  0  0  0
  -25.1204  -13.6421   20.2903 C   0  0  0  0  0  0  0  0  0  0  0  0
  -27.4467  -22.7896   25.1336 C   0  0  0  0  0  0  0  0  0  0  0  0
  -26.9620  -21.8746   24.0995 C   0  0  0  0  0  0  0  0  0  0  0  0
  -22.6992  -13.6261   20.9113 C   0  0  0  0  0  0  0  0  0  0  0  0
  -26.8599  -23.7388   25.9002 C   0  0  0  0  0  0  0  0  0  1  0  0
  -22.8544  -28.7994   21.9988 C   0  0  0  0  0  0  0  0  0  0  0  0
  -25.8401  -29.7456   21.1545 C   0  0  0  0  0  0  0  0  0  0  0  0
  -29.2118  -29.3647   21.5199 C   0  0  0  0  0  0  0  0  0  0  0  0
  -30.5186  -15.0564   20.3644 C   0  0  0  0  0  0  0  0  0  0  0  0
  -18.1114  -30.6587   21.6741 C   0  0  0  0  0  0  0  0  0  0  0  0
  -23.9118  -29.1990   24.2523 C   0  0  0  0  0  0  0  0  0  0  0  0
  -25.6671  -27.6076   22.4829 C   0  0  0  0  0  0  0  0  0  0  0  0
  -28.8329  -22.2141   24.9545 C   0  0  0  0  0  0  0  0  0  0  0  0
  -19.4134  -30.8472   20.8997 C   0  0  0  0  0  0  0  0  0  0  0  0
  -29.7127  -11.7383   19.3556 C   0  0  0  0  0  0  0  0  0  0  0  0
  -20.0266  -29.4952   20.5491 C   0  0  0  0  0  0  0  0  0  0  0  0
  -28.2490  -11.5755   19.7695 C   0  0  0  0  0  0  0  0  0  0  0  0
  -30.4938  -12.5793   20.3629 C   0  0  0  0  0  0  0  0  0  0  0  0
  -28.4363  -13.7327   21.0773 C   0  0  0  0  0  0  0  0  0  0  0  0
  -20.3749  -28.7026   21.8148 C   0  0  1  0  0  0  0  0  0  0  0  0
  -23.9800  -29.4529   22.7495 C   0  0  1  0  0  0  0  0  0  0  0  0
  -27.5945  -12.9387   20.0637 C   0  0  2  0  0  0  0  0  0  0  0  0
  -27.5788  -24.5684   26.9162 C   0  0  0  0  0  0  0  0  0  0  0  0
  -30.2574  -17.9455   18.9313 C   0  0  0  0  0  0  0  0  0  0  0  0
  -31.3984  -30.2548   20.6691 C   0  0  0  0  0  0  0  0  0  0  0  0
  -25.4735  -28.1675   18.5689 C   0  0  0  0  0  0  0  0  0  0  0  0
  -27.9497  -28.2953   18.2218 C   0  0  0  0  0  0  0  0  0  0  0  0
  -26.5916  -30.3867   18.2870 C   0  0  0  0  0  0  0  0  0  0  0  0
  -30.0170  -30.2879   24.2140 C   0  0  0  0  0  0  0  0  0  0  0  0
  -30.3849  -17.5342   20.4053 C   0  0  2  0  0  0  0  0  0  0  0  0
  -26.9989  -29.1061   20.4285 C   0  0  1  0  0  0  0  0  0  0  0  0
  -30.3222  -30.3769   21.7366 C   0  0  2  0  0  0  0  0  0  0  0  0
  -26.7428  -28.9776   18.9004 C   0  0  0  0  0  0  0  0  0  0  0  0
  -25.8099  -11.6920   21.2226 N   0  0  0  0  0  0  0  0  0  0  0  0
  -26.1546  -12.7822   20.5165 N   0  0  0  0  0  0  0  0  0  0  0  0
  -28.2108  -21.3671   23.9522 N   0  0  0  0  0  0  0  0  0  0  0  0
  -25.2275  -28.9730   22.1513 N   0  0  0  0  0  0  0  0  0  0  0  0
  -29.8209  -13.8595   20.5963 N   0  0  0  0  0  0  0  0  0  0  0  0
  -25.2924  -14.7876   19.5969 N   0  0  0  0  0  0  0  0  0  0  0  0
  -21.6891  -12.9131   21.5714 N   0  0  0  0  0  0  0  0  0  0  0  0
  -21.5973  -29.2045   22.4050 N   0  0  0  0  0  0  0  0  0  0  0  0
  -28.1795  -29.8912   20.7726 N   0  0  0  0  0  0  0  0  0  0  0  0
  -29.8053  -16.2245   20.6042 N   0  0  0  0  0  0  0  0  0  0  0  0
  -30.9568  -30.1722   23.0693 N   0  3  0  0  0  0  0  0  0  0  0  0
  -25.8891  -21.6612   23.5743 O   0  0  0  0  0  0  0  0  0  0  0  0
  -22.4171  -14.7106   20.3476 O   0  0  0  0  0  0  0  0  0  0  0  0
  -23.1076  -27.9889   21.1153 O   0  0  0  0  0  0  0  0  0  0  0  0
  -25.4958  -30.8911   20.8533 O   0  0  0  0  0  0  0  0  0  0  0  0
  -29.2574  -28.2202   21.9655 O   0  0  0  0  0  0  0  0  0  0  0  0
  -31.6886  -15.0821   19.9676 O   0  0  0  0  0  0  0  0  0  0  0  0
  -21.5932   -8.0805   24.3411 O   0  0  0  0  0  0  0  0  0  0  0  0
  -25.5219  -23.9829   25.7659 O   0  0  0  0  0  0  0  0  0  1  0  0
  -22.3721   -2.7654   23.0973 F   0  0  0  0  0  0  0  0  0  0  0  0
  -19.4951   -6.5057   23.4688 F   0  0  0  0  0  0  0  0  0  0  0  0
  1  2  1  0  0  0  0
  1  5  2  0  0  0  0
  2  6  2  0  0  0  0
  3 12  2  0  0  0  0
  3 19  1  0  0  0  0
  4 13  1  0  0  0  0
  4 19  2  0  0  0  0
  5 21  1  0  0  0  0
  6 23  1  0  0  0  0
  7 14  2  0  0  0  0
  7 22  1  0  0  0  0
  8 10  2  0  0  0  0
  8 25  1  0  0  0  0
  9 11  1  0  0  0  0
  9 25  2  0  0  0  0
 10 26  1  0  0  0  0
 11 26  2  0  0  0  0
 12 27  1  0  0  0  0
 13 27  2  0  0  0  0
 14 28  1  0  0  0  0
 15 16  2  0  0  0  0
 15 29  1  0  0  0  0
 16 30  1  0  0  0  0
 17 24  1  0  0  0  0
 17 28  2  0  0  0  0
 18 30  2  0  0  0  0
 18 31  1  0  0  0  0
 19 32  1  0  0  0  0
 20 32  1  0  0  0  0
 20 33  2  0  0  0  0
 20 36  1  0  0  0  0
 21 23  2  0  0  0  0
 21 42  1  0  0  0  0
 22 24  2  0  0  0  0
 22 43  1  0  0  0  0
 23 52  1  0  0  0  0
 24 44  1  0  0  0  0
 25 62  1  0  0  0  0
 26 68  1  0  0  0  0
 27 83  1  0  0  0  0
 28 84  1  0  0  0  0
 29 31  2  0  0  0  0
 29 83  1  0  0  0  0
 30 85  1  0  0  0  0
 31 86  1  0  0  0  0
 32 66  2  0  0  0  0
 33 67  1  0  0  0  0
 33 71  1  0  0  0  0
 34 35  1  0  0  0  0
 34 37  2  0  0  0  0
 34 45  1  0  0  0  0
 35 68  1  0  0  0  0
 35 77  2  0  0  0  0
 36 72  1  0  0  0  0
 36 78  2  0  0  0  0
 37 55  1  0  0  0  0
 37 84  1  0  0  0  0
 38 53  1  0  0  0  0
 38 73  1  0  0  0  0
 38 79  2  0  0  0  0
 39 63  1  0  0  0  0
 39 69  1  0  0  0  0
 39 80  2  0  0  0  0
 40 64  1  0  0  0  0
 40 74  1  0  0  0  0
 40 81  2  0  0  0  0
 41 70  1  0  0  0  0
 41 75  1  0  0  0  0
 41 82  2  0  0  0  0
 42 46  1  0  0  0  0
 43 53  1  0  0  0  0
 44 69  1  0  0  0  0
 45 68  1  0  0  0  0
 46 48  1  0  0  0  0
 47 49  1  0  0  0  0
 47 50  1  0  0  0  0
 48 52  1  0  0  0  0
 49 54  1  0  0  0  0
 50 70  1  0  0  0  0
 51 54  1  0  0  0  0
 51 70  1  0  0  0  0
 52 73  1  0  0  0  0
 53 69  1  0  0  0  0
 54 67  1  0  0  0  0
 56 62  1  0  0  0  0
 57 64  1  0  0  0  0
 58 65  1  0  0  0  0
 59 65  1  0  0  0  0
 60 65  1  0  0  0  0
 61 76  1  0  0  0  0
 62 75  1  0  0  0  0
 63 65  1  0  0  0  0
 63 74  1  0  0  0  0
 64 76  1  0  0  0  0
 66 67  1  0  0  0  0
M  CHG  1  76   1
M  ISO  4  37 101  41 100  75 100  84 101
M  END
> <Batch ID>
0076

> <Smiles>
CNC(C)C(=O)NC(C(=O)N1Cc2cc([101O:1][101C:1](C)=C3CN(c4ccc(C(C)[100NH:0][100C:0](=O)N5CCCC(n6nc(-c7ccc(Oc8ccc(F)cc8F)cc7)c(C(N)=O)c6N)C5)cc4)C3=O)ccc2CC1C(=O)NC1CCCc2ccccc21)C(C)(C)C

> <Shape>
0.265

> <Color>
0.164

> <Negative vol penalty>
0.000

$$$$

  -OEChem-04042323503D

 90 99  0     1  0  0  0  0  0999 V2000
  -16.6844  -30.5135   23.4213 C   0  0  0  0  0  0  0  0  0  0  0  0
  -17.8447  -31.2036   23.7573 C   0  0  0  0  0  0  0  0  0  0  0  0
  -33.8567  -22.2707   23.1714 C   0  0  0  0  0  0  0  0  0  0  0  0
  -27.4567  -13.1364   21.3558 C   0  0  0  0  0  0  0  0  0  0  0  0
  -25.4761  -13.6887   20.0873 C   0  0  0  0  0  0  0  0  0  0  0  0
  -16.7548  -29.1697   23.0566 C   0  0  0  0  0  0  0  0  0  0  0  0
  -19.0761  -30.5498   23.7297 C   0  0  0  0  0  0  0  0  0  0  0  0
  -26.0066  -31.7528   22.3742 C   0  0  0  0  0  0  0  0  0  0  0  0
  -33.7834  -23.6018   23.5815 C   0  0  0  0  0  0  0  0  0  0  0  0
  -32.8008  -21.7009   22.4599 C   0  0  0  0  0  0  0  0  0  0  0  0
  -26.7378  -12.1683   22.0569 C   0  0  0  0  0  0  0  0  0  0  0  0
  -24.7571  -12.7206   20.7884 C   0  0  0  0  0  0  0  0  0  0  0  0
  -27.2630  -31.5802   22.9531 C   0  0  0  0  0  0  0  0  0  0  0  0
  -22.4907  -10.1460   21.9939 C   0  0  0  0  0  0  0  0  0  0  0  0
  -21.6573   -9.2998   21.2626 C   0  0  0  0  0  0  0  0  0  0  0  0
  -27.2730  -29.2786   22.2309 C   0  0  0  0  0  0  0  0  0  0  0  0
  -31.5981  -23.7934   22.5689 C   0  0  0  0  0  0  0  0  0  0  0  0
  -23.5624   -8.5125   20.0025 C   0  0  0  0  0  0  0  0  0  0  0  0
  -26.8258  -13.8966   20.3710 C   0  0  0  0  0  0  0  0  0  0  0  0
  -28.2859  -14.7216   18.4487 C   0  0  0  0  0  0  0  0  0  0  0  0
  -17.9888  -28.5017   23.0152 C   0  0  0  0  0  0  0  0  0  0  0  0
  -25.3680  -30.6848   21.7276 C   0  0  0  0  0  0  0  0  0  0  0  0
  -19.1629  -29.1954   23.3653 C   0  0  0  0  0  0  0  0  0  0  0  0
  -26.0095  -29.4409   21.6423 C   0  0  0  0  0  0  0  0  0  0  0  0
  -32.6541  -24.3632   23.2803 C   0  0  0  0  0  0  0  0  0  0  0  0
  -31.6715  -22.4622   22.1588 C   0  0  0  0  0  0  0  0  0  0  0  0
  -25.3880  -11.9604   21.7732 C   0  0  0  0  0  0  0  0  0  0  0  0
  -27.8952  -30.3422   22.8841 C   0  0  0  0  0  0  0  0  0  0  0  0
  -23.8600  -10.1756   21.7295 C   0  0  0  0  0  0  0  0  0  0  0  0
  -22.1931   -8.4830   20.2669 C   0  0  0  0  0  0  0  0  0  0  0  0
  -24.3958   -9.3588   20.7339 C   0  0  0  0  0  0  0  0  0  0  0  0
  -27.5678  -14.8971   19.6468 C   0  0  0  0  0  0  0  0  0  0  0  0
  -28.8062  -15.9630   18.1753 C   0  0  0  0  0  0  0  0  0  0  0  0
  -31.8722  -27.8482   24.0620 C   0  0  0  0  0  0  0  0  0  0  0  0
  -33.1752  -27.7426   24.6691 C   0  0  0  0  0  0  0  0  0  0  0  0
  -31.4957  -26.5476   23.4412 C   0  0  0  0  0  0  0  0  0  0  0  0
  -33.8646  -28.6828   25.3243 C   0  0  0  0  0  0  0  0  0  0  0  0
  -31.0467  -28.8992   24.0070 C   0  0  0  0  0  0  0  0  0  0  0  0
  -28.4665  -13.5420   17.6540 C   0  0  0  0  0  0  0  0  0  0  0  0
  -22.6623  -29.0805   22.1848 C   0  0  0  0  0  0  0  0  0  0  0  0
  -28.5959  -23.3401   21.7139 C   0  0  0  0  0  0  0  0  0  0  0  0
  -23.4845  -27.6651   19.3843 C   0  0  0  0  0  0  0  0  0  0  0  0
  -25.9487  -26.8146   17.1817 C   0  0  0  0  0  0  0  0  0  0  0  0
  -30.2902  -20.4936   21.5203 C   0  0  0  0  0  0  0  0  0  0  0  0
  -18.0092  -27.0359   22.6605 C   0  0  0  0  0  0  0  0  0  0  0  0
  -24.0244  -30.8946   21.0849 C   0  0  0  0  0  0  0  0  0  0  0  0
  -25.3755  -28.2680   20.9418 C   0  0  0  0  0  0  0  0  0  0  0  0
  -33.6558  -26.3421   24.4369 C   0  0  0  0  0  0  0  0  0  0  0  0
  -19.3974  -26.5172   22.2942 C   0  0  0  0  0  0  0  0  0  0  0  0
  -27.9577  -20.6167   18.8394 C   0  0  0  0  0  0  0  0  0  0  0  0
  -20.4312  -26.9968   23.3082 C   0  0  0  0  0  0  0  0  0  0  0  0
  -27.6539  -19.1332   18.6331 C   0  0  0  0  0  0  0  0  0  0  0  0
  -28.0955  -20.9723   20.3201 C   0  0  0  0  0  0  0  0  0  0  0  0
  -28.7700  -18.6497   20.8449 C   0  0  0  0  0  0  0  0  0  0  0  0
  -20.5202  -28.5276   23.3234 C   0  0  1  0  0  0  0  0  0  0  0  0
  -23.2421  -29.5981   20.8989 C   0  0  1  0  0  0  0  0  0  0  0  0
  -28.6830  -18.2521   19.3631 C   0  0  1  0  0  0  0  0  0  0  0  0
  -28.0103  -24.7017   21.4413 C   0  0  0  0  0  0  0  0  0  0  0  0
  -26.3188  -25.6285   15.0015 C   0  0  0  0  0  0  0  0  0  0  0  0
  -23.1789  -24.9780   20.7970 C   0  0  0  0  0  0  0  0  0  0  0  0
  -24.4501  -23.9231   18.9157 C   0  0  0  0  0  0  0  0  0  0  0  0
  -22.2660  -25.0427   18.4696 C   0  0  0  0  0  0  0  0  0  0  0  0
  -27.0026  -29.2629   15.8956 C   0  0  0  0  0  0  0  0  0  0  0  0
  -29.7111  -28.8759   23.3406 C   0  0  0  0  0  0  0  0  0  1  0  0
  -29.6200  -22.7621   20.7590 C   0  0  0  0  0  0  0  0  0  0  0  0
  -24.2969  -26.4531   18.9970 C   0  0  1  0  0  0  0  0  0  0  0  0
  -26.0485  -26.9652   15.6745 C   0  0  2  0  0  0  0  0  0  0  0  0
  -23.5594  -25.1206   19.3098 C   0  0  0  0  0  0  0  0  0  0  0  0
  -27.6247  -16.1512   20.1030 N   0  0  0  0  0  0  0  0  0  0  0  0
  -28.3848  -16.7749   19.1869 N   0  0  0  0  0  0  0  0  0  0  0  0
  -32.5818  -25.6910   23.6893 N   0  0  0  0  0  0  0  0  0  0  0  0
  -24.0584  -28.5214   20.3346 N   0  0  0  0  0  0  0  0  0  0  0  0
  -29.0567  -20.0797   20.9831 N   0  0  0  0  0  0  0  0  0  0  0  0
  -29.5785  -16.4283   17.1706 N   0  0  0  0  0  0  0  0  0  0  0  0
  -27.8627  -12.3509   18.0796 N   0  0  0  0  0  0  0  0  0  0  0  0
  -21.2828  -29.0008   22.1881 N   0  0  0  0  0  0  0  0  0  0  0  0
  -24.6454  -26.6274   17.5911 N   0  0  0  0  0  0  0  0  0  0  0  0
  -30.5788  -21.8718   21.4222 N   0  0  0  0  0  0  0  0  0  0  0  0
  -27.1520  -27.9018   15.3194 N   0  3  0  0  0  0  0  0  0  0  0  0
  -30.4559  -26.3102   22.8497 O   0  0  0  0  0  0  0  0  0  0  0  0
  -29.1567  -13.5403   16.6066 O   0  0  0  0  0  0  0  0  0  0  0  0
  -23.4112  -28.7746   23.1053 O   0  0  0  0  0  0  0  0  0  0  0  0
  -28.2474  -22.6966   22.7069 O   0  0  0  0  0  0  0  0  0  0  0  0
  -22.3844  -27.8492   18.8575 O   0  0  0  0  0  0  0  0  0  0  0  0
  -26.9293  -26.8551   17.9216 O   0  0  0  0  0  0  0  0  0  0  0  0
  -31.0625  -19.6981   22.0687 O   0  0  0  0  0  0  0  0  0  0  0  0
  -24.6862  -11.0157   22.4570 O   0  0  0  0  0  0  0  0  0  0  0  0
  -29.1214  -30.1708   23.4489 O   0  0  0  0  0  0  0  0  0  1  0  0
  -21.3929   -7.6693   19.5657 F   0  0  0  0  0  0  0  0  0  0  0  0
  -25.7107   -9.3819   20.4762 F   0  0  0  0  0  0  0  0  0  0  0  0
  1  2  1  0  0  0  0
  1  6  2  0  0  0  0
  2  7  2  0  0  0  0
  3  9  2  0  0  0  0
  3 10  1  0  0  0  0
  4 11  2  0  0  0  0
  4 19  1  0  0  0  0
  5 12  1  0  0  0  0
  5 19  2  0  0  0  0
  6 21  1  0  0  0  0
  7 23  1  0  0  0  0
  8 13  2  0  0  0  0
  8 22  1  0  0  0  0
  9 25  1  0  0  0  0
 10 26  2  0  0  0  0
 11 27  1  0  0  0  0
 12 27  2  0  0  0  0
 13 28  1  0  0  0  0
 14 15  2  0  0  0  0
 14 29  1  0  0  0  0
 15 30  1  0  0  0  0
 16 24  1  0  0  0  0
 16 28  2  0  0  0  0
 17 25  2  0  0  0  0
 17 26  1  0  0  0  0
 18 30  2  0  0  0  0
 18 31  1  0  0  0  0
 19 32  1  0  0  0  0
 20 32  1  0  0  0  0
 20 33  2  0  0  0  0
 20 39  1  0  0  0  0
 21 23  2  0  0  0  0
 21 45  1  0  0  0  0
 22 24  2  0  0  0  0
 22 46  1  0  0  0  0
 23 55  1  0  0  0  0
 24 47  1  0  0  0  0
 25 71  1  0  0  0  0
 26 78  1  0  0  0  0
 27 87  1  0  0  0  0
 28 88  1  0  0  0  0
 29 31  2  0  0  0  0
 29 87  1  0  0  0  0
 30 89  1  0  0  0  0
 31 90  1  0  0  0  0
 32 69  2  0  0  0  0
 33 70  1  0  0  0  0
 33 74  1  0  0  0  0
 34 35  1  0  0  0  0
 34 36  1  0  0  0  0
 34 38  2  0  0  0  0
 35 37  2  0  0  0  0
 35 48  1  0  0  0  0
 36 71  1  0  0  0  0
 36 80  2  0  0  0  0
 38 64  1  0  0  0  0
 39 75  1  0  0  0  0
 39 81  2  0  0  0  0
 40 56  1  0  0  0  0
 40 76  1  0  0  0  0
 40 82  2  0  0  0  0
 41 58  1  0  0  0  0
 41 65  1  0  0  0  0
 41 83  2  0  0  0  0
 42 66  1  0  0  0  0
 42 72  1  0  0  0  0
 42 84  2  0  0  0  0
 43 67  1  0  0  0  0
 43 77  1  0  0  0  0
 43 85  2  0  0  0  0
 44 73  1  0  0  0  0
 44 78  1  0  0  0  0
 44 86  2  0  0  0  0
 45 49  1  0  0  0  0
 46 56  1  0  0  0  0
 47 72  1  0  0  0  0
 48 71  1  0  0  0  0
 49 51  1  0  0  0  0
 50 52  1  0  0  0  0
 50 53  1  0  0  0  0
 51 55  1  0  0  0  0
 52 57  1  0  0  0  0
 53 73  1  0  0  0  0
 54 57  1  0  0  0  0
 54 73  1  0  0  0  0
 55 76  1  0  0  0  0
 56 72  1  0  0  0  0
 57 70  1  0  0  0  0
 59 67  1  0  0  0  0
 60 68  1  0  0  0  0
 61 68  1  0  0  0  0
 62 68  1  0  0  0  0
 63 79  1  0  0  0  0
 64 88  1  0  0  0  0
 65 78  1  0  0  0  0
 66 68  1  0  0  0  0
 66 77  1  0  0  0  0
 67 79  1  0  0  0  0
 69 70  1  0  0  0  0
M  CHG  1  79   1
M  ISO  4  44 100  64 101  78 100  88 101
M  END
> <Batch ID>
0076

> <Smiles>
C=C1CN(c2cccc([100N:0](CC(C)=O)[100C:0](=O)N3CCCC(n4nc(-c5ccc(Oc6ccc(F)cc6F)cc5)c(C(N)=O)c4N)C3)c2)C(=O)C1=C[101CH2:1][101O:1]c1ccc2c(c1)CN(C(=O)C(NC(=O)C(C)NC)C(C)(C)C)C(C(=O)NC1CCCc3ccccc31)C2

> <Shape>
0.283

> <Color>
0.109

> <Negative vol penalty>
0.000

$$$$

  -OEChem-04042323503D

 88 97  0     1  0  0  0  0  0999 V2000
  -28.5835  -34.9252   21.9470 C   0  0  0  0  0  0  0  0  0  0  0  0
  -28.7093  -33.5400   21.9197 C   0  0  0  0  0  0  0  0  0  0  0  0
  -24.0358  -11.1961   23.5408 C   0  0  0  0  0  0  0  0  0  0  0  0
  -24.5513   -9.5410   21.8580 C   0  0  0  0  0  0  0  0  0  0  0  0
  -27.4284  -35.5091   22.4653 C   0  0  0  0  0  0  0  0  0  0  0  0
  -27.6802  -32.7378   22.4116 C   0  0  0  0  0  0  0  0  0  0  0  0
  -26.6295  -28.8365   19.3586 C   0  0  0  0  0  0  0  0  0  0  0  0
  -23.6003  -10.1871   24.3998 C   0  0  0  0  0  0  0  0  0  0  0  0
  -24.1159   -8.5320   22.7170 C   0  0  0  0  0  0  0  0  0  0  0  0
  -27.4932  -27.7430   19.4026 C   0  0  0  0  0  0  0  0  0  0  0  0
  -21.1677   -7.2289   23.7373 C   0  0  0  0  0  0  0  0  0  0  0  0
  -20.3419   -6.2379   23.2069 C   0  0  0  0  0  0  0  0  0  0  0  0
  -25.9318  -26.5743   20.8222 C   0  0  0  0  0  0  0  0  0  0  0  0
  -28.8961  -20.5488   20.3671 C   0  0  0  0  0  0  0  0  0  0  0  0
  -30.8826  -18.6901   19.7494 C   0  0  0  0  0  0  0  0  0  0  0  0
  -21.9752   -4.5593   23.8000 C   0  0  0  0  0  0  0  0  0  0  0  0
  -24.5113  -10.8731   22.2699 C   0  0  0  0  0  0  0  0  0  0  0  0
  -24.2064  -12.9975   20.8908 C   0  0  0  0  0  0  0  0  0  0  0  0
  -26.3806  -34.7134   22.9550 C   0  0  0  0  0  0  0  0  0  0  0  0
  -25.4133  -28.8113   20.0562 C   0  0  0  0  0  0  0  0  0  0  0  0
  -26.5105  -33.3116   22.9382 C   0  0  0  0  0  0  0  0  0  0  0  0
  -25.0532  -27.6678   20.7834 C   0  0  0  0  0  0  0  0  0  0  0  0
  -30.2346  -20.9405   20.3436 C   0  0  0  0  0  0  0  0  0  0  0  0
  -28.5508  -19.2278   20.0819 C   0  0  0  0  0  0  0  0  0  0  0  0
  -29.5441  -18.2984   19.7730 C   0  0  0  0  0  0  0  0  0  0  0  0
  -23.6404   -8.8551   23.9879 C   0  0  0  0  0  0  0  0  0  0  0  0
  -27.1457  -26.6128   20.1368 C   0  0  0  0  0  0  0  0  0  0  0  0
  -22.3974   -6.8852   24.2990 C   0  0  0  0  0  0  0  0  0  0  0  0
  -20.7455   -4.9031   23.2383 C   0  0  0  0  0  0  0  0  0  0  0  0
  -31.2279  -20.0111   20.0348 C   0  0  0  0  0  0  0  0  0  0  0  0
  -22.8011   -5.5504   24.3304 C   0  0  0  0  0  0  0  0  0  0  0  0
  -24.9607  -11.9150   21.3819 C   0  0  0  0  0  0  0  0  0  0  0  0
  -25.0827  -13.6933   20.0944 C   0  0  0  0  0  0  0  0  0  0  0  0
  -30.1552  -24.7518   20.7823 C   0  0  0  0  0  0  0  0  0  0  0  0
  -31.4881  -24.9605   21.3233 C   0  0  0  0  0  0  0  0  0  0  0  0
  -29.7087  -23.3720   20.3504 C   0  0  0  0  0  0  0  0  0  0  0  0
  -32.2057  -26.0846   21.1667 C   0  0  0  0  0  0  0  0  0  0  0  0
  -29.2418  -25.7344   20.6895 C   0  0  0  0  0  0  0  0  0  1  0  0
  -22.8362  -13.3431   21.1331 C   0  0  0  0  0  0  0  0  0  0  0  0
  -24.1467  -30.5195   22.4188 C   0  0  0  0  0  0  0  0  0  0  0  0
  -21.5169  -28.7312   21.7796 C   0  0  0  0  0  0  0  0  0  0  0  0
  -20.2145  -25.8512   20.4928 C   0  0  0  0  0  0  0  0  0  0  0  0
  -30.1002  -15.9192   19.1597 C   0  0  0  0  0  0  0  0  0  0  0  0
  -25.1711  -35.3909   23.5490 C   0  0  0  0  0  0  0  0  0  0  0  0
  -24.4805  -29.9886   19.9769 C   0  0  0  0  0  0  0  0  0  0  0  0
  -23.7498  -27.5827   21.5333 C   0  0  0  0  0  0  0  0  0  0  0  0
  -32.0408  -23.7706   22.0401 C   0  0  0  0  0  0  0  0  0  0  0  0
  -23.9692  -34.4631   23.7064 C   0  0  0  0  0  0  0  0  0  0  0  0
  -29.6954  -12.4615   18.4128 C   0  0  0  0  0  0  0  0  0  0  0  0
  -24.3955  -33.1387   24.3318 C   0  0  0  0  0  0  0  0  0  0  0  0
  -28.3654  -12.1001   19.0783 C   0  0  0  0  0  0  0  0  0  0  0  0
  -31.9586  -22.5609   21.1251 C   0  0  0  0  0  0  0  0  0  0  0  0
  -30.4908  -13.4665   19.2440 C   0  0  0  0  0  0  0  0  0  0  0  0
  -28.4269  -14.3210   20.2829 C   0  0  0  0  0  0  0  0  0  0  0  0
  -25.4057  -32.4072   23.4398 C   0  0  1  0  0  0  0  0  0  0  0  0
  -23.5007  -30.0544   21.1444 C   0  0  1  0  0  0  0  0  0  0  0  0
  -27.5609  -13.3608   19.4510 C   0  0  2  0  0  0  0  0  0  0  0  0
  -18.0344  -24.6573   20.1471 C   0  0  0  0  0  0  0  0  0  0  0  0
  -21.4599  -27.9840   24.7373 C   0  0  0  0  0  0  0  0  0  0  0  0
  -19.9091  -26.1048   24.1611 C   0  0  0  0  0  0  0  0  0  0  0  0
  -19.2176  -28.4642   23.7392 C   0  0  0  0  0  0  0  0  0  0  0  0
  -20.5472  -25.8523   17.5520 C   0  0  0  0  0  0  0  0  0  0  0  0
  -20.9802  -27.4071   22.2669 C   0  0  1  0  0  0  0  0  0  0  0  0
  -19.0572  -25.6060   19.5415 C   0  0  2  0  0  0  0  0  0  0  0  0
  -20.4172  -27.4921   23.7137 C   0  0  0  0  0  0  0  0  0  0  0  0
  -26.2192  -11.9185   20.9346 N   0  0  0  0  0  0  0  0  0  0  0  0
  -26.2625  -13.0117   20.1541 N   0  0  0  0  0  0  0  0  0  0  0  0
  -30.5902  -22.3104   20.6412 N   0  0  0  0  0  0  0  0  0  0  0  0
  -22.8744  -28.7620   21.4302 N   0  0  0  0  0  0  0  0  0  0  0  0
  -29.6664  -14.6362   19.5555 N   0  0  0  0  0  0  0  0  0  0  0  0
  -27.1889  -18.8527   20.1108 N   0  0  0  0  0  0  0  0  0  0  0  0
  -24.9514  -14.8156   19.3556 N   0  0  0  0  0  0  0  0  0  0  0  0
  -22.0785  -12.5197   21.9770 N   0  0  0  0  0  0  0  0  0  0  0  0
  -29.2185  -16.9506   19.4813 N   0  0  0  0  0  0  0  0  0  0  0  0
  -24.7307  -31.7687   22.3302 N   0  0  0  0  0  0  0  0  0  0  0  0
  -20.0071  -26.9699   21.2717 N   0  0  0  0  0  0  0  0  0  0  0  0
  -19.5513  -25.0130   18.2667 N   0  3  0  0  0  0  0  0  0  0  0  0
  -28.6377  -23.2500   19.7528 O   0  0  0  0  0  0  0  0  0  0  0  0
  -22.2949  -14.3431   20.6034 O   0  0  0  0  0  0  0  0  0  0  0  0
  -24.1163  -29.7990   23.4096 O   0  0  0  0  0  0  0  0  0  0  0  0
  -20.7579  -29.7007   21.7047 O   0  0  0  0  0  0  0  0  0  0  0  0
  -21.2018  -25.1211   20.5427 O   0  0  0  0  0  0  0  0  0  0  0  0
  -31.1618  -16.0871   18.5542 O   0  0  0  0  0  0  0  0  0  0  0  0
  -23.2158   -7.8702   24.8260 O   0  0  0  0  0  0  0  0  0  0  0  0
  -27.9873  -25.5443   20.1819 O   0  0  0  0  0  0  0  0  0  1  0  0
  -19.9517   -3.9513   22.7302 F   0  0  0  0  0  0  0  0  0  0  0  0
  -32.5176  -20.3764   20.0086 F   0  0  0  0  0  0  0  0  0  0  0  0
  -23.9807   -5.2139   24.8699 F   0  0  0  0  0  0  0  0  0  0  0  0
  1  2  1  0  0  0  0
  1  5  2  0  0  0  0
  2  6  2  0  0  0  0
  3  8  2  0  0  0  0
  3 17  1  0  0  0  0
  4  9  1  0  0  0  0
  4 17  2  0  0  0  0
  5 19  1  0  0  0  0
  6 21  1  0  0  0  0
  7 10  2  0  0  0  0
  7 20  1  0  0  0  0
  8 26  1  0  0  0  0
  9 26  2  0  0  0  0
 10 27  1  0  0  0  0
 11 12  2  0  0  0  0
 11 28  1  0  0  0  0
 12 29  1  0  0  0  0
 13 22  1  0  0  0  0
 13 27  2  0  0  0  0
 14 23  1  0  0  0  0
 14 24  2  0  0  0  0
 15 25  2  0  0  0  0
 15 30  1  0  0  0  0
 16 29  2  0  0  0  0
 16 31  1  0  0  0  0
 17 32  1  0  0  0  0
 18 32  1  0  0  0  0
 18 33  2  0  0  0  0
 18 39  1  0  0  0  0
 19 21  2  0  0  0  0
 19 44  1  0  0  0  0
 20 22  2  0  0  0  0
 20 45  1  0  0  0  0
 21 55  1  0  0  0  0
 22 46  1  0  0  0  0
 23 30  2  0  0  0  0
 23 68  1  0  0  0  0
 24 25  1  0  0  0  0
 24 71  1  0  0  0  0
 25 74  1  0  0  0  0
 26 84  1  0  0  0  0
 27 85  1  0  0  0  0
 28 31  2  0  0  0  0
 28 84  1  0  0  0  0
 29 86  1  0  0  0  0
 30 87  1  0  0  0  0
 31 88  1  0  0  0  0
 32 66  2  0  0  0  0
 33 67  1  0  0  0  0
 33 72  1  0  0  0  0
 34 35  1  0  0  0  0
 34 36  1  0  0  0  0
 34 38  2  0  0  0  0
 35 37  2  0  0  0  0
 35 47  1  0  0  0  0
 36 68  1  0  0  0  0
 36 78  2  0  0  0  0
 38 85  1  0  0  0  0
 39 73  1  0  0  0  0
 39 79  2  0  0  0  0
 40 56  1  0  0  0  0
 40 75  1  0  0  0  0
 40 80  2  0  0  0  0
 41 63  1  0  0  0  0
 41 69  1  0  0  0  0
 41 81  2  0  0  0  0
 42 64  1  0  0  0  0
 42 76  1  0  0  0  0
 42 82  2  0  0  0  0
 43 70  1  0  0  0  0
 43 74  1  0  0  0  0
 43 83  2  0  0  0  0
 44 48  1  0  0  0  0
 45 56  1  0  0  0  0
 46 69  1  0  0  0  0
 47 52  1  0  0  0  0
 48 50  1  0  0  0  0
 49 51  1  0  0  0  0
 49 53  1  0  0  0  0
 50 55  1  0  0  0  0
 51 57  1  0  0  0  0
 52 68  1  0  0  0  0
 53 70  1  0  0  0  0
 54 57  1  0  0  0  0
 54 70  1  0  0  0  0
 55 75  1  0  0  0  0
 56 69  1  0  0  0  0
 57 67  1  0  0  0  0
 58 64  1  0  0  0  0
 59 65  1  0  0  0  0
 60 65  1  0  0  0  0
 61 65  1  0  0  0  0
 62 77  1  0  0  0  0
 63 65  1  0  0  0  0
 63 76  1  0  0  0  0
 64 77  1  0  0  0  0
 66 67  1  0  0  0  0
M  CHG  1  77   1
M  ISO  4  38 101  43 100  74 100  85 101
M  END
> <Batch ID>
0076

> <Smiles>
C=C1CCN(c2cc(N)c([100NH:0][100C:0](=O)N3CCCC(n4nc(-c5ccc(Oc6ccc(F)cc6F)cc5)c(C(N)=O)c4N)C3)cc2F)C(=O)C1=[101CH:1][101O:1]c1ccc2c(c1)CN(C(=O)C(NC(=O)C(C)NC)C(C)(C)C)C(C(=O)NC1CCCc3ccccc31)C2

> <Shape>
0.361

> <Color>
0.137

> <Negative vol penalty>
0.000

$$$$

  -OEChem-04042323503D

 86 95  0     1  0  0  0  0  0999 V2000
  -21.4483  -31.0755   15.2592 C   0  0  0  0  0  0  0  0  0  0  0  0
  -22.6314  -30.4287   15.6018 C   0  0  0  0  0  0  0  0  0  0  0  0
  -29.9083  -19.6604   22.7996 C   0  0  0  0  0  0  0  0  0  0  0  0
  -23.4242  -10.6261   22.1750 C   0  0  0  0  0  0  0  0  0  0  0  0
  -24.6699   -8.7736   21.2513 C   0  0  0  0  0  0  0  0  0  0  0  0
  -20.9080  -32.0363   16.1129 C   0  0  0  0  0  0  0  0  0  0  0  0
  -23.2754  -30.7432   16.7979 C   0  0  0  0  0  0  0  0  0  0  0  0
  -24.8250  -26.6283   19.3103 C   0  0  0  0  0  0  0  0  0  0  0  0
  -29.8558  -20.8082   22.0089 C   0  0  0  0  0  0  0  0  0  0  0  0
  -29.6895  -18.4078   22.2261 C   0  0  0  0  0  0  0  0  0  0  0  0
  -22.2886   -9.8206   22.2592 C   0  0  0  0  0  0  0  0  0  0  0  0
  -23.5343   -7.9680   21.3355 C   0  0  0  0  0  0  0  0  0  0  0  0
  -25.9869  -26.0054   18.8568 C   0  0  0  0  0  0  0  0  0  0  0  0
  -21.8767   -6.2442   23.7232 C   0  0  0  0  0  0  0  0  0  0  0  0
  -22.0341   -4.9561   24.2348 C   0  0  0  0  0  0  0  0  0  0  0  0
  -27.2448  -27.0927   20.6045 C   0  0  0  0  0  0  0  0  0  0  0  0
  -29.3655  -19.4510   20.0712 C   0  0  0  0  0  0  0  0  0  0  0  0
  -21.2199   -4.0312   22.1566 C   0  0  0  0  0  0  0  0  0  0  0  0
  -24.6149  -10.1026   21.6710 C   0  0  0  0  0  0  0  0  0  0  0  0
  -26.7803  -11.1112   22.5662 C   0  0  0  0  0  0  0  0  0  0  0  0
  -21.5406  -32.3558   17.3246 C   0  0  0  0  0  0  0  0  0  0  0  0
  -24.8663  -27.4981   20.4094 C   0  0  0  0  0  0  0  0  0  0  0  0
  -22.7438  -31.7102   17.6680 C   0  0  0  0  0  0  0  0  0  0  0  0
  -26.0815  -27.7235   21.0716 C   0  0  0  0  0  0  0  0  0  0  0  0
  -29.5844  -20.7036   20.6447 C   0  0  0  0  0  0  0  0  0  0  0  0
  -29.4181  -18.3031   20.8619 C   0  0  0  0  0  0  0  0  0  0  0  0
  -22.3436   -8.4916   21.8394 C   0  0  0  0  0  0  0  0  0  0  0  0
  -27.1976  -26.2398   19.5021 C   0  0  0  0  0  0  0  0  0  0  0  0
  -21.3907   -6.4258   22.4284 C   0  0  0  0  0  0  0  0  0  0  0  0
  -21.7057   -3.8496   23.4515 C   0  0  0  0  0  0  0  0  0  0  0  0
  -21.0624   -5.3193   21.6451 C   0  0  0  0  0  0  0  0  0  0  0  0
  -25.7881  -10.9344   21.5833 C   0  0  0  0  0  0  0  0  0  0  0  0
  -27.6709  -11.9908   22.0009 C   0  0  0  0  0  0  0  0  0  0  0  0
  -29.2927  -22.0240   18.5295 C   0  0  0  0  0  0  0  0  0  0  0  0
  -29.7047  -23.1636   20.1582 C   0  0  0  0  0  0  0  0  0  0  0  0
  -26.8874  -10.5320   23.8734 C   0  0  0  0  0  0  0  0  0  0  0  0
  -24.2333  -30.5810   20.8554 C   0  0  0  0  0  0  0  0  0  0  0  0
  -24.7538  -29.8371   23.9695 C   0  0  0  0  0  0  0  0  0  0  0  0
  -26.2239  -27.7628   26.2461 C   0  0  0  0  0  0  0  0  0  0  0  0
  -28.3464  -16.8494   19.1492 C   0  0  0  0  0  0  0  0  0  0  0  0
  -20.9438  -33.4352   18.1926 C   0  0  0  0  0  0  0  0  0  0  0  0
  -23.5993  -28.1414   20.9028 C   0  0  0  0  0  0  0  0  0  0  0  0
  -26.1757  -28.6326   22.2687 C   0  0  0  0  0  0  0  0  0  0  0  0
  -21.4893  -33.4414   19.6183 C   0  0  0  0  0  0  0  0  0  0  0  0
  -28.0916  -13.6883   17.2643 C   0  0  0  0  0  0  0  0  0  0  0  0
  -23.0102  -33.3254   19.6086 C   0  0  0  0  0  0  0  0  0  0  0  0
  -27.4889  -12.7286   18.2889 C   0  0  0  0  0  0  0  0  0  0  0  0
  -27.6507  -15.1284   17.5087 C   0  0  0  0  0  0  0  0  0  0  0  0
  -27.3236  -14.6543   19.9167 C   0  0  0  0  0  0  0  0  0  0  0  0
  -23.4588  -32.0061   18.9685 C   0  0  1  0  0  0  0  0  0  0  0  0
  -23.8494  -29.4091   21.7138 C   0  0  1  0  0  0  0  0  0  0  0  0
  -27.7834  -13.2014   19.7230 C   0  0  1  0  0  0  0  0  0  0  0  0
  -29.4553  -23.5560   18.6815 C   0  0  0  0  0  0  0  0  0  0  0  0
  -30.6636  -24.1424   17.9643 C   0  0  0  0  0  0  0  0  0  0  0  0
  -26.5010  -27.4313   28.7181 C   0  0  0  0  0  0  0  0  0  0  0  0
  -26.7792  -32.1179   24.0460 C   0  0  0  0  0  0  0  0  0  0  0  0
  -27.6837  -31.1506   26.1707 C   0  0  0  0  0  0  0  0  0  0  0  0
  -25.3222  -31.9482   26.0716 C   0  0  0  0  0  0  0  0  0  0  0  0
  -30.0403  -15.8865   20.6898 C   0  0  0  0  0  0  0  0  0  0  0  0
  -24.9046  -25.1152   26.1562 C   0  0  0  0  0  0  0  0  0  0  0  0
  -28.1892  -24.3557   18.4425 C   0  0  0  0  0  0  0  0  0  1  0  0
  -25.9609  -29.8141   24.8759 C   0  0  1  0  0  0  0  0  0  0  0  0
  -25.6779  -27.0816   27.4880 C   0  0  2  0  0  0  0  0  0  0  0  0
  -26.4354  -31.2420   25.2673 C   0  0  0  0  0  0  0  0  0  0  0  0
  -26.0256  -11.6448   20.4774 N   0  0  0  0  0  0  0  0  0  0  0  0
  -27.1771  -12.2765   20.7620 N   0  0  0  0  0  0  0  0  0  0  0  0
  -29.5332  -21.8354   19.8658 N   0  0  0  0  0  0  0  0  0  0  0  0
  -24.9105  -29.2432   22.7092 N   0  0  0  0  0  0  0  0  0  0  0  0
  -27.9001  -15.5376   18.8915 N   0  0  0  0  0  0  0  0  0  0  0  0
  -28.8203  -12.5400   22.4476 N   0  0  0  0  0  0  0  0  0  0  0  0
  -25.8854   -9.6481   24.2967 N   0  0  0  0  0  0  0  0  0  0  0  0
  -23.2917  -30.9104   19.8991 N   0  0  0  0  0  0  0  0  0  0  0  0
  -25.6026  -28.9712   26.0115 N   0  0  0  0  0  0  0  0  0  0  0  0
  -29.1918  -17.0062   20.2689 N   0  0  0  0  0  0  0  0  0  0  0  0
  -25.6946  -25.6013   27.3166 N   0  3  0  0  0  0  0  0  0  0  0  0
  -29.0519  -21.2577   17.6239 O   0  0  0  0  0  0  0  0  0  0  0  0
  -29.9533  -23.7508   21.1871 O   0  0  0  0  0  0  0  0  0  0  0  0
  -27.8347  -10.8032   24.6496 O   0  0  0  0  0  0  0  0  0  0  0  0
  -25.3039  -31.1456   21.0474 O   0  0  0  0  0  0  0  0  0  0  0  0
  -23.7083  -30.3564   24.3679 O   0  0  0  0  0  0  0  0  0  0  0  0
  -27.1153  -27.2738   25.5555 O   0  0  0  0  0  0  0  0  0  0  0  0
  -28.0379  -17.7988   18.4190 O   0  0  0  0  0  0  0  0  0  0  0  0
  -21.2357   -7.7052   21.9217 O   0  0  0  0  0  0  0  0  0  0  0  0
  -28.3333  -25.6336   19.0611 O   0  0  0  0  0  0  0  0  0  1  0  0
  -21.8585   -2.6127   23.9424 F   0  0  0  0  0  0  0  0  0  0  0  0
  -20.5962   -5.4875   20.4000 F   0  0  0  0  0  0  0  0  0  0  0  0
  1  2  1  0  0  0  0
  1  6  2  0  0  0  0
  2  7  2  0  0  0  0
  3  9  2  0  0  0  0
  3 10  1  0  0  0  0
  4 11  2  0  0  0  0
  4 19  1  0  0  0  0
  5 12  1  0  0  0  0
  5 19  2  0  0  0  0
  6 21  1  0  0  0  0
  7 23  1  0  0  0  0
  8 13  2  0  0  0  0
  8 22  1  0  0  0  0
  9 25  1  0  0  0  0
 10 26  2  0  0  0  0
 11 27  1  0  0  0  0
 12 27  2  0  0  0  0
 13 28  1  0  0  0  0
 14 15  2  0  0  0  0
 14 29  1  0  0  0  0
 15 30  1  0  0  0  0
 16 24  1  0  0  0  0
 16 28  2  0  0  0  0
 17 25  2  0  0  0  0
 17 26  1  0  0  0  0
 18 30  2  0  0  0  0
 18 31  1  0  0  0  0
 19 32  1  0  0  0  0
 20 32  1  0  0  0  0
 20 33  2  0  0  0  0
 20 36  1  0  0  0  0
 21 23  2  0  0  0  0
 21 41  1  0  0  0  0
 22 24  2  0  0  0  0
 22 42  1  0  0  0  0
 23 50  1  0  0  0  0
 24 43  1  0  0  0  0
 25 67  1  0  0  0  0
 26 74  1  0  0  0  0
 27 83  1  0  0  0  0
 28 84  1  0  0  0  0
 29 31  2  0  0  0  0
 29 83  1  0  0  0  0
 30 85  1  0  0  0  0
 31 86  1  0  0  0  0
 32 65  2  0  0  0  0
 33 66  1  0  0  0  0
 33 70  1  0  0  0  0
 34 53  1  0  0  0  0
 34 67  1  0  0  0  0
 34 76  2  0  0  0  0
 35 53  1  0  0  0  0
 35 67  1  0  0  0  0
 35 77  2  0  0  0  0
 36 71  1  0  0  0  0
 36 78  2  0  0  0  0
 37 51  1  0  0  0  0
 37 72  1  0  0  0  0
 37 79  2  0  0  0  0
 38 62  1  0  0  0  0
 38 68  1  0  0  0  0
 38 80  2  0  0  0  0
 39 63  1  0  0  0  0
 39 73  1  0  0  0  0
 39 81  2  0  0  0  0
 40 69  1  0  0  0  0
 40 74  1  0  0  0  0
 40 82  2  0  0  0  0
 41 44  1  0  0  0  0
 42 51  1  0  0  0  0
 43 68  1  0  0  0  0
 44 46  1  0  0  0  0
 45 47  1  0  0  0  0
 45 48  1  0  0  0  0
 46 50  1  0  0  0  0
 47 52  1  0  0  0  0
 48 69  1  0  0  0  0
 49 52  1  0  0  0  0
 49 69  1  0  0  0  0
 50 72  1  0  0  0  0
 51 68  1  0  0  0  0
 52 66  1  0  0  0  0
 53 54  1  0  0  0  0
 53 61  1  0  0  0  0
 55 63  1  0  0  0  0
 56 64  1  0  0  0  0
 57 64  1  0  0  0  0
 58 64  1  0  0  0  0
 59 74  1  0  0  0  0
 60 75  1  0  0  0  0
 61 84  1  0  0  0  0
 62 64  1  0  0  0  0
 62 73  1  0  0  0  0
 63 75  1  0  0  0  0
 65 66  1  0  0  0  0
M  CHG  1  75   1
M  ISO  4  40 100  61 101  74 100  84 101
M  END
> <Batch ID>
0076

> <Smiles>
CNC(C)C(=O)NC(C(=O)N1Cc2cc([101O:1][101CH2:1]C3(C)C(=O)N(c4cccc([100N:0](C)[100C:0](=O)N5CCCC(n6nc(-c7ccc(Oc8ccc(F)cc8F)cc7)c(C(N)=O)c6N)C5)c4)C3=O)ccc2CC1C(=O)NC1CCCc2ccccc21)C(C)(C)C

> <Shape>
0.299

> <Color>
0.077

> <Negative vol penalty>
0.000

$$$$

  -OEChem-04042323503D

 86 95  0     1  0  0  0  0  0999 V2000
  -29.8940  -36.2392   24.0409 C   0  0  0  0  0  0  0  0  0  0  0  0
  -29.9811  -35.0248   23.3678 C   0  0  0  0  0  0  0  0  0  0  0  0
  -24.4153   -8.5172   21.4147 C   0  0  0  0  0  0  0  0  0  0  0  0
  -24.3655  -10.0810   23.2556 C   0  0  0  0  0  0  0  0  0  0  0  0
  -28.8591  -36.4590   24.9489 C   0  0  0  0  0  0  0  0  0  0  0  0
  -29.0338  -34.0290   23.6031 C   0  0  0  0  0  0  0  0  0  0  0  0
  -26.8258  -30.0139   19.5399 C   0  0  0  0  0  0  0  0  0  0  0  0
  -24.0381   -7.4887   22.2781 C   0  0  0  0  0  0  0  0  0  0  0  0
  -23.9882   -9.0526   24.1190 C   0  0  0  0  0  0  0  0  0  0  0  0
  -27.1443  -28.6844   19.2669 C   0  0  0  0  0  0  0  0  0  0  0  0
  -21.1970   -6.3755   23.7348 C   0  0  0  0  0  0  0  0  0  0  0  0
  -20.1977   -5.5024   23.3053 C   0  0  0  0  0  0  0  0  0  0  0  0
  -25.3336  -27.9647   20.6890 C   0  0  0  0  0  0  0  0  0  0  0  0
  -27.0294  -20.0945   19.8517 C   0  0  0  0  0  0  0  0  0  0  0  0
  -29.4777  -18.7573   19.8351 C   0  0  0  0  0  0  0  0  0  0  0  0
  -21.7346   -3.6483   23.4985 C   0  0  0  0  0  0  0  0  0  0  0  0
  -24.5791   -9.8133   21.9034 C   0  0  0  0  0  0  0  0  0  0  0  0
  -24.1197  -11.7201   20.2723 C   0  0  0  0  0  0  0  0  0  0  0  0
  -27.8931  -35.4690   25.1883 C   0  0  0  0  0  0  0  0  0  0  0  0
  -25.7638  -30.3293   20.3997 C   0  0  0  0  0  0  0  0  0  0  0  0
  -27.9857  -34.2352   24.5162 C   0  0  0  0  0  0  0  0  0  0  0  0
  -25.0020  -29.2991   20.9693 C   0  0  0  0  0  0  0  0  0  0  0  0
  -28.2136  -20.8054   20.0461 C   0  0  0  0  0  0  0  0  0  0  0  0
  -28.2934  -18.0464   19.6407 C   0  0  0  0  0  0  0  0  0  0  0  0
  -23.8245   -7.7564   23.6303 C   0  0  0  0  0  0  0  0  0  0  0  0
  -26.4000  -27.6595   19.8437 C   0  0  0  0  0  0  0  0  0  0  0  0
  -22.4652   -5.8851   24.0461 C   0  0  0  0  0  0  0  0  0  0  0  0
  -20.4664   -4.1388   23.1872 C   0  0  0  0  0  0  0  0  0  0  0  0
  -27.0693  -18.7150   19.6491 C   0  0  0  0  0  0  0  0  0  0  0  0
  -29.4378  -20.1368   20.0378 C   0  0  0  0  0  0  0  0  0  0  0  0
  -22.7340   -4.5215   23.9279 C   0  0  0  0  0  0  0  0  0  0  0  0
  -24.9694  -10.8760   21.0121 C   0  0  0  0  0  0  0  0  0  0  0  0
  -24.9724  -12.5525   19.5893 C   0  0  0  0  0  0  0  0  0  0  0  0
  -27.0605  -22.9762   20.2840 C   0  0  0  0  0  0  0  0  0  0  0  0
  -27.3704  -24.2622   20.4985 C   0  0  0  0  0  0  0  0  0  0  0  0
  -28.8164  -24.3678   20.6214 C   0  0  0  0  0  0  0  0  0  0  0  0
  -29.5380  -25.4717   20.8395 C   0  0  0  0  0  0  0  0  0  0  0  0
  -22.6877  -11.7492   20.2082 C   0  0  0  0  0  0  0  0  0  0  0  0
  -25.5039  -31.8453   23.1813 C   0  0  0  0  0  0  0  0  0  0  0  0
  -22.3273  -31.4509   22.6559 C   0  0  0  0  0  0  0  0  0  0  0  0
  -19.8423  -29.6921   21.1139 C   0  0  0  0  0  0  0  0  0  0  0  0
  -29.4691  -15.8310   19.4040 C   0  0  0  0  0  0  0  0  0  0  0  0
  -26.8198  -35.7349   26.2141 C   0  0  0  0  0  0  0  0  0  0  0  0
  -25.4161  -31.7688   20.6629 C   0  0  0  0  0  0  0  0  0  0  0  0
  -23.8393  -29.5848   21.8831 C   0  0  0  0  0  0  0  0  0  0  0  0
  -29.3880  -22.9693   20.4552 C   0  0  0  0  0  0  0  0  0  0  0  0
  -25.6418  -34.7679   26.1278 C   0  0  0  0  0  0  0  0  0  0  0  0
  -29.9912  -12.3361   18.9675 C   0  0  0  0  0  0  0  0  0  0  0  0
  -26.1386  -33.3309   26.0049 C   0  0  0  0  0  0  0  0  0  0  0  0
  -28.6614  -11.7142   19.3997 C   0  0  0  0  0  0  0  0  0  0  0  0
  -30.3555  -13.5477   19.8237 C   0  0  0  0  0  0  0  0  0  0  0  0
  -27.9834  -13.9561   20.3489 C   0  0  0  0  0  0  0  0  0  0  0  0
  -26.9631  -33.1397   24.7261 C   0  0  1  0  0  0  0  0  0  0  0  0
  -24.6377  -31.9679   21.9598 C   0  0  1  0  0  0  0  0  0  0  0  0
  -27.5424  -12.7715   19.4738 C   0  0  2  0  0  0  0  0  0  0  0  0
  -17.3438  -29.5819   20.9064 C   0  0  0  0  0  0  0  0  0  0  0  0
  -22.1570  -30.1674   25.4188 C   0  0  0  0  0  0  0  0  0  0  0  0
  -19.9203  -29.2446   24.7755 C   0  0  0  0  0  0  0  0  0  0  0  0
  -20.2694  -31.7128   24.8682 C   0  0  0  0  0  0  0  0  0  0  0  0
  -19.9459  -30.1974   18.1996 C   0  0  0  0  0  0  0  0  0  0  0  0
  -26.4276  -25.4053   20.6010 C   0  0  0  0  0  0  0  0  0  1  0  0
  -21.3132  -30.3832   22.9882 C   0  0  1  0  0  0  0  0  0  0  0  0
  -18.6294  -30.1459   20.3217 C   0  0  2  0  0  0  0  0  0  0  0  0
  -20.9380  -30.3712   24.4970 C   0  0  0  0  0  0  0  0  0  0  0  0
  -26.2626  -11.1472   20.8174 N   0  0  0  0  0  0  0  0  0  0  0  0
  -26.2320  -12.1711   19.9474 N   0  0  0  0  0  0  0  0  0  0  0  0
  -28.1719  -22.1622   20.2454 N   0  0  0  0  0  0  0  0  0  0  0  0
  -23.5426  -31.0082   22.1148 N   0  0  0  0  0  0  0  0  0  0  0  0
  -29.2502  -14.5084   19.8439 N   0  0  0  0  0  0  0  0  0  0  0  0
  -24.7602  -13.5662   18.7234 N   0  0  0  0  0  0  0  0  0  0  0  0
  -21.9656  -10.8237   20.9739 N   0  0  0  0  0  0  0  0  0  0  0  0
  -28.3372  -16.6447   19.4379 N   0  0  0  0  0  0  0  0  0  0  0  0
  -26.0926  -33.0319   23.5750 N   0  0  0  0  0  0  0  0  0  0  0  0
  -20.1822  -30.6016   22.0929 N   0  0  0  0  0  0  0  0  0  0  0  0
  -18.7383  -29.6963   18.9050 N   0  3  0  0  0  0  0  0  0  0  0  0
  -22.0671  -12.5609   19.4804 O   0  0  0  0  0  0  0  0  0  0  0  0
  -25.6278  -30.7552   23.7273 O   0  0  0  0  0  0  0  0  0  0  0  0
  -22.0486  -32.6348   22.8620 O   0  0  0  0  0  0  0  0  0  0  0  0
  -20.4271  -28.6348   20.8893 O   0  0  0  0  0  0  0  0  0  0  0  0
  -30.5726  -16.2061   18.9994 O   0  0  0  0  0  0  0  0  0  0  0  0
  -23.4561   -6.7531   24.4731 O   0  0  0  0  0  0  0  0  0  0  0  0
  -26.7093  -26.3609   19.5794 O   0  0  0  0  0  0  0  0  0  1  0  0
  -19.5062   -3.3002   22.7762 F   0  0  0  0  0  0  0  0  0  0  0  0
  -25.9251  -18.0409   19.4646 F   0  0  0  0  0  0  0  0  0  0  0  0
  -30.5824  -20.8094   20.2248 F   0  0  0  0  0  0  0  0  0  0  0  0
  -23.9501   -4.0443   24.2267 F   0  0  0  0  0  0  0  0  0  0  0  0
  1  2  1  0  0  0  0
  1  5  2  0  0  0  0
  2  6  2  0  0  0  0
  3  8  2  0  0  0  0
  3 17  1  0  0  0  0
  4  9  1  0  0  0  0
  4 17  2  0  0  0  0
  5 19  1  0  0  0  0
  6 21  1  0  0  0  0
  7 10  2  0  0  0  0
  7 20  1  0  0  0  0
  8 25  1  0  0  0  0
  9 25  2  0  0  0  0
 10 26  1  0  0  0  0
 11 12  2  0  0  0  0
 11 27  1  0  0  0  0
 12 28  1  0  0  0  0
 13 22  1  0  0  0  0
 13 26  2  0  0  0  0
 14 23  1  0  0  0  0
 14 29  2  0  0  0  0
 15 24  2  0  0  0  0
 15 30  1  0  0  0  0
 16 28  2  0  0  0  0
 16 31  1  0  0  0  0
 17 32  1  0  0  0  0
 18 32  1  0  0  0  0
 18 33  2  0  0  0  0
 18 38  1  0  0  0  0
 19 21  2  0  0  0  0
 19 43  1  0  0  0  0
 20 22  2  0  0  0  0
 20 44  1  0  0  0  0
 21 53  1  0  0  0  0
 22 45  1  0  0  0  0
 23 30  2  0  0  0  0
 23 67  1  0  0  0  0
 24 29  1  0  0  0  0
 24 72  1  0  0  0  0
 25 81  1  0  0  0  0
 26 82  1  0  0  0  0
 27 31  2  0  0  0  0
 27 81  1  0  0  0  0
 28 83  1  0  0  0  0
 29 84  1  0  0  0  0
 30 85  1  0  0  0  0
 31 86  1  0  0  0  0
 32 65  2  0  0  0  0
 33 66  1  0  0  0  0
 33 70  1  0  0  0  0
 34 35  2  0  0  0  0
 34 67  1  0  0  0  0
 35 36  1  0  0  0  0
 35 61  1  0  0  0  0
 36 37  2  0  0  0  0
 36 46  1  0  0  0  0
 38 71  1  0  0  0  0
 38 76  2  0  0  0  0
 39 54  1  0  0  0  0
 39 73  1  0  0  0  0
 39 77  2  0  0  0  0
 40 62  1  0  0  0  0
 40 68  1  0  0  0  0
 40 78  2  0  0  0  0
 41 63  1  0  0  0  0
 41 74  1  0  0  0  0
 41 79  2  0  0  0  0
 42 69  1  0  0  0  0
 42 72  1  0  0  0  0
 42 80  2  0  0  0  0
 43 47  1  0  0  0  0
 44 54  1  0  0  0  0
 45 68  1  0  0  0  0
 46 67  1  0  0  0  0
 47 49  1  0  0  0  0
 48 50  1  0  0  0  0
 48 51  1  0  0  0  0
 49 53  1  0  0  0  0
 50 55  1  0  0  0  0
 51 69  1  0  0  0  0
 52 55  1  0  0  0  0
 52 69  1  0  0  0  0
 53 73  1  0  0  0  0
 54 68  1  0  0  0  0
 55 66  1  0  0  0  0
 56 63  1  0  0  0  0
 57 64  1  0  0  0  0
 58 64  1  0  0  0  0
 59 64  1  0  0  0  0
 60 75  1  0  0  0  0
 61 82  1  0  0  0  0
 62 64  1  0  0  0  0
 62 74  1  0  0  0  0
 63 75  1  0  0  0  0
 65 66  1  0  0  0  0
M  CHG  1  75   1
M  ISO  4  42 100  61 101  72 100  82 101
M  END
> <Batch ID>
0076

> <Smiles>
C=C1CN(c2cc(F)c([100NH:0][100C:0](=O)N3CCCC(n4nc(-c5ccc(Oc6ccc(F)cc6F)cc5)c(C(N)=O)c4N)C3)cc2F)C=C1[101CH2:1][101O:1]c1ccc2c(c1)CN(C(=O)C(NC(=O)C(C)NC)C(C)(C)C)C(C(=O)NC1CCCc3ccccc31)C2

> <Shape>
0.321

> <Color>
0.090

> <Negative vol penalty>
0.000

$$$$

  -OEChem-04042323503D

 85 94  0     1  0  0  0  0  0999 V2000
  -16.7797  -29.0630   24.1537 C   0  0  0  0  0  0  0  0  0  0  0  0
  -17.4155  -28.1208   23.3515 C   0  0  0  0  0  0  0  0  0  0  0  0
  -28.4036  -20.8828   19.9440 C   0  0  0  0  0  0  0  0  0  0  0  0
  -24.1833   -8.8696   20.1230 C   0  0  0  0  0  0  0  0  0  0  0  0
  -23.1568  -10.5323   21.5438 C   0  0  0  0  0  0  0  0  0  0  0  0
  -17.2473  -30.3760   24.1890 C   0  0  0  0  0  0  0  0  0  0  0  0
  -18.5186  -28.4914   22.5832 C   0  0  0  0  0  0  0  0  0  0  0  0
  -22.2922  -25.1250   22.8516 C   0  0  0  0  0  0  0  0  0  0  0  0
  -27.2762  -21.4014   19.3072 C   0  0  0  0  0  0  0  0  0  0  0  0
  -28.6356  -19.5073   19.9408 C   0  0  0  0  0  0  0  0  0  0  0  0
  -23.5182   -7.8620   20.8215 C   0  0  0  0  0  0  0  0  0  0  0  0
  -22.4917   -9.5247   22.2423 C   0  0  0  0  0  0  0  0  0  0  0  0
  -22.1635  -23.9625   22.0929 C   0  0  0  0  0  0  0  0  0  0  0  0
  -23.8655   -6.2188   23.7547 C   0  0  0  0  0  0  0  0  0  0  0  0
  -24.6005   -5.0913   24.1208 C   0  0  0  0  0  0  0  0  0  0  0  0
  -23.6175  -24.9043   20.4142 C   0  0  0  0  0  0  0  0  0  0  0  0
  -26.6127  -19.1691   18.6639 C   0  0  0  0  0  0  0  0  0  0  0  0
  -23.1072   -3.6985   22.8296 C   0  0  0  0  0  0  0  0  0  0  0  0
  -24.0027  -10.2047   20.4841 C   0  0  0  0  0  0  0  0  0  0  0  0
  -24.2323  -11.9364   18.6250 C   0  0  0  0  0  0  0  0  0  0  0  0
  -18.3626  -30.7606   23.4282 C   0  0  0  0  0  0  0  0  0  0  0  0
  -23.0771  -26.1921   22.3914 C   0  0  0  0  0  0  0  0  0  0  0  0
  -19.0007  -29.8112   22.6074 C   0  0  0  0  0  0  0  0  0  0  0  0
  -23.7566  -26.0783   21.1702 C   0  0  0  0  0  0  0  0  0  0  0  0
  -26.3808  -20.5446   18.6672 C   0  0  0  0  0  0  0  0  0  0  0  0
  -27.7401  -18.6505   19.3008 C   0  0  0  0  0  0  0  0  0  0  0  0
  -22.6724   -8.1895   21.8812 C   0  0  0  0  0  0  0  0  0  0  0  0
  -22.8239  -23.8531   20.8727 C   0  0  0  0  0  0  0  0  0  0  0  0
  -22.7512   -6.0861   22.9261 C   0  0  0  0  0  0  0  0  0  0  0  0
  -24.2214   -3.8311   23.6583 C   0  0  0  0  0  0  0  0  0  0  0  0
  -22.3721   -4.8260   22.4636 C   0  0  0  0  0  0  0  0  0  0  0  0
  -24.6899  -11.2460   19.7633 C   0  0  0  0  0  0  0  0  0  0  0  0
  -25.2439  -12.8165   18.3274 C   0  0  0  0  0  0  0  0  0  0  0  0
  -23.9969  -21.8126   16.1979 C   0  0  0  0  0  0  0  0  0  0  0  0
  -24.1979  -21.8107   18.5691 C   0  0  0  0  0  0  0  0  0  0  0  0
  -23.6400  -22.1254   14.9478 C   0  0  0  0  0  0  0  0  0  0  0  0
  -23.0026  -11.7949   17.9014 C   0  0  0  0  0  0  0  0  0  0  0  0
  -23.8321  -22.0104   19.8437 C   0  0  0  0  0  0  0  0  0  1  0  0
  -22.5101  -29.2213   21.6130 C   0  0  0  0  0  0  0  0  0  0  0  0
  -25.7391  -29.3452   21.3289 C   0  0  0  0  0  0  0  0  0  0  0  0
  -28.6672  -27.6741   20.7992 C   0  0  0  0  0  0  0  0  0  0  0  0
  -29.0446  -16.5759   19.8845 C   0  0  0  0  0  0  0  0  0  0  0  0
  -18.8025  -32.2028   23.4628 C   0  0  0  0  0  0  0  0  0  0  0  0
  -23.2272  -27.4288   23.2343 C   0  0  0  0  0  0  0  0  0  0  0  0
  -24.6277  -27.1872   20.6411 C   0  0  0  0  0  0  0  0  0  0  0  0
  -23.3611  -22.3676   17.4400 C   0  0  0  0  0  0  0  0  0  0  0  0
  -25.1267  -20.8896   16.5663 C   0  0  0  0  0  0  0  0  0  0  0  0
  -20.2066  -32.4248   22.9064 C   0  0  0  0  0  0  0  0  0  0  0  0
  -29.9617  -13.1444   20.1321 C   0  0  0  0  0  0  0  0  0  0  0  0
  -20.3815  -31.6810   21.5862 C   0  0  0  0  0  0  0  0  0  0  0  0
  -28.6343  -12.4014   19.9646 C   0  0  0  0  0  0  0  0  0  0  0  0
  -29.7896  -14.4427   20.9187 C   0  0  0  0  0  0  0  0  0  0  0  0
  -27.4284  -14.6059   20.2349 C   0  0  0  0  0  0  0  0  0  0  0  0
  -20.2154  -30.1688   21.7788 C   0  0  1  0  0  0  0  0  0  0  0  0
  -23.6395  -28.6557   22.4269 C   0  0  1  0  0  0  0  0  0  0  0  0
  -27.5401  -13.3243   19.3931 C   0  0  2  0  0  0  0  0  0  0  0  0
  -24.6022  -21.4946   21.0164 C   0  0  0  0  0  0  0  0  0  0  0  0
  -31.1390  -28.0503   20.5847 C   0  0  0  0  0  0  0  0  0  0  0  0
  -25.3239  -30.4542   18.5168 C   0  0  0  0  0  0  0  0  0  0  0  0
  -27.7192  -29.9157   18.0261 C   0  0  0  0  0  0  0  0  0  0  0  0
  -27.1534  -31.5600   19.8146 C   0  0  0  0  0  0  0  0  0  0  0  0
  -29.2494  -25.9509   23.1339 C   0  0  0  0  0  0  0  0  0  0  0  0
  -26.7242  -29.1002   20.2115 C   0  0  1  0  0  0  0  0  0  0  0  0
  -29.9967  -27.7146   21.5309 C   0  0  2  0  0  0  0  0  0  0  0  0
  -26.7123  -30.2372   19.1510 C   0  0  0  0  0  0  0  0  0  0  0  0
  -25.8983  -11.6523   20.1616 N   0  0  0  0  0  0  0  0  0  0  0  0
  -26.2086  -12.6076   19.2687 N   0  0  0  0  0  0  0  0  0  0  0  0
  -25.2413  -21.0693   18.0228 N   0  0  0  0  0  0  0  0  0  0  0  0
  -24.7377  -28.3787   21.4988 N   0  0  0  0  0  0  0  0  0  0  0  0
  -28.7399  -15.2679   20.3169 N   0  0  0  0  0  0  0  0  0  0  0  0
  -25.3935  -13.7408   17.3550 N   0  0  0  0  0  0  0  0  0  0  0  0
  -22.0734  -10.8430   18.3428 N   0  0  0  0  0  0  0  0  0  0  0  0
  -27.9756  -17.2532   19.2988 N   0  0  0  0  0  0  0  0  0  0  0  0
  -21.4116  -29.5991   22.3612 N   0  0  0  0  0  0  0  0  0  0  0  0
  -28.0199  -28.8906   20.8483 N   0  0  0  0  0  0  0  0  0  0  0  0
  -30.2812  -26.3947   22.1616 N   0  3  0  0  0  0  0  0  0  0  0  0
  -22.7428  -12.4805   16.8836 O   0  0  0  0  0  0  0  0  0  0  0  0
  -22.6274  -29.3098   20.3964 O   0  0  0  0  0  0  0  0  0  0  0  0
  -25.8581  -30.3533   22.0298 O   0  0  0  0  0  0  0  0  0  0  0  0
  -28.2467  -26.6653   20.2370 O   0  0  0  0  0  0  0  0  0  0  0  0
  -30.1779  -17.0497   19.9988 O   0  0  0  0  0  0  0  0  0  0  0  0
  -22.0230   -7.2066   22.5629 O   0  0  0  0  0  0  0  0  0  0  0  0
  -22.6995  -22.7197   20.1298 O   0  0  0  0  0  0  0  0  0  1  0  0
  -24.9283   -2.7487   24.0087 F   0  0  0  0  0  0  0  0  0  0  0  0
  -21.3033   -4.6924   21.6663 F   0  0  0  0  0  0  0  0  0  0  0  0
  1  2  1  0  0  0  0
  1  6  2  0  0  0  0
  2  7  2  0  0  0  0
  3  9  2  0  0  0  0
  3 10  1  0  0  0  0
  4 11  2  0  0  0  0
  4 19  1  0  0  0  0
  5 12  1  0  0  0  0
  5 19  2  0  0  0  0
  6 21  1  0  0  0  0
  7 23  1  0  0  0  0
  8 13  2  0  0  0  0
  8 22  1  0  0  0  0
  9 25  1  0  0  0  0
 10 26  2  0  0  0  0
 11 27  1  0  0  0  0
 12 27  2  0  0  0  0
 13 28  1  0  0  0  0
 14 15  2  0  0  0  0
 14 29  1  0  0  0  0
 15 30  1  0  0  0  0
 16 24  1  0  0  0  0
 16 28  2  0  0  0  0
 17 25  2  0  0  0  0
 17 26  1  0  0  0  0
 18 30  2  0  0  0  0
 18 31  1  0  0  0  0
 19 32  1  0  0  0  0
 20 32  1  0  0  0  0
 20 33  2  0  0  0  0
 20 37  1  0  0  0  0
 21 23  2  0  0  0  0
 21 43  1  0  0  0  0
 22 24  2  0  0  0  0
 22 44  1  0  0  0  0
 23 54  1  0  0  0  0
 24 45  1  0  0  0  0
 25 68  1  0  0  0  0
 26 73  1  0  0  0  0
 27 82  1  0  0  0  0
 28 83  1  0  0  0  0
 29 31  2  0  0  0  0
 29 82  1  0  0  0  0
 30 84  1  0  0  0  0
 31 85  1  0  0  0  0
 32 66  2  0  0  0  0
 33 67  1  0  0  0  0
 33 71  1  0  0  0  0
 34 36  2  0  0  0  0
 34 46  1  0  0  0  0
 34 47  1  0  0  0  0
 35 38  2  0  0  0  0
 35 46  1  0  0  0  0
 35 68  1  0  0  0  0
 37 72  1  0  0  0  0
 37 77  2  0  0  0  0
 38 57  1  0  0  0  0
 38 83  1  0  0  0  0
 39 55  1  0  0  0  0
 39 74  1  0  0  0  0
 39 78  2  0  0  0  0
 40 63  1  0  0  0  0
 40 69  1  0  0  0  0
 40 79  2  0  0  0  0
 41 64  1  0  0  0  0
 41 75  1  0  0  0  0
 41 80  2  0  0  0  0
 42 70  1  0  0  0  0
 42 73  1  0  0  0  0
 42 81  2  0  0  0  0
 43 48  1  0  0  0  0
 44 55  1  0  0  0  0
 45 69  1  0  0  0  0
 47 68  1  0  0  0  0
 48 50  1  0  0  0  0
 49 51  1  0  0  0  0
 49 52  1  0  0  0  0
 50 54  1  0  0  0  0
 51 56  1  0  0  0  0
 52 70  1  0  0  0  0
 53 56  1  0  0  0  0
 53 70  1  0  0  0  0
 54 74  1  0  0  0  0
 55 69  1  0  0  0  0
 56 67  1  0  0  0  0
 58 64  1  0  0  0  0
 59 65  1  0  0  0  0
 60 65  1  0  0  0  0
 61 65  1  0  0  0  0
 62 76  1  0  0  0  0
 63 65  1  0  0  0  0
 63 75  1  0  0  0  0
 64 76  1  0  0  0  0
 66 67  1  0  0  0  0
M  CHG  1  76   1
M  ISO  4  38 101  42 100  73 100  83 101
M  END
> <Batch ID>
0076

> <Smiles>
C=C1CC(=[101C:1](C)[101O:1]c2ccc3c(c2)CN(C(=O)C(NC(=O)C(C)NC)C(C)(C)C)C(C(=O)NC2CCCc4ccccc42)C3)N(c2cccc([100NH:0][100C:0](=O)N3CCCC(n4nc(-c5ccc(Oc6ccc(F)cc6F)cc5)c(C(N)=O)c4N)C3)c2)C1

> <Shape>
0.254

> <Color>
0.119

> <Negative vol penalty>
0.000

$$$$

  -OEChem-04042323503D

 85 94  0     1  0  0  0  0  0999 V2000
  -17.7942  -31.6562   24.5957 C   0  0  0  0  0  0  0  0  0  0  0  0
  -18.5493  -30.6386   25.1699 C   0  0  0  0  0  0  0  0  0  0  0  0
  -23.5404   -9.4762   20.4084 C   0  0  0  0  0  0  0  0  0  0  0  0
  -24.0945  -10.0348   22.6927 C   0  0  0  0  0  0  0  0  0  0  0  0
  -17.8211  -31.8485   23.2150 C   0  0  0  0  0  0  0  0  0  0  0  0
  -19.3308  -29.8118   24.3636 C   0  0  0  0  0  0  0  0  0  0  0  0
  -24.7543  -27.3460   25.7819 C   0  0  0  0  0  0  0  0  0  0  0  0
  -22.9625   -8.2825   20.8404 C   0  0  0  0  0  0  0  0  0  0  0  0
  -23.5166   -8.8411   23.1247 C   0  0  0  0  0  0  0  0  0  0  0  0
  -25.1180  -26.0815   26.2429 C   0  0  0  0  0  0  0  0  0  0  0  0
  -20.4085   -7.6454   23.6997 C   0  0  0  0  0  0  0  0  0  0  0  0
  -19.5706   -7.6988   24.8135 C   0  0  0  0  0  0  0  0  0  0  0  0
  -25.6061  -25.4036   23.9799 C   0  0  0  0  0  0  0  0  0  0  0  0
  -28.8354  -18.5601   22.4156 C   0  0  0  0  0  0  0  0  0  0  0  0
  -21.0261   -6.1648   25.9820 C   0  0  0  0  0  0  0  0  0  0  0  0
  -30.5903  -19.8779   23.3324 C   0  0  0  0  0  0  0  0  0  0  0  0
  -31.1281  -17.9984   22.1256 C   0  0  0  0  0  0  0  0  0  0  0  0
  -24.1065  -10.3524   21.3345 C   0  0  0  0  0  0  0  0  0  0  0  0
  -24.0686  -12.8324   20.7381 C   0  0  0  0  0  0  0  0  0  0  0  0
  -18.6109  -31.0299   22.3924 C   0  0  0  0  0  0  0  0  0  0  0  0
  -24.8034  -27.6459   24.4130 C   0  0  0  0  0  0  0  0  0  0  0  0
  -19.3672  -29.9925   22.9705 C   0  0  0  0  0  0  0  0  0  0  0  0
  -25.2449  -26.6734   23.5044 C   0  0  0  0  0  0  0  0  0  0  0  0
  -29.2322  -19.6707   23.1522 C   0  0  0  0  0  0  0  0  0  0  0  0
  -29.7952  -17.7029   21.8891 C   0  0  0  0  0  0  0  0  0  0  0  0
  -22.9506   -7.9650   22.1986 C   0  0  0  0  0  0  0  0  0  0  0  0
  -25.5412  -25.1092   25.3416 C   0  0  0  0  0  0  0  0  0  0  0  0
  -21.5552   -6.8517   23.7269 C   0  0  0  0  0  0  0  0  0  0  0  0
  -19.8794   -6.9585   25.9546 C   0  0  0  0  0  0  0  0  0  0  0  0
  -21.8640   -6.1114   24.8681 C   0  0  0  0  0  0  0  0  0  0  0  0
  -24.7042  -11.5853   20.8887 C   0  0  0  0  0  0  0  0  0  0  0  0
  -25.0605  -13.6718   20.2932 C   0  0  0  0  0  0  0  0  0  0  0  0
  -27.3817  -22.3346   24.8309 C   0  0  0  0  0  0  0  0  0  0  0  0
  -26.2927  -21.5095   24.2602 C   0  0  0  0  0  0  0  0  0  0  0  0
  -22.7037  -13.1993   20.9790 C   0  0  0  0  0  0  0  0  0  0  0  0
  -27.1709  -23.4441   25.5477 C   0  0  0  0  0  0  0  0  0  1  0  0
  -22.6599  -28.4913   22.2234 C   0  0  0  0  0  0  0  0  0  0  0  0
  -25.2853  -28.8355   20.3497 C   0  0  0  0  0  0  0  0  0  0  0  0
  -28.5310  -27.9854   19.7257 C   0  0  0  0  0  0  0  0  0  0  0  0
  -30.2693  -15.6227   20.5496 C   0  0  0  0  0  0  0  0  0  0  0  0
  -18.5710  -31.2459   20.9002 C   0  0  0  0  0  0  0  0  0  0  0  0
  -24.4333  -29.0231   23.9347 C   0  0  0  0  0  0  0  0  0  0  0  0
  -25.3350  -26.9514   22.0268 C   0  0  0  0  0  0  0  0  0  0  0  0
  -28.6859  -21.7082   24.4619 C   0  0  0  0  0  0  0  0  0  0  0  0
  -26.8753  -20.3420   23.5176 C   0  0  0  0  0  0  0  0  0  0  0  0
  -19.7164  -30.5652   20.1554 C   0  0  0  0  0  0  0  0  0  0  0  0
  -29.7390  -12.6603   18.6469 C   0  0  0  0  0  0  0  0  0  0  0  0
  -19.8904  -29.1296   20.6408 C   0  0  0  0  0  0  0  0  0  0  0  0
  -28.3296  -12.2192   19.0481 C   0  0  0  0  0  0  0  0  0  0  0  0
  -30.5041  -13.2567   19.8270 C   0  0  0  0  0  0  0  0  0  0  0  0
  -28.3996  -13.8989   20.9350 C   0  0  0  0  0  0  0  0  0  0  0  0
  -20.2467  -29.0908   22.1317 C   0  0  1  0  0  0  0  0  0  0  0  0
  -24.0312  -29.0566   22.4634 C   0  0  1  0  0  0  0  0  0  0  0  0
  -27.5672  -13.3512   19.7642 C   0  0  2  0  0  0  0  0  0  0  0  0
  -28.2692  -24.2781   26.1246 C   0  0  0  0  0  0  0  0  0  0  0  0
  -30.3982  -28.3987   18.1008 C   0  0  0  0  0  0  0  0  0  0  0  0
  -23.9285  -26.9978   18.3268 C   0  0  0  0  0  0  0  0  0  0  0  0
  -26.1530  -26.6885   17.2204 C   0  0  0  0  0  0  0  0  0  0  0  0
  -25.1178  -28.9558   17.3238 C   0  0  0  0  0  0  0  0  0  0  0  0
  -30.2669  -29.1286   21.8326 C   0  0  0  0  0  0  0  0  0  0  0  0
  -26.0685  -27.9301   19.4300 C   0  0  1  0  0  0  0  0  0  0  0  0
  -29.7505  -28.8315   19.4069 C   0  0  2  0  0  0  0  0  0  0  0  0
  -25.3135  -27.6369   18.1028 C   0  0  0  0  0  0  0  0  0  0  0  0
  -31.5519  -19.0675   22.8363 N   0  0  0  0  0  0  0  0  0  0  0  0
  -25.9995  -11.6244   20.5655 N   0  0  0  0  0  0  0  0  0  0  0  0
  -26.1860  -12.9062   20.2073 N   0  0  0  0  0  0  0  0  0  0  0  0
  -28.3171  -20.5250   23.6789 N   0  0  3  0  0  0  0  0  0  0  0  0
  -24.9562  -28.3109   21.6075 N   0  0  0  0  0  0  0  0  0  0  0  0
  -29.7228  -14.3254   20.4532 N   0  0  0  0  0  0  0  0  0  0  0  0
  -25.0711  -14.9827   19.9708 N   0  0  0  0  0  0  0  0  0  0  0  0
  -21.8173  -12.2137   21.4342 N   0  0  0  0  0  0  0  0  0  0  0  0
  -29.4220  -16.5633   21.1342 N   0  0  0  0  0  0  0  0  0  0  0  0
  -21.6423  -29.4206   22.3266 N   0  0  0  0  0  0  0  0  0  0  0  0
  -27.3718  -28.5604   19.2494 N   0  0  0  0  0  0  0  0  0  0  0  0
  -30.7619  -28.7130   20.4950 N   0  3  0  0  0  0  0  0  0  0  0  0
  -25.0999  -21.7417   24.3757 O   0  0  0  0  0  0  0  0  0  0  0  0
  -22.2787  -14.3627   20.7803 O   0  0  0  0  0  0  0  0  0  0  0  0
  -22.5343  -27.3006   21.9625 O   0  0  0  0  0  0  0  0  0  0  0  0
  -24.9830  -29.9692   19.9688 O   0  0  0  0  0  0  0  0  0  0  0  0
  -28.6003  -26.9191   20.3330 O   0  0  0  0  0  0  0  0  0  0  0  0
  -31.3948  -15.8863   20.1188 O   0  0  0  0  0  0  0  0  0  0  0  0
  -22.3865   -6.8004   22.6206 O   0  0  0  0  0  0  0  0  0  0  0  0
  -25.8962  -23.8739   25.7888 O   0  0  0  0  0  0  0  0  0  1  0  0
  -19.0754   -7.0111   27.0247 F   0  0  0  0  0  0  0  0  0  0  0  0
  -22.9649   -5.3480   24.9006 F   0  0  0  0  0  0  0  0  0  0  0  0
  1  2  1  0  0  0  0
  1  5  2  0  0  0  0
  2  6  2  0  0  0  0
  3  8  2  0  0  0  0
  3 18  1  0  0  0  0
  4  9  1  0  0  0  0
  4 18  2  0  0  0  0
  5 20  1  0  0  0  0
  6 22  1  0  0  0  0
  7 10  2  0  0  0  0
  7 21  1  0  0  0  0
  8 26  1  0  0  0  0
  9 26  2  0  0  0  0
 10 27  1  0  0  0  0
 11 12  2  0  0  0  0
 11 28  1  0  0  0  0
 12 29  1  0  0  0  0
 13 23  1  0  0  0  0
 13 27  2  0  0  0  0
 14 24  2  0  0  0  0
 14 25  1  0  0  0  0
 15 29  2  0  0  0  0
 15 30  1  0  0  0  0
 16 24  1  0  0  0  0
 16 64  2  0  0  0  0
 17 25  2  0  0  0  0
 17 64  1  0  0  0  0
 18 31  1  0  0  0  0
 19 31  1  0  0  0  0
 19 32  2  0  0  0  0
 19 35  1  0  0  0  0
 20 22  2  0  0  0  0
 20 41  1  0  0  0  0
 21 23  2  0  0  0  0
 21 42  1  0  0  0  0
 22 52  1  0  0  0  0
 23 43  1  0  0  0  0
 24 67  1  0  0  0  0
 25 72  1  0  0  0  0
 26 82  1  0  0  0  0
 27 83  1  0  0  0  0
 28 30  2  0  0  0  0
 28 82  1  0  0  0  0
 29 84  1  0  0  0  0
 30 85  1  0  0  0  0
 31 65  2  0  0  0  0
 32 66  1  0  0  0  0
 32 70  1  0  0  0  0
 33 34  1  0  0  0  0
 33 36  2  0  0  0  0
 33 44  1  0  0  0  0
 34 45  1  0  0  0  0
 34 76  2  0  0  0  0
 35 71  1  0  0  0  0
 35 77  2  0  0  0  0
 36 55  1  0  0  0  0
 36 83  1  0  0  0  0
 37 53  1  0  0  0  0
 37 73  1  0  0  0  0
 37 78  2  0  0  0  0
 38 61  1  0  0  0  0
 38 68  1  0  0  0  0
 38 79  2  0  0  0  0
 39 62  1  0  0  0  0
 39 74  1  0  0  0  0
 39 80  2  0  0  0  0
 40 69  1  0  0  0  0
 40 72  1  0  0  0  0
 40 81  2  0  0  0  0
 41 46  1  0  0  0  0
 42 53  1  0  0  0  0
 43 68  1  0  0  0  0
 44 67  1  0  0  0  0
 45 67  1  0  0  0  0
 46 48  1  0  0  0  0
 47 49  1  0  0  0  0
 47 50  1  0  0  0  0
 48 52  1  0  0  0  0
 49 54  1  0  0  0  0
 50 69  1  0  0  0  0
 51 54  1  0  0  0  0
 51 69  1  0  0  0  0
 52 73  1  0  0  0  0
 53 68  1  0  0  0  0
 54 66  1  0  0  0  0
 56 62  1  0  0  0  0
 57 63  1  0  0  0  0
 58 63  1  0  0  0  0
 59 63  1  0  0  0  0
 60 75  1  0  0  0  0
 61 63  1  0  0  0  0
 61 74  1  0  0  0  0
 62 75  1  0  0  0  0
 65 66  1  0  0  0  0
M  CHG  1  75   1
M  ISO  4  36 101  40 100  72 100  83 101
M  END
> <Batch ID>
0076

> <Smiles>
CNC(C)C(=O)NC(C(=O)N1Cc2cc([101O:1][101C:1](C)=C3CN(c4cncc([100NH:0][100C:0](=O)N5CCCC(n6nc(-c7ccc(Oc8ccc(F)cc8F)cc7)c(C(N)=O)c6N)C5)c4)CC3=O)ccc2CC1C(=O)NC1CCCc2ccccc21)C(C)(C)C

> <Shape>
0.271

> <Color>
0.172

> <Negative vol penalty>
0.000

$$$$

  -OEChem-04042323503D

 81 89  0     1  0  0  0  0  0999 V2000
  -29.1015  -36.7518   20.5477 C   0  0  0  0  0  0  0  0  0  0  0  0
  -29.3016  -35.4230   20.1878 C   0  0  0  0  0  0  0  0  0  0  0  0
  -24.3466   -9.4256   21.4515 C   0  0  0  0  0  0  0  0  0  0  0  0
  -22.9979  -11.2239   20.5659 C   0  0  0  0  0  0  0  0  0  0  0  0
  -27.6572  -20.4741   20.1648 C   0  0  0  0  0  0  0  0  0  0  0  0
  -25.7119  -19.8077   18.8964 C   0  0  0  0  0  0  0  0  0  0  0  0
  -28.3155  -37.0617   21.6569 C   0  0  0  0  0  0  0  0  0  0  0  0
  -28.7166  -34.4031   20.9375 C   0  0  0  0  0  0  0  0  0  0  0  0
  -26.5679  -29.0637   18.8448 C   0  0  0  0  0  0  0  0  0  0  0  0
  -28.1424  -19.1677   20.1071 C   0  0  0  0  0  0  0  0  0  0  0  0
  -26.1971  -18.5012   18.8387 C   0  0  0  0  0  0  0  0  0  0  0  0
  -23.2819   -9.0245   22.2585 C   0  0  0  0  0  0  0  0  0  0  0  0
  -21.9332  -10.8227   21.3728 C   0  0  0  0  0  0  0  0  0  0  0  0
  -27.1158  -27.7822   18.8068 C   0  0  0  0  0  0  0  0  0  0  0  0
  -20.4014   -7.2902   21.9015 C   0  0  0  0  0  0  0  0  0  0  0  0
  -20.1088   -5.9276   21.9586 C   0  0  0  0  0  0  0  0  0  0  0  0
  -25.9639  -27.2355   20.8545 C   0  0  0  0  0  0  0  0  0  0  0  0
  -20.5064   -5.9421   24.3416 C   0  0  0  0  0  0  0  0  0  0  0  0
  -24.2046  -10.5253   20.6053 C   0  0  0  0  0  0  0  0  0  0  0  0
  -26.4419  -20.7942   19.5595 C   0  0  0  0  0  0  0  0  0  0  0  0
  -25.5886  -10.5091   18.4624 C   0  0  0  0  0  0  0  0  0  0  0  0
  -27.7128  -36.0454   22.4149 C   0  0  0  0  0  0  0  0  0  0  0  0
  -25.7211  -29.4448   19.8955 C   0  0  0  0  0  0  0  0  0  0  0  0
  -27.9230  -34.6996   22.0586 C   0  0  0  0  0  0  0  0  0  0  0  0
  -25.4045  -28.5215   20.9022 C   0  0  0  0  0  0  0  0  0  0  0  0
  -27.4124  -18.1813   19.4440 C   0  0  0  0  0  0  0  0  0  0  0  0
  -22.0752   -9.7230   22.2191 C   0  0  0  0  0  0  0  0  0  0  0  0
  -26.8161  -26.8688   19.8132 C   0  0  0  0  0  0  0  0  0  0  0  0
  -20.7465   -7.9788   23.0644 C   0  0  0  0  0  0  0  0  0  0  0  0
  -20.1612   -5.2535   23.1786 C   0  0  0  0  0  0  0  0  0  0  0  0
  -20.7990   -7.3047   24.2845 C   0  0  0  0  0  0  0  0  0  0  0  0
  -25.3043  -10.9405   19.7719 C   0  0  0  0  0  0  0  0  0  0  0  0
  -26.7277  -11.1935   18.1151 C   0  0  0  0  0  0  0  0  0  0  0  0
  -26.9178  -23.2883   19.6888 C   0  0  0  0  0  0  0  0  0  0  0  0
  -26.4938  -24.5539   19.7256 C   0  0  0  0  0  0  0  0  0  1  0  0
  -25.9259  -22.1831   19.6210 C   0  0  0  0  0  0  0  0  0  0  0  0
  -24.8859   -9.5734   17.6339 C   0  0  0  0  0  0  0  0  0  0  0  0
  -25.8325  -31.6551   22.1772 C   0  0  0  0  0  0  0  0  0  0  0  0
  -22.8205  -30.6176   22.7885 C   0  0  0  0  0  0  0  0  0  0  0  0
  -20.5212  -28.1053   22.5689 C   0  0  0  0  0  0  0  0  0  0  0  0
  -29.0939  -16.3703   19.9336 C   0  0  0  0  0  0  0  0  0  0  0  0
  -26.9104  -36.4274   23.6334 C   0  0  0  0  0  0  0  0  0  0  0  0
  -25.1169  -30.8222   19.9078 C   0  0  0  0  0  0  0  0  0  0  0  0
  -24.4846  -28.8746   22.0413 C   0  0  0  0  0  0  0  0  0  0  0  0
  -26.0194  -35.3022   24.1534 C   0  0  0  0  0  0  0  0  0  0  0  0
  -30.6441  -13.1668   20.0393 C   0  0  0  0  0  0  0  0  0  0  0  0
  -26.7989  -33.9928   24.2226 C   0  0  0  0  0  0  0  0  0  0  0  0
  -29.4773  -12.1932   19.8575 C   0  0  0  0  0  0  0  0  0  0  0  0
  -30.2449  -14.3803   20.8770 C   0  0  0  0  0  0  0  0  0  0  0  0
  -27.8834  -14.1197   20.2252 C   0  0  0  0  0  0  0  0  0  0  0  0
  -27.2851  -33.5661   22.8322 C   0  0  1  0  0  0  0  0  0  0  0  0
  -24.6765  -31.2691   21.2984 C   0  0  1  0  0  0  0  0  0  0  0  0
  -28.2192  -12.9131   19.3336 C   0  0  2  0  0  0  0  0  0  0  0  0
  -18.1572  -27.5385   23.1917 C   0  0  0  0  0  0  0  0  0  0  0  0
  -23.6860  -30.2011   25.6846 C   0  0  0  0  0  0  0  0  0  0  0  0
  -21.6500  -28.7822   26.0158 C   0  0  0  0  0  0  0  0  0  0  0  0
  -21.4052  -31.1894   25.4092 C   0  0  0  0  0  0  0  0  0  0  0  0
  -19.7418  -27.7335   19.7381 C   0  0  0  0  0  0  0  0  0  0  0  0
  -22.2155  -29.5480   23.6654 C   0  0  1  0  0  0  0  0  0  0  0  0
  -19.0723  -28.1027   22.1160 C   0  0  2  0  0  0  0  0  0  0  0  0
  -22.2581  -29.9238   25.1735 C   0  0  0  0  0  0  0  0  0  0  0  0
  -26.1913  -11.8300   20.2258 N   0  0  0  0  0  0  0  0  0  0  0  0
  -27.0442  -11.9630   19.1958 N   0  0  0  0  0  0  0  0  0  0  0  0
  -23.9239  -30.2356   22.0123 N   0  0  0  0  0  0  0  0  0  0  0  0
  -29.0482  -15.0137   20.3187 N   0  0  0  0  0  0  0  0  0  0  0  0
  -27.4794  -11.2061   16.9939 N   0  0  0  0  0  0  0  0  0  0  0  0
  -23.7341   -8.9610   18.1463 N   0  0  0  0  0  0  0  0  0  0  0  0
  -27.9064  -16.8545   19.3859 N   0  0  0  0  0  0  0  0  0  0  0  0
  -26.1989  -32.9834   22.0738 N   0  0  0  0  0  0  0  0  0  0  0  0
  -20.8733  -29.3064   23.1474 N   0  0  0  0  0  0  0  0  0  0  0  0
  -18.9157  -27.2769   20.8853 N   0  3  0  0  0  0  0  0  0  0  0  0
  -24.7169  -22.3855   19.5896 O   0  0  0  0  0  0  0  0  0  0  0  0
  -25.2773   -9.2766   16.4797 O   0  0  0  0  0  0  0  0  0  0  0  0
  -26.3526  -30.8106   22.8970 O   0  0  0  0  0  0  0  0  0  0  0  0
  -22.3277  -31.7484   22.7867 O   0  0  0  0  0  0  0  0  0  0  0  0
  -21.2651  -27.1373   22.4273 O   0  0  0  0  0  0  0  0  0  0  0  0
  -30.1197  -17.0449   20.0540 O   0  0  0  0  0  0  0  0  0  0  0  0
  -21.0360   -9.3317   23.0062 O   0  0  0  0  0  0  0  0  0  0  0  0
  -27.3501  -25.6176   19.7789 O   0  0  0  0  0  0  0  0  0  1  0  0
  -19.8787   -3.9453   23.2336 F   0  0  0  0  0  0  0  0  0  0  0  0
  -21.1288   -7.9611   25.4052 F   0  0  0  0  0  0  0  0  0  0  0  0
  1  2  1  0  0  0  0
  1  7  2  0  0  0  0
  2  8  2  0  0  0  0
  3 12  2  0  0  0  0
  3 19  1  0  0  0  0
  4 13  1  0  0  0  0
  4 19  2  0  0  0  0
  5 10  2  0  0  0  0
  5 20  1  0  0  0  0
  6 11  1  0  0  0  0
  6 20  2  0  0  0  0
  7 22  1  0  0  0  0
  8 24  1  0  0  0  0
  9 14  2  0  0  0  0
  9 23  1  0  0  0  0
 10 26  1  0  0  0  0
 11 26  2  0  0  0  0
 12 27  1  0  0  0  0
 13 27  2  0  0  0  0
 14 28  1  0  0  0  0
 15 16  2  0  0  0  0
 15 29  1  0  0  0  0
 16 30  1  0  0  0  0
 17 25  1  0  0  0  0
 17 28  2  0  0  0  0
 18 30  2  0  0  0  0
 18 31  1  0  0  0  0
 19 32  1  0  0  0  0
 20 36  1  0  0  0  0
 21 32  1  0  0  0  0
 21 33  2  0  0  0  0
 21 37  1  0  0  0  0
 22 24  2  0  0  0  0
 22 42  1  0  0  0  0
 23 25  2  0  0  0  0
 23 43  1  0  0  0  0
 24 51  1  0  0  0  0
 25 44  1  0  0  0  0
 26 68  1  0  0  0  0
 27 78  1  0  0  0  0
 28 79  1  0  0  0  0
 29 31  2  0  0  0  0
 29 78  1  0  0  0  0
 30 80  1  0  0  0  0
 31 81  1  0  0  0  0
 32 62  2  0  0  0  0
 33 63  1  0  0  0  0
 33 66  1  0  0  0  0
 34 35  2  0  0  0  0
 34 36  1  0  0  0  0
 35 79  1  0  0  0  0
 36 72  2  0  0  0  0
 37 67  1  0  0  0  0
 37 73  2  0  0  0  0
 38 52  1  0  0  0  0
 38 69  1  0  0  0  0
 38 74  2  0  0  0  0
 39 59  1  0  0  0  0
 39 64  1  0  0  0  0
 39 75  2  0  0  0  0
 40 60  1  0  0  0  0
 40 70  1  0  0  0  0
 40 76  2  0  0  0  0
 41 65  1  0  0  0  0
 41 68  1  0  0  0  0
 41 77  2  0  0  0  0
 42 45  1  0  0  0  0
 43 52  1  0  0  0  0
 44 64  1  0  0  0  0
 45 47  1  0  0  0  0
 46 48  1  0  0  0  0
 46 49  1  0  0  0  0
 47 51  1  0  0  0  0
 48 53  1  0  0  0  0
 49 65  1  0  0  0  0
 50 53  1  0  0  0  0
 50 65  1  0  0  0  0
 51 69  1  0  0  0  0
 52 64  1  0  0  0  0
 53 63  1  0  0  0  0
 54 60  1  0  0  0  0
 55 61  1  0  0  0  0
 56 61  1  0  0  0  0
 57 61  1  0  0  0  0
 58 71  1  0  0  0  0
 59 61  1  0  0  0  0
 59 70  1  0  0  0  0
 60 71  1  0  0  0  0
 62 63  1  0  0  0  0
M  CHG  1  71   1
M  ISO  4  35 101  41 100  68 100  79 101
M  END
> <Batch ID>
0076

> <Smiles>
CNC(C)C(=O)NC(C(=O)N1Cc2cc([101O:1][101CH:1]=CC(=O)c3ccc([100NH:0][100C:0](=O)N4CCCC(n5nc(-c6ccc(Oc7ccc(F)cc7F)cc6)c(C(N)=O)c5N)C4)cc3)ccc2CC1C(=O)NC1CCCc2ccccc21)C(C)(C)C

> <Shape>
0.284

> <Color>
0.091

> <Negative vol penalty>
0.000

$$$$

  -OEChem-04042323503D

 86 94  0     1  0  0  0  0  0999 V2000
  -37.2500  -25.4600   12.7091 C   0  0  0  0  0  0  0  0  0  0  0  0
  -37.1604  -24.4827   13.6952 C   0  0  0  0  0  0  0  0  0  0  0  0
  -23.7574   -9.6051   19.7785 C   0  0  0  0  0  0  0  0  0  0  0  0
  -24.3360   -9.6977   22.1224 C   0  0  0  0  0  0  0  0  0  0  0  0
  -29.0356  -19.2378   24.5299 C   0  0  0  0  0  0  0  0  0  0  0  0
  -37.0371  -26.7988   13.0347 C   0  0  0  0  0  0  0  0  0  0  0  0
  -36.8589  -24.8440   15.0078 C   0  0  0  0  0  0  0  0  0  0  0  0
  -33.5624  -21.6298   19.0461 C   0  0  0  0  0  0  0  0  0  0  0  0
  -28.6994  -18.2814   23.5719 C   0  0  0  0  0  0  0  0  0  0  0  0
  -23.2375   -8.3232   19.9575 C   0  0  0  0  0  0  0  0  0  0  0  0
  -23.8160   -8.4158   22.3014 C   0  0  0  0  0  0  0  0  0  0  0  0
  -33.9267  -20.7836   20.0925 C   0  0  0  0  0  0  0  0  0  0  0  0
  -22.3144   -5.3107   23.4509 C   0  0  0  0  0  0  0  0  0  0  0  0
  -21.4998   -5.0897   24.5614 C   0  0  0  0  0  0  0  0  0  0  0  0
  -33.7042  -22.6168   21.6446 C   0  0  0  0  0  0  0  0  0  0  0  0
  -31.0440  -17.8899   23.1398 C   0  0  0  0  0  0  0  0  0  0  0  0
  -19.9558   -6.7677   23.7626 C   0  0  0  0  0  0  0  0  0  0  0  0
  -24.3068  -10.2923   20.8609 C   0  0  0  0  0  0  0  0  0  0  0  0
  -30.3761  -19.5203   24.7929 C   0  0  0  0  0  0  0  0  0  0  0  0
  -24.1560  -12.8381   20.7984 C   0  0  0  0  0  0  0  0  0  0  0  0
  -36.7234  -27.1756   14.3501 C   0  0  0  0  0  0  0  0  0  0  0  0
  -33.2763  -22.9808   19.2900 C   0  0  0  0  0  0  0  0  0  0  0  0
  -36.6430  -26.1893   15.3516 C   0  0  0  0  0  0  0  0  0  0  0  0
  -33.3339  -23.4775   20.6000 C   0  0  0  0  0  0  0  0  0  0  0  0
  -29.7035  -17.6075   22.8768 C   0  0  0  0  0  0  0  0  0  0  0  0
  -31.3802  -18.8463   24.0978 C   0  0  0  0  0  0  0  0  0  0  0  0
  -23.2667   -7.7286   21.2189 C   0  0  0  0  0  0  0  0  0  0  0  0
  -34.0005  -21.2777   21.3915 C   0  0  0  0  0  0  0  0  0  0  0  0
  -21.9498   -6.2602   22.4963 C   0  0  0  0  0  0  0  0  0  0  0  0
  -20.3205   -5.8182   24.7172 C   0  0  0  0  0  0  0  0  0  0  0  0
  -20.7705   -6.9886   22.6522 C   0  0  0  0  0  0  0  0  0  0  0  0
  -24.8446  -11.6163   20.6766 C   0  0  0  0  0  0  0  0  0  0  0  0
  -25.1036  -13.7948   20.5276 C   0  0  0  0  0  0  0  0  0  0  0  0
  -30.6990  -20.5177   25.7928 C   0  0  0  0  0  0  0  0  0  0  0  0
  -22.7827  -13.0862   21.1272 C   0  0  0  0  0  0  0  0  0  0  0  0
  -34.5370  -25.7449   18.3550 C   0  0  0  0  0  0  0  0  0  0  0  0
  -35.0566  -18.5306   24.5258 C   0  0  0  0  0  0  0  0  0  0  0  0
  -31.9862  -26.9923   19.9233 C   0  0  0  0  0  0  0  0  0  0  0  0
  -29.5962  -26.6135   22.3298 C   0  0  0  0  0  0  0  0  0  0  0  0
  -30.2333  -15.8760   21.1253 C   0  0  0  0  0  0  0  0  0  0  0  0
  -36.5483  -28.6405   14.6635 C   0  0  0  0  0  0  0  0  0  0  0  0
  -32.8588  -23.8742   18.1542 C   0  0  0  0  0  0  0  0  0  0  0  0
  -33.0168  -24.9152   20.9176 C   0  0  0  0  0  0  0  0  0  0  0  0
  -35.8644  -28.8992   16.0035 C   0  0  0  0  0  0  0  0  0  0  0  0
  -29.7839  -13.3564   18.6501 C   0  0  0  0  0  0  0  0  0  0  0  0
  -36.4803  -28.0286   17.0941 C   0  0  0  0  0  0  0  0  0  0  0  0
  -28.4021  -12.7796   18.9667 C   0  0  0  0  0  0  0  0  0  0  0  0
  -30.5486  -13.7260   19.9199 C   0  0  0  0  0  0  0  0  0  0  0  0
  -28.4434  -14.0293   21.1630 C   0  0  0  0  0  0  0  0  0  0  0  0
  -36.2937  -26.5389   16.7820 C   0  0  1  0  0  0  0  0  0  0  0  0
  -33.0887  -25.3545   18.4429 C   0  0  1  0  0  0  0  0  0  0  0  0
  -27.6096  -13.7023   19.9133 C   0  0  2  0  0  0  0  0  0  0  0  0
  -36.2875  -17.8294   24.0078 C   0  0  0  0  0  0  0  0  0  0  0  0
  -27.6767  -27.8189   23.4067 C   0  0  0  0  0  0  0  0  0  0  0  0
  -33.9533  -28.7182   21.4922 C   0  0  0  0  0  0  0  0  0  0  0  0
  -32.1307  -29.1667   23.1491 C   0  0  0  0  0  0  0  0  0  0  0  0
  -31.8675  -29.8995   20.7792 C   0  0  0  0  0  0  0  0  0  0  0  0
  -27.6643  -24.5405   21.4760 C   0  0  0  0  0  0  0  0  0  0  0  0
  -34.0150  -19.0743   22.2866 C   0  0  0  0  0  0  0  0  0  1  0  0
  -33.8048  -18.4504   23.6615 C   0  0  2  0  0  0  0  0  0  0  0  0
  -31.7159  -27.4388   21.3398 C   0  0  1  0  0  0  0  0  0  0  0  0
  -28.0977  -26.8553   22.3081 C   0  0  2  0  0  0  0  0  0  0  0  0
  -32.4248  -28.7791   21.6841 C   0  0  0  0  0  0  0  0  0  0  0  0
  -26.1303  -11.7790   20.3533 N   0  0  0  0  0  0  0  0  0  0  0  0
  -26.2571  -13.1143   20.2697 N   0  0  0  0  0  0  0  0  0  0  0  0
  -32.6196  -25.7506   19.7723 N   0  0  0  0  0  0  0  0  0  0  0  0
  -29.7379  -14.6048   20.7656 N   0  0  0  0  0  0  0  0  0  0  0  0
  -25.0543  -15.1432   20.4872 N   0  0  0  0  0  0  0  0  0  0  0  0
  -30.8373  -21.8068   25.4451 N   0  0  0  0  0  0  0  0  0  0  0  0
  -21.9466  -11.9892   21.3761 N   0  0  0  0  0  0  0  0  0  0  0  0
  -29.3610  -16.6355   21.9043 N   0  0  0  0  0  0  0  0  0  0  0  0
  -32.7149  -19.1130   24.3463 N   0  0  0  0  0  0  0  0  0  0  0  0
  -34.9418  -26.1237   17.0893 N   0  0  0  0  0  0  0  0  0  0  0  0
  -30.2649  -27.4754   21.4865 N   0  0  0  0  0  0  0  0  0  0  0  0
  -30.8614  -20.1630   27.0771 N   0  3  0  0  0  0  0  0  0  0  0  0
  -27.3633  -25.5729   22.5009 N   0  3  0  0  0  0  0  0  0  0  0  0
  -22.3069  -14.2455   21.1820 O   0  0  0  0  0  0  0  0  0  0  0  0
  -35.2352  -25.7067   19.3614 O   0  0  0  0  0  0  0  0  0  0  0  0
  -35.0887  -19.1439   25.5932 O   0  0  0  0  0  0  0  0  0  0  0  0
  -31.6413  -27.7152   18.9851 O   0  0  0  0  0  0  0  0  0  0  0  0
  -30.1214  -25.7492   23.0281 O   0  0  0  0  0  0  0  0  0  0  0  0
  -31.3381  -16.2731   20.7460 O   0  0  0  0  0  0  0  0  0  0  0  0
  -22.7592   -6.4779   21.3940 O   0  0  0  0  0  0  0  0  0  0  0  0
  -34.3565  -20.4540   22.4146 O   0  0  0  0  0  0  0  0  0  1  0  0
  -19.5375   -5.6048   25.7829 F   0  0  0  0  0  0  0  0  0  0  0  0
  -20.4144   -7.9013   21.7378 F   0  0  0  0  0  0  0  0  0  0  0  0
  1  2  1  0  0  0  0
  1  6  2  0  0  0  0
  2  7  2  0  0  0  0
  3 10  2  0  0  0  0
  3 18  1  0  0  0  0
  4 11  1  0  0  0  0
  4 18  2  0  0  0  0
  5  9  2  0  0  0  0
  5 19  1  0  0  0  0
  6 21  1  0  0  0  0
  7 23  1  0  0  0  0
  8 12  2  0  0  0  0
  8 22  1  0  0  0  0
  9 25  1  0  0  0  0
 10 27  1  0  0  0  0
 11 27  2  0  0  0  0
 12 28  1  0  0  0  0
 13 14  2  0  0  0  0
 13 29  1  0  0  0  0
 14 30  1  0  0  0  0
 15 24  1  0  0  0  0
 15 28  2  0  0  0  0
 16 25  2  0  0  0  0
 16 26  1  0  0  0  0
 17 30  2  0  0  0  0
 17 31  1  0  0  0  0
 18 32  1  0  0  0  0
 19 26  2  0  0  0  0
 19 34  1  0  0  0  0
 20 32  1  0  0  0  0
 20 33  2  0  0  0  0
 20 35  1  0  0  0  0
 21 23  2  0  0  0  0
 21 41  1  0  0  0  0
 22 24  2  0  0  0  0
 22 42  1  0  0  0  0
 23 50  1  0  0  0  0
 24 43  1  0  0  0  0
 25 71  1  0  0  0  0
 26 72  1  0  0  0  0
 27 83  1  0  0  0  0
 28 84  1  0  0  0  0
 29 31  2  0  0  0  0
 29 83  1  0  0  0  0
 30 85  1  0  0  0  0
 31 86  1  0  0  0  0
 32 64  2  0  0  0  0
 33 65  1  0  0  0  0
 33 68  1  0  0  0  0
 34 69  1  0  0  0  0
 34 75  2  0  0  0  0
 35 70  1  0  0  0  0
 35 77  2  0  0  0  0
 36 51  1  0  0  0  0
 36 73  1  0  0  0  0
 36 78  2  0  0  0  0
 37 53  1  0  0  0  0
 37 60  1  0  0  0  0
 37 79  2  0  0  0  0
 38 61  1  0  0  0  0
 38 66  1  0  0  0  0
 38 80  2  0  0  0  0
 39 62  1  0  0  0  0
 39 74  1  0  0  0  0
 39 81  2  0  0  0  0
 40 67  1  0  0  0  0
 40 71  1  0  0  0  0
 40 82  2  0  0  0  0
 41 44  1  0  0  0  0
 42 51  1  0  0  0  0
 43 66  1  0  0  0  0
 44 46  1  0  0  0  0
 45 47  1  0  0  0  0
 45 48  1  0  0  0  0
 46 50  1  0  0  0  0
 47 52  1  0  0  0  0
 48 67  1  0  0  0  0
 49 52  1  0  0  0  0
 49 67  1  0  0  0  0
 50 73  1  0  0  0  0
 51 66  1  0  0  0  0
 52 65  1  0  0  0  0
 54 62  1  0  0  0  0
 55 63  1  0  0  0  0
 56 63  1  0  0  0  0
 57 63  1  0  0  0  0
 58 76  1  0  0  0  0
 59 60  1  0  0  0  0
 59 84  1  0  0  0  0
 60 72  1  0  0  0  0
 61 63  1  0  0  0  0
 61 74  1  0  0  0  0
 62 76  1  0  0  0  0
 64 65  1  0  0  0  0
M  CHG  2  75   1  76   1
M  ISO  4  40 100  59 101  71 100  84 101
M  END
> <Batch ID>
0076

> <Smiles>
CNC(C)C(=O)NC(C(=O)N1Cc2cc([101O:1][101CH2:1]C(Nc3cc([100NH:0][100C:0](=O)N4CCCC(n5nc(-c6ccc(Oc7ccc(F)cc7F)cc6)c(C(N)=O)c5N)C4)ccc3C(=N)N)C(C)=O)ccc2CC1C(=O)NC1CCCc2ccccc21)C(C)(C)C

> <Shape>
0.182

> <Color>
0.121

> <Negative vol penalty>
0.000

$$$$

  -OEChem-04042323503D

 88 97  0     1  0  0  0  0  0999 V2000
  -20.1734   -8.8050   19.1160 C   0  0  0  0  0  0  0  0  0  0  0  0
  -19.9848  -10.1278   19.5035 C   0  0  0  0  0  0  0  0  0  0  0  0
  -22.8510  -33.1062   22.6592 C   0  0  0  0  0  0  0  0  0  0  0  0
  -22.9937  -30.6957   22.7379 C   0  0  0  0  0  0  0  0  0  0  0  0
  -21.2755   -8.0924   19.5864 C   0  0  0  0  0  0  0  0  0  0  0  0
  -20.8977  -10.7383   20.3627 C   0  0  0  0  0  0  0  0  0  0  0  0
  -25.0464  -17.2897   19.4165 C   0  0  0  0  0  0  0  0  0  0  0  0
  -29.4791  -24.2012   17.3627 C   0  0  0  0  0  0  0  0  0  0  0  0
  -28.8487  -25.4415   17.2627 C   0  0  0  0  0  0  0  0  0  0  0  0
  -21.6141  -33.0540   23.3017 C   0  0  0  0  0  0  0  0  0  0  0  0
  -21.7568  -30.6435   23.3805 C   0  0  0  0  0  0  0  0  0  0  0  0
  -25.9500  -18.3460   19.2996 C   0  0  0  0  0  0  0  0  0  0  0  0
  -18.4936  -30.8705   22.5254 C   0  0  0  0  0  0  0  0  0  0  0  0
  -17.5695  -29.9270   22.0766 C   0  0  0  0  0  0  0  0  0  0  0  0
  -27.4570  -17.2408   20.8344 C   0  0  0  0  0  0  0  0  0  0  0  0
  -28.9494  -24.1218   19.7186 C   0  0  0  0  0  0  0  0  0  0  0  0
  -17.5445  -28.9093   24.2677 C   0  0  0  0  0  0  0  0  0  0  0  0
  -23.5408  -31.9270   22.3772 C   0  0  0  0  0  0  0  0  0  0  0  0
  -25.9849  -32.6262   22.1644 C   0  0  0  0  0  0  0  0  0  0  0  0
  -22.2077   -8.6975   20.4441 C   0  0  0  0  0  0  0  0  0  0  0  0
  -25.3518  -16.1964   20.2318 C   0  0  0  0  0  0  0  0  0  0  0  0
  -22.0126  -10.0327   20.8462 C   0  0  0  0  0  0  0  0  0  0  0  0
  -26.5613  -16.1740   20.9457 C   0  0  0  0  0  0  0  0  0  0  0  0
  -29.5294  -23.5413   18.5906 C   0  0  0  0  0  0  0  0  0  0  0  0
  -28.2687  -26.0219   18.3907 C   0  0  0  0  0  0  0  0  0  0  0  0
  -28.3191  -25.3621   19.6187 C   0  0  0  0  0  0  0  0  0  0  0  0
  -21.0670  -31.8226   23.6624 C   0  0  0  0  0  0  0  0  0  0  0  0
  -27.1522  -18.3218   20.0070 C   0  0  0  0  0  0  0  0  0  0  0  0
  -18.9432  -30.8334   23.8453 C   0  0  0  0  0  0  0  0  0  0  0  0
  -17.0949  -28.9464   22.9477 C   0  0  0  0  0  0  0  0  0  0  0  0
  -18.4686  -29.8528   24.7165 C   0  0  0  0  0  0  0  0  0  0  0  0
  -24.8184  -31.9803   21.7130 C   0  0  0  0  0  0  0  0  0  0  0  0
  -26.9139  -32.3830   21.1824 C   0  0  0  0  0  0  0  0  0  0  0  0
  -30.0680  -19.9271   19.2890 C   0  0  0  0  0  0  0  0  0  0  0  0
  -31.4604  -19.7002   18.7844 C   0  0  0  0  0  0  0  0  0  0  0  0
  -27.7129  -25.3967   22.0485 C   0  0  0  0  0  0  0  0  0  0  0  0
  -26.2088  -33.3787   23.3641 C   0  0  0  0  0  0  0  0  0  0  0  0
  -24.2852  -12.8559   21.5658 C   0  0  0  0  0  0  0  0  0  0  0  0
  -27.2841  -12.6541   20.9524 C   0  0  0  0  0  0  0  0  0  0  0  0
  -30.4767  -12.7160   19.7520 C   0  0  0  0  0  0  0  0  0  0  0  0
  -27.5090  -28.0527   17.1081 C   0  0  0  0  0  0  0  0  0  0  0  0
  -23.3579   -7.8723   20.9643 C   0  0  0  0  0  0  0  0  0  0  0  0
  -24.3811  -15.0650   20.4356 C   0  0  0  0  0  0  0  0  0  0  0  0
  -26.8323  -14.9935   21.8377 C   0  0  0  0  0  0  0  0  0  0  0  0
  -29.6971  -21.3279   19.6834 C   0  0  0  0  0  0  0  0  0  0  0  0
  -32.2136  -20.9369   18.4012 C   0  0  0  0  0  0  0  0  0  0  0  0
  -24.4808   -8.7082   21.5732 C   0  0  0  0  0  0  0  0  0  0  0  0
  -27.2606  -31.5485   16.4794 C   0  0  0  0  0  0  0  0  0  0  0  0
  -23.9099   -9.7663   22.5120 C   0  0  0  0  0  0  0  0  0  0  0  0
  -26.7181  -32.1155   17.7933 C   0  0  0  0  0  0  0  0  0  0  0  0
  -31.2694  -21.9648   17.7894 C   0  0  0  0  0  0  0  0  0  0  0  0
  -26.6544  -30.1837   16.1575 C   0  0  0  0  0  0  0  0  0  0  0  0
  -26.2212  -29.7541   18.5443 C   0  0  0  0  0  0  0  0  0  0  0  0
  -22.9943  -10.7374   21.7571 C   0  0  1  0  0  0  0  0  0  0  0  0
  -25.0721  -13.7004   20.6072 C   0  0  1  0  0  0  0  0  0  0  0  0
  -26.8513  -31.0984   18.9437 C   0  0  2  0  0  0  0  0  0  0  0  0
  -32.5193  -11.2780   19.5126 C   0  0  0  0  0  0  0  0  0  0  0  0
  -27.8941  -13.0336   23.9168 C   0  0  0  0  0  0  0  0  0  0  0  0
  -30.2802  -12.4547   23.4272 C   0  0  0  0  0  0  0  0  0  0  0  0
  -28.4811  -10.7776   23.0110 C   0  0  0  0  0  0  0  0  0  0  0  0
  -30.4120  -12.9139   16.7998 C   0  0  0  0  0  0  0  0  0  0  0  0
  -28.6931  -12.7748   21.4754 C   0  0  1  0  0  0  0  0  0  0  0  0
  -31.2342  -11.7548   18.8539 C   0  0  2  0  0  0  0  0  0  0  0  0
  -28.8244  -12.2817   22.9440 C   0  0  0  0  0  0  0  0  0  0  0  0
  -24.9881  -31.3726   20.5357 N   0  0  0  0  0  0  0  0  0  0  0  0
  -29.2718  -18.9162   19.3864 N   0  0  0  0  0  0  0  0  0  1  0  0
  -26.2722  -31.6357   20.2390 N   0  0  0  0  0  0  0  0  0  0  0  0
  -30.1615  -22.2985   18.6907 N   0  0  3  0  0  0  0  0  0  0  0  0
  -26.4368  -13.7495   21.1588 N   0  0  0  0  0  0  0  0  0  0  0  0
  -26.8219  -29.2714   17.2909 N   0  0  0  0  0  0  0  0  0  0  0  0
  -28.2089  -32.7378   21.0423 N   0  0  0  0  0  0  0  0  0  0  0  0
  -25.1462  -33.5313   24.2652 N   0  0  0  0  0  0  0  0  0  0  0  0
  -27.7460  -25.9244   20.7632 N   0  0  0  0  0  0  0  0  0  0  0  0
  -27.6346  -27.2827   18.2639 N   0  0  0  0  0  0  0  0  0  0  0  0
  -23.7804  -11.6958   21.0100 N   0  0  0  0  0  0  0  0  0  0  0  0
  -29.5428  -12.0620   20.5275 N   0  0  0  0  0  0  0  0  0  0  0  0
  -31.5841  -12.4165   17.5652 N   0  3  0  0  0  0  0  0  0  0  0  0
  -31.9157  -18.5681   18.7647 O   0  0  0  0  0  0  0  0  0  0  0  0
  -28.1655  -24.3425   22.4723 O   0  0  0  0  0  0  0  0  0  0  0  0
  -27.3136  -33.9142   23.6214 O   0  0  0  0  0  0  0  0  0  0  0  0
  -24.1467  -13.2276   22.7253 O   0  0  0  0  0  0  0  0  0  0  0  0
  -26.9397  -11.6158   20.3810 O   0  0  0  0  0  0  0  0  0  0  0  0
  -30.6944  -13.9255   19.7671 O   0  0  0  0  0  0  0  0  0  0  0  0
  -27.9770  -27.7295   16.0134 O   0  0  0  0  0  0  0  0  0  0  0  0
  -19.8601  -31.7713   24.2896 O   0  0  0  0  0  0  0  0  0  0  0  0
  -28.0319  -19.3542   19.8848 O   0  0  0  0  0  0  0  0  0  1  0  0
  -16.2064  -28.0414   22.5171 F   0  0  0  0  0  0  0  0  0  0  0  0
  -18.8960  -29.8129   25.9860 F   0  0  0  0  0  0  0  0  0  0  0  0
  1  2  1  0  0  0  0
  1  5  2  0  0  0  0
  2  6  2  0  0  0  0
  3 10  2  0  0  0  0
  3 18  1  0  0  0  0
  4 11  1  0  0  0  0
  4 18  2  0  0  0  0
  5 20  1  0  0  0  0
  6 22  1  0  0  0  0
  7 12  2  0  0  0  0
  7 21  1  0  0  0  0
  8  9  2  0  0  0  0
  8 24  1  0  0  0  0
  9 25  1  0  0  0  0
 10 27  1  0  0  0  0
 11 27  2  0  0  0  0
 12 28  1  0  0  0  0
 13 14  2  0  0  0  0
 13 29  1  0  0  0  0
 14 30  1  0  0  0  0
 15 23  1  0  0  0  0
 15 28  2  0  0  0  0
 16 24  2  0  0  0  0
 16 26  1  0  0  0  0
 17 30  2  0  0  0  0
 17 31  1  0  0  0  0
 18 32  1  0  0  0  0
 19 32  1  0  0  0  0
 19 33  2  0  0  0  0
 19 37  1  0  0  0  0
 20 22  2  0  0  0  0
 20 42  1  0  0  0  0
 21 23  2  0  0  0  0
 21 43  1  0  0  0  0
 22 54  1  0  0  0  0
 23 44  1  0  0  0  0
 24 68  1  0  0  0  0
 25 26  2  0  0  0  0
 25 74  1  0  0  0  0
 26 73  1  0  0  0  0
 27 85  1  0  0  0  0
 28 86  1  0  0  0  0
 29 31  2  0  0  0  0
 29 85  1  0  0  0  0
 30 87  1  0  0  0  0
 31 88  1  0  0  0  0
 32 65  2  0  0  0  0
 33 67  1  0  0  0  0
 33 71  1  0  0  0  0
 34 35  1  0  0  0  0
 34 45  1  0  0  0  0
 34 66  2  0  0  0  0
 35 46  1  0  0  0  0
 35 78  2  0  0  0  0
 36 73  1  0  0  0  0
 36 79  2  0  0  0  0
 37 72  1  0  0  0  0
 37 80  2  0  0  0  0
 38 55  1  0  0  0  0
 38 75  1  0  0  0  0
 38 81  2  0  0  0  0
 39 62  1  0  0  0  0
 39 69  1  0  0  0  0
 39 82  2  0  0  0  0
 40 63  1  0  0  0  0
 40 76  1  0  0  0  0
 40 83  2  0  0  0  0
 41 70  1  0  0  0  0
 41 74  1  0  0  0  0
 41 84  2  0  0  0  0
 42 47  1  0  0  0  0
 43 55  1  0  0  0  0
 44 69  1  0  0  0  0
 45 68  1  0  0  0  0
 46 51  1  0  0  0  0
 47 49  1  0  0  0  0
 48 50  1  0  0  0  0
 48 52  1  0  0  0  0
 49 54  1  0  0  0  0
 50 56  1  0  0  0  0
 51 68  1  0  0  0  0
 52 70  1  0  0  0  0
 53 56  1  0  0  0  0
 53 70  1  0  0  0  0
 54 75  1  0  0  0  0
 55 69  1  0  0  0  0
 56 67  1  0  0  0  0
 57 63  1  0  0  0  0
 58 64  1  0  0  0  0
 59 64  1  0  0  0  0
 60 64  1  0  0  0  0
 61 77  1  0  0  0  0
 62 64  1  0  0  0  0
 62 76  1  0  0  0  0
 63 77  1  0  0  0  0
 65 67  1  0  0  0  0
 66 86  1  0  0  0  0
M  CHG  1  77   1
M  ISO  4  41 100  66 101  74 100  86 101
M  END
> <Batch ID>
0076

> <Smiles>
CNC(C)C(=O)NC(C(=O)N1Cc2cc([101O:1][101N:1]=C3CN(c4ccc([100NH:0][100C:0](=O)N5CCCC(n6nc(-c7ccc(Oc8ccc(F)cc8F)cc7)c(C(N)=O)c6N)C5)c(NC=O)c4)CCC3=O)ccc2CC1C(=O)NC1CCCc2ccccc21)C(C)(C)C

> <Shape>
0.277

> <Color>
0.058

> <Negative vol penalty>
0.000

$$$$

  -OEChem-04042323503D

 87 95  0     1  0  0  0  0  0999 V2000
  -16.5223  -30.2769   23.0198 C   0  0  0  0  0  0  0  0  0  0  0  0
  -17.5686  -31.0792   23.4635 C   0  0  0  0  0  0  0  0  0  0  0  0
  -22.6646  -13.9184   18.7558 C   0  0  0  0  0  0  0  0  0  0  0  0
  -24.5819  -14.4030   20.1437 C   0  0  0  0  0  0  0  0  0  0  0  0
  -26.3164  -24.4632   21.9436 C   0  0  0  0  0  0  0  0  0  0  0  0
  -16.7483  -28.9296   22.7412 C   0  0  0  0  0  0  0  0  0  0  0  0
  -18.8413  -30.5344   23.6300 C   0  0  0  0  0  0  0  0  0  0  0  0
  -25.1573  -23.7359   21.6727 C   0  0  0  0  0  0  0  0  0  0  0  0
  -23.4319  -13.0257   18.0076 C   0  0  0  0  0  0  0  0  0  0  0  0
  -25.3492  -13.5102   19.3955 C   0  0  0  0  0  0  0  0  0  0  0  0
  -25.7816  -10.1648   19.1902 C   0  0  0  0  0  0  0  0  0  0  0  0
  -26.6028   -9.2775   19.8858 C   0  0  0  0  0  0  0  0  0  0  0  0
  -27.1657  -22.6209   23.2558 C   0  0  0  0  0  0  0  0  0  0  0  0
  -28.5400  -10.1993   18.7746 C   0  0  0  0  0  0  0  0  0  0  0  0
  -23.2396  -14.6071   19.8239 C   0  0  0  0  0  0  0  0  0  0  0  0
  -27.3206  -23.9056   22.7351 C   0  0  0  0  0  0  0  0  0  0  0  0
  -21.6883  -15.2423   21.7468 C   0  0  0  0  0  0  0  0  0  0  0  0
  -18.0266  -28.3702   22.8951 C   0  0  0  0  0  0  0  0  0  0  0  0
  -19.0843  -29.1780   23.3545 C   0  0  0  0  0  0  0  0  0  0  0  0
  -25.0024  -22.4512   22.1934 C   0  0  0  0  0  0  0  0  0  0  0  0
  -24.7741  -12.8215   18.3274 C   0  0  0  0  0  0  0  0  0  0  0  0
  -26.3396  -11.0694   18.2868 C   0  0  0  0  0  0  0  0  0  0  0  0
  -27.9820   -9.2947   19.6780 C   0  0  0  0  0  0  0  0  0  0  0  0
  -26.0066  -21.8937   22.9850 C   0  0  0  0  0  0  0  0  0  0  0  0
  -27.7188  -11.0867   18.0791 C   0  0  0  0  0  0  0  0  0  0  0  0
  -22.4477  -15.5299   20.5969 C   0  0  0  0  0  0  0  0  0  0  0  0
  -21.1297  -16.4465   22.0994 C   0  0  0  0  0  0  0  0  0  0  0  0
  -26.7154  -27.3220   18.8979 C   0  0  0  0  0  0  0  0  0  0  0  0
  -25.5185  -27.9160   18.8083 C   0  0  0  0  0  0  0  0  0  0  0  0
  -27.5220  -28.8684   20.5876 C   0  0  0  0  0  0  0  0  0  0  0  0
  -27.7053  -27.7691   19.8414 C   0  0  0  0  0  0  0  0  0  0  0  0
  -21.5042  -13.9979   22.4347 C   0  0  0  0  0  0  0  0  0  0  0  0
  -28.5538  -24.6796   23.0233 C   0  0  0  0  0  0  0  0  0  0  0  0
  -29.8184  -27.4036   20.7762 C   0  0  0  0  0  0  0  0  0  1  0  0
  -29.5853  -26.7528   22.0374 C   0  0  0  0  0  0  0  0  0  0  0  0
  -22.7071  -29.3163   22.6408 C   0  0  0  0  0  0  0  0  0  0  0  0
  -24.1939  -32.0246   22.2156 C   0  0  0  0  0  0  0  0  0  0  0  0
  -25.9446  -32.8094   25.0386 C   0  0  0  0  0  0  0  0  0  0  0  0
  -22.7328  -22.1240   21.1503 C   0  0  0  0  0  0  0  0  0  0  0  0
  -18.2118  -26.8977   22.6268 C   0  0  0  0  0  0  0  0  0  0  0  0
  -19.6735  -26.4861   22.4706 C   0  0  0  0  0  0  0  0  0  0  0  0
  -19.6615  -20.5919   20.2034 C   0  0  0  0  0  0  0  0  0  0  0  0
  -20.5218  -27.0977   23.5811 C   0  0  0  0  0  0  0  0  0  0  0  0
  -19.9565  -19.0938   20.3074 C   0  0  0  0  0  0  0  0  0  0  0  0
  -23.9214  -28.6562   20.5689 C   0  0  0  0  0  0  0  0  0  0  0  0
  -20.8689  -21.3733   19.6883 C   0  0  0  0  0  0  0  0  0  0  0  0
  -25.8148  -30.0880   21.9361 C   0  0  0  0  0  0  0  0  0  0  0  0
  -22.4120  -19.6481   20.5321 C   0  0  0  0  0  0  0  0  0  0  0  0
  -20.4846  -28.6296   23.5238 C   0  0  1  0  0  0  0  0  0  0  0  0
  -25.1043  -29.0784   19.6787 C   0  0  1  0  0  0  0  0  0  0  0  0
  -26.2673  -29.7088   20.5151 C   0  0  2  0  0  0  0  0  0  0  0  0
  -23.4070  -29.8245   21.4162 C   0  0  2  0  0  0  0  0  0  0  0  0
  -21.2463  -18.8276   21.1081 C   0  0  2  0  0  0  0  0  0  0  0  0
  -32.0627  -29.7023   19.0852 C   0  0  0  0  0  0  0  0  0  0  0  0
  -26.6029  -34.1040   27.0851 C   0  0  0  0  0  0  0  0  0  0  0  0
  -25.7828  -33.6927   20.2129 C   0  0  0  0  0  0  0  0  0  0  0  0
  -26.7792  -34.9329   22.1462 C   0  0  0  0  0  0  0  0  0  0  0  0
  -24.3185  -35.0195   21.7458 C   0  0  0  0  0  0  0  0  0  0  0  0
  -23.9922  -31.3598   26.7255 C   0  0  0  0  0  0  0  0  0  0  0  0
  -30.8630  -28.7800   19.1565 C   0  0  0  0  0  0  0  0  0  0  0  0
  -25.3578  -32.8890   22.6295 C   0  0  1  0  0  0  0  0  0  0  0  0
  -25.4937  -33.3278   26.3923 C   0  0  2  0  0  0  0  0  0  0  0  0
  -25.5615  -34.1055   21.6818 C   0  0  0  0  0  0  0  0  0  0  0  0
  -22.3799  -16.8159   20.2425 N   0  0  0  0  0  0  0  0  0  0  0  0
  -30.7806  -28.2100   20.4924 N   0  0  0  0  0  0  0  0  0  0  0  0
  -21.5711  -17.3471   21.1751 N   0  0  0  0  0  0  0  0  0  0  0  0
  -24.4811  -30.6949   21.8987 N   0  0  0  0  0  0  0  0  0  0  0  0
  -22.0524  -21.0744   20.4976 N   0  0  0  0  0  0  0  0  0  0  0  0
  -20.3089  -16.8123   23.1068 N   0  0  0  0  0  0  0  0  0  0  0  0
  -22.1509  -12.8579   21.9381 N   0  0  0  0  0  0  0  0  0  0  0  0
  -30.0086  -27.4399   23.0921 N   0  0  0  0  0  0  0  0  0  0  0  0
  -23.8236  -21.7153   21.9170 N   0  0  0  0  0  0  0  0  0  0  0  0
  -21.3502  -29.1172   22.4714 N   0  0  0  0  0  0  0  0  0  0  0  0
  -25.1235  -33.2521   24.0236 N   0  0  0  0  0  0  0  0  0  0  0  0
  -29.1950  -24.5013   24.1229 N   0  3  0  0  0  0  0  0  0  0  0  0
  -28.9436  -25.5843   21.9612 N   0  3  0  0  0  0  0  0  0  0  0  0
  -25.0920  -32.1948   27.2732 N   0  3  0  0  0  0  0  0  0  0  0  0
  -20.7744  -13.8964   23.4499 O   0  0  0  0  0  0  0  0  0  0  0  0
  -23.3496  -29.1173   23.6651 O   0  0  0  0  0  0  0  0  0  0  0  0
  -23.0612  -32.5125   22.1764 O   0  0  0  0  0  0  0  0  0  0  0  0
  -26.9289  -32.0875   24.8960 O   0  0  0  0  0  0  0  0  0  0  0  0
  -22.3580  -23.2959   21.0593 O   0  0  0  0  0  0  0  0  0  0  0  0
  -25.5230  -11.9503   17.5976 O   0  0  0  0  0  0  0  0  0  0  0  0
  -28.8492  -27.0060   19.8852 O   0  0  0  0  0  0  0  0  0  1  0  0
  -28.7706   -8.4435   20.3472 F   0  0  0  0  0  0  0  0  0  0  0  0
  -25.8686  -20.6598   23.4914 F   0  0  0  0  0  0  0  0  0  0  0  0
  -28.2607  -11.9542   17.2133 F   0  0  0  0  0  0  0  0  0  0  0  0
  1  2  1  0  0  0  0
  1  6  2  0  0  0  0
  2  7  2  0  0  0  0
  3  9  2  0  0  0  0
  3 15  1  0  0  0  0
  4 10  1  0  0  0  0
  4 15  2  0  0  0  0
  5  8  2  0  0  0  0
  5 16  1  0  0  0  0
  6 18  1  0  0  0  0
  7 19  1  0  0  0  0
  8 20  1  0  0  0  0
  9 21  1  0  0  0  0
 10 21  2  0  0  0  0
 11 12  2  0  0  0  0
 11 22  1  0  0  0  0
 12 23  1  0  0  0  0
 13 16  2  0  0  0  0
 13 24  1  0  0  0  0
 14 23  2  0  0  0  0
 14 25  1  0  0  0  0
 15 26  1  0  0  0  0
 16 33  1  0  0  0  0
 17 26  1  0  0  0  0
 17 27  2  0  0  0  0
 17 32  1  0  0  0  0
 18 19  2  0  0  0  0
 18 40  1  0  0  0  0
 19 49  1  0  0  0  0
 20 24  2  0  0  0  0
 20 72  1  0  0  0  0
 21 83  1  0  0  0  0
 22 25  2  0  0  0  0
 22 83  1  0  0  0  0
 23 85  1  0  0  0  0
 24 86  1  0  0  0  0
 25 87  1  0  0  0  0
 26 64  2  0  0  0  0
 27 66  1  0  0  0  0
 27 69  1  0  0  0  0
 28 29  2  0  0  0  0
 28 31  1  0  0  0  0
 29 50  1  0  0  0  0
 30 31  2  0  0  0  0
 30 51  1  0  0  0  0
 31 84  1  0  0  0  0
 32 70  1  0  0  0  0
 32 78  2  0  0  0  0
 33 75  2  0  0  0  0
 33 76  1  0  0  0  0
 34 35  1  0  0  0  0
 34 65  2  0  0  0  0
 34 84  1  0  0  0  0
 35 71  1  0  0  0  0
 35 76  2  0  0  0  0
 36 52  1  0  0  0  0
 36 73  1  0  0  0  0
 36 79  2  0  0  0  0
 37 61  1  0  0  0  0
 37 67  1  0  0  0  0
 37 80  2  0  0  0  0
 38 62  1  0  0  0  0
 38 74  1  0  0  0  0
 38 81  2  0  0  0  0
 39 68  1  0  0  0  0
 39 72  1  0  0  0  0
 39 82  2  0  0  0  0
 40 41  1  0  0  0  0
 41 43  1  0  0  0  0
 42 44  1  0  0  0  0
 42 46  1  0  0  0  0
 43 49  1  0  0  0  0
 44 53  1  0  0  0  0
 45 50  1  0  0  0  0
 45 52  1  0  0  0  0
 46 68  1  0  0  0  0
 47 51  1  0  0  0  0
 47 67  1  0  0  0  0
 48 53  1  0  0  0  0
 48 68  1  0  0  0  0
 49 73  1  0  0  0  0
 50 51  1  0  0  0  0
 52 67  1  0  0  0  0
 53 66  1  0  0  0  0
 54 60  1  0  0  0  0
 55 62  1  0  0  0  0
 56 63  1  0  0  0  0
 57 63  1  0  0  0  0
 58 63  1  0  0  0  0
 59 77  1  0  0  0  0
 60 65  1  0  0  0  0
 61 63  1  0  0  0  0
 61 74  1  0  0  0  0
 62 77  1  0  0  0  0
 64 66  1  0  0  0  0
M  CHG  3  75   1  76   1  77   1
M  ISO  4  34 101  39 100  72 100  84 101
M  END
> <Batch ID>
0076

> <Smiles>
CCN=[101C:1](C(N)NC(=N)c1ccc([100NH:0][100C:0](=O)N2CCCC(n3nc(-c4ccc(Oc5ccc(F)cc5F)cc4)c(C(N)=O)c3N)C2)c(F)c1)[101O:1]c1ccc2c(c1)CN(C(=O)C(NC(=O)C(C)NC)C(C)(C)C)C(C(=O)NC1CCCc3ccccc31)C2

> <Shape>
0.242

> <Color>
0.124

> <Negative vol penalty>
0.000

$$$$

  -OEChem-04042323503D

 88 96  0     1  0  0  0  0  0999 V2000
  -25.6384  -37.6740   23.7508 C   0  0  0  0  0  0  0  0  0  0  0  0
  -26.2164  -36.9392   22.7205 C   0  0  0  0  0  0  0  0  0  0  0  0
  -23.6361  -10.1857   22.3114 C   0  0  0  0  0  0  0  0  0  0  0  0
  -22.7043  -12.3163   21.6563 C   0  0  0  0  0  0  0  0  0  0  0  0
  -29.6270  -19.8181   19.8598 C   0  0  0  0  0  0  0  0  0  0  0  0
  -27.3451  -19.7705   19.0675 C   0  0  0  0  0  0  0  0  0  0  0  0
  -25.2087  -37.0289   24.9097 C   0  0  0  0  0  0  0  0  0  0  0  0
  -26.3661  -35.5588   22.8491 C   0  0  0  0  0  0  0  0  0  0  0  0
  -26.3339  -29.5522   18.9457 C   0  0  0  0  0  0  0  0  0  0  0  0
  -29.6915  -18.4285   19.7576 C   0  0  0  0  0  0  0  0  0  0  0  0
  -27.4096  -18.3808   18.9652 C   0  0  0  0  0  0  0  0  0  0  0  0
  -22.7031  -10.0952   23.3443 C   0  0  0  0  0  0  0  0  0  0  0  0
  -21.7712  -12.2258   22.6891 C   0  0  0  0  0  0  0  0  0  0  0  0
  -27.1138  -28.4229   18.7004 C   0  0  0  0  0  0  0  0  0  0  0  0
  -19.4392   -9.2817   23.6886 C   0  0  0  0  0  0  0  0  0  0  0  0
  -18.7859   -8.0623   23.8670 C   0  0  0  0  0  0  0  0  0  0  0  0
  -26.2626  -27.4049   20.7150 C   0  0  0  0  0  0  0  0  0  0  0  0
  -19.6790   -7.9116   26.1068 C   0  0  0  0  0  0  0  0  0  0  0  0
  -23.6367  -11.2963   21.4674 C   0  0  0  0  0  0  0  0  0  0  0  0
  -28.4538  -20.4891   19.5148 C   0  0  0  0  0  0  0  0  0  0  0  0
  -24.4568  -10.9221   19.0810 C   0  0  0  0  0  0  0  0  0  0  0  0
  -25.3444  -35.6385   25.0485 C   0  0  0  0  0  0  0  0  0  0  0  0
  -25.5194  -29.6209   20.0852 C   0  0  0  0  0  0  0  0  0  0  0  0
  -25.9391  -34.8946   24.0115 C   0  0  0  0  0  0  0  0  0  0  0  0
  -25.4714  -28.5351   20.9711 C   0  0  0  0  0  0  0  0  0  0  0  0
  -28.5829  -17.7099   19.3103 C   0  0  0  0  0  0  0  0  0  0  0  0
  -21.7706  -11.1153   23.5331 C   0  0  0  0  0  0  0  0  0  0  0  0
  -27.0805  -27.3502   19.5866 C   0  0  0  0  0  0  0  0  0  0  0  0
  -20.2125   -9.8161   24.7192 C   0  0  0  0  0  0  0  0  0  0  0  0
  -18.9058   -7.3773   25.0761 C   0  0  0  0  0  0  0  0  0  0  0  0
  -20.3324   -9.1311   25.9283 C   0  0  0  0  0  0  0  0  0  0  0  0
  -24.6007  -11.3906   20.4006 C   0  0  0  0  0  0  0  0  0  0  0  0
  -25.6408  -11.2524   18.4683 C   0  0  0  0  0  0  0  0  0  0  0  0
  -28.3853  -21.9602   19.6231 C   0  0  0  0  0  0  0  0  0  0  0  0
  -23.3516  -10.2485   18.4641 C   0  0  0  0  0  0  0  0  0  0  0  0
  -25.3905  -31.5078   22.6399 C   0  0  0  0  0  0  0  0  0  0  0  0
  -28.2234  -24.5939   17.8853 C   0  0  0  0  0  0  0  0  0  0  0  0
  -22.6965  -29.8148   23.2714 C   0  0  0  0  0  0  0  0  0  0  0  0
  -20.9153  -26.9362   22.8376 C   0  0  0  0  0  0  0  0  0  0  0  0
  -29.7352  -15.4785   19.5083 C   0  0  0  0  0  0  0  0  0  0  0  0
  -24.9083  -34.9919   26.3394 C   0  0  0  0  0  0  0  0  0  0  0  0
  -24.6637  -30.8352   20.3214 C   0  0  0  0  0  0  0  0  0  0  0  0
  -24.5982  -28.5508   22.1982 C   0  0  0  0  0  0  0  0  0  0  0  0
  -24.7614  -33.4756   26.2418 C   0  0  0  0  0  0  0  0  0  0  0  0
  -30.2802  -11.9610   19.4213 C   0  0  0  0  0  0  0  0  0  0  0  0
  -25.9700  -32.8664   25.5383 C   0  0  0  0  0  0  0  0  0  0  0  0
  -28.8720  -11.3730   19.5363 C   0  0  0  0  0  0  0  0  0  0  0  0
  -30.4399  -13.2207   20.2706 C   0  0  0  0  0  0  0  0  0  0  0  0
  -28.0209  -13.6719   20.1511 C   0  0  0  0  0  0  0  0  0  0  0  0
  -26.0961  -33.3923   24.1034 C   0  0  1  0  0  0  0  0  0  0  0  0
  -24.2620  -31.0079   21.7830 C   0  0  1  0  0  0  0  0  0  0  0  0
  -27.7923  -12.4383   19.2624 C   0  0  2  0  0  0  0  0  0  0  0  0
  -28.0725  -23.7541   16.6358 C   0  0  0  0  0  0  0  0  0  0  0  0
  -18.7651  -25.8302   23.5087 C   0  0  0  0  0  0  0  0  0  0  0  0
  -31.6405  -24.1054   19.7430 C   0  0  0  0  0  0  0  0  0  0  0  0
  -30.7302  -26.2190   18.7842 C   0  0  0  0  0  0  0  0  0  0  0  0
  -31.2501  -24.2887   17.2815 C   0  0  0  0  0  0  0  0  0  0  0  0
  -23.8628  -29.2262   26.0288 C   0  0  0  0  0  0  0  0  0  0  0  0
  -22.1736  -27.3949   26.2756 C   0  0  0  0  0  0  0  0  0  0  0  0
  -21.4194  -29.7591   26.0216 C   0  0  0  0  0  0  0  0  0  0  0  0
  -19.9908  -26.7683   20.0311 C   0  0  0  0  0  0  0  0  0  0  0  0
  -29.2610  -24.1564   18.9112 C   0  0  2  0  0  0  0  0  0  0  0  0
  -22.3841  -28.5446   24.0251 C   0  0  1  0  0  0  0  0  0  0  0  0
  -19.4617  -26.6967   22.4712 C   0  0  2  0  0  0  0  0  0  0  0  0
  -30.6990  -24.6831   18.6644 C   0  0  0  0  0  0  0  0  0  0  0  0
  -22.4780  -28.7314   25.5658 C   0  0  0  0  0  0  0  0  0  0  0  0
  -25.7830  -11.9740   20.6146 N   0  0  0  0  0  0  0  0  0  0  0  0
  -27.5040  -25.6496   18.1244 N   0  0  0  0  0  0  0  0  0  1  0  0
  -26.3928  -11.8742   19.4212 N   0  0  0  0  0  0  0  0  0  0  0  0
  -23.7848  -29.7631   22.3889 N   0  0  0  0  0  0  0  0  0  0  0  0
  -29.3852  -14.1862   19.9537 N   0  0  0  0  0  0  0  0  0  0  0  0
  -26.1016  -11.0688   17.2128 N   0  0  0  0  0  0  0  0  0  0  0  0
  -22.2123   -9.9873   19.2375 N   0  0  0  0  0  0  0  0  0  0  0  0
  -28.6483  -16.2983   19.2064 N   0  0  0  0  0  0  0  0  0  0  0  0
  -29.2436  -22.6912   18.9022 N   0  0  0  0  0  0  0  0  0  0  0  0
  -25.1450  -32.7296   23.2368 N   0  0  0  0  0  0  0  0  0  0  0  0
  -21.0755  -28.1026   23.5554 N   0  0  0  0  0  0  0  0  0  0  0  0
  -27.4713  -22.4884   20.4372 N   0  3  0  0  0  0  0  0  0  0  0  0
  -19.3663  -26.0153   21.1492 N   0  3  0  0  0  0  0  0  0  0  0  0
  -23.3800   -9.8744   17.2671 O   0  0  0  0  0  0  0  0  0  0  0  0
  -26.4079  -30.8341   22.7525 O   0  0  0  0  0  0  0  0  0  0  0  0
  -21.9962  -30.8138   23.4534 O   0  0  0  0  0  0  0  0  0  0  0  0
  -21.8178  -26.1639   22.5220 O   0  0  0  0  0  0  0  0  0  0  0  0
  -30.9125  -15.8228   19.3766 O   0  0  0  0  0  0  0  0  0  0  0  0
  -20.8598  -11.0272   24.5408 O   0  0  0  0  0  0  0  0  0  0  0  0
  -27.8412  -26.2470   19.3499 O   0  0  0  0  0  0  0  0  0  1  0  0
  -18.2771   -6.2070   25.2479 F   0  0  0  0  0  0  0  0  0  0  0  0
  -21.0729   -9.6400   26.9226 F   0  0  0  0  0  0  0  0  0  0  0  0
  1  2  1  0  0  0  0
  1  7  2  0  0  0  0
  2  8  2  0  0  0  0
  3 12  2  0  0  0  0
  3 19  1  0  0  0  0
  4 13  1  0  0  0  0
  4 19  2  0  0  0  0
  5 10  2  0  0  0  0
  5 20  1  0  0  0  0
  6 11  1  0  0  0  0
  6 20  2  0  0  0  0
  7 22  1  0  0  0  0
  8 24  1  0  0  0  0
  9 14  2  0  0  0  0
  9 23  1  0  0  0  0
 10 26  1  0  0  0  0
 11 26  2  0  0  0  0
 12 27  1  0  0  0  0
 13 27  2  0  0  0  0
 14 28  1  0  0  0  0
 15 16  2  0  0  0  0
 15 29  1  0  0  0  0
 16 30  1  0  0  0  0
 17 25  1  0  0  0  0
 17 28  2  0  0  0  0
 18 30  2  0  0  0  0
 18 31  1  0  0  0  0
 19 32  1  0  0  0  0
 20 34  1  0  0  0  0
 21 32  1  0  0  0  0
 21 33  2  0  0  0  0
 21 35  1  0  0  0  0
 22 24  2  0  0  0  0
 22 41  1  0  0  0  0
 23 25  2  0  0  0  0
 23 42  1  0  0  0  0
 24 50  1  0  0  0  0
 25 43  1  0  0  0  0
 26 74  1  0  0  0  0
 27 85  1  0  0  0  0
 28 86  1  0  0  0  0
 29 31  2  0  0  0  0
 29 85  1  0  0  0  0
 30 87  1  0  0  0  0
 31 88  1  0  0  0  0
 32 67  2  0  0  0  0
 33 69  1  0  0  0  0
 33 72  1  0  0  0  0
 34 75  1  0  0  0  0
 34 78  2  0  0  0  0
 35 73  1  0  0  0  0
 35 80  2  0  0  0  0
 36 51  1  0  0  0  0
 36 76  1  0  0  0  0
 36 81  2  0  0  0  0
 37 53  1  0  0  0  0
 37 62  1  0  0  0  0
 37 68  2  0  0  0  0
 38 63  1  0  0  0  0
 38 70  1  0  0  0  0
 38 82  2  0  0  0  0
 39 64  1  0  0  0  0
 39 77  1  0  0  0  0
 39 83  2  0  0  0  0
 40 71  1  0  0  0  0
 40 74  1  0  0  0  0
 40 84  2  0  0  0  0
 41 44  1  0  0  0  0
 42 51  1  0  0  0  0
 43 70  1  0  0  0  0
 44 46  1  0  0  0  0
 45 47  1  0  0  0  0
 45 48  1  0  0  0  0
 46 50  1  0  0  0  0
 47 52  1  0  0  0  0
 48 71  1  0  0  0  0
 49 52  1  0  0  0  0
 49 71  1  0  0  0  0
 50 76  1  0  0  0  0
 51 70  1  0  0  0  0
 52 69  1  0  0  0  0
 54 64  1  0  0  0  0
 55 65  1  0  0  0  0
 56 65  1  0  0  0  0
 57 65  1  0  0  0  0
 58 66  1  0  0  0  0
 59 66  1  0  0  0  0
 60 66  1  0  0  0  0
 61 79  1  0  0  0  0
 62 65  1  0  0  0  0
 62 75  1  0  0  0  0
 63 66  1  0  0  0  0
 63 77  1  0  0  0  0
 64 79  1  0  0  0  0
 67 69  1  0  0  0  0
 68 86  1  0  0  0  0
M  CHG  2  78   1  79   1
M  ISO  4  40 100  68 101  74 100  86 101
M  END
> <Batch ID>
0076

> <Smiles>
CNC(C)C(=O)NC(C(=O)N1Cc2cc([101O:1][101N:1]=C(C)C(NC(=N)c3ccc([100NH:0][100C:0](=O)N4CCCC(n5nc(-c6ccc(Oc7ccc(F)cc7F)cc6)c(C(N)=O)c5N)C4)cc3)C(C)(C)C)ccc2CC1C(=O)NC1CCCc2ccccc21)C(C)(C)C

> <Shape>
0.352

> <Color>
0.070

> <Negative vol penalty>
0.000

$$$$

  -OEChem-04042323503D

 85 94  0     1  0  0  0  0  0999 V2000
  -29.2716  -34.8703   17.1536 C   0  0  0  0  0  0  0  0  0  0  0  0
  -29.2428  -33.5144   17.4636 C   0  0  0  0  0  0  0  0  0  0  0  0
  -24.2143   -8.8438   20.5102 C   0  0  0  0  0  0  0  0  0  0  0  0
  -22.9044  -10.7403   21.2345 C   0  0  0  0  0  0  0  0  0  0  0  0
  -28.8977  -35.8114   18.1121 C   0  0  0  0  0  0  0  0  0  0  0  0
  -28.8412  -33.0988   18.7326 C   0  0  0  0  0  0  0  0  0  0  0  0
  -25.6381  -29.1798   18.5700 C   0  0  0  0  0  0  0  0  0  0  0  0
  -29.5593  -20.3789   21.1692 C   0  0  0  0  0  0  0  0  0  0  0  0
  -29.5929  -18.9968   21.3545 C   0  0  0  0  0  0  0  0  0  0  0  0
  -23.2082   -7.9821   20.9468 C   0  0  0  0  0  0  0  0  0  0  0  0
  -21.8983   -9.8786   21.6711 C   0  0  0  0  0  0  0  0  0  0  0  0
  -26.1859  -27.9189   18.3383 C   0  0  0  0  0  0  0  0  0  0  0  0
  -21.1396   -5.2660   22.1989 C   0  0  0  0  0  0  0  0  0  0  0  0
  -21.5200   -4.1383   22.9262 C   0  0  0  0  0  0  0  0  0  0  0  0
  -26.0687  -27.4406   20.6998 C   0  0  0  0  0  0  0  0  0  0  0  0
  -28.2048  -20.0808   19.1909 C   0  0  0  0  0  0  0  0  0  0  0  0
  -22.5152   -5.5587   24.6082 C   0  0  0  0  0  0  0  0  0  0  0  0
  -24.0625  -10.2230   20.6540 C   0  0  0  0  0  0  0  0  0  0  0  0
  -25.2317  -11.6914   18.9266 C   0  0  0  0  0  0  0  0  0  0  0  0
  -28.4821  -35.4066   19.3904 C   0  0  0  0  0  0  0  0  0  0  0  0
  -25.3110  -29.5854   19.8719 C   0  0  0  0  0  0  0  0  0  0  0  0
  -28.4627  -34.0354   19.7094 C   0  0  0  0  0  0  0  0  0  0  0  0
  -25.5144  -28.7063   20.9451 C   0  0  0  0  0  0  0  0  0  0  0  0
  -28.8652  -20.9209   20.0874 C   0  0  0  0  0  0  0  0  0  0  0  0
  -28.9325  -18.1567   20.4580 C   0  0  0  0  0  0  0  0  0  0  0  0
  -28.2384  -18.6987   19.3762 C   0  0  0  0  0  0  0  0  0  0  0  0
  -22.0502   -8.4994   21.5273 C   0  0  0  0  0  0  0  0  0  0  0  0
  -26.4040  -27.0502   19.4036 C   0  0  0  0  0  0  0  0  0  0  0  0
  -21.4471   -6.5402   22.6762 C   0  0  0  0  0  0  0  0  0  0  0  0
  -22.2078   -4.2846   24.1309 C   0  0  0  0  0  0  0  0  0  0  0  0
  -22.1348   -6.6865   23.8808 C   0  0  0  0  0  0  0  0  0  0  0  0
  -25.1017  -11.1136   20.2037 C   0  0  0  0  0  0  0  0  0  0  0  0
  -26.3736  -12.4503   19.0076 C   0  0  0  0  0  0  0  0  0  0  0  0
  -29.3741  -23.3122   20.6078 C   0  0  0  0  0  0  0  0  0  0  0  0
  -24.3949  -11.5545   17.7704 C   0  0  0  0  0  0  0  0  0  0  0  0
  -26.2773  -31.9168   21.8044 C   0  0  0  0  0  0  0  0  0  0  0  0
  -23.8916  -30.8048   23.7002 C   0  0  0  0  0  0  0  0  0  0  0  0
  -21.8689  -28.2027   24.5857 C   0  0  0  0  0  0  0  0  0  0  0  0
  -29.6306  -16.0778   21.6977 C   0  0  0  0  0  0  0  0  0  0  0  0
  -28.1325  -36.4630   20.4084 C   0  0  0  0  0  0  0  0  0  0  0  0
  -24.6960  -30.9387   20.1018 C   0  0  0  0  0  0  0  0  0  0  0  0
  -25.1615  -29.0860   22.3592 C   0  0  0  0  0  0  0  0  0  0  0  0
  -27.3611  -35.9205   21.6088 C   0  0  0  0  0  0  0  0  0  0  0  0
  -29.9532  -12.6438   22.5813 C   0  0  0  0  0  0  0  0  0  0  0  0
  -28.0161  -34.6464   22.1328 C   0  0  0  0  0  0  0  0  0  0  0  0
  -28.7305  -11.9871   21.9365 C   0  0  0  0  0  0  0  0  0  0  0  0
  -29.6318  -14.0379   23.1169 C   0  0  0  0  0  0  0  0  0  0  0  0
  -27.7900  -14.2920   21.5006 C   0  0  0  0  0  0  0  0  0  0  0  0
  -28.1934  -23.0965   18.8762 C   0  0  0  0  0  0  0  0  0  0  0  0
  -28.0092  -33.5440   21.0670 C   0  0  1  0  0  0  0  0  0  0  0  0
  -24.8781  -31.4429   21.5301 C   0  0  1  0  0  0  0  0  0  0  0  0
  -28.0810  -12.9121   20.8885 C   0  0  2  0  0  0  0  0  0  0  0  0
  -28.7712  -24.3434   19.6108 C   0  0  2  0  0  0  0  0  0  0  0  0
  -29.8174  -25.1198   18.8186 C   0  0  0  0  0  0  0  0  0  0  0  0
  -20.0448  -27.5845   26.1944 C   0  0  0  0  0  0  0  0  0  0  0  0
  -25.9493  -30.5750   25.9415 C   0  0  0  0  0  0  0  0  0  0  0  0
  -24.3412  -29.1029   27.1724 C   0  0  0  0  0  0  0  0  0  0  0  0
  -23.7235  -31.4639   26.6558 C   0  0  0  0  0  0  0  0  0  0  0  0
  -19.9610  -27.6524   22.3912 C   0  0  0  0  0  0  0  0  0  0  0  0
  -27.7269  -25.2537   20.2274 C   0  0  0  0  0  0  0  0  0  1  0  0
  -23.7876  -29.7622   24.7871 C   0  0  1  0  0  0  0  0  0  0  0  0
  -20.3696  -28.1233   24.8099 C   0  0  2  0  0  0  0  0  0  0  0  0
  -24.4590  -30.2193   26.1129 C   0  0  0  0  0  0  0  0  0  0  0  0
  -26.0828  -11.4744   21.0351 N   0  0  0  0  0  0  0  0  0  0  0  0
  -26.8403  -12.2870   20.2788 N   0  0  0  0  0  0  0  0  0  0  0  0
  -28.8322  -22.2837   19.9052 N   0  0  0  0  0  0  0  0  0  0  0  0
  -24.5686  -30.4223   22.5336 N   0  0  0  0  0  0  0  0  0  0  0  0
  -29.0234  -14.8591   22.0679 N   0  0  0  0  0  0  0  0  0  0  0  0
  -27.5623  -17.8661   18.4562 N   0  0  0  0  0  0  0  0  0  0  0  0
  -27.0141  -13.2346   18.1149 N   0  0  0  0  0  0  0  0  0  0  0  0
  -23.2607  -10.7361   17.8596 N   0  0  0  0  0  0  0  0  0  0  0  0
  -28.9806  -16.7561   20.6672 N   0  0  0  0  0  0  0  0  0  0  0  0
  -26.6980  -32.9385   20.9745 N   0  0  0  0  0  0  0  0  0  0  0  0
  -22.3693  -29.4449   24.9139 N   0  0  0  0  0  0  0  0  0  0  0  0
  -19.7412  -27.2279   23.7978 N   0  3  0  0  0  0  0  0  0  0  0  0
  -30.0519  -23.3585   21.6091 O   0  0  0  0  0  0  0  0  0  0  0  0
  -24.6546  -12.1276   16.6852 O   0  0  0  0  0  0  0  0  0  0  0  0
  -26.9266  -31.3953   22.7033 O   0  0  0  0  0  0  0  0  0  0  0  0
  -23.3844  -31.9153   23.8770 O   0  0  0  0  0  0  0  0  0  0  0  0
  -22.5306  -27.2561   24.1654 O   0  0  0  0  0  0  0  0  0  0  0  0
  -30.6672  -16.4760   22.2353 O   0  0  0  0  0  0  0  0  0  0  0  0
  -21.0681   -7.6589   21.9533 O   0  0  0  0  0  0  0  0  0  0  0  0
  -26.9392  -25.8191   19.1804 O   0  0  0  0  0  0  0  0  0  1  0  0
  -22.5717   -3.2016   24.8300 F   0  0  0  0  0  0  0  0  0  0  0  0
  -22.4320   -7.9080   24.3450 F   0  0  0  0  0  0  0  0  0  0  0  0
  1  2  1  0  0  0  0
  1  5  2  0  0  0  0
  2  6  2  0  0  0  0
  3 10  2  0  0  0  0
  3 18  1  0  0  0  0
  4 11  1  0  0  0  0
  4 18  2  0  0  0  0
  5 20  1  0  0  0  0
  6 22  1  0  0  0  0
  7 12  2  0  0  0  0
  7 21  1  0  0  0  0
  8  9  2  0  0  0  0
  8 24  1  0  0  0  0
  9 25  1  0  0  0  0
 10 27  1  0  0  0  0
 11 27  2  0  0  0  0
 12 28  1  0  0  0  0
 13 14  2  0  0  0  0
 13 29  1  0  0  0  0
 14 30  1  0  0  0  0
 15 23  1  0  0  0  0
 15 28  2  0  0  0  0
 16 24  2  0  0  0  0
 16 26  1  0  0  0  0
 17 30  2  0  0  0  0
 17 31  1  0  0  0  0
 18 32  1  0  0  0  0
 19 32  1  0  0  0  0
 19 33  2  0  0  0  0
 19 35  1  0  0  0  0
 20 22  2  0  0  0  0
 20 40  1  0  0  0  0
 21 23  2  0  0  0  0
 21 41  1  0  0  0  0
 22 50  1  0  0  0  0
 23 42  1  0  0  0  0
 24 66  1  0  0  0  0
 25 26  2  0  0  0  0
 25 72  1  0  0  0  0
 26 69  1  0  0  0  0
 27 82  1  0  0  0  0
 28 83  1  0  0  0  0
 29 31  2  0  0  0  0
 29 82  1  0  0  0  0
 30 84  1  0  0  0  0
 31 85  1  0  0  0  0
 32 64  2  0  0  0  0
 33 65  1  0  0  0  0
 33 70  1  0  0  0  0
 34 53  1  0  0  0  0
 34 66  1  0  0  0  0
 34 76  2  0  0  0  0
 35 71  1  0  0  0  0
 35 77  2  0  0  0  0
 36 51  1  0  0  0  0
 36 73  1  0  0  0  0
 36 78  2  0  0  0  0
 37 61  1  0  0  0  0
 37 67  1  0  0  0  0
 37 79  2  0  0  0  0
 38 62  1  0  0  0  0
 38 74  1  0  0  0  0
 38 80  2  0  0  0  0
 39 68  1  0  0  0  0
 39 72  1  0  0  0  0
 39 81  2  0  0  0  0
 40 43  1  0  0  0  0
 41 51  1  0  0  0  0
 42 67  1  0  0  0  0
 43 45  1  0  0  0  0
 44 46  1  0  0  0  0
 44 47  1  0  0  0  0
 45 50  1  0  0  0  0
 46 52  1  0  0  0  0
 47 68  1  0  0  0  0
 48 52  1  0  0  0  0
 48 68  1  0  0  0  0
 49 53  1  0  0  0  0
 49 66  1  0  0  0  0
 50 73  1  0  0  0  0
 51 67  1  0  0  0  0
 52 65  1  0  0  0  0
 53 54  1  0  0  0  0
 53 60  1  0  0  0  0
 55 62  1  0  0  0  0
 56 63  1  0  0  0  0
 57 63  1  0  0  0  0
 58 63  1  0  0  0  0
 59 75  1  0  0  0  0
 60 83  1  0  0  0  0
 61 63  1  0  0  0  0
 61 74  1  0  0  0  0
 62 75  1  0  0  0  0
 64 65  1  0  0  0  0
M  CHG  1  75   1
M  ISO  4  39 100  60 101  72 100  83 101
M  END
> <Batch ID>
0076

> <Smiles>
CNC(C)C(=O)NC(C(=O)N1Cc2cc([101O:1][101CH2:1]C3(C)CN(c4ccc([100NH:0][100C:0](=O)N5CCCC(n6nc(-c7ccc(Oc8ccc(F)cc8F)cc7)c(C(N)=O)c6N)C5)c(N)c4)C3=O)ccc2CC1C(=O)NC1CCCc2ccccc21)C(C)(C)C

> <Shape>
0.316

> <Color>
0.109

> <Negative vol penalty>
0.000

$$$$

  -OEChem-04042323503D

 87 96  0     1  0  0  0  0  0999 V2000
  -17.3475  -27.8821   24.7864 C   0  0  0  0  0  0  0  0  0  0  0  0
  -18.6191  -27.3380   24.9359 C   0  0  0  0  0  0  0  0  0  0  0  0
  -22.2645  -13.3670   18.4115 C   0  0  0  0  0  0  0  0  0  0  0  0
  -21.9912  -12.2851   20.5544 C   0  0  0  0  0  0  0  0  0  0  0  0
  -16.9837  -28.4801   23.5805 C   0  0  0  0  0  0  0  0  0  0  0  0
  -19.5274  -27.3905   23.8791 C   0  0  0  0  0  0  0  0  0  0  0  0
  -26.5474  -27.9699   22.5749 C   0  0  0  0  0  0  0  0  0  0  0  0
  -21.1117  -12.7349   17.9454 C   0  0  0  0  0  0  0  0  0  0  0  0
  -20.8384  -11.6531   20.0883 C   0  0  0  0  0  0  0  0  0  0  0  0
  -27.5664  -27.3380   21.8636 C   0  0  0  0  0  0  0  0  0  0  0  0
  -17.7658  -13.1338   18.2253 C   0  0  0  0  0  0  0  0  0  0  0  0
  -16.8461  -13.9048   17.5144 C   0  0  0  0  0  0  0  0  0  0  0  0
  -29.1978  -19.0415   19.4302 C   0  0  0  0  0  0  0  0  0  0  0  0
  -29.0006  -20.4524   19.4030 C   0  0  0  0  0  0  0  0  0  0  0  0
  -26.8548  -28.4662   19.8537 C   0  0  0  0  0  0  0  0  0  0  0  0
  -17.1176  -12.4604   15.5968 C   0  0  0  0  0  0  0  0  0  0  0  0
  -22.7043  -13.1420   19.7160 C   0  0  0  0  0  0  0  0  0  0  0  0
  -23.9795  -15.0442   20.8399 C   0  0  0  0  0  0  0  0  0  0  0  0
  -17.8913  -28.5486   22.5118 C   0  0  0  0  0  0  0  0  0  0  0  0
  -25.6660  -28.8478   21.9276 C   0  0  0  0  0  0  0  0  0  0  0  0
  -19.1750  -27.9888   22.6574 C   0  0  0  0  0  0  0  0  0  0  0  0
  -25.8269  -29.1099   20.5596 C   0  0  0  0  0  0  0  0  0  0  0  0
  -20.3987  -11.8780   18.7838 C   0  0  0  0  0  0  0  0  0  0  0  0
  -27.7185  -27.5839   20.5022 C   0  0  0  0  0  0  0  0  0  0  0  0
  -18.3614  -12.0262   17.6220 C   0  0  0  0  0  0  0  0  0  0  0  0
  -16.5220  -13.5681   16.2001 C   0  0  0  0  0  0  0  0  0  0  0  0
  -18.0373  -11.6894   16.3077 C   0  0  0  0  0  0  0  0  0  0  0  0
  -23.8953  -13.7942   20.1979 C   0  0  0  0  0  0  0  0  0  0  0  0
  -30.5237  -18.7075   19.5973 C   0  0  0  0  0  0  0  0  0  0  0  0
  -25.3189  -15.2096   21.0951 C   0  0  0  0  0  0  0  0  0  0  0  0
  -30.1835  -21.1430   19.5506 C   0  0  0  0  0  0  0  0  0  0  0  0
  -31.3412  -23.2054   20.2759 C   0  0  0  0  0  0  0  0  0  0  0  0
  -31.5245  -24.5374   20.3434 C   0  0  0  0  0  0  0  0  0  0  0  0
  -22.9399  -15.9728   21.1757 C   0  0  0  0  0  0  0  0  0  0  0  0
  -31.1419  -17.3591   19.6782 C   0  0  0  0  0  0  0  0  0  0  0  0
  -22.5307  -28.8997   21.4075 C   0  0  0  0  0  0  0  0  0  0  0  0
  -23.1734  -31.8408   20.1995 C   0  0  0  0  0  0  0  0  0  0  0  0
  -25.4519  -33.9670   18.8087 C   0  0  0  0  0  0  0  0  0  0  0  0
  -30.6403  -14.9380   19.5760 C   0  0  0  0  0  0  0  0  0  0  0  0
  -17.4366  -29.1628   21.2115 C   0  0  0  0  0  0  0  0  0  0  0  0
  -24.5885  -29.5420   22.7147 C   0  0  0  0  0  0  0  0  0  0  0  0
  -24.9198  -30.0595   19.8220 C   0  0  0  0  0  0  0  0  0  0  0  0
  -18.5849  -29.5107   20.2678 C   0  0  0  0  0  0  0  0  0  0  0  0
  -29.1713  -11.9405   20.7398 C   0  0  0  0  0  0  0  0  0  0  0  0
  -19.5705  -28.3501   20.1757 C   0  0  0  0  0  0  0  0  0  0  0  0
  -27.6737  -12.2581   20.7641 C   0  0  0  0  0  0  0  0  0  0  0  0
  -29.8781  -24.6966   18.4377 C   0  0  0  0  0  0  0  0  0  0  0  0
  -29.8680  -12.5825   19.5409 C   0  0  0  0  0  0  0  0  0  0  0  0
  -29.3021  -23.3508   18.8933 C   0  0  0  0  0  0  0  0  0  0  0  0
  -28.1481  -14.3384   19.4109 C   0  0  0  0  0  0  0  0  0  0  0  0
  -20.1966  -28.0484   21.5426 C   0  0  1  0  0  0  0  0  0  0  0  0
  -23.4291  -30.0212   21.8466 C   0  0  1  0  0  0  0  0  0  0  0  0
  -27.4145  -13.7727   20.6377 C   0  0  1  0  0  0  0  0  0  0  0  0
  -30.6025  -25.4800   19.5672 C   0  0  2  0  0  0  0  0  0  0  0  0
  -32.6093  -25.1188   21.2072 C   0  0  0  0  0  0  0  0  0  0  0  0
  -31.3832  -26.6316   18.9032 C   0  0  0  0  0  0  0  0  0  0  0  0
  -25.6728  -36.2928   17.8924 C   0  0  0  0  0  0  0  0  0  0  0  0
  -21.7369  -30.9709   17.6520 C   0  0  0  0  0  0  0  0  0  0  0  0
  -22.7958  -32.9109   16.4757 C   0  0  0  0  0  0  0  0  0  0  0  0
  -21.2391  -33.3101   18.3835 C   0  0  0  0  0  0  0  0  0  0  0  0
  -27.4771  -34.6993   20.8388 C   0  0  0  0  0  0  0  0  0  0  0  0
  -29.5623  -26.0821   20.5323 C   0  0  0  0  0  0  0  0  0  1  0  0
  -23.5454  -32.3800   18.8394 C   0  0  1  0  0  0  0  0  0  0  0  0
  -25.8067  -35.4092   19.1229 C   0  0  2  0  0  0  0  0  0  0  0  0
  -22.3454  -32.3735   17.8508 C   0  0  0  0  0  0  0  0  0  0  0  0
  -25.0864  -13.2072   20.0540 N   0  0  0  0  0  0  0  0  0  0  0  0
  -25.9317  -14.0922   20.6091 N   0  0  0  0  0  0  0  0  0  0  0  0
  -30.3408  -22.5546   19.5683 N   0  0  0  0  0  0  0  0  0  0  0  0
  -23.8775  -30.7089   20.6341 N   0  0  0  0  0  0  0  0  0  0  0  0
  -29.5807  -14.0174   19.4982 N   0  0  0  0  0  0  0  0  0  0  0  0
  -26.0205  -16.2003   21.6856 N   0  0  0  0  0  0  0  0  0  0  0  0
  -21.6186  -15.6460   20.8414 N   0  0  0  0  0  0  0  0  0  0  0  0
  -30.2589  -16.2843   19.5702 N   0  0  0  0  0  0  0  0  0  0  0  0
  -21.2272  -29.0164   21.8512 N   0  0  0  0  0  0  0  0  0  0  0  0
  -24.1243  -33.6995   19.0678 N   0  0  0  0  0  0  0  0  0  0  0  0
  -27.2094  -35.5017   19.6175 N   0  3  0  0  0  0  0  0  0  0  0  0
  -23.1776  -17.0674   21.7402 O   0  0  0  0  0  0  0  0  0  0  0  0
  -32.3610  -17.2659   19.7918 O   0  0  0  0  0  0  0  0  0  0  0  0
  -22.9860  -27.9963   20.7160 O   0  0  0  0  0  0  0  0  0  0  0  0
  -22.2957  -32.4075   20.8553 O   0  0  0  0  0  0  0  0  0  0  0  0
  -26.2698  -33.1596   18.3732 O   0  0  0  0  0  0  0  0  0  0  0  0
  -31.8211  -14.5916   19.6803 O   0  0  0  0  0  0  0  0  0  0  0  0
  -19.2736  -11.2613   18.3294 O   0  0  0  0  0  0  0  0  0  0  0  0
  -28.7119  -26.9680   19.8054 O   0  0  0  0  0  0  0  0  0  1  0  0
  -15.6377  -14.3077   15.5181 F   0  0  0  0  0  0  0  0  0  0  0  0
  -18.6053  -10.6258   15.7232 F   0  0  0  0  0  0  0  0  0  0  0  0
  -31.5244  -20.0916   19.7207 S   0  0  0  0  0  0  0  0  0  0  0  0
  1  2  1  0  0  0  0
  1  5  2  0  0  0  0
  2  6  2  0  0  0  0
  3  8  2  0  0  0  0
  3 17  1  0  0  0  0
  4  9  1  0  0  0  0
  4 17  2  0  0  0  0
  5 19  1  0  0  0  0
  6 21  1  0  0  0  0
  7 10  2  0  0  0  0
  7 20  1  0  0  0  0
  8 23  1  0  0  0  0
  9 23  2  0  0  0  0
 10 24  1  0  0  0  0
 11 12  2  0  0  0  0
 11 25  1  0  0  0  0
 12 26  1  0  0  0  0
 13 14  1  0  0  0  0
 13 29  2  0  0  0  0
 14 31  2  0  0  0  0
 15 22  1  0  0  0  0
 15 24  2  0  0  0  0
 16 26  2  0  0  0  0
 16 27  1  0  0  0  0
 17 28  1  0  0  0  0
 18 28  1  0  0  0  0
 18 30  2  0  0  0  0
 18 34  1  0  0  0  0
 19 21  2  0  0  0  0
 19 40  1  0  0  0  0
 20 22  2  0  0  0  0
 20 41  1  0  0  0  0
 21 51  1  0  0  0  0
 22 42  1  0  0  0  0
 23 83  1  0  0  0  0
 24 84  1  0  0  0  0
 25 27  2  0  0  0  0
 25 83  1  0  0  0  0
 26 85  1  0  0  0  0
 27 86  1  0  0  0  0
 28 66  2  0  0  0  0
 29 35  1  0  0  0  0
 29 87  1  0  0  0  0
 30 67  1  0  0  0  0
 30 71  1  0  0  0  0
 31 68  1  0  0  0  0
 31 87  1  0  0  0  0
 32 33  2  0  0  0  0
 32 68  1  0  0  0  0
 33 54  1  0  0  0  0
 33 55  1  0  0  0  0
 34 72  1  0  0  0  0
 34 77  2  0  0  0  0
 35 73  1  0  0  0  0
 35 78  2  0  0  0  0
 36 52  1  0  0  0  0
 36 74  1  0  0  0  0
 36 79  2  0  0  0  0
 37 63  1  0  0  0  0
 37 69  1  0  0  0  0
 37 80  2  0  0  0  0
 38 64  1  0  0  0  0
 38 75  1  0  0  0  0
 38 81  2  0  0  0  0
 39 70  1  0  0  0  0
 39 73  1  0  0  0  0
 39 82  2  0  0  0  0
 40 43  1  0  0  0  0
 41 52  1  0  0  0  0
 42 69  1  0  0  0  0
 43 45  1  0  0  0  0
 44 46  1  0  0  0  0
 44 48  1  0  0  0  0
 45 51  1  0  0  0  0
 46 53  1  0  0  0  0
 47 49  1  0  0  0  0
 47 54  1  0  0  0  0
 48 70  1  0  0  0  0
 49 68  1  0  0  0  0
 50 53  1  0  0  0  0
 50 70  1  0  0  0  0
 51 74  1  0  0  0  0
 52 69  1  0  0  0  0
 53 67  1  0  0  0  0
 54 56  1  0  0  0  0
 54 62  1  0  0  0  0
 57 64  1  0  0  0  0
 58 65  1  0  0  0  0
 59 65  1  0  0  0  0
 60 65  1  0  0  0  0
 61 76  1  0  0  0  0
 62 84  1  0  0  0  0
 63 65  1  0  0  0  0
 63 75  1  0  0  0  0
 64 76  1  0  0  0  0
 66 67  1  0  0  0  0
M  CHG  1  76   1
M  ISO  4  39 100  62 101  73 100  84 101
M  END
> <Batch ID>
0076

> <Smiles>
CNC(C)C(=O)NC(C(=O)N1Cc2cc([101O:1][101CH2:1]C3(C)CCN(c4ccc(C(=O)[100NH:0][100C:0](=O)N5CCCC(n6nc(-c7ccc(Oc8ccc(F)cc8F)cc7)c(C(N)=O)c6N)C5)s4)C=C3C)ccc2CC1C(=O)NC1CCCc2ccccc21)C(C)(C)C

> <Shape>
0.248

> <Color>
0.085

> <Negative vol penalty>
0.000

$$$$

  -OEChem-04042323503D

 85 94  0     1  0  0  0  0  0999 V2000
  -27.7338   -9.1962   21.4239 C   0  0  0  0  0  0  0  0  0  0  0  0
  -28.3866  -10.3749   21.0777 C   0  0  0  0  0  0  0  0  0  0  0  0
  -30.2827  -29.0173   18.6714 C   0  0  0  0  0  0  0  0  0  0  0  0
  -19.6918  -28.5861   23.3970 C   0  0  0  0  0  0  0  0  0  0  0  0
  -20.8795  -26.7392   22.3893 C   0  0  0  0  0  0  0  0  0  0  0  0
  -26.3409   -9.1614   21.4757 C   0  0  0  0  0  0  0  0  0  0  0  0
  -27.6468  -11.5194   20.7821 C   0  0  0  0  0  0  0  0  0  0  0  0
  -29.1894  -17.3183   22.0063 C   0  0  0  0  0  0  0  0  0  0  0  0
  -30.2614  -27.6425   18.4370 C   0  0  0  0  0  0  0  0  0  0  0  0
  -29.5166  -29.5611   19.7024 C   0  0  0  0  0  0  0  0  0  0  0  0
  -18.5420  -28.2318   22.6911 C   0  0  0  0  0  0  0  0  0  0  0  0
  -19.7297  -26.3849   21.6835 C   0  0  0  0  0  0  0  0  0  0  0  0
  -29.7597  -18.3222   21.2248 C   0  0  0  0  0  0  0  0  0  0  0  0
  -16.8292  -24.7649   22.3023 C   0  0  0  0  0  0  0  0  0  0  0  0
  -16.4799  -23.4149   22.2712 C   0  0  0  0  0  0  0  0  0  0  0  0
  -27.5614  -19.1973   20.7553 C   0  0  0  0  0  0  0  0  0  0  0  0
  -28.7076  -27.3551   20.2647 C   0  0  0  0  0  0  0  0  0  0  0  0
  -16.6559  -23.4249   19.8616 C   0  0  0  0  0  0  0  0  0  0  0  0
  -20.8605  -27.8398   23.2460 C   0  0  0  0  0  0  0  0  0  0  0  0
  -22.4348  -27.7567   25.2516 C   0  0  0  0  0  0  0  0  0  0  0  0
  -25.5840  -10.3086   21.1900 C   0  0  0  0  0  0  0  0  0  0  0  0
  -27.7977  -17.2398   22.1596 C   0  0  0  0  0  0  0  0  0  0  0  0
  -26.2425  -11.4996   20.8288 C   0  0  0  0  0  0  0  0  0  0  0  0
  -26.9760  -18.1931   21.5413 C   0  0  0  0  0  0  0  0  0  0  0  0
  -29.4738  -26.8114   19.2336 C   0  0  0  0  0  0  0  0  0  0  0  0
  -28.7290  -28.7300   20.4991 C   0  0  0  0  0  0  0  0  0  0  0  0
  -18.5610  -27.1312   21.8344 C   0  0  0  0  0  0  0  0  0  0  0  0
  -28.9456  -19.2602   20.5968 C   0  0  0  0  0  0  0  0  0  0  0  0
  -17.0918  -25.4450   21.1131 C   0  0  0  0  0  0  0  0  0  0  0  0
  -16.3933  -22.7449   21.0509 C   0  0  0  0  0  0  0  0  0  0  0  0
  -17.0052  -24.7750   19.8928 C   0  0  0  0  0  0  0  0  0  0  0  0
  -22.0487  -28.2056   23.9744 C   0  0  0  0  0  0  0  0  0  0  0  0
  -23.6285  -28.3919   25.4924 C   0  0  0  0  0  0  0  0  0  0  0  0
  -29.4242  -23.4941   18.6674 C   0  0  0  0  0  0  0  0  0  0  0  0
  -30.0827  -24.6614   18.0906 C   0  0  0  0  0  0  0  0  0  0  0  0
  -28.7970  -24.4226   19.6018 C   0  0  0  0  0  0  0  0  0  0  0  0
  -29.4043  -22.1600   18.4397 C   0  0  0  0  0  0  0  0  0  0  0  0
  -21.7735  -26.8469   26.1408 C   0  0  0  0  0  0  0  0  0  0  0  0
  -25.5786  -15.0846   21.4286 C   0  0  0  0  0  0  0  0  0  0  0  0
  -23.6328  -17.1104   23.0511 C   0  0  0  0  0  0  0  0  0  0  0  0
  -23.0314  -20.2796   24.1651 C   0  0  0  0  0  0  0  0  0  0  0  0
  -27.8592  -30.6254   21.9122 C   0  0  0  0  0  0  0  0  0  0  0  0
  -24.0792  -10.2098   21.2131 C   0  0  0  0  0  0  0  0  0  0  0  0
  -27.1997  -16.1668   23.0276 C   0  0  0  0  0  0  0  0  0  0  0  0
  -25.4775  -18.1648   21.6907 C   0  0  0  0  0  0  0  0  0  0  0  0
  -23.3803  -11.5664   21.2505 C   0  0  0  0  0  0  0  0  0  0  0  0
  -26.0289  -32.3905   24.4046 C   0  0  0  0  0  0  0  0  0  0  0  0
  -23.9944  -12.5118   20.2230 C   0  0  0  0  0  0  0  0  0  0  0  0
  -24.8389  -31.4739   24.6977 C   0  0  0  0  0  0  0  0  0  0  0  0
  -26.4090  -32.3708   22.9251 C   0  0  0  0  0  0  0  0  0  0  0  0
  -25.4492  -30.1181   22.6541 C   0  0  0  0  0  0  0  0  0  0  0  0
  -25.4757  -12.7684   20.5254 C   0  0  1  0  0  0  0  0  0  0  0  0
  -25.7394  -15.8751   22.6963 C   0  0  1  0  0  0  0  0  0  0  0  0
  -25.0706  -30.0548   24.1429 C   0  0  2  0  0  0  0  0  0  0  0  0
  -21.3409  -21.6351   25.4309 C   0  0  0  0  0  0  0  0  0  0  0  0
  -21.8159  -17.1289   20.5999 C   0  0  0  0  0  0  0  0  0  0  0  0
  -20.7024  -19.1707   21.5270 C   0  0  0  0  0  0  0  0  0  0  0  0
  -20.6125  -17.0211   22.7896 C   0  0  0  0  0  0  0  0  0  0  0  0
  -24.9899  -20.9659   26.2752 C   0  0  0  0  0  0  0  0  0  0  0  0
  -28.6062  -21.1683   19.2186 C   0  0  0  0  0  0  0  0  0  1  0  0
  -22.7875  -18.3056   22.6825 C   0  0  1  0  0  0  0  0  0  0  0  0
  -22.6125  -20.8065   25.5258 C   0  0  2  0  0  0  0  0  0  0  0  0
  -21.5077  -17.9062   21.8951 C   0  0  0  0  0  0  0  0  0  0  0  0
  -22.9260  -29.0600   23.4412 N   0  0  0  0  0  0  0  0  0  0  0  0
  -23.8751  -29.1532   24.3880 N   0  0  0  0  0  0  0  0  0  0  0  0
  -29.4536  -25.4564   19.0024 N   0  0  0  0  0  0  0  0  0  0  0  0
  -24.9401  -17.0926   22.5446 N   0  0  0  0  0  0  0  0  0  0  0  0
  -26.6170  -30.9942   22.4706 N   0  0  0  0  0  0  0  0  0  0  0  0
  -24.4808  -28.3680   26.5391 N   0  0  0  0  0  0  0  0  0  0  0  0
  -20.5549  -26.2847   25.7367 N   0  0  0  0  0  0  0  0  0  0  0  0
  -27.9511  -29.2829   21.5463 N   0  0  0  0  0  0  0  0  0  0  0  0
  -25.6132  -13.7153   21.6113 N   0  0  0  0  0  0  0  0  0  0  0  0
  -22.5248  -19.0194   23.9274 N   0  0  0  0  0  0  0  0  0  0  0  0
  -23.6881  -21.6609   26.1039 N   0  3  0  0  0  0  0  0  0  0  0  0
  -30.8632  -24.8548   17.1823 O   0  0  0  0  0  0  0  0  0  0  0  0
  -28.0178  -24.3265   20.5267 O   0  0  0  0  0  0  0  0  0  0  0  0
  -22.2410  -26.5542   27.2674 O   0  0  0  0  0  0  0  0  0  0  0  0
  -25.4324  -15.6733   20.3639 O   0  0  0  0  0  0  0  0  0  0  0  0
  -23.1533  -16.2286   23.7682 O   0  0  0  0  0  0  0  0  0  0  0  0
  -23.7343  -20.9232   23.3891 O   0  0  0  0  0  0  0  0  0  0  0  0
  -28.7833  -31.4342   21.7942 O   0  0  0  0  0  0  0  0  0  0  0  0
  -17.4392  -26.7851   21.1457 O   0  0  0  0  0  0  0  0  0  0  0  0
  -29.4996  -20.2406   19.8330 O   0  0  0  0  0  0  0  0  0  1  0  0
  -16.0594  -21.4480   21.0213 F   0  0  0  0  0  0  0  0  0  0  0  0
  -17.2575  -25.4227   18.7471 F   0  0  0  0  0  0  0  0  0  0  0  0
  1  2  1  0  0  0  0
  1  6  2  0  0  0  0
  2  7  2  0  0  0  0
  3  9  2  0  0  0  0
  3 10  1  0  0  0  0
  4 11  2  0  0  0  0
  4 19  1  0  0  0  0
  5 12  1  0  0  0  0
  5 19  2  0  0  0  0
  6 21  1  0  0  0  0
  7 23  1  0  0  0  0
  8 13  2  0  0  0  0
  8 22  1  0  0  0  0
  9 25  1  0  0  0  0
 10 26  2  0  0  0  0
 11 27  1  0  0  0  0
 12 27  2  0  0  0  0
 13 28  1  0  0  0  0
 14 15  2  0  0  0  0
 14 29  1  0  0  0  0
 15 30  1  0  0  0  0
 16 24  1  0  0  0  0
 16 28  2  0  0  0  0
 17 25  2  0  0  0  0
 17 26  1  0  0  0  0
 18 30  2  0  0  0  0
 18 31  1  0  0  0  0
 19 32  1  0  0  0  0
 20 32  1  0  0  0  0
 20 33  2  0  0  0  0
 20 38  1  0  0  0  0
 21 23  2  0  0  0  0
 21 43  1  0  0  0  0
 22 24  2  0  0  0  0
 22 44  1  0  0  0  0
 23 52  1  0  0  0  0
 24 45  1  0  0  0  0
 25 66  1  0  0  0  0
 26 71  1  0  0  0  0
 27 82  1  0  0  0  0
 28 83  1  0  0  0  0
 29 31  2  0  0  0  0
 29 82  1  0  0  0  0
 30 84  1  0  0  0  0
 31 85  1  0  0  0  0
 32 64  2  0  0  0  0
 33 65  1  0  0  0  0
 33 69  1  0  0  0  0
 34 35  1  0  0  0  0
 34 36  1  0  0  0  0
 34 37  2  0  0  0  0
 35 66  1  0  0  0  0
 35 75  2  0  0  0  0
 36 66  1  0  0  0  0
 36 76  2  0  0  0  0
 37 60  1  0  0  0  0
 38 70  1  0  0  0  0
 38 77  2  0  0  0  0
 39 53  1  0  0  0  0
 39 72  1  0  0  0  0
 39 78  2  0  0  0  0
 40 61  1  0  0  0  0
 40 67  1  0  0  0  0
 40 79  2  0  0  0  0
 41 62  1  0  0  0  0
 41 73  1  0  0  0  0
 41 80  2  0  0  0  0
 42 68  1  0  0  0  0
 42 71  1  0  0  0  0
 42 81  2  0  0  0  0
 43 46  1  0  0  0  0
 44 53  1  0  0  0  0
 45 67  1  0  0  0  0
 46 48  1  0  0  0  0
 47 49  1  0  0  0  0
 47 50  1  0  0  0  0
 48 52  1  0  0  0  0
 49 54  1  0  0  0  0
 50 68  1  0  0  0  0
 51 54  1  0  0  0  0
 51 68  1  0  0  0  0
 52 72  1  0  0  0  0
 53 67  1  0  0  0  0
 54 65  1  0  0  0  0
 55 62  1  0  0  0  0
 56 63  1  0  0  0  0
 57 63  1  0  0  0  0
 58 63  1  0  0  0  0
 59 74  1  0  0  0  0
 60 83  1  0  0  0  0
 61 63  1  0  0  0  0
 61 73  1  0  0  0  0
 62 74  1  0  0  0  0
 64 65  1  0  0  0  0
M  CHG  1  74   1
M  ISO  4  42 100  60 101  71 100  83 101
M  END
> <Batch ID>
0076

> <Smiles>
CNC(C)C(=O)NC(C(=O)N1Cc2cc([101O:1][101CH2:1]C=C3C(=O)N(c4cccc([100NH:0][100C:0](=O)N5CCCC(n6nc(-c7ccc(Oc8ccc(F)cc8F)cc7)c(C(N)=O)c6N)C5)c4)C3=O)ccc2CC1C(=O)NC1CCCc2ccccc21)C(C)(C)C

> <Shape>
0.238

> <Color>
0.066

> <Negative vol penalty>
0.000

$$$$

  -OEChem-04042323503D

 86 94  0     1  0  0  0  0  0999 V2000
  -28.8392  -36.1360   25.2183 C   0  0  0  0  0  0  0  0  0  0  0  0
  -29.0823  -34.8516   24.7422 C   0  0  0  0  0  0  0  0  0  0  0  0
  -23.0416   -9.7576   20.0718 C   0  0  0  0  0  0  0  0  0  0  0  0
  -23.6577  -10.0441   22.3903 C   0  0  0  0  0  0  0  0  0  0  0  0
  -31.2859  -18.9941   20.1233 C   0  0  0  0  0  0  0  0  0  0  0  0
  -27.5530  -36.4992   25.6153 C   0  0  0  0  0  0  0  0  0  0  0  0
  -28.0394  -33.9292   24.6639 C   0  0  0  0  0  0  0  0  0  0  0  0
  -27.2788  -29.5839   20.4159 C   0  0  0  0  0  0  0  0  0  0  0  0
  -31.1078  -17.6191   20.2756 C   0  0  0  0  0  0  0  0  0  0  0  0
  -22.2768   -8.6422   20.4129 C   0  0  0  0  0  0  0  0  0  0  0  0
  -22.8928   -8.9287   22.7314 C   0  0  0  0  0  0  0  0  0  0  0  0
  -27.5673  -28.2199   20.4073 C   0  0  0  0  0  0  0  0  0  0  0  0
  -23.1979   -5.5640   22.6002 C   0  0  0  0  0  0  0  0  0  0  0  0
  -23.7615   -4.6344   23.4741 C   0  0  0  0  0  0  0  0  0  0  0  0
  -29.5500  -19.3996   21.7540 C   0  0  0  0  0  0  0  0  0  0  0  0
  -25.2905  -27.7406   21.0441 C   0  0  0  0  0  0  0  0  0  0  0  0
  -21.9585   -5.0112   25.0376 C   0  0  0  0  0  0  0  0  0  0  0  0
  -23.7322  -10.4586   21.0605 C   0  0  0  0  0  0  0  0  0  0  0  0
  -30.5070  -19.8844   20.8626 C   0  0  0  0  0  0  0  0  0  0  0  0
  -24.0959  -12.9510   20.6568 C   0  0  0  0  0  0  0  0  0  0  0  0
  -26.4919  -35.5838   25.5328 C   0  0  0  0  0  0  0  0  0  0  0  0
  -25.9948  -30.0378   20.7499 C   0  0  0  0  0  0  0  0  0  0  0  0
  -26.7381  -34.2801   25.0615 C   0  0  0  0  0  0  0  0  0  0  0  0
  -24.9876  -29.1107   21.0538 C   0  0  0  0  0  0  0  0  0  0  0  0
  -30.1508  -17.1343   21.1670 C   0  0  0  0  0  0  0  0  0  0  0  0
  -22.2024   -8.2277   21.7427 C   0  0  0  0  0  0  0  0  0  0  0  0
  -26.5738  -27.2981   20.7242 C   0  0  0  0  0  0  0  0  0  0  0  0
  -22.0146   -6.2173   22.9450 C   0  0  0  0  0  0  0  0  0  0  0  0
  -23.1418   -4.3580   24.6928 C   0  0  0  0  0  0  0  0  0  0  0  0
  -29.3719  -18.0245   21.9063 C   0  0  0  0  0  0  0  0  0  0  0  0
  -21.3949   -5.9409   24.1636 C   0  0  0  0  0  0  0  0  0  0  0  0
  -24.5229  -11.6106   20.7088 C   0  0  0  0  0  0  0  0  0  0  0  0
  -25.2130  -13.6526   20.2741 C   0  0  0  0  0  0  0  0  0  0  0  0
  -30.6950  -21.3402   20.7021 C   0  0  0  0  0  0  0  0  0  0  0  0
  -22.8050  -13.5119   20.9301 C   0  0  0  0  0  0  0  0  0  0  0  0
  -24.7905  -31.8638   23.0562 C   0  0  0  0  0  0  0  0  0  0  0  0
  -28.3369  -24.0746   20.4263 C   0  0  0  0  0  0  0  0  0  0  0  0
  -22.0546  -31.5484   21.3422 C   0  0  0  0  0  0  0  0  0  0  0  0
  -20.2378  -29.7358   19.0926 C   0  0  0  0  0  0  0  0  0  0  0  0
  -30.6640  -14.7203   20.6612 C   0  0  0  0  0  0  0  0  0  0  0  0
  -25.1282  -36.0076   26.0181 C   0  0  0  0  0  0  0  0  0  0  0  0
  -25.6927  -31.5111   20.7286 C   0  0  0  0  0  0  0  0  0  0  0  0
  -23.5876  -29.5455   21.3995 C   0  0  0  0  0  0  0  0  0  0  0  0
  -24.0027  -35.0878   25.5516 C   0  0  0  0  0  0  0  0  0  0  0  0
  -29.6843  -12.0351   18.5382 C   0  0  0  0  0  0  0  0  0  0  0  0
  -24.3865  -33.6263   25.7604 C   0  0  0  0  0  0  0  0  0  0  0  0
  -28.2190  -11.7956   18.9094 C   0  0  0  0  0  0  0  0  0  0  0  0
  -30.5244  -12.4096   19.7579 C   0  0  0  0  0  0  0  0  0  0  0  0
  -28.5398  -13.2933   20.9196 C   0  0  0  0  0  0  0  0  0  0  0  0
  -25.6279  -33.2591   24.9384 C   0  0  1  0  0  0  0  0  0  0  0  0
  -24.4870  -31.8863   21.5848 C   0  0  1  0  0  0  0  0  0  0  0  0
  -27.6409  -12.9768   19.7131 C   0  0  2  0  0  0  0  0  0  0  0  0
  -30.1212  -23.8208   18.6771 C   0  0  0  0  0  0  0  0  0  0  0  0
  -18.0218  -29.7092   17.9153 C   0  0  0  0  0  0  0  0  0  0  0  0
  -20.7068  -30.5890   23.9059 C   0  0  0  0  0  0  0  0  0  0  0  0
  -18.8341  -29.6959   22.5046 C   0  0  0  0  0  0  0  0  0  0  0  0
  -19.3227  -32.1421   22.5180 C   0  0  0  0  0  0  0  0  0  0  0  0
  -21.5192  -29.9086   16.4304 C   0  0  0  0  0  0  0  0  0  0  0  0
  -28.1844  -25.5834   20.3757 C   0  0  0  0  0  0  0  0  0  1  0  0
  -29.7135  -23.5265   20.1070 C   0  0  2  0  0  0  0  0  0  0  0  0
  -20.9065  -30.5683   21.3319 C   0  0  1  0  0  0  0  0  0  0  0  0
  -19.4758  -30.1495   17.8465 C   0  0  2  0  0  0  0  0  0  0  0  0
  -19.9693  -30.7404   22.5605 C   0  0  0  0  0  0  0  0  0  0  0  0
  -25.8107  -11.4667   20.3849 N   0  0  0  0  0  0  0  0  0  0  0  0
  -26.2025  -12.7258   20.1256 N   0  0  0  0  0  0  0  0  0  0  0  0
  -23.3434  -30.9970   21.3711 N   0  0  0  0  0  0  0  0  0  0  0  0
  -29.9182  -13.5384   20.4673 N   0  0  0  0  0  0  0  0  0  0  0  0
  -25.4355  -14.9657   20.0535 N   0  0  0  0  0  0  0  0  0  0  0  0
  -21.7687  -12.6488   21.3113 N   0  0  0  0  0  0  0  0  0  0  0  0
  -29.9726  -15.7369   21.3194 N   0  0  0  0  0  0  0  0  0  0  0  0
  -29.6558  -22.0790   20.2855 N   0  0  0  0  0  0  0  0  0  0  0  0
  -25.2738  -33.0608   23.5493 N   0  0  0  0  0  0  0  0  0  0  0  0
  -20.2403  -30.7334   20.0445 N   0  0  0  0  0  0  0  0  0  0  0  0
  -31.8943  -21.8530   20.9776 N   0  3  0  0  0  0  0  0  0  0  0  0
  -20.0945  -29.5408   16.6351 N   0  3  0  0  0  0  0  0  0  0  0  0
  -22.5730  -14.7400   20.8229 O   0  0  0  0  0  0  0  0  0  0  0  0
  -24.5988  -30.8370   23.6971 O   0  0  0  0  0  0  0  0  0  0  0  0
  -27.3894  -23.3421   20.7120 O   0  0  0  0  0  0  0  0  0  0  0  0
  -21.8169  -32.7586   21.3180 O   0  0  0  0  0  0  0  0  0  0  0  0
  -20.7738  -28.6362   19.2113 O   0  0  0  0  0  0  0  0  0  0  0  0
  -31.8209  -14.8328   20.2479 O   0  0  0  0  0  0  0  0  0  0  0  0
  -21.4559   -7.1394   22.0759 O   0  0  0  0  0  0  0  0  0  0  0  0
  -26.8528  -25.9662   20.7172 O   0  0  0  0  0  0  0  0  0  1  0  0
  -23.6823   -3.4641   25.5313 F   0  0  0  0  0  0  0  0  0  0  0  0
  -28.4482  -17.5697   22.7650 F   0  0  0  0  0  0  0  0  0  0  0  0
  -20.2574   -6.5644   24.4998 F   0  0  0  0  0  0  0  0  0  0  0  0
  1  2  1  0  0  0  0
  1  6  2  0  0  0  0
  2  7  2  0  0  0  0
  3 10  2  0  0  0  0
  3 18  1  0  0  0  0
  4 11  1  0  0  0  0
  4 18  2  0  0  0  0
  5  9  2  0  0  0  0
  5 19  1  0  0  0  0
  6 21  1  0  0  0  0
  7 23  1  0  0  0  0
  8 12  2  0  0  0  0
  8 22  1  0  0  0  0
  9 25  1  0  0  0  0
 10 26  1  0  0  0  0
 11 26  2  0  0  0  0
 12 27  1  0  0  0  0
 13 14  2  0  0  0  0
 13 28  1  0  0  0  0
 14 29  1  0  0  0  0
 15 19  2  0  0  0  0
 15 30  1  0  0  0  0
 16 24  1  0  0  0  0
 16 27  2  0  0  0  0
 17 29  2  0  0  0  0
 17 31  1  0  0  0  0
 18 32  1  0  0  0  0
 19 34  1  0  0  0  0
 20 32  1  0  0  0  0
 20 33  2  0  0  0  0
 20 35  1  0  0  0  0
 21 23  2  0  0  0  0
 21 41  1  0  0  0  0
 22 24  2  0  0  0  0
 22 42  1  0  0  0  0
 23 50  1  0  0  0  0
 24 43  1  0  0  0  0
 25 30  2  0  0  0  0
 25 70  1  0  0  0  0
 26 82  1  0  0  0  0
 27 83  1  0  0  0  0
 28 31  2  0  0  0  0
 28 82  1  0  0  0  0
 29 84  1  0  0  0  0
 30 85  1  0  0  0  0
 31 86  1  0  0  0  0
 32 64  2  0  0  0  0
 33 65  1  0  0  0  0
 33 68  1  0  0  0  0
 34 71  1  0  0  0  0
 34 74  2  0  0  0  0
 35 69  1  0  0  0  0
 35 76  2  0  0  0  0
 36 51  1  0  0  0  0
 36 72  1  0  0  0  0
 36 77  2  0  0  0  0
 37 59  1  0  0  0  0
 37 60  1  0  0  0  0
 37 78  2  0  0  0  0
 38 61  1  0  0  0  0
 38 66  1  0  0  0  0
 38 79  2  0  0  0  0
 39 62  1  0  0  0  0
 39 73  1  0  0  0  0
 39 80  2  0  0  0  0
 40 67  1  0  0  0  0
 40 70  1  0  0  0  0
 40 81  2  0  0  0  0
 41 44  1  0  0  0  0
 42 51  1  0  0  0  0
 43 66  1  0  0  0  0
 44 46  1  0  0  0  0
 45 47  1  0  0  0  0
 45 48  1  0  0  0  0
 46 50  1  0  0  0  0
 47 52  1  0  0  0  0
 48 67  1  0  0  0  0
 49 52  1  0  0  0  0
 49 67  1  0  0  0  0
 50 72  1  0  0  0  0
 51 66  1  0  0  0  0
 52 65  1  0  0  0  0
 53 60  1  0  0  0  0
 54 62  1  0  0  0  0
 55 63  1  0  0  0  0
 56 63  1  0  0  0  0
 57 63  1  0  0  0  0
 58 75  1  0  0  0  0
 59 83  1  0  0  0  0
 60 71  1  0  0  0  0
 61 63  1  0  0  0  0
 61 73  1  0  0  0  0
 62 75  1  0  0  0  0
 64 65  1  0  0  0  0
M  CHG  2  74   1  75   1
M  ISO  4  40 100  59 101  70 100  83 101
M  END
> <Batch ID>
0076

> <Smiles>
CNC(C)C(=O)NC(C(=O)N1Cc2cc([101O:1][101CH2:1]C(=O)C(C)NC(=N)c3ccc([100NH:0][100C:0](=O)N4CCCC(n5nc(-c6ccc(Oc7ccc(F)cc7F)cc6)c(C(N)=O)c5N)C4)c(F)c3)ccc2CC1C(=O)NC1CCCc2ccccc21)C(C)(C)C

> <Shape>
0.377

> <Color>
0.223

> <Negative vol penalty>
0.000

$$$$

  -OEChem-04042323503D

 87 96  0     1  0  0  0  0  0999 V2000
  -22.9170   -8.1449   20.7034 C   0  0  0  0  0  0  0  0  0  0  0  0
  -22.1366   -9.2198   20.2897 C   0  0  0  0  0  0  0  0  0  0  0  0
  -18.4317  -25.8582   22.8162 C   0  0  0  0  0  0  0  0  0  0  0  0
  -27.8664  -25.8976   21.6208 C   0  0  0  0  0  0  0  0  0  0  0  0
  -29.5754  -27.5901   21.8480 C   0  0  0  0  0  0  0  0  0  0  0  0
  -18.6380  -27.2355   22.8935 C   0  0  0  0  0  0  0  0  0  0  0  0
  -24.0189   -8.3622   21.5296 C   0  0  0  0  0  0  0  0  0  0  0  0
  -22.4570  -10.5124   20.7030 C   0  0  0  0  0  0  0  0  0  0  0  0
  -22.2261  -17.3104   18.4556 C   0  0  0  0  0  0  0  0  0  0  0  0
  -19.3808  -25.0444   22.1975 C   0  0  0  0  0  0  0  0  0  0  0  0
  -28.6639  -25.2157   20.7018 C   0  0  0  0  0  0  0  0  0  0  0  0
  -30.3730  -26.9082   20.9291 C   0  0  0  0  0  0  0  0  0  0  0  0
  -21.7729  -18.5645   18.8625 C   0  0  0  0  0  0  0  0  0  0  0  0
  -29.4725  -25.4760   17.4303 C   0  0  0  0  0  0  0  0  0  0  0  0
  -28.8619  -25.0025   16.2691 C   0  0  0  0  0  0  0  0  0  0  0  0
  -20.7424  -26.9854   21.7333 C   0  0  0  0  0  0  0  0  0  0  0  0
  -23.7459  -18.8288   20.2251 C   0  0  0  0  0  0  0  0  0  0  0  0
  -29.4873  -22.7451   16.8607 C   0  0  0  0  0  0  0  0  0  0  0  0
  -28.3221  -27.0849   22.1938 C   0  0  0  0  0  0  0  0  0  0  0  0
  -19.7933  -27.7991   22.3520 C   0  0  0  0  0  0  0  0  0  0  0  0
  -27.4783  -27.6230   24.5404 C   0  0  0  0  0  0  0  0  0  0  0  0
  -24.3586   -9.6592   21.9454 C   0  0  0  0  0  0  0  0  0  0  0  0
  -23.4394  -16.8006   18.9397 C   0  0  0  0  0  0  0  0  0  0  0  0
  -23.5636  -10.7471   21.5367 C   0  0  0  0  0  0  0  0  0  0  0  0
  -24.2135  -17.5691   19.8208 C   0  0  0  0  0  0  0  0  0  0  0  0
  -20.5361  -25.6081   21.6560 C   0  0  0  0  0  0  0  0  0  0  0  0
  -29.9172  -25.7209   20.3560 C   0  0  0  0  0  0  0  0  0  0  0  0
  -22.5313  -19.3227   19.7496 C   0  0  0  0  0  0  0  0  0  0  0  0
  -30.0907  -24.5840   18.3067 C   0  0  0  0  0  0  0  0  0  0  0  0
  -28.8692  -23.6370   15.9843 C   0  0  0  0  0  0  0  0  0  0  0  0
  -30.0980  -23.2186   18.0219 C   0  0  0  0  0  0  0  0  0  0  0  0
  -27.4984  -27.7901   23.1427 C   0  0  0  0  0  0  0  0  0  0  0  0
  -26.5342  -28.5185   24.9798 C   0  0  0  0  0  0  0  0  0  0  0  0
  -23.3804  -24.0473   19.9271 C   0  0  0  0  0  0  0  0  0  0  0  0
  -22.5418  -22.8773   20.2193 C   0  0  0  0  0  0  0  0  0  0  0  0
  -22.6663  -25.2551   20.4684 C   0  0  0  0  0  0  0  0  0  0  0  0
  -22.8739  -21.6330   19.8753 C   0  0  0  0  0  0  0  0  0  1  0  0
  -20.0117  -29.2662   22.4351 C   0  0  0  0  0  0  0  0  0  0  0  0
  -28.2447  -26.7374   25.3676 C   0  0  0  0  0  0  0  0  0  0  0  0
  -24.2788  -14.2656   20.6639 C   0  0  0  0  0  0  0  0  0  0  0  0
  -27.2823  -15.2932   19.9968 C   0  0  0  0  0  0  0  0  0  0  0  0
  -29.3361  -17.8816   19.1429 C   0  0  0  0  0  0  0  0  0  0  0  0
  -21.7650  -31.0123   22.4563 C   0  0  0  0  0  0  0  0  0  0  0  0
  -25.5310   -9.8392   22.8769 C   0  0  0  0  0  0  0  0  0  0  0  0
  -23.9273  -15.4574   18.4703 C   0  0  0  0  0  0  0  0  0  0  0  0
  -25.5330  -17.0758   20.3539 C   0  0  0  0  0  0  0  0  0  0  0  0
  -21.3195  -23.3459   20.9341 C   0  0  0  0  0  0  0  0  0  0  0  0
  -26.0230  -11.2816   22.9651 C   0  0  0  0  0  0  0  0  0  0  0  0
  -24.5372  -32.7220   23.8307 C   0  0  0  0  0  0  0  0  0  0  0  0
  -24.8471  -12.2369   23.1425 C   0  0  0  0  0  0  0  0  0  0  0  0
  -25.6076  -31.6342   23.9538 C   0  0  0  0  0  0  0  0  0  0  0  0
  -23.7023  -32.5556   22.5618 C   0  0  0  0  0  0  0  0  0  0  0  0
  -24.1815  -30.1423   22.4962 C   0  0  0  0  0  0  0  0  0  0  0  0
  -23.8936  -12.1668   21.9436 C   0  0  1  0  0  0  0  0  0  0  0  0
  -24.9289  -14.8178   19.4270 C   0  0  1  0  0  0  0  0  0  0  0  0
  -25.0030  -30.2249   23.7929 C   0  0  1  0  0  0  0  0  0  0  0  0
  -31.4532  -19.0511   18.4740 C   0  0  0  0  0  0  0  0  0  0  0  0
  -27.8340  -15.2350   22.9972 C   0  0  0  0  0  0  0  0  0  0  0  0
  -29.8567  -16.6509   22.5821 C   0  0  0  0  0  0  0  0  0  0  0  0
  -29.7028  -14.3735   21.5760 C   0  0  0  0  0  0  0  0  0  0  0  0
  -28.8204  -17.4175   16.2659 C   0  0  0  0  0  0  0  0  0  0  0  0
  -28.2610  -16.2352   20.6555 C   0  0  1  0  0  0  0  0  0  0  0  0
  -30.4237  -17.9995   18.0905 C   0  0  2  0  0  0  0  0  0  0  0  0
  -28.8879  -15.6324   21.9444 C   0  0  0  0  0  0  0  0  0  0  0  0
  -26.6354  -28.7187   22.7220 N   0  0  0  0  0  0  0  0  0  0  0  0
  -26.0642  -29.1430   23.8621 N   0  0  0  0  0  0  0  0  0  0  0  0
  -21.4827  -24.7963   21.0393 N   0  0  0  0  0  0  0  0  0  0  0  0
  -25.9641  -15.7537   19.8702 N   0  0  0  0  0  0  0  0  0  0  0  0
  -23.1581  -31.1984   22.4894 N   0  0  0  0  0  0  0  0  0  0  0  0
  -26.0684  -28.8247   26.2093 N   0  0  0  0  0  0  0  0  0  0  0  0
  -29.1710  -25.8835   24.7534 N   0  0  0  0  0  0  0  0  0  0  0  0
  -21.3447  -29.6779   22.4306 N   0  0  0  0  0  0  0  0  0  0  0  0
  -24.4373  -12.9020   20.8218 N   0  0  0  0  0  0  0  0  0  0  0  0
  -29.2340  -16.5956   19.6300 N   0  0  0  0  0  0  0  0  0  0  0  0
  -29.8332  -18.3775   16.7755 N   0  3  0  0  0  0  0  0  0  0  0  0
  -24.4490  -24.1049   19.3624 O   0  0  0  0  0  0  0  0  0  0  0  0
  -23.1323  -26.3718   20.3688 O   0  0  0  0  0  0  0  0  0  0  0  0
  -19.0388  -30.0150   22.4620 O   0  0  0  0  0  0  0  0  0  0  0  0
  -28.1003  -26.6927   26.6128 O   0  0  0  0  0  0  0  0  0  0  0  0
  -23.6791  -15.0209   21.4199 O   0  0  0  0  0  0  0  0  0  0  0  0
  -27.6747  -14.1922   19.6025 O   0  0  0  0  0  0  0  0  0  0  0  0
  -28.6486  -18.8356   19.5001 O   0  0  0  0  0  0  0  0  0  0  0  0
  -20.9637  -31.9516   22.4857 O   0  0  0  0  0  0  0  0  0  0  0  0
  -30.6959  -25.0556   19.4595 O   0  0  0  0  0  0  0  0  0  0  0  0
  -22.0909  -20.5468   20.1489 O   0  0  0  0  0  0  0  0  0  1  0  0
  -28.2814  -23.1823   14.8699 F   0  0  0  0  0  0  0  0  0  0  0  0
  -30.6893  -22.3567   18.8606 F   0  0  0  0  0  0  0  0  0  0  0  0
  1  2  1  0  0  0  0
  1  7  2  0  0  0  0
  2  8  2  0  0  0  0
  3  6  1  0  0  0  0
  3 10  2  0  0  0  0
  4 11  2  0  0  0  0
  4 19  1  0  0  0  0
  5 12  1  0  0  0  0
  5 19  2  0  0  0  0
  6 20  2  0  0  0  0
  7 22  1  0  0  0  0
  8 24  1  0  0  0  0
  9 13  2  0  0  0  0
  9 23  1  0  0  0  0
 10 26  1  0  0  0  0
 11 27  1  0  0  0  0
 12 27  2  0  0  0  0
 13 28  1  0  0  0  0
 14 15  2  0  0  0  0
 14 29  1  0  0  0  0
 15 30  1  0  0  0  0
 16 20  1  0  0  0  0
 16 26  2  0  0  0  0
 17 25  1  0  0  0  0
 17 28  2  0  0  0  0
 18 30  2  0  0  0  0
 18 31  1  0  0  0  0
 19 32  1  0  0  0  0
 20 38  1  0  0  0  0
 21 32  1  0  0  0  0
 21 33  2  0  0  0  0
 21 39  1  0  0  0  0
 22 24  2  0  0  0  0
 22 44  1  0  0  0  0
 23 25  2  0  0  0  0
 23 45  1  0  0  0  0
 24 54  1  0  0  0  0
 25 46  1  0  0  0  0
 26 67  1  0  0  0  0
 27 84  1  0  0  0  0
 28 85  1  0  0  0  0
 29 31  2  0  0  0  0
 29 84  1  0  0  0  0
 30 86  1  0  0  0  0
 31 87  1  0  0  0  0
 32 65  2  0  0  0  0
 33 66  1  0  0  0  0
 33 70  1  0  0  0  0
 34 35  1  0  0  0  0
 34 36  1  0  0  0  0
 34 76  2  0  0  0  0
 35 37  2  0  0  0  0
 35 47  1  0  0  0  0
 36 67  1  0  0  0  0
 36 77  2  0  0  0  0
 37 85  1  0  0  0  0
 38 72  1  0  0  0  0
 38 78  2  0  0  0  0
 39 71  1  0  0  0  0
 39 79  2  0  0  0  0
 40 55  1  0  0  0  0
 40 73  1  0  0  0  0
 40 80  2  0  0  0  0
 41 62  1  0  0  0  0
 41 68  1  0  0  0  0
 41 81  2  0  0  0  0
 42 63  1  0  0  0  0
 42 74  1  0  0  0  0
 42 82  2  0  0  0  0
 43 69  1  0  0  0  0
 43 72  1  0  0  0  0
 43 83  2  0  0  0  0
 44 48  1  0  0  0  0
 45 55  1  0  0  0  0
 46 68  1  0  0  0  0
 47 67  1  0  0  0  0
 48 50  1  0  0  0  0
 49 51  1  0  0  0  0
 49 52  1  0  0  0  0
 50 54  1  0  0  0  0
 51 56  1  0  0  0  0
 52 69  1  0  0  0  0
 53 56  1  0  0  0  0
 53 69  1  0  0  0  0
 54 73  1  0  0  0  0
 55 68  1  0  0  0  0
 56 66  1  0  0  0  0
 57 63  1  0  0  0  0
 58 64  1  0  0  0  0
 59 64  1  0  0  0  0
 60 64  1  0  0  0  0
 61 75  1  0  0  0  0
 62 64  1  0  0  0  0
 62 74  1  0  0  0  0
 63 75  1  0  0  0  0
 65 66  1  0  0  0  0
M  CHG  1  75   1
M  ISO  4  37 101  43 100  72 100  85 101
M  END
> <Batch ID>
0076

> <Smiles>
CNC(C)C(=O)NC(C(=O)N1Cc2cc([101O:1][101CH:1]=C3CN(c4cccc(C(=O)[100NH:0][100C:0](=O)N5CCCC(n6nc(-c7ccc(Oc8ccc(F)cc8F)cc7)c(C(N)=O)c6N)C5)c4)C(=O)C3=O)ccc2CC1C(=O)NC1CCCc2ccccc21)C(C)(C)C

> <Shape>
0.265

> <Color>
0.057

> <Negative vol penalty>
0.000

$$$$

  -OEChem-04042323503D

 86 95  0     1  0  0  0  0  0999 V2000
  -25.7272  -35.6768   15.6724 C   0  0  0  0  0  0  0  0  0  0  0  0
  -25.9451  -34.3034   15.7116 C   0  0  0  0  0  0  0  0  0  0  0  0
  -23.8279   -8.7655   19.6532 C   0  0  0  0  0  0  0  0  0  0  0  0
  -23.2676  -10.3837   21.3576 C   0  0  0  0  0  0  0  0  0  0  0  0
  -25.8942  -36.4412   16.8264 C   0  0  0  0  0  0  0  0  0  0  0  0
  -26.3313  -33.6937   16.9047 C   0  0  0  0  0  0  0  0  0  0  0  0
  -24.7732  -28.1007   18.8534 C   0  0  0  0  0  0  0  0  0  0  0  0
  -30.3849  -19.6489   20.5009 C   0  0  0  0  0  0  0  0  0  0  0  0
  -30.3281  -18.2683   20.3102 C   0  0  0  0  0  0  0  0  0  0  0  0
  -23.0243   -7.8186   20.2881 C   0  0  0  0  0  0  0  0  0  0  0  0
  -22.4639   -9.4367   21.9924 C   0  0  0  0  0  0  0  0  0  0  0  0
  -25.4371  -26.8754   18.8152 C   0  0  0  0  0  0  0  0  0  0  0  0
  -19.7280   -7.1022   20.5196 C   0  0  0  0  0  0  0  0  0  0  0  0
  -18.8710   -6.3414   19.7244 C   0  0  0  0  0  0  0  0  0  0  0  0
  -26.2278  -27.2406   21.0648 C   0  0  0  0  0  0  0  0  0  0  0  0
  -28.2490  -19.8893   19.3978 C   0  0  0  0  0  0  0  0  0  0  0  0
  -19.9747   -4.3239   20.4651 C   0  0  0  0  0  0  0  0  0  0  0  0
  -23.9497  -10.0481   20.1880 C   0  0  0  0  0  0  0  0  0  0  0  0
  -24.3909  -11.9417   18.5365 C   0  0  0  0  0  0  0  0  0  0  0  0
  -26.2732  -35.8392   18.0365 C   0  0  0  0  0  0  0  0  0  0  0  0
  -24.8407  -28.9116   19.9955 C   0  0  0  0  0  0  0  0  0  0  0  0
  -26.5048  -34.4509   18.0757 C   0  0  0  0  0  0  0  0  0  0  0  0
  -25.5617  -28.4746   21.1159 C   0  0  0  0  0  0  0  0  0  0  0  0
  -29.3453  -20.4594   20.0448 C   0  0  0  0  0  0  0  0  0  0  0  0
  -29.2317  -17.6982   19.6632 C   0  0  0  0  0  0  0  0  0  0  0  0
  -22.3423   -8.1542   21.4576 C   0  0  0  0  0  0  0  0  0  0  0  0
  -26.1670  -26.4465   19.9200 C   0  0  0  0  0  0  0  0  0  0  0  0
  -20.7083   -6.4738   21.2876 C   0  0  0  0  0  0  0  0  0  0  0  0
  -18.9944   -4.9523   19.6971 C   0  0  0  0  0  0  0  0  0  0  0  0
  -28.1921  -18.5087   19.2071 C   0  0  0  0  0  0  0  0  0  0  0  0
  -20.8317   -5.0847   21.2603 C   0  0  0  0  0  0  0  0  0  0  0  0
  -24.7801  -11.0266   19.5330 C   0  0  0  0  0  0  0  0  0  0  0  0
  -25.5361  -12.6431   18.2483 C   0  0  0  0  0  0  0  0  0  0  0  0
  -30.4156  -22.5969   20.8586 C   0  0  0  0  0  0  0  0  0  0  0  0
  -23.1088  -12.1400   17.9261 C   0  0  0  0  0  0  0  0  0  0  0  0
  -25.9493  -31.8254   20.6155 C   0  0  0  0  0  0  0  0  0  0  0  0
  -24.6131  -31.2916   23.5228 C   0  0  0  0  0  0  0  0  0  0  0  0
  -23.5477  -29.0358   25.8516 C   0  0  0  0  0  0  0  0  0  0  0  0
  -30.1255  -15.3514   19.8623 C   0  0  0  0  0  0  0  0  0  0  0  0
  -26.4872  -36.7136   19.2466 C   0  0  0  0  0  0  0  0  0  0  0  0
  -24.0968  -30.2184   20.0306 C   0  0  0  0  0  0  0  0  0  0  0  0
  -25.6488  -29.2985   22.3737 C   0  0  0  0  0  0  0  0  0  0  0  0
  -26.5342  -35.9359   20.5594 C   0  0  0  0  0  0  0  0  0  0  0  0
  -30.3405  -11.8067   19.6048 C   0  0  0  0  0  0  0  0  0  0  0  0
  -27.4353  -34.7127   20.4233 C   0  0  0  0  0  0  0  0  0  0  0  0
  -28.8810  -11.3630   19.4812 C   0  0  0  0  0  0  0  0  0  0  0  0
  -30.4940  -12.9934   20.5546 C   0  0  0  0  0  0  0  0  0  0  0  0
  -28.1721  -13.7000   20.1317 C   0  0  0  0  0  0  0  0  0  0  0  0
  -28.3193  -22.7490   19.8859 C   0  0  0  0  0  0  0  0  0  0  0  0
  -26.9005  -33.7494   19.3568 C   0  0  1  0  0  0  0  0  0  0  0  0
  -24.6575  -31.1977   21.0573 C   0  0  1  0  0  0  0  0  0  0  0  0
  -27.9589  -12.5487   19.1354 C   0  0  2  0  0  0  0  0  0  0  0  0
  -28.9409  -24.1323   19.9971 C   0  0  1  0  0  0  0  0  0  0  0  0
  -29.4309  -24.6575   18.6465 C   0  0  0  0  0  0  0  0  0  0  0  0
  -22.5365  -28.9001   28.1442 C   0  0  0  0  0  0  0  0  0  0  0  0
  -27.3172  -31.9858   24.7540 C   0  0  0  0  0  0  0  0  0  0  0  0
  -26.5374  -30.9336   26.8878 C   0  0  0  0  0  0  0  0  0  0  0  0
  -25.3447  -32.9239   25.9720 C   0  0  0  0  0  0  0  0  0  0  0  0
  -21.1453  -27.6376   24.8356 C   0  0  0  0  0  0  0  0  0  0  0  0
  -28.0068  -25.1358   20.6637 C   0  0  0  0  0  0  0  0  0  1  0  0
  -25.0868  -30.6870   24.8224 C   0  0  1  0  0  0  0  0  0  0  0  0
  -22.2596  -28.9441   26.6495 C   0  0  2  0  0  0  0  0  0  0  0  0
  -26.0717  -31.6177   25.5848 C   0  0  0  0  0  0  0  0  0  0  0  0
  -26.0716  -11.1344   19.8560 N   0  0  0  0  0  0  0  0  0  0  0  0
  -26.5040  -12.1254   19.0578 N   0  0  0  0  0  0  0  0  0  0  0  0
  -29.4035  -21.8696   20.2389 N   0  0  0  0  0  0  0  0  0  0  0  0
  -24.9095  -30.5716   22.3568 N   0  0  0  0  0  0  0  0  0  0  0  0
  -29.5933  -14.0796   20.1627 N   0  0  0  0  0  0  0  0  0  0  0  0
  -25.7995  -13.6459   17.3838 N   0  0  0  0  0  0  0  0  0  0  0  0
  -22.0400  -11.3332   18.3396 N   0  0  0  0  0  0  0  0  0  0  0  0
  -29.1770  -16.2955   19.4705 N   0  0  0  0  0  0  0  0  0  0  0  0
  -25.7891  -32.9837   19.8792 N   0  0  0  0  0  0  0  0  0  0  0  0
  -23.8851  -30.3439   25.5750 N   0  0  0  0  0  0  0  0  0  0  0  0
  -21.5047  -27.7149   26.2750 N   0  3  0  0  0  0  0  0  0  0  0  0
  -31.4470  -22.2018   21.3834 O   0  0  0  0  0  0  0  0  0  0  0  0
  -22.9206  -12.9958   17.0285 O   0  0  0  0  0  0  0  0  0  0  0  0
  -27.0126  -31.2987   20.9214 O   0  0  0  0  0  0  0  0  0  0  0  0
  -23.9963  -32.3597   23.5421 O   0  0  0  0  0  0  0  0  0  0  0  0
  -24.1923  -28.0463   25.5111 O   0  0  0  0  0  0  0  0  0  0  0  0
  -31.3368  -15.5780   19.9202 O   0  0  0  0  0  0  0  0  0  0  0  0
  -30.0866  -23.9332   20.8443 O   0  0  0  0  0  0  0  0  0  0  0  0
  -21.5578   -7.2304   22.0773 O   0  0  0  0  0  0  0  0  0  0  0  0
  -26.8165  -25.2512   19.8851 O   0  0  0  0  0  0  0  0  0  1  0  0
  -18.1704   -4.2217   18.9345 F   0  0  0  0  0  0  0  0  0  0  0  0
  -27.1340  -17.9719   18.5825 F   0  0  0  0  0  0  0  0  0  0  0  0
  -21.7708   -4.4753   21.9969 F   0  0  0  0  0  0  0  0  0  0  0  0
  1  2  1  0  0  0  0
  1  5  2  0  0  0  0
  2  6  2  0  0  0  0
  3 10  2  0  0  0  0
  3 18  1  0  0  0  0
  4 11  1  0  0  0  0
  4 18  2  0  0  0  0
  5 20  1  0  0  0  0
  6 22  1  0  0  0  0
  7 12  2  0  0  0  0
  7 21  1  0  0  0  0
  8  9  2  0  0  0  0
  8 24  1  0  0  0  0
  9 25  1  0  0  0  0
 10 26  1  0  0  0  0
 11 26  2  0  0  0  0
 12 27  1  0  0  0  0
 13 14  2  0  0  0  0
 13 28  1  0  0  0  0
 14 29  1  0  0  0  0
 15 23  1  0  0  0  0
 15 27  2  0  0  0  0
 16 24  2  0  0  0  0
 16 30  1  0  0  0  0
 17 29  2  0  0  0  0
 17 31  1  0  0  0  0
 18 32  1  0  0  0  0
 19 32  1  0  0  0  0
 19 33  2  0  0  0  0
 19 35  1  0  0  0  0
 20 22  2  0  0  0  0
 20 40  1  0  0  0  0
 21 23  2  0  0  0  0
 21 41  1  0  0  0  0
 22 50  1  0  0  0  0
 23 42  1  0  0  0  0
 24 66  1  0  0  0  0
 25 30  2  0  0  0  0
 25 71  1  0  0  0  0
 26 82  1  0  0  0  0
 27 83  1  0  0  0  0
 28 31  2  0  0  0  0
 28 82  1  0  0  0  0
 29 84  1  0  0  0  0
 30 85  1  0  0  0  0
 31 86  1  0  0  0  0
 32 64  2  0  0  0  0
 33 65  1  0  0  0  0
 33 69  1  0  0  0  0
 34 66  1  0  0  0  0
 34 75  2  0  0  0  0
 34 81  1  0  0  0  0
 35 70  1  0  0  0  0
 35 76  2  0  0  0  0
 36 51  1  0  0  0  0
 36 72  1  0  0  0  0
 36 77  2  0  0  0  0
 37 61  1  0  0  0  0
 37 67  1  0  0  0  0
 37 78  2  0  0  0  0
 38 62  1  0  0  0  0
 38 73  1  0  0  0  0
 38 79  2  0  0  0  0
 39 68  1  0  0  0  0
 39 71  1  0  0  0  0
 39 80  2  0  0  0  0
 40 43  1  0  0  0  0
 41 51  1  0  0  0  0
 42 67  1  0  0  0  0
 43 45  1  0  0  0  0
 44 46  1  0  0  0  0
 44 47  1  0  0  0  0
 45 50  1  0  0  0  0
 46 52  1  0  0  0  0
 47 68  1  0  0  0  0
 48 52  1  0  0  0  0
 48 68  1  0  0  0  0
 49 53  1  0  0  0  0
 49 66  1  0  0  0  0
 50 72  1  0  0  0  0
 51 67  1  0  0  0  0
 52 65  1  0  0  0  0
 53 54  1  0  0  0  0
 53 60  1  0  0  0  0
 53 81  1  0  0  0  0
 55 62  1  0  0  0  0
 56 63  1  0  0  0  0
 57 63  1  0  0  0  0
 58 63  1  0  0  0  0
 59 74  1  0  0  0  0
 60 83  1  0  0  0  0
 61 63  1  0  0  0  0
 61 73  1  0  0  0  0
 62 74  1  0  0  0  0
 64 65  1  0  0  0  0
M  CHG  1  74   1
M  ISO  4  39 100  60 101  71 100  83 101
M  END
> <Batch ID>
0076

> <Smiles>
CNC(C)C(=O)NC(C(=O)N1Cc2cc([101O:1][101CH2:1]C3(C)CN(c4ccc([100NH:0][100C:0](=O)N5CCCC(n6nc(-c7ccc(Oc8ccc(F)cc8F)cc7)c(C(N)=O)c6N)C5)c(F)c4)C(=O)O3)ccc2CC1C(=O)NC1CCCc2ccccc21)C(C)(C)C

> <Shape>
0.283

> <Color>
0.118

> <Negative vol penalty>
0.000

$$$$

  -OEChem-04042323503D

 90 99  0     1  0  0  0  0  0999 V2000
  -27.6973  -33.2974   27.8282 C   0  0  0  0  0  0  0  0  0  0  0  0
  -26.5720  -33.5409   27.0490 C   0  0  0  0  0  0  0  0  0  0  0  0
  -24.0914   -9.7957   21.8761 C   0  0  0  0  0  0  0  0  0  0  0  0
  -22.2628  -10.4859   20.4559 C   0  0  0  0  0  0  0  0  0  0  0  0
  -28.7811  -32.6105   27.2851 C   0  0  0  0  0  0  0  0  0  0  0  0
  -26.5251  -33.0874   25.7303 C   0  0  0  0  0  0  0  0  0  0  0  0
  -24.3931  -30.1803   18.2200 C   0  0  0  0  0  0  0  0  0  0  0  0
  -23.5487   -8.5130   21.9514 C   0  0  0  0  0  0  0  0  0  0  0  0
  -21.7201   -9.2031   20.5312 C   0  0  0  0  0  0  0  0  0  0  0  0
  -24.9793  -29.3089   17.3030 C   0  0  0  0  0  0  0  0  0  0  0  0
  -21.0649   -6.9544   23.6324 C   0  0  0  0  0  0  0  0  0  0  0  0
  -21.0146   -6.3455   24.8863 C   0  0  0  0  0  0  0  0  0  0  0  0
  -25.6870  -27.8854   19.1174 C   0  0  0  0  0  0  0  0  0  0  0  0
  -24.9013  -21.2701   18.1634 C   0  0  0  0  0  0  0  0  0  0  0  0
  -26.1529  -21.5536   20.2103 C   0  0  0  0  0  0  0  0  0  0  0  0
  -22.4023   -4.5451   24.0676 C   0  0  0  0  0  0  0  0  0  0  0  0
  -23.4484  -10.7822   21.1283 C   0  0  0  0  0  0  0  0  0  0  0  0
  -24.9280  -12.5875   20.0991 C   0  0  0  0  0  0  0  0  0  0  0  0
  -28.7517  -32.1597   25.9551 C   0  0  0  0  0  0  0  0  0  0  0  0
  -24.4590  -29.9159   19.5955 C   0  0  0  0  0  0  0  0  0  0  0  0
  -27.5992  -32.3715   25.1714 C   0  0  0  0  0  0  0  0  0  0  0  0
  -25.0986  -28.7537   20.0496 C   0  0  0  0  0  0  0  0  0  0  0  0
  -24.1203  -20.2904   18.7765 C   0  0  0  0  0  0  0  0  0  0  0  0
  -25.9176  -21.9016   18.8802 C   0  0  0  0  0  0  0  0  0  0  0  0
  -24.3556  -19.9423   20.1066 C   0  0  0  0  0  0  0  0  0  0  0  0
  -22.3632   -8.2166   21.2789 C   0  0  0  0  0  0  0  0  0  0  0  0
  -25.6289  -28.1627   17.7518 C   0  0  0  0  0  0  0  0  0  0  0  0
  -21.7838   -6.3587   22.5961 C   0  0  0  0  0  0  0  0  0  0  0  0
  -21.6833   -5.1408   25.1039 C   0  0  0  0  0  0  0  0  0  0  0  0
  -25.3719  -20.5739   20.8235 C   0  0  0  0  0  0  0  0  0  0  0  0
  -22.4525   -5.1541   22.8137 C   0  0  0  0  0  0  0  0  0  0  0  0
  -24.0081  -12.1076   21.0506 C   0  0  0  0  0  0  0  0  0  0  0  0
  -25.1420  -13.8959   20.4579 C   0  0  0  0  0  0  0  0  0  0  0  0
  -26.6012  -25.0089   17.0691 C   0  0  0  0  0  0  0  0  0  0  0  0
  -28.0198  -25.3156   17.3766 C   0  0  0  0  0  0  0  0  0  0  0  0
  -28.0723  -23.1245   18.6332 C   0  0  0  0  0  0  0  0  0  0  0  0
  -25.5346  -11.9110   18.9900 C   0  0  0  0  0  0  0  0  0  0  0  0
  -25.7565  -26.0195   16.8240 C   0  0  0  0  0  0  0  0  0  1  0  0
  -25.7199  -31.4010   22.1072 C   0  0  0  0  0  0  0  0  0  0  0  0
  -24.2201  -29.0473   23.7604 C   0  0  0  0  0  0  0  0  0  0  0  0
  -23.7031  -25.4948   23.4005 C   0  0  0  0  0  0  0  0  0  0  0  0
  -23.2496  -18.8686   22.0991 C   0  0  0  0  0  0  0  0  0  0  0  0
  -29.9493  -31.4146   25.4205 C   0  0  0  0  0  0  0  0  0  0  0  0
  -23.7985  -30.8521   20.5701 C   0  0  0  0  0  0  0  0  0  0  0  0
  -25.1796  -28.4138   21.5146 C   0  0  0  0  0  0  0  0  0  0  0  0
  -26.2145  -23.5707   17.0439 C   0  0  0  0  0  0  0  0  0  0  0  0
  -29.9872  -31.3654   23.8966 C   0  0  0  0  0  0  0  0  0  0  0  0
  -23.8041  -16.4281   24.6316 C   0  0  0  0  0  0  0  0  0  0  0  0
  -28.6389  -30.9114   23.3575 C   0  0  0  0  0  0  0  0  0  0  0  0
  -23.9823  -15.1260   23.8474 C   0  0  0  0  0  0  0  0  0  0  0  0
  -22.7554  -17.3363   23.9920 C   0  0  0  0  0  0  0  0  0  0  0  0
  -23.1445  -16.3183   21.7826 C   0  0  0  0  0  0  0  0  0  0  0  0
  -27.5380  -31.9144   23.7251 C   0  0  1  0  0  0  0  0  0  0  0  0
  -24.3721  -30.7492   21.9800 C   0  0  1  0  0  0  0  0  0  0  0  0
  -24.2373  -15.3990   22.3521 C   0  0  2  0  0  0  0  0  0  0  0  0
  -23.0393  -19.6296   17.9838 C   0  0  0  0  0  0  0  0  0  0  0  0
  -24.3089  -25.8292   16.5038 C   0  0  0  0  0  0  0  0  0  0  0  0
  -21.8576  -24.0206   24.2478 C   0  0  0  0  0  0  0  0  0  0  0  0
  -26.0856  -28.5629   26.1259 C   0  0  0  0  0  0  0  0  0  0  0  0
  -25.3344  -26.1746   26.1396 C   0  0  0  0  0  0  0  0  0  0  0  0
  -23.6871  -28.0008   26.5567 C   0  0  0  0  0  0  0  0  0  0  0  0
  -30.1095  -24.4518   18.2950 C   0  0  0  0  0  0  0  0  0  0  0  0
  -23.1129  -24.4762   20.6851 C   0  0  0  0  0  0  0  0  0  0  0  0
  -24.5944  -27.6594   24.2216 C   0  0  1  0  0  0  0  0  0  0  0  0
  -22.3997  -24.7963   23.0574 C   0  0  2  0  0  0  0  0  0  0  0  0
  -24.9367  -27.6109   25.7375 C   0  0  0  0  0  0  0  0  0  0  0  0
  -23.6618  -13.0356   21.9466 N   0  0  0  0  0  0  0  0  0  0  0  0
  -24.3678  -14.1117   21.5598 N   0  0  0  0  0  0  0  0  0  0  0  0
  -26.7250  -22.9132   18.2454 N   0  0  0  0  0  0  0  0  0  0  0  0
  -28.6867  -24.2639   18.0310 N   0  0  0  0  0  0  0  0  0  0  0  0
  -24.5238  -29.3636   22.4287 N   0  0  0  0  0  0  0  0  0  0  0  0
  -23.0645  -17.5541   22.5771 N   0  0  0  0  0  0  0  0  0  0  0  0
  -25.9152  -14.8713   19.9352 N   0  0  0  0  0  0  0  0  0  0  0  0
  -25.2038  -10.5679   18.7645 N   0  0  0  0  0  0  0  0  0  0  0  0
  -23.5712  -18.9497   20.7447 N   0  0  0  0  0  0  0  0  0  0  0  0
  -26.2514  -31.3501   23.3817 N   0  0  0  0  0  0  0  0  0  0  0  0
  -23.4919  -26.7880   23.8298 N   0  0  0  0  0  0  0  0  0  0  0  0
  -22.6037  -23.8440   21.9293 N   0  3  0  0  0  0  0  0  0  0  0  0
  -28.5204  -26.3995   17.0853 O   0  0  0  0  0  0  0  0  0  0  0  0
  -28.6867  -22.4035   19.4255 O   0  0  0  0  0  0  0  0  0  0  0  0
  -26.3586  -12.4760   18.2314 O   0  0  0  0  0  0  0  0  0  0  0  0
  -26.2398  -31.9111   21.1217 O   0  0  0  0  0  0  0  0  0  0  0  0
  -23.6719  -29.8198   24.5505 O   0  0  0  0  0  0  0  0  0  0  0  0
  -24.7987  -24.9467   23.3013 O   0  0  0  0  0  0  0  0  0  0  0  0
  -23.1583  -19.8485   22.8431 O   0  0  0  0  0  0  0  0  0  0  0  0
  -21.8335   -6.9650   21.3520 O   0  0  0  0  0  0  0  0  0  0  0  0
  -26.2025  -27.3109   16.8590 O   0  0  0  0  0  0  0  0  0  1  0  0
  -21.6361   -4.5569   26.3085 F   0  0  0  0  0  0  0  0  0  0  0  0
  -25.6077  -20.2478   22.1024 F   0  0  0  0  0  0  0  0  0  0  0  0
  -23.1459   -4.5777   21.8223 F   0  0  0  0  0  0  0  0  0  0  0  0
  1  2  1  0  0  0  0
  1  5  2  0  0  0  0
  2  6  2  0  0  0  0
  3  8  2  0  0  0  0
  3 17  1  0  0  0  0
  4  9  1  0  0  0  0
  4 17  2  0  0  0  0
  5 19  1  0  0  0  0
  6 21  1  0  0  0  0
  7 10  2  0  0  0  0
  7 20  1  0  0  0  0
  8 26  1  0  0  0  0
  9 26  2  0  0  0  0
 10 27  1  0  0  0  0
 11 12  2  0  0  0  0
 11 28  1  0  0  0  0
 12 29  1  0  0  0  0
 13 22  1  0  0  0  0
 13 27  2  0  0  0  0
 14 23  2  0  0  0  0
 14 24  1  0  0  0  0
 15 24  2  0  0  0  0
 15 30  1  0  0  0  0
 16 29  2  0  0  0  0
 16 31  1  0  0  0  0
 17 32  1  0  0  0  0
 18 32  1  0  0  0  0
 18 33  2  0  0  0  0
 18 37  1  0  0  0  0
 19 21  2  0  0  0  0
 19 43  1  0  0  0  0
 20 22  2  0  0  0  0
 20 44  1  0  0  0  0
 21 53  1  0  0  0  0
 22 45  1  0  0  0  0
 23 25  1  0  0  0  0
 23 56  1  0  0  0  0
 24 69  1  0  0  0  0
 25 30  2  0  0  0  0
 25 75  1  0  0  0  0
 26 86  1  0  0  0  0
 27 87  1  0  0  0  0
 28 31  2  0  0  0  0
 28 86  1  0  0  0  0
 29 88  1  0  0  0  0
 30 89  1  0  0  0  0
 31 90  1  0  0  0  0
 32 67  2  0  0  0  0
 33 68  1  0  0  0  0
 33 73  1  0  0  0  0
 34 35  1  0  0  0  0
 34 38  2  0  0  0  0
 34 46  1  0  0  0  0
 35 70  1  0  0  0  0
 35 79  2  0  0  0  0
 36 69  1  0  0  0  0
 36 70  1  0  0  0  0
 36 80  2  0  0  0  0
 37 74  1  0  0  0  0
 37 81  2  0  0  0  0
 38 57  1  0  0  0  0
 38 87  1  0  0  0  0
 39 54  1  0  0  0  0
 39 76  1  0  0  0  0
 39 82  2  0  0  0  0
 40 64  1  0  0  0  0
 40 71  1  0  0  0  0
 40 83  2  0  0  0  0
 41 65  1  0  0  0  0
 41 77  1  0  0  0  0
 41 84  2  0  0  0  0
 42 72  1  0  0  0  0
 42 75  1  0  0  0  0
 42 85  2  0  0  0  0
 43 47  1  0  0  0  0
 44 54  1  0  0  0  0
 45 71  1  0  0  0  0
 46 69  1  0  0  0  0
 47 49  1  0  0  0  0
 48 50  1  0  0  0  0
 48 51  1  0  0  0  0
 49 53  1  0  0  0  0
 50 55  1  0  0  0  0
 51 72  1  0  0  0  0
 52 55  1  0  0  0  0
 52 72  1  0  0  0  0
 53 76  1  0  0  0  0
 54 71  1  0  0  0  0
 55 68  1  0  0  0  0
 58 65  1  0  0  0  0
 59 66  1  0  0  0  0
 60 66  1  0  0  0  0
 61 66  1  0  0  0  0
 62 70  1  0  0  0  0
 63 78  1  0  0  0  0
 64 66  1  0  0  0  0
 64 77  1  0  0  0  0
 65 78  1  0  0  0  0
 67 68  1  0  0  0  0
M  CHG  1  78   1
M  ISO  4  38 101  42 100  75 100  87 101
M  END
> <Batch ID>
0076

> <Smiles>
CNC(C)C(=O)NC(C(=O)N1Cc2cc([101O:1][101C:1](C)=C3CN(c4cc(C)c([100NH:0][100C:0](=O)N5CCCC(n6nc(-c7ccc(Oc8ccc(F)cc8F)cc7)c(C(N)=O)c6N)C5)c(F)c4)C(=O)N(C)C3=O)ccc2CC1C(=O)NC1CCCc2ccccc21)C(C)(C)C

> <Shape>
0.227

> <Color>
0.104

> <Negative vol penalty>
0.000

$$$$

  -OEChem-04042323503D

 84 92  0     1  0  0  0  0  0999 V2000
  -28.6700  -23.7786   17.2159 C   0  0  0  0  0  0  0  0  0  0  0  0
  -27.4843  -23.9386   17.9258 C   0  0  0  0  0  0  0  0  0  0  0  0
  -17.3224  -21.0980   22.7126 C   0  0  0  0  0  0  0  0  0  0  0  0
  -25.8213  -14.7519   20.8070 C   0  0  0  0  0  0  0  0  0  0  0  0
  -23.4141  -14.5556   20.7429 C   0  0  0  0  0  0  0  0  0  0  0  0
  -29.8285  -24.4277   17.6408 C   0  0  0  0  0  0  0  0  0  0  0  0
  -27.4567  -24.7470   19.0617 C   0  0  0  0  0  0  0  0  0  0  0  0
  -23.4195  -27.8021   19.1743 C   0  0  0  0  0  0  0  0  0  0  0  0
  -17.1330  -22.0469   23.7172 C   0  0  0  0  0  0  0  0  0  0  0  0
  -18.5774  -20.9478   22.1227 C   0  0  0  0  0  0  0  0  0  0  0  0
  -25.9091  -13.4859   21.3859 C   0  0  0  0  0  0  0  0  0  0  0  0
  -23.5020  -13.2896   21.3218 C   0  0  0  0  0  0  0  0  0  0  0  0
  -22.2036  -27.2366   19.5560 C   0  0  0  0  0  0  0  0  0  0  0  0
  -24.2323  -10.1433   20.3279 C   0  0  0  0  0  0  0  0  0  0  0  0
  -23.4535   -9.1253   19.7778 C   0  0  0  0  0  0  0  0  0  0  0  0
  -22.4870  -28.1399   21.7748 C   0  0  0  0  0  0  0  0  0  0  0  0
  -19.4537  -22.6956   23.5420 C   0  0  0  0  0  0  0  0  0  0  0  0
  -22.3327   -8.8366   21.8985 C   0  0  0  0  0  0  0  0  0  0  0  0
  -24.5738  -15.2868   20.4855 C   0  0  0  0  0  0  0  0  0  0  0  0
  -24.4934  -16.9046   18.5148 C   0  0  0  0  0  0  0  0  0  0  0  0
  -29.8128  -25.2521   18.7769 C   0  0  0  0  0  0  0  0  0  0  0  0
  -24.1848  -28.5327   20.0946 C   0  0  0  0  0  0  0  0  0  0  0  0
  -28.6164  -25.4066   19.5029 C   0  0  0  0  0  0  0  0  0  0  0  0
  -23.7110  -28.7158   21.4016 C   0  0  0  0  0  0  0  0  0  0  0  0
  -18.1986  -22.8458   24.1319 C   0  0  0  0  0  0  0  0  0  0  0  0
  -19.6431  -21.7466   22.5374 C   0  0  0  0  0  0  0  0  0  0  0  0
  -24.7495  -12.7547   21.6433 C   0  0  0  0  0  0  0  0  0  0  0  0
  -21.7385  -27.4031   20.8571 C   0  0  0  0  0  0  0  0  0  0  0  0
  -24.0614  -10.5079   21.6635 C   0  0  0  0  0  0  0  0  0  0  0  0
  -22.5037   -8.4719   20.5630 C   0  0  0  0  0  0  0  0  0  0  0  0
  -23.1116   -9.8546   22.4487 C   0  0  0  0  0  0  0  0  0  0  0  0
  -24.4823  -16.5947   19.8880 C   0  0  0  0  0  0  0  0  0  0  0  0
  -24.3821  -18.2729   18.4707 C   0  0  0  0  0  0  0  0  0  0  0  0
  -24.5950  -16.0336   17.3805 C   0  0  0  0  0  0  0  0  0  0  0  0
  -27.0829  -28.2091   21.3596 C   0  0  0  0  0  0  0  0  0  0  0  0
  -26.4197  -31.1122   22.6460 C   0  0  0  0  0  0  0  0  0  0  0  0
  -18.8214  -26.3619   22.8505 C   0  0  0  0  0  0  0  0  0  0  0  0
  -24.0619  -33.3715   23.6374 C   0  0  0  0  0  0  0  0  0  0  0  0
  -22.0807  -22.3047   22.2328 C   0  0  0  0  0  0  0  0  0  0  0  0
  -31.1013  -25.8955   19.2248 C   0  0  0  0  0  0  0  0  0  0  0  0
  -25.4814  -29.1588   19.6598 C   0  0  0  0  0  0  0  0  0  0  0  0
  -24.4849  -29.5085   22.4219 C   0  0  0  0  0  0  0  0  0  0  0  0
  -30.8994  -27.0327   20.2229 C   0  0  0  0  0  0  0  0  0  0  0  0
  -25.4226  -22.1983   21.0090 C   0  0  0  0  0  0  0  0  0  0  0  0
  -29.9192  -26.6168   21.3151 C   0  0  0  0  0  0  0  0  0  0  0  0
  -25.5598  -20.7794   20.4522 C   0  0  0  0  0  0  0  0  0  0  0  0
  -24.5643  -22.2313   22.2723 C   0  0  0  0  0  0  0  0  0  0  0  0
  -23.3814  -20.1822   21.5859 C   0  0  0  0  0  0  0  0  0  0  0  0
  -28.5406  -26.2949   20.7257 C   0  0  1  0  0  0  0  0  0  0  0  0
  -26.4247  -29.4488   20.8232 C   0  0  1  0  0  0  0  0  0  0  0  0
  -24.1838  -20.1075   20.2766 C   0  0  2  0  0  0  0  0  0  0  0  0
  -23.8243  -35.6387   24.6865 C   0  0  0  0  0  0  0  0  0  0  0  0
  -16.9287  -26.1250   25.7729 C   0  0  0  0  0  0  0  0  0  0  0  0
  -27.0922  -29.9184   25.3723 C   0  0  0  0  0  0  0  0  0  0  0  0
  -25.9477  -31.8758   26.4339 C   0  0  0  0  0  0  0  0  0  0  0  0
  -27.9605  -32.2348   25.0048 C   0  0  0  0  0  0  0  0  0  0  0  0
  -22.6805  -34.4568   21.2557 C   0  0  0  0  0  0  0  0  0  0  0  0
  -17.9930  -23.8728   25.2195 C   0  0  0  0  0  0  0  0  0  0  0  0
  -20.1363  -27.0619   22.5812 C   0  0  0  0  0  0  0  0  0  1  0  0
  -25.7686  -31.5934   23.9201 C   0  0  1  0  0  0  0  0  0  0  0  0
  -23.9250  -34.8618   23.3831 C   0  0  2  0  0  0  0  0  0  0  0  0
  -17.5667  -25.2543   24.6902 C   0  0  2  0  0  0  0  0  0  0  0  0
  -26.6783  -31.3890   25.1643 C   0  0  0  0  0  0  0  0  0  0  0  0
  -24.3728  -17.6789   20.6604 N   0  0  0  0  0  0  0  0  0  0  0  0
  -24.3142  -18.6834   19.7696 N   0  0  0  0  0  0  0  0  0  0  0  0
  -25.7499  -30.0957   21.9502 N   0  0  0  0  0  0  0  0  0  0  0  0
  -23.2747  -21.5810   22.0295 N   0  0  0  0  0  0  0  0  0  0  0  0
  -24.3369  -19.1529   17.4480 N   0  0  0  0  0  0  0  0  0  0  0  0
  -24.7023  -14.6543   17.6048 N   0  0  0  0  0  0  0  0  0  0  0  0
  -20.9180  -21.5933   21.9385 N   0  0  0  0  0  0  0  0  0  0  0  0
  -27.8234  -27.5147   20.4221 N   0  0  0  0  0  0  0  0  0  0  0  0
  -25.3833  -32.9804   23.6830 N   0  0  0  0  0  0  0  0  0  0  0  0
  -18.7214  -25.9493   24.1699 N   0  0  0  0  0  0  0  0  0  0  0  0
  -22.7040  -35.1393   22.5750 N   0  3  0  0  0  0  0  0  0  0  0  0
  -24.6074  -16.4670   16.2034 O   0  0  0  0  0  0  0  0  0  0  0  0
  -26.9314  -27.9059   22.5372 O   0  0  0  0  0  0  0  0  0  0  0  0
  -27.4797  -31.6244   22.2777 O   0  0  0  0  0  0  0  0  0  0  0  0
  -17.9681  -26.1945   21.9834 O   0  0  0  0  0  0  0  0  0  0  0  0
  -23.0935  -32.6292   23.7849 O   0  0  0  0  0  0  0  0  0  0  0  0
  -22.0900  -23.4786   22.6121 O   0  0  0  0  0  0  0  0  0  0  0  0
  -24.8349  -11.5193   22.2080 O   0  0  0  0  0  0  0  0  0  0  0  0
  -20.5524  -26.8517   21.2325 O   0  0  0  0  0  0  0  0  0  1  0  0
  -21.7548   -7.4954   20.0341 F   0  0  0  0  0  0  0  0  0  0  0  0
  -22.9420  -10.2013   23.7320 F   0  0  0  0  0  0  0  0  0  0  0  0
  1  2  1  0  0  0  0
  1  6  2  0  0  0  0
  2  7  2  0  0  0  0
  3  9  2  0  0  0  0
  3 10  1  0  0  0  0
  4 11  2  0  0  0  0
  4 19  1  0  0  0  0
  5 12  1  0  0  0  0
  5 19  2  0  0  0  0
  6 21  1  0  0  0  0
  7 23  1  0  0  0  0
  8 13  2  0  0  0  0
  8 22  1  0  0  0  0
  9 25  1  0  0  0  0
 10 26  2  0  0  0  0
 11 27  1  0  0  0  0
 12 27  2  0  0  0  0
 13 28  1  0  0  0  0
 14 15  2  0  0  0  0
 14 29  1  0  0  0  0
 15 30  1  0  0  0  0
 16 24  1  0  0  0  0
 16 28  2  0  0  0  0
 17 25  2  0  0  0  0
 17 26  1  0  0  0  0
 18 30  2  0  0  0  0
 18 31  1  0  0  0  0
 19 32  1  0  0  0  0
 20 32  1  0  0  0  0
 20 33  2  0  0  0  0
 20 34  1  0  0  0  0
 21 23  2  0  0  0  0
 21 40  1  0  0  0  0
 22 24  2  0  0  0  0
 22 41  1  0  0  0  0
 23 49  1  0  0  0  0
 24 42  1  0  0  0  0
 25 58  1  0  0  0  0
 26 70  1  0  0  0  0
 27 81  1  0  0  0  0
 28 82  1  0  0  0  0
 29 31  2  0  0  0  0
 29 81  1  0  0  0  0
 30 83  1  0  0  0  0
 31 84  1  0  0  0  0
 32 64  2  0  0  0  0
 33 65  1  0  0  0  0
 33 68  1  0  0  0  0
 34 69  1  0  0  0  0
 34 75  2  0  0  0  0
 35 50  1  0  0  0  0
 35 71  1  0  0  0  0
 35 76  2  0  0  0  0
 36 60  1  0  0  0  0
 36 66  1  0  0  0  0
 36 77  2  0  0  0  0
 37 59  1  0  0  0  0
 37 73  1  0  0  0  0
 37 78  2  0  0  0  0
 38 61  1  0  0  0  0
 38 72  1  0  0  0  0
 38 79  2  0  0  0  0
 39 67  1  0  0  0  0
 39 70  1  0  0  0  0
 39 80  2  0  0  0  0
 40 43  1  0  0  0  0
 41 50  1  0  0  0  0
 42 66  1  0  0  0  0
 43 45  1  0  0  0  0
 44 46  1  0  0  0  0
 44 47  1  0  0  0  0
 45 49  1  0  0  0  0
 46 51  1  0  0  0  0
 47 67  1  0  0  0  0
 48 51  1  0  0  0  0
 48 67  1  0  0  0  0
 49 71  1  0  0  0  0
 50 66  1  0  0  0  0
 51 65  1  0  0  0  0
 52 61  1  0  0  0  0
 53 62  1  0  0  0  0
 54 63  1  0  0  0  0
 55 63  1  0  0  0  0
 56 63  1  0  0  0  0
 57 74  1  0  0  0  0
 58 62  1  0  0  0  0
 59 82  1  0  0  0  0
 60 63  1  0  0  0  0
 60 72  1  0  0  0  0
 61 74  1  0  0  0  0
 62 73  1  0  0  0  0
 64 65  1  0  0  0  0
M  CHG  1  74   1
M  ISO  4  39 100  59 101  70 100  82 101
M  END
> <Batch ID>
0076

> <Smiles>
CNC(C)C(=O)NC(C(=O)N1Cc2cc([101O:1][101CH2:1]C(=O)NC(C)Cc3cccc([100NH:0][100C:0](=O)N4CCCC(n5nc(-c6ccc(Oc7ccc(F)cc7F)cc6)c(C(N)=O)c5N)C4)c3)ccc2CC1C(=O)NC1CCCc2ccccc21)C(C)(C)C

> <Shape>
0.258

> <Color>
0.064

> <Negative vol penalty>
0.000

$$$$

  -OEChem-04042323503D

 87 96  0     1  0  0  0  0  0999 V2000
  -35.1829  -12.8922   22.8660 C   0  0  0  0  0  0  0  0  0  0  0  0
  -35.0889  -14.2788   22.9276 C   0  0  0  0  0  0  0  0  0  0  0  0
  -22.9009  -23.9171   23.3184 C   0  0  0  0  0  0  0  0  0  0  0  0
  -24.5911  -24.9503   24.7013 C   0  0  0  0  0  0  0  0  0  0  0  0
  -34.4186  -12.1832   21.9403 C   0  0  0  0  0  0  0  0  0  0  0  0
  -34.2311  -14.9575   22.0627 C   0  0  0  0  0  0  0  0  0  0  0  0
  -30.0337  -20.7552   21.7737 C   0  0  0  0  0  0  0  0  0  0  0  0
  -29.8217  -29.2756   20.2067 C   0  0  0  0  0  0  0  0  0  0  0  0
  -29.3213  -30.3750   20.9042 C   0  0  0  0  0  0  0  0  0  0  0  0
  -22.4530  -23.1813   24.4154 C   0  0  0  0  0  0  0  0  0  0  0  0
  -24.1432  -24.2145   25.7984 C   0  0  0  0  0  0  0  0  0  0  0  0
  -29.8044  -21.8806   20.9832 C   0  0  0  0  0  0  0  0  0  0  0  0
  -24.4613  -21.0637   26.9826 C   0  0  0  0  0  0  0  0  0  0  0  0
  -25.4216  -20.4528   27.7888 C   0  0  0  0  0  0  0  0  0  0  0  0
  -28.4733  -20.5451   19.4786 C   0  0  0  0  0  0  0  0  0  0  0  0
  -28.1488  -27.8647   21.2302 C   0  0  0  0  0  0  0  0  0  0  0  0
  -24.6407  -21.7290   29.6859 C   0  0  0  0  0  0  0  0  0  0  0  0
  -23.9700  -24.8016   23.4613 C   0  0  0  0  0  0  0  0  0  0  0  0
  -24.9348  -25.0565   21.1136 C   0  0  0  0  0  0  0  0  0  0  0  0
  -33.5438  -12.8527   21.0701 C   0  0  0  0  0  0  0  0  0  0  0  0
  -29.4926  -19.5120   21.4160 C   0  0  0  0  0  0  0  0  0  0  0  0
  -33.4553  -14.2569   21.1235 C   0  0  0  0  0  0  0  0  0  0  0  0
  -28.6951  -19.4060   20.2676 C   0  0  0  0  0  0  0  0  0  0  0  0
  -29.2354  -28.0204   20.3697 C   0  0  0  0  0  0  0  0  0  0  0  0
  -28.2346  -30.2192   21.7647 C   0  0  0  0  0  0  0  0  0  0  0  0
  -27.6483  -28.9641   21.9278 C   0  0  0  0  0  0  0  0  0  0  0  0
  -23.0741  -23.3300   25.6555 C   0  0  0  0  0  0  0  0  0  0  0  0
  -29.0265  -21.7750   19.8340 C   0  0  0  0  0  0  0  0  0  0  0  0
  -23.5906  -22.0073   27.5279 C   0  0  0  0  0  0  0  0  0  0  0  0
  -25.5113  -20.7854   29.1405 C   0  0  0  0  0  0  0  0  0  0  0  0
  -23.6803  -22.3399   28.8796 C   0  0  0  0  0  0  0  0  0  0  0  0
  -24.4334  -25.5615   22.3282 C   0  0  0  0  0  0  0  0  0  0  0  0
  -25.2348  -26.1747   20.3746 C   0  0  0  0  0  0  0  0  0  0  0  0
  -30.1273  -24.7851   18.8043 C   0  0  0  0  0  0  0  0  0  0  0  0
  -29.2645  -25.5808   19.7178 C   0  0  0  0  0  0  0  0  0  0  0  0
  -25.1133  -23.6981   20.6910 C   0  0  0  0  0  0  0  0  0  0  0  0
  -29.8817  -23.5054   18.5129 C   0  0  0  0  0  0  0  0  0  1  0  0
  -30.7045  -16.6767   20.6436 C   0  0  0  0  0  0  0  0  0  0  0  0
  -27.5908  -15.7686   20.6894 C   0  0  0  0  0  0  0  0  0  0  0  0
  -24.3079  -16.6628   20.4254 C   0  0  0  0  0  0  0  0  0  0  0  0
  -26.4180  -31.8505   22.3394 C   0  0  0  0  0  0  0  0  0  0  0  0
  -32.7731  -12.0474   20.0542 C   0  0  0  0  0  0  0  0  0  0  0  0
  -29.7272  -18.3132   22.2937 C   0  0  0  0  0  0  0  0  0  0  0  0
  -28.0746  -18.0985   19.8509 C   0  0  0  0  0  0  0  0  0  0  0  0
  -31.2378  -25.6266   18.2802 C   0  0  0  0  0  0  0  0  0  0  0  0
  -31.6094  -12.8110   19.4274 C   0  0  0  0  0  0  0  0  0  0  0  0
  -23.9799  -30.7489   19.7830 C   0  0  0  0  0  0  0  0  0  0  0  0
  -32.0525  -14.2091   19.0079 C   0  0  0  0  0  0  0  0  0  0  0  0
  -23.8016  -29.2655   20.1011 C   0  0  0  0  0  0  0  0  0  0  0  0
  -30.8315  -27.0315   18.6934 C   0  0  0  0  0  0  0  0  0  0  0  0
  -24.3421  -31.5553   21.0265 C   0  0  0  0  0  0  0  0  0  0  0  0
  -25.3702  -29.5514   22.0605 C   0  0  0  0  0  0  0  0  0  0  0  0
  -32.5179  -15.0268   20.2188 C   0  0  1  0  0  0  0  0  0  0  0  0
  -29.5525  -16.9893   21.5561 C   0  0  1  0  0  0  0  0  0  0  0  0
  -25.0445  -28.7111   20.8167 C   0  0  1  0  0  0  0  0  0  0  0  0
  -30.7343  -22.6864   17.5983 C   0  0  0  0  0  0  0  0  0  0  0  0
  -21.9930  -15.6950   20.4689 C   0  0  0  0  0  0  0  0  0  0  0  0
  -27.9994  -14.6708   17.8719 C   0  0  0  0  0  0  0  0  0  0  0  0
  -25.5101  -14.5963   17.6151 C   0  0  0  0  0  0  0  0  0  0  0  0
  -26.6231  -13.2154   19.3692 C   0  0  0  0  0  0  0  0  0  0  0  0
  -28.7023  -32.2258   23.1596 C   0  0  0  0  0  0  0  0  0  0  0  0
  -23.5441  -18.2954   22.7728 C   0  0  0  0  0  0  0  0  0  0  0  0
  -26.4760  -15.7210   19.6725 C   0  0  1  0  0  0  0  0  0  0  0  0
  -23.1023  -16.3360   21.2881 C   0  0  2  0  0  0  0  0  0  0  0  0
  -26.6653  -14.5753   18.6387 C   0  0  0  0  0  0  0  0  0  0  0  0
  -24.4146  -26.8966   22.3630 N   0  0  0  0  0  0  0  0  0  0  0  0
  -24.9079  -27.2400   21.1610 N   0  0  0  0  0  0  0  0  0  0  0  0
  -29.7485  -26.8939   19.6545 N   0  0  0  0  0  0  0  0  0  0  0  0
  -28.3383  -16.9538   20.7384 N   0  0  0  0  0  0  0  0  0  0  0  0
  -25.4898  -30.9810   21.7306 N   0  0  0  0  0  0  0  0  0  0  0  0
  -26.5466  -28.7839   22.7941 N   0  0  0  0  0  0  0  0  0  0  0  0
  -25.7438  -26.3409   19.1353 N   0  0  0  0  0  0  0  0  0  0  0  0
  -24.0571  -23.0612   20.0254 N   0  0  0  0  0  0  0  0  0  0  0  0
  -31.3791  -15.5149   20.9668 N   0  0  0  0  0  0  0  0  0  0  0  0
  -25.2333  -15.6407   20.4327 N   0  0  0  0  0  0  0  0  0  0  0  0
  -27.7349  -31.3712   22.4747 N   0  0  0  0  0  0  0  0  0  0  0  0
  -22.5653  -17.5750   21.9185 N   0  3  0  0  0  0  0  0  0  0  0  0
  -28.3376  -25.1018   20.3496 O   0  0  0  0  0  0  0  0  0  0  0  0
  -26.1720  -23.0626   20.9121 O   0  0  0  0  0  0  0  0  0  0  0  0
  -30.9615  -17.4329   19.7142 O   0  0  0  0  0  0  0  0  0  0  0  0
  -27.7864  -14.7929   21.4183 O   0  0  0  0  0  0  0  0  0  0  0  0
  -24.4159  -17.7177   19.8040 O   0  0  0  0  0  0  0  0  0  0  0  0
  -26.0851  -32.9563   22.7832 O   0  0  0  0  0  0  0  0  0  0  0  0
  -22.6372  -22.6123   26.7263 O   0  0  0  0  0  0  0  0  0  0  0  0
  -28.8016  -22.8718   19.0603 O   0  0  0  0  0  0  0  0  0  1  0  0
  -26.4326  -20.1976   29.9150 F   0  0  0  0  0  0  0  0  0  0  0  0
  -22.8459  -23.2448   29.4094 F   0  0  0  0  0  0  0  0  0  0  0  0
  1  2  1  0  0  0  0
  1  5  2  0  0  0  0
  2  6  2  0  0  0  0
  3 10  2  0  0  0  0
  3 18  1  0  0  0  0
  4 11  1  0  0  0  0
  4 18  2  0  0  0  0
  5 20  1  0  0  0  0
  6 22  1  0  0  0  0
  7 12  2  0  0  0  0
  7 21  1  0  0  0  0
  8  9  2  0  0  0  0
  8 24  1  0  0  0  0
  9 25  1  0  0  0  0
 10 27  1  0  0  0  0
 11 27  2  0  0  0  0
 12 28  1  0  0  0  0
 13 14  2  0  0  0  0
 13 29  1  0  0  0  0
 14 30  1  0  0  0  0
 15 23  1  0  0  0  0
 15 28  2  0  0  0  0
 16 24  2  0  0  0  0
 16 26  1  0  0  0  0
 17 30  2  0  0  0  0
 17 31  1  0  0  0  0
 18 32  1  0  0  0  0
 19 32  1  0  0  0  0
 19 33  2  0  0  0  0
 19 36  1  0  0  0  0
 20 22  2  0  0  0  0
 20 42  1  0  0  0  0
 21 23  2  0  0  0  0
 21 43  1  0  0  0  0
 22 53  1  0  0  0  0
 23 44  1  0  0  0  0
 24 68  1  0  0  0  0
 25 26  2  0  0  0  0
 25 76  1  0  0  0  0
 26 71  1  0  0  0  0
 27 84  1  0  0  0  0
 28 85  1  0  0  0  0
 29 31  2  0  0  0  0
 29 84  1  0  0  0  0
 30 86  1  0  0  0  0
 31 87  1  0  0  0  0
 32 66  2  0  0  0  0
 33 67  1  0  0  0  0
 33 72  1  0  0  0  0
 34 35  1  0  0  0  0
 34 37  2  0  0  0  0
 34 45  1  0  0  0  0
 35 68  1  0  0  0  0
 35 78  2  0  0  0  0
 36 73  1  0  0  0  0
 36 79  2  0  0  0  0
 37 56  1  0  0  0  0
 37 85  1  0  0  0  0
 38 54  1  0  0  0  0
 38 74  1  0  0  0  0
 38 80  2  0  0  0  0
 39 63  1  0  0  0  0
 39 69  1  0  0  0  0
 39 81  2  0  0  0  0
 40 64  1  0  0  0  0
 40 75  1  0  0  0  0
 40 82  2  0  0  0  0
 41 70  1  0  0  0  0
 41 76  1  0  0  0  0
 41 83  2  0  0  0  0
 42 46  1  0  0  0  0
 43 54  1  0  0  0  0
 44 69  1  0  0  0  0
 45 50  1  0  0  0  0
 46 48  1  0  0  0  0
 47 49  1  0  0  0  0
 47 51  1  0  0  0  0
 48 53  1  0  0  0  0
 49 55  1  0  0  0  0
 50 68  1  0  0  0  0
 51 70  1  0  0  0  0
 52 55  1  0  0  0  0
 52 70  1  0  0  0  0
 53 74  1  0  0  0  0
 54 69  1  0  0  0  0
 55 67  1  0  0  0  0
 57 64  1  0  0  0  0
 58 65  1  0  0  0  0
 59 65  1  0  0  0  0
 60 65  1  0  0  0  0
 61 76  1  0  0  0  0
 62 77  1  0  0  0  0
 63 65  1  0  0  0  0
 63 75  1  0  0  0  0
 64 77  1  0  0  0  0
 66 67  1  0  0  0  0
M  CHG  1  77   1
M  ISO  4  37 101  41 100  76 100  85 101
M  END
> <Batch ID>
0076

> <Smiles>
CNC(C)C(=O)NC(C(=O)N1Cc2cc([101O:1][101C:1](C)=C3CCN(c4ccc([100N:0](C)[100C:0](=O)N5CCCC(n6nc(-c7ccc(Oc8ccc(F)cc8F)cc7)c(C(N)=O)c6N)C5)c(N)c4)C3=O)ccc2CC1C(=O)NC1CCCc2ccccc21)C(C)(C)C

> <Shape>
0.224

> <Color>
0.063

> <Negative vol penalty>
0.000

$$$$

  -OEChem-04042323503D

 85 94  0     1  0  0  0  0  0999 V2000
  -28.2054  -36.9605   24.6443 C   0  0  0  0  0  0  0  0  0  0  0  0
  -28.6837  -36.0603   23.6976 C   0  0  0  0  0  0  0  0  0  0  0  0
  -24.1261   -8.8094   21.1022 C   0  0  0  0  0  0  0  0  0  0  0  0
  -23.0630  -10.9645   21.3518 C   0  0  0  0  0  0  0  0  0  0  0  0
  -27.2978  -36.5348   25.6133 C   0  0  0  0  0  0  0  0  0  0  0  0
  -28.2555  -34.7335   23.7201 C   0  0  0  0  0  0  0  0  0  0  0  0
  -26.8466  -29.2469   19.3350 C   0  0  0  0  0  0  0  0  0  0  0  0
  -27.3207  -19.4083   20.5595 C   0  0  0  0  0  0  0  0  0  0  0  0
  -27.3711  -18.0165   20.4834 C   0  0  0  0  0  0  0  0  0  0  0  0
  -23.2700   -8.2755   22.0653 C   0  0  0  0  0  0  0  0  0  0  0  0
  -22.2068  -10.4307   22.3149 C   0  0  0  0  0  0  0  0  0  0  0  0
  -27.1661  -27.9017   19.1559 C   0  0  0  0  0  0  0  0  0  0  0  0
  -20.0743   -7.1827   22.2263 C   0  0  0  0  0  0  0  0  0  0  0  0
  -19.4866   -5.9466   21.9575 C   0  0  0  0  0  0  0  0  0  0  0  0
  -25.5352  -27.2980   20.8278 C   0  0  0  0  0  0  0  0  0  0  0  0
  -29.7840  -18.1085   20.4007 C   0  0  0  0  0  0  0  0  0  0  0  0
  -20.5352   -5.0198   23.9270 C   0  0  0  0  0  0  0  0  0  0  0  0
  -24.0227  -10.1539   20.7455 C   0  0  0  0  0  0  0  0  0  0  0  0
  -24.6939  -10.7621   18.3607 C   0  0  0  0  0  0  0  0  0  0  0  0
  -26.8509  -35.2044   25.6417 C   0  0  0  0  0  0  0  0  0  0  0  0
  -25.8751  -29.6292   20.2712 C   0  0  0  0  0  0  0  0  0  0  0  0
  -27.3421  -34.2892   24.6912 C   0  0  0  0  0  0  0  0  0  0  0  0
  -25.2034  -28.6485   21.0150 C   0  0  0  0  0  0  0  0  0  0  0  0
  -28.5018  -20.1503   20.5561 C   0  0  0  0  0  0  0  0  0  0  0  0
  -28.6028  -17.3665   20.4040 C   0  0  0  0  0  0  0  0  0  0  0  0
  -22.3103   -9.0861   22.6716 C   0  0  0  0  0  0  0  0  0  0  0  0
  -26.5125  -26.9272   19.9044 C   0  0  0  0  0  0  0  0  0  0  0  0
  -20.8925   -7.3374   23.3454 C   0  0  0  0  0  0  0  0  0  0  0  0
  -19.7171   -4.8652   22.8079 C   0  0  0  0  0  0  0  0  0  0  0  0
  -29.7335  -19.5004   20.4767 C   0  0  0  0  0  0  0  0  0  0  0  0
  -21.1230   -6.2560   24.1957 C   0  0  0  0  0  0  0  0  0  0  0  0
  -24.9072  -10.7062   19.7510 C   0  0  0  0  0  0  0  0  0  0  0  0
  -25.8186  -11.3753   17.8652 C   0  0  0  0  0  0  0  0  0  0  0  0
  -27.3287  -22.3179   20.7113 C   0  0  0  0  0  0  0  0  0  0  0  0
  -27.6287  -23.6227   20.7684 C   0  0  0  0  0  0  0  0  0  0  0  0
  -29.0766  -23.7596   20.7232 C   0  0  0  0  0  0  0  0  0  0  0  0
  -29.7906  -24.8892   20.7563 C   0  0  0  0  0  0  0  0  0  0  0  0
  -23.5787  -10.3012   17.5863 C   0  0  0  0  0  0  0  0  0  0  0  0
  -25.8770  -31.4032   22.9087 C   0  0  0  0  0  0  0  0  0  0  0  0
  -22.6729  -30.9163   22.7706 C   0  0  0  0  0  0  0  0  0  0  0  0
  -20.0806  -28.9827   21.6806 C   0  0  0  0  0  0  0  0  0  0  0  0
  -29.7923  -15.1518   20.2427 C   0  0  0  0  0  0  0  0  0  0  0  0
  -25.9055  -34.7794   26.7373 C   0  0  0  0  0  0  0  0  0  0  0  0
  -25.5229  -31.0825   20.4333 C   0  0  0  0  0  0  0  0  0  0  0  0
  -24.1383  -29.0052   22.0183 C   0  0  0  0  0  0  0  0  0  0  0  0
  -29.6607  -22.3595   20.6290 C   0  0  0  0  0  0  0  0  0  0  0  0
  -25.2144  -33.4463   26.4624 C   0  0  0  0  0  0  0  0  0  0  0  0
  -30.4780  -11.9706   18.7979 C   0  0  0  0  0  0  0  0  0  0  0  0
  -26.2255  -32.4099   25.9823 C   0  0  0  0  0  0  0  0  0  0  0  0
  -29.1068  -11.2928   18.7462 C   0  0  0  0  0  0  0  0  0  0  0  0
  -30.6417  -12.8241   20.0543 C   0  0  0  0  0  0  0  0  0  0  0  0
  -28.2034  -13.1292   20.2289 C   0  0  0  0  0  0  0  0  0  0  0  0
  -26.8823  -32.8476   24.6676 C   0  0  1  0  0  0  0  0  0  0  0  0
  -24.8827  -31.3953   21.7822 C   0  0  1  0  0  0  0  0  0  0  0  0
  -27.9671  -12.3104   18.9493 C   0  0  2  0  0  0  0  0  0  0  0  0
  -17.5777  -28.8186   21.7568 C   0  0  0  0  0  0  0  0  0  0  0  0
  -22.8292  -29.9034   25.6446 C   0  0  0  0  0  0  0  0  0  0  0  0
  -20.5595  -28.8921   25.3379 C   0  0  0  0  0  0  0  0  0  0  0  0
  -20.8570  -31.3623   25.1585 C   0  0  0  0  0  0  0  0  0  0  0  0
  -19.8605  -29.2055   18.7377 C   0  0  0  0  0  0  0  0  0  0  0  0
  -26.6750  -24.7573   20.8640 C   0  0  0  0  0  0  0  0  0  1  0  0
  -21.7260  -29.8718   23.3105 C   0  0  1  0  0  0  0  0  0  0  0  0
  -18.7796  -29.3411   20.9853 C   0  0  2  0  0  0  0  0  0  0  0  0
  -21.5143  -30.0005   24.8454 C   0  0  0  0  0  0  0  0  0  0  0  0
  -26.0756  -11.2409   20.1154 N   0  0  0  0  0  0  0  0  0  0  0  0
  -26.6067  -11.6387   18.9467 N   0  0  0  0  0  0  0  0  0  0  0  0
  -28.4490  -21.5193   20.6296 N   0  0  0  0  0  0  0  0  0  0  0  0
  -23.8339  -30.4400   22.1452 N   0  0  0  0  0  0  0  0  0  0  0  0
  -29.5282  -13.7672   20.1785 N   0  0  0  0  0  0  0  0  0  0  0  0
  -26.2005  -11.7093   16.6142 N   0  0  0  0  0  0  0  0  0  0  0  0
  -22.5066   -9.6941   18.2544 N   0  0  0  0  0  0  0  0  0  0  0  0
  -28.6538  -15.9526   20.3268 N   0  0  0  0  0  0  0  0  0  0  0  0
  -25.9859  -32.6200   23.5545 N   0  0  0  0  0  0  0  0  0  0  0  0
  -20.5011  -29.9871   22.5266 N   0  0  0  0  0  0  0  0  0  0  0  0
  -18.7475  -28.7583   19.6141 N   0  3  0  0  0  0  0  0  0  0  0  0
  -23.5416  -10.4092   16.3371 O   0  0  0  0  0  0  0  0  0  0  0  0
  -26.4983  -30.3806   23.1734 O   0  0  0  0  0  0  0  0  0  0  0  0
  -22.3893  -32.1105   22.8929 O   0  0  0  0  0  0  0  0  0  0  0  0
  -20.6635  -27.9168   21.4949 O   0  0  0  0  0  0  0  0  0  0  0  0
  -30.9424  -15.5958   20.1970 O   0  0  0  0  0  0  0  0  0  0  0  0
  -21.4746   -8.5655   23.6113 O   0  0  0  0  0  0  0  0  0  0  0  0
  -26.8229  -25.6135   19.7321 O   0  0  0  0  0  0  0  0  0  1  0  0
  -19.1514   -3.6786   22.5505 F   0  0  0  0  0  0  0  0  0  0  0  0
  -30.8745  -20.2041   20.4713 F   0  0  0  0  0  0  0  0  0  0  0  0
  -21.9071   -6.3988   25.2730 F   0  0  0  0  0  0  0  0  0  0  0  0
  1  2  1  0  0  0  0
  1  5  2  0  0  0  0
  2  6  2  0  0  0  0
  3 10  2  0  0  0  0
  3 18  1  0  0  0  0
  4 11  1  0  0  0  0
  4 18  2  0  0  0  0
  5 20  1  0  0  0  0
  6 22  1  0  0  0  0
  7 12  2  0  0  0  0
  7 21  1  0  0  0  0
  8  9  2  0  0  0  0
  8 24  1  0  0  0  0
  9 25  1  0  0  0  0
 10 26  1  0  0  0  0
 11 26  2  0  0  0  0
 12 27  1  0  0  0  0
 13 14  2  0  0  0  0
 13 28  1  0  0  0  0
 14 29  1  0  0  0  0
 15 23  1  0  0  0  0
 15 27  2  0  0  0  0
 16 25  2  0  0  0  0
 16 30  1  0  0  0  0
 17 29  2  0  0  0  0
 17 31  1  0  0  0  0
 18 32  1  0  0  0  0
 19 32  1  0  0  0  0
 19 33  2  0  0  0  0
 19 38  1  0  0  0  0
 20 22  2  0  0  0  0
 20 43  1  0  0  0  0
 21 23  2  0  0  0  0
 21 44  1  0  0  0  0
 22 53  1  0  0  0  0
 23 45  1  0  0  0  0
 24 30  2  0  0  0  0
 24 67  1  0  0  0  0
 25 72  1  0  0  0  0
 26 81  1  0  0  0  0
 27 82  1  0  0  0  0
 28 31  2  0  0  0  0
 28 81  1  0  0  0  0
 29 83  1  0  0  0  0
 30 84  1  0  0  0  0
 31 85  1  0  0  0  0
 32 65  2  0  0  0  0
 33 66  1  0  0  0  0
 33 70  1  0  0  0  0
 34 35  2  0  0  0  0
 34 67  1  0  0  0  0
 35 36  1  0  0  0  0
 35 61  1  0  0  0  0
 36 37  2  0  0  0  0
 36 46  1  0  0  0  0
 38 71  1  0  0  0  0
 38 76  2  0  0  0  0
 39 54  1  0  0  0  0
 39 73  1  0  0  0  0
 39 77  2  0  0  0  0
 40 62  1  0  0  0  0
 40 68  1  0  0  0  0
 40 78  2  0  0  0  0
 41 63  1  0  0  0  0
 41 74  1  0  0  0  0
 41 79  2  0  0  0  0
 42 69  1  0  0  0  0
 42 72  1  0  0  0  0
 42 80  2  0  0  0  0
 43 47  1  0  0  0  0
 44 54  1  0  0  0  0
 45 68  1  0  0  0  0
 46 67  1  0  0  0  0
 47 49  1  0  0  0  0
 48 50  1  0  0  0  0
 48 51  1  0  0  0  0
 49 53  1  0  0  0  0
 50 55  1  0  0  0  0
 51 69  1  0  0  0  0
 52 55  1  0  0  0  0
 52 69  1  0  0  0  0
 53 73  1  0  0  0  0
 54 68  1  0  0  0  0
 55 66  1  0  0  0  0
 56 63  1  0  0  0  0
 57 64  1  0  0  0  0
 58 64  1  0  0  0  0
 59 64  1  0  0  0  0
 60 75  1  0  0  0  0
 61 82  1  0  0  0  0
 62 64  1  0  0  0  0
 62 74  1  0  0  0  0
 63 75  1  0  0  0  0
 65 66  1  0  0  0  0
M  CHG  1  75   1
M  ISO  4  42 100  61 101  72 100  82 101
M  END
> <Batch ID>
0076

> <Smiles>
C=C1CN(c2ccc([100NH:0][100C:0](=O)N3CCCC(n4nc(-c5ccc(Oc6ccc(F)cc6F)cc5)c(C(N)=O)c4N)C3)cc2F)C=C1[101CH2:1][101O:1]c1ccc2c(c1)CN(C(=O)C(NC(=O)C(C)NC)C(C)(C)C)C(C(=O)NC1CCCc3ccccc31)C2

> <Shape>
0.332

> <Color>
0.097

> <Negative vol penalty>
0.000

$$$$

  -OEChem-04042323503D

 88 97  0     1  0  0  0  0  0999 V2000
  -16.7558  -29.0239   24.2289 C   0  0  0  0  0  0  0  0  0  0  0  0
  -17.4235  -27.9956   23.5715 C   0  0  0  0  0  0  0  0  0  0  0  0
  -29.4581  -19.5819   24.1543 C   0  0  0  0  0  0  0  0  0  0  0  0
  -22.3344  -14.7325   19.4332 C   0  0  0  0  0  0  0  0  0  0  0  0
  -23.1091  -13.3736   17.5919 C   0  0  0  0  0  0  0  0  0  0  0  0
  -30.2667  -18.6084   23.5676 C   0  0  0  0  0  0  0  0  0  0  0  0
  -17.2216  -30.3340   24.1255 C   0  0  0  0  0  0  0  0  0  0  0  0
  -18.5569  -28.2770   22.8094 C   0  0  0  0  0  0  0  0  0  0  0  0
  -22.3165  -24.9851   23.6305 C   0  0  0  0  0  0  0  0  0  0  0  0
  -28.2296  -19.9072   23.5793 C   0  0  0  0  0  0  0  0  0  0  0  0
  -21.3153  -15.2418   18.6286 C   0  0  0  0  0  0  0  0  0  0  0  0
  -22.0898  -13.8829   16.7872 C   0  0  0  0  0  0  0  0  0  0  0  0
  -22.2186  -23.7395   23.0119 C   0  0  0  0  0  0  0  0  0  0  0  0
  -20.9896  -17.5626   16.1930 C   0  0  0  0  0  0  0  0  0  0  0  0
  -20.7638  -18.9386   16.2279 C   0  0  0  0  0  0  0  0  0  0  0  0
  -28.6184  -18.2857   21.8310 C   0  0  0  0  0  0  0  0  0  0  0  0
  -23.7394  -24.4807   21.2924 C   0  0  0  0  0  0  0  0  0  0  0  0
  -18.5034  -18.5484   16.9865 C   0  0  0  0  0  0  0  0  0  0  0  0
  -23.2314  -13.7984   18.9148 C   0  0  0  0  0  0  0  0  0  0  0  0
  -29.8469  -17.9604   22.4060 C   0  0  0  0  0  0  0  0  0  0  0  0
  -24.1411  -12.5566   20.9490 C   0  0  0  0  0  0  0  0  0  0  0  0
  -18.3669  -30.6302   23.3696 C   0  0  0  0  0  0  0  0  0  0  0  0
  -23.1194  -25.9932   23.0778 C   0  0  0  0  0  0  0  0  0  0  0  0
  -19.0377  -29.5924   22.6947 C   0  0  0  0  0  0  0  0  0  0  0  0
  -23.8478  -25.7374   21.9073 C   0  0  0  0  0  0  0  0  0  0  0  0
  -27.8097  -19.2592   22.4177 C   0  0  0  0  0  0  0  0  0  0  0  0
  -21.1929  -14.8171   17.3056 C   0  0  0  0  0  0  0  0  0  0  0  0
  -22.9278  -23.4881   21.8411 C   0  0  0  0  0  0  0  0  0  0  0  0
  -19.9723  -16.6795   16.5547 C   0  0  0  0  0  0  0  0  0  0  0  0
  -19.5207  -19.4315   16.6247 C   0  0  0  0  0  0  0  0  0  0  0  0
  -18.7292  -17.1723   16.9515 C   0  0  0  0  0  0  0  0  0  0  0  0
  -24.2848  -13.2723   19.7453 C   0  0  0  0  0  0  0  0  0  0  0  0
  -25.4286  -12.2849   21.3427 C   0  0  0  0  0  0  0  0  0  0  0  0
  -24.1504  -19.8520   22.0197 C   0  0  0  0  0  0  0  0  0  0  0  0
  -30.7078  -16.9234   21.7812 C   0  0  0  0  0  0  0  0  0  0  0  0
  -22.9503  -12.1715   21.6486 C   0  0  0  0  0  0  0  0  0  0  0  0
  -22.5845  -28.9047   21.9200 C   0  0  0  0  0  0  0  0  0  0  0  0
  -25.8223  -29.0094   21.7532 C   0  0  0  0  0  0  0  0  0  0  0  0
  -28.4834  -26.7701   20.7932 C   0  0  0  0  0  0  0  0  0  0  0  0
  -30.6626  -14.9160   20.3349 C   0  0  0  0  0  0  0  0  0  0  0  0
  -18.8051  -32.0682   23.2488 C   0  0  0  0  0  0  0  0  0  0  0  0
  -23.2352  -27.3226   23.7718 C   0  0  0  0  0  0  0  0  0  0  0  0
  -24.7397  -26.7792   21.2846 C   0  0  0  0  0  0  0  0  0  0  0  0
  -25.4887  -20.0448   22.7031 C   0  0  0  0  0  0  0  0  0  0  0  0
  -20.2305  -32.2288   22.7268 C   0  0  0  0  0  0  0  0  0  0  0  0
  -29.8201  -11.5718   19.5580 C   0  0  0  0  0  0  0  0  0  0  0  0
  -20.4587  -31.3333   21.5133 C   0  0  0  0  0  0  0  0  0  0  0  0
  -28.2913  -11.5557   19.6421 C   0  0  0  0  0  0  0  0  0  0  0  0
  -25.2362  -19.7287   19.7907 C   0  0  0  0  0  0  0  0  0  0  0  0
  -30.3417  -12.8779   18.9606 C   0  0  0  0  0  0  0  0  0  0  0  0
  -26.5758  -20.0492   20.4491 C   0  0  0  0  0  0  0  0  0  0  0  0
  -28.3214  -14.0818   19.6864 C   0  0  0  0  0  0  0  0  0  0  0  0
  -20.2850  -29.8541   21.8787 C   0  0  1  0  0  0  0  0  0  0  0  0
  -23.6799  -28.4461   22.8405 C   0  0  1  0  0  0  0  0  0  0  0  0
  -27.7502  -12.8162   20.3462 C   0  0  1  0  0  0  0  0  0  0  0  0
  -24.0284  -20.2900   20.5588 C   0  0  1  0  0  0  0  0  0  0  0  0
  -22.7403  -19.7235   19.9396 C   0  0  0  0  0  0  0  0  0  0  0  0
  -30.8830  -26.6805   21.5221 C   0  0  0  0  0  0  0  0  0  0  0  0
  -26.3354  -30.7216   19.2803 C   0  0  0  0  0  0  0  0  0  0  0  0
  -28.4492  -29.4316   18.9114 C   0  0  0  0  0  0  0  0  0  0  0  0
  -28.1610  -30.7825   20.9886 C   0  0  0  0  0  0  0  0  0  0  0  0
  -28.2452  -23.9406   21.6277 C   0  0  0  0  0  0  0  0  0  0  0  0
  -23.9725  -21.8227   20.5028 C   0  0  0  0  0  0  0  0  0  1  0  0
  -26.8518  -28.6372   20.7137 C   0  0  1  0  0  0  0  0  0  0  0  0
  -29.4887  -26.1050   21.7159 C   0  0  2  0  0  0  0  0  0  0  0  0
  -27.4243  -29.8798   19.9751 C   0  0  0  0  0  0  0  0  0  0  0  0
  -25.5627  -13.4448   19.3973 N   0  0  0  0  0  0  0  0  0  0  0  0
  -26.2339  -12.8335   20.3883 N   0  0  0  0  0  0  0  0  0  0  0  0
  -26.5756  -19.5862   21.8402 N   0  0  1  0  0  0  0  0  0  0  0  0
  -24.8148  -28.0653   21.9972 N   0  0  0  0  0  0  0  0  0  0  0  0
  -29.7908  -14.0222   19.6888 N   0  0  0  0  0  0  0  0  0  0  0  0
  -25.9392  -11.6329   22.4088 N   0  0  0  0  0  0  0  0  0  0  0  0
  -22.3658  -10.9350   21.3424 N   0  0  0  0  0  0  0  0  0  0  0  0
  -30.0372  -15.9513   21.0385 N   0  0  0  0  0  0  0  0  0  0  0  0
  -21.4565  -29.3640   22.5728 N   0  0  0  0  0  0  0  0  0  0  0  0
  -27.8574  -27.8363   21.4035 N   0  0  0  0  0  0  0  0  0  0  0  0
  -29.5443  -24.6394   21.4513 N   0  3  0  0  0  0  0  0  0  0  0  0
  -23.1811  -19.4441   22.6628 O   0  0  0  0  0  0  0  0  0  0  0  0
  -31.9263  -16.9980   21.9145 O   0  0  0  0  0  0  0  0  0  0  0  0
  -22.4111  -12.9096   22.5077 O   0  0  0  0  0  0  0  0  0  0  0  0
  -22.7509  -28.8475   20.7073 O   0  0  0  0  0  0  0  0  0  0  0  0
  -25.9129  -30.0946   22.3325 O   0  0  0  0  0  0  0  0  0  0  0  0
  -28.2770  -26.3847   19.6446 O   0  0  0  0  0  0  0  0  0  0  0  0
  -31.8902  -14.7824   20.3190 O   0  0  0  0  0  0  0  0  0  0  0  0
  -20.1983  -15.3137   16.5203 O   0  0  0  0  0  0  0  0  0  0  0  0
  -22.8336  -22.2734   21.2349 O   0  0  0  0  0  0  0  0  0  1  0  0
  -19.3045  -20.7529   16.6596 F   0  0  0  0  0  0  0  0  0  0  0  0
  -17.7484  -16.3288   17.3013 F   0  0  0  0  0  0  0  0  0  0  0  0
  1  2  1  0  0  0  0
  1  7  2  0  0  0  0
  2  8  2  0  0  0  0
  3  6  1  0  0  0  0
  3 10  2  0  0  0  0
  4 11  2  0  0  0  0
  4 19  1  0  0  0  0
  5 12  1  0  0  0  0
  5 19  2  0  0  0  0
  6 20  2  0  0  0  0
  7 22  1  0  0  0  0
  8 24  1  0  0  0  0
  9 13  2  0  0  0  0
  9 23  1  0  0  0  0
 10 26  1  0  0  0  0
 11 27  1  0  0  0  0
 12 27  2  0  0  0  0
 13 28  1  0  0  0  0
 14 15  2  0  0  0  0
 14 29  1  0  0  0  0
 15 30  1  0  0  0  0
 16 20  1  0  0  0  0
 16 26  2  0  0  0  0
 17 25  1  0  0  0  0
 17 28  2  0  0  0  0
 18 30  2  0  0  0  0
 18 31  1  0  0  0  0
 19 32  1  0  0  0  0
 20 35  1  0  0  0  0
 21 32  1  0  0  0  0
 21 33  2  0  0  0  0
 21 36  1  0  0  0  0
 22 24  2  0  0  0  0
 22 41  1  0  0  0  0
 23 25  2  0  0  0  0
 23 42  1  0  0  0  0
 24 53  1  0  0  0  0
 25 43  1  0  0  0  0
 26 69  1  0  0  0  0
 27 85  1  0  0  0  0
 28 86  1  0  0  0  0
 29 31  2  0  0  0  0
 29 85  1  0  0  0  0
 30 87  1  0  0  0  0
 31 88  1  0  0  0  0
 32 67  2  0  0  0  0
 33 68  1  0  0  0  0
 33 72  1  0  0  0  0
 34 44  1  0  0  0  0
 34 56  1  0  0  0  0
 34 78  2  0  0  0  0
 35 74  1  0  0  0  0
 35 79  2  0  0  0  0
 36 73  1  0  0  0  0
 36 80  2  0  0  0  0
 37 54  1  0  0  0  0
 37 75  1  0  0  0  0
 37 81  2  0  0  0  0
 38 64  1  0  0  0  0
 38 70  1  0  0  0  0
 38 82  2  0  0  0  0
 39 65  1  0  0  0  0
 39 76  1  0  0  0  0
 39 83  2  0  0  0  0
 40 71  1  0  0  0  0
 40 74  1  0  0  0  0
 40 84  2  0  0  0  0
 41 45  1  0  0  0  0
 42 54  1  0  0  0  0
 43 70  1  0  0  0  0
 44 69  1  0  0  0  0
 45 47  1  0  0  0  0
 46 48  1  0  0  0  0
 46 50  1  0  0  0  0
 47 53  1  0  0  0  0
 48 55  1  0  0  0  0
 49 51  1  0  0  0  0
 49 56  1  0  0  0  0
 50 71  1  0  0  0  0
 51 69  1  0  0  0  0
 52 55  1  0  0  0  0
 52 71  1  0  0  0  0
 53 75  1  0  0  0  0
 54 70  1  0  0  0  0
 55 68  1  0  0  0  0
 56 57  1  0  0  0  0
 56 63  1  0  0  0  0
 58 65  1  0  0  0  0
 59 66  1  0  0  0  0
 60 66  1  0  0  0  0
 61 66  1  0  0  0  0
 62 77  1  0  0  0  0
 63 86  1  0  0  0  0
 64 66  1  0  0  0  0
 64 76  1  0  0  0  0
 65 77  1  0  0  0  0
 67 68  1  0  0  0  0
M  CHG  1  77   1
M  ISO  4  40 100  63 101  74 100  86 101
M  END
> <Batch ID>
0076

> <Smiles>
CNC(C)C(=O)NC(C(=O)N1Cc2cc([101O:1][101CH2:1]C3(C)CCN(c4cccc(C(=O)[100NH:0][100C:0](=O)N5CCCC(n6nc(-c7ccc(Oc8ccc(F)cc8F)cc7)c(C(N)=O)c6N)C5)c4)CC3=O)ccc2CC1C(=O)NC1CCCc2ccccc21)C(C)(C)C

> <Shape>
0.224

> <Color>
0.108

> <Negative vol penalty>
0.000

$$$$

  -OEChem-04042323503D

 90 99  0     1  0  0  0  0  0999 V2000
  -20.6185   -9.1911   18.5250 C   0  0  0  0  0  0  0  0  0  0  0  0
  -20.3719  -10.5157   18.8715 C   0  0  0  0  0  0  0  0  0  0  0  0
  -24.1563  -31.3344   21.8159 C   0  0  0  0  0  0  0  0  0  0  0  0
  -25.5964  -30.1277   23.3348 C   0  0  0  0  0  0  0  0  0  0  0  0
  -21.6375   -8.4834   19.1613 C   0  0  0  0  0  0  0  0  0  0  0  0
  -21.1436  -11.1331   19.8552 C   0  0  0  0  0  0  0  0  0  0  0  0
  -22.8664  -17.0073   20.0352 C   0  0  0  0  0  0  0  0  0  0  0  0
  -26.3244  -22.3867   21.8149 C   0  0  0  0  0  0  0  0  0  0  0  0
  -27.6688  -22.6806   21.5870 C   0  0  0  0  0  0  0  0  0  0  0  0
  -24.1822  -32.4383   22.6682 C   0  0  0  0  0  0  0  0  0  0  0  0
  -25.6223  -31.2316   24.1872 C   0  0  0  0  0  0  0  0  0  0  0  0
  -22.3574  -18.1137   20.7138 C   0  0  0  0  0  0  0  0  0  0  0  0
  -24.1618  -35.7022   24.2686 C   0  0  0  0  0  0  0  0  0  0  0  0
  -24.3528  -36.9596   23.6957 C   0  0  0  0  0  0  0  0  0  0  0  0
  -25.7064  -24.5700   20.9854 C   0  0  0  0  0  0  0  0  0  0  0  0
  -23.9763  -17.7739   22.4696 C   0  0  0  0  0  0  0  0  0  0  0  0
  -26.4849  -36.2364   22.8193 C   0  0  0  0  0  0  0  0  0  0  0  0
  -24.8633  -30.1791   22.1492 C   0  0  0  0  0  0  0  0  0  0  0  0
  -27.0508  -24.8640   20.7575 C   0  0  0  0  0  0  0  0  0  0  0  0
  -23.7062  -28.3029   20.8654 C   0  0  0  0  0  0  0  0  0  0  0  0
  -22.4284   -9.0955   20.1464 C   0  0  0  0  0  0  0  0  0  0  0  0
  -23.9288  -16.2681   20.5748 C   0  0  0  0  0  0  0  0  0  0  0  0
  -22.1733  -10.4326   20.5061 C   0  0  0  0  0  0  0  0  0  0  0  0
  -24.4986  -16.6601   21.7946 C   0  0  0  0  0  0  0  0  0  0  0  0
  -25.3432  -23.3314   21.5140 C   0  0  0  0  0  0  0  0  0  0  0  0
  -28.0320  -23.9192   21.0583 C   0  0  0  0  0  0  0  0  0  0  0  0
  -24.9152  -32.3869   23.8538 C   0  0  0  0  0  0  0  0  0  0  0  0
  -22.9104  -18.4954   21.9326 C   0  0  0  0  0  0  0  0  0  0  0  0
  -25.1324  -34.7120   24.1169 C   0  0  0  0  0  0  0  0  0  0  0  0
  -25.5143  -37.2266   22.9710 C   0  0  0  0  0  0  0  0  0  0  0  0
  -26.2939  -34.9790   23.3922 C   0  0  0  0  0  0  0  0  0  0  0  0
  -24.8365  -29.0383   21.2695 C   0  0  0  0  0  0  0  0  0  0  0  0
  -24.2083  -27.3290   20.0372 C   0  0  0  0  0  0  0  0  0  0  0  0
  -22.9134  -23.5498   21.0031 C   0  0  0  0  0  0  0  0  0  0  0  0
  -23.5135  -22.1943   22.7676 C   0  0  0  0  0  0  0  0  0  0  0  0
  -27.3973  -26.1683   20.2066 C   0  0  0  0  0  0  0  0  0  0  0  0
  -22.3258  -28.4839   21.2078 C   0  0  0  0  0  0  0  0  0  0  0  0
  -24.3076  -13.2647   21.5441 C   0  0  0  0  0  0  0  0  0  0  0  0
  -27.4036  -14.1736   21.8774 C   0  0  0  0  0  0  0  0  0  0  0  0
  -29.6470  -16.7046   22.3334 C   0  0  0  0  0  0  0  0  0  0  0  0
  -29.8885  -25.0574   19.8138 C   0  0  0  0  0  0  0  0  0  0  0  0
  -23.4876   -8.2758   20.8398 C   0  0  0  0  0  0  0  0  0  0  0  0
  -24.4840  -15.0932   19.8174 C   0  0  0  0  0  0  0  0  0  0  0  0
  -25.6537  -15.9123   22.4069 C   0  0  0  0  0  0  0  0  0  0  0  0
  -21.6295  -23.1350   21.6664 C   0  0  0  0  0  0  0  0  0  0  0  0
  -24.5045   -9.1175   21.6064 C   0  0  0  0  0  0  0  0  0  0  0  0
  -27.8315  -26.4184   17.0553 C   0  0  0  0  0  0  0  0  0  0  0  0
  -23.7969  -10.1799   22.4415 C   0  0  0  0  0  0  0  0  0  0  0  0
  -26.7842  -27.2514   17.7921 C   0  0  0  0  0  0  0  0  0  0  0  0
  -29.1413  -26.3382   17.8335 C   0  0  0  0  0  0  0  0  0  0  0  0
  -27.9255  -26.6649   19.9681 C   0  0  0  0  0  0  0  0  0  0  0  0
  -23.0050  -11.1447   21.5508 C   0  0  1  0  0  0  0  0  0  0  0  0
  -25.2309  -14.1063   20.7093 C   0  0  1  0  0  0  0  0  0  0  0  0
  -26.5834  -26.7273   19.2236 C   0  0  1  0  0  0  0  0  0  0  0  0
  -22.0310  -21.9539   22.5458 C   0  0  2  0  0  0  0  0  0  0  0  0
  -27.6622  -27.2795   21.1782 C   0  0  0  0  0  0  0  0  0  0  0  0
  -21.2618  -21.9438   23.8647 C   0  0  0  0  0  0  0  0  0  0  0  0
  -32.1047  -17.1335   22.6041 C   0  0  0  0  0  0  0  0  0  0  0  0
  -27.2620  -13.1573   24.7509 C   0  0  0  0  0  0  0  0  0  0  0  0
  -29.3532  -14.4456   25.2359 C   0  0  0  0  0  0  0  0  0  0  0  0
  -29.3864  -12.6050   23.5526 C   0  0  0  0  0  0  0  0  0  0  0  0
  -30.4145  -23.3681   21.5171 C   0  0  0  0  0  0  0  0  0  0  0  0
  -29.7403  -18.3833   19.8979 C   0  0  0  0  0  0  0  0  0  0  0  0
  -21.8531  -20.6221   21.8079 C   0  0  0  0  0  0  0  0  0  1  0  0
  -28.2262  -14.7794   22.9888 C   0  0  1  0  0  0  0  0  0  0  0  0
  -30.9463  -17.0390   21.6233 C   0  0  2  0  0  0  0  0  0  0  0  0
  -28.5339  -13.7600   24.1217 C   0  0  0  0  0  0  0  0  0  0  0  0
  -25.9712  -28.5715   20.7417 N   0  0  0  0  0  0  0  0  0  0  0  0
  -25.5564  -27.5321   19.9975 N   0  0  0  0  0  0  0  0  0  0  0  0
  -23.9632  -23.0292   21.7489 N   0  0  0  0  0  0  0  0  0  0  0  0
  -26.1572  -14.7667   21.6312 N   0  0  0  0  0  0  0  0  0  0  0  0
  -28.9273  -25.8955   19.2122 N   0  0  0  0  0  0  0  0  0  0  0  0
  -23.6238  -26.3271   19.3465 N   0  0  0  0  0  0  0  0  0  0  0  0
  -21.8242  -27.8188   22.3350 N   0  0  0  0  0  0  0  0  0  0  0  0
  -23.8940  -12.1003   20.9254 N   0  0  0  0  0  0  0  0  0  0  0  0
  -29.4125  -15.3460   22.3563 N   0  0  0  0  0  0  0  0  0  0  0  0
  -29.4285  -24.2013   20.8324 N   0  0  0  0  0  0  0  0  0  0  0  0
  -30.8265  -18.3423   20.9105 N   0  3  0  0  0  0  0  0  0  0  0  0
  -22.9328  -24.2291   19.9857 O   0  0  0  0  0  0  0  0  0  0  0  0
  -24.1366  -21.7101   23.7037 O   0  0  0  0  0  0  0  0  0  0  0  0
  -27.4831  -26.4240   19.0056 O   0  0  0  0  0  0  0  0  0  0  0  0
  -21.5557  -29.2009   20.5249 O   0  0  0  0  0  0  0  0  0  0  0  0
  -23.9948  -13.6429   22.6669 O   0  0  0  0  0  0  0  0  0  0  0  0
  -27.8534  -13.2140   21.2461 O   0  0  0  0  0  0  0  0  0  0  0  0
  -28.9152  -17.5624   22.8224 O   0  0  0  0  0  0  0  0  0  0  0  0
  -31.0854  -25.1071   19.5045 O   0  0  0  0  0  0  0  0  0  0  0  0
  -24.9410  -33.4639   24.6856 O   0  0  0  0  0  0  0  0  0  0  0  0
  -22.4151  -19.5746   22.5974 O   0  0  0  0  0  0  0  0  0  1  0  0
  -25.6969  -38.4336   22.4196 F   0  0  0  0  0  0  0  0  0  0  0  0
  -27.2294  -34.0313   23.2421 F   0  0  0  0  0  0  0  0  0  0  0  0
  1  2  1  0  0  0  0
  1  5  2  0  0  0  0
  2  6  2  0  0  0  0
  3 10  2  0  0  0  0
  3 18  1  0  0  0  0
  4 11  1  0  0  0  0
  4 18  2  0  0  0  0
  5 21  1  0  0  0  0
  6 23  1  0  0  0  0
  7 12  2  0  0  0  0
  7 22  1  0  0  0  0
  8  9  2  0  0  0  0
  8 25  1  0  0  0  0
  9 26  1  0  0  0  0
 10 27  1  0  0  0  0
 11 27  2  0  0  0  0
 12 28  1  0  0  0  0
 13 14  2  0  0  0  0
 13 29  1  0  0  0  0
 14 30  1  0  0  0  0
 15 19  1  0  0  0  0
 15 25  2  0  0  0  0
 16 24  1  0  0  0  0
 16 28  2  0  0  0  0
 17 30  2  0  0  0  0
 17 31  1  0  0  0  0
 18 32  1  0  0  0  0
 19 26  2  0  0  0  0
 19 36  1  0  0  0  0
 20 32  1  0  0  0  0
 20 33  2  0  0  0  0
 20 37  1  0  0  0  0
 21 23  2  0  0  0  0
 21 42  1  0  0  0  0
 22 24  2  0  0  0  0
 22 43  1  0  0  0  0
 23 52  1  0  0  0  0
 24 44  1  0  0  0  0
 25 70  1  0  0  0  0
 26 77  1  0  0  0  0
 27 87  1  0  0  0  0
 28 88  1  0  0  0  0
 29 31  2  0  0  0  0
 29 87  1  0  0  0  0
 30 89  1  0  0  0  0
 31 90  1  0  0  0  0
 32 68  2  0  0  0  0
 33 69  1  0  0  0  0
 33 73  1  0  0  0  0
 34 45  1  0  0  0  0
 34 70  1  0  0  0  0
 34 79  2  0  0  0  0
 35 55  1  0  0  0  0
 35 70  1  0  0  0  0
 35 80  2  0  0  0  0
 36 56  1  0  0  0  0
 36 81  2  0  0  0  0
 37 74  1  0  0  0  0
 37 82  2  0  0  0  0
 38 53  1  0  0  0  0
 38 75  1  0  0  0  0
 38 83  2  0  0  0  0
 39 65  1  0  0  0  0
 39 71  1  0  0  0  0
 39 84  2  0  0  0  0
 40 66  1  0  0  0  0
 40 76  1  0  0  0  0
 40 85  2  0  0  0  0
 41 72  1  0  0  0  0
 41 77  1  0  0  0  0
 41 86  2  0  0  0  0
 42 46  1  0  0  0  0
 43 53  1  0  0  0  0
 44 71  1  0  0  0  0
 45 55  1  0  0  0  0
 46 48  1  0  0  0  0
 47 49  1  0  0  0  0
 47 50  1  0  0  0  0
 48 52  1  0  0  0  0
 49 54  1  0  0  0  0
 50 72  1  0  0  0  0
 51 54  1  0  0  0  0
 51 72  1  0  0  0  0
 52 75  1  0  0  0  0
 53 71  1  0  0  0  0
 54 69  1  0  0  0  0
 55 57  1  0  0  0  0
 55 64  1  0  0  0  0
 58 66  1  0  0  0  0
 59 67  1  0  0  0  0
 60 67  1  0  0  0  0
 61 67  1  0  0  0  0
 62 77  1  0  0  0  0
 63 78  1  0  0  0  0
 64 88  1  0  0  0  0
 65 67  1  0  0  0  0
 65 76  1  0  0  0  0
 66 78  1  0  0  0  0
 68 69  1  0  0  0  0
M  CHG  1  78   1
M  ISO  4  41 100  64 101  77 100  88 101
M  END
> <Batch ID>
0076

> <Smiles>
CNC(C)C(=O)NC(C(=O)N1Cc2cc([101O:1][101CH2:1]C3(C)CC(=O)N(c4ccc([100N:0](C)[100C:0](=O)N5CCCC(n6nc(-c7ccc(Oc8ccc(F)cc8F)cc7)c(C(N)=O)c6N)C5)c(C(C)=O)c4)C3=O)ccc2CC1C(=O)NC1CCCc2ccccc21)C(C)(C)C

> <Shape>
0.274

> <Color>
0.039

> <Negative vol penalty>
0.000

$$$$

  -OEChem-04042323503D

 87 95  0     1  0  0  0  0  0999 V2000
  -18.8099  -26.2701   23.2146 C   0  0  0  0  0  0  0  0  0  0  0  0
  -19.9074  -25.8373   22.4773 C   0  0  0  0  0  0  0  0  0  0  0  0
  -22.9511  -10.3083   19.9939 C   0  0  0  0  0  0  0  0  0  0  0  0
  -23.9697   -9.6891   22.0954 C   0  0  0  0  0  0  0  0  0  0  0  0
  -18.3309  -27.5693   23.0519 C   0  0  0  0  0  0  0  0  0  0  0  0
  -20.5258  -26.7032   21.5760 C   0  0  0  0  0  0  0  0  0  0  0  0
  -25.5772  -26.5707   21.9091 C   0  0  0  0  0  0  0  0  0  0  0  0
  -22.1504   -9.1674   20.0458 C   0  0  0  0  0  0  0  0  0  0  0  0
  -23.1689   -8.5482   22.1473 C   0  0  0  0  0  0  0  0  0  0  0  0
  -26.2269  -25.4932   21.3085 C   0  0  0  0  0  0  0  0  0  0  0  0
  -23.1236   -5.4705   20.7483 C   0  0  0  0  0  0  0  0  0  0  0  0
  -23.7331   -4.2665   21.1007 C   0  0  0  0  0  0  0  0  0  0  0  0
  -26.7579  -26.8805   19.4078 C   0  0  0  0  0  0  0  0  0  0  0  0
  -22.2606   -4.0789   23.0070 C   0  0  0  0  0  0  0  0  0  0  0  0
  -23.8608  -10.5692   21.0187 C   0  0  0  0  0  0  0  0  0  0  0  0
  -24.3896  -13.0207   21.4857 C   0  0  0  0  0  0  0  0  0  0  0  0
  -18.9497  -28.4547   22.1553 C   0  0  0  0  0  0  0  0  0  0  0  0
  -25.5035  -27.8103   21.2576 C   0  0  0  0  0  0  0  0  0  0  0  0
  -20.0538  -28.0150   21.4003 C   0  0  0  0  0  0  0  0  0  0  0  0
  -26.1090  -27.9729   20.0034 C   0  0  0  0  0  0  0  0  0  0  0  0
  -22.2592   -8.2873   21.1225 C   0  0  0  0  0  0  0  0  0  0  0  0
  -26.8149  -25.6472   20.0564 C   0  0  0  0  0  0  0  0  0  0  0  0
  -22.0826   -5.9789   21.5253 C   0  0  0  0  0  0  0  0  0  0  0  0
  -23.3017   -3.5707   22.2300 C   0  0  0  0  0  0  0  0  0  0  0  0
  -21.6511   -5.2831   22.6545 C   0  0  0  0  0  0  0  0  0  0  0  0
  -24.6886  -11.7473   20.9653 C   0  0  0  0  0  0  0  0  0  0  0  0
  -25.4893  -13.7840   21.1786 C   0  0  0  0  0  0  0  0  0  0  0  0
  -28.0130  -19.1162   18.7813 C   0  0  0  0  0  0  0  0  0  0  0  0
  -28.0032  -17.4663   16.8091 C   0  0  0  0  0  0  0  0  0  0  0  0
  -23.2221  -13.4730   22.1844 C   0  0  0  0  0  0  0  0  0  0  0  0
  -23.1390  -29.6393   20.1772 C   0  0  0  0  0  0  0  0  0  0  0  0
  -26.7017  -20.9803   18.8817 C   0  0  0  0  0  0  0  0  0  0  0  0
  -25.5467  -31.7341   19.5964 C   0  0  0  0  0  0  0  0  0  0  0  0
  -28.8713  -32.2374   19.0130 C   0  0  0  0  0  0  0  0  0  0  0  0
  -29.1237  -15.3121   17.2004 C   0  0  0  0  0  0  0  0  0  0  0  0
  -18.3669  -29.8345   21.9790 C   0  0  0  0  0  0  0  0  0  0  0  0
  -24.8222  -28.9701   21.9307 C   0  0  0  0  0  0  0  0  0  0  0  0
  -26.0754  -29.2886   19.2712 C   0  0  0  0  0  0  0  0  0  0  0  0
  -19.3100  -30.8091   21.2784 C   0  0  0  0  0  0  0  0  0  0  0  0
  -30.0431  -12.4760   19.4454 C   0  0  0  0  0  0  0  0  0  0  0  0
  -19.9304  -30.1588   20.0458 C   0  0  0  0  0  0  0  0  0  0  0  0
  -28.6795  -12.1075   20.0262 C   0  0  0  0  0  0  0  0  0  0  0  0
  -29.9125  -13.0475   18.0382 C   0  0  0  0  0  0  0  0  0  0  0  0
  -28.6713  -16.7862   19.1033 C   0  0  0  0  0  0  0  0  0  0  0  0
  -27.6215  -13.8573   18.5282 C   0  0  0  0  0  0  0  0  0  0  0  0
  -20.7668  -28.9327   20.4310 C   0  0  1  0  0  0  0  0  0  0  0  0
  -29.0890  -18.2277   19.3577 C   0  0  1  0  0  0  0  0  0  0  0  0
  -24.3625  -30.0442   20.9497 C   0  0  1  0  0  0  0  0  0  0  0  0
  -27.7138  -13.3023   19.9591 C   0  0  1  0  0  0  0  0  0  0  0  0
  -27.3436  -18.6951   17.4714 C   0  0  0  0  0  0  0  0  0  0  0  0
  -30.4522  -18.5811   18.7741 C   0  0  0  0  0  0  0  0  0  0  0  0
  -27.3998  -19.8706   16.4776 C   0  0  0  0  0  0  0  0  0  0  0  0
  -25.8777  -18.3344   17.7555 C   0  0  0  0  0  0  0  0  0  0  0  0
  -30.5348  -34.0552   18.5379 C   0  0  0  0  0  0  0  0  0  0  0  0
  -24.5420  -31.8983   16.7200 C   0  0  0  0  0  0  0  0  0  0  0  0
  -26.7330  -32.9315   16.0873 C   0  0  0  0  0  0  0  0  0  0  0  0
  -25.2329  -34.0884   17.7104 C   0  0  0  0  0  0  0  0  0  0  0  0
  -30.4007  -31.6412   21.4756 C   0  0  0  0  0  0  0  0  0  0  0  0
  -26.9677  -23.2904   19.7769 C   0  0  0  0  0  0  0  0  0  1  0  0
  -26.4703  -32.0056   18.4335 C   0  0  1  0  0  0  0  0  0  0  0  0
  -29.8624  -33.2175   19.6144 C   0  0  2  0  0  0  0  0  0  0  0  0
  -27.1871  -22.3819   18.5808 C   0  0  0  0  0  0  0  0  0  0  0  0
  -25.7437  -32.7055   17.2505 C   0  0  0  0  0  0  0  0  0  0  0  0
  -25.8846  -11.7004   20.3724 N   0  0  0  0  0  0  0  0  0  0  0  0
  -27.6843  -20.1886   19.4284 N   0  0  0  0  0  0  0  0  0  0  0  0
  -26.3467  -12.9539   20.5183 N   0  0  0  0  0  0  0  0  0  0  0  0
  -28.5002  -16.4817   17.6826 N   0  0  0  0  0  0  0  0  0  0  0  0
  -25.3920  -30.3910   19.9679 N   0  0  0  0  0  0  0  0  0  0  0  0
  -28.9495  -14.1567   17.9873 N   0  0  0  0  0  0  0  0  0  0  0  0
  -25.7969  -15.0777   21.4115 N   0  0  0  0  0  0  0  0  0  0  0  0
  -22.1859  -12.5582   22.4163 N   0  0  0  0  0  0  0  0  0  0  0  0
  -22.0463  -29.3424   20.9692 N   0  0  0  0  0  0  0  0  0  0  0  0
  -27.5960  -32.7601   18.9739 N   0  0  0  0  0  0  0  0  0  0  0  0
  -30.9192  -32.4874   20.3702 N   0  3  0  0  0  0  0  0  0  0  0  0
  -28.0447  -17.3582   15.5803 O   0  0  0  0  0  0  0  0  0  0  0  0
  -23.0944  -14.6577   22.5766 O   0  0  0  0  0  0  0  0  0  0  0  0
  -23.1827  -29.6007   18.9531 O   0  0  0  0  0  0  0  0  0  0  0  0
  -25.5338  -20.6640   18.6599 O   0  0  0  0  0  0  0  0  0  0  0  0
  -24.9888  -32.6794   20.1591 O   0  0  0  0  0  0  0  0  0  0  0  0
  -29.1967  -31.1214   18.6142 O   0  0  0  0  0  0  0  0  0  0  0  0
  -29.7458  -15.3050   16.1322 O   0  0  0  0  0  0  0  0  0  0  0  0
  -21.4779   -7.1740   21.1736 O   0  0  0  0  0  0  0  0  0  0  0  0
  -27.4535  -24.5895   19.4635 O   0  0  0  0  0  0  0  0  0  1  0  0
  -23.8861   -2.4136   22.5675 F   0  0  0  0  0  0  0  0  0  0  0  0
  -20.6507   -5.7658   23.4042 F   0  0  0  0  0  0  0  0  0  0  0  0
  -26.5260  -22.8965   17.5086 F   0  0  0  0  0  0  0  0  0  0  0  0
  -28.5075  -22.3872   18.2536 F   0  0  0  0  0  0  0  0  0  0  0  0
  1  2  1  0  0  0  0
  1  5  2  0  0  0  0
  2  6  2  0  0  0  0
  3  8  2  0  0  0  0
  3 15  1  0  0  0  0
  4  9  1  0  0  0  0
  4 15  2  0  0  0  0
  5 17  1  0  0  0  0
  6 19  1  0  0  0  0
  7 10  2  0  0  0  0
  7 18  1  0  0  0  0
  8 21  1  0  0  0  0
  9 21  2  0  0  0  0
 10 22  1  0  0  0  0
 11 12  2  0  0  0  0
 11 23  1  0  0  0  0
 12 24  1  0  0  0  0
 13 20  1  0  0  0  0
 13 22  2  0  0  0  0
 14 24  2  0  0  0  0
 14 25  1  0  0  0  0
 15 26  1  0  0  0  0
 16 26  1  0  0  0  0
 16 27  2  0  0  0  0
 16 30  1  0  0  0  0
 17 19  2  0  0  0  0
 17 36  1  0  0  0  0
 18 20  2  0  0  0  0
 18 37  1  0  0  0  0
 19 46  1  0  0  0  0
 20 38  1  0  0  0  0
 21 82  1  0  0  0  0
 22 83  1  0  0  0  0
 23 25  2  0  0  0  0
 23 82  1  0  0  0  0
 24 84  1  0  0  0  0
 25 85  1  0  0  0  0
 26 64  2  0  0  0  0
 27 66  1  0  0  0  0
 27 70  1  0  0  0  0
 28 47  1  0  0  0  0
 28 50  1  0  0  0  0
 28 65  2  0  0  0  0
 29 50  1  0  0  0  0
 29 67  1  0  0  0  0
 29 75  2  0  0  0  0
 30 71  1  0  0  0  0
 30 76  2  0  0  0  0
 31 48  1  0  0  0  0
 31 72  1  0  0  0  0
 31 77  2  0  0  0  0
 32 62  1  0  0  0  0
 32 65  1  0  0  0  0
 32 78  2  0  0  0  0
 33 60  1  0  0  0  0
 33 68  1  0  0  0  0
 33 79  2  0  0  0  0
 34 61  1  0  0  0  0
 34 73  1  0  0  0  0
 34 80  2  0  0  0  0
 35 67  1  0  0  0  0
 35 69  1  0  0  0  0
 35 81  2  0  0  0  0
 36 39  1  0  0  0  0
 37 48  1  0  0  0  0
 38 68  1  0  0  0  0
 39 41  1  0  0  0  0
 40 42  1  0  0  0  0
 40 43  1  0  0  0  0
 41 46  1  0  0  0  0
 42 49  1  0  0  0  0
 43 69  1  0  0  0  0
 44 47  1  0  0  0  0
 44 67  1  0  0  0  0
 45 49  1  0  0  0  0
 45 69  1  0  0  0  0
 46 72  1  0  0  0  0
 47 51  1  0  0  0  0
 48 68  1  0  0  0  0
 49 66  1  0  0  0  0
 50 52  1  0  0  0  0
 50 53  1  0  0  0  0
 54 61  1  0  0  0  0
 55 63  1  0  0  0  0
 56 63  1  0  0  0  0
 57 63  1  0  0  0  0
 58 74  1  0  0  0  0
 59 62  1  0  0  0  0
 59 83  1  0  0  0  0
 60 63  1  0  0  0  0
 60 73  1  0  0  0  0
 61 74  1  0  0  0  0
 62 86  1  0  0  0  0
 62 87  1  0  0  0  0
 64 66  1  0  0  0  0
M  CHG  1  74   1
M  ISO  4  35 100  59 101  67 100  83 101
M  END
> <Batch ID>
0076

> <Smiles>
CNC(C)C(=O)NC(C(=O)N1Cc2cc([101O:1][101CH2:1]C(F)(F)C(=O)NC3=C(C)C[100N:0]([100C:0](=O)N4CCCC(n5nc(-c6ccc(Oc7ccc(F)cc7F)cc6)c(C(N)=O)c5N)C4)C(=O)C3(C)C)ccc2CC1C(=O)NC1CCCc2ccccc21)C(C)(C)C

> <Shape>
0.275

> <Color>
0.139

> <Negative vol penalty>
0.000

$$$$

  -OEChem-04042323503D

 85 93  0     1  0  0  0  0  0999 V2000
  -29.9040  -35.4610   17.9375 C   0  0  0  0  0  0  0  0  0  0  0  0
  -30.1774  -34.1127   18.1440 C   0  0  0  0  0  0  0  0  0  0  0  0
  -24.3326   -9.3587   22.4157 C   0  0  0  0  0  0  0  0  0  0  0  0
  -23.4227  -11.5200   22.9973 C   0  0  0  0  0  0  0  0  0  0  0  0
  -27.5913  -19.6288   22.1741 C   0  0  0  0  0  0  0  0  0  0  0  0
  -30.0022  -19.4807   22.1212 C   0  0  0  0  0  0  0  0  0  0  0  0
  -28.9656  -36.1113   18.7378 C   0  0  0  0  0  0  0  0  0  0  0  0
  -29.5134  -33.4141   19.1517 C   0  0  0  0  0  0  0  0  0  0  0  0
  -27.7786  -27.5419   19.0321 C   0  0  0  0  0  0  0  0  0  0  0  0
  -27.5014  -18.4006   21.5192 C   0  0  0  0  0  0  0  0  0  0  0  0
  -29.9123  -18.2524   21.4662 C   0  0  0  0  0  0  0  0  0  0  0  0
  -23.7791   -8.8139   23.5744 C   0  0  0  0  0  0  0  0  0  0  0  0
  -22.8692  -10.9752   24.1559 C   0  0  0  0  0  0  0  0  0  0  0  0
  -28.3507  -26.3840   19.5570 C   0  0  0  0  0  0  0  0  0  0  0  0
  -20.7450   -7.7546   24.6256 C   0  0  0  0  0  0  0  0  0  0  0  0
  -20.0838   -6.5314   24.5150 C   0  0  0  0  0  0  0  0  0  0  0  0
  -26.9356  -26.5735   21.5014 C   0  0  0  0  0  0  0  0  0  0  0  0
  -21.6365   -5.5502   26.0846 C   0  0  0  0  0  0  0  0  0  0  0  0
  -24.1544  -10.7118   22.1272 C   0  0  0  0  0  0  0  0  0  0  0  0
  -28.8417  -20.1689   22.4751 C   0  0  0  0  0  0  0  0  0  0  0  0
  -24.1249  -11.3638   19.6611 C   0  0  0  0  0  0  0  0  0  0  0  0
  -28.2827  -35.4180   19.7495 C   0  0  0  0  0  0  0  0  0  0  0  0
  -26.7867  -28.2316   19.7441 C   0  0  0  0  0  0  0  0  0  0  0  0
  -28.5660  -34.0561   19.9671 C   0  0  0  0  0  0  0  0  0  0  0  0
  -26.3507  -27.7386   20.9822 C   0  0  0  0  0  0  0  0  0  0  0  0
  -28.6619  -17.7124   21.1653 C   0  0  0  0  0  0  0  0  0  0  0  0
  -23.0474   -9.6221   24.4444 C   0  0  0  0  0  0  0  0  0  0  0  0
  -27.9313  -25.9012   20.7932 C   0  0  0  0  0  0  0  0  0  0  0  0
  -21.8520   -7.8756   25.4657 C   0  0  0  0  0  0  0  0  0  0  0  0
  -20.5295   -5.4292   25.2445 C   0  0  0  0  0  0  0  0  0  0  0  0
  -22.2977   -6.7734   26.1952 C   0  0  0  0  0  0  0  0  0  0  0  0
  -24.7264  -11.2753   20.9308 C   0  0  0  0  0  0  0  0  0  0  0  0
  -25.0710  -11.9746   18.8748 C   0  0  0  0  0  0  0  0  0  0  0  0
  -28.9370  -21.4693   23.1683 C   0  0  0  0  0  0  0  0  0  0  0  0
  -22.8269  -10.9326   19.2310 C   0  0  0  0  0  0  0  0  0  0  0  0
  -26.5376  -31.1434   20.9943 C   0  0  0  0  0  0  0  0  0  0  0  0
  -31.0686  -24.3509   22.6638 C   0  0  0  0  0  0  0  0  0  0  0  0
  -23.4900  -30.2039   21.5879 C   0  0  0  0  0  0  0  0  0  0  0  0
  -21.2918  -27.6394   22.0755 C   0  0  0  0  0  0  0  0  0  0  0  0
  -29.6235  -15.6528   20.0790 C   0  0  0  0  0  0  0  0  0  0  0  0
  -27.3114  -36.1752   20.6201 C   0  0  0  0  0  0  0  0  0  0  0  0
  -26.1606  -29.4644   19.1518 C   0  0  0  0  0  0  0  0  0  0  0  0
  -25.2747  -28.4307   21.7770 C   0  0  0  0  0  0  0  0  0  0  0  0
  -26.3783  -35.2707   21.4210 C   0  0  0  0  0  0  0  0  0  0  0  0
  -29.8118  -12.4961   18.4429 C   0  0  0  0  0  0  0  0  0  0  0  0
  -27.1653  -34.1440   22.0828 C   0  0  0  0  0  0  0  0  0  0  0  0
  -28.4719  -11.8354   18.7746 C   0  0  0  0  0  0  0  0  0  0  0  0
  -30.3432  -13.3202   19.6143 C   0  0  0  0  0  0  0  0  0  0  0  0
  -28.0626  -13.6494   20.4859 C   0  0  0  0  0  0  0  0  0  0  0  0
  -27.8482  -33.2580   21.0340 C   0  0  1  0  0  0  0  0  0  0  0  0
  -25.5226  -30.3723   20.1987 C   0  0  1  0  0  0  0  0  0  0  0  0
  -27.4558  -12.8613   19.3137 C   0  0  2  0  0  0  0  0  0  0  0  0
  -31.8270  -25.2307   23.6250 C   0  0  0  0  0  0  0  0  0  0  0  0
  -18.8754  -27.1847   22.5770 C   0  0  0  0  0  0  0  0  0  0  0  0
  -23.9519  -30.9782   24.5029 C   0  0  0  0  0  0  0  0  0  0  0  0
  -21.9169  -29.6500   25.1055 C   0  0  0  0  0  0  0  0  0  0  0  0
  -21.7133  -31.6240   23.5941 C   0  0  0  0  0  0  0  0  0  0  0  0
  -20.9211  -26.1687   19.5342 C   0  0  0  0  0  0  0  0  0  0  0  0
  -28.5556  -24.6704   22.7300 C   0  0  0  0  0  0  0  0  0  1  0  0
  -29.7361  -23.8053   23.1394 C   0  0  1  0  0  0  0  0  0  0  0  0
  -22.7894  -29.5062   22.7287 C   0  0  1  0  0  0  0  0  0  0  0  0
  -19.9203  -27.3626   21.4865 C   0  0  2  0  0  0  0  0  0  0  0  0
  -22.6145  -30.4274   23.9689 C   0  0  0  0  0  0  0  0  0  0  0  0
  -25.9593  -11.7886   20.9542 N   0  0  0  0  0  0  0  0  0  0  0  0
  -26.1402  -12.2055   19.6894 N   0  0  0  0  0  0  0  0  0  0  0  0
  -24.6978  -29.6357   21.1586 N   0  0  0  0  0  0  0  0  0  0  0  0
  -29.3283  -14.2731   20.0690 N   0  0  0  0  0  0  0  0  0  0  0  0
  -25.0843  -12.3313   17.5729 N   0  0  0  0  0  0  0  0  0  0  0  0
  -28.3813  -21.5800   24.3749 N   0  0  0  0  0  0  0  0  0  0  0  0
  -21.9808  -10.3235   20.1677 N   0  0  0  0  0  0  0  0  0  0  0  0
  -28.5707  -16.4647   20.5000 N   0  0  0  0  0  0  0  0  0  0  0  0
  -26.8895  -32.3560   20.4327 N   0  0  0  0  0  0  0  0  0  0  0  0
  -21.5371  -28.9919   22.1851 N   0  0  0  0  0  0  0  0  0  0  0  0
  -29.5735  -22.4736   22.5529 N   0  3  0  0  0  0  0  0  0  0  0  0
  -19.9523  -26.1233   20.6595 N   0  3  0  0  0  0  0  0  0  0  0  0
  -22.4354  -11.0681   18.0470 O   0  0  0  0  0  0  0  0  0  0  0  0
  -26.9684  -30.6738   22.0410 O   0  0  0  0  0  0  0  0  0  0  0  0
  -31.5254  -24.1021   21.5477 O   0  0  0  0  0  0  0  0  0  0  0  0
  -22.9808  -31.2117   21.0913 O   0  0  0  0  0  0  0  0  0  0  0  0
  -22.0664  -26.7454   22.4088 O   0  0  0  0  0  0  0  0  0  0  0  0
  -30.7198  -16.0846   19.7134 O   0  0  0  0  0  0  0  0  0  0  0  0
  -22.5069   -9.0908   25.5750 O   0  0  0  0  0  0  0  0  0  0  0  0
  -28.4886  -24.7715   21.3081 O   0  0  0  0  0  0  0  0  0  1  0  0
  -19.8935   -4.2551   25.1394 F   0  0  0  0  0  0  0  0  0  0  0  0
  -23.3599   -6.8838   27.0048 F   0  0  0  0  0  0  0  0  0  0  0  0
  1  2  1  0  0  0  0
  1  7  2  0  0  0  0
  2  8  2  0  0  0  0
  3 12  2  0  0  0  0
  3 19  1  0  0  0  0
  4 13  1  0  0  0  0
  4 19  2  0  0  0  0
  5 10  2  0  0  0  0
  5 20  1  0  0  0  0
  6 11  1  0  0  0  0
  6 20  2  0  0  0  0
  7 22  1  0  0  0  0
  8 24  1  0  0  0  0
  9 14  2  0  0  0  0
  9 23  1  0  0  0  0
 10 26  1  0  0  0  0
 11 26  2  0  0  0  0
 12 27  1  0  0  0  0
 13 27  2  0  0  0  0
 14 28  1  0  0  0  0
 15 16  2  0  0  0  0
 15 29  1  0  0  0  0
 16 30  1  0  0  0  0
 17 25  1  0  0  0  0
 17 28  2  0  0  0  0
 18 30  2  0  0  0  0
 18 31  1  0  0  0  0
 19 32  1  0  0  0  0
 20 34  1  0  0  0  0
 21 32  1  0  0  0  0
 21 33  2  0  0  0  0
 21 35  1  0  0  0  0
 22 24  2  0  0  0  0
 22 41  1  0  0  0  0
 23 25  2  0  0  0  0
 23 42  1  0  0  0  0
 24 50  1  0  0  0  0
 25 43  1  0  0  0  0
 26 71  1  0  0  0  0
 27 82  1  0  0  0  0
 28 83  1  0  0  0  0
 29 31  2  0  0  0  0
 29 82  1  0  0  0  0
 30 84  1  0  0  0  0
 31 85  1  0  0  0  0
 32 64  2  0  0  0  0
 33 65  1  0  0  0  0
 33 68  1  0  0  0  0
 34 69  1  0  0  0  0
 34 74  2  0  0  0  0
 35 70  1  0  0  0  0
 35 76  2  0  0  0  0
 36 51  1  0  0  0  0
 36 72  1  0  0  0  0
 36 77  2  0  0  0  0
 37 53  1  0  0  0  0
 37 60  1  0  0  0  0
 37 78  2  0  0  0  0
 38 61  1  0  0  0  0
 38 66  1  0  0  0  0
 38 79  2  0  0  0  0
 39 62  1  0  0  0  0
 39 73  1  0  0  0  0
 39 80  2  0  0  0  0
 40 67  1  0  0  0  0
 40 71  1  0  0  0  0
 40 81  2  0  0  0  0
 41 44  1  0  0  0  0
 42 51  1  0  0  0  0
 43 66  1  0  0  0  0
 44 46  1  0  0  0  0
 45 47  1  0  0  0  0
 45 48  1  0  0  0  0
 46 50  1  0  0  0  0
 47 52  1  0  0  0  0
 48 67  1  0  0  0  0
 49 52  1  0  0  0  0
 49 67  1  0  0  0  0
 50 72  1  0  0  0  0
 51 66  1  0  0  0  0
 52 65  1  0  0  0  0
 54 62  1  0  0  0  0
 55 63  1  0  0  0  0
 56 63  1  0  0  0  0
 57 63  1  0  0  0  0
 58 75  1  0  0  0  0
 59 60  1  0  0  0  0
 59 83  1  0  0  0  0
 60 74  1  0  0  0  0
 61 63  1  0  0  0  0
 61 73  1  0  0  0  0
 62 75  1  0  0  0  0
 64 65  1  0  0  0  0
M  CHG  2  74   1  75   1
M  ISO  4  40 100  59 101  71 100  83 101
M  END
> <Batch ID>
0076

> <Smiles>
CNC(C)C(=O)NC(C(=O)N1Cc2cc([101O:1][101CH2:1]C(NC(=N)c3ccc([100NH:0][100C:0](=O)N4CCCC(n5nc(-c6ccc(Oc7ccc(F)cc7F)cc6)c(C(N)=O)c5N)C4)cc3)C(C)=O)ccc2CC1C(=O)NC1CCCc2ccccc21)C(C)(C)C

> <Shape>
0.255

> <Color>
0.065

> <Negative vol penalty>
0.000

$$$$

  -OEChem-04042323503D

 86 95  0     1  0  0  0  0  0999 V2000
  -30.2063  -24.3896   18.3566 C   0  0  0  0  0  0  0  0  0  0  0  0
  -28.8227  -24.5315   18.3268 C   0  0  0  0  0  0  0  0  0  0  0  0
  -27.0990  -20.5821   19.8710 C   0  0  0  0  0  0  0  0  0  0  0  0
  -26.7076  -18.6823   21.3114 C   0  0  0  0  0  0  0  0  0  0  0  0
  -30.9343  -24.8907   19.4350 C   0  0  0  0  0  0  0  0  0  0  0  0
  -28.1661  -25.1738   19.3760 C   0  0  0  0  0  0  0  0  0  0  0  0
  -23.1746  -28.7007   18.9859 C   0  0  0  0  0  0  0  0  0  0  0  0
  -17.8555  -22.5298   21.3958 C   0  0  0  0  0  0  0  0  0  0  0  0
  -17.8936  -21.2437   21.9344 C   0  0  0  0  0  0  0  0  0  0  0  0
  -28.3862  -20.1153   19.6051 C   0  0  0  0  0  0  0  0  0  0  0  0
  -27.9948  -18.2155   21.0455 C   0  0  0  0  0  0  0  0  0  0  0  0
  -21.8233  -28.4420   19.2117 C   0  0  0  0  0  0  0  0  0  0  0  0
  -29.5808  -16.5687   18.5569 C   0  0  0  0  0  0  0  0  0  0  0  0
  -29.7304  -15.2114   18.2722 C   0  0  0  0  0  0  0  0  0  0  0  0
  -22.0381  -29.3083   21.4528 C   0  0  0  0  0  0  0  0  0  0  0  0
  -18.8996  -22.1175   23.9498 C   0  0  0  0  0  0  0  0  0  0  0  0
  -31.1988  -14.9740   20.1760 C   0  0  0  0  0  0  0  0  0  0  0  0
  -26.2596  -19.8656   20.7242 C   0  0  0  0  0  0  0  0  0  0  0  0
  -24.5761  -21.5776   21.5858 C   0  0  0  0  0  0  0  0  0  0  0  0
  -30.2872  -25.5480   20.4933 C   0  0  0  0  0  0  0  0  0  0  0  0
  -23.9716  -29.2560   19.9973 C   0  0  0  0  0  0  0  0  0  0  0  0
  -28.8859  -25.6831   20.4701 C   0  0  0  0  0  0  0  0  0  0  0  0
  -23.3986  -29.5755   21.2365 C   0  0  0  0  0  0  0  0  0  0  0  0
  -18.3394  -23.6098   22.1342 C   0  0  0  0  0  0  0  0  0  0  0  0
  -18.4156  -21.0376   23.2114 C   0  0  0  0  0  0  0  0  0  0  0  0
  -28.8341  -18.9320   20.1923 C   0  0  0  0  0  0  0  0  0  0  0  0
  -21.2556  -28.7431   20.4462 C   0  0  0  0  0  0  0  0  0  0  0  0
  -30.2403  -17.1286   19.6511 C   0  0  0  0  0  0  0  0  0  0  0  0
  -30.5394  -14.4141   19.0818 C   0  0  0  0  0  0  0  0  0  0  0  0
  -18.8614  -23.4036   23.4112 C   0  0  0  0  0  0  0  0  0  0  0  0
  -31.0492  -16.3313   20.4607 C   0  0  0  0  0  0  0  0  0  0  0  0
  -24.9300  -20.3476   20.9997 C   0  0  0  0  0  0  0  0  0  0  0  0
  -23.2035  -21.5555   21.6282 C   0  0  0  0  0  0  0  0  0  0  0  0
  -17.8561  -25.3522   20.4084 C   0  0  0  0  0  0  0  0  0  0  0  0
  -25.4133  -22.6449   22.0503 C   0  0  0  0  0  0  0  0  0  0  0  0
  -26.5390  -28.2999   21.6091 C   0  0  0  0  0  0  0  0  0  0  0  0
  -26.4198  -31.3078   22.8176 C   0  0  0  0  0  0  0  0  0  0  0  0
  -24.5511  -34.0755   23.5210 C   0  0  0  0  0  0  0  0  0  0  0  0
  -18.5866  -18.5455   22.9839 C   0  0  0  0  0  0  0  0  0  0  0  0
  -31.1116  -26.0312   21.6601 C   0  0  0  0  0  0  0  0  0  0  0  0
  -25.4214  -29.5537   19.7290 C   0  0  0  0  0  0  0  0  0  0  0  0
  -24.2064  -30.1915   22.3485 C   0  0  0  0  0  0  0  0  0  0  0  0
  -30.3783  -27.0298   22.5520 C   0  0  0  0  0  0  0  0  0  0  0  0
  -19.8576  -18.4270   19.5106 C   0  0  0  0  0  0  0  0  0  0  0  0
  -28.9686  -26.5352   22.8603 C   0  0  0  0  0  0  0  0  0  0  0  0
  -21.2898  -18.9380   19.6558 C   0  0  0  0  0  0  0  0  0  0  0  0
  -19.3709  -17.7369   20.7813 C   0  0  0  0  0  0  0  0  0  0  0  0
  -20.9226  -19.1011   22.1498 C   0  0  0  0  0  0  0  0  0  0  0  0
  -18.7305  -26.1590   22.1472 C   0  0  0  0  0  0  0  0  0  0  0  0
  -28.1401  -26.3955   21.5775 C   0  0  1  0  0  0  0  0  0  0  0  0
  -26.2580  -29.6451   21.0014 C   0  0  1  0  0  0  0  0  0  0  0  0
  -21.4221  -19.8360   20.8969 C   0  0  1  0  0  0  0  0  0  0  0  0
  -18.2496  -26.8025   20.8119 C   0  0  2  0  0  0  0  0  0  0  0  0
  -17.0613  -27.7473   20.9533 C   0  0  0  0  0  0  0  0  0  0  0  0
  -24.0510  -36.4219   24.2569 C   0  0  0  0  0  0  0  0  0  0  0  0
  -26.4597  -30.0569   25.6004 C   0  0  0  0  0  0  0  0  0  0  0  0
  -25.6828  -32.2514   26.5219 C   0  0  0  0  0  0  0  0  0  0  0  0
  -27.8819  -32.0992   25.3542 C   0  0  0  0  0  0  0  0  0  0  0  0
  -18.0848  -19.5417   25.1719 C   0  0  0  0  0  0  0  0  0  0  0  0
  -25.0153  -35.1506   20.8029 C   0  0  0  0  0  0  0  0  0  0  0  0
  -19.3563  -27.3962   19.9621 C   0  0  0  0  0  0  0  0  0  1  0  0
  -25.7492  -31.9576   24.0039 C   0  0  1  0  0  0  0  0  0  0  0  0
  -24.7973  -35.5504   23.2588 C   0  0  2  0  0  0  0  0  0  0  0  0
  -26.4284  -31.5779   25.3500 C   0  0  0  0  0  0  0  0  0  0  0  0
  -23.8679  -19.5984   20.6921 N   0  0  0  0  0  0  0  0  0  0  0  0
  -22.8331  -20.3599   21.0864 N   0  0  0  0  0  0  0  0  0  0  0  0
  -18.3006  -24.8769   21.6007 N   0  0  0  0  0  0  0  0  0  0  0  0
  -25.6210  -30.4579   22.0396 N   0  0  0  0  0  0  0  0  0  0  0  0
  -19.5585  -18.5803   21.9629 N   0  0  0  0  0  0  0  0  0  0  0  0
  -22.2892  -22.4422   22.0758 N   0  0  0  0  0  0  0  0  0  0  0  0
  -25.8464  -22.6227   23.3830 N   0  0  0  0  0  0  0  0  0  0  0  0
  -27.6830  -27.6928   21.1272 N   0  0  0  0  0  0  0  0  0  0  0  0
  -25.7295  -33.3899   23.7276 N   0  0  0  0  0  0  0  0  0  0  0  0
  -18.4550  -19.7074   23.7681 N   0  0  0  0  0  0  0  0  0  0  0  0
  -24.3453  -35.9150   21.8864 N   0  3  0  0  0  0  0  0  0  0  0  0
  -17.3577  -24.8187   19.4435 O   0  0  0  0  0  0  0  0  0  0  0  0
  -25.7534  -23.5988   21.3100 O   0  0  0  0  0  0  0  0  0  0  0  0
  -25.7754  -27.8470   22.4537 O   0  0  0  0  0  0  0  0  0  0  0  0
  -27.6066  -31.5512   22.5856 O   0  0  0  0  0  0  0  0  0  0  0  0
  -23.4258  -33.5818   23.5441 O   0  0  0  0  0  0  0  0  0  0  0  0
  -17.9197  -17.5301   23.2182 O   0  0  0  0  0  0  0  0  0  0  0  0
  -30.0901  -18.4761   19.9329 O   0  0  0  0  0  0  0  0  0  0  0  0
  -19.9370  -28.4911   20.6694 O   0  0  0  0  0  0  0  0  0  1  0  0
  -30.6817  -13.1104   18.8092 F   0  0  0  0  0  0  0  0  0  0  0  0
  -19.3300  -24.4342   24.1298 F   0  0  0  0  0  0  0  0  0  0  0  0
  -31.6843  -16.8633   21.5140 F   0  0  0  0  0  0  0  0  0  0  0  0
  1  2  1  0  0  0  0
  1  5  2  0  0  0  0
  2  6  2  0  0  0  0
  3 10  2  0  0  0  0
  3 18  1  0  0  0  0
  4 11  1  0  0  0  0
  4 18  2  0  0  0  0
  5 20  1  0  0  0  0
  6 22  1  0  0  0  0
  7 12  2  0  0  0  0
  7 21  1  0  0  0  0
  8  9  2  0  0  0  0
  8 24  1  0  0  0  0
  9 25  1  0  0  0  0
 10 26  1  0  0  0  0
 11 26  2  0  0  0  0
 12 27  1  0  0  0  0
 13 14  2  0  0  0  0
 13 28  1  0  0  0  0
 14 29  1  0  0  0  0
 15 23  1  0  0  0  0
 15 27  2  0  0  0  0
 16 25  2  0  0  0  0
 16 30  1  0  0  0  0
 17 29  2  0  0  0  0
 17 31  1  0  0  0  0
 18 32  1  0  0  0  0
 19 32  1  0  0  0  0
 19 33  2  0  0  0  0
 19 35  1  0  0  0  0
 20 22  2  0  0  0  0
 20 40  1  0  0  0  0
 21 23  2  0  0  0  0
 21 41  1  0  0  0  0
 22 50  1  0  0  0  0
 23 42  1  0  0  0  0
 24 30  2  0  0  0  0
 24 67  1  0  0  0  0
 25 74  1  0  0  0  0
 26 82  1  0  0  0  0
 27 83  1  0  0  0  0
 28 31  2  0  0  0  0
 28 82  1  0  0  0  0
 29 84  1  0  0  0  0
 30 85  1  0  0  0  0
 31 86  1  0  0  0  0
 32 65  2  0  0  0  0
 33 66  1  0  0  0  0
 33 70  1  0  0  0  0
 34 53  1  0  0  0  0
 34 67  1  0  0  0  0
 34 76  2  0  0  0  0
 35 71  1  0  0  0  0
 35 77  2  0  0  0  0
 36 51  1  0  0  0  0
 36 72  1  0  0  0  0
 36 78  2  0  0  0  0
 37 62  1  0  0  0  0
 37 68  1  0  0  0  0
 37 79  2  0  0  0  0
 38 63  1  0  0  0  0
 38 73  1  0  0  0  0
 38 80  2  0  0  0  0
 39 69  1  0  0  0  0
 39 74  1  0  0  0  0
 39 81  2  0  0  0  0
 40 43  1  0  0  0  0
 41 51  1  0  0  0  0
 42 68  1  0  0  0  0
 43 45  1  0  0  0  0
 44 46  1  0  0  0  0
 44 47  1  0  0  0  0
 45 50  1  0  0  0  0
 46 52  1  0  0  0  0
 47 69  1  0  0  0  0
 48 52  1  0  0  0  0
 48 69  1  0  0  0  0
 49 53  1  0  0  0  0
 49 67  1  0  0  0  0
 50 72  1  0  0  0  0
 51 68  1  0  0  0  0
 52 66  1  0  0  0  0
 53 54  1  0  0  0  0
 53 61  1  0  0  0  0
 55 63  1  0  0  0  0
 56 64  1  0  0  0  0
 57 64  1  0  0  0  0
 58 64  1  0  0  0  0
 59 74  1  0  0  0  0
 60 75  1  0  0  0  0
 61 83  1  0  0  0  0
 62 64  1  0  0  0  0
 62 73  1  0  0  0  0
 63 75  1  0  0  0  0
 65 66  1  0  0  0  0
M  CHG  1  75   1
M  ISO  4  39 100  61 101  74 100  83 101
M  END
> <Batch ID>
0076

> <Smiles>
CNC(C)C(=O)NC(C(=O)N1Cc2cc([101O:1][101CH2:1]C3(C)CN(c4ccc([100N:0](C)[100C:0](=O)N5CCCC(n6nc(-c7ccc(Oc8ccc(F)cc8F)cc7)c(C(N)=O)c6N)C5)cc4F)C3=O)ccc2CC1C(=O)NC1CCCc2ccccc21)C(C)(C)C

> <Shape>
0.246

> <Color>
0.058

> <Negative vol penalty>
0.000

$$$$

  -OEChem-04042323503D

 84 92  0     1  0  0  0  0  0999 V2000
  -30.2244  -25.3477   17.5008 C   0  0  0  0  0  0  0  0  0  0  0  0
  -28.8356  -25.3973   17.5657 C   0  0  0  0  0  0  0  0  0  0  0  0
  -25.0121  -13.1518   19.9643 C   0  0  0  0  0  0  0  0  0  0  0  0
  -25.4436  -15.2340   21.1112 C   0  0  0  0  0  0  0  0  0  0  0  0
  -30.9879  -25.8008   18.5758 C   0  0  0  0  0  0  0  0  0  0  0  0
  -28.2094  -25.8988   18.7062 C   0  0  0  0  0  0  0  0  0  0  0  0
  -22.9926  -29.0984   18.9362 C   0  0  0  0  0  0  0  0  0  0  0  0
  -17.9399  -22.3453   20.3522 C   0  0  0  0  0  0  0  0  0  0  0  0
  -17.9300  -20.9511   20.3145 C   0  0  0  0  0  0  0  0  0  0  0  0
  -26.2968  -13.1844   19.4219 C   0  0  0  0  0  0  0  0  0  0  0  0
  -26.7283  -15.2665   20.5689 C   0  0  0  0  0  0  0  0  0  0  0  0
  -21.6776  -28.7295   19.2164 C   0  0  0  0  0  0  0  0  0  0  0  0
  -29.4472  -12.4926   20.4365 C   0  0  0  0  0  0  0  0  0  0  0  0
  -30.1913  -11.3131   20.4613 C   0  0  0  0  0  0  0  0  0  0  0  0
  -21.9825  -29.4085   21.5110 C   0  0  0  0  0  0  0  0  0  0  0  0
  -19.6743  -22.2876   22.0331 C   0  0  0  0  0  0  0  0  0  0  0  0
  -30.3351  -11.3530   18.0499 C   0  0  0  0  0  0  0  0  0  0  0  0
  -24.5855  -14.1767   20.8089 C   0  0  0  0  0  0  0  0  0  0  0  0
  -22.8633  -13.5559   22.5856 C   0  0  0  0  0  0  0  0  0  0  0  0
  -30.3710  -26.3171   19.7262 C   0  0  0  0  0  0  0  0  0  0  0  0
  -23.8172  -29.6158   19.9455 C   0  0  0  0  0  0  0  0  0  0  0  0
  -28.9654  -26.3580   19.7982 C   0  0  0  0  0  0  0  0  0  0  0  0
  -23.3068  -29.7856   21.2404 C   0  0  0  0  0  0  0  0  0  0  0  0
  -18.8121  -23.0137   21.2115 C   0  0  0  0  0  0  0  0  0  0  0  0
  -18.7922  -20.2250   21.1362 C   0  0  0  0  0  0  0  0  0  0  0  0
  -27.1549  -14.2417   19.7242 C   0  0  0  0  0  0  0  0  0  0  0  0
  -21.1733  -28.8819   20.5047 C   0  0  0  0  0  0  0  0  0  0  0  0
  -29.1469  -13.1022   19.2183 C   0  0  0  0  0  0  0  0  0  0  0  0
  -30.6353  -10.7433   19.2681 C   0  0  0  0  0  0  0  0  0  0  0  0
  -19.6644  -20.8933   21.9955 C   0  0  0  0  0  0  0  0  0  0  0  0
  -29.5908  -12.5324   18.0251 C   0  0  0  0  0  0  0  0  0  0  0  0
  -23.2583  -14.1440   21.3690 C   0  0  0  0  0  0  0  0  0  0  0  0
  -21.5130  -13.7956   22.6603 C   0  0  0  0  0  0  0  0  0  0  0  0
  -19.5294  -27.2196   20.5781 C   0  0  0  0  0  0  0  0  0  1  0  0
  -23.6470  -12.8558   23.5609 C   0  0  0  0  0  0  0  0  0  0  0  0
  -18.3001  -26.7400   20.8114 C   0  0  0  0  0  0  0  0  0  0  0  0
  -18.0214  -25.2966   20.5206 C   0  0  0  0  0  0  0  0  0  0  0  0
  -26.5384  -28.6990   21.3087 C   0  0  0  0  0  0  0  0  0  0  0  0
  -26.3099  -31.5742   22.7931 C   0  0  0  0  0  0  0  0  0  0  0  0
  -24.3214  -34.1359   23.8563 C   0  0  0  0  0  0  0  0  0  0  0  0
  -17.9753  -17.9933   20.3004 C   0  0  0  0  0  0  0  0  0  0  0  0
  -31.2374  -26.7511   20.8819 C   0  0  0  0  0  0  0  0  0  0  0  0
  -25.2251  -30.0339   19.6207 C   0  0  0  0  0  0  0  0  0  0  0  0
  -24.1448  -30.3553   22.3547 C   0  0  0  0  0  0  0  0  0  0  0  0
  -30.5024  -27.6153   21.9033 C   0  0  0  0  0  0  0  0  0  0  0  0
  -17.6702  -14.4705   19.8832 C   0  0  0  0  0  0  0  0  0  0  0  0
  -29.1494  -27.0009   22.2474 C   0  0  0  0  0  0  0  0  0  0  0  0
  -19.0306  -13.9330   20.3334 C   0  0  0  0  0  0  0  0  0  0  0  0
  -17.8025  -15.8008   19.1438 C   0  0  0  0  0  0  0  0  0  0  0  0
  -19.9124  -16.3013   20.3129 C   0  0  0  0  0  0  0  0  0  0  0  0
  -28.2498  -26.9182   21.0082 C   0  0  1  0  0  0  0  0  0  0  0  0
  -26.1350  -30.0700   20.8447 C   0  0  1  0  0  0  0  0  0  0  0  0
  -19.8243  -14.9952   21.1191 C   0  0  2  0  0  0  0  0  0  0  0  0
  -17.1399  -27.5551   21.2919 C   0  0  0  0  0  0  0  0  0  0  0  0
  -24.4161  -36.3290   25.0723 C   0  0  0  0  0  0  0  0  0  0  0  0
  -26.6081  -30.0897   25.4421 C   0  0  0  0  0  0  0  0  0  0  0  0
  -25.7570  -32.1369   26.6052 C   0  0  0  0  0  0  0  0  0  0  0  0
  -27.8810  -32.2378   25.3010 C   0  0  0  0  0  0  0  0  0  0  0  0
  -23.2874  -35.6139   21.5099 C   0  0  0  0  0  0  0  0  0  0  0  0
  -25.6783  -32.0702   24.0714 C   0  0  1  0  0  0  0  0  0  0  0  0
  -24.4574  -35.6414   23.7165 C   0  0  2  0  0  0  0  0  0  0  0  0
  -26.4657  -31.6211   25.3346 C   0  0  0  0  0  0  0  0  0  0  0  0
  -22.2411  -14.7141   20.7176 N   0  0  0  0  0  0  0  0  0  0  0  0
  -21.1936  -14.4854   21.5279 N   0  0  0  0  0  0  0  0  0  0  0  0
  -25.5170  -30.7434   21.9887 N   0  0  0  0  0  0  0  0  0  0  0  0
  -18.5619  -16.7588   19.9501 N   0  0  0  0  0  0  0  0  0  0  0  0
  -20.5795  -13.4813   23.5834 N   0  0  0  0  0  0  0  0  0  0  0  0
  -25.0200  -12.6990   23.3274 N   0  0  0  0  0  0  0  0  0  0  0  0
  -18.8218  -24.4293   21.2504 N   0  0  0  0  0  0  0  0  0  0  0  0
  -18.7795  -18.8087   21.0960 N   0  0  0  0  0  0  0  0  0  0  0  0
  -27.6844  -28.2158   20.7066 N   0  0  0  0  0  0  0  0  0  0  0  0
  -25.5512  -33.5166   23.9294 N   0  0  0  0  0  0  0  0  0  0  0  0
  -23.3512  -36.1859   22.8795 N   0  3  0  0  0  0  0  0  0  0  0  0
  -23.1416  -12.3688   24.6006 O   0  0  0  0  0  0  0  0  0  0  0  0
  -17.1177  -25.0094   19.7418 O   0  0  0  0  0  0  0  0  0  0  0  0
  -25.8608  -28.1229   22.1518 O   0  0  0  0  0  0  0  0  0  0  0  0
  -27.4616  -31.9172   22.5149 O   0  0  0  0  0  0  0  0  0  0  0  0
  -23.2331  -33.5667   23.9002 O   0  0  0  0  0  0  0  0  0  0  0  0
  -16.8325  -18.2928   19.9451 O   0  0  0  0  0  0  0  0  0  0  0  0
  -28.4086  -14.2736   19.1954 O   0  0  0  0  0  0  0  0  0  0  0  0
  -19.8903  -28.5220   20.7811 O   0  0  0  0  0  0  0  0  0  1  0  0
  -31.3513   -9.6115   19.2922 F   0  0  0  0  0  0  0  0  0  0  0  0
  -20.4965  -20.2058   22.7909 F   0  0  0  0  0  0  0  0  0  0  0  0
  -29.3065  -13.1142   16.8518 F   0  0  0  0  0  0  0  0  0  0  0  0
  1  2  1  0  0  0  0
  1  5  2  0  0  0  0
  2  6  2  0  0  0  0
  3 10  2  0  0  0  0
  3 18  1  0  0  0  0
  4 11  1  0  0  0  0
  4 18  2  0  0  0  0
  5 20  1  0  0  0  0
  6 22  1  0  0  0  0
  7 12  2  0  0  0  0
  7 21  1  0  0  0  0
  8  9  2  0  0  0  0
  8 24  1  0  0  0  0
  9 25  1  0  0  0  0
 10 26  1  0  0  0  0
 11 26  2  0  0  0  0
 12 27  1  0  0  0  0
 13 14  2  0  0  0  0
 13 28  1  0  0  0  0
 14 29  1  0  0  0  0
 15 23  1  0  0  0  0
 15 27  2  0  0  0  0
 16 24  2  0  0  0  0
 16 30  1  0  0  0  0
 17 29  2  0  0  0  0
 17 31  1  0  0  0  0
 18 32  1  0  0  0  0
 19 32  1  0  0  0  0
 19 33  2  0  0  0  0
 19 35  1  0  0  0  0
 20 22  2  0  0  0  0
 20 42  1  0  0  0  0
 21 23  2  0  0  0  0
 21 43  1  0  0  0  0
 22 51  1  0  0  0  0
 23 44  1  0  0  0  0
 24 69  1  0  0  0  0
 25 30  2  0  0  0  0
 25 70  1  0  0  0  0
 26 80  1  0  0  0  0
 27 81  1  0  0  0  0
 28 31  2  0  0  0  0
 28 80  1  0  0  0  0
 29 82  1  0  0  0  0
 30 83  1  0  0  0  0
 31 84  1  0  0  0  0
 32 63  2  0  0  0  0
 33 64  1  0  0  0  0
 33 67  1  0  0  0  0
 34 36  2  0  0  0  0
 34 81  1  0  0  0  0
 35 68  1  0  0  0  0
 35 74  2  0  0  0  0
 36 37  1  0  0  0  0
 36 54  1  0  0  0  0
 37 69  1  0  0  0  0
 37 75  2  0  0  0  0
 38 52  1  0  0  0  0
 38 71  1  0  0  0  0
 38 76  2  0  0  0  0
 39 60  1  0  0  0  0
 39 65  1  0  0  0  0
 39 77  2  0  0  0  0
 40 61  1  0  0  0  0
 40 72  1  0  0  0  0
 40 78  2  0  0  0  0
 41 66  1  0  0  0  0
 41 70  1  0  0  0  0
 41 79  2  0  0  0  0
 42 45  1  0  0  0  0
 43 52  1  0  0  0  0
 44 65  1  0  0  0  0
 45 47  1  0  0  0  0
 46 48  1  0  0  0  0
 46 49  1  0  0  0  0
 47 51  1  0  0  0  0
 48 53  1  0  0  0  0
 49 66  1  0  0  0  0
 50 53  1  0  0  0  0
 50 66  1  0  0  0  0
 51 71  1  0  0  0  0
 52 65  1  0  0  0  0
 53 64  1  0  0  0  0
 55 61  1  0  0  0  0
 56 62  1  0  0  0  0
 57 62  1  0  0  0  0
 58 62  1  0  0  0  0
 59 73  1  0  0  0  0
 60 62  1  0  0  0  0
 60 72  1  0  0  0  0
 61 73  1  0  0  0  0
 63 64  1  0  0  0  0
M  CHG  1  73   1
M  ISO  4  34 101  41 100  70 100  81 101
M  END
> <Batch ID>
0076

> <Smiles>
CNC(C)C(=O)NC(C(=O)N1Cc2cc([101O:1][101CH:1]=C(C)C(=O)Nc3ccc([100NH:0][100C:0](=O)N4CCCC(n5nc(-c6ccc(Oc7ccc(F)cc7F)cc6)c(C(N)=O)c5N)C4)c(F)c3)ccc2CC1C(=O)NC1CCCc2ccccc21)C(C)(C)C

> <Shape>
0.300

> <Color>
0.077

> <Negative vol penalty>
0.000

$$$$

  -OEChem-04042323503D

 77 84  0     1  0  0  0  0  0999 V2000
  -30.1238  -23.9547   21.3234 C   0  0  0  0  0  0  0  0  0  0  0  0
  -28.7463  -23.7729   21.3921 C   0  0  0  0  0  0  0  0  0  0  0  0
  -25.5365  -26.8841   20.4357 C   0  0  0  0  0  0  0  0  0  0  0  0
  -25.5904  -29.2214   21.0449 C   0  0  0  0  0  0  0  0  0  0  0  0
  -30.8918  -23.1453   20.4873 C   0  0  0  0  0  0  0  0  0  0  0  0
  -28.1357  -22.7823   20.6238 C   0  0  0  0  0  0  0  0  0  0  0  0
  -24.7319  -20.1075   23.2514 C   0  0  0  0  0  0  0  0  0  0  0  0
  -26.5370  -27.1075   19.4899 C   0  0  0  0  0  0  0  0  0  0  0  0
  -26.5910  -29.4449   20.0991 C   0  0  0  0  0  0  0  0  0  0  0  0
  -23.4872  -20.6975   23.4667 C   0  0  0  0  0  0  0  0  0  0  0  0
  -29.3308  -26.9910   17.1669 C   0  0  0  0  0  0  0  0  0  0  0  0
  -30.3837  -26.0781   17.1088 C   0  0  0  0  0  0  0  0  0  0  0  0
  -22.5642  -19.3967   21.6570 C   0  0  0  0  0  0  0  0  0  0  0  0
  -30.9495  -26.5846   19.4023 C   0  0  0  0  0  0  0  0  0  0  0  0
  -25.0631  -27.9411   21.2132 C   0  0  0  0  0  0  0  0  0  0  0  0
  -24.2001  -27.3551   23.5412 C   0  0  0  0  0  0  0  0  0  0  0  0
  -30.2915  -22.1379   19.7156 C   0  0  0  0  0  0  0  0  0  0  0  0
  -24.9049  -19.1641   22.2285 C   0  0  0  0  0  0  0  0  0  0  0  0
  -28.8962  -21.9596   19.7755 C   0  0  0  0  0  0  0  0  0  0  0  0
  -23.8115  -18.7943   21.4324 C   0  0  0  0  0  0  0  0  0  0  0  0
  -27.0643  -28.3879   19.3216 C   0  0  0  0  0  0  0  0  0  0  0  0
  -22.4038  -20.3443   22.6676 C   0  0  0  0  0  0  0  0  0  0  0  0
  -29.0871  -27.7008   18.3427 C   0  0  0  0  0  0  0  0  0  0  0  0
  -31.1931  -25.8749   18.2265 C   0  0  0  0  0  0  0  0  0  0  0  0
  -29.8965  -27.4976   19.4604 C   0  0  0  0  0  0  0  0  0  0  0  0
  -24.0291  -27.7110   22.1899 C   0  0  0  0  0  0  0  0  0  0  0  0
  -22.9222  -27.2568   24.0348 C   0  0  0  0  0  0  0  0  0  0  0  0
  -25.4064  -27.1332   24.2838 C   0  0  0  0  0  0  0  0  0  0  0  0
  -26.6736  -19.0135   19.5916 C   0  0  0  0  0  0  0  0  0  0  0  0
  -19.4261  -22.2765   21.9154 C   0  0  0  0  0  0  0  0  0  0  0  0
  -25.4933  -15.9958   19.4403 C   0  0  0  0  0  0  0  0  0  0  0  0
  -17.6184  -23.7092   21.0727 C   0  0  0  0  0  0  0  0  0  0  0  0
  -23.0226  -13.8047   20.3013 C   0  0  0  0  0  0  0  0  0  0  0  0
  -17.6324  -26.1367   21.5472 C   0  0  0  0  0  0  0  0  0  0  0  0
  -31.1570  -21.3191   18.7908 C   0  0  0  0  0  0  0  0  0  0  0  0
  -26.2477  -18.5171   22.0264 C   0  0  0  0  0  0  0  0  0  0  0  0
  -23.9400  -17.7716   20.3342 C   0  0  0  0  0  0  0  0  0  0  0  0
  -30.4801  -20.0449   18.2922 C   0  0  0  0  0  0  0  0  0  0  0  0
  -18.5150  -29.0064   23.3887 C   0  0  0  0  0  0  0  0  0  0  0  0
  -29.0592  -20.3432   17.8244 C   0  0  0  0  0  0  0  0  0  0  0  0
  -20.0443  -28.9632   23.4240 C   0  0  0  0  0  0  0  0  0  0  0  0
  -17.9683  -28.5258   22.0462 C   0  0  0  0  0  0  0  0  0  0  0  0
  -19.9782  -27.1639   21.6470 C   0  0  0  0  0  0  0  0  0  0  0  0
  -28.2003  -20.8793   18.9762 C   0  0  1  0  0  0  0  0  0  0  0  0
  -26.4315  -17.9480   20.6229 C   0  0  1  0  0  0  0  0  0  0  0  0
  -20.5786  -27.5810   23.0009 C   0  0  1  0  0  0  0  0  0  0  0  0
  -22.3143  -11.4164   19.9986 C   0  0  0  0  0  0  0  0  0  0  0  0
  -24.5806  -16.6292   16.5985 C   0  0  0  0  0  0  0  0  0  0  0  0
  -23.0916  -14.6193   16.7033 C   0  0  0  0  0  0  0  0  0  0  0  0
  -25.5640  -14.3489   16.8945 C   0  0  0  0  0  0  0  0  0  0  0  0
  -23.1496  -13.2768   23.2106 C   0  0  0  0  0  0  0  0  0  0  0  0
  -18.4592  -22.5261   20.7778 C   0  0  0  0  0  0  0  0  0  0  0  0
  -20.3314  -21.0710   21.7550 C   0  0  0  0  0  0  0  0  0  1  0  0
  -24.2743  -15.3544   18.8227 C   0  0  1  0  0  0  0  0  0  0  0  0
  -23.0767  -12.3995   20.8731 C   0  0  2  0  0  0  0  0  0  0  0  0
  -24.3753  -15.2587   17.2741 C   0  0  0  0  0  0  0  0  0  0  0  0
  -22.7438  -27.8306   21.8469 N   0  0  0  0  0  0  0  0  0  0  0  0
  -22.0956  -27.5481   22.9898 N   0  0  0  0  0  0  0  0  0  0  0  0
  -25.2747  -17.1719   20.1717 N   0  0  0  0  0  0  0  0  0  0  0  0
  -18.5114  -27.2070   21.7168 N   0  0  0  0  0  0  0  0  0  0  0  0
  -22.4361  -26.9503   25.2564 N   0  0  0  0  0  0  0  0  0  0  0  0
  -26.6339  -27.2765   23.6227 N   0  0  0  0  0  0  0  0  0  0  0  0
  -27.7838  -19.7972   19.8422 N   0  0  0  0  0  0  0  0  0  0  0  0
  -18.2597  -24.8687   21.2517 N   0  0  0  0  0  0  0  0  0  0  0  0
  -24.1068  -14.0685   19.4912 N   0  0  0  0  0  0  0  0  0  0  0  0
  -16.3076  -23.5016   21.1301 N   0  3  0  0  0  0  0  0  0  0  0  0
  -22.4816  -12.3729   22.2392 N   0  3  0  0  0  0  0  0  0  0  0  0
  -25.3956  -26.8013   25.4935 O   0  0  0  0  0  0  0  0  0  0  0  0
  -25.9104  -19.1162   18.6383 O   0  0  0  0  0  0  0  0  0  0  0  0
  -19.4797  -22.9968   22.9115 O   0  0  0  0  0  0  0  0  0  0  0  0
  -26.5979  -15.4688   19.2858 O   0  0  0  0  0  0  0  0  0  0  0  0
  -22.1081  -14.5885   20.5456 O   0  0  0  0  0  0  0  0  0  0  0  0
  -16.4115  -26.1947   21.6502 O   0  0  0  0  0  0  0  0  0  0  0  0
  -28.0409  -28.6062   18.3990 O   0  0  0  0  0  0  0  0  0  0  0  0
  -21.1753  -20.9251   22.8774 O   0  0  0  0  0  0  0  0  0  1  0  0
  -32.2033  -24.9970   18.1711 F   0  0  0  0  0  0  0  0  0  0  0  0
  -29.6666  -28.1757   20.5932 F   0  0  0  0  0  0  0  0  0  0  0  0
  1  2  1  0  0  0  0
  1  5  2  0  0  0  0
  2  6  2  0  0  0  0
  3  8  2  0  0  0  0
  3 15  1  0  0  0  0
  4  9  1  0  0  0  0
  4 15  2  0  0  0  0
  5 17  1  0  0  0  0
  6 19  1  0  0  0  0
  7 10  2  0  0  0  0
  7 18  1  0  0  0  0
  8 21  1  0  0  0  0
  9 21  2  0  0  0  0
 10 22  1  0  0  0  0
 11 12  2  0  0  0  0
 11 23  1  0  0  0  0
 12 24  1  0  0  0  0
 13 20  1  0  0  0  0
 13 22  2  0  0  0  0
 14 24  2  0  0  0  0
 14 25  1  0  0  0  0
 15 26  1  0  0  0  0
 16 26  1  0  0  0  0
 16 27  2  0  0  0  0
 16 28  1  0  0  0  0
 17 19  2  0  0  0  0
 17 35  1  0  0  0  0
 18 20  2  0  0  0  0
 18 36  1  0  0  0  0
 19 44  1  0  0  0  0
 20 37  1  0  0  0  0
 21 74  1  0  0  0  0
 22 75  1  0  0  0  0
 23 25  2  0  0  0  0
 23 74  1  0  0  0  0
 24 76  1  0  0  0  0
 25 77  1  0  0  0  0
 26 57  2  0  0  0  0
 27 58  1  0  0  0  0
 27 61  1  0  0  0  0
 28 62  1  0  0  0  0
 28 68  2  0  0  0  0
 29 45  1  0  0  0  0
 29 63  1  0  0  0  0
 29 69  2  0  0  0  0
 30 52  1  0  0  0  0
 30 53  1  0  0  0  0
 30 70  2  0  0  0  0
 31 54  1  0  0  0  0
 31 59  1  0  0  0  0
 31 71  2  0  0  0  0
 32 52  1  0  0  0  0
 32 64  1  0  0  0  0
 32 66  2  0  0  0  0
 33 55  1  0  0  0  0
 33 65  1  0  0  0  0
 33 72  2  0  0  0  0
 34 60  1  0  0  0  0
 34 64  1  0  0  0  0
 34 73  2  0  0  0  0
 35 38  1  0  0  0  0
 36 45  1  0  0  0  0
 37 59  1  0  0  0  0
 38 40  1  0  0  0  0
 39 41  1  0  0  0  0
 39 42  1  0  0  0  0
 40 44  1  0  0  0  0
 41 46  1  0  0  0  0
 42 60  1  0  0  0  0
 43 46  1  0  0  0  0
 43 60  1  0  0  0  0
 44 63  1  0  0  0  0
 45 59  1  0  0  0  0
 46 58  1  0  0  0  0
 47 55  1  0  0  0  0
 48 56  1  0  0  0  0
 49 56  1  0  0  0  0
 50 56  1  0  0  0  0
 51 67  1  0  0  0  0
 53 75  1  0  0  0  0
 54 56  1  0  0  0  0
 54 65  1  0  0  0  0
 55 67  1  0  0  0  0
 57 58  1  0  0  0  0
M  CHG  2  66   1  67   1
M  ISO  4  34 100  53 101  64 100  75 101
M  END
> <Batch ID>
0076

> <Smiles>
CNC(C)C(=O)NC(C(=O)N1Cc2cc([101O:1][101CH2:1]C(=O)CC(=N)[100NH:0][100C:0](=O)N3CCCC(n4nc(-c5ccc(Oc6ccc(F)cc6F)cc5)c(C(N)=O)c4N)C3)ccc2CC1C(=O)NC1CCCc2ccccc21)C(C)(C)C

> <Shape>
0.195

> <Color>
0.068

> <Negative vol penalty>
0.000

$$$$

  -OEChem-04042323503D

 85 94  0     1  0  0  0  0  0999 V2000
  -28.0706  -24.6918   16.6737 C   0  0  0  0  0  0  0  0  0  0  0  0
  -26.8971  -24.8734   17.3987 C   0  0  0  0  0  0  0  0  0  0  0  0
  -16.6763  -21.0070   23.4153 C   0  0  0  0  0  0  0  0  0  0  0  0
  -28.7279  -18.1023   20.5014 C   0  0  0  0  0  0  0  0  0  0  0  0
  -27.0941  -18.3834   18.7440 C   0  0  0  0  0  0  0  0  0  0  0  0
  -29.2717  -25.2140   17.1517 C   0  0  0  0  0  0  0  0  0  0  0  0
  -26.9245  -25.5764   18.6026 C   0  0  0  0  0  0  0  0  0  0  0  0
  -23.1202  -28.8951   19.0012 C   0  0  0  0  0  0  0  0  0  0  0  0
  -16.7417  -22.3131   22.9302 C   0  0  0  0  0  0  0  0  0  0  0  0
  -17.8499  -20.2897   23.6478 C   0  0  0  0  0  0  0  0  0  0  0  0
  -29.6203  -17.5489   19.5833 C   0  0  0  0  0  0  0  0  0  0  0  0
  -27.9865  -17.8301   17.8258 C   0  0  0  0  0  0  0  0  0  0  0  0
  -21.8650  -28.3879   19.3342 C   0  0  0  0  0  0  0  0  0  0  0  0
  -32.1961  -15.7311   17.7711 C   0  0  0  0  0  0  0  0  0  0  0  0
  -32.8843  -14.5777   18.1475 C   0  0  0  0  0  0  0  0  0  0  0  0
  -22.2055  -29.0653   21.6242 C   0  0  0  0  0  0  0  0  0  0  0  0
  -19.1543  -22.1848   22.9100 C   0  0  0  0  0  0  0  0  0  0  0  0
  -30.7843  -13.4169   18.4298 C   0  0  0  0  0  0  0  0  0  0  0  0
  -27.4648  -18.5195   20.0818 C   0  0  0  0  0  0  0  0  0  0  0  0
  -26.4076  -20.4496   21.3721 C   0  0  0  0  0  0  0  0  0  0  0  0
  -29.3121  -25.9320   18.3572 C   0  0  0  0  0  0  0  0  0  0  0  0
  -23.9334  -29.4825   19.9811 C   0  0  0  0  0  0  0  0  0  0  0  0
  -28.1276  -26.1075   19.0978 C   0  0  0  0  0  0  0  0  0  0  0  0
  -23.4695  -29.5816   21.3006 C   0  0  0  0  0  0  0  0  0  0  0  0
  -17.9807  -22.9020   22.6775 C   0  0  0  0  0  0  0  0  0  0  0  0
  -19.0888  -20.8786   23.3951 C   0  0  0  0  0  0  0  0  0  0  0  0
  -29.2497  -17.4128   18.2455 C   0  0  0  0  0  0  0  0  0  0  0  0
  -21.4086  -28.4703   20.6465 C   0  0  0  0  0  0  0  0  0  0  0  0
  -30.8020  -15.7275   17.7240 C   0  0  0  0  0  0  0  0  0  0  0  0
  -32.1784  -13.4206   18.4769 C   0  0  0  0  0  0  0  0  0  0  0  0
  -30.0961  -14.5704   18.0534 C   0  0  0  0  0  0  0  0  0  0  0  0
  -26.5422  -19.0907   21.0299 C   0  0  0  0  0  0  0  0  0  0  0  0
  -25.4028  -20.4699   22.3083 C   0  0  0  0  0  0  0  0  0  0  0  0
  -19.0471  -24.7111   21.3747 C   0  0  0  0  0  0  0  0  0  0  0  0
  -18.8533  -25.9987   21.0629 C   0  0  0  0  0  0  0  0  0  0  0  0
  -17.6355  -26.4103   21.7107 C   0  0  0  0  0  0  0  0  0  0  0  0
  -17.0981  -25.2283   22.4597 C   0  0  0  0  0  0  0  0  0  0  0  0
  -17.0250  -27.5970   21.7033 C   0  0  0  0  0  0  0  0  0  0  0  0
  -27.1265  -21.5913   20.8871 C   0  0  0  0  0  0  0  0  0  0  0  0
  -26.7957  -28.8363   21.2031 C   0  0  0  0  0  0  0  0  0  0  0  0
  -26.3412  -31.6528   22.7469 C   0  0  0  0  0  0  0  0  0  0  0  0
  -24.1507  -33.9798   23.9443 C   0  0  0  0  0  0  0  0  0  0  0  0
  -20.3917  -18.8449   24.1114 C   0  0  0  0  0  0  0  0  0  0  0  0
  -30.6424  -26.4370   18.8572 C   0  0  0  0  0  0  0  0  0  0  0  0
  -25.2737  -30.0490   19.6003 C   0  0  0  0  0  0  0  0  0  0  0  0
  -24.2955  -30.2210   22.3856 C   0  0  0  0  0  0  0  0  0  0  0  0
  -30.5204  -27.4918   19.9540 C   0  0  0  0  0  0  0  0  0  0  0  0
  -23.1392  -16.6856   24.7936 C   0  0  0  0  0  0  0  0  0  0  0  0
  -29.5086  -27.0520   21.0074 C   0  0  0  0  0  0  0  0  0  0  0  0
  -24.2584  -17.2306   23.9034 C   0  0  0  0  0  0  0  0  0  0  0  0
  -21.7753  -16.7808   24.1121 C   0  0  0  0  0  0  0  0  0  0  0  0
  -22.5447  -18.6595   22.7165 C   0  0  0  0  0  0  0  0  0  0  0  0
  -28.1123  -26.8856   20.3957 C   0  0  1  0  0  0  0  0  0  0  0  0
  -26.2315  -30.1638   20.7822 C   0  0  1  0  0  0  0  0  0  0  0  0
  -23.9288  -18.6444   23.3858 C   0  0  2  0  0  0  0  0  0  0  0  0
  -24.0752  -36.1550   25.1934 C   0  0  0  0  0  0  0  0  0  0  0  0
  -26.9152  -30.1734   25.3530 C   0  0  0  0  0  0  0  0  0  0  0  0
  -25.9125  -32.1057   26.5896 C   0  0  0  0  0  0  0  0  0  0  0  0
  -27.9512  -32.4439   25.1924 C   0  0  0  0  0  0  0  0  0  0  0  0
  -22.8605  -35.3723   21.6738 C   0  0  0  0  0  0  0  0  0  0  0  0
  -19.7060  -26.8677   20.2122 C   0  0  0  0  0  0  0  0  0  1  0  0
  -25.7224  -32.0639   24.0611 C   0  0  1  0  0  0  0  0  0  0  0  0
  -24.1237  -35.4929   23.8252 C   0  0  2  0  0  0  0  0  0  0  0  0
  -26.6103  -31.6829   25.2792 C   0  0  0  0  0  0  0  0  0  0  0  0
  -25.6912  -18.3047   21.6946 N   0  0  0  0  0  0  0  0  0  0  0  0
  -25.0121  -19.1725   22.4641 N   0  0  0  0  0  0  0  0  0  0  0  0
  -18.0452  -24.2050   22.1942 N   0  0  0  0  0  0  0  0  0  0  0  0
  -25.6016  -30.7544   21.9648 N   0  0  0  0  0  0  0  0  0  0  0  0
  -21.5299  -18.1493   23.6518 N   0  0  0  0  0  0  0  0  0  0  0  0
  -24.8242  -21.4708   23.0053 N   0  0  0  0  0  0  0  0  0  0  0  0
  -28.1270  -21.3922   19.9261 N   0  0  0  0  0  0  0  0  0  0  0  0
  -20.2806  -20.1496   23.6316 N   0  0  0  0  0  0  0  0  0  0  0  0
  -27.4870  -28.1768   20.2049 N   0  0  0  0  0  0  0  0  0  0  0  0
  -25.4400  -33.4910   23.9506 N   0  0  0  0  0  0  0  0  0  0  0  0
  -22.9290  -35.9301   23.0489 N   0  3  0  0  0  0  0  0  0  0  0  0
  -16.0819  -25.1937   23.1299 O   0  0  0  0  0  0  0  0  0  0  0  0
  -26.8998  -22.7518   21.3060 O   0  0  0  0  0  0  0  0  0  0  0  0
  -26.6183  -28.4405   22.3493 O   0  0  0  0  0  0  0  0  0  0  0  0
  -27.4370  -32.1174   22.4229 O   0  0  0  0  0  0  0  0  0  0  0  0
  -23.1303  -33.2999   24.0275 O   0  0  0  0  0  0  0  0  0  0  0  0
  -19.5900  -18.3312   24.8958 O   0  0  0  0  0  0  0  0  0  0  0  0
  -30.1203  -16.8731   17.3493 O   0  0  0  0  0  0  0  0  0  0  0  0
  -20.1841  -27.9754   20.9743 O   0  0  0  0  0  0  0  0  0  1  0  0
  -32.8394  -12.3127   18.8369 F   0  0  0  0  0  0  0  0  0  0  0  0
  -28.7568  -14.5605   18.0089 F   0  0  0  0  0  0  0  0  0  0  0  0
  1  2  1  0  0  0  0
  1  6  2  0  0  0  0
  2  7  2  0  0  0  0
  3  9  2  0  0  0  0
  3 10  1  0  0  0  0
  4 11  2  0  0  0  0
  4 19  1  0  0  0  0
  5 12  1  0  0  0  0
  5 19  2  0  0  0  0
  6 21  1  0  0  0  0
  7 23  1  0  0  0  0
  8 13  2  0  0  0  0
  8 22  1  0  0  0  0
  9 25  1  0  0  0  0
 10 26  2  0  0  0  0
 11 27  1  0  0  0  0
 12 27  2  0  0  0  0
 13 28  1  0  0  0  0
 14 15  2  0  0  0  0
 14 29  1  0  0  0  0
 15 30  1  0  0  0  0
 16 24  1  0  0  0  0
 16 28  2  0  0  0  0
 17 25  2  0  0  0  0
 17 26  1  0  0  0  0
 18 30  2  0  0  0  0
 18 31  1  0  0  0  0
 19 32  1  0  0  0  0
 20 32  1  0  0  0  0
 20 33  2  0  0  0  0
 20 39  1  0  0  0  0
 21 23  2  0  0  0  0
 21 44  1  0  0  0  0
 22 24  2  0  0  0  0
 22 45  1  0  0  0  0
 23 53  1  0  0  0  0
 24 46  1  0  0  0  0
 25 67  1  0  0  0  0
 26 72  1  0  0  0  0
 27 82  1  0  0  0  0
 28 83  1  0  0  0  0
 29 31  2  0  0  0  0
 29 82  1  0  0  0  0
 30 84  1  0  0  0  0
 31 85  1  0  0  0  0
 32 65  2  0  0  0  0
 33 66  1  0  0  0  0
 33 70  1  0  0  0  0
 34 35  2  0  0  0  0
 34 67  1  0  0  0  0
 35 36  1  0  0  0  0
 35 61  1  0  0  0  0
 36 37  1  0  0  0  0
 36 38  2  0  0  0  0
 37 67  1  0  0  0  0
 37 76  2  0  0  0  0
 39 71  1  0  0  0  0
 39 77  2  0  0  0  0
 40 54  1  0  0  0  0
 40 73  1  0  0  0  0
 40 78  2  0  0  0  0
 41 62  1  0  0  0  0
 41 68  1  0  0  0  0
 41 79  2  0  0  0  0
 42 63  1  0  0  0  0
 42 74  1  0  0  0  0
 42 80  2  0  0  0  0
 43 69  1  0  0  0  0
 43 72  1  0  0  0  0
 43 81  2  0  0  0  0
 44 47  1  0  0  0  0
 45 54  1  0  0  0  0
 46 68  1  0  0  0  0
 47 49  1  0  0  0  0
 48 50  1  0  0  0  0
 48 51  1  0  0  0  0
 49 53  1  0  0  0  0
 50 55  1  0  0  0  0
 51 69  1  0  0  0  0
 52 55  1  0  0  0  0
 52 69  1  0  0  0  0
 53 73  1  0  0  0  0
 54 68  1  0  0  0  0
 55 66  1  0  0  0  0
 56 63  1  0  0  0  0
 57 64  1  0  0  0  0
 58 64  1  0  0  0  0
 59 64  1  0  0  0  0
 60 75  1  0  0  0  0
 61 83  1  0  0  0  0
 62 64  1  0  0  0  0
 62 74  1  0  0  0  0
 63 75  1  0  0  0  0
 65 66  1  0  0  0  0
M  CHG  1  75   1
M  ISO  4  43 100  61 101  72 100  83 101
M  END
> <Batch ID>
0076

> <Smiles>
C=C1C(=O)N(c2cccc([100NH:0][100C:0](=O)N3CCCC(n4nc(-c5ccc(Oc6ccc(F)cc6F)cc5)c(C(N)=O)c4N)C3)c2)C=C1[101CH2:1][101O:1]c1ccc2c(c1)CN(C(=O)C(NC(=O)C(C)NC)C(C)(C)C)C(C(=O)NC1CCCc3ccccc31)C2

> <Shape>
0.250

> <Color>
0.054

> <Negative vol penalty>
0.000

$$$$

  -OEChem-04042323503D

 85 94  0     1  0  0  0  0  0999 V2000
  -22.4620  -30.7299   17.4114 C   0  0  0  0  0  0  0  0  0  0  0  0
  -23.1442  -29.7653   18.1459 C   0  0  0  0  0  0  0  0  0  0  0  0
  -23.1799  -15.7842   22.6572 C   0  0  0  0  0  0  0  0  0  0  0  0
  -22.2517  -15.6128   20.4332 C   0  0  0  0  0  0  0  0  0  0  0  0
  -21.7391  -31.7237   18.0698 C   0  0  0  0  0  0  0  0  0  0  0  0
  -23.1046  -29.7946   19.5395 C   0  0  0  0  0  0  0  0  0  0  0  0
  -22.3112  -25.2180   21.5571 C   0  0  0  0  0  0  0  0  0  0  0  0
  -28.7458  -18.8731   22.9238 C   0  0  0  0  0  0  0  0  0  0  0  0
  -29.4662  -19.3586   20.6694 C   0  0  0  0  0  0  0  0  0  0  0  0
  -29.3340  -17.6112   22.8400 C   0  0  0  0  0  0  0  0  0  0  0  0
  -30.0544  -18.0966   20.5856 C   0  0  0  0  0  0  0  0  0  0  0  0
  -22.1517  -16.6544   23.0193 C   0  0  0  0  0  0  0  0  0  0  0  0
  -21.2234  -16.4829   20.7954 C   0  0  0  0  0  0  0  0  0  0  0  0
  -23.4003  -24.3495   21.6135 C   0  0  0  0  0  0  0  0  0  0  0  0
  -21.3901  -19.9207   22.6003 C   0  0  0  0  0  0  0  0  0  0  0  0
  -21.7343  -21.0670   23.3166 C   0  0  0  0  0  0  0  0  0  0  0  0
  -23.7201  -24.9110   23.9377 C   0  0  0  0  0  0  0  0  0  0  0  0
  -20.3184  -20.3531   25.1395 C   0  0  0  0  0  0  0  0  0  0  0  0
  -23.2300  -15.2635   21.3641 C   0  0  0  0  0  0  0  0  0  0  0  0
  -24.2956  -12.9613   21.0959 C   0  0  0  0  0  0  0  0  0  0  0  0
  -21.6827  -31.7596   19.4720 C   0  0  0  0  0  0  0  0  0  0  0  0
  -21.9243  -25.9490   22.6896 C   0  0  0  0  0  0  0  0  0  0  0  0
  -22.3813  -30.7906   20.2173 C   0  0  0  0  0  0  0  0  0  0  0  0
  -22.6241  -25.7862   23.8937 C   0  0  0  0  0  0  0  0  0  0  0  0
  -28.8118  -19.7469   21.8384 C   0  0  0  0  0  0  0  0  0  0  0  0
  -29.9883  -17.2229   21.6710 C   0  0  0  0  0  0  0  0  0  0  0  0
  -21.1734  -17.0037   22.0884 C   0  0  0  0  0  0  0  0  0  0  0  0
  -24.1067  -24.1981   22.8031 C   0  0  0  0  0  0  0  0  0  0  0  0
  -20.5100  -18.9906   23.1536 C   0  0  0  0  0  0  0  0  0  0  0  0
  -21.1985  -21.2832   24.5862 C   0  0  0  0  0  0  0  0  0  0  0  0
  -19.9742  -19.2068   24.4231 C   0  0  0  0  0  0  0  0  0  0  0  0
  -24.2922  -14.3650   20.9893 C   0  0  0  0  0  0  0  0  0  0  0  0
  -25.5239  -12.5831   20.6114 C   0  0  0  0  0  0  0  0  0  0  0  0
  -27.5463  -21.6150   22.9139 C   0  0  0  0  0  0  0  0  0  0  0  0
  -23.2793  -12.0781   21.5886 C   0  0  0  0  0  0  0  0  0  0  0  0
  -21.7279  -29.0399   23.4050 C   0  0  0  0  0  0  0  0  0  0  0  0
  -20.3799  -27.9229   26.1358 C   0  0  0  0  0  0  0  0  0  0  0  0
  -20.0182  -25.3470   28.3451 C   0  0  0  0  0  0  0  0  0  0  0  0
  -30.7009  -15.2380   20.3505 C   0  0  0  0  0  0  0  0  0  0  0  0
  -20.9270  -32.8810   20.1397 C   0  0  0  0  0  0  0  0  0  0  0  0
  -20.7307  -26.8616   22.6195 C   0  0  0  0  0  0  0  0  0  0  0  0
  -22.2366  -26.5327   25.1432 C   0  0  0  0  0  0  0  0  0  0  0  0
  -20.6280  -32.6210   21.6139 C   0  0  0  0  0  0  0  0  0  0  0  0
  -28.9314  -13.9418   17.5519 C   0  0  0  0  0  0  0  0  0  0  0  0
  -21.8734  -32.1062   22.3285 C   0  0  0  0  0  0  0  0  0  0  0  0
  -27.5269  -13.7762   18.1311 C   0  0  0  0  0  0  0  0  0  0  0  0
  -29.6090  -15.2190   18.0496 C   0  0  0  0  0  0  0  0  0  0  0  0
  -28.2303  -15.1841   20.1045 C   0  0  0  0  0  0  0  0  0  0  0  0
  -28.1574  -22.0786   20.9515 C   0  0  0  0  0  0  0  0  0  0  0  0
  -22.3420  -30.7743   21.7300 C   0  0  1  0  0  0  0  0  0  0  0  0
  -20.7420  -27.9437   23.6949 C   0  0  1  0  0  0  0  0  0  0  0  0
  -27.5470  -13.8793   19.6664 C   0  0  1  0  0  0  0  0  0  0  0  0
  -27.3612  -22.8790   22.0256 C   0  0  2  0  0  0  0  0  0  0  0  0
  -28.0768  -24.1162   22.5565 C   0  0  0  0  0  0  0  0  0  0  0  0
  -19.1192  -24.0767   30.3137 C   0  0  0  0  0  0  0  0  0  0  0  0
  -22.4366  -29.5683   27.6760 C   0  0  0  0  0  0  0  0  0  0  0  0
  -21.8885  -28.2187   29.7123 C   0  0  0  0  0  0  0  0  0  0  0  0
  -20.1280  -29.6206   28.6363 C   0  0  0  0  0  0  0  0  0  0  0  0
  -31.3262  -15.4051   22.7497 C   0  0  0  0  0  0  0  0  0  0  0  0
  -17.8010  -24.2115   26.7471 C   0  0  0  0  0  0  0  0  0  0  0  0
  -25.9176  -23.1645   21.6593 C   0  0  0  0  0  0  0  0  0  1  0  0
  -20.8985  -27.5030   27.4900 C   0  0  1  0  0  0  0  0  0  0  0  0
  -18.7853  -24.7326   28.9828 C   0  0  2  0  0  0  0  0  0  0  0  0
  -21.3467  -28.7149   28.3547 C   0  0  0  0  0  0  0  0  0  0  0  0
  -25.4283  -14.8460   20.4775 N   0  0  0  0  0  0  0  0  0  0  0  0
  -26.1571  -13.7383   20.2582 N   0  0  0  0  0  0  0  0  0  0  0  0
  -28.2316  -20.9911   21.9207 N   0  0  0  0  0  0  0  0  0  0  0  0
  -21.0664  -27.4178   25.0225 N   0  0  0  0  0  0  0  0  0  0  0  0
  -29.5679  -15.2928   19.5169 N   0  0  0  0  0  0  0  0  0  0  0  0
  -26.1134  -11.3785   20.4575 N   0  0  0  0  0  0  0  0  0  0  0  0
  -22.0773  -12.6332   22.0483 N   0  0  0  0  0  0  0  0  0  0  0  0
  -21.5119  -29.6876   22.2036 N   0  0  0  0  0  0  0  0  0  0  0  0
  -19.8478  -26.6924   28.0961 N   0  0  0  0  0  0  0  0  0  0  0  0
  -30.5974  -15.9165   21.5839 N   0  0  0  0  0  0  0  0  0  0  0  0
  -18.1975  -23.6993   28.0840 N   0  3  0  0  0  0  0  0  0  0  0  0
  -27.2296  -21.2793   24.0324 O   0  0  0  0  0  0  0  0  0  0  0  0
  -23.4389  -10.8348   21.6356 O   0  0  0  0  0  0  0  0  0  0  0  0
  -22.6178  -29.2812   24.2122 O   0  0  0  0  0  0  0  0  0  0  0  0
  -19.3974  -28.6656   26.0682 O   0  0  0  0  0  0  0  0  0  0  0  0
  -21.0326  -24.6991   28.0963 O   0  0  0  0  0  0  0  0  0  0  0  0
  -31.7169  -14.6097   20.0295 O   0  0  0  0  0  0  0  0  0  0  0  0
  -20.1698  -17.8526   22.4415 O   0  0  0  0  0  0  0  0  0  0  0  0
  -25.1706  -23.3515   22.8607 O   0  0  0  0  0  0  0  0  0  1  0  0
  -21.5303  -22.3833   25.2746 F   0  0  0  0  0  0  0  0  0  0  0  0
  -19.1291  -18.3162   24.9604 F   0  0  0  0  0  0  0  0  0  0  0  0
  1  2  1  0  0  0  0
  1  5  2  0  0  0  0
  2  6  2  0  0  0  0
  3 12  2  0  0  0  0
  3 19  1  0  0  0  0
  4 13  1  0  0  0  0
  4 19  2  0  0  0  0
  5 21  1  0  0  0  0
  6 23  1  0  0  0  0
  7 14  2  0  0  0  0
  7 22  1  0  0  0  0
  8 10  2  0  0  0  0
  8 25  1  0  0  0  0
  9 11  1  0  0  0  0
  9 25  2  0  0  0  0
 10 26  1  0  0  0  0
 11 26  2  0  0  0  0
 12 27  1  0  0  0  0
 13 27  2  0  0  0  0
 14 28  1  0  0  0  0
 15 16  2  0  0  0  0
 15 29  1  0  0  0  0
 16 30  1  0  0  0  0
 17 24  1  0  0  0  0
 17 28  2  0  0  0  0
 18 30  2  0  0  0  0
 18 31  1  0  0  0  0
 19 32  1  0  0  0  0
 20 32  1  0  0  0  0
 20 33  2  0  0  0  0
 20 35  1  0  0  0  0
 21 23  2  0  0  0  0
 21 40  1  0  0  0  0
 22 24  2  0  0  0  0
 22 41  1  0  0  0  0
 23 50  1  0  0  0  0
 24 42  1  0  0  0  0
 25 67  1  0  0  0  0
 26 74  1  0  0  0  0
 27 82  1  0  0  0  0
 28 83  1  0  0  0  0
 29 31  2  0  0  0  0
 29 82  1  0  0  0  0
 30 84  1  0  0  0  0
 31 85  1  0  0  0  0
 32 65  2  0  0  0  0
 33 66  1  0  0  0  0
 33 70  1  0  0  0  0
 34 53  1  0  0  0  0
 34 67  1  0  0  0  0
 34 76  2  0  0  0  0
 35 71  1  0  0  0  0
 35 77  2  0  0  0  0
 36 51  1  0  0  0  0
 36 72  1  0  0  0  0
 36 78  2  0  0  0  0
 37 62  1  0  0  0  0
 37 68  1  0  0  0  0
 37 79  2  0  0  0  0
 38 63  1  0  0  0  0
 38 73  1  0  0  0  0
 38 80  2  0  0  0  0
 39 69  1  0  0  0  0
 39 74  1  0  0  0  0
 39 81  2  0  0  0  0
 40 43  1  0  0  0  0
 41 51  1  0  0  0  0
 42 68  1  0  0  0  0
 43 45  1  0  0  0  0
 44 46  1  0  0  0  0
 44 47  1  0  0  0  0
 45 50  1  0  0  0  0
 46 52  1  0  0  0  0
 47 69  1  0  0  0  0
 48 52  1  0  0  0  0
 48 69  1  0  0  0  0
 49 53  1  0  0  0  0
 49 67  1  0  0  0  0
 50 72  1  0  0  0  0
 51 68  1  0  0  0  0
 52 66  1  0  0  0  0
 53 54  1  0  0  0  0
 53 61  1  0  0  0  0
 55 63  1  0  0  0  0
 56 64  1  0  0  0  0
 57 64  1  0  0  0  0
 58 64  1  0  0  0  0
 59 74  1  0  0  0  0
 60 75  1  0  0  0  0
 61 83  1  0  0  0  0
 62 64  1  0  0  0  0
 62 73  1  0  0  0  0
 63 75  1  0  0  0  0
 65 66  1  0  0  0  0
M  CHG  1  75   1
M  ISO  4  39 100  61 101  74 100  83 101
M  END
> <Batch ID>
0076

> <Smiles>
CNC(C)C(=O)NC(C(=O)N1Cc2cc([101O:1][101CH2:1]C3(C)CN(c4ccc([100N:0](C)[100C:0](=O)N5CCCC(n6nc(-c7ccc(Oc8ccc(F)cc8F)cc7)c(C(N)=O)c6N)C5)cc4)C3=O)ccc2CC1C(=O)NC1CCCc2ccccc21)C(C)(C)C

> <Shape>
0.173

> <Color>
0.102

> <Negative vol penalty>
0.000

$$$$

  -OEChem-04042323503D

 87 95  0     1  0  0  0  0  0999 V2000
  -20.1825  -24.8257   25.9761 C   0  0  0  0  0  0  0  0  0  0  0  0
  -21.3488  -24.4409   26.6297 C   0  0  0  0  0  0  0  0  0  0  0  0
  -23.0022   -9.8916   19.9822 C   0  0  0  0  0  0  0  0  0  0  0  0
  -23.7249   -9.9468   22.2869 C   0  0  0  0  0  0  0  0  0  0  0  0
  -32.6404  -17.4555   23.4551 C   0  0  0  0  0  0  0  0  0  0  0  0
  -20.2308  -25.2171   24.6388 C   0  0  0  0  0  0  0  0  0  0  0  0
  -22.5640  -24.4462   25.9458 C   0  0  0  0  0  0  0  0  0  0  0  0
  -28.0779  -25.7891   28.2479 C   0  0  0  0  0  0  0  0  0  0  0  0
  -32.0535  -16.5572   22.5639 C   0  0  0  0  0  0  0  0  0  0  0  0
  -22.2359   -8.7573   20.2496 C   0  0  0  0  0  0  0  0  0  0  0  0
  -22.9585   -8.8124   22.5544 C   0  0  0  0  0  0  0  0  0  0  0  0
  -29.1252  -24.9885   28.7018 C   0  0  0  0  0  0  0  0  0  0  0  0
  -23.2048   -5.4728   22.0883 C   0  0  0  0  0  0  0  0  0  0  0  0
  -23.7920   -4.4571   22.8427 C   0  0  0  0  0  0  0  0  0  0  0  0
  -30.1858  -25.1617   26.5421 C   0  0  0  0  0  0  0  0  0  0  0  0
  -29.8741  -17.4549   23.0944 C   0  0  0  0  0  0  0  0  0  0  0  0
  -22.0662   -4.7020   24.5157 C   0  0  0  0  0  0  0  0  0  0  0  0
  -23.7467  -10.4864   21.0009 C   0  0  0  0  0  0  0  0  0  0  0  0
  -31.8442  -18.3534   24.1660 C   0  0  0  0  0  0  0  0  0  0  0  0
  -24.1312  -13.0018   20.8211 C   0  0  0  0  0  0  0  0  0  0  0  0
  -21.4487  -25.2364   23.9410 C   0  0  0  0  0  0  0  0  0  0  0  0
  -28.0714  -26.2738   26.9320 C   0  0  0  0  0  0  0  0  0  0  0  0
  -22.6285  -24.8369   24.5975 C   0  0  0  0  0  0  0  0  0  0  0  0
  -29.1386  -25.9704   26.0747 C   0  0  0  0  0  0  0  0  0  0  0  0
  -30.6703  -16.5569   22.3835 C   0  0  0  0  0  0  0  0  0  0  0  0
  -22.2140   -8.2176   21.5357 C   0  0  0  0  0  0  0  0  0  0  0  0
  -30.1779  -24.6723   27.8481 C   0  0  0  0  0  0  0  0  0  0  0  0
  -22.0483   -6.1032   22.5476 C   0  0  0  0  0  0  0  0  0  0  0  0
  -23.2227   -4.0717   24.0564 C   0  0  0  0  0  0  0  0  0  0  0  0
  -30.4611  -18.3531   23.9857 C   0  0  0  0  0  0  0  0  0  0  0  0
  -21.4790   -5.7178   23.7612 C   0  0  0  0  0  0  0  0  0  0  0  0
  -24.5390  -11.6579   20.7251 C   0  0  0  0  0  0  0  0  0  0  0  0
  -25.2410  -13.7243   20.4567 C   0  0  0  0  0  0  0  0  0  0  0  0
  -31.4196  -20.8157   28.0794 C   0  0  0  0  0  0  0  0  0  0  0  0
  -32.4737  -19.3066   25.1165 C   0  0  0  0  0  0  0  0  0  0  0  0
  -22.8625  -13.5483   21.2054 C   0  0  0  0  0  0  0  0  0  0  0  0
  -26.1579  -25.9159   24.4192 C   0  0  0  0  0  0  0  0  0  0  0  0
  -28.1075  -28.1520   23.1073 C   0  0  0  0  0  0  0  0  0  0  0  0
  -31.1627  -29.6724   23.0754 C   0  0  0  0  0  0  0  0  0  0  0  0
  -30.7198  -14.6881   20.6949 C   0  0  0  0  0  0  0  0  0  0  0  0
  -21.4439  -25.6218   22.4829 C   0  0  0  0  0  0  0  0  0  0  0  0
  -26.9476  -27.1583   26.4659 C   0  0  0  0  0  0  0  0  0  0  0  0
  -29.1890  -26.4825   24.6592 C   0  0  0  0  0  0  0  0  0  0  0  0
  -22.8293  -25.9580   21.9372 C   0  0  0  0  0  0  0  0  0  0  0  0
  -29.6050  -12.2309   18.3718 C   0  0  0  0  0  0  0  0  0  0  0  0
  -23.8436  -24.9039   22.3694 C   0  0  0  0  0  0  0  0  0  0  0  0
  -28.1541  -11.9733   18.7849 C   0  0  0  0  0  0  0  0  0  0  0  0
  -30.5042  -12.4767   19.5822 C   0  0  0  0  0  0  0  0  0  0  0  0
  -28.5871  -13.2670   20.9124 C   0  0  0  0  0  0  0  0  0  0  0  0
  -23.9697  -24.8531   23.8968 C   0  0  1  0  0  0  0  0  0  0  0  0
  -26.7885  -27.1727   24.9487 C   0  0  1  0  0  0  0  0  0  0  0  0
  -27.6307  -13.0782   19.7234 C   0  0  2  0  0  0  0  0  0  0  0  0
  -32.4716  -31.4385   21.8650 C   0  0  0  0  0  0  0  0  0  0  0  0
  -28.5179  -26.2395   20.7655 C   0  0  0  0  0  0  0  0  0  0  0  0
  -30.5087  -27.6006   20.0932 C   0  0  0  0  0  0  0  0  0  0  0  0
  -28.2406  -28.6388   20.1167 C   0  0  0  0  0  0  0  0  0  0  0  0
  -31.4806  -31.2870   25.5353 C   0  0  0  0  0  0  0  0  0  0  0  0
  -32.9606  -20.1735   30.5233 C   0  0  0  0  0  0  0  0  0  0  0  0
  -30.8938  -22.9224   29.2908 C   0  0  0  0  0  0  0  0  0  1  0  0
  -31.8563  -21.7523   29.1776 C   0  0  1  0  0  0  0  0  0  0  0  0
  -29.3880  -28.1178   22.3085 C   0  0  1  0  0  0  0  0  0  0  0  0
  -31.5583  -31.1377   23.0432 C   0  0  2  0  0  0  0  0  0  0  0  0
  -29.1622  -27.6378   20.8470 C   0  0  0  0  0  0  0  0  0  0  0  0
  -25.8087  -11.5313   20.3305 N   0  0  0  0  0  0  0  0  0  0  0  0
  -32.2235  -20.5300   27.1095 N   0  0  0  0  0  0  0  0  0  0  0  0
  -26.2083  -12.8050   20.1752 N   0  0  0  0  0  0  0  0  0  0  0  0
  -28.0638  -27.3384   24.2483 N   0  0  0  0  0  0  0  0  0  0  0  0
  -29.9478  -13.5388   20.4231 N   0  0  0  0  0  0  0  0  0  0  0  0
  -25.4740  -15.0499   20.3527 N   0  0  0  0  0  0  0  0  0  0  0  0
  -21.8308  -12.6643   21.5493 N   0  0  0  0  0  0  0  0  0  0  0  0
  -30.0743  -15.6444   21.4782 N   0  0  0  0  0  0  0  0  0  0  0  0
  -31.6968  -19.6792   26.1974 N   0  0  0  0  0  0  0  0  0  0  0  0
  -24.7774  -25.9550   24.3741 N   0  0  0  0  0  0  0  0  0  0  0  0
  -29.9721  -29.4503   22.4163 N   0  0  0  0  0  0  0  0  0  0  0  0
  -32.2718  -31.5092   24.2977 N   0  3  0  0  0  0  0  0  0  0  0  0
  -33.6225  -19.6911   24.9124 O   0  0  0  0  0  0  0  0  0  0  0  0
  -22.6453  -14.7836   21.2269 O   0  0  0  0  0  0  0  0  0  0  0  0
  -26.8711  -24.9805   24.0755 O   0  0  0  0  0  0  0  0  0  0  0  0
  -27.1828  -28.8795   22.7366 O   0  0  0  0  0  0  0  0  0  0  0  0
  -31.8437  -28.8105   23.6266 O   0  0  0  0  0  0  0  0  0  0  0  0
  -31.8589  -14.8268   20.2419 O   0  0  0  0  0  0  0  0  0  0  0  0
  -21.4661   -7.1109   21.7970 O   0  0  0  0  0  0  0  0  0  0  0  0
  -31.2010  -23.8905   28.2884 O   0  0  0  0  0  0  0  0  0  1  0  0
  -31.8117  -20.9996   30.3781 O   0  0  0  0  0  0  0  0  0  0  0  0
  -23.7858   -3.0952   24.7800 F   0  0  0  0  0  0  0  0  0  0  0  0
  -29.6859  -19.2114   24.6640 F   0  0  0  0  0  0  0  0  0  0  0  0
  -20.3674   -6.3189   24.2071 F   0  0  0  0  0  0  0  0  0  0  0  0
  1  2  1  0  0  0  0
  1  6  2  0  0  0  0
  2  7  2  0  0  0  0
  3 10  2  0  0  0  0
  3 18  1  0  0  0  0
  4 11  1  0  0  0  0
  4 18  2  0  0  0  0
  5  9  2  0  0  0  0
  5 19  1  0  0  0  0
  6 21  1  0  0  0  0
  7 23  1  0  0  0  0
  8 12  2  0  0  0  0
  8 22  1  0  0  0  0
  9 25  1  0  0  0  0
 10 26  1  0  0  0  0
 11 26  2  0  0  0  0
 12 27  1  0  0  0  0
 13 14  2  0  0  0  0
 13 28  1  0  0  0  0
 14 29  1  0  0  0  0
 15 24  1  0  0  0  0
 15 27  2  0  0  0  0
 16 25  2  0  0  0  0
 16 30  1  0  0  0  0
 17 29  2  0  0  0  0
 17 31  1  0  0  0  0
 18 32  1  0  0  0  0
 19 30  2  0  0  0  0
 19 35  1  0  0  0  0
 20 32  1  0  0  0  0
 20 33  2  0  0  0  0
 20 36  1  0  0  0  0
 21 23  2  0  0  0  0
 21 41  1  0  0  0  0
 22 24  2  0  0  0  0
 22 42  1  0  0  0  0
 23 50  1  0  0  0  0
 24 43  1  0  0  0  0
 25 71  1  0  0  0  0
 26 82  1  0  0  0  0
 27 83  1  0  0  0  0
 28 31  2  0  0  0  0
 28 82  1  0  0  0  0
 29 85  1  0  0  0  0
 30 86  1  0  0  0  0
 31 87  1  0  0  0  0
 32 64  2  0  0  0  0
 33 66  1  0  0  0  0
 33 69  1  0  0  0  0
 34 60  1  0  0  0  0
 34 65  2  0  0  0  0
 35 72  1  0  0  0  0
 35 76  2  0  0  0  0
 36 70  1  0  0  0  0
 36 77  2  0  0  0  0
 37 51  1  0  0  0  0
 37 73  1  0  0  0  0
 37 78  2  0  0  0  0
 38 61  1  0  0  0  0
 38 67  1  0  0  0  0
 38 79  2  0  0  0  0
 39 62  1  0  0  0  0
 39 74  1  0  0  0  0
 39 80  2  0  0  0  0
 40 68  1  0  0  0  0
 40 71  1  0  0  0  0
 40 81  2  0  0  0  0
 41 44  1  0  0  0  0
 42 51  1  0  0  0  0
 43 67  1  0  0  0  0
 44 46  1  0  0  0  0
 45 47  1  0  0  0  0
 45 48  1  0  0  0  0
 46 50  1  0  0  0  0
 47 52  1  0  0  0  0
 48 68  1  0  0  0  0
 49 52  1  0  0  0  0
 49 68  1  0  0  0  0
 50 73  1  0  0  0  0
 51 67  1  0  0  0  0
 52 66  1  0  0  0  0
 53 62  1  0  0  0  0
 54 63  1  0  0  0  0
 55 63  1  0  0  0  0
 56 63  1  0  0  0  0
 57 75  1  0  0  0  0
 58 84  1  0  0  0  0
 59 60  1  0  0  0  0
 59 83  1  0  0  0  0
 60 84  1  0  0  0  0
 61 63  1  0  0  0  0
 61 74  1  0  0  0  0
 62 75  1  0  0  0  0
 64 66  1  0  0  0  0
 65 72  1  0  0  0  0
M  CHG  1  75   1
M  ISO  4  40 100  59 101  71 100  83 101
M  END
> <Batch ID>
0076

> <Smiles>
CNC(C)C(=O)NC(C(=O)N1Cc2cc([101O:1][101CH2:1]C(C=NNC(=O)c3ccc([100NH:0][100C:0](=O)N4CCCC(n5nc(-c6ccc(Oc7ccc(F)cc7F)cc6)c(C(N)=O)c5N)C4)cc3F)OC)ccc2CC1C(=O)NC1CCCc2ccccc21)C(C)(C)C

> <Shape>
0.209

> <Color>
0.189

> <Negative vol penalty>
0.000

$$$$

  -OEChem-04042323503D

 87 96  0     1  0  0  0  0  0999 V2000
  -24.7256  -38.5344   22.6742 C   0  0  0  0  0  0  0  0  0  0  0  0
  -25.5079  -37.7668   21.8173 C   0  0  0  0  0  0  0  0  0  0  0  0
  -24.3797   -8.9461   21.1809 C   0  0  0  0  0  0  0  0  0  0  0  0
  -22.5353  -10.4711   21.5120 C   0  0  0  0  0  0  0  0  0  0  0  0
  -24.1771  -37.9584   23.8193 C   0  0  0  0  0  0  0  0  0  0  0  0
  -25.7431  -36.4230   22.1057 C   0  0  0  0  0  0  0  0  0  0  0  0
  -26.7674  -30.1148   18.8693 C   0  0  0  0  0  0  0  0  0  0  0  0
  -28.3366  -21.0172   23.3775 C   0  0  0  0  0  0  0  0  0  0  0  0
  -28.0702  -19.6937   23.7283 C   0  0  0  0  0  0  0  0  0  0  0  0
  -23.4956   -7.8680   21.2217 C   0  0  0  0  0  0  0  0  0  0  0  0
  -21.6512   -9.3930   21.5527 C   0  0  0  0  0  0  0  0  0  0  0  0
  -27.6608  -29.0445   18.8542 C   0  0  0  0  0  0  0  0  0  0  0  0
  -21.7679   -4.6905   21.5986 C   0  0  0  0  0  0  0  0  0  0  0  0
  -22.1311   -3.5805   22.3612 C   0  0  0  0  0  0  0  0  0  0  0  0
  -26.5966  -28.1363   20.8194 C   0  0  0  0  0  0  0  0  0  0  0  0
  -27.0844  -20.7270   21.3318 C   0  0  0  0  0  0  0  0  0  0  0  0
  -22.2179   -4.9670   24.3378 C   0  0  0  0  0  0  0  0  0  0  0  0
  -23.8995  -10.2477   21.3261 C   0  0  0  0  0  0  0  0  0  0  0  0
  -25.2118  -12.0917   20.1491 C   0  0  0  0  0  0  0  0  0  0  0  0
  -24.3978  -36.6044   24.1169 C   0  0  0  0  0  0  0  0  0  0  0  0
  -25.7873  -30.2097   19.8677 C   0  0  0  0  0  0  0  0  0  0  0  0
  -25.1983  -35.8287   23.2566 C   0  0  0  0  0  0  0  0  0  0  0  0
  -25.6904  -29.2075   20.8435 C   0  0  0  0  0  0  0  0  0  0  0  0
  -27.8437  -21.5338   22.1792 C   0  0  0  0  0  0  0  0  0  0  0  0
  -27.3109  -18.8869   22.8809 C   0  0  0  0  0  0  0  0  0  0  0  0
  -22.1314   -8.0914   21.4076 C   0  0  0  0  0  0  0  0  0  0  0  0
  -27.5773  -28.0566   19.8310 C   0  0  0  0  0  0  0  0  0  0  0  0
  -21.6298   -5.9388   22.2056 C   0  0  0  0  0  0  0  0  0  0  0  0
  -26.8180  -19.4035   21.6826 C   0  0  0  0  0  0  0  0  0  0  0  0
  -22.3561   -3.7187   23.7308 C   0  0  0  0  0  0  0  0  0  0  0  0
  -21.8548   -6.0770   23.5752 C   0  0  0  0  0  0  0  0  0  0  0  0
  -24.8124  -11.3618   21.2846 C   0  0  0  0  0  0  0  0  0  0  0  0
  -26.0802  -13.0374   20.6368 C   0  0  0  0  0  0  0  0  0  0  0  0
  -28.9059  -25.0188   21.8910 C   0  0  0  0  0  0  0  0  0  0  0  0
  -28.1555  -24.8438   20.6616 C   0  0  0  0  0  0  0  0  0  0  0  0
  -29.5348  -26.1220   22.3155 C   0  0  0  0  0  0  0  0  0  0  0  0
  -24.8317  -11.9293   18.7761 C   0  0  0  0  0  0  0  0  0  0  0  0
  -27.9374  -25.7492   19.7013 C   0  0  0  0  0  0  0  0  0  1  0  0
  -25.1278  -32.2970   22.1724 C   0  0  0  0  0  0  0  0  0  0  0  0
  -22.5090  -30.4269   22.5813 C   0  0  0  0  0  0  0  0  0  0  0  0
  -21.0427  -27.3699   22.1925 C   0  0  0  0  0  0  0  0  0  0  0  0
  -27.4697  -16.8902   24.4088 C   0  0  0  0  0  0  0  0  0  0  0  0
  -23.8232  -36.0381   25.3911 C   0  0  0  0  0  0  0  0  0  0  0  0
  -24.8141  -31.3566   19.8544 C   0  0  0  0  0  0  0  0  0  0  0  0
  -24.6433  -29.2523   21.9251 C   0  0  0  0  0  0  0  0  0  0  0  0
  -28.8857  -23.7322   22.6653 C   0  0  0  0  0  0  0  0  0  0  0  0
  -27.6282  -23.4388   20.6048 C   0  0  0  0  0  0  0  0  0  0  0  0
  -23.8109  -34.5121   25.4284 C   0  0  0  0  0  0  0  0  0  0  0  0
  -28.2224  -13.5012   25.1994 C   0  0  0  0  0  0  0  0  0  0  0  0
  -25.1555  -33.9561   24.9705 C   0  0  0  0  0  0  0  0  0  0  0  0
  -27.4352  -12.7025   24.1580 C   0  0  0  0  0  0  0  0  0  0  0  0
  -27.4589  -14.7422   25.6582 C   0  0  0  0  0  0  0  0  0  0  0  0
  -26.2110  -14.8241   23.5357 C   0  0  0  0  0  0  0  0  0  0  0  0
  -25.4557  -34.3613   23.5223 C   0  0  1  0  0  0  0  0  0  0  0  0
  -24.1840  -31.6213   21.2184 C   0  0  1  0  0  0  0  0  0  0  0  0
  -26.9676  -13.5997   22.9952 C   0  0  2  0  0  0  0  0  0  0  0  0
  -27.1459  -25.4697   18.4645 C   0  0  0  0  0  0  0  0  0  0  0  0
  -18.9082  -26.1354   22.6585 C   0  0  0  0  0  0  0  0  0  0  0  0
  -23.2875  -30.1961   25.5225 C   0  0  0  0  0  0  0  0  0  0  0  0
  -21.7277  -28.2468   25.7104 C   0  0  0  0  0  0  0  0  0  0  0  0
  -20.8392  -30.4996   25.1120 C   0  0  0  0  0  0  0  0  0  0  0  0
  -20.5687  -26.8682   19.3145 C   0  0  0  0  0  0  0  0  0  0  0  0
  -26.7789  -17.8947   19.8447 C   0  0  0  0  0  0  0  0  0  0  0  0
  -22.1859  -29.2057   23.4079 C   0  0  1  0  0  0  0  0  0  0  0  0
  -19.6842  -26.9662   21.6484 C   0  0  2  0  0  0  0  0  0  0  0  0
  -22.0311  -29.5369   24.9191 C   0  0  0  0  0  0  0  0  0  0  0  0
  -25.3805  -11.8056   22.4090 N   0  0  0  0  0  0  0  0  0  0  0  0
  -26.1459  -12.8246   21.9823 N   0  0  0  0  0  0  0  0  0  0  0  0
  -28.1022  -22.8215   21.8382 N   0  0  3  0  0  0  0  0  0  0  0  0
  -23.7188  -30.3969   21.8733 N   0  0  0  0  0  0  0  0  0  0  0  0
  -27.0516  -15.5460   24.5037 N   0  0  0  0  0  0  0  0  0  0  0  0
  -26.7865  -14.0219   20.0416 N   0  0  0  0  0  0  0  0  0  0  0  0
  -23.9295  -10.9080   18.4489 N   0  0  0  0  0  0  0  0  0  0  0  0
  -27.0487  -17.5447   23.2516 N   0  0  0  0  0  0  0  0  0  0  0  0
  -24.7009  -33.5395   22.6007 N   0  0  0  0  0  0  0  0  0  0  0  0
  -21.0016  -28.6053   22.8034 N   0  0  0  0  0  0  0  0  0  0  0  0
  -19.8428  -26.1638   20.4026 N   0  3  0  0  0  0  0  0  0  0  0  0
  -25.2917  -12.6576   17.8642 O   0  0  0  0  0  0  0  0  0  0  0  0
  -26.1657  -31.7323   22.4972 O   0  0  0  0  0  0  0  0  0  0  0  0
  -21.7138  -31.3697   22.5588 O   0  0  0  0  0  0  0  0  0  0  0  0
  -22.0397  -26.6586   22.0894 O   0  0  0  0  0  0  0  0  0  0  0  0
  -28.1737  -17.4136   25.2762 O   0  0  0  0  0  0  0  0  0  0  0  0
  -21.2684   -7.0397   21.4472 O   0  0  0  0  0  0  0  0  0  0  0  0
  -28.4485  -27.0112   19.8189 O   0  0  0  0  0  0  0  0  0  1  0  0
  -26.0735  -18.6323   20.8403 O   0  0  0  0  0  0  0  0  0  0  0  0
  -22.7034   -2.6524   24.4633 F   0  0  0  0  0  0  0  0  0  0  0  0
  -21.7225   -7.2734   24.1642 F   0  0  0  0  0  0  0  0  0  0  0  0
  1  2  1  0  0  0  0
  1  5  2  0  0  0  0
  2  6  2  0  0  0  0
  3 10  2  0  0  0  0
  3 18  1  0  0  0  0
  4 11  1  0  0  0  0
  4 18  2  0  0  0  0
  5 20  1  0  0  0  0
  6 22  1  0  0  0  0
  7 12  2  0  0  0  0
  7 21  1  0  0  0  0
  8  9  2  0  0  0  0
  8 24  1  0  0  0  0
  9 25  1  0  0  0  0
 10 26  1  0  0  0  0
 11 26  2  0  0  0  0
 12 27  1  0  0  0  0
 13 14  2  0  0  0  0
 13 28  1  0  0  0  0
 14 30  1  0  0  0  0
 15 23  1  0  0  0  0
 15 27  2  0  0  0  0
 16 24  2  0  0  0  0
 16 29  1  0  0  0  0
 17 30  2  0  0  0  0
 17 31  1  0  0  0  0
 18 32  1  0  0  0  0
 19 32  1  0  0  0  0
 19 33  2  0  0  0  0
 19 37  1  0  0  0  0
 20 22  2  0  0  0  0
 20 43  1  0  0  0  0
 21 23  2  0  0  0  0
 21 44  1  0  0  0  0
 22 54  1  0  0  0  0
 23 45  1  0  0  0  0
 24 69  1  0  0  0  0
 25 29  2  0  0  0  0
 25 74  1  0  0  0  0
 26 83  1  0  0  0  0
 27 84  1  0  0  0  0
 28 31  2  0  0  0  0
 28 83  1  0  0  0  0
 29 85  1  0  0  0  0
 30 86  1  0  0  0  0
 31 87  1  0  0  0  0
 32 67  2  0  0  0  0
 33 68  1  0  0  0  0
 33 72  1  0  0  0  0
 34 35  1  0  0  0  0
 34 36  2  0  0  0  0
 34 46  1  0  0  0  0
 35 38  2  0  0  0  0
 35 47  1  0  0  0  0
 37 73  1  0  0  0  0
 37 78  2  0  0  0  0
 38 57  1  0  0  0  0
 38 84  1  0  0  0  0
 39 55  1  0  0  0  0
 39 75  1  0  0  0  0
 39 79  2  0  0  0  0
 40 64  1  0  0  0  0
 40 70  1  0  0  0  0
 40 80  2  0  0  0  0
 41 65  1  0  0  0  0
 41 76  1  0  0  0  0
 41 81  2  0  0  0  0
 42 71  1  0  0  0  0
 42 74  1  0  0  0  0
 42 82  2  0  0  0  0
 43 48  1  0  0  0  0
 44 55  1  0  0  0  0
 45 70  1  0  0  0  0
 46 69  1  0  0  0  0
 47 69  1  0  0  0  0
 48 50  1  0  0  0  0
 49 51  1  0  0  0  0
 49 52  1  0  0  0  0
 50 54  1  0  0  0  0
 51 56  1  0  0  0  0
 52 71  1  0  0  0  0
 53 56  1  0  0  0  0
 53 71  1  0  0  0  0
 54 75  1  0  0  0  0
 55 70  1  0  0  0  0
 56 68  1  0  0  0  0
 58 65  1  0  0  0  0
 59 66  1  0  0  0  0
 60 66  1  0  0  0  0
 61 66  1  0  0  0  0
 62 77  1  0  0  0  0
 63 85  1  0  0  0  0
 64 66  1  0  0  0  0
 64 76  1  0  0  0  0
 65 77  1  0  0  0  0
 67 68  1  0  0  0  0
M  CHG  1  77   1
M  ISO  4  38 101  42 100  74 100  84 101
M  END
> <Batch ID>
0076

> <Smiles>
C=C1CN(c2ccc([100NH:0][100C:0](=O)N3CCCC(n4nc(-c5ccc(Oc6ccc(F)cc6F)cc5)c(C(N)=O)c4N)C3)c(OC)c2)CC1=[101C:1](C)[101O:1]c1ccc2c(c1)CN(C(=O)C(NC(=O)C(C)NC)C(C)(C)C)C(C(=O)NC1CCCc3ccccc31)C2

> <Shape>
0.288

> <Color>
0.108

> <Negative vol penalty>
0.000

$$$$

  -OEChem-04042323503D

 93102  0     1  0  0  0  0  0999 V2000
  -27.1087  -38.4545   21.9153 C   0  0  0  0  0  0  0  0  0  0  0  0
  -27.7331  -37.2932   21.4715 C   0  0  0  0  0  0  0  0  0  0  0  0
  -24.4629   -8.9305   20.0342 C   0  0  0  0  0  0  0  0  0  0  0  0
  -24.1808   -9.4573   22.3751 C   0  0  0  0  0  0  0  0  0  0  0  0
  -26.1403  -38.3852   22.9160 C   0  0  0  0  0  0  0  0  0  0  0  0
  -27.3901  -36.0619   22.0290 C   0  0  0  0  0  0  0  0  0  0  0  0
  -27.1762  -30.6544   19.1622 C   0  0  0  0  0  0  0  0  0  0  0  0
  -24.2495   -7.5805   20.3122 C   0  0  0  0  0  0  0  0  0  0  0  0
  -23.9673   -8.1072   22.6532 C   0  0  0  0  0  0  0  0  0  0  0  0
  -28.0781  -29.5935   19.0922 C   0  0  0  0  0  0  0  0  0  0  0  0
  -22.9907   -4.8448   23.9265 C   0  0  0  0  0  0  0  0  0  0  0  0
  -21.9336   -4.5159   24.7750 C   0  0  0  0  0  0  0  0  0  0  0  0
  -26.9037  -28.4848   20.8841 C   0  0  0  0  0  0  0  0  0  0  0  0
  -25.7203  -21.4011   21.3715 C   0  0  0  0  0  0  0  0  0  0  0  0
  -25.3504  -19.2114   22.3230 C   0  0  0  0  0  0  0  0  0  0  0  0
  -27.4557  -19.7243   21.2546 C   0  0  0  0  0  0  0  0  0  0  0  0
  -20.3802   -5.5498   23.2402 C   0  0  0  0  0  0  0  0  0  0  0  0
  -24.4286   -9.8690   21.0656 C   0  0  0  0  0  0  0  0  0  0  0  0
  -23.6788  -12.2272   20.4456 C   0  0  0  0  0  0  0  0  0  0  0  0
  -25.7784  -37.1513   23.4792 C   0  0  0  0  0  0  0  0  0  0  0  0
  -26.1360  -30.6435   20.1026 C   0  0  0  0  0  0  0  0  0  0  0  0
  -26.4170  -35.9762   23.0391 C   0  0  0  0  0  0  0  0  0  0  0  0
  -25.9884  -29.5456   20.9623 C   0  0  0  0  0  0  0  0  0  0  0  0
  -24.8952  -20.5002   22.0447 C   0  0  0  0  0  0  0  0  0  0  0  0
  -27.0006  -21.0131   20.9764 C   0  0  0  0  0  0  0  0  0  0  0  0
  -26.6307  -18.8234   21.9279 C   0  0  0  0  0  0  0  0  0  0  0  0
  -24.0017   -7.1688   21.6217 C   0  0  0  0  0  0  0  0  0  0  0  0
  -27.9437  -28.5098   19.9552 C   0  0  0  0  0  0  0  0  0  0  0  0
  -22.7426   -5.5263   22.7350 C   0  0  0  0  0  0  0  0  0  0  0  0
  -20.6283   -4.8683   24.4318 C   0  0  0  0  0  0  0  0  0  0  0  0
  -21.4374   -5.8787   22.3918 C   0  0  0  0  0  0  0  0  0  0  0  0
  -24.6495  -11.2637   20.7791 C   0  0  0  0  0  0  0  0  0  0  0  0
  -24.3926  -13.3876   20.2713 C   0  0  0  0  0  0  0  0  0  0  0  0
  -28.8402  -23.8364   19.5578 C   0  0  0  0  0  0  0  0  0  0  0  0
  -29.4792  -22.7475   18.8624 C   0  0  0  0  0  0  0  0  0  0  0  0
  -27.7912  -23.3068   20.4731 C   0  0  0  0  0  0  0  0  0  0  0  0
  -30.4647  -22.8031   17.9601 C   0  0  0  0  0  0  0  0  0  0  0  0
  -29.0748  -25.1503   19.4704 C   0  0  0  0  0  0  0  0  0  0  0  0
  -23.5158  -21.4184   23.6190 C   0  0  0  0  0  0  0  0  0  0  0  0
  -22.2589  -12.0858   20.3058 C   0  0  0  0  0  0  0  0  0  0  0  0
  -25.3186  -32.4802   22.5647 C   0  0  0  0  0  0  0  0  0  0  0  0
  -22.6962  -30.5717   22.6166 C   0  0  0  0  0  0  0  0  0  0  0  0
  -22.1618  -23.3712   24.4610 C   0  0  0  0  0  0  0  0  0  0  0  0
  -21.2831  -27.5677   21.8257 C   0  0  0  0  0  0  0  0  0  0  0  0
  -28.3363  -16.9699   21.8891 C   0  0  0  0  0  0  0  0  0  0  0  0
  -24.7601  -37.1318   24.5916 C   0  0  0  0  0  0  0  0  0  0  0  0
  -25.1555  -31.7832   20.1473 C   0  0  0  0  0  0  0  0  0  0  0  0
  -24.8767  -29.4761   21.9761 C   0  0  0  0  0  0  0  0  0  0  0  0
  -28.8301  -21.4824   19.3363 C   0  0  0  0  0  0  0  0  0  0  0  0
  -24.1854  -35.7447   24.8670 C   0  0  0  0  0  0  0  0  0  0  0  0
  -29.3838  -14.1691   19.9565 C   0  0  0  0  0  0  0  0  0  0  0  0
  -25.3023  -34.7080   24.9351 C   0  0  0  0  0  0  0  0  0  0  0  0
  -28.1656  -13.2428   19.9708 C   0  0  0  0  0  0  0  0  0  0  0  0
  -29.5617  -14.8927   21.2900 C   0  0  0  0  0  0  0  0  0  0  0  0
  -27.1567  -14.6868   21.7829 C   0  0  0  0  0  0  0  0  0  0  0  0
  -26.0544  -34.6189   23.6017 C   0  0  1  0  0  0  0  0  0  0  0  0
  -24.4409  -31.9043   21.4897 C   0  0  1  0  0  0  0  0  0  0  0  0
  -26.8988  -13.9849   20.4396 C   0  0  2  0  0  0  0  0  0  0  0  0
  -21.8522  -21.0789   25.4067 C   0  0  0  0  0  0  0  0  0  0  0  0
  -19.4858  -25.8350   21.5706 C   0  0  0  0  0  0  0  0  0  0  0  0
  -23.2952  -30.0405   25.5609 C   0  0  0  0  0  0  0  0  0  0  0  0
  -21.7439  -28.0785   25.4506 C   0  0  0  0  0  0  0  0  0  0  0  0
  -20.8741  -30.3790   25.0335 C   0  0  0  0  0  0  0  0  0  0  0  0
  -20.5517  -28.5552   19.1333 C   0  0  0  0  0  0  0  0  0  0  0  0
  -28.3344  -26.1830   20.2538 C   0  0  0  0  0  0  0  0  0  1  0  0
  -22.1810  -21.8825   24.1526 C   0  0  2  0  0  0  0  0  0  0  0  0
  -22.3338  -29.2710   23.2917 C   0  0  1  0  0  0  0  0  0  0  0  0
  -19.9640  -27.2191   21.1601 C   0  0  2  0  0  0  0  0  0  0  0  0
  -22.0840  -29.4442   24.8165 C   0  0  0  0  0  0  0  0  0  0  0  0
  -25.8857  -11.7682   20.8151 N   0  0  0  0  0  0  0  0  0  0  0  0
  -23.6110  -20.8892   22.4398 N   0  0  0  0  0  0  0  0  0  0  0  0
  -25.6967  -13.0613   20.5018 N   0  0  0  0  0  0  0  0  0  0  0  0
  -27.8239  -21.9119   20.3056 N   0  0  0  0  0  0  0  0  0  0  0  0
  -23.9472  -30.6178   21.9853 N   0  0  0  0  0  0  0  0  0  0  0  0
  -28.3229  -15.5764   21.6681 N   0  0  0  0  0  0  0  0  0  0  0  0
  -24.0257  -14.6451   19.9449 N   0  0  0  0  0  0  0  0  0  0  0  0
  -21.6888  -10.8236   20.5204 N   0  0  0  0  0  0  0  0  0  0  0  0
  -20.9220  -23.9469   24.2878 N   0  0  0  0  0  0  0  0  0  0  0  0
  -27.0937  -17.5146   22.2112 N   0  0  0  0  0  0  0  0  0  0  0  0
  -25.2866  -33.8598   22.6381 N   0  0  0  0  0  0  0  0  0  0  0  0
  -21.1940  -28.7334   22.5567 N   0  0  0  0  0  0  0  0  0  0  0  0
  -20.1091  -27.2455   19.6772 N   0  3  0  0  0  0  0  0  0  0  0  0
  -27.0730  -23.9716   21.2009 O   0  0  0  0  0  0  0  0  0  0  0  0
  -21.5196  -13.0467   19.9837 O   0  0  0  0  0  0  0  0  0  0  0  0
  -25.9752  -31.7286   23.2758 O   0  0  0  0  0  0  0  0  0  0  0  0
  -21.8957  -31.5099   22.6421 O   0  0  0  0  0  0  0  0  0  0  0  0
  -23.1553  -23.9967   24.8236 O   0  0  0  0  0  0  0  0  0  0  0  0
  -22.2907  -26.8732   21.7117 O   0  0  0  0  0  0  0  0  0  0  0  0
  -29.3685  -17.6356   21.7726 O   0  0  0  0  0  0  0  0  0  0  0  0
  -23.7931   -5.8515   21.8934 O   0  0  0  0  0  0  0  0  0  0  0  0
  -28.8230  -27.4733   19.8895 O   0  0  0  0  0  0  0  0  0  1  0  0
  -19.6131   -4.5510   25.2459 F   0  0  0  0  0  0  0  0  0  0  0  0
  -21.1927   -6.5324   21.2479 F   0  0  0  0  0  0  0  0  0  0  0  0
  1  2  1  0  0  0  0
  1  5  2  0  0  0  0
  2  6  2  0  0  0  0
  3  8  2  0  0  0  0
  3 18  1  0  0  0  0
  4  9  1  0  0  0  0
  4 18  2  0  0  0  0
  5 20  1  0  0  0  0
  6 22  1  0  0  0  0
  7 10  2  0  0  0  0
  7 21  1  0  0  0  0
  8 27  1  0  0  0  0
  9 27  2  0  0  0  0
 10 28  1  0  0  0  0
 11 12  2  0  0  0  0
 11 29  1  0  0  0  0
 12 30  1  0  0  0  0
 13 23  1  0  0  0  0
 13 28  2  0  0  0  0
 14 24  2  0  0  0  0
 14 25  1  0  0  0  0
 15 24  1  0  0  0  0
 15 26  2  0  0  0  0
 16 25  2  0  0  0  0
 16 26  1  0  0  0  0
 17 30  2  0  0  0  0
 17 31  1  0  0  0  0
 18 32  1  0  0  0  0
 19 32  1  0  0  0  0
 19 33  2  0  0  0  0
 19 40  1  0  0  0  0
 20 22  2  0  0  0  0
 20 46  1  0  0  0  0
 21 23  2  0  0  0  0
 21 47  1  0  0  0  0
 22 56  1  0  0  0  0
 23 48  1  0  0  0  0
 24 71  1  0  0  0  0
 25 73  1  0  0  0  0
 26 79  1  0  0  0  0
 27 90  1  0  0  0  0
 28 91  1  0  0  0  0
 29 31  2  0  0  0  0
 29 90  1  0  0  0  0
 30 92  1  0  0  0  0
 31 93  1  0  0  0  0
 32 70  2  0  0  0  0
 33 72  1  0  0  0  0
 33 76  1  0  0  0  0
 34 35  1  0  0  0  0
 34 36  1  0  0  0  0
 34 38  2  0  0  0  0
 35 37  2  0  0  0  0
 35 49  1  0  0  0  0
 36 73  1  0  0  0  0
 36 83  2  0  0  0  0
 38 65  1  0  0  0  0
 39 66  1  0  0  0  0
 39 71  2  0  0  0  0
 40 77  1  0  0  0  0
 40 84  2  0  0  0  0
 41 57  1  0  0  0  0
 41 80  1  0  0  0  0
 41 85  2  0  0  0  0
 42 67  1  0  0  0  0
 42 74  1  0  0  0  0
 42 86  2  0  0  0  0
 43 66  1  0  0  0  0
 43 78  1  0  0  0  0
 43 87  2  0  0  0  0
 44 68  1  0  0  0  0
 44 81  1  0  0  0  0
 44 88  2  0  0  0  0
 45 75  1  0  0  0  0
 45 79  1  0  0  0  0
 45 89  2  0  0  0  0
 46 50  1  0  0  0  0
 47 57  1  0  0  0  0
 48 74  1  0  0  0  0
 49 73  1  0  0  0  0
 50 52  1  0  0  0  0
 51 53  1  0  0  0  0
 51 54  1  0  0  0  0
 52 56  1  0  0  0  0
 53 58  1  0  0  0  0
 54 75  1  0  0  0  0
 55 58  1  0  0  0  0
 55 75  1  0  0  0  0
 56 80  1  0  0  0  0
 57 74  1  0  0  0  0
 58 72  1  0  0  0  0
 59 66  1  0  0  0  0
 60 68  1  0  0  0  0
 61 69  1  0  0  0  0
 62 69  1  0  0  0  0
 63 69  1  0  0  0  0
 64 82  1  0  0  0  0
 65 91  1  0  0  0  0
 67 69  1  0  0  0  0
 67 81  1  0  0  0  0
 68 82  1  0  0  0  0
 70 72  1  0  0  0  0
M  CHG  1  82   1
M  ISO  4  45 100  65 101  79 100  91 101
M  END
> <Batch ID>
0076

> <Smiles>
C=C1CN(c2cc(NC=C(C)C(N)=O)cc([100NH:0][100C:0](=O)N3CCCC(n4nc(-c5ccc(Oc6ccc(F)cc6F)cc5)c(C(N)=O)c4N)C3)c2)C(=O)C1=C[101CH2:1][101O:1]c1ccc2c(c1)CN(C(=O)C(NC(=O)C(C)NC)C(C)(C)C)C(C(=O)NC1CCCc3ccccc31)C2

> <Shape>
0.337

> <Color>
0.093

> <Negative vol penalty>
0.000

$$$$

  -OEChem-04042323503D

 87 96  0     1  0  0  0  0  0999 V2000
  -26.8129  -34.3532   25.0284 C   0  0  0  0  0  0  0  0  0  0  0  0
  -27.2066  -33.1212   24.5159 C   0  0  0  0  0  0  0  0  0  0  0  0
  -24.8007   -8.6506   20.8601 C   0  0  0  0  0  0  0  0  0  0  0  0
  -23.1135  -10.2288   20.1533 C   0  0  0  0  0  0  0  0  0  0  0  0
  -25.5017  -34.5385   25.4649 C   0  0  0  0  0  0  0  0  0  0  0  0
  -26.2896  -32.0734   24.4407 C   0  0  0  0  0  0  0  0  0  0  0  0
  -26.4872  -29.6334   20.0076 C   0  0  0  0  0  0  0  0  0  0  0  0
  -27.8450  -20.5753   16.8773 C   0  0  0  0  0  0  0  0  0  0  0  0
  -23.8026   -7.7502   21.2324 C   0  0  0  0  0  0  0  0  0  0  0  0
  -22.1153   -9.3283   20.5255 C   0  0  0  0  0  0  0  0  0  0  0  0
  -27.5292  -28.7250   19.8267 C   0  0  0  0  0  0  0  0  0  0  0  0
  -21.6760   -7.3212   23.8243 C   0  0  0  0  0  0  0  0  0  0  0  0
  -27.7497  -19.3148   16.2876 C   0  0  0  0  0  0  0  0  0  0  0  0
  -21.8097   -6.6792   25.0553 C   0  0  0  0  0  0  0  0  0  0  0  0
  -26.0264  -26.9087   20.3385 C   0  0  0  0  0  0  0  0  0  0  0  0
  -28.1300  -19.5411   19.0421 C   0  0  0  0  0  0  0  0  0  0  0  0
  -21.8267   -4.5378   23.9366 C   0  0  0  0  0  0  0  0  0  0  0  0
  -24.4562   -9.8899   20.3206 C   0  0  0  0  0  0  0  0  0  0  0  0
  -26.1116  -10.9259   18.6793 C   0  0  0  0  0  0  0  0  0  0  0  0
  -24.5656  -33.4953   25.3860 C   0  0  0  0  0  0  0  0  0  0  0  0
  -25.2075  -29.1865   20.3666 C   0  0  0  0  0  0  0  0  0  0  0  0
  -24.9651  -32.2445   24.8778 C   0  0  0  0  0  0  0  0  0  0  0  0
  -24.9693  -27.8133   20.5208 C   0  0  0  0  0  0  0  0  0  0  0  0
  -28.0352  -20.6885   18.2545 C   0  0  0  0  0  0  0  0  0  0  0  0
  -28.0347  -18.2806   18.4524 C   0  0  0  0  0  0  0  0  0  0  0  0
  -22.4599   -8.0890   21.0650 C   0  0  0  0  0  0  0  0  0  0  0  0
  -27.2996  -27.3626   19.9950 C   0  0  0  0  0  0  0  0  0  0  0  0
  -21.6176   -6.5716   22.6494 C   0  0  0  0  0  0  0  0  0  0  0  0
  -21.8850   -5.2875   25.1115 C   0  0  0  0  0  0  0  0  0  0  0  0
  -27.8445  -18.1675   17.0752 C   0  0  0  0  0  0  0  0  0  0  0  0
  -21.6929   -5.1799   22.7056 C   0  0  0  0  0  0  0  0  0  0  0  0
  -25.4868  -10.8207   19.9364 C   0  0  0  0  0  0  0  0  0  0  0  0
  -27.0101  -11.9542   18.8275 C   0  0  0  0  0  0  0  0  0  0  0  0
  -28.2029  -24.2203   19.1847 C   0  0  0  0  0  0  0  0  0  0  0  0
  -28.3730  -23.6127   20.4806 C   0  0  0  0  0  0  0  0  0  0  0  0
  -28.0484  -23.1638   18.1461 C   0  0  0  0  0  0  0  0  0  0  0  0
  -28.5413  -24.2132   21.6636 C   0  0  0  0  0  0  0  0  0  0  0  0
  -25.8988  -10.1626   17.4845 C   0  0  0  0  0  0  0  0  0  0  0  0
  -28.1727  -25.5163   18.8549 C   0  0  0  0  0  0  0  0  0  1  0  0
  -23.2918  -29.6384   22.8625 C   0  0  0  0  0  0  0  0  0  0  0  0
  -21.1849  -27.9605   21.0548 C   0  0  0  0  0  0  0  0  0  0  0  0
  -20.6737  -25.7083   18.5422 C   0  0  0  0  0  0  0  0  0  0  0  0
  -28.3206  -17.0551   20.6348 C   0  0  0  0  0  0  0  0  0  0  0  0
  -23.1723  -33.7288   25.9140 C   0  0  0  0  0  0  0  0  0  0  0  0
  -24.0877  -30.1771   20.5318 C   0  0  0  0  0  0  0  0  0  0  0  0
  -23.6087  -27.2805   20.8860 C   0  0  0  0  0  0  0  0  0  0  0  0
  -28.3286  -22.1281   20.2789 C   0  0  0  0  0  0  0  0  0  0  0  0
  -22.1626  -32.6809   25.4528 C   0  0  0  0  0  0  0  0  0  0  0  0
  -28.5747  -14.3886   22.9805 C   0  0  0  0  0  0  0  0  0  0  0  0
  -22.7371  -31.2774   25.6171 C   0  0  0  0  0  0  0  0  0  0  0  0
  -27.8454  -13.2313   22.2943 C   0  0  0  0  0  0  0  0  0  0  0  0
  -27.9030  -15.7308   22.6956 C   0  0  0  0  0  0  0  0  0  0  0  0
  -26.9614  -14.8720   20.5873 C   0  0  0  0  0  0  0  0  0  0  0  0
  -23.9928  -31.0911   24.7570 C   0  0  1  0  0  0  0  0  0  0  0  0
  -22.9484  -29.6517   21.3998 C   0  0  1  0  0  0  0  0  0  0  0  0
  -27.6388  -13.5071   20.7920 C   0  0  2  0  0  0  0  0  0  0  0  0
  -27.9872  -26.0105   17.4564 C   0  0  0  0  0  0  0  0  0  0  0  0
  -18.8435  -24.5054   17.3172 C   0  0  0  0  0  0  0  0  0  0  0  0
  -20.8261  -26.0866   23.4360 C   0  0  0  0  0  0  0  0  0  0  0  0
  -19.7732  -24.4285   21.8835 C   0  0  0  0  0  0  0  0  0  0  0  0
  -18.7108  -26.6586   22.2306 C   0  0  0  0  0  0  0  0  0  0  0  0
  -21.4414  -26.9304   15.9583 C   0  0  0  0  0  0  0  0  0  0  0  0
  -20.8467  -26.4988   20.8873 C   0  0  1  0  0  0  0  0  0  0  0  0
  -19.7433  -25.7311   17.3429 C   0  0  2  0  0  0  0  0  0  0  0  0
  -20.0654  -25.9280   22.1044 C   0  0  0  0  0  0  0  0  0  0  0  0
  -25.9493  -11.7109   20.8183 N   0  0  0  0  0  0  0  0  0  0  0  0
  -26.8744  -12.3852   20.1143 N   0  0  0  0  0  0  0  0  0  0  0  0
  -28.1301  -21.9458   18.8424 N   0  0  0  0  0  0  0  0  0  0  0  0
  -22.5478  -28.2893   21.0428 N   0  0  0  0  0  0  0  0  0  0  0  0
  -27.7442  -15.9251   21.2527 N   0  0  0  0  0  0  0  0  0  0  0  0
  -27.8952  -12.5225   17.9813 N   0  0  0  0  0  0  0  0  0  0  0  0
  -24.9374   -9.1430   17.5054 N   0  0  0  0  0  0  0  0  0  0  0  0
  -28.1317  -17.1166   19.2545 N   0  0  0  0  0  0  0  0  0  0  0  0
  -23.6299  -30.8774   23.3724 N   0  0  0  0  0  0  0  0  0  0  0  0
  -20.1385  -26.3866   19.6168 N   0  0  0  0  0  0  0  0  0  0  0  0
  -20.5299  -25.7633   16.0776 N   0  3  0  0  0  0  0  0  0  0  0  0
  -27.8867  -23.3511   16.9519 O   0  0  0  0  0  0  0  0  0  0  0  0
  -26.5537  -10.3674   16.4344 O   0  0  0  0  0  0  0  0  0  0  0  0
  -23.2515  -28.5824   23.4830 O   0  0  0  0  0  0  0  0  0  0  0  0
  -20.2731  -28.7811   21.1842 O   0  0  0  0  0  0  0  0  0  0  0  0
  -21.7644  -25.1420   18.5284 O   0  0  0  0  0  0  0  0  0  0  0  0
  -28.9597  -17.8914   21.2783 O   0  0  0  0  0  0  0  0  0  0  0  0
  -21.4856   -7.2106   21.4279 O   0  0  0  0  0  0  0  0  0  0  0  0
  -28.3150  -26.4738   19.8197 O   0  0  0  0  0  0  0  0  0  1  0  0
  -22.0150   -4.6711   26.2936 F   0  0  0  0  0  0  0  0  0  0  0  0
  -27.7512  -16.9614   16.4975 F   0  0  0  0  0  0  0  0  0  0  0  0
  -21.6386   -4.4545   21.5802 F   0  0  0  0  0  0  0  0  0  0  0  0
  1  2  1  0  0  0  0
  1  5  2  0  0  0  0
  2  6  2  0  0  0  0
  3  9  2  0  0  0  0
  3 18  1  0  0  0  0
  4 10  1  0  0  0  0
  4 18  2  0  0  0  0
  5 20  1  0  0  0  0
  6 22  1  0  0  0  0
  7 11  2  0  0  0  0
  7 21  1  0  0  0  0
  8 13  2  0  0  0  0
  8 24  1  0  0  0  0
  9 26  1  0  0  0  0
 10 26  2  0  0  0  0
 11 27  1  0  0  0  0
 12 14  2  0  0  0  0
 12 28  1  0  0  0  0
 13 30  1  0  0  0  0
 14 29  1  0  0  0  0
 15 23  1  0  0  0  0
 15 27  2  0  0  0  0
 16 24  2  0  0  0  0
 16 25  1  0  0  0  0
 17 29  2  0  0  0  0
 17 31  1  0  0  0  0
 18 32  1  0  0  0  0
 19 32  1  0  0  0  0
 19 33  2  0  0  0  0
 19 38  1  0  0  0  0
 20 22  2  0  0  0  0
 20 44  1  0  0  0  0
 21 23  2  0  0  0  0
 21 45  1  0  0  0  0
 22 54  1  0  0  0  0
 23 46  1  0  0  0  0
 24 68  1  0  0  0  0
 25 30  2  0  0  0  0
 25 73  1  0  0  0  0
 26 83  1  0  0  0  0
 27 84  1  0  0  0  0
 28 31  2  0  0  0  0
 28 83  1  0  0  0  0
 29 85  1  0  0  0  0
 30 86  1  0  0  0  0
 31 87  1  0  0  0  0
 32 66  2  0  0  0  0
 33 67  1  0  0  0  0
 33 71  1  0  0  0  0
 34 35  1  0  0  0  0
 34 36  1  0  0  0  0
 34 39  2  0  0  0  0
 35 37  2  0  0  0  0
 35 47  1  0  0  0  0
 36 68  1  0  0  0  0
 36 77  2  0  0  0  0
 38 72  1  0  0  0  0
 38 78  2  0  0  0  0
 39 57  1  0  0  0  0
 39 84  1  0  0  0  0
 40 55  1  0  0  0  0
 40 74  1  0  0  0  0
 40 79  2  0  0  0  0
 41 63  1  0  0  0  0
 41 69  1  0  0  0  0
 41 80  2  0  0  0  0
 42 64  1  0  0  0  0
 42 75  1  0  0  0  0
 42 81  2  0  0  0  0
 43 70  1  0  0  0  0
 43 73  1  0  0  0  0
 43 82  2  0  0  0  0
 44 48  1  0  0  0  0
 45 55  1  0  0  0  0
 46 69  1  0  0  0  0
 47 68  1  0  0  0  0
 48 50  1  0  0  0  0
 49 51  1  0  0  0  0
 49 52  1  0  0  0  0
 50 54  1  0  0  0  0
 51 56  1  0  0  0  0
 52 70  1  0  0  0  0
 53 56  1  0  0  0  0
 53 70  1  0  0  0  0
 54 74  1  0  0  0  0
 55 69  1  0  0  0  0
 56 67  1  0  0  0  0
 58 64  1  0  0  0  0
 59 65  1  0  0  0  0
 60 65  1  0  0  0  0
 61 65  1  0  0  0  0
 62 76  1  0  0  0  0
 63 65  1  0  0  0  0
 63 75  1  0  0  0  0
 64 76  1  0  0  0  0
 66 67  1  0  0  0  0
M  CHG  1  76   1
M  ISO  4  39 101  43 100  73 100  84 101
M  END
> <Batch ID>
0076

> <Smiles>
C=C1CN(c2ccc(F)c([100NH:0][100C:0](=O)N3CCCC(n4nc(-c5ccc(Oc6ccc(F)cc6F)cc5)c(C(N)=O)c4N)C3)c2)C(=O)C1=[101C:1](C)[101O:1]c1ccc2c(c1)CN(C(=O)C(NC(=O)C(C)NC)C(C)(C)C)C(C(=O)NC1CCCc3ccccc31)C2

> <Shape>
0.316

> <Color>
0.118

> <Negative vol penalty>
0.000

$$$$

  -OEChem-04042323503D

 76 83  0     1  0  0  0  0  0999 V2000
  -19.4640  -33.9667   21.3049 C   0  0  0  0  0  0  0  0  0  0  0  0
  -20.7559  -33.5936   20.9483 C   0  0  0  0  0  0  0  0  0  0  0  0
  -25.6506  -15.5392   21.4985 C   0  0  0  0  0  0  0  0  0  0  0  0
  -24.6025  -17.1284   20.0109 C   0  0  0  0  0  0  0  0  0  0  0  0
  -18.7941  -33.2773   22.3147 C   0  0  0  0  0  0  0  0  0  0  0  0
  -21.3791  -32.5313   21.6023 C   0  0  0  0  0  0  0  0  0  0  0  0
  -25.2814  -28.4885   19.1664 C   0  0  0  0  0  0  0  0  0  0  0  0
  -24.4989  -14.7529   21.4701 C   0  0  0  0  0  0  0  0  0  0  0  0
  -23.4507  -16.3421   19.9825 C   0  0  0  0  0  0  0  0  0  0  0  0
  -26.6732  -28.4072   19.1728 C   0  0  0  0  0  0  0  0  0  0  0  0
  -23.0560  -12.5234   19.3772 C   0  0  0  0  0  0  0  0  0  0  0  0
  -23.2144  -11.1475   19.2116 C   0  0  0  0  0  0  0  0  0  0  0  0
  -26.5705  -26.9003   21.0538 C   0  0  0  0  0  0  0  0  0  0  0  0
  -22.1249  -10.7667   21.3342 C   0  0  0  0  0  0  0  0  0  0  0  0
  -25.7024  -16.7270   20.7690 C   0  0  0  0  0  0  0  0  0  0  0  0
  -27.9983  -17.4592   19.9320 C   0  0  0  0  0  0  0  0  0  0  0  0
  -19.4058  -32.1999   22.9747 C   0  0  0  0  0  0  0  0  0  0  0  0
  -24.5229  -27.7837   20.1121 C   0  0  0  0  0  0  0  0  0  0  0  0
  -20.7173  -31.8277   22.6228 C   0  0  0  0  0  0  0  0  0  0  0  0
  -25.1691  -26.9724   21.0557 C   0  0  0  0  0  0  0  0  0  0  0  0
  -23.3990  -15.1543   20.7120 C   0  0  0  0  0  0  0  0  0  0  0  0
  -27.3181  -27.6153   20.1184 C   0  0  0  0  0  0  0  0  0  0  0  0
  -22.4322  -13.0210   20.5213 C   0  0  0  0  0  0  0  0  0  0  0  0
  -22.7488  -10.2691   20.1901 C   0  0  0  0  0  0  0  0  0  0  0  0
  -21.9666  -12.1426   21.4998 C   0  0  0  0  0  0  0  0  0  0  0  0
  -26.8917  -17.5400   20.7984 C   0  0  0  0  0  0  0  0  0  0  0  0
  -28.8532  -18.4388   20.3748 C   0  0  0  0  0  0  0  0  0  0  0  0
  -30.4263  -25.9326   20.4692 C   0  0  0  0  0  0  0  0  0  0  0  0
  -29.2493  -26.3065   19.9504 C   0  0  0  0  0  0  0  0  0  1  0  0
  -28.2325  -16.5776   18.8259 C   0  0  0  0  0  0  0  0  0  0  0  0
  -22.5065  -28.6005   22.4296 C   0  0  0  0  0  0  0  0  0  0  0  0
  -22.0709  -25.3936   22.6484 C   0  0  0  0  0  0  0  0  0  0  0  0
  -23.3041  -22.2584   22.1035 C   0  0  0  0  0  0  0  0  0  0  0  0
  -29.7805  -23.6378   22.1792 C   0  0  0  0  0  0  0  0  0  0  0  0
  -18.6597  -31.5152   24.0924 C   0  0  0  0  0  0  0  0  0  0  0  0
  -23.0212  -27.8609   20.0750 C   0  0  0  0  0  0  0  0  0  0  0  0
  -24.3998  -26.1799   22.0796 C   0  0  0  0  0  0  0  0  0  0  0  0
  -19.2499  -30.1614   24.4790 C   0  0  0  0  0  0  0  0  0  0  0  0
  -28.7621  -21.2276   24.5939 C   0  0  0  0  0  0  0  0  0  0  0  0
  -20.7656  -30.2604   24.6196 C   0  0  0  0  0  0  0  0  0  0  0  0
  -28.2705  -20.0499   23.7504 C   0  0  0  0  0  0  0  0  0  0  0  0
  -28.4161  -22.5675   23.9483 C   0  0  0  0  0  0  0  0  0  0  0  0
  -28.3759  -21.5396   21.7087 C   0  0  0  0  0  0  0  0  0  0  0  0
  -21.4176  -30.6649   23.2919 C   0  0  1  0  0  0  0  0  0  0  0  0
  -22.3715  -27.5061   21.4090 C   0  0  1  0  0  0  0  0  0  0  0  0
  -28.7508  -20.1661   22.2913 C   0  0  2  0  0  0  0  0  0  0  0  0
  -22.7353  -19.8351   22.4217 C   0  0  0  0  0  0  0  0  0  0  0  0
  -32.4580  -24.4589   21.0269 C   0  0  0  0  0  0  0  0  0  0  0  0
  -31.3123  -24.3083   18.8118 C   0  0  0  0  0  0  0  0  0  0  0  0
  -22.7164  -25.6347   25.6208 C   0  0  0  0  0  0  0  0  0  0  0  0
  -23.0672  -23.1563   25.6744 C   0  0  0  0  0  0  0  0  0  0  0  0
  -20.8280  -24.0849   25.0857 C   0  0  0  0  0  0  0  0  0  0  0  0
  -23.3997  -21.7341   19.1924 C   0  0  0  0  0  0  0  0  0  0  0  0
  -22.7248  -24.2764   23.4251 C   0  0  1  0  0  0  0  0  0  0  0  0
  -22.6793  -21.0251   21.4765 C   0  0  2  0  0  0  0  0  0  0  0  0
  -31.1062  -24.5866   20.3080 C   0  0  0  0  0  0  0  0  0  0  0  0
  -22.3490  -24.3044   24.9336 C   0  0  0  0  0  0  0  0  0  0  0  0
  -27.0284  -18.4953   21.7218 N   0  0  0  0  0  0  0  0  0  0  0  0
  -28.2311  -19.0237   21.4382 N   0  0  0  0  0  0  0  0  0  0  0  0
  -22.9337  -26.2933   22.0066 N   0  0  0  0  0  0  0  0  0  0  0  0
  -28.9007  -22.6136   22.5666 N   0  0  0  0  0  0  0  0  0  0  0  0
  -30.0690  -18.8481   19.9543 N   0  0  0  0  0  0  0  0  0  0  0  0
  -27.2501  -15.6301   18.5070 N   0  0  0  0  0  0  0  0  0  0  0  0
  -21.4850  -29.5305   22.3957 N   0  0  0  0  0  0  0  0  0  0  0  0
  -22.3637  -23.0387   22.7423 N   0  0  0  0  0  0  0  0  0  0  0  0
  -30.1964  -23.6042   20.8538 N   0  0  0  0  0  0  0  0  0  0  0  0
  -23.3963  -20.6625   20.2213 N   0  3  0  0  0  0  0  0  0  0  0  0
  -29.2889  -16.6176   18.1507 O   0  0  0  0  0  0  0  0  0  0  0  0
  -23.4656  -28.6004   23.1924 O   0  0  0  0  0  0  0  0  0  0  0  0
  -20.8399  -25.4612   22.6065 O   0  0  0  0  0  0  0  0  0  0  0  0
  -24.5067  -22.5030   22.0368 O   0  0  0  0  0  0  0  0  0  0  0  0
  -30.1709  -24.5139   22.9583 O   0  0  0  0  0  0  0  0  0  0  0  0
  -22.2750  -14.3872   20.6838 O   0  0  0  0  0  0  0  0  0  0  0  0
  -28.6765  -27.5347   20.1273 O   0  0  0  0  0  0  0  0  0  1  0  0
  -22.8996   -8.9478   20.0303 F   0  0  0  0  0  0  0  0  0  0  0  0
  -21.3654  -12.6147   22.6005 F   0  0  0  0  0  0  0  0  0  0  0  0
  1  2  1  0  0  0  0
  1  5  2  0  0  0  0
  2  6  2  0  0  0  0
  3  8  2  0  0  0  0
  3 15  1  0  0  0  0
  4  9  1  0  0  0  0
  4 15  2  0  0  0  0
  5 17  1  0  0  0  0
  6 19  1  0  0  0  0
  7 10  2  0  0  0  0
  7 18  1  0  0  0  0
  8 21  1  0  0  0  0
  9 21  2  0  0  0  0
 10 22  1  0  0  0  0
 11 12  2  0  0  0  0
 11 23  1  0  0  0  0
 12 24  1  0  0  0  0
 13 20  1  0  0  0  0
 13 22  2  0  0  0  0
 14 24  2  0  0  0  0
 14 25  1  0  0  0  0
 15 26  1  0  0  0  0
 16 26  1  0  0  0  0
 16 27  2  0  0  0  0
 16 30  1  0  0  0  0
 17 19  2  0  0  0  0
 17 35  1  0  0  0  0
 18 20  2  0  0  0  0
 18 36  1  0  0  0  0
 19 44  1  0  0  0  0
 20 37  1  0  0  0  0
 21 73  1  0  0  0  0
 22 74  1  0  0  0  0
 23 25  2  0  0  0  0
 23 73  1  0  0  0  0
 24 75  1  0  0  0  0
 25 76  1  0  0  0  0
 26 58  2  0  0  0  0
 27 59  1  0  0  0  0
 27 62  1  0  0  0  0
 28 29  2  0  0  0  0
 28 56  1  0  0  0  0
 29 74  1  0  0  0  0
 30 63  1  0  0  0  0
 30 68  2  0  0  0  0
 31 45  1  0  0  0  0
 31 64  1  0  0  0  0
 31 69  2  0  0  0  0
 32 54  1  0  0  0  0
 32 60  1  0  0  0  0
 32 70  2  0  0  0  0
 33 55  1  0  0  0  0
 33 65  1  0  0  0  0
 33 71  2  0  0  0  0
 34 61  1  0  0  0  0
 34 66  1  0  0  0  0
 34 72  2  0  0  0  0
 35 38  1  0  0  0  0
 36 45  1  0  0  0  0
 37 60  1  0  0  0  0
 38 40  1  0  0  0  0
 39 41  1  0  0  0  0
 39 42  1  0  0  0  0
 40 44  1  0  0  0  0
 41 46  1  0  0  0  0
 42 61  1  0  0  0  0
 43 46  1  0  0  0  0
 43 61  1  0  0  0  0
 44 64  1  0  0  0  0
 45 60  1  0  0  0  0
 46 59  1  0  0  0  0
 47 55  1  0  0  0  0
 48 56  1  0  0  0  0
 49 56  1  0  0  0  0
 50 57  1  0  0  0  0
 51 57  1  0  0  0  0
 52 57  1  0  0  0  0
 53 67  1  0  0  0  0
 54 57  1  0  0  0  0
 54 65  1  0  0  0  0
 55 67  1  0  0  0  0
 56 66  1  0  0  0  0
 58 59  1  0  0  0  0
M  CHG  1  67   1
M  ISO  4  29 101  34 100  66 100  74 101
M  END
> <Batch ID>
0076

> <Smiles>
CNC(C)C(=O)NC(C(=O)N1Cc2cc([101O:1][101CH:1]=CC(C)(C)[100NH:0][100C:0](=O)N3CCCC(n4nc(-c5ccc(Oc6ccc(F)cc6F)cc5)c(C(N)=O)c4N)C3)ccc2CC1C(=O)NC1CCCc2ccccc21)C(C)(C)C

> <Shape>
0.186

> <Color>
0.088

> <Negative vol penalty>
0.000

$$$$

  -OEChem-04042323503D

 88 97  0     1  0  0  0  0  0999 V2000
  -18.4823  -33.5028   23.6227 C   0  0  0  0  0  0  0  0  0  0  0  0
  -19.6898  -33.5488   22.9333 C   0  0  0  0  0  0  0  0  0  0  0  0
  -23.9090  -13.5714   22.1034 C   0  0  0  0  0  0  0  0  0  0  0  0
  -23.2968  -14.3767   19.9093 C   0  0  0  0  0  0  0  0  0  0  0  0
  -18.1843  -32.4074   24.4321 C   0  0  0  0  0  0  0  0  0  0  0  0
  -20.6004  -32.4997   23.0537 C   0  0  0  0  0  0  0  0  0  0  0  0
  -25.5584  -28.9513   19.2929 C   0  0  0  0  0  0  0  0  0  0  0  0
  -30.1358  -24.4586   20.7900 C   0  0  0  0  0  0  0  0  0  0  0  0
  -31.2863  -24.8109   18.6949 C   0  0  0  0  0  0  0  0  0  0  0  0
  -29.6523  -23.2379   20.3192 C   0  0  0  0  0  0  0  0  0  0  0  0
  -30.8027  -23.5901   18.2241 C   0  0  0  0  0  0  0  0  0  0  0  0
  -23.1907  -12.3981   21.8732 C   0  0  0  0  0  0  0  0  0  0  0  0
  -22.5786  -13.2033   19.6791 C   0  0  0  0  0  0  0  0  0  0  0  0
  -26.8912  -28.5506   19.3763 C   0  0  0  0  0  0  0  0  0  0  0  0
  -23.6306   -9.4973   20.1925 C   0  0  0  0  0  0  0  0  0  0  0  0
  -24.2342   -8.2890   20.5406 C   0  0  0  0  0  0  0  0  0  0  0  0
  -26.2349  -26.6726   20.7407 C   0  0  0  0  0  0  0  0  0  0  0  0
  -22.4225   -7.8248   22.0702 C   0  0  0  0  0  0  0  0  0  0  0  0
  -23.9620  -14.5607   21.1214 C   0  0  0  0  0  0  0  0  0  0  0  0
  -24.4869  -16.7154   22.3822 C   0  0  0  0  0  0  0  0  0  0  0  0
  -19.0876  -31.3399   24.5549 C   0  0  0  0  0  0  0  0  0  0  0  0
  -24.5535  -28.2205   19.9429 C   0  0  0  0  0  0  0  0  0  0  0  0
  -20.3148  -31.3895   23.8665 C   0  0  0  0  0  0  0  0  0  0  0  0
  -24.8899  -27.0646   20.6619 C   0  0  0  0  0  0  0  0  0  0  0  0
  -30.9528  -25.2451   19.9778 C   0  0  0  0  0  0  0  0  0  0  0  0
  -29.9858  -22.8036   19.0363 C   0  0  0  0  0  0  0  0  0  0  0  0
  -22.5255  -12.2140   20.6611 C   0  0  0  0  0  0  0  0  0  0  0  0
  -27.2300  -27.4128   20.1027 C   0  0  0  0  0  0  0  0  0  0  0  0
  -22.4231   -9.8695   20.7833 C   0  0  0  0  0  0  0  0  0  0  0  0
  -23.6301   -7.4527   21.4794 C   0  0  0  0  0  0  0  0  0  0  0  0
  -21.8190   -9.0332   21.7221 C   0  0  0  0  0  0  0  0  0  0  0  0
  -24.7033  -15.7732   21.3588 C   0  0  0  0  0  0  0  0  0  0  0  0
  -25.4475  -17.6748   22.1744 C   0  0  0  0  0  0  0  0  0  0  0  0
  -31.7003  -28.5349   21.4701 C   0  0  0  0  0  0  0  0  0  0  0  0
  -30.7364  -27.6045   20.8746 C   0  0  0  0  0  0  0  0  0  0  0  0
  -31.5134  -29.7987   21.8708 C   0  0  0  0  0  0  0  0  0  0  0  0
  -32.6382  -20.8342   17.2410 C   0  0  0  0  0  0  0  0  0  0  0  0
  -29.4297  -27.8864   20.7412 C   0  0  0  0  0  0  0  0  0  1  0  0
  -23.5053  -16.7226   23.4273 C   0  0  0  0  0  0  0  0  0  0  0  0
  -31.5122  -20.4001   17.8283 C   0  0  0  0  0  0  0  0  0  0  0  0
  -22.4543  -28.8506   22.2451 C   0  0  0  0  0  0  0  0  0  0  0  0
  -21.3516  -25.8888   21.5142 C   0  0  0  0  0  0  0  0  0  0  0  0
  -21.9841  -22.8060   20.1938 C   0  0  0  0  0  0  0  0  0  0  0  0
  -28.2461  -21.0253   18.9875 C   0  0  0  0  0  0  0  0  0  0  0  0
  -18.7419  -30.1990   25.4788 C   0  0  0  0  0  0  0  0  0  0  0  0
  -23.1173  -28.6507   19.8209 C   0  0  0  0  0  0  0  0  0  0  0  0
  -23.8462  -26.2338   21.3611 C   0  0  0  0  0  0  0  0  0  0  0  0
  -33.0380  -27.8405   21.5183 C   0  0  0  0  0  0  0  0  0  0  0  0
  -19.5986  -28.9551   25.2577 C   0  0  0  0  0  0  0  0  0  0  0  0
  -29.4903  -17.6982   19.1479 C   0  0  0  0  0  0  0  0  0  0  0  0
  -21.0722  -29.3341   25.1499 C   0  0  0  0  0  0  0  0  0  0  0  0
  -28.3247  -16.9703   19.8166 C   0  0  0  0  0  0  0  0  0  0  0  0
  -32.8895  -26.6641   20.5507 C   0  0  0  0  0  0  0  0  0  0  0  0
  -29.0100  -18.7468   18.1440 C   0  0  0  0  0  0  0  0  0  0  0  0
  -26.8768  -18.9900   19.3747 C   0  0  0  0  0  0  0  0  0  0  0  0
  -21.3177  -30.2595   23.9521 C   0  0  1  0  0  0  0  0  0  0  0  0
  -22.2373  -28.1217   20.9492 C   0  0  1  0  0  0  0  0  0  0  0  0
  -27.3290  -17.9698   20.4311 C   0  0  1  0  0  0  0  0  0  0  0  0
  -31.5513  -19.4178   18.9644 C   0  0  0  0  0  0  0  0  0  0  0  0
  -20.8980  -20.5838   19.7703 C   0  0  0  0  0  0  0  0  0  0  0  0
  -21.6305  -25.1916   24.4716 C   0  0  0  0  0  0  0  0  0  0  0  0
  -21.4606  -22.7734   23.8460 C   0  0  0  0  0  0  0  0  0  0  0  0
  -19.5553  -24.3161   23.3846 C   0  0  0  0  0  0  0  0  0  0  0  0
  -22.3585  -23.0501   17.2681 C   0  0  0  0  0  0  0  0  0  0  0  0
  -30.1627  -20.9112   17.4099 C   0  0  0  0  0  0  0  0  0  0  0  0
  -21.6556  -24.4879   21.9876 C   0  0  1  0  0  0  0  0  0  0  0  0
  -21.2113  -21.9582   19.1996 C   0  0  2  0  0  0  0  0  0  0  0  0
  -21.0956  -24.2088   23.4110 C   0  0  0  0  0  0  0  0  0  0  0  0
  -25.7214  -16.1042   20.5601 N   0  0  0  0  0  0  0  0  0  0  0  0
  -26.1532  -17.2652   21.0816 N   0  0  0  0  0  0  0  0  0  0  0  0
  -31.4394  -26.4782   20.4521 N   0  0  0  0  0  0  0  0  0  0  0  0
  -22.4568  -26.6990   21.2176 N   0  0  0  0  0  0  0  0  0  0  0  0
  -28.0320  -19.6521   18.7638 N   0  0  0  0  0  0  0  0  0  0  0  0
  -25.7489  -18.8206   22.8216 N   0  0  0  0  0  0  0  0  0  0  0  0
  -22.2728  -17.3433   23.1820 N   0  0  0  0  0  0  0  0  0  0  0  0
  -21.3308  -29.4995   22.7206 N   0  0  0  0  0  0  0  0  0  0  0  0
  -21.1451  -23.5893   20.9579 N   0  0  0  0  0  0  0  0  0  0  0  0
  -29.4852  -21.5398   18.5490 N   0  0  0  0  0  0  0  0  0  0  0  0
  -22.0005  -21.7787   17.9482 N   0  3  0  0  0  0  0  0  0  0  0  0
  -23.7210  -16.2087   24.5510 O   0  0  0  0  0  0  0  0  0  0  0  0
  -23.5589  -28.8249   22.7751 O   0  0  0  0  0  0  0  0  0  0  0  0
  -20.1768  -26.2485   21.4046 O   0  0  0  0  0  0  0  0  0  0  0  0
  -23.2093  -22.7738   20.2860 O   0  0  0  0  0  0  0  0  0  0  0  0
  -27.3865  -21.7420   19.5142 O   0  0  0  0  0  0  0  0  0  0  0  0
  -21.8248  -11.0691   20.4360 O   0  0  0  0  0  0  0  0  0  0  0  0
  -28.5302  -27.0199   20.1863 O   0  0  0  0  0  0  0  0  0  1  0  0
  -24.2090   -6.2916   21.8125 F   0  0  0  0  0  0  0  0  0  0  0  0
  -20.6583   -9.3848   22.2921 F   0  0  0  0  0  0  0  0  0  0  0  0
  1  2  1  0  0  0  0
  1  5  2  0  0  0  0
  2  6  2  0  0  0  0
  3 12  2  0  0  0  0
  3 19  1  0  0  0  0
  4 13  1  0  0  0  0
  4 19  2  0  0  0  0
  5 21  1  0  0  0  0
  6 23  1  0  0  0  0
  7 14  2  0  0  0  0
  7 22  1  0  0  0  0
  8 10  2  0  0  0  0
  8 25  1  0  0  0  0
  9 11  1  0  0  0  0
  9 25  2  0  0  0  0
 10 26  1  0  0  0  0
 11 26  2  0  0  0  0
 12 27  1  0  0  0  0
 13 27  2  0  0  0  0
 14 28  1  0  0  0  0
 15 16  2  0  0  0  0
 15 29  1  0  0  0  0
 16 30  1  0  0  0  0
 17 24  1  0  0  0  0
 17 28  2  0  0  0  0
 18 30  2  0  0  0  0
 18 31  1  0  0  0  0
 19 32  1  0  0  0  0
 20 32  1  0  0  0  0
 20 33  2  0  0  0  0
 20 39  1  0  0  0  0
 21 23  2  0  0  0  0
 21 45  1  0  0  0  0
 22 24  2  0  0  0  0
 22 46  1  0  0  0  0
 23 56  1  0  0  0  0
 24 47  1  0  0  0  0
 25 71  1  0  0  0  0
 26 78  1  0  0  0  0
 27 85  1  0  0  0  0
 28 86  1  0  0  0  0
 29 31  2  0  0  0  0
 29 85  1  0  0  0  0
 30 87  1  0  0  0  0
 31 88  1  0  0  0  0
 32 69  2  0  0  0  0
 33 70  1  0  0  0  0
 33 74  1  0  0  0  0
 34 35  1  0  0  0  0
 34 36  2  0  0  0  0
 34 48  1  0  0  0  0
 35 38  2  0  0  0  0
 35 71  1  0  0  0  0
 37 40  2  0  0  0  0
 38 86  1  0  0  0  0
 39 75  1  0  0  0  0
 39 80  2  0  0  0  0
 40 59  1  0  0  0  0
 40 65  1  0  0  0  0
 41 57  1  0  0  0  0
 41 76  1  0  0  0  0
 41 81  2  0  0  0  0
 42 66  1  0  0  0  0
 42 72  1  0  0  0  0
 42 82  2  0  0  0  0
 43 67  1  0  0  0  0
 43 77  1  0  0  0  0
 43 83  2  0  0  0  0
 44 73  1  0  0  0  0
 44 78  1  0  0  0  0
 44 84  2  0  0  0  0
 45 49  1  0  0  0  0
 46 57  1  0  0  0  0
 47 72  1  0  0  0  0
 48 53  1  0  0  0  0
 49 51  1  0  0  0  0
 50 52  1  0  0  0  0
 50 54  1  0  0  0  0
 51 56  1  0  0  0  0
 52 58  1  0  0  0  0
 53 71  1  0  0  0  0
 54 73  1  0  0  0  0
 55 58  1  0  0  0  0
 55 73  1  0  0  0  0
 56 76  1  0  0  0  0
 57 72  1  0  0  0  0
 58 70  1  0  0  0  0
 60 67  1  0  0  0  0
 61 68  1  0  0  0  0
 62 68  1  0  0  0  0
 63 68  1  0  0  0  0
 64 79  1  0  0  0  0
 65 78  1  0  0  0  0
 66 68  1  0  0  0  0
 66 77  1  0  0  0  0
 67 79  1  0  0  0  0
 69 70  1  0  0  0  0
M  CHG  1  79   1
M  ISO  4  38 101  44 100  78 100  86 101
M  END
> <Batch ID>
0076

> <Smiles>
C=C(C)C[100N:0](c1ccc(N2CCC(=C)C2=[101CH:1][101O:1]c2ccc3c(c2)CN(C(=O)C(NC(=O)C(C)NC)C(C)(C)C)C(C(=O)NC2CCCc4ccccc42)C3)cc1)[100C:0](=O)N1CCCC(n2nc(-c3ccc(Oc4ccc(F)cc4F)cc3)c(C(N)=O)c2N)C1

> <Shape>
0.234

> <Color>
0.089

> <Negative vol penalty>
0.000

$$$$

  -OEChem-04042323503D

 87 96  0     1  0  0  0  0  0999 V2000
  -17.3983  -28.7105   24.5570 C   0  0  0  0  0  0  0  0  0  0  0  0
  -17.8283  -27.6974   23.7061 C   0  0  0  0  0  0  0  0  0  0  0  0
  -23.1999   -9.9941   19.8435 C   0  0  0  0  0  0  0  0  0  0  0  0
  -23.9151   -9.7777   22.1411 C   0  0  0  0  0  0  0  0  0  0  0  0
  -17.8688  -30.0115   24.3836 C   0  0  0  0  0  0  0  0  0  0  0  0
  -18.7283  -27.9848   22.6805 C   0  0  0  0  0  0  0  0  0  0  0  0
  -23.1606  -24.3393   20.5427 C   0  0  0  0  0  0  0  0  0  0  0  0
  -22.5124   -8.7846   19.9436 C   0  0  0  0  0  0  0  0  0  0  0  0
  -23.2275   -8.5682   22.2412 C   0  0  0  0  0  0  0  0  0  0  0  0
  -23.2294  -23.4979   19.4332 C   0  0  0  0  0  0  0  0  0  0  0  0
  -20.0344   -7.5483   22.6704 C   0  0  0  0  0  0  0  0  0  0  0  0
  -19.2586   -7.3381   23.8103 C   0  0  0  0  0  0  0  0  0  0  0  0
  -24.3158  -25.2494   18.1798 C   0  0  0  0  0  0  0  0  0  0  0  0
  -28.4295  -19.4092   14.4481 C   0  0  0  0  0  0  0  0  0  0  0  0
  -27.4884  -18.3328   16.3956 C   0  0  0  0  0  0  0  0  0  0  0  0
  -29.6134  -17.5936   15.5153 C   0  0  0  0  0  0  0  0  0  0  0  0
  -20.5848   -5.3932   24.3542 C   0  0  0  0  0  0  0  0  0  0  0  0
  -23.9014  -10.4906   20.9422 C   0  0  0  0  0  0  0  0  0  0  0  0
  -24.1138  -13.0268   21.1159 C   0  0  0  0  0  0  0  0  0  0  0  0
  -18.7824  -30.3132   23.3614 C   0  0  0  0  0  0  0  0  0  0  0  0
  -23.6599  -25.6480   20.4756 C   0  0  0  0  0  0  0  0  0  0  0  0
  -19.2104  -29.2913   22.4924 C   0  0  0  0  0  0  0  0  0  0  0  0
  -24.2544  -26.1046   19.2907 C   0  0  0  0  0  0  0  0  0  0  0  0
  -27.4075  -19.2968   15.3907 C   0  0  0  0  0  0  0  0  0  0  0  0
  -29.5325  -18.5575   14.5104 C   0  0  0  0  0  0  0  0  0  0  0  0
  -28.5914  -17.4812   16.4579 C   0  0  0  0  0  0  0  0  0  0  0  0
  -22.5261   -8.0717   21.1424 C   0  0  0  0  0  0  0  0  0  0  0  0
  -23.8045  -23.9538   18.2506 C   0  0  0  0  0  0  0  0  0  0  0  0
  -21.0854   -6.6810   22.3722 C   0  0  0  0  0  0  0  0  0  0  0  0
  -19.5338   -6.2606   24.6522 C   0  0  0  0  0  0  0  0  0  0  0  0
  -21.3606   -5.6035   23.2141 C   0  0  0  0  0  0  0  0  0  0  0  0
  -24.6123  -11.7396   20.8393 C   0  0  0  0  0  0  0  0  0  0  0  0
  -25.1722  -13.8659   20.8663 C   0  0  0  0  0  0  0  0  0  0  0  0
  -26.0006  -21.1414   14.4741 C   0  0  0  0  0  0  0  0  0  0  0  0
  -22.8106  -13.4281   21.5588 C   0  0  0  0  0  0  0  0  0  0  0  0
  -22.3956  -28.5491   20.7730 C   0  0  0  0  0  0  0  0  0  0  0  0
  -25.4911  -29.4947   20.5580 C   0  0  0  0  0  0  0  0  0  0  0  0
  -28.6627  -28.8103   19.5001 C   0  0  0  0  0  0  0  0  0  0  0  0
  -29.3517  -15.2628   17.2921 C   0  0  0  0  0  0  0  0  0  0  0  0
  -19.2265  -31.7435   23.1834 C   0  0  0  0  0  0  0  0  0  0  0  0
  -23.6022  -26.5342   21.6896 C   0  0  0  0  0  0  0  0  0  0  0  0
  -24.8235  -27.4942   19.1733 C   0  0  0  0  0  0  0  0  0  0  0  0
  -20.4671  -31.8915   22.3064 C   0  0  0  0  0  0  0  0  0  0  0  0
  -30.0506  -12.8776   20.0184 C   0  0  0  0  0  0  0  0  0  0  0  0
  -20.3310  -31.0485   21.0424 C   0  0  0  0  0  0  0  0  0  0  0  0
  -28.6537  -12.4308   20.4463 C   0  0  0  0  0  0  0  0  0  0  0  0
  -30.0965  -13.2575   18.5414 C   0  0  0  0  0  0  0  0  0  0  0  0
  -25.2817  -20.4241   16.3126 C   0  0  0  0  0  0  0  0  0  0  0  0
  -27.6900  -13.8384   18.5820 C   0  0  0  0  0  0  0  0  0  0  0  0
  -20.2051  -29.5588   21.3837 C   0  0  1  0  0  0  0  0  0  0  0  0
  -24.8383  -21.5762   15.3865 C   0  0  1  0  0  0  0  0  0  0  0  0
  -23.6782  -28.0194   21.3493 C   0  0  1  0  0  0  0  0  0  0  0  0
  -27.6012  -13.4900   20.0756 C   0  0  1  0  0  0  0  0  0  0  0  0
  -30.9719  -29.7906   19.4341 C   0  0  0  0  0  0  0  0  0  0  0  0
  -24.6367  -31.3485   18.2900 C   0  0  0  0  0  0  0  0  0  0  0  0
  -27.0480  -31.5659   17.6527 C   0  0  0  0  0  0  0  0  0  0  0  0
  -26.2764  -32.3476   19.8924 C   0  0  0  0  0  0  0  0  0  0  0  0
  -28.2612  -16.8541   18.8567 C   0  0  0  0  0  0  0  0  0  0  0  0
  -29.7765  -26.5911   21.1106 C   0  0  0  0  0  0  0  0  0  0  0  0
  -26.4192  -29.8666   19.4270 C   0  0  1  0  0  0  0  0  0  0  0  0
  -30.0031  -28.9082   20.2059 C   0  0  2  0  0  0  0  0  0  0  0  0
  -26.0827  -31.2566   18.8168 C   0  0  0  0  0  0  0  0  0  0  0  0
  -25.8881  -11.7547   20.4441 N   0  0  0  0  0  0  0  0  0  0  0  0
  -26.2001  -13.0616   20.4705 N   0  0  0  0  0  0  0  0  0  0  0  0
  -26.3198  -20.1372   15.3306 N   0  0  0  0  0  0  0  0  0  0  0  0
  -24.7376  -28.3250   20.3857 N   0  0  0  0  0  0  0  0  0  0  0  0
  -29.0569  -14.2313   18.2061 N   0  0  0  0  0  0  0  0  0  0  0  0
  -30.5662  -18.6707   13.5577 N   0  0  0  0  0  0  0  0  0  0  0  0
  -25.3145  -15.2058   20.9490 N   0  0  0  0  0  0  0  0  0  0  0  0
  -21.8410  -12.4376   21.7665 N   0  0  0  0  0  0  0  0  0  0  0  0
  -21.4996  -29.0063   21.7204 N   0  0  0  0  0  0  0  0  0  0  0  0
  -27.7737  -29.7595   19.9584 N   0  0  0  0  0  0  0  0  0  0  0  0
  -28.6755  -16.4846   17.4993 N   0  0  0  0  0  0  0  0  0  0  0  0
  -30.6124  -27.5559   20.3506 N   0  3  0  0  0  0  0  0  0  0  0  0
  -26.4877  -21.5296   13.4369 O   0  0  0  0  0  0  0  0  0  0  0  0
  -22.5097  -14.6310   21.7486 O   0  0  0  0  0  0  0  0  0  0  0  0
  -22.2317  -28.5449   19.5586 O   0  0  0  0  0  0  0  0  0  0  0  0
  -25.4419  -30.2117   21.5605 O   0  0  0  0  0  0  0  0  0  0  0  0
  -28.4291  -27.9777   18.6268 O   0  0  0  0  0  0  0  0  0  0  0  0
  -30.1757  -15.1124   16.3822 O   0  0  0  0  0  0  0  0  0  0  0  0
  -24.6780  -24.1934   15.0278 O   0  0  0  0  0  0  0  0  0  0  0  0
  -26.3438  -23.3022   16.7126 O   0  0  0  0  0  0  0  0  0  0  0  0
  -21.8551   -6.8916   21.2405 O   0  0  0  0  0  0  0  0  0  0  0  0
  -23.8723  -23.1348   17.1659 O   0  0  0  0  0  0  0  0  0  1  0  0
  -18.7897   -6.0597   25.7477 F   0  0  0  0  0  0  0  0  0  0  0  0
  -22.3697   -4.7675   22.9336 F   0  0  0  0  0  0  0  0  0  0  0  0
  -25.0606  -23.2280   16.0405 S   0  0  0  0  0  0  0  0  0  1  0  0
  1  2  1  0  0  0  0
  1  5  2  0  0  0  0
  2  6  2  0  0  0  0
  3  8  2  0  0  0  0
  3 18  1  0  0  0  0
  4  9  1  0  0  0  0
  4 18  2  0  0  0  0
  5 20  1  0  0  0  0
  6 22  1  0  0  0  0
  7 10  2  0  0  0  0
  7 21  1  0  0  0  0
  8 27  1  0  0  0  0
  9 27  2  0  0  0  0
 10 28  1  0  0  0  0
 11 12  2  0  0  0  0
 11 29  1  0  0  0  0
 12 30  1  0  0  0  0
 13 23  1  0  0  0  0
 13 28  2  0  0  0  0
 14 24  1  0  0  0  0
 14 25  2  0  0  0  0
 15 24  2  0  0  0  0
 15 26  1  0  0  0  0
 16 25  1  0  0  0  0
 16 26  2  0  0  0  0
 17 30  2  0  0  0  0
 17 31  1  0  0  0  0
 18 32  1  0  0  0  0
 19 32  1  0  0  0  0
 19 33  2  0  0  0  0
 19 35  1  0  0  0  0
 20 22  2  0  0  0  0
 20 40  1  0  0  0  0
 21 23  2  0  0  0  0
 21 41  1  0  0  0  0
 22 50  1  0  0  0  0
 23 42  1  0  0  0  0
 24 65  1  0  0  0  0
 25 68  1  0  0  0  0
 26 73  1  0  0  0  0
 27 83  1  0  0  0  0
 28 84  1  0  0  0  0
 29 31  2  0  0  0  0
 29 83  1  0  0  0  0
 30 85  1  0  0  0  0
 31 86  1  0  0  0  0
 32 63  2  0  0  0  0
 33 64  1  0  0  0  0
 33 69  1  0  0  0  0
 34 51  1  0  0  0  0
 34 65  1  0  0  0  0
 34 75  2  0  0  0  0
 35 70  1  0  0  0  0
 35 76  2  0  0  0  0
 36 52  1  0  0  0  0
 36 71  1  0  0  0  0
 36 77  2  0  0  0  0
 37 60  1  0  0  0  0
 37 66  1  0  0  0  0
 37 78  2  0  0  0  0
 38 61  1  0  0  0  0
 38 72  1  0  0  0  0
 38 79  2  0  0  0  0
 39 67  1  0  0  0  0
 39 73  1  0  0  0  0
 39 80  2  0  0  0  0
 40 43  1  0  0  0  0
 41 52  1  0  0  0  0
 42 66  1  0  0  0  0
 43 45  1  0  0  0  0
 44 46  1  0  0  0  0
 44 47  1  0  0  0  0
 45 50  1  0  0  0  0
 46 53  1  0  0  0  0
 47 67  1  0  0  0  0
 48 51  1  0  0  0  0
 48 65  1  0  0  0  0
 49 53  1  0  0  0  0
 49 67  1  0  0  0  0
 50 71  1  0  0  0  0
 51 87  1  0  0  0  0
 52 66  1  0  0  0  0
 53 64  1  0  0  0  0
 54 61  1  0  0  0  0
 55 62  1  0  0  0  0
 56 62  1  0  0  0  0
 57 62  1  0  0  0  0
 58 73  1  0  0  0  0
 59 74  1  0  0  0  0
 60 62  1  0  0  0  0
 60 72  1  0  0  0  0
 61 74  1  0  0  0  0
 63 64  1  0  0  0  0
 81 87  2  0  0  0  0
 82 87  2  0  0  0  0
 84 87  1  0  0  0  0
M  CHG  1  74   1
M  ISO  4  39 100  73 100  84 101  87 101
M  END
> <Batch ID>
0076

> <Smiles>
CNC(C)C(=O)NC(C(=O)N1Cc2cc([101O:1][101S:1](=O)(=O)C3CN(c4cc(N)cc([100N:0](C)[100C:0](=O)N5CCCC(n6nc(-c7ccc(Oc8ccc(F)cc8F)cc7)c(C(N)=O)c6N)C5)c4)C3=O)ccc2CC1C(=O)NC1CCCc2ccccc21)C(C)(C)C

> <Shape>
0.255

> <Color>
0.170

> <Negative vol penalty>
0.000

$$$$

  -OEChem-04042323503D

 90 99  0     1  0  0  0  0  0999 V2000
  -33.4765  -25.7857   18.1554 C   0  0  0  0  0  0  0  0  0  0  0  0
  -32.1879  -25.2713   18.0531 C   0  0  0  0  0  0  0  0  0  0  0  0
  -23.2796  -15.5164   20.6053 C   0  0  0  0  0  0  0  0  0  0  0  0
  -23.8605  -14.5242   22.7303 C   0  0  0  0  0  0  0  0  0  0  0  0
  -33.8194  -26.5935   19.2388 C   0  0  0  0  0  0  0  0  0  0  0  0
  -31.2418  -25.5636   19.0349 C   0  0  0  0  0  0  0  0  0  0  0  0
  -25.2256  -26.3731   18.2249 C   0  0  0  0  0  0  0  0  0  0  0  0
  -25.8738  -20.9168   18.9989 C   0  0  0  0  0  0  0  0  0  0  0  0
  -27.0363  -20.2600   18.5953 C   0  0  0  0  0  0  0  0  0  0  0  0
  -22.6050  -14.3499   20.2451 C   0  0  0  0  0  0  0  0  0  0  0  0
  -23.1858  -13.3577   22.3700 C   0  0  0  0  0  0  0  0  0  0  0  0
  -24.1331  -25.5250   18.4002 C   0  0  0  0  0  0  0  0  0  0  0  0
  -21.9233   -9.9870   21.8662 C   0  0  0  0  0  0  0  0  0  0  0  0
  -22.5537   -8.7688   22.1196 C   0  0  0  0  0  0  0  0  0  0  0  0
  -23.7768  -26.4485   20.6001 C   0  0  0  0  0  0  0  0  0  0  0  0
  -27.1466  -22.1702   20.6255 C   0  0  0  0  0  0  0  0  0  0  0  0
  -24.3907   -9.4229   20.6930 C   0  0  0  0  0  0  0  0  0  0  0  0
  -23.9074  -15.6036   21.8479 C   0  0  0  0  0  0  0  0  0  0  0  0
  -24.0723  -17.9268   22.8886 C   0  0  0  0  0  0  0  0  0  0  0  0
  -32.8743  -26.9037   20.2293 C   0  0  0  0  0  0  0  0  0  0  0  0
  -25.6093  -27.2592   19.2419 C   0  0  0  0  0  0  0  0  0  0  0  0
  -31.5728  -26.3752   20.1332 C   0  0  0  0  0  0  0  0  0  0  0  0
  -24.8730  -27.3087   20.4342 C   0  0  0  0  0  0  0  0  0  0  0  0
  -28.3091  -21.5134   20.2220 C   0  0  0  0  0  0  0  0  0  0  0  0
  -25.9289  -21.8719   20.0139 C   0  0  0  0  0  0  0  0  0  0  0  0
  -28.2539  -20.5583   19.2069 C   0  0  0  0  0  0  0  0  0  0  0  0
  -22.5580  -13.2706   21.1274 C   0  0  0  0  0  0  0  0  0  0  0  0
  -23.4102  -25.5606   19.5891 C   0  0  0  0  0  0  0  0  0  0  0  0
  -22.5265  -10.9231   21.0262 C   0  0  0  0  0  0  0  0  0  0  0  0
  -23.7874   -8.4868   21.5330 C   0  0  0  0  0  0  0  0  0  0  0  0
  -23.7602  -10.6410   20.4396 C   0  0  0  0  0  0  0  0  0  0  0  0
  -24.6049  -16.8080   22.2204 C   0  0  0  0  0  0  0  0  0  0  0  0
  -25.1313  -18.7936   23.0049 C   0  0  0  0  0  0  0  0  0  0  0  0
  -23.2014  -23.6210   21.7058 C   0  0  0  0  0  0  0  0  0  0  0  0
  -23.6928  -22.7790   19.5342 C   0  0  0  0  0  0  0  0  0  0  0  0
  -22.7394  -18.1614   23.3620 C   0  0  0  0  0  0  0  0  0  0  0  0
  -28.2160  -27.6388   21.0208 C   0  0  0  0  0  0  0  0  0  0  0  0
  -26.6473  -30.2804   22.0619 C   0  0  0  0  0  0  0  0  0  0  0  0
  -23.6734  -31.8878   22.5295 C   0  0  0  0  0  0  0  0  0  0  0  0
  -30.2303  -19.0727   19.6290 C   0  0  0  0  0  0  0  0  0  0  0  0
  -33.3050  -27.7424   21.4065 C   0  0  0  0  0  0  0  0  0  0  0  0
  -26.7739  -28.1864   19.0267 C   0  0  0  0  0  0  0  0  0  0  0  0
  -25.2316  -28.2561   21.5488 C   0  0  0  0  0  0  0  0  0  0  0  0
  -24.5701  -23.0148   21.7800 C   0  0  0  0  0  0  0  0  0  0  0  0
  -32.1375  -28.3110   22.2089 C   0  0  0  0  0  0  0  0  0  0  0  0
  -29.9004  -18.8969   23.3105 C   0  0  0  0  0  0  0  0  0  0  0  0
  -31.0962  -27.2289   22.4763 C   0  0  0  0  0  0  0  0  0  0  0  0
  -28.4847  -18.3548   23.4987 C   0  0  0  0  0  0  0  0  0  0  0  0
  -30.5185  -18.4230   21.9986 C   0  0  0  0  0  0  0  0  0  0  0  0
  -28.2675  -18.1981   20.9868 C   0  0  0  0  0  0  0  0  0  0  0  0
  -30.5115  -26.6899   21.1651 C   0  0  1  0  0  0  0  0  0  0  0  0
  -27.3887  -28.6860   20.3305 C   0  0  1  0  0  0  0  0  0  0  0  0
  -27.6077  -18.6941   22.2822 C   0  0  1  0  0  0  0  0  0  0  0  0
  -22.6018  -23.4534   20.3389 C   0  0  1  0  0  0  0  0  0  1  0  0
  -21.3459  -22.5998   20.3756 C   0  0  0  0  0  0  0  0  0  0  0  0
  -22.7073  -34.0187   23.4370 C   0  0  0  0  0  0  0  0  0  0  0  0
  -27.0740  -29.2600   24.9056 C   0  0  0  0  0  0  0  0  0  0  0  0
  -25.3161  -30.8693   25.6724 C   0  0  0  0  0  0  0  0  0  0  0  0
  -27.4106  -31.7215   24.6190 C   0  0  0  0  0  0  0  0  0  0  0  0
  -30.0011  -20.2178   17.4685 C   0  0  0  0  0  0  0  0  0  0  0  0
  -22.5338  -32.6271   19.9001 C   0  0  0  0  0  0  0  0  0  0  0  0
  -25.6763  -30.5762   23.1793 C   0  0  1  0  0  0  0  0  0  0  0  0
  -23.2305  -33.3023   22.2017 C   0  0  2  0  0  0  0  0  0  0  0  0
  -29.6000  -21.8541   20.8930 C   0  0  0  0  0  0  0  0  0  0  0  0
  -26.3634  -30.5874   24.5741 C   0  0  0  0  0  0  0  0  0  0  0  0
  -25.9015  -16.9487   21.9322 N   0  0  0  0  0  0  0  0  0  0  0  0
  -26.1925  -18.1660   22.4216 N   0  0  0  0  0  0  0  0  0  0  0  0
  -24.7685  -22.5296   20.4149 N   0  0  0  0  0  0  0  0  0  0  0  0
  -26.3822  -29.1382   21.2931 N   0  0  0  0  0  0  0  0  0  0  0  0
  -29.6456  -18.6988   20.8564 N   0  0  0  0  0  0  0  0  0  0  0  0
  -25.2490  -20.0239   23.5480 N   0  0  0  0  0  0  0  0  0  0  0  0
  -21.7738  -17.1658   23.1603 N   0  0  0  0  0  0  0  0  0  0  0  0
  -29.5400  -27.6172   20.6260 N   0  0  0  0  0  0  0  0  0  0  0  0
  -25.0185  -31.8299   22.8273 N   0  0  0  0  0  0  0  0  0  0  0  0
  -29.4449  -19.8692   18.7740 N   0  0  0  0  0  0  0  0  0  0  0  0
  -22.1488  -33.2820   21.1767 N   0  3  0  0  0  0  0  0  0  0  0  0
  -22.6520  -24.1830   22.6440 O   0  0  0  0  0  0  0  0  0  0  0  0
  -23.6291  -22.5186   18.3407 O   0  0  0  0  0  0  0  0  0  0  0  0
  -22.4104  -19.2293   23.9320 O   0  0  0  0  0  0  0  0  0  0  0  0
  -27.6921  -26.9057   21.8514 O   0  0  0  0  0  0  0  0  0  0  0  0
  -27.6017  -31.0388   21.8734 O   0  0  0  0  0  0  0  0  0  0  0  0
  -22.9024  -30.9307   22.5257 O   0  0  0  0  0  0  0  0  0  0  0  0
  -31.3536  -18.6785   19.2923 O   0  0  0  0  0  0  0  0  0  0  0  0
  -21.8996  -12.1323   20.7763 O   0  0  0  0  0  0  0  0  0  0  0  0
  -22.3438  -24.7333   19.7631 O   0  0  0  0  0  0  0  0  0  1  0  0
  -24.3935   -7.3176   21.7776 F   0  0  0  0  0  0  0  0  0  0  0  0
  -24.3451  -11.5368   19.6327 F   0  0  0  0  0  0  0  0  0  0  0  0
  -29.4756  -22.8085   21.8607 F   0  0  0  0  0  0  0  0  0  0  0  0
  -30.1884  -20.7899   21.5125 F   0  0  0  0  0  0  0  0  0  0  0  0
  -30.5317  -22.3337   20.0200 F   0  0  0  0  0  0  0  0  0  0  0  0
  1  2  1  0  0  0  0
  1  5  2  0  0  0  0
  2  6  2  0  0  0  0
  3 10  2  0  0  0  0
  3 18  1  0  0  0  0
  4 11  1  0  0  0  0
  4 18  2  0  0  0  0
  5 20  1  0  0  0  0
  6 22  1  0  0  0  0
  7 12  2  0  0  0  0
  7 21  1  0  0  0  0
  8  9  2  0  0  0  0
  8 25  1  0  0  0  0
  9 26  1  0  0  0  0
 10 27  1  0  0  0  0
 11 27  2  0  0  0  0
 12 28  1  0  0  0  0
 13 14  2  0  0  0  0
 13 29  1  0  0  0  0
 14 30  1  0  0  0  0
 15 23  1  0  0  0  0
 15 28  2  0  0  0  0
 16 24  1  0  0  0  0
 16 25  2  0  0  0  0
 17 30  2  0  0  0  0
 17 31  1  0  0  0  0
 18 32  1  0  0  0  0
 19 32  1  0  0  0  0
 19 33  2  0  0  0  0
 19 36  1  0  0  0  0
 20 22  2  0  0  0  0
 20 41  1  0  0  0  0
 21 23  2  0  0  0  0
 21 42  1  0  0  0  0
 22 51  1  0  0  0  0
 23 43  1  0  0  0  0
 24 26  2  0  0  0  0
 24 64  1  0  0  0  0
 25 68  1  0  0  0  0
 26 75  1  0  0  0  0
 27 84  1  0  0  0  0
 28 85  1  0  0  0  0
 29 31  2  0  0  0  0
 29 84  1  0  0  0  0
 30 86  1  0  0  0  0
 31 87  1  0  0  0  0
 32 66  2  0  0  0  0
 33 67  1  0  0  0  0
 33 71  1  0  0  0  0
 34 44  1  0  0  0  0
 34 54  1  0  0  0  0
 34 77  2  0  0  0  0
 35 54  1  0  0  0  0
 35 68  1  0  0  0  0
 35 78  2  0  0  0  0
 36 72  1  0  0  0  0
 36 79  2  0  0  0  0
 37 52  1  0  0  0  0
 37 73  1  0  0  0  0
 37 80  2  0  0  0  0
 38 62  1  0  0  0  0
 38 69  1  0  0  0  0
 38 81  2  0  0  0  0
 39 63  1  0  0  0  0
 39 74  1  0  0  0  0
 39 82  2  0  0  0  0
 40 70  1  0  0  0  0
 40 75  1  0  0  0  0
 40 83  2  0  0  0  0
 41 45  1  0  0  0  0
 42 52  1  0  0  0  0
 43 69  1  0  0  0  0
 44 68  1  0  0  0  0
 45 47  1  0  0  0  0
 46 48  1  0  0  0  0
 46 49  1  0  0  0  0
 47 51  1  0  0  0  0
 48 53  1  0  0  0  0
 49 70  1  0  0  0  0
 50 53  1  0  0  0  0
 50 70  1  0  0  0  0
 51 73  1  0  0  0  0
 52 69  1  0  0  0  0
 53 67  1  0  0  0  0
 54 55  1  0  0  0  0
 54 85  1  0  0  0  0
 56 63  1  0  0  0  0
 57 65  1  0  0  0  0
 58 65  1  0  0  0  0
 59 65  1  0  0  0  0
 60 75  1  0  0  0  0
 61 76  1  0  0  0  0
 62 65  1  0  0  0  0
 62 74  1  0  0  0  0
 63 76  1  0  0  0  0
 64 88  1  0  0  0  0
 64 89  1  0  0  0  0
 64 90  1  0  0  0  0
 66 67  1  0  0  0  0
M  CHG  1  76   1
M  ISO  4  40 100  54 101  75 100  85 101
M  END
> <Batch ID>
0076

> <Smiles>
CNC(C)C(=O)NC(C(=O)N1Cc2cc([101O:1][101C:1]3(C)C(=O)CN(c4ccc([100N:0](C)[100C:0](=O)N5CCCC(n6nc(-c7ccc(Oc8ccc(F)cc8F)cc7)c(C(N)=O)c6N)C5)c(C(F)(F)F)c4)C3=O)ccc2CC1C(=O)NC1CCCc2ccccc21)C(C)(C)C

> <Shape>
0.241

> <Color>
0.043

> <Negative vol penalty>
0.000

$$$$

  -OEChem-04042323503D

 87 95  0     1  0  0  0  0  0999 V2000
  -21.6814  -32.3857   14.5693 C   0  0  0  0  0  0  0  0  0  0  0  0
  -22.8641  -31.8084   15.0204 C   0  0  0  0  0  0  0  0  0  0  0  0
  -23.8659  -13.2264   24.7504 C   0  0  0  0  0  0  0  0  0  0  0  0
  -23.0372  -15.2846   23.7941 C   0  0  0  0  0  0  0  0  0  0  0  0
  -30.2161  -21.3372   19.4047 C   0  0  0  0  0  0  0  0  0  0  0  0
  -27.8378  -21.4247   18.9890 C   0  0  0  0  0  0  0  0  0  0  0  0
  -21.0457  -33.3604   15.3372 C   0  0  0  0  0  0  0  0  0  0  0  0
  -23.4123  -32.2063   16.2392 C   0  0  0  0  0  0  0  0  0  0  0  0
  -24.9555  -28.2852   19.0477 C   0  0  0  0  0  0  0  0  0  0  0  0
  -30.1316  -19.9584   19.5981 C   0  0  0  0  0  0  0  0  0  0  0  0
  -27.7533  -20.0459   19.1824 C   0  0  0  0  0  0  0  0  0  0  0  0
  -23.1199  -13.4626   25.9051 C   0  0  0  0  0  0  0  0  0  0  0  0
  -22.2912  -15.5207   24.9488 C   0  0  0  0  0  0  0  0  0  0  0  0
  -26.1700  -27.6938   18.7028 C   0  0  0  0  0  0  0  0  0  0  0  0
  -19.9025  -13.1547   26.8984 C   0  0  0  0  0  0  0  0  0  0  0  0
  -19.1793  -12.0881   27.4323 C   0  0  0  0  0  0  0  0  0  0  0  0
  -27.2611  -28.9157   20.4736 C   0  0  0  0  0  0  0  0  0  0  0  0
  -20.4261  -12.2744   29.4934 C   0  0  0  0  0  0  0  0  0  0  0  0
  -23.8246  -14.1375   23.6949 C   0  0  0  0  0  0  0  0  0  0  0  0
  -29.0692  -22.0703   19.1002 C   0  0  0  0  0  0  0  0  0  0  0  0
  -24.1840  -13.1946   21.3519 C   0  0  0  0  0  0  0  0  0  0  0  0
  -21.5812  -33.7635   16.5707 C   0  0  0  0  0  0  0  0  0  0  0  0
  -24.8866  -29.2061   20.1030 C   0  0  0  0  0  0  0  0  0  0  0  0
  -22.7838  -33.1883   17.0237 C   0  0  0  0  0  0  0  0  0  0  0  0
  -26.0440  -29.5154   20.8316 C   0  0  0  0  0  0  0  0  0  0  0  0
  -28.9002  -19.3127   19.4870 C   0  0  0  0  0  0  0  0  0  0  0  0
  -22.3325  -14.6097   26.0043 C   0  0  0  0  0  0  0  0  0  0  0  0
  -27.3236  -28.0112   19.4139 C   0  0  0  0  0  0  0  0  0  0  0  0
  -20.8876  -13.7810   27.6620 C   0  0  0  0  0  0  0  0  0  0  0  0
  -19.4410  -11.6480   28.7298 C   0  0  0  0  0  0  0  0  0  0  0  0
  -21.1493  -13.3409   28.9594 C   0  0  0  0  0  0  0  0  0  0  0  0
  -24.5954  -13.8944   22.5021 C   0  0  0  0  0  0  0  0  0  0  0  0
  -25.2707  -13.2434   20.5133 C   0  0  0  0  0  0  0  0  0  0  0  0
  -29.1593  -23.5407   18.8941 C   0  0  0  0  0  0  0  0  0  0  0  0
  -22.9316  -12.5575   21.0671 C   0  0  0  0  0  0  0  0  0  0  0  0
  -24.0991  -32.2754   20.3538 C   0  0  0  0  0  0  0  0  0  0  0  0
  -24.4376  -31.7007   23.5283 C   0  0  0  0  0  0  0  0  0  0  0  0
  -25.8340  -29.8015   25.9961 C   0  0  0  0  0  0  0  0  0  0  0  0
  -28.7817  -26.2272   19.7492 C   0  0  0  0  0  0  0  0  0  1  0  0
  -29.8572  -17.0377   19.9914 C   0  0  0  0  0  0  0  0  0  0  0  0
  -20.8833  -34.8547   17.3433 C   0  0  0  0  0  0  0  0  0  0  0  0
  -23.5638  -29.8150   20.4798 C   0  0  0  0  0  0  0  0  0  0  0  0
  -26.0195  -30.4825   21.9860 C   0  0  0  0  0  0  0  0  0  0  0  0
  -21.3302  -34.9511   18.7997 C   0  0  0  0  0  0  0  0  0  0  0  0
  -30.0503  -13.5332   20.5900 C   0  0  0  0  0  0  0  0  0  0  0  0
  -22.8518  -34.9021   18.8956 C   0  0  0  0  0  0  0  0  0  0  0  0
  -28.6343  -13.1633   21.0378 C   0  0  0  0  0  0  0  0  0  0  0  0
  -30.4698  -14.9061   21.1123 C   0  0  0  0  0  0  0  0  0  0  0  0
  -28.1187  -15.6276   21.2582 C   0  0  0  0  0  0  0  0  0  0  0  0
  -23.3964  -33.5756   18.3522 C   0  0  1  0  0  0  0  0  0  0  0  0
  -23.7063  -31.1288   21.2420 C   0  0  1  0  0  0  0  0  0  0  0  0
  -27.6273  -14.2810   20.7026 C   0  0  2  0  0  0  0  0  0  0  0  0
  -25.9564  -29.5977   28.4943 C   0  0  0  0  0  0  0  0  0  0  0  0
  -31.2346  -26.2073   20.2134 C   0  0  0  0  0  0  0  0  0  0  0  0
  -26.3580  -34.0699   23.6251 C   0  0  0  0  0  0  0  0  0  0  0  0
  -27.1555  -33.2433   25.8497 C   0  0  0  0  0  0  0  0  0  0  0  0
  -24.7754  -33.9303   25.5565 C   0  0  0  0  0  0  0  0  0  0  0  0
  -29.6294  -25.5383   15.5060 C   0  0  0  0  0  0  0  0  0  0  0  0
  -24.6333  -27.0968   25.9504 C   0  0  0  0  0  0  0  0  0  0  0  0
  -30.4357  -25.9364   17.8363 C   0  0  0  0  0  0  0  0  0  0  0  0
  -25.5805  -31.7732   24.5120 C   0  0  1  0  0  0  0  0  0  0  0  0
  -25.2335  -29.1553   27.2315 C   0  0  2  0  0  0  0  0  0  0  0  0
  -30.1290  -25.6587   19.3102 C   0  0  2  0  0  0  0  0  0  0  0  0
  -25.9685  -33.2374   24.8629 C   0  0  0  0  0  0  0  0  0  0  0  0
  -25.8459  -14.3540   22.4063 N   0  0  0  0  0  0  0  0  0  0  0  0
  -30.0601  -24.2040   19.5213 N   0  0  0  0  0  0  0  0  0  0  0  0
  -26.2296  -13.9420   21.1860 N   0  0  0  0  0  0  0  0  0  0  0  0
  -24.7035  -31.0564   22.3118 N   0  0  0  0  0  0  0  0  0  0  0  0
  -29.4706  -15.9150   20.7535 N   0  0  0  0  0  0  0  0  0  0  0  0
  -25.4899  -12.7565   19.2734 N   0  0  0  0  0  0  0  0  0  0  0  0
  -28.2313  -24.0859   18.0301 N   0  0  0  0  0  0  0  0  0  0  0  0
  -21.9229  -12.6021   22.0392 N   0  0  0  0  0  0  0  0  0  0  0  0
  -28.8155  -17.9120   19.6835 N   0  0  0  0  0  0  0  0  0  0  0  0
  -23.2117  -32.5180   19.3227 N   0  0  0  0  0  0  0  0  0  0  0  0
  -25.1810  -30.9690   25.6618 N   0  0  0  0  0  0  0  0  0  0  0  0
  -29.4248  -25.2910   16.9581 N   0  3  0  0  0  0  0  0  0  0  0  0
  -25.3224  -27.6708   27.1348 N   0  3  0  0  0  0  0  0  0  0  0  0
  -22.7191  -11.9520   19.9893 O   0  0  0  0  0  0  0  0  0  0  0  0
  -25.1302  -32.8950   20.5876 O   0  0  0  0  0  0  0  0  0  0  0  0
  -23.3471  -32.1913   23.8311 O   0  0  0  0  0  0  0  0  0  0  0  0
  -26.7893  -29.3207   25.3905 O   0  0  0  0  0  0  0  0  0  0  0  0
  -28.0403  -25.7088   20.5756 O   0  0  0  0  0  0  0  0  0  0  0  0
  -31.0212  -17.1967   19.6147 O   0  0  0  0  0  0  0  0  0  0  0  0
  -21.6042  -14.8403   27.1308 O   0  0  0  0  0  0  0  0  0  0  0  0
  -28.5104  -27.4359   19.0789 O   0  0  0  0  0  0  0  0  0  1  0  0
  -18.7453  -10.6248   29.2429 F   0  0  0  0  0  0  0  0  0  0  0  0
  -22.0936  -13.9395   29.6982 F   0  0  0  0  0  0  0  0  0  0  0  0
  1  2  1  0  0  0  0
  1  7  2  0  0  0  0
  2  8  2  0  0  0  0
  3 12  2  0  0  0  0
  3 19  1  0  0  0  0
  4 13  1  0  0  0  0
  4 19  2  0  0  0  0
  5 10  2  0  0  0  0
  5 20  1  0  0  0  0
  6 11  1  0  0  0  0
  6 20  2  0  0  0  0
  7 22  1  0  0  0  0
  8 24  1  0  0  0  0
  9 14  2  0  0  0  0
  9 23  1  0  0  0  0
 10 26  1  0  0  0  0
 11 26  2  0  0  0  0
 12 27  1  0  0  0  0
 13 27  2  0  0  0  0
 14 28  1  0  0  0  0
 15 16  2  0  0  0  0
 15 29  1  0  0  0  0
 16 30  1  0  0  0  0
 17 25  1  0  0  0  0
 17 28  2  0  0  0  0
 18 30  2  0  0  0  0
 18 31  1  0  0  0  0
 19 32  1  0  0  0  0
 20 34  1  0  0  0  0
 21 32  1  0  0  0  0
 21 33  2  0  0  0  0
 21 35  1  0  0  0  0
 22 24  2  0  0  0  0
 22 41  1  0  0  0  0
 23 25  2  0  0  0  0
 23 42  1  0  0  0  0
 24 50  1  0  0  0  0
 25 43  1  0  0  0  0
 26 73  1  0  0  0  0
 27 84  1  0  0  0  0
 28 85  1  0  0  0  0
 29 31  2  0  0  0  0
 29 84  1  0  0  0  0
 30 86  1  0  0  0  0
 31 87  1  0  0  0  0
 32 65  2  0  0  0  0
 33 67  1  0  0  0  0
 33 70  1  0  0  0  0
 34 66  2  0  0  0  0
 34 71  1  0  0  0  0
 35 72  1  0  0  0  0
 35 78  2  0  0  0  0
 36 51  1  0  0  0  0
 36 74  1  0  0  0  0
 36 79  2  0  0  0  0
 37 61  1  0  0  0  0
 37 68  1  0  0  0  0
 37 80  2  0  0  0  0
 38 62  1  0  0  0  0
 38 75  1  0  0  0  0
 38 81  2  0  0  0  0
 39 63  1  0  0  0  0
 39 82  2  0  0  0  0
 39 85  1  0  0  0  0
 40 69  1  0  0  0  0
 40 73  1  0  0  0  0
 40 83  2  0  0  0  0
 41 44  1  0  0  0  0
 42 51  1  0  0  0  0
 43 68  1  0  0  0  0
 44 46  1  0  0  0  0
 45 47  1  0  0  0  0
 45 48  1  0  0  0  0
 46 50  1  0  0  0  0
 47 52  1  0  0  0  0
 48 69  1  0  0  0  0
 49 52  1  0  0  0  0
 49 69  1  0  0  0  0
 50 74  1  0  0  0  0
 51 68  1  0  0  0  0
 52 67  1  0  0  0  0
 53 62  1  0  0  0  0
 54 63  1  0  0  0  0
 55 64  1  0  0  0  0
 56 64  1  0  0  0  0
 57 64  1  0  0  0  0
 58 76  1  0  0  0  0
 59 77  1  0  0  0  0
 60 63  1  0  0  0  0
 60 76  1  0  0  0  0
 61 64  1  0  0  0  0
 61 75  1  0  0  0  0
 62 77  1  0  0  0  0
 63 66  1  0  0  0  0
 65 67  1  0  0  0  0
M  CHG  2  76   1  77   1
M  ISO  4  39 101  40 100  73 100  85 101
M  END
> <Batch ID>
0076

> <Smiles>
CNCC(C)(NC(=N)c1ccc([100NH:0][100C:0](=O)N2CCCC(n3nc(-c4ccc(Oc5ccc(F)cc5F)cc4)c(C(N)=O)c3N)C2)cc1)[101C:1](=O)[101O:1]c1ccc2c(c1)CN(C(=O)C(NC(=O)C(C)NC)C(C)(C)C)C(C(=O)NC1CCCc3ccccc31)C2

> <Shape>
0.274

> <Color>
0.084

> <Negative vol penalty>
0.000

$$$$

  -OEChem-04042323503D

 88 97  0     1  0  0  0  0  0999 V2000
  -19.3021  -32.9561   24.9729 C   0  0  0  0  0  0  0  0  0  0  0  0
  -20.5158  -32.3350   24.6962 C   0  0  0  0  0  0  0  0  0  0  0  0
  -26.9090  -13.0431   20.9109 C   0  0  0  0  0  0  0  0  0  0  0  0
  -27.1903  -13.0536   18.5114 C   0  0  0  0  0  0  0  0  0  0  0  0
  -18.1055  -32.2762   24.7492 C   0  0  0  0  0  0  0  0  0  0  0  0
  -20.5337  -31.0332   24.1968 C   0  0  0  0  0  0  0  0  0  0  0  0
  -23.7829  -30.4716   20.3532 C   0  0  0  0  0  0  0  0  0  0  0  0
  -26.3379  -11.7726   20.8385 C   0  0  0  0  0  0  0  0  0  0  0  0
  -26.6193  -11.7831   18.4389 C   0  0  0  0  0  0  0  0  0  0  0  0
  -25.1351  -30.3596   20.6738 C   0  0  0  0  0  0  0  0  0  0  0  0
  -23.3423  -10.4310   20.0318 C   0  0  0  0  0  0  0  0  0  0  0  0
  -22.1845  -10.1984   20.7740 C   0  0  0  0  0  0  0  0  0  0  0  0
  -24.9914  -27.9653   20.4167 C   0  0  0  0  0  0  0  0  0  0  0  0
  -32.3849  -23.9361   17.7111 C   0  0  0  0  0  0  0  0  0  0  0  0
  -30.0443  -23.4970   18.1174 C   0  0  0  0  0  0  0  0  0  0  0  0
  -23.3162   -8.4439   21.9898 C   0  0  0  0  0  0  0  0  0  0  0  0
  -27.3351  -13.6837   19.7474 C   0  0  0  0  0  0  0  0  0  0  0  0
  -29.2879  -15.3082   19.9825 C   0  0  0  0  0  0  0  0  0  0  0  0
  -18.1085  -30.9690   24.2376 C   0  0  0  0  0  0  0  0  0  0  0  0
  -23.0209  -29.3285   20.0722 C   0  0  0  0  0  0  0  0  0  0  0  0
  -19.3362  -30.3348   23.9673 C   0  0  0  0  0  0  0  0  0  0  0  0
  -23.6303  -28.0658   20.0903 C   0  0  0  0  0  0  0  0  0  0  0  0
  -31.1424  -24.3542   18.1873 C   0  0  0  0  0  0  0  0  0  0  0  0
  -32.5294  -22.6608   17.1649 C   0  0  0  0  0  0  0  0  0  0  0  0
  -30.1887  -22.2216   17.5712 C   0  0  0  0  0  0  0  0  0  0  0  0
  -26.1931  -11.1426   19.6025 C   0  0  0  0  0  0  0  0  0  0  0  0
  -25.7388  -29.1060   20.7084 C   0  0  0  0  0  0  0  0  0  0  0  0
  -24.4872   -9.6700   20.2685 C   0  0  0  0  0  0  0  0  0  0  0  0
  -22.1714   -9.2049   21.7530 C   0  0  0  0  0  0  0  0  0  0  0  0
  -24.4741   -8.6765   21.2475 C   0  0  0  0  0  0  0  0  0  0  0  0
  -31.4313  -21.8035   17.0949 C   0  0  0  0  0  0  0  0  0  0  0  0
  -27.9246  -14.9964   19.8215 C   0  0  0  0  0  0  0  0  0  0  0  0
  -29.3273  -16.6811   19.9923 C   0  0  0  0  0  0  0  0  0  0  0  0
  -30.1308  -27.5234   19.7042 C   0  0  0  0  0  0  0  0  0  0  0  0
  -31.5262  -27.7949   19.4660 C   0  0  0  0  0  0  0  0  0  0  0  0
  -29.7957  -26.1486   19.2389 C   0  0  0  0  0  0  0  0  0  0  0  0
  -32.2140  -28.9086   19.7403 C   0  0  0  0  0  0  0  0  0  0  0  0
  -29.1967  -28.3097   20.2502 C   0  0  0  0  0  0  0  0  0  0  0  0
  -30.4177  -14.4349   20.1116 C   0  0  0  0  0  0  0  0  0  0  0  0
  -20.4802  -27.9463   21.3906 C   0  0  0  0  0  0  0  0  0  0  0  0
  -20.6787  -26.0037   18.8004 C   0  0  0  0  0  0  0  0  0  0  0  0
  -22.6090  -24.6612   16.3269 C   0  0  0  0  0  0  0  0  0  0  0  0
  -27.7706  -21.6134   17.9303 C   0  0  0  0  0  0  0  0  0  0  0  0
  -16.7912  -30.2572   24.0569 C   0  0  0  0  0  0  0  0  0  0  0  0
  -21.5697  -29.4687   19.7020 C   0  0  0  0  0  0  0  0  0  0  0  0
  -22.8611  -26.8094   19.7766 C   0  0  0  0  0  0  0  0  0  0  0  0
  -32.1102  -26.5691   18.8313 C   0  0  0  0  0  0  0  0  0  0  0  0
  -16.8856  -29.0163   23.1727 C   0  0  0  0  0  0  0  0  0  0  0  0
  -25.5898  -20.0816   20.2914 C   0  0  0  0  0  0  0  0  0  0  0  0
  -18.0823  -28.1617   23.5782 C   0  0  0  0  0  0  0  0  0  0  0  0
  -26.1149  -18.6477   20.3929 C   0  0  0  0  0  0  0  0  0  0  0  0
  -25.6925  -20.6237   18.8669 C   0  0  0  0  0  0  0  0  0  0  0  0
  -27.5500  -19.0870   18.3595 C   0  0  0  0  0  0  0  0  0  0  0  0
  -19.3960  -28.9326   23.4012 C   0  0  1  0  0  0  0  0  0  0  0  0
  -20.7673  -28.1925   19.9364 C   0  0  1  0  0  0  0  0  0  0  0  0
  -27.5272  -18.5207   19.7887 C   0  0  2  0  0  0  0  0  0  0  0  0
  -22.5001  -23.0769   14.3838 C   0  0  0  0  0  0  0  0  0  0  0  0
  -20.6893  -23.6401   20.7300 C   0  0  0  0  0  0  0  0  0  0  0  0
  -21.5247  -22.2042   18.8569 C   0  0  0  0  0  0  0  0  0  0  0  0
  -19.2944  -23.3078   18.6811 C   0  0  0  0  0  0  0  0  0  0  0  0
  -23.3567  -26.7839   14.4049 C   0  0  0  0  0  0  0  0  0  0  0  0
  -27.7731  -27.9033   20.4415 C   0  0  0  0  0  0  0  0  0  1  0  0
  -21.3896  -24.7094   18.4868 C   0  0  1  0  0  0  0  0  0  0  0  0
  -22.3802  -24.5251   14.8324 C   0  0  2  0  0  0  0  0  0  0  0  0
  -20.7388  -23.4887   19.1966 C   0  0  0  0  0  0  0  0  0  0  0  0
  -27.1536  -16.0837   19.7354 N   0  0  0  0  0  0  0  0  0  0  0  0
  -28.0354  -17.0921   19.8428 N   0  0  0  0  0  0  0  0  0  0  0  0
  -30.9976  -25.6265   18.7313 N   0  0  0  0  0  0  0  0  0  0  0  0
  -21.4436  -26.9980   19.4265 N   0  0  0  0  0  0  0  0  0  0  0  0
  -27.0590  -20.4740   18.3619 N   0  0  0  0  0  0  0  0  0  0  0  0
  -33.7877  -22.2401   16.6855 N   0  0  0  0  0  0  0  0  0  0  0  0
  -30.3406  -17.5647   20.1142 N   0  0  0  0  0  0  0  0  0  0  0  0
  -30.1993  -13.0508   20.0807 N   0  0  0  0  0  0  0  0  0  0  0  0
  -29.0717  -21.3526   17.5018 N   0  0  0  0  0  0  0  0  0  0  0  0
  -19.7786  -28.9655   22.0059 N   0  0  0  0  0  0  0  0  0  0  0  0
  -21.4254  -24.6055   17.0320 N   0  0  0  0  0  0  0  0  0  0  0  0
  -23.3795  -25.3346   14.0795 N   0  3  0  0  0  0  0  0  0  0  0  0
  -28.6989  -25.6187   19.3003 O   0  0  0  0  0  0  0  0  0  0  0  0
  -31.5843  -14.8690   20.2667 O   0  0  0  0  0  0  0  0  0  0  0  0
  -20.8652  -26.9079   21.9151 O   0  0  0  0  0  0  0  0  0  0  0  0
  -19.4904  -26.1305   18.4945 O   0  0  0  0  0  0  0  0  0  0  0  0
  -23.7264  -24.7992   16.8198 O   0  0  0  0  0  0  0  0  0  0  0  0
  -27.2724  -22.7415   17.9657 O   0  0  0  0  0  0  0  0  0  0  0  0
  -25.6361   -9.9027   19.5314 O   0  0  0  0  0  0  0  0  0  0  0  0
  -27.0584  -28.9937   21.0216 O   0  0  0  0  0  0  0  0  0  1  0  0
  -21.0599   -8.9827   22.4667 F   0  0  0  0  0  0  0  0  0  0  0  0
  -25.5712   -7.9430   21.4803 F   0  0  0  0  0  0  0  0  0  0  0  0
  -31.5710  -20.5766   16.5699 F   0  0  0  0  0  0  0  0  0  0  0  0
  1  2  1  0  0  0  0
  1  5  2  0  0  0  0
  2  6  2  0  0  0  0
  3  8  2  0  0  0  0
  3 17  1  0  0  0  0
  4  9  1  0  0  0  0
  4 17  2  0  0  0  0
  5 19  1  0  0  0  0
  6 21  1  0  0  0  0
  7 10  2  0  0  0  0
  7 20  1  0  0  0  0
  8 26  1  0  0  0  0
  9 26  2  0  0  0  0
 10 27  1  0  0  0  0
 11 12  2  0  0  0  0
 11 28  1  0  0  0  0
 12 29  1  0  0  0  0
 13 22  1  0  0  0  0
 13 27  2  0  0  0  0
 14 23  1  0  0  0  0
 14 24  2  0  0  0  0
 15 23  2  0  0  0  0
 15 25  1  0  0  0  0
 16 29  2  0  0  0  0
 16 30  1  0  0  0  0
 17 32  1  0  0  0  0
 18 32  1  0  0  0  0
 18 33  2  0  0  0  0
 18 39  1  0  0  0  0
 19 21  2  0  0  0  0
 19 44  1  0  0  0  0
 20 22  2  0  0  0  0
 20 45  1  0  0  0  0
 21 54  1  0  0  0  0
 22 46  1  0  0  0  0
 23 68  1  0  0  0  0
 24 31  1  0  0  0  0
 24 71  1  0  0  0  0
 25 31  2  0  0  0  0
 25 74  1  0  0  0  0
 26 84  1  0  0  0  0
 27 85  1  0  0  0  0
 28 30  2  0  0  0  0
 28 84  1  0  0  0  0
 29 86  1  0  0  0  0
 30 87  1  0  0  0  0
 31 88  1  0  0  0  0
 32 66  2  0  0  0  0
 33 67  1  0  0  0  0
 33 72  1  0  0  0  0
 34 35  1  0  0  0  0
 34 36  1  0  0  0  0
 34 38  2  0  0  0  0
 35 37  2  0  0  0  0
 35 47  1  0  0  0  0
 36 68  1  0  0  0  0
 36 78  2  0  0  0  0
 38 62  1  0  0  0  0
 39 73  1  0  0  0  0
 39 79  2  0  0  0  0
 40 55  1  0  0  0  0
 40 75  1  0  0  0  0
 40 80  2  0  0  0  0
 41 63  1  0  0  0  0
 41 69  1  0  0  0  0
 41 81  2  0  0  0  0
 42 64  1  0  0  0  0
 42 76  1  0  0  0  0
 42 82  2  0  0  0  0
 43 70  1  0  0  0  0
 43 74  1  0  0  0  0
 43 83  2  0  0  0  0
 44 48  1  0  0  0  0
 45 55  1  0  0  0  0
 46 69  1  0  0  0  0
 47 68  1  0  0  0  0
 48 50  1  0  0  0  0
 49 51  1  0  0  0  0
 49 52  1  0  0  0  0
 50 54  1  0  0  0  0
 51 56  1  0  0  0  0
 52 70  1  0  0  0  0
 53 56  1  0  0  0  0
 53 70  1  0  0  0  0
 54 75  1  0  0  0  0
 55 69  1  0  0  0  0
 56 67  1  0  0  0  0
 57 64  1  0  0  0  0
 58 65  1  0  0  0  0
 59 65  1  0  0  0  0
 60 65  1  0  0  0  0
 61 77  1  0  0  0  0
 62 85  1  0  0  0  0
 63 65  1  0  0  0  0
 63 76  1  0  0  0  0
 64 77  1  0  0  0  0
 66 67  1  0  0  0  0
M  CHG  1  77   1
M  ISO  4  43 100  62 101  74 100  85 101
M  END
> <Batch ID>
0076

> <Smiles>
C=C1CN(c2cc(N)c(F)c([100NH:0][100C:0](=O)N3CCCC(n4nc(-c5ccc(Oc6ccc(F)cc6F)cc5)c(C(N)=O)c4N)C3)c2)C(=O)C1=C[101CH2:1][101O:1]c1ccc2c(c1)CN(C(=O)C(NC(=O)C(C)NC)C(C)(C)C)C(C(=O)NC1CCCc3ccccc31)C2

> <Shape>
0.275

> <Color>
0.078

> <Negative vol penalty>
0.000

$$$$

  -OEChem-04042323503D

 85 94  0     1  0  0  0  0  0999 V2000
  -28.1275  -24.1645   17.5916 C   0  0  0  0  0  0  0  0  0  0  0  0
  -26.9085  -24.4813   18.1825 C   0  0  0  0  0  0  0  0  0  0  0  0
  -27.4856  -19.1924   22.6962 C   0  0  0  0  0  0  0  0  0  0  0  0
  -26.4645  -21.1688   21.7535 C   0  0  0  0  0  0  0  0  0  0  0  0
  -29.3144  -24.6424   18.1455 C   0  0  0  0  0  0  0  0  0  0  0  0
  -26.8758  -25.2754   19.3282 C   0  0  0  0  0  0  0  0  0  0  0  0
  -23.3065  -28.8609   19.1059 C   0  0  0  0  0  0  0  0  0  0  0  0
  -28.4561  -19.2161   21.6947 C   0  0  0  0  0  0  0  0  0  0  0  0
  -27.4351  -21.1925   20.7520 C   0  0  0  0  0  0  0  0  0  0  0  0
  -21.9918  -28.4665   19.3504 C   0  0  0  0  0  0  0  0  0  0  0  0
  -30.9921  -18.5483   19.1755 C   0  0  0  0  0  0  0  0  0  0  0  0
  -31.3072  -17.3436   18.5470 C   0  0  0  0  0  0  0  0  0  0  0  0
  -22.1674  -29.3017   21.6067 C   0  0  0  0  0  0  0  0  0  0  0  0
  -18.3543  -22.5207   22.5425 C   0  0  0  0  0  0  0  0  0  0  0  0
  -16.2546  -23.3349   23.4172 C   0  0  0  0  0  0  0  0  0  0  0  0
  -16.9470  -21.0626   23.8580 C   0  0  0  0  0  0  0  0  0  0  0  0
  -29.0163  -17.1286   17.8104 C   0  0  0  0  0  0  0  0  0  0  0  0
  -26.4897  -20.1687   22.7256 C   0  0  0  0  0  0  0  0  0  0  0  0
  -25.5461  -20.7751   25.0168 C   0  0  0  0  0  0  0  0  0  0  0  0
  -29.2957  -25.4507   19.2930 C   0  0  0  0  0  0  0  0  0  0  0  0
  -24.0664  -29.4697   20.1150 C   0  0  0  0  0  0  0  0  0  0  0  0
  -28.0637  -25.7635   19.8987 C   0  0  0  0  0  0  0  0  0  0  0  0
  -23.4907  -29.7051   21.3717 C   0  0  0  0  0  0  0  0  0  0  0  0
  -17.4236  -23.5495   22.6871 C   0  0  0  0  0  0  0  0  0  0  0  0
  -18.1160  -21.2772   23.1279 C   0  0  0  0  0  0  0  0  0  0  0  0
  -28.4309  -20.2161   20.7226 C   0  0  0  0  0  0  0  0  0  0  0  0
  -21.4230  -28.6843   20.6019 C   0  0  0  0  0  0  0  0  0  0  0  0
  -29.6890  -19.0431   19.1215 C   0  0  0  0  0  0  0  0  0  0  0  0
  -30.3193  -16.6338   17.8644 C   0  0  0  0  0  0  0  0  0  0  0  0
  -16.0162  -22.0914   24.0026 C   0  0  0  0  0  0  0  0  0  0  0  0
  -28.7012  -18.3333   18.4390 C   0  0  0  0  0  0  0  0  0  0  0  0
  -25.4865  -20.1444   23.7596 C   0  0  0  0  0  0  0  0  0  0  0  0
  -24.3563  -20.4496   25.6209 C   0  0  0  0  0  0  0  0  0  0  0  0
  -18.7481  -25.1582   21.3619 C   0  0  0  0  0  0  0  0  0  0  0  0
  -18.6645  -26.4294   20.9461 C   0  0  0  0  0  0  0  0  0  0  0  0
  -17.4155  -26.9890   21.4401 C   0  0  0  0  0  0  0  0  0  0  0  0
  -16.9452  -28.2261   21.2524 C   0  0  0  0  0  0  0  0  0  0  0  0
  -26.5840  -21.5830   25.5875 C   0  0  0  0  0  0  0  0  0  0  0  0
  -26.7474  -28.7351   21.6565 C   0  0  0  0  0  0  0  0  0  0  0  0
  -26.3608  -31.6904   22.9367 C   0  0  0  0  0  0  0  0  0  0  0  0
  -24.2466  -34.2465   23.7386 C   0  0  0  0  0  0  0  0  0  0  0  0
  -18.9789  -18.9395   23.4976 C   0  0  0  0  0  0  0  0  0  0  0  0
  -30.6075  -25.9047   19.8827 C   0  0  0  0  0  0  0  0  0  0  0  0
  -25.4745  -29.9134   19.8270 C   0  0  0  0  0  0  0  0  0  0  0  0
  -24.2574  -30.3733   22.4826 C   0  0  0  0  0  0  0  0  0  0  0  0
  -16.7120  -25.8977   22.2303 C   0  0  0  0  0  0  0  0  0  0  0  0
  -30.4624  -27.0499   20.8815 C   0  0  0  0  0  0  0  0  0  0  0  0
  -21.0127  -17.0220   25.7030 C   0  0  0  0  0  0  0  0  0  0  0  0
  -29.3276  -26.7644   21.8600 C   0  0  0  0  0  0  0  0  0  0  0  0
  -22.3949  -17.6663   25.5739 C   0  0  0  0  0  0  0  0  0  0  0  0
  -20.2692  -17.0026   24.3687 C   0  0  0  0  0  0  0  0  0  0  0  0
  -21.5500  -18.9481   23.5664 C   0  0  0  0  0  0  0  0  0  0  0  0
  -27.9856  -26.6426   21.1280 C   0  0  1  0  0  0  0  0  0  0  0  0
  -26.3243  -30.0590   21.0856 C   0  0  1  0  0  0  0  0  0  0  0  0
  -22.3111  -19.0491   24.8983 C   0  0  2  0  0  0  0  0  0  0  0  0
  -24.2163  -36.5152   24.8107 C   0  0  0  0  0  0  0  0  0  0  0  0
  -26.5797  -30.3903   25.6883 C   0  0  0  0  0  0  0  0  0  0  0  0
  -25.6121  -32.4781   26.6748 C   0  0  0  0  0  0  0  0  0  0  0  0
  -27.7910  -32.5667   25.4635 C   0  0  0  0  0  0  0  0  0  0  0  0
  -23.2790  -35.5347   21.2559 C   0  0  0  0  0  0  0  0  0  0  0  0
  -19.6543  -27.1687   20.1217 C   0  0  0  0  0  0  0  0  0  1  0  0
  -25.6548  -32.2460   24.1499 C   0  0  1  0  0  0  0  0  0  0  0  0
  -24.3425  -35.7436   23.5063 C   0  0  2  0  0  0  0  0  0  0  0  0
  -26.3954  -31.9059   25.4740 C   0  0  0  0  0  0  0  0  0  0  0  0
  -24.3490  -19.4692   23.5748 N   0  0  0  0  0  0  0  0  0  0  0  0
  -23.6828  -19.6737   24.7239 N   0  0  0  0  0  0  0  0  0  0  0  0
  -17.6576  -24.7725   22.1110 N   0  0  0  0  0  0  0  0  0  0  0  0
  -25.6327  -30.7832   22.1539 N   0  0  0  0  0  0  0  0  0  0  0  0
  -20.2257  -18.3472   23.7898 N   0  0  0  0  0  0  0  0  0  0  0  0
  -23.8310  -20.7541   26.8266 N   0  0  0  0  0  0  0  0  0  0  0  0
  -27.7399  -21.8182   24.8306 N   0  0  0  0  0  0  0  0  0  0  0  0
  -19.0615  -20.2321   22.9811 N   0  0  0  0  0  0  0  0  0  0  0  0
  -27.4777  -27.9529   20.7822 N   0  0  0  0  0  0  0  0  0  0  0  0
  -25.4900  -33.6751   23.9074 N   0  0  0  0  0  0  0  0  0  0  0  0
  -23.2606  -36.1954   22.5864 N   0  3  0  0  0  0  0  0  0  0  0  0
  -26.4962  -22.0679   26.7410 O   0  0  0  0  0  0  0  0  0  0  0  0
  -26.4357  -28.4453   22.8056 O   0  0  0  0  0  0  0  0  0  0  0  0
  -27.5133  -32.0536   22.6885 O   0  0  0  0  0  0  0  0  0  0  0  0
  -23.1754  -33.6447   23.7709 O   0  0  0  0  0  0  0  0  0  0  0  0
  -17.9152  -18.3542   23.7167 O   0  0  0  0  0  0  0  0  0  0  0  0
  -29.3780  -20.2397   19.7453 O   0  0  0  0  0  0  0  0  0  0  0  0
  -20.1402  -28.2998   20.8434 O   0  0  0  0  0  0  0  0  0  1  0  0
  -30.6224  -15.4777   17.2597 F   0  0  0  0  0  0  0  0  0  0  0  0
  -14.8943  -21.8853   24.7049 F   0  0  0  0  0  0  0  0  0  0  0  0
  -27.4478  -18.8043   18.3827 F   0  0  0  0  0  0  0  0  0  0  0  0
  1  2  1  0  0  0  0
  1  5  2  0  0  0  0
  2  6  2  0  0  0  0
  3  8  2  0  0  0  0
  3 18  1  0  0  0  0
  4  9  1  0  0  0  0
  4 18  2  0  0  0  0
  5 20  1  0  0  0  0
  6 22  1  0  0  0  0
  7 10  2  0  0  0  0
  7 21  1  0  0  0  0
  8 26  1  0  0  0  0
  9 26  2  0  0  0  0
 10 27  1  0  0  0  0
 11 12  2  0  0  0  0
 11 28  1  0  0  0  0
 12 29  1  0  0  0  0
 13 23  1  0  0  0  0
 13 27  2  0  0  0  0
 14 24  2  0  0  0  0
 14 25  1  0  0  0  0
 15 24  1  0  0  0  0
 15 30  2  0  0  0  0
 16 25  2  0  0  0  0
 16 30  1  0  0  0  0
 17 29  2  0  0  0  0
 17 31  1  0  0  0  0
 18 32  1  0  0  0  0
 19 32  1  0  0  0  0
 19 33  2  0  0  0  0
 19 38  1  0  0  0  0
 20 22  2  0  0  0  0
 20 43  1  0  0  0  0
 21 23  2  0  0  0  0
 21 44  1  0  0  0  0
 22 53  1  0  0  0  0
 23 45  1  0  0  0  0
 24 67  1  0  0  0  0
 25 72  1  0  0  0  0
 26 81  1  0  0  0  0
 27 82  1  0  0  0  0
 28 31  2  0  0  0  0
 28 81  1  0  0  0  0
 29 83  1  0  0  0  0
 30 84  1  0  0  0  0
 31 85  1  0  0  0  0
 32 65  2  0  0  0  0
 33 66  1  0  0  0  0
 33 70  1  0  0  0  0
 34 35  2  0  0  0  0
 34 67  1  0  0  0  0
 35 36  1  0  0  0  0
 35 61  1  0  0  0  0
 36 37  2  0  0  0  0
 36 46  1  0  0  0  0
 38 71  1  0  0  0  0
 38 76  2  0  0  0  0
 39 54  1  0  0  0  0
 39 73  1  0  0  0  0
 39 77  2  0  0  0  0
 40 62  1  0  0  0  0
 40 68  1  0  0  0  0
 40 78  2  0  0  0  0
 41 63  1  0  0  0  0
 41 74  1  0  0  0  0
 41 79  2  0  0  0  0
 42 69  1  0  0  0  0
 42 72  1  0  0  0  0
 42 80  2  0  0  0  0
 43 47  1  0  0  0  0
 44 54  1  0  0  0  0
 45 68  1  0  0  0  0
 46 67  1  0  0  0  0
 47 49  1  0  0  0  0
 48 50  1  0  0  0  0
 48 51  1  0  0  0  0
 49 53  1  0  0  0  0
 50 55  1  0  0  0  0
 51 69  1  0  0  0  0
 52 55  1  0  0  0  0
 52 69  1  0  0  0  0
 53 73  1  0  0  0  0
 54 68  1  0  0  0  0
 55 66  1  0  0  0  0
 56 63  1  0  0  0  0
 57 64  1  0  0  0  0
 58 64  1  0  0  0  0
 59 64  1  0  0  0  0
 60 75  1  0  0  0  0
 61 82  1  0  0  0  0
 62 64  1  0  0  0  0
 62 74  1  0  0  0  0
 63 75  1  0  0  0  0
 65 66  1  0  0  0  0
M  CHG  1  75   1
M  ISO  4  42 100  61 101  72 100  82 101
M  END
> <Batch ID>
0076

> <Smiles>
C=C1CN(c2cc(F)cc([100NH:0][100C:0](=O)N3CCCC(n4nc(-c5ccc(Oc6ccc(F)cc6F)cc5)c(C(N)=O)c4N)C3)c2)C=C1[101CH2:1][101O:1]c1ccc2c(c1)CN(C(=O)C(NC(=O)C(C)NC)C(C)(C)C)C(C(=O)NC1CCCc3ccccc31)C2

> <Shape>
0.239

> <Color>
0.069

> <Negative vol penalty>
0.000

$$$$

  -OEChem-04042323503D

 89 97  0     1  0  0  0  0  0999 V2000
  -21.5088  -36.6173   23.1946 C   0  0  0  0  0  0  0  0  0  0  0  0
  -21.6638  -35.2417   23.0562 C   0  0  0  0  0  0  0  0  0  0  0  0
  -24.2650   -9.3488   21.6389 C   0  0  0  0  0  0  0  0  0  0  0  0
  -24.6259  -10.7521   23.5722 C   0  0  0  0  0  0  0  0  0  0  0  0
  -30.2440  -20.5203   20.3698 C   0  0  0  0  0  0  0  0  0  0  0  0
  -22.6309  -37.4347   23.3236 C   0  0  0  0  0  0  0  0  0  0  0  0
  -22.9413  -34.6828   23.0457 C   0  0  0  0  0  0  0  0  0  0  0  0
  -24.6004  -29.2473   25.3279 C   0  0  0  0  0  0  0  0  0  0  0  0
  -30.1122  -19.1640   20.0717 C   0  0  0  0  0  0  0  0  0  0  0  0
  -23.9014   -8.2922   22.4737 C   0  0  0  0  0  0  0  0  0  0  0  0
  -24.2623   -9.6955   24.4071 C   0  0  0  0  0  0  0  0  0  0  0  0
  -24.8006  -28.0021   24.7337 C   0  0  0  0  0  0  0  0  0  0  0  0
  -22.5307   -5.3341   24.0817 C   0  0  0  0  0  0  0  0  0  0  0  0
  -21.3992   -4.5949   23.7369 C   0  0  0  0  0  0  0  0  0  0  0  0
  -27.8410  -20.7206   20.5210 C   0  0  0  0  0  0  0  0  0  0  0  0
  -27.1648  -28.4585   24.5880 C   0  0  0  0  0  0  0  0  0  0  0  0
  -20.0478   -6.5916   23.8908 C   0  0  0  0  0  0  0  0  0  0  0  0
  -24.6273  -10.5788   22.1882 C   0  0  0  0  0  0  0  0  0  0  0  0
  -29.1084  -21.2986   20.5945 C   0  0  0  0  0  0  0  0  0  0  0  0
  -24.1553  -12.6492   20.7745 C   0  0  0  0  0  0  0  0  0  0  0  0
  -23.9224  -36.8845   23.3244 C   0  0  0  0  0  0  0  0  0  0  0  0
  -25.6812  -30.1134   25.5471 C   0  0  0  0  0  0  0  0  0  0  0  0
  -24.0818  -35.4937   23.1736 C   0  0  0  0  0  0  0  0  0  0  0  0
  -26.9760  -29.7130   25.1875 C   0  0  0  0  0  0  0  0  0  0  0  0
  -28.8448  -18.5861   19.9982 C   0  0  0  0  0  0  0  0  0  0  0  0
  -23.9001   -8.4655   23.8578 C   0  0  0  0  0  0  0  0  0  0  0  0
  -26.0825  -27.6087   24.3610 C   0  0  0  0  0  0  0  0  0  0  0  0
  -22.4207   -6.7021   24.3312 C   0  0  0  0  0  0  0  0  0  0  0  0
  -20.1578   -5.2236   23.6414 C   0  0  0  0  0  0  0  0  0  0  0  0
  -27.7092  -19.3643   20.2229 C   0  0  0  0  0  0  0  0  0  0  0  0
  -21.1793   -7.3308   24.2357 C   0  0  0  0  0  0  0  0  0  0  0  0
  -25.0035  -11.6705   21.3263 C   0  0  0  0  0  0  0  0  0  0  0  0
  -24.9911  -13.4517   20.0371 C   0  0  0  0  0  0  0  0  0  0  0  0
  -29.2489  -22.7431   20.9118 C   0  0  0  0  0  0  0  0  0  0  0  0
  -22.7385  -12.8179   20.9160 C   0  0  0  0  0  0  0  0  0  0  0  0
  -26.4682  -33.0204   24.5303 C   0  0  0  0  0  0  0  0  0  0  0  0
  -27.0814  -25.2149   21.8213 C   0  0  0  0  0  0  0  0  0  0  0  0
  -28.9017  -32.6776   26.6476 C   0  0  0  0  0  0  0  0  0  0  0  0
  -30.9272  -30.5779   28.4183 C   0  0  0  0  0  0  0  0  0  0  0  0
  -29.7402  -16.2974   19.4444 C   0  0  0  0  0  0  0  0  0  0  0  0
  -25.1070  -37.8131   23.4193 C   0  0  0  0  0  0  0  0  0  0  0  0
  -25.4522  -31.4422   26.2136 C   0  0  0  0  0  0  0  0  0  0  0  0
  -28.1727  -30.5976   25.4197 C   0  0  0  0  0  0  0  0  0  0  0  0
  -26.4106  -37.1030   23.7749 C   0  0  0  0  0  0  0  0  0  0  0  0
  -29.8310  -12.8174   18.6974 C   0  0  0  0  0  0  0  0  0  0  0  0
  -26.5836  -35.8477   22.9257 C   0  0  0  0  0  0  0  0  0  0  0  0
  -28.5134  -12.2893   19.2693 C   0  0  0  0  0  0  0  0  0  0  0  0
  -30.4312  -13.9141   19.5752 C   0  0  0  0  0  0  0  0  0  0  0  0
  -28.2067  -14.4983   20.4580 C   0  0  0  0  0  0  0  0  0  0  0  0
  -25.4501  -34.8474   23.1826 C   0  0  1  0  0  0  0  0  0  0  0  0
  -26.5542  -32.4556   25.9201 C   0  0  1  0  0  0  0  0  0  0  0  0
  -27.5311  -13.4372   19.5742 C   0  0  2  0  0  0  0  0  0  0  0  0
  -32.8466  -30.5910   30.0349 C   0  0  0  0  0  0  0  0  0  0  0  0
  -29.1402  -25.4503   18.4789 C   0  0  0  0  0  0  0  0  0  0  0  0
  -28.0342  -27.3188   19.7199 C   0  0  0  0  0  0  0  0  0  0  0  0
  -26.6691  -25.4377   18.8005 C   0  0  0  0  0  0  0  0  0  0  0  0
  -30.8141  -33.3521   24.3677 C   0  0  0  0  0  0  0  0  0  0  0  0
  -32.6838  -32.4352   25.7577 C   0  0  0  0  0  0  0  0  0  0  0  0
  -31.3889  -34.4109   26.5593 C   0  0  0  0  0  0  0  0  0  0  0  0
  -29.3348  -29.2025   30.4996 C   0  0  0  0  0  0  0  0  0  0  0  0
  -27.3666  -26.2830   22.8610 C   0  0  0  0  0  0  0  0  0  1  0  0
  -28.1727  -24.9747   20.7789 C   0  0  2  0  0  0  0  0  0  0  0  0
  -30.3057  -32.1266   26.5826 C   0  0  1  0  0  0  0  0  0  0  0  0
  -31.3338  -30.5663   29.8808 C   0  0  2  0  0  0  0  0  0  0  0  0
  -28.0130  -25.7987   19.4704 C   0  0  0  0  0  0  0  0  0  0  0  0
  -31.2755  -33.0651   25.8106 C   0  0  0  0  0  0  0  0  0  0  0  0
  -26.2802  -11.8343   20.9697 N   0  0  0  0  0  0  0  0  0  0  0  0
  -26.2404  -12.9252   20.1859 N   0  0  0  0  0  0  0  0  0  0  0  0
  -27.8966  -31.8899   26.0687 N   0  0  0  0  0  0  0  0  0  0  0  0
  -29.4451  -14.9693   19.8182 N   0  0  0  0  0  0  0  0  0  0  0  0
  -24.7719  -14.5492   19.2822 N   0  0  0  0  0  0  0  0  0  0  0  0
  -22.0329  -11.9038   21.7103 N   0  0  0  0  0  0  0  0  0  0  0  0
  -28.7143  -17.2082   19.6946 N   0  0  0  0  0  0  0  0  0  0  0  0
  -28.1764  -23.5483   20.5586 N   0  0  0  0  0  0  0  0  0  0  0  0
  -25.6697  -34.1435   24.4279 N   0  0  0  0  0  0  0  0  0  0  0  0
  -30.7034  -31.8592   27.9606 N   0  0  0  0  0  0  0  0  0  0  0  0
  -30.8128  -29.3429   30.5537 N   0  3  0  0  0  0  0  0  0  0  0  0
  -30.2845  -23.1442   21.4363 O   0  0  0  0  0  0  0  0  0  0  0  0
  -22.1143  -13.7419   20.3415 O   0  0  0  0  0  0  0  0  0  0  0  0
  -27.0820  -32.4782   23.6188 O   0  0  0  0  0  0  0  0  0  0  0  0
  -26.0329  -24.5693   21.8335 O   0  0  0  0  0  0  0  0  0  0  0  0
  -28.7031  -33.7634   27.1982 O   0  0  0  0  0  0  0  0  0  0  0  0
  -30.8225  -29.5531   27.7479 O   0  0  0  0  0  0  0  0  0  0  0  0
  -30.8126  -16.5995   18.9146 O   0  0  0  0  0  0  0  0  0  0  0  0
  -23.5451   -7.4347   24.6727 O   0  0  0  0  0  0  0  0  0  0  0  0
  -26.2807  -26.3940   23.7802 O   0  0  0  0  0  0  0  0  0  1  0  0
  -19.0716   -4.5139   23.3088 F   0  0  0  0  0  0  0  0  0  0  0  0
  -26.4858  -18.8198   20.1544 F   0  0  0  0  0  0  0  0  0  0  0  0
  -21.0676   -8.6450   24.4731 F   0  0  0  0  0  0  0  0  0  0  0  0
  1  2  1  0  0  0  0
  1  6  2  0  0  0  0
  2  7  2  0  0  0  0
  3 10  2  0  0  0  0
  3 18  1  0  0  0  0
  4 11  1  0  0  0  0
  4 18  2  0  0  0  0
  5  9  2  0  0  0  0
  5 19  1  0  0  0  0
  6 21  1  0  0  0  0
  7 23  1  0  0  0  0
  8 12  2  0  0  0  0
  8 22  1  0  0  0  0
  9 25  1  0  0  0  0
 10 26  1  0  0  0  0
 11 26  2  0  0  0  0
 12 27  1  0  0  0  0
 13 14  2  0  0  0  0
 13 28  1  0  0  0  0
 14 29  1  0  0  0  0
 15 19  2  0  0  0  0
 15 30  1  0  0  0  0
 16 24  1  0  0  0  0
 16 27  2  0  0  0  0
 17 29  2  0  0  0  0
 17 31  1  0  0  0  0
 18 32  1  0  0  0  0
 19 34  1  0  0  0  0
 20 32  1  0  0  0  0
 20 33  2  0  0  0  0
 20 35  1  0  0  0  0
 21 23  2  0  0  0  0
 21 41  1  0  0  0  0
 22 24  2  0  0  0  0
 22 42  1  0  0  0  0
 23 50  1  0  0  0  0
 24 43  1  0  0  0  0
 25 30  2  0  0  0  0
 25 73  1  0  0  0  0
 26 85  1  0  0  0  0
 27 86  1  0  0  0  0
 28 31  2  0  0  0  0
 28 85  1  0  0  0  0
 29 87  1  0  0  0  0
 30 88  1  0  0  0  0
 31 89  1  0  0  0  0
 32 67  2  0  0  0  0
 33 68  1  0  0  0  0
 33 71  1  0  0  0  0
 34 74  1  0  0  0  0
 34 78  2  0  0  0  0
 35 72  1  0  0  0  0
 35 79  2  0  0  0  0
 36 51  1  0  0  0  0
 36 75  1  0  0  0  0
 36 80  2  0  0  0  0
 37 61  1  0  0  0  0
 37 62  1  0  0  0  0
 37 81  2  0  0  0  0
 38 63  1  0  0  0  0
 38 69  1  0  0  0  0
 38 82  2  0  0  0  0
 39 64  1  0  0  0  0
 39 76  1  0  0  0  0
 39 83  2  0  0  0  0
 40 70  1  0  0  0  0
 40 73  1  0  0  0  0
 40 84  2  0  0  0  0
 41 44  1  0  0  0  0
 42 51  1  0  0  0  0
 43 69  1  0  0  0  0
 44 46  1  0  0  0  0
 45 47  1  0  0  0  0
 45 48  1  0  0  0  0
 46 50  1  0  0  0  0
 47 52  1  0  0  0  0
 48 70  1  0  0  0  0
 49 52  1  0  0  0  0
 49 70  1  0  0  0  0
 50 75  1  0  0  0  0
 51 69  1  0  0  0  0
 52 68  1  0  0  0  0
 53 64  1  0  0  0  0
 54 65  1  0  0  0  0
 55 65  1  0  0  0  0
 56 65  1  0  0  0  0
 57 66  1  0  0  0  0
 58 66  1  0  0  0  0
 59 66  1  0  0  0  0
 60 77  1  0  0  0  0
 61 86  1  0  0  0  0
 62 65  1  0  0  0  0
 62 74  1  0  0  0  0
 63 66  1  0  0  0  0
 63 76  1  0  0  0  0
 64 77  1  0  0  0  0
 67 68  1  0  0  0  0
M  CHG  1  77   1
M  ISO  4  40 100  61 101  73 100  86 101
M  END
> <Batch ID>
0076

> <Smiles>
CNC(C)C(=O)NC(C(=O)N1Cc2cc([101O:1][101CH2:1]C(=O)C(NC(=O)c3ccc([100NH:0][100C:0](=O)N4CCCC(n5nc(-c6ccc(Oc7ccc(F)cc7F)cc6)c(C(N)=O)c5N)C4)c(F)c3)C(C)(C)C)ccc2CC1C(=O)NC1CCCc2ccccc21)C(C)(C)C

> <Shape>
0.309

> <Color>
0.088

> <Negative vol penalty>
0.000

$$$$

  -OEChem-04042323503D

 89 98  0     1  0  0  0  0  0999 V2000
  -19.8045  -21.8527   24.3719 C   0  0  0  0  0  0  0  0  0  0  0  0
  -21.0351  -21.5309   23.8085 C   0  0  0  0  0  0  0  0  0  0  0  0
  -19.2004  -28.5966   23.0655 C   0  0  0  0  0  0  0  0  0  0  0  0
  -19.9627  -26.3278   22.7361 C   0  0  0  0  0  0  0  0  0  0  0  0
  -19.1904  -20.9661   25.2554 C   0  0  0  0  0  0  0  0  0  0  0  0
  -21.6528  -20.3226   24.1291 C   0  0  0  0  0  0  0  0  0  0  0  0
  -23.5236  -17.9573   20.0609 C   0  0  0  0  0  0  0  0  0  0  0  0
  -17.8885  -28.1915   22.8200 C   0  0  0  0  0  0  0  0  0  0  0  0
  -18.6507  -25.9227   22.4906 C   0  0  0  0  0  0  0  0  0  0  0  0
  -24.7309  -18.4302   19.5485 C   0  0  0  0  0  0  0  0  0  0  0  0
  -16.4480  -26.0309   19.9279 C   0  0  0  0  0  0  0  0  0  0  0  0
  -16.2235  -25.1843   18.8423 C   0  0  0  0  0  0  0  0  0  0  0  0
  -29.9165  -24.3045   19.8159 C   0  0  0  0  0  0  0  0  0  0  0  0
  -27.5514  -24.7958   19.8581 C   0  0  0  0  0  0  0  0  0  0  0  0
  -25.8997  -16.6411   20.6675 C   0  0  0  0  0  0  0  0  0  0  0  0
  -29.1470  -26.5695   19.4770 C   0  0  0  0  0  0  0  0  0  0  0  0
  -15.3242  -23.5100   20.3340 C   0  0  0  0  0  0  0  0  0  0  0  0
  -20.2376  -27.6648   23.0234 C   0  0  0  0  0  0  0  0  0  0  0  0
  -22.2522  -28.1235   24.5196 C   0  0  0  0  0  0  0  0  0  0  0  0
  -19.7963  -19.7420   25.5796 C   0  0  0  0  0  0  0  0  0  0  0  0
  -23.4965  -16.8272   20.8907 C   0  0  0  0  0  0  0  0  0  0  0  0
  -21.0469  -19.4193   25.0189 C   0  0  0  0  0  0  0  0  0  0  0  0
  -28.5963  -23.8771   19.9570 C   0  0  0  0  0  0  0  0  0  0  0  0
  -24.6905  -16.1544   21.1871 C   0  0  0  0  0  0  0  0  0  0  0  0
  -30.1918  -25.6508   19.5759 C   0  0  0  0  0  0  0  0  0  0  0  0
  -27.8267  -26.1421   19.6181 C   0  0  0  0  0  0  0  0  0  0  0  0
  -17.6136  -26.8545   22.5326 C   0  0  0  0  0  0  0  0  0  0  0  0
  -25.9195  -17.7739   19.8541 C   0  0  0  0  0  0  0  0  0  0  0  0
  -16.1107  -25.6169   21.2166 C   0  0  0  0  0  0  0  0  0  0  0  0
  -15.6616  -23.9239   19.0453 C   0  0  0  0  0  0  0  0  0  0  0  0
  -15.5488  -24.3565   21.4196 C   0  0  0  0  0  0  0  0  0  0  0  0
  -21.5931  -28.0828   23.2763 C   0  0  0  0  0  0  0  0  0  0  0  0
  -23.5109  -28.5881   24.2259 C   0  0  0  0  0  0  0  0  0  0  0  0
  -31.6545  -18.1119   22.4538 C   0  0  0  0  0  0  0  0  0  0  0  0
  -30.3487  -18.1675   22.1834 C   0  0  0  0  0  0  0  0  0  0  0  0
  -21.7698  -27.7726   25.8234 C   0  0  0  0  0  0  0  0  0  0  0  0
  -29.9179  -18.5130   20.8133 C   0  0  0  0  0  0  0  0  0  0  0  0
  -22.6223  -16.2714   23.8958 C   0  0  0  0  0  0  0  0  0  0  0  0
  -23.2012  -13.1850   23.0826 C   0  0  0  0  0  0  0  0  0  0  0  0
  -24.8315  -10.9815   21.0495 C   0  0  0  0  0  0  0  0  0  0  0  0
  -26.8643  -28.4458   19.2823 C   0  0  0  0  0  0  0  0  0  0  0  0
  -19.1165  -18.8369   26.5763 C   0  0  0  0  0  0  0  0  0  0  0  0
  -22.1829  -16.3140   21.4136 C   0  0  0  0  0  0  0  0  0  0  0  0
  -24.7130  -14.9249   22.0567 C   0  0  0  0  0  0  0  0  0  0  0  0
  -19.6604  -17.4106   26.5737 C   0  0  0  0  0  0  0  0  0  0  0  0
  -25.8461  -31.3443   21.0820 C   0  0  0  0  0  0  0  0  0  0  0  0
  -21.1857  -17.4208   26.5785 C   0  0  0  0  0  0  0  0  0  0  0  0
  -24.7039  -30.8392   21.9665 C   0  0  0  0  0  0  0  0  0  0  0  0
  -28.9506  -21.9866   21.5282 C   0  0  0  0  0  0  0  0  0  0  0  0
  -28.8308  -21.5700   19.0620 C   0  0  0  0  0  0  0  0  0  0  0  0
  -25.8426  -30.6700   19.7112 C   0  0  0  0  0  0  0  0  0  0  0  0
  -28.7358  -20.4973   21.7877 C   0  0  0  0  0  0  0  0  0  0  0  0
  -24.6856  -28.6969   20.6261 C   0  0  0  0  0  0  0  0  0  0  0  0
  -28.3013  -22.4341   20.2143 C   0  0  2  0  0  0  0  0  0  0  0  0
  -21.7368  -18.1072   25.3229 C   0  0  1  0  0  0  0  0  0  0  0  0
  -22.3325  -15.4569   22.6668 C   0  0  1  0  0  0  0  0  0  0  0  0
  -24.6867  -29.2998   22.0403 C   0  0  2  0  0  0  0  0  0  0  0  0
  -28.6391  -20.0674   19.3126 C   0  0  2  0  0  0  0  0  0  0  0  0
  -25.1349   -8.5224   20.6513 C   0  0  0  0  0  0  0  0  0  0  0  0
  -25.0401  -13.0209   25.5119 C   0  0  0  0  0  0  0  0  0  0  0  0
  -26.0192  -10.9305   24.5424 C   0  0  0  0  0  0  0  0  0  0  0  0
  -23.6020  -11.0064   25.1542 C   0  0  0  0  0  0  0  0  0  0  0  0
  -23.7253  -11.1705   18.3110 C   0  0  0  0  0  0  0  0  0  0  0  0
  -27.2009  -19.6371   19.1178 C   0  0  0  0  0  0  0  0  0  1  0  0
  -24.4067  -12.2771   23.1220 C   0  0  1  0  0  0  0  0  0  0  0  0
  -24.3415   -9.7664   20.2827 C   0  0  2  0  0  0  0  0  0  0  0  0
  -24.7672  -11.8330   24.5678 C   0  0  0  0  0  0  0  0  0  0  0  0
  -22.3689  -28.4893   22.2679 N   0  0  0  0  0  0  0  0  0  0  0  0
  -23.5284  -28.7899   22.8772 N   0  0  0  0  0  0  0  0  0  0  0  0
  -29.1251  -19.6532   20.6449 N   0  0  0  0  0  0  0  0  0  0  0  0
  -23.4038  -14.4656   22.5491 N   0  0  0  0  0  0  0  0  0  0  0  0
  -25.8306  -29.2131   19.8599 N   0  0  0  0  0  0  0  0  0  0  0  0
  -31.5272  -26.0828   19.4333 N   0  0  0  0  0  0  0  0  0  0  0  0
  -24.5933  -28.8397   24.9924 N   0  0  0  0  0  0  0  0  0  0  0  0
  -20.4516  -27.3126   25.9467 N   0  0  0  0  0  0  0  0  0  0  0  0
  -26.7649  -27.0749   19.5172 N   0  0  0  0  0  0  0  0  0  0  0  0
  -21.6572  -17.2174   24.1843 N   0  0  0  0  0  0  0  0  0  0  0  0
  -24.1166  -11.1737   22.2128 N   0  0  0  0  0  0  0  0  0  0  0  0
  -24.4750   -9.9914   18.8155 N   0  3  0  0  0  0  0  0  0  0  0  0
  -22.4812  -27.8798   26.8510 O   0  0  0  0  0  0  0  0  0  0  0  0
  -30.2769  -17.7672   19.9001 O   0  0  0  0  0  0  0  0  0  0  0  0
  -23.6450  -16.0564   24.5358 O   0  0  0  0  0  0  0  0  0  0  0  0
  -22.1181  -12.7705   23.5030 O   0  0  0  0  0  0  0  0  0  0  0  0
  -25.7584  -11.6871   20.6578 O   0  0  0  0  0  0  0  0  0  0  0  0
  -27.7856  -28.9692   18.6505 O   0  0  0  0  0  0  0  0  0  0  0  0
  -16.3335  -26.4588   22.2933 O   0  0  0  0  0  0  0  0  0  0  0  0
  -27.0994  -18.2338   19.3559 O   0  0  0  0  0  0  0  0  0  1  0  0
  -15.4446  -23.1117   18.0025 F   0  0  0  0  0  0  0  0  0  0  0  0
  -15.2216  -23.9538   22.6551 F   0  0  0  0  0  0  0  0  0  0  0  0
  1  2  1  0  0  0  0
  1  5  2  0  0  0  0
  2  6  2  0  0  0  0
  3  8  2  0  0  0  0
  3 18  1  0  0  0  0
  4  9  1  0  0  0  0
  4 18  2  0  0  0  0
  5 20  1  0  0  0  0
  6 22  1  0  0  0  0
  7 10  2  0  0  0  0
  7 21  1  0  0  0  0
  8 27  1  0  0  0  0
  9 27  2  0  0  0  0
 10 28  1  0  0  0  0
 11 12  2  0  0  0  0
 11 29  1  0  0  0  0
 12 30  1  0  0  0  0
 13 23  1  0  0  0  0
 13 25  2  0  0  0  0
 14 23  2  0  0  0  0
 14 26  1  0  0  0  0
 15 24  1  0  0  0  0
 15 28  2  0  0  0  0
 16 25  1  0  0  0  0
 16 26  2  0  0  0  0
 17 30  2  0  0  0  0
 17 31  1  0  0  0  0
 18 32  1  0  0  0  0
 19 32  1  0  0  0  0
 19 33  2  0  0  0  0
 19 36  1  0  0  0  0
 20 22  2  0  0  0  0
 20 42  1  0  0  0  0
 21 24  2  0  0  0  0
 21 43  1  0  0  0  0
 22 55  1  0  0  0  0
 23 54  1  0  0  0  0
 24 44  1  0  0  0  0
 25 73  1  0  0  0  0
 26 76  1  0  0  0  0
 27 86  1  0  0  0  0
 28 87  1  0  0  0  0
 29 31  2  0  0  0  0
 29 86  1  0  0  0  0
 30 88  1  0  0  0  0
 31 89  1  0  0  0  0
 32 68  2  0  0  0  0
 33 69  1  0  0  0  0
 33 74  1  0  0  0  0
 34 35  2  0  0  0  0
 35 37  1  0  0  0  0
 36 75  1  0  0  0  0
 36 80  2  0  0  0  0
 37 70  1  0  0  0  0
 37 81  2  0  0  0  0
 38 56  1  0  0  0  0
 38 77  1  0  0  0  0
 38 82  2  0  0  0  0
 39 65  1  0  0  0  0
 39 71  1  0  0  0  0
 39 83  2  0  0  0  0
 40 66  1  0  0  0  0
 40 78  1  0  0  0  0
 40 84  2  0  0  0  0
 41 72  1  0  0  0  0
 41 76  1  0  0  0  0
 41 85  2  0  0  0  0
 42 45  1  0  0  0  0
 43 56  1  0  0  0  0
 44 71  1  0  0  0  0
 45 47  1  0  0  0  0
 46 48  1  0  0  0  0
 46 51  1  0  0  0  0
 47 55  1  0  0  0  0
 48 57  1  0  0  0  0
 49 52  1  0  0  0  0
 49 54  1  0  0  0  0
 50 54  1  0  0  0  0
 50 58  1  0  0  0  0
 51 72  1  0  0  0  0
 52 70  1  0  0  0  0
 53 57  1  0  0  0  0
 53 72  1  0  0  0  0
 55 77  1  0  0  0  0
 56 71  1  0  0  0  0
 57 69  1  0  0  0  0
 58 64  1  0  0  0  0
 58 70  1  0  0  0  0
 59 66  1  0  0  0  0
 60 67  1  0  0  0  0
 61 67  1  0  0  0  0
 62 67  1  0  0  0  0
 63 79  1  0  0  0  0
 64 87  1  0  0  0  0
 65 67  1  0  0  0  0
 65 78  1  0  0  0  0
 66 79  1  0  0  0  0
 68 69  1  0  0  0  0
M  CHG  1  79   1
M  ISO  4  41 100  64 101  76 100  87 101
M  END
> <Batch ID>
0076

> <Smiles>
C=CC(=O)N1CCC(c2cc(N)cc([100NH:0][100C:0](=O)N3CCCC(n4nc(-c5ccc(Oc6ccc(F)cc6F)cc5)c(C(N)=O)c4N)C3)c2)CC1[101CH2:1][101O:1]c1ccc2c(c1)CN(C(=O)C(NC(=O)C(C)NC)C(C)(C)C)C(C(=O)NC1CCCc3ccccc31)C2

> <Shape>
0.223

> <Color>
0.069

> <Negative vol penalty>
0.000

$$$$

  -OEChem-04042323503D

 89 98  0     1  0  0  0  0  0999 V2000
  -23.6065   -8.2720   22.9587 C   0  0  0  0  0  0  0  0  0  0  0  0
  -24.4442   -9.2563   22.4439 C   0  0  0  0  0  0  0  0  0  0  0  0
  -22.6204  -25.9891   24.3567 C   0  0  0  0  0  0  0  0  0  0  0  0
  -22.7259  -28.0172   23.0480 C   0  0  0  0  0  0  0  0  0  0  0  0
  -30.2014  -21.2966   18.1909 C   0  0  0  0  0  0  0  0  0  0  0  0
  -22.2231   -8.4136   22.8589 C   0  0  0  0  0  0  0  0  0  0  0  0
  -23.8988  -10.3822   21.8279 C   0  0  0  0  0  0  0  0  0  0  0  0
  -26.1454  -14.6778   23.2927 C   0  0  0  0  0  0  0  0  0  0  0  0
  -30.0935  -22.5497   18.7940 C   0  0  0  0  0  0  0  0  0  0  0  0
  -21.2403  -25.9352   24.1620 C   0  0  0  0  0  0  0  0  0  0  0  0
  -21.3457  -27.9633   22.8533 C   0  0  0  0  0  0  0  0  0  0  0  0
  -27.3831  -14.9751   22.7239 C   0  0  0  0  0  0  0  0  0  0  0  0
  -18.5516  -28.7068   24.6058 C   0  0  0  0  0  0  0  0  0  0  0  0
  -17.8277  -29.8879   24.7678 C   0  0  0  0  0  0  0  0  0  0  0  0
  -29.0249  -20.3000   20.0509 C   0  0  0  0  0  0  0  0  0  0  0  0
  -26.3067  -16.4951   21.1910 C   0  0  0  0  0  0  0  0  0  0  0  0
  -17.0756  -29.7414   22.4766 C   0  0  0  0  0  0  0  0  0  0  0  0
  -23.3633  -27.0302   23.7997 C   0  0  0  0  0  0  0  0  0  0  0  0
  -29.6671  -20.1717   18.8193 C   0  0  0  0  0  0  0  0  0  0  0  0
  -25.4712  -27.1760   25.2291 C   0  0  0  0  0  0  0  0  0  0  0  0
  -21.6603   -9.5464   22.2501 C   0  0  0  0  0  0  0  0  0  0  0  0
  -24.9758  -15.2797   22.8069 C   0  0  0  0  0  0  0  0  0  0  0  0
  -22.5065  -10.5384   21.7188 C   0  0  0  0  0  0  0  0  0  0  0  0
  -25.0557  -16.2057   21.7570 C   0  0  0  0  0  0  0  0  0  0  0  0
  -29.4514  -22.6779   20.0255 C   0  0  0  0  0  0  0  0  0  0  0  0
  -20.6030  -26.9223   23.4103 C   0  0  0  0  0  0  0  0  0  0  0  0
  -27.4635  -15.8816   21.6710 C   0  0  0  0  0  0  0  0  0  0  0  0
  -18.5376  -28.0429   23.3790 C   0  0  0  0  0  0  0  0  0  0  0  0
  -17.0896  -30.4052   23.7033 C   0  0  0  0  0  0  0  0  0  0  0  0
  -28.9170  -21.5531   20.6540 C   0  0  0  0  0  0  0  0  0  0  0  0
  -17.7996  -28.5602   22.3145 C   0  0  0  0  0  0  0  0  0  0  0  0
  -24.7889  -27.0867   24.0010 C   0  0  0  0  0  0  0  0  0  0  0  0
  -26.8001  -27.1992   24.8827 C   0  0  0  0  0  0  0  0  0  0  0  0
  -30.0940  -16.5787   18.6472 C   0  0  0  0  0  0  0  0  0  0  0  0
  -29.7805  -18.8473   18.1827 C   0  0  0  0  0  0  0  0  0  0  0  0
  -24.9503  -27.2329   26.5637 C   0  0  0  0  0  0  0  0  0  0  0  0
  -22.3010  -14.2183   21.4568 C   0  0  0  0  0  0  0  0  0  0  0  0
  -21.3980  -17.3228   21.7193 C   0  0  0  0  0  0  0  0  0  0  0  0
  -22.3237  -20.5968   21.9851 C   0  0  0  0  0  0  0  0  0  0  0  0
  -29.8193  -25.1673   20.1435 C   0  0  0  0  0  0  0  0  0  0  0  0
  -20.1599   -9.6326   22.1236 C   0  0  0  0  0  0  0  0  0  0  0  0
  -23.6516  -14.9686   23.4490 C   0  0  0  0  0  0  0  0  0  0  0  0
  -23.8321  -16.8946   21.2123 C   0  0  0  0  0  0  0  0  0  0  0  0
  -30.9195  -15.5847   19.3915 C   0  0  0  0  0  0  0  0  0  0  0  0
  -19.6564  -11.0345   21.7899 C   0  0  0  0  0  0  0  0  0  0  0  0
  -29.7203  -28.5243   21.3259 C   0  0  0  0  0  0  0  0  0  0  0  0
  -20.4807  -11.6428   20.6597 C   0  0  0  0  0  0  0  0  0  0  0  0
  -28.5101  -28.5431   22.2626 C   0  0  0  0  0  0  0  0  0  0  0  0
  -31.2572  -17.4939   21.0659 C   0  0  0  0  0  0  0  0  0  0  0  0
  -29.4831  -27.6292   20.1109 C   0  0  0  0  0  0  0  0  0  0  0  0
  -31.5205  -18.2089   19.7463 C   0  0  0  0  0  0  0  0  0  0  0  0
  -27.8441  -26.2787   21.3594 C   0  0  0  0  0  0  0  0  0  0  0  0
  -21.9525  -11.7859   21.0656 C   0  0  1  0  0  0  0  0  0  0  0  0
  -22.4633  -15.2519   22.5352 C   0  0  1  0  0  0  0  0  0  0  0  0
  -28.0602  -27.1157   22.6308 C   0  0  2  0  0  0  0  0  0  0  0  0
  -31.0673  -15.9641   20.8841 C   0  0  2  0  0  0  0  0  0  0  0  0
  -32.2838  -15.2187   21.4624 C   0  0  0  0  0  0  0  0  0  0  0  0
  -21.3620  -22.9093   22.1429 C   0  0  0  0  0  0  0  0  0  0  0  0
  -20.7666  -17.2612   18.7347 C   0  0  0  0  0  0  0  0  0  0  0  0
  -20.7348  -19.7645   18.7607 C   0  0  0  0  0  0  0  0  0  0  0  0
  -19.0900  -18.4838   20.1307 C   0  0  0  0  0  0  0  0  0  0  0  0
  -23.5585  -21.0550   24.6354 C   0  0  0  0  0  0  0  0  0  0  0  0
  -29.8130  -15.5135   21.6570 C   0  0  0  0  0  0  0  0  0  1  0  0
  -21.5145  -18.5477   20.8446 C   0  0  1  0  0  0  0  0  0  0  0  0
  -21.8629  -21.7012   22.9191 C   0  0  2  0  0  0  0  0  0  0  0  0
  -20.5495  -18.5000   19.6264 C   0  0  0  0  0  0  0  0  0  0  0  0
  -25.6160  -27.0554   22.9527 N   0  0  0  0  0  0  0  0  0  0  0  0
  -26.8317  -27.1256   23.5212 N   0  0  0  0  0  0  0  0  0  0  0  0
  -30.4205  -17.8716   18.8164 N   0  0  0  0  0  0  0  0  0  0  0  0
  -22.5598  -16.5524   21.8692 N   0  0  0  0  0  0  0  0  0  0  0  0
  -29.0638  -26.2922   20.5368 N   0  0  0  0  0  0  0  0  0  0  0  0
  -27.9329  -27.2753   25.6130 N   0  0  0  0  0  0  0  0  0  0  0  0
  -23.5604  -27.1983   26.7405 N   0  0  0  0  0  0  0  0  0  0  0  0
  -29.3433  -23.9524   20.6353 N   0  0  0  0  0  0  0  0  0  0  0  0
  -22.1288  -12.9321   21.9315 N   0  0  0  0  0  0  0  0  0  0  0  0
  -21.3135  -19.6961   21.7216 N   0  0  0  0  0  0  0  0  0  0  0  0
  -29.1307  -16.0735   17.8810 N   0  3  0  0  0  0  0  0  0  0  0  0
  -29.2386  -18.6498   16.9845 N   0  3  0  0  0  0  0  0  0  0  0  0
  -22.9848  -22.1389   23.7970 N   0  3  0  0  0  0  0  0  0  0  0  0
  -25.6948  -27.3285   27.5687 O   0  0  0  0  0  0  0  0  0  0  0  0
  -22.3285  -14.5625   20.2810 O   0  0  0  0  0  0  0  0  0  0  0  0
  -20.3179  -17.0632   22.2556 O   0  0  0  0  0  0  0  0  0  0  0  0
  -23.4646  -20.5409   21.5315 O   0  0  0  0  0  0  0  0  0  0  0  0
  -30.8309  -25.2767   19.4457 O   0  0  0  0  0  0  0  0  0  0  0  0
  -19.2563  -26.8699   23.2199 O   0  0  0  0  0  0  0  0  0  0  0  0
  -28.6703  -16.1731   21.1136 O   0  0  0  0  0  0  0  0  0  1  0  0
  -16.3932  -31.5387   23.8595 F   0  0  0  0  0  0  0  0  0  0  0  0
  -28.2989  -21.6645   21.8385 F   0  0  0  0  0  0  0  0  0  0  0  0
  -17.7813  -27.9263   21.1340 F   0  0  0  0  0  0  0  0  0  0  0  0
  1  2  1  0  0  0  0
  1  6  2  0  0  0  0
  2  7  2  0  0  0  0
  3 10  2  0  0  0  0
  3 18  1  0  0  0  0
  4 11  1  0  0  0  0
  4 18  2  0  0  0  0
  5  9  2  0  0  0  0
  5 19  1  0  0  0  0
  6 21  1  0  0  0  0
  7 23  1  0  0  0  0
  8 12  2  0  0  0  0
  8 22  1  0  0  0  0
  9 25  1  0  0  0  0
 10 26  1  0  0  0  0
 11 26  2  0  0  0  0
 12 27  1  0  0  0  0
 13 14  2  0  0  0  0
 13 28  1  0  0  0  0
 14 29  1  0  0  0  0
 15 19  2  0  0  0  0
 15 30  1  0  0  0  0
 16 24  1  0  0  0  0
 16 27  2  0  0  0  0
 17 29  2  0  0  0  0
 17 31  1  0  0  0  0
 18 32  1  0  0  0  0
 19 35  1  0  0  0  0
 20 32  1  0  0  0  0
 20 33  2  0  0  0  0
 20 36  1  0  0  0  0
 21 23  2  0  0  0  0
 21 41  1  0  0  0  0
 22 24  2  0  0  0  0
 22 42  1  0  0  0  0
 23 53  1  0  0  0  0
 24 43  1  0  0  0  0
 25 30  2  0  0  0  0
 25 74  1  0  0  0  0
 26 85  1  0  0  0  0
 27 86  1  0  0  0  0
 28 31  2  0  0  0  0
 28 85  1  0  0  0  0
 29 87  1  0  0  0  0
 30 88  1  0  0  0  0
 31 89  1  0  0  0  0
 32 67  2  0  0  0  0
 33 68  1  0  0  0  0
 33 72  1  0  0  0  0
 34 44  1  0  0  0  0
 34 69  1  0  0  0  0
 34 77  2  0  0  0  0
 35 69  1  0  0  0  0
 35 78  2  0  0  0  0
 36 73  1  0  0  0  0
 36 80  2  0  0  0  0
 37 54  1  0  0  0  0
 37 75  1  0  0  0  0
 37 81  2  0  0  0  0
 38 64  1  0  0  0  0
 38 70  1  0  0  0  0
 38 82  2  0  0  0  0
 39 65  1  0  0  0  0
 39 76  1  0  0  0  0
 39 83  2  0  0  0  0
 40 71  1  0  0  0  0
 40 74  1  0  0  0  0
 40 84  2  0  0  0  0
 41 45  1  0  0  0  0
 42 54  1  0  0  0  0
 43 70  1  0  0  0  0
 44 56  1  0  0  0  0
 45 47  1  0  0  0  0
 46 48  1  0  0  0  0
 46 50  1  0  0  0  0
 47 53  1  0  0  0  0
 48 55  1  0  0  0  0
 49 51  1  0  0  0  0
 49 56  1  0  0  0  0
 50 71  1  0  0  0  0
 51 69  1  0  0  0  0
 52 55  1  0  0  0  0
 52 71  1  0  0  0  0
 53 75  1  0  0  0  0
 54 70  1  0  0  0  0
 55 68  1  0  0  0  0
 56 57  1  0  0  0  0
 56 63  1  0  0  0  0
 58 65  1  0  0  0  0
 59 66  1  0  0  0  0
 60 66  1  0  0  0  0
 61 66  1  0  0  0  0
 62 79  1  0  0  0  0
 63 86  1  0  0  0  0
 64 66  1  0  0  0  0
 64 76  1  0  0  0  0
 65 79  1  0  0  0  0
 67 68  1  0  0  0  0
M  CHG  3  77   1  78   1  79   1
M  ISO  4  40 100  63 101  74 100  86 101
M  END
> <Batch ID>
0076

> <Smiles>
CNC(C)C(=O)NC(C(=O)N1Cc2cc([101O:1][101CH2:1]C3(C)CCN(C(=N)c4ccc([100NH:0][100C:0](=O)N5CCCC(n6nc(-c7ccc(Oc8ccc(F)cc8F)cc7)c(C(N)=O)c6N)C5)c(F)c4)C(=N)C3)ccc2CC1C(=O)NC1CCCc2ccccc21)C(C)(C)C

> <Shape>
0.216

> <Color>
0.074

> <Negative vol penalty>
0.000

$$$$

  -OEChem-04042323503D

 85 94  0     1  0  0  0  0  0999 V2000
  -26.8193  -37.8821   21.3208 C   0  0  0  0  0  0  0  0  0  0  0  0
  -27.3961  -36.6877   20.9012 C   0  0  0  0  0  0  0  0  0  0  0  0
  -24.1392   -8.8811   21.4199 C   0  0  0  0  0  0  0  0  0  0  0  0
  -24.0772  -10.5820   23.1345 C   0  0  0  0  0  0  0  0  0  0  0  0
  -25.9365  -37.8874   22.4000 C   0  0  0  0  0  0  0  0  0  0  0  0
  -27.0912  -35.4978   21.5613 C   0  0  0  0  0  0  0  0  0  0  0  0
  -26.6003  -29.9259   19.0678 C   0  0  0  0  0  0  0  0  0  0  0  0
  -30.0911  -19.9823   19.5761 C   0  0  0  0  0  0  0  0  0  0  0  0
  -30.0242  -18.5926   19.4762 C   0  0  0  0  0  0  0  0  0  0  0  0
  -23.6323   -7.9494   22.3257 C   0  0  0  0  0  0  0  0  0  0  0  0
  -23.5702   -9.6503   24.0404 C   0  0  0  0  0  0  0  0  0  0  0  0
  -27.4853  -28.8513   18.9909 C   0  0  0  0  0  0  0  0  0  0  0  0
  -20.6274   -7.1421   23.6492 C   0  0  0  0  0  0  0  0  0  0  0  0
  -19.5995   -6.3064   23.2126 C   0  0  0  0  0  0  0  0  0  0  0  0
  -26.4548  -27.8711   20.9394 C   0  0  0  0  0  0  0  0  0  0  0  0
  -27.7056  -20.1227   19.2198 C   0  0  0  0  0  0  0  0  0  0  0  0
  -20.9837   -4.3752   23.6501 C   0  0  0  0  0  0  0  0  0  0  0  0
  -24.3618  -10.1974   21.8243 C   0  0  0  0  0  0  0  0  0  0  0  0
  -24.1505  -11.9990   20.0307 C   0  0  0  0  0  0  0  0  0  0  0  0
  -25.6131  -36.6955   23.0675 C   0  0  0  0  0  0  0  0  0  0  0  0
  -25.6414  -29.9865   20.0892 C   0  0  0  0  0  0  0  0  0  0  0  0
  -26.2042  -35.4873   22.6513 C   0  0  0  0  0  0  0  0  0  0  0  0
  -25.5571  -28.9462   21.0254 C   0  0  0  0  0  0  0  0  0  0  0  0
  -28.9318  -20.7473   19.4479 C   0  0  0  0  0  0  0  0  0  0  0  0
  -28.7980  -17.9680   19.2481 C   0  0  0  0  0  0  0  0  0  0  0  0
  -27.6387  -18.7331   19.1199 C   0  0  0  0  0  0  0  0  0  0  0  0
  -23.3477   -8.3340   23.6360 C   0  0  0  0  0  0  0  0  0  0  0  0
  -27.4146  -27.8251   19.9285 C   0  0  0  0  0  0  0  0  0  0  0  0
  -21.8335   -6.5943   24.0862 C   0  0  0  0  0  0  0  0  0  0  0  0
  -19.7776   -4.9230   23.2131 C   0  0  0  0  0  0  0  0  0  0  0  0
  -22.0116   -5.2109   24.0866 C   0  0  0  0  0  0  0  0  0  0  0  0
  -24.8860  -11.1601   20.8892 C   0  0  0  0  0  0  0  0  0  0  0  0
  -25.1045  -12.7181   19.3530 C   0  0  0  0  0  0  0  0  0  0  0  0
  -28.5067  -24.4222   19.6155 C   0  0  0  0  0  0  0  0  0  0  0  0
  -27.9260  -23.0638   19.4437 C   0  0  0  0  0  0  0  0  0  0  0  0
  -27.7551  -25.5226   19.6983 C   0  0  0  0  0  0  0  0  0  1  0  0
  -22.7318  -12.1177   19.8610 C   0  0  0  0  0  0  0  0  0  0  0  0
  -25.0442  -31.9829   22.4895 C   0  0  0  0  0  0  0  0  0  0  0  0
  -22.4208  -30.1147   22.8764 C   0  0  0  0  0  0  0  0  0  0  0  0
  -20.9246  -27.0855   22.3948 C   0  0  0  0  0  0  0  0  0  0  0  0
  -29.8259  -15.6681   19.2578 C   0  0  0  0  0  0  0  0  0  0  0  0
  -24.6902  -36.7581   24.2587 C   0  0  0  0  0  0  0  0  0  0  0  0
  -24.6766  -31.1392   20.1424 C   0  0  0  0  0  0  0  0  0  0  0  0
  -24.5326  -28.9539   22.1294 C   0  0  0  0  0  0  0  0  0  0  0  0
  -29.9908  -24.3419   19.7000 C   0  0  0  0  0  0  0  0  0  0  0  0
  -24.1298  -35.3981   24.6671 C   0  0  0  0  0  0  0  0  0  0  0  0
  -30.1255  -12.1231   19.1139 C   0  0  0  0  0  0  0  0  0  0  0  0
  -25.2407  -34.3535   24.7084 C   0  0  0  0  0  0  0  0  0  0  0  0
  -28.7286  -11.6256   19.4923 C   0  0  0  0  0  0  0  0  0  0  0  0
  -30.2478  -22.8527   19.8612 C   0  0  0  0  0  0  0  0  0  0  0  0
  -30.5168  -13.3703   19.9045 C   0  0  0  0  0  0  0  0  0  0  0  0
  -28.1499  -13.9739   20.2255 C   0  0  0  0  0  0  0  0  0  0  0  0
  -25.8792  -34.1723   23.3261 C   0  0  1  0  0  0  0  0  0  0  0  0
  -24.0763  -31.3525   21.5286 C   0  0  1  0  0  0  0  0  0  0  0  0
  -27.6855  -12.7571   19.4085 C   0  0  2  0  0  0  0  0  0  0  0  0
  -18.7910  -25.8469   22.8544 C   0  0  0  0  0  0  0  0  0  0  0  0
  -23.2572  -29.7598   25.7892 C   0  0  0  0  0  0  0  0  0  0  0  0
  -21.6874  -27.8145   25.9303 C   0  0  0  0  0  0  0  0  0  0  0  0
  -20.8034  -30.0955   25.4420 C   0  0  0  0  0  0  0  0  0  0  0  0
  -20.3884  -26.7040   19.5093 C   0  0  0  0  0  0  0  0  0  0  0  0
  -22.1057  -28.8631   23.6595 C   0  0  1  0  0  0  0  0  0  0  0  0
  -19.5524  -26.7130   21.8630 C   0  0  2  0  0  0  0  0  0  0  0  0
  -21.9841  -29.1337   25.1857 C   0  0  0  0  0  0  0  0  0  0  0  0
  -26.2055  -11.3294   20.7697 N   0  0  0  0  0  0  0  0  0  0  0  0
  -26.3066  -12.2829   19.8280 N   0  0  0  0  0  0  0  0  0  0  0  0
  -29.0007  -22.1716   19.5506 N   0  0  0  0  0  0  0  0  0  0  0  0
  -23.6157  -30.1056   22.1430 N   0  0  0  0  0  0  0  0  0  0  0  0
  -29.4840  -14.4007   19.7751 N   0  0  0  0  0  0  0  0  0  0  0  0
  -26.3863  -18.1209   18.8889 N   0  0  0  0  0  0  0  0  0  0  0  0
  -25.0240  -13.6739   18.4030 N   0  0  0  0  0  0  0  0  0  0  0  0
  -21.8956  -11.3037   20.6372 N   0  0  0  0  0  0  0  0  0  0  0  0
  -28.7552  -16.5550   19.1507 N   0  0  0  0  0  0  0  0  0  0  0  0
  -25.0287  -33.3646   22.4784 N   0  0  0  0  0  0  0  0  0  0  0  0
  -20.9050  -28.2954   23.0558 N   0  0  0  0  0  0  0  0  0  0  0  0
  -19.6797  -25.9608   20.5828 N   0  3  0  0  0  0  0  0  0  0  0  0
  -26.7373  -22.8623   19.2587 O   0  0  0  0  0  0  0  0  0  0  0  0
  -22.2211  -12.9101   19.0335 O   0  0  0  0  0  0  0  0  0  0  0  0
  -25.7516  -31.2686   23.1903 O   0  0  0  0  0  0  0  0  0  0  0  0
  -21.6322  -31.0627   22.9085 O   0  0  0  0  0  0  0  0  0  0  0  0
  -21.9141  -26.3725   22.2424 O   0  0  0  0  0  0  0  0  0  0  0  0
  -30.9781  -15.9370   18.9082 O   0  0  0  0  0  0  0  0  0  0  0  0
  -22.8528   -7.4252   24.5201 O   0  0  0  0  0  0  0  0  0  0  0  0
  -28.2776  -26.7755   19.8562 O   0  0  0  0  0  0  0  0  0  1  0  0
  -18.7898   -4.1206   22.7952 F   0  0  0  0  0  0  0  0  0  0  0  0
  -23.1677   -4.6787   24.5064 F   0  0  0  0  0  0  0  0  0  0  0  0
  1  2  1  0  0  0  0
  1  5  2  0  0  0  0
  2  6  2  0  0  0  0
  3 10  2  0  0  0  0
  3 18  1  0  0  0  0
  4 11  1  0  0  0  0
  4 18  2  0  0  0  0
  5 20  1  0  0  0  0
  6 22  1  0  0  0  0
  7 12  2  0  0  0  0
  7 21  1  0  0  0  0
  8  9  2  0  0  0  0
  8 24  1  0  0  0  0
  9 25  1  0  0  0  0
 10 27  1  0  0  0  0
 11 27  2  0  0  0  0
 12 28  1  0  0  0  0
 13 14  2  0  0  0  0
 13 29  1  0  0  0  0
 14 30  1  0  0  0  0
 15 23  1  0  0  0  0
 15 28  2  0  0  0  0
 16 24  2  0  0  0  0
 16 26  1  0  0  0  0
 17 30  2  0  0  0  0
 17 31  1  0  0  0  0
 18 32  1  0  0  0  0
 19 32  1  0  0  0  0
 19 33  2  0  0  0  0
 19 37  1  0  0  0  0
 20 22  2  0  0  0  0
 20 42  1  0  0  0  0
 21 23  2  0  0  0  0
 21 43  1  0  0  0  0
 22 53  1  0  0  0  0
 23 44  1  0  0  0  0
 24 66  1  0  0  0  0
 25 26  2  0  0  0  0
 25 72  1  0  0  0  0
 26 69  1  0  0  0  0
 27 82  1  0  0  0  0
 28 83  1  0  0  0  0
 29 31  2  0  0  0  0
 29 82  1  0  0  0  0
 30 84  1  0  0  0  0
 31 85  1  0  0  0  0
 32 64  2  0  0  0  0
 33 65  1  0  0  0  0
 33 70  1  0  0  0  0
 34 35  1  0  0  0  0
 34 36  2  0  0  0  0
 34 45  1  0  0  0  0
 35 66  1  0  0  0  0
 35 76  2  0  0  0  0
 36 83  1  0  0  0  0
 37 71  1  0  0  0  0
 37 77  2  0  0  0  0
 38 54  1  0  0  0  0
 38 73  1  0  0  0  0
 38 78  2  0  0  0  0
 39 61  1  0  0  0  0
 39 67  1  0  0  0  0
 39 79  2  0  0  0  0
 40 62  1  0  0  0  0
 40 74  1  0  0  0  0
 40 80  2  0  0  0  0
 41 68  1  0  0  0  0
 41 72  1  0  0  0  0
 41 81  2  0  0  0  0
 42 46  1  0  0  0  0
 43 54  1  0  0  0  0
 44 67  1  0  0  0  0
 45 50  1  0  0  0  0
 46 48  1  0  0  0  0
 47 49  1  0  0  0  0
 47 51  1  0  0  0  0
 48 53  1  0  0  0  0
 49 55  1  0  0  0  0
 50 66  1  0  0  0  0
 51 68  1  0  0  0  0
 52 55  1  0  0  0  0
 52 68  1  0  0  0  0
 53 73  1  0  0  0  0
 54 67  1  0  0  0  0
 55 65  1  0  0  0  0
 56 62  1  0  0  0  0
 57 63  1  0  0  0  0
 58 63  1  0  0  0  0
 59 63  1  0  0  0  0
 60 75  1  0  0  0  0
 61 63  1  0  0  0  0
 61 74  1  0  0  0  0
 62 75  1  0  0  0  0
 64 65  1  0  0  0  0
M  CHG  1  75   1
M  ISO  4  36 101  41 100  72 100  83 101
M  END
> <Batch ID>
0076

> <Smiles>
CNC(C)C(=O)NC(C(=O)N1Cc2cc([101O:1][101CH:1]=C3CCN(c4ccc([100NH:0][100C:0](=O)N5CCCC(n6nc(-c7ccc(Oc8ccc(F)cc8F)cc7)c(C(N)=O)c6N)C5)c(N)c4)C3=O)ccc2CC1C(=O)NC1CCCc2ccccc21)C(C)(C)C

> <Shape>
0.366

> <Color>
0.100

> <Negative vol penalty>
0.000

$$$$

  -OEChem-04042323503D

 87 96  0     1  0  0  0  0  0999 V2000
  -28.8119  -33.9289   28.1116 C   0  0  0  0  0  0  0  0  0  0  0  0
  -28.6068  -32.8319   27.2810 C   0  0  0  0  0  0  0  0  0  0  0  0
  -24.1555   -9.4738   20.7454 C   0  0  0  0  0  0  0  0  0  0  0  0
  -24.8399  -10.1567   22.9595 C   0  0  0  0  0  0  0  0  0  0  0  0
  -27.8461  -34.9312   28.1920 C   0  0  0  0  0  0  0  0  0  0  0  0
  -27.4350  -32.7359   26.5312 C   0  0  0  0  0  0  0  0  0  0  0  0
  -28.2999  -31.3130   21.7488 C   0  0  0  0  0  0  0  0  0  0  0  0
  -30.1005  -20.8954   20.2851 C   0  0  0  0  0  0  0  0  0  0  0  0
  -27.6855  -20.9649   20.2974 C   0  0  0  0  0  0  0  0  0  0  0  0
  -30.0602  -19.5016   20.2500 C   0  0  0  0  0  0  0  0  0  0  0  0
  -27.6452  -19.5711   20.2623 C   0  0  0  0  0  0  0  0  0  0  0  0
  -23.8066   -8.2175   21.2406 C   0  0  0  0  0  0  0  0  0  0  0  0
  -24.4909   -8.9003   23.4548 C   0  0  0  0  0  0  0  0  0  0  0  0
  -28.5473  -29.9598   21.5219 C   0  0  0  0  0  0  0  0  0  0  0  0
  -21.2344   -6.8400   22.9493 C   0  0  0  0  0  0  0  0  0  0  0  0
  -20.0154   -6.2983   22.5419 C   0  0  0  0  0  0  0  0  0  0  0  0
  -26.2625  -29.6684   20.8052 C   0  0  0  0  0  0  0  0  0  0  0  0
  -21.1757   -4.4088   21.5824 C   0  0  0  0  0  0  0  0  0  0  0  0
  -24.6722  -10.4435   21.6048 C   0  0  0  0  0  0  0  0  0  0  0  0
  -24.2077  -12.8775   20.9987 C   0  0  0  0  0  0  0  0  0  0  0  0
  -26.6662  -34.8522   27.4355 C   0  0  0  0  0  0  0  0  0  0  0  0
  -27.0268  -31.8527   21.5155 C   0  0  0  0  0  0  0  0  0  0  0  0
  -26.4519  -33.7374   26.6026 C   0  0  0  0  0  0  0  0  0  0  0  0
  -26.0022  -31.0293   21.0275 C   0  0  0  0  0  0  0  0  0  0  0  0
  -28.9131  -21.6271   20.3088 C   0  0  0  0  0  0  0  0  0  0  0  0
  -28.8326  -18.8394   20.2386 C   0  0  0  0  0  0  0  0  0  0  0  0
  -23.9742   -7.9307   22.5954 C   0  0  0  0  0  0  0  0  0  0  0  0
  -27.5278  -29.1367   21.0528 C   0  0  0  0  0  0  0  0  0  0  0  0
  -22.4242   -6.1662   22.6732 C   0  0  0  0  0  0  0  0  0  0  0  0
  -19.9860   -5.0827   21.8584 C   0  0  0  0  0  0  0  0  0  0  0  0
  -22.3948   -4.9506   21.9898 C   0  0  0  0  0  0  0  0  0  0  0  0
  -25.0334  -11.7413   21.0936 C   0  0  0  0  0  0  0  0  0  0  0  0
  -25.0155  -13.8443   20.4517 C   0  0  0  0  0  0  0  0  0  0  0  0
  -29.1579  -25.8545   20.8406 C   0  0  0  0  0  0  0  0  0  0  0  0
  -29.9946  -25.2873   19.9449 C   0  0  0  0  0  0  0  0  0  0  0  0
  -28.2131  -25.0202   21.5762 C   0  0  0  0  0  0  0  0  0  0  0  0
  -30.0124  -23.7832   19.7586 C   0  0  0  0  0  0  0  0  0  0  0  0
  -27.7360  -25.3114   22.7975 C   0  0  0  0  0  0  0  0  0  0  0  0
  -22.8333  -13.0441   21.3716 C   0  0  0  0  0  0  0  0  0  0  0  0
  -24.8212  -33.2587   23.3217 C   0  0  0  0  0  0  0  0  0  0  0  0
  -23.3415  -33.7202   20.4721 C   0  0  0  0  0  0  0  0  0  0  0  0
  -22.9199  -32.7319   17.2329 C   0  0  0  0  0  0  0  0  0  0  0  0
  -29.8757  -16.5472   20.1762 C   0  0  0  0  0  0  0  0  0  0  0  0
  -25.6299  -35.9369   27.5915 C   0  0  0  0  0  0  0  0  0  0  0  0
  -26.7834  -33.3199   21.7398 C   0  0  0  0  0  0  0  0  0  0  0  0
  -24.6234  -31.5639   20.7420 C   0  0  0  0  0  0  0  0  0  0  0  0
  -27.7780  -23.7873   20.8397 C   0  0  0  0  0  0  0  0  0  0  0  0
  -24.5839  -35.9443   26.4797 C   0  0  0  0  0  0  0  0  0  0  0  0
  -29.6098  -13.4991   18.3554 C   0  0  0  0  0  0  0  0  0  0  0  0
  -24.0709  -34.5315   26.2198 C   0  0  0  0  0  0  0  0  0  0  0  0
  -28.3276  -12.8635   18.8976 C   0  0  0  0  0  0  0  0  0  0  0  0
  -30.3887  -14.2268   19.4496 C   0  0  0  0  0  0  0  0  0  0  0  0
  -28.3299  -14.5751   20.7570 C   0  0  0  0  0  0  0  0  0  0  0  0
  -25.2048  -33.6097   25.7549 C   0  0  1  0  0  0  0  0  0  0  0  0
  -25.3110  -33.6549   21.9575 C   0  0  1  0  0  0  0  0  0  0  0  0
  -27.4785  -13.8857   19.6784 C   0  0  2  0  0  0  0  0  0  0  0  0
  -31.0240  -26.0231   19.1274 C   0  0  0  0  0  0  0  0  0  0  0  0
  -21.6146  -33.2786   15.1606 C   0  0  0  0  0  0  0  0  0  0  0  0
  -20.8708  -32.4019   21.6835 C   0  0  0  0  0  0  0  0  0  0  0  0
  -19.9718  -32.1163   19.3644 C   0  0  0  0  0  0  0  0  0  0  0  0
  -20.3943  -34.4045   20.2634 C   0  0  0  0  0  0  0  0  0  0  0  0
  -25.3808  -33.3230   15.6988 C   0  0  0  0  0  0  0  0  0  0  0  0
  -29.0844  -27.3393   21.1004 C   0  0  0  0  0  0  0  0  0  1  0  0
  -22.3557  -32.9361   19.6401 C   0  0  1  0  0  0  0  0  0  0  0  0
  -22.9018  -33.5178   15.9343 C   0  0  2  0  0  0  0  0  0  0  0  0
  -20.9235  -32.9539   20.2450 C   0  0  0  0  0  0  0  0  0  0  0  0
  -26.2709  -11.9641   20.6430 N   0  0  0  0  0  0  0  0  0  0  0  0
  -26.2286  -13.2514   20.2595 N   0  0  0  0  0  0  0  0  0  0  0  0
  -28.9546  -23.0688   20.3454 N   0  0  0  0  0  0  0  0  0  0  0  0
  -24.4332  -33.0038   20.9830 N   0  0  0  0  0  0  0  0  0  0  0  0
  -29.5216  -15.1817   20.1433 N   0  0  0  0  0  0  0  0  0  0  0  0
  -24.7993  -15.1352   20.1212 N   0  0  0  0  0  0  0  0  0  0  0  0
  -22.1521  -11.9485   21.9192 N   0  0  0  0  0  0  0  0  0  0  0  0
  -28.7913  -17.4235   20.2031 N   0  0  0  0  0  0  0  0  0  0  0  0
  -25.5127  -33.8505   24.3614 N   0  0  0  0  0  0  0  0  0  0  0  0
  -22.4402  -33.4784   18.2883 N   0  0  0  0  0  0  0  0  0  0  0  0
  -24.0497  -33.1190   15.0715 N   0  3  0  0  0  0  0  0  0  0  0  0
  -30.9177  -23.2870   19.0862 O   0  0  0  0  0  0  0  0  0  0  0  0
  -22.2226  -14.1276   21.2084 O   0  0  0  0  0  0  0  0  0  0  0  0
  -23.8844  -32.4754   23.4233 O   0  0  0  0  0  0  0  0  0  0  0  0
  -23.1539  -34.9254   20.6559 O   0  0  0  0  0  0  0  0  0  0  0  0
  -23.3162  -31.5707   17.3033 O   0  0  0  0  0  0  0  0  0  0  0  0
  -31.0537  -16.9129   20.1529 O   0  0  0  0  0  0  0  0  0  0  0  0
  -23.6336   -6.7049   23.0791 O   0  0  0  0  0  0  0  0  0  0  0  0
  -27.7664  -27.8154   20.8312 O   0  0  0  0  0  0  0  0  0  1  0  0
  -18.8151   -4.5619   21.4686 F   0  0  0  0  0  0  0  0  0  0  0  0
  -23.5343   -4.2980   21.7227 F   0  0  0  0  0  0  0  0  0  0  0  0
  1  2  1  0  0  0  0
  1  5  2  0  0  0  0
  2  6  2  0  0  0  0
  3 12  2  0  0  0  0
  3 19  1  0  0  0  0
  4 13  1  0  0  0  0
  4 19  2  0  0  0  0
  5 21  1  0  0  0  0
  6 23  1  0  0  0  0
  7 14  2  0  0  0  0
  7 22  1  0  0  0  0
  8 10  2  0  0  0  0
  8 25  1  0  0  0  0
  9 11  1  0  0  0  0
  9 25  2  0  0  0  0
 10 26  1  0  0  0  0
 11 26  2  0  0  0  0
 12 27  1  0  0  0  0
 13 27  2  0  0  0  0
 14 28  1  0  0  0  0
 15 16  2  0  0  0  0
 15 29  1  0  0  0  0
 16 30  1  0  0  0  0
 17 24  1  0  0  0  0
 17 28  2  0  0  0  0
 18 30  2  0  0  0  0
 18 31  1  0  0  0  0
 19 32  1  0  0  0  0
 20 32  1  0  0  0  0
 20 33  2  0  0  0  0
 20 39  1  0  0  0  0
 21 23  2  0  0  0  0
 21 44  1  0  0  0  0
 22 24  2  0  0  0  0
 22 45  1  0  0  0  0
 23 54  1  0  0  0  0
 24 46  1  0  0  0  0
 25 69  1  0  0  0  0
 26 74  1  0  0  0  0
 27 84  1  0  0  0  0
 28 85  1  0  0  0  0
 29 31  2  0  0  0  0
 29 84  1  0  0  0  0
 30 86  1  0  0  0  0
 31 87  1  0  0  0  0
 32 67  2  0  0  0  0
 33 68  1  0  0  0  0
 33 72  1  0  0  0  0
 34 35  2  0  0  0  0
 34 36  1  0  0  0  0
 34 63  1  0  0  0  0
 35 37  1  0  0  0  0
 35 57  1  0  0  0  0
 36 38  2  0  0  0  0
 36 47  1  0  0  0  0
 37 69  1  0  0  0  0
 37 78  2  0  0  0  0
 39 73  1  0  0  0  0
 39 79  2  0  0  0  0
 40 55  1  0  0  0  0
 40 75  1  0  0  0  0
 40 80  2  0  0  0  0
 41 64  1  0  0  0  0
 41 70  1  0  0  0  0
 41 81  2  0  0  0  0
 42 65  1  0  0  0  0
 42 76  1  0  0  0  0
 42 82  2  0  0  0  0
 43 71  1  0  0  0  0
 43 74  1  0  0  0  0
 43 83  2  0  0  0  0
 44 48  1  0  0  0  0
 45 55  1  0  0  0  0
 46 70  1  0  0  0  0
 47 69  1  0  0  0  0
 48 50  1  0  0  0  0
 49 51  1  0  0  0  0
 49 52  1  0  0  0  0
 50 54  1  0  0  0  0
 51 56  1  0  0  0  0
 52 71  1  0  0  0  0
 53 56  1  0  0  0  0
 53 71  1  0  0  0  0
 54 75  1  0  0  0  0
 55 70  1  0  0  0  0
 56 68  1  0  0  0  0
 58 65  1  0  0  0  0
 59 66  1  0  0  0  0
 60 66  1  0  0  0  0
 61 66  1  0  0  0  0
 62 77  1  0  0  0  0
 63 85  1  0  0  0  0
 64 66  1  0  0  0  0
 64 76  1  0  0  0  0
 65 77  1  0  0  0  0
 67 68  1  0  0  0  0
M  CHG  1  77   1
M  ISO  4  43 100  63 101  74 100  85 101
M  END
> <Batch ID>
0076

> <Smiles>
C=C1CN(c2ccc([100NH:0][100C:0](=O)N3CCCC(n4nc(-c5ccc(Oc6ccc(F)cc6F)cc5)c(C(N)=O)c4N)C3)cc2)C(=O)C(C)=C1[101CH2:1][101O:1]c1ccc2c(c1)CN(C(=O)C(NC(=O)C(C)NC)C(C)(C)C)C(C(=O)NC1CCCc3ccccc31)C2

> <Shape>
0.308

> <Color>
0.136

> <Negative vol penalty>
0.000

$$$$

  -OEChem-04042323503D

 87 96  0     1  0  0  0  0  0999 V2000
  -33.6964  -13.1796   25.6163 C   0  0  0  0  0  0  0  0  0  0  0  0
  -33.3907  -14.1683   24.6865 C   0  0  0  0  0  0  0  0  0  0  0  0
  -24.2011  -31.3873   25.5947 C   0  0  0  0  0  0  0  0  0  0  0  0
  -26.5755  -31.1872   25.9938 C   0  0  0  0  0  0  0  0  0  0  0  0
  -33.1929  -11.8899   25.4517 C   0  0  0  0  0  0  0  0  0  0  0  0
  -32.5821  -13.8675   23.5910 C   0  0  0  0  0  0  0  0  0  0  0  0
  -29.0557  -17.4034   22.7503 C   0  0  0  0  0  0  0  0  0  0  0  0
  -23.9667  -31.3473   26.9691 C   0  0  0  0  0  0  0  0  0  0  0  0
  -26.3411  -31.1473   27.3683 C   0  0  0  0  0  0  0  0  0  0  0  0
  -29.4670  -18.5748   22.1160 C   0  0  0  0  0  0  0  0  0  0  0  0
  -24.1607  -33.4723   29.5920 C   0  0  0  0  0  0  0  0  0  0  0  0
  -23.2622  -34.3974   30.1235 C   0  0  0  0  0  0  0  0  0  0  0  0
  -28.5995  -17.7402   20.0255 C   0  0  0  0  0  0  0  0  0  0  0  0
  -32.5799  -24.7675   20.7772 C   0  0  0  0  0  0  0  0  0  0  0  0
  -30.3474  -25.0039   19.8846 C   0  0  0  0  0  0  0  0  0  0  0  0
  -31.3758  -26.8416   21.0687 C   0  0  0  0  0  0  0  0  0  0  0  0
  -21.8721  -32.5893   30.9207 C   0  0  0  0  0  0  0  0  0  0  0  0
  -25.5055  -31.3072   25.1070 C   0  0  0  0  0  0  0  0  0  0  0  0
  -25.9777  -32.4897   22.8965 C   0  0  0  0  0  0  0  0  0  0  0  0
  -32.3698  -11.5756   24.3589 C   0  0  0  0  0  0  0  0  0  0  0  0
  -28.4218  -16.3853   22.0237 C   0  0  0  0  0  0  0  0  0  0  0  0
  -32.0682  -12.5721   23.4110 C   0  0  0  0  0  0  0  0  0  0  0  0
  -28.1787  -16.5579   20.6535 C   0  0  0  0  0  0  0  0  0  0  0  0
  -31.4930  -24.2337   20.0850 C   0  0  0  0  0  0  0  0  0  0  0  0
  -32.5214  -26.0714   21.2691 C   0  0  0  0  0  0  0  0  0  0  0  0
  -30.2888  -26.3079   20.3764 C   0  0  0  0  0  0  0  0  0  0  0  0
  -25.0366  -31.2273   27.8559 C   0  0  0  0  0  0  0  0  0  0  0  0
  -29.2416  -18.7421   20.7528 C   0  0  0  0  0  0  0  0  0  0  0  0
  -23.9149  -32.1057   29.7247 C   0  0  0  0  0  0  0  0  0  0  0  0
  -22.1180  -33.9559   30.7879 C   0  0  0  0  0  0  0  0  0  0  0  0
  -22.7706  -31.6642   30.3891 C   0  0  0  0  0  0  0  0  0  0  0  0
  -25.7483  -31.3479   23.6874 C   0  0  0  0  0  0  0  0  0  0  0  0
  -26.1507  -31.9981   21.6257 C   0  0  0  0  0  0  0  0  0  0  0  0
  -32.3166  -20.7395   19.2604 C   0  0  0  0  0  0  0  0  0  0  0  0
  -30.5422  -22.2265   18.8661 C   0  0  0  0  0  0  0  0  0  0  0  0
  -32.9553  -19.6091   19.5911 C   0  0  0  0  0  0  0  0  0  0  0  0
  -26.0297  -33.8712   23.2766 C   0  0  0  0  0  0  0  0  0  0  0  0
  -29.0943  -13.3502   21.3608 C   0  0  0  0  0  0  0  0  0  0  0  0
  -26.1286  -13.3866   20.0472 C   0  0  0  0  0  0  0  0  0  0  0  0
  -23.5951  -15.2066   18.6629 C   0  0  0  0  0  0  0  0  0  0  0  0
  -27.9603  -26.7132   19.5045 C   0  0  0  0  0  0  0  0  0  0  0  0
  -31.8878  -10.1556   24.1978 C   0  0  0  0  0  0  0  0  0  0  0  0
  -27.9601  -15.1391   22.7281 C   0  0  0  0  0  0  0  0  0  0  0  0
  -27.4840  -15.5037   19.8324 C   0  0  0  0  0  0  0  0  0  0  0  0
  -32.7391  -22.0837   19.7494 C   0  0  0  0  0  0  0  0  0  0  0  0
  -30.7318  -10.0130   23.2111 C   0  0  0  0  0  0  0  0  0  0  0  0
  -24.8659  -28.3359   18.8200 C   0  0  0  0  0  0  0  0  0  0  0  0
  -31.0218  -10.7929   21.9327 C   0  0  0  0  0  0  0  0  0  0  0  0
  -24.7648  -29.4004   19.9149 C   0  0  0  0  0  0  0  0  0  0  0  0
  -25.5037  -27.0481   19.3382 C   0  0  0  0  0  0  0  0  0  0  0  0
  -26.6988  -28.2867   21.1008 C   0  0  0  0  0  0  0  0  0  0  0  0
  -31.1741  -12.2909   22.2228 C   0  0  1  0  0  0  0  0  0  0  0  0
  -27.7848  -13.9511   21.7872 C   0  0  1  0  0  0  0  0  0  0  0  0
  -26.1221  -29.6247   20.6100 C   0  0  2  0  0  0  0  0  0  0  0  0
  -31.0558  -20.8493   18.4433 C   0  0  1  0  0  0  0  0  0  0  0  0
  -31.3767  -20.8820   16.9457 C   0  0  0  0  0  0  0  0  0  0  0  0
  -21.3132  -14.9535   17.6500 C   0  0  0  0  0  0  0  0  0  0  0  0
  -27.3885  -12.3207   17.4808 C   0  0  0  0  0  0  0  0  0  0  0  0
  -25.3031  -12.9833   16.2642 C   0  0  0  0  0  0  0  0  0  0  0  0
  -25.1968  -11.2753   18.0792 C   0  0  0  0  0  0  0  0  0  0  0  0
  -22.3552  -16.9043   20.7460 C   0  0  0  0  0  0  0  0  0  0  0  0
  -30.0035  -19.7817   18.7542 C   0  0  0  0  0  0  0  0  0  1  0  0
  -25.5680  -13.7026   18.6816 C   0  0  1  0  0  0  0  0  0  0  0  0
  -22.1000  -15.2136   18.9252 C   0  0  2  0  0  0  0  0  0  0  0  0
  -25.8790  -12.5897   17.6412 C   0  0  0  0  0  0  0  0  0  0  0  0
  -25.7726  -30.2162   22.9783 N   0  0  0  0  0  0  0  0  0  0  0  0
  -26.0193  -30.6445   21.7286 N   0  0  0  0  0  0  0  0  0  0  0  0
  -31.5528  -22.8956   19.5786 N   0  0  0  0  0  0  0  0  0  0  0  0
  -27.0572  -14.3003   20.5654 N   0  0  0  0  0  0  0  0  0  0  0  0
  -26.7879  -27.3377   19.9800 N   0  0  0  0  0  0  0  0  0  0  0  0
  -33.6201  -26.6117   21.9691 N   0  0  0  0  0  0  0  0  0  0  0  0
  -26.4009  -32.5960   20.4415 N   0  0  0  0  0  0  0  0  0  0  0  0
  -25.8303  -34.2014   24.6240 N   0  0  0  0  0  0  0  0  0  0  0  0
  -29.1255  -27.0905   20.1712 N   0  0  0  0  0  0  0  0  0  0  0  0
  -29.8765  -12.9042   22.4089 N   0  0  0  0  0  0  0  0  0  0  0  0
  -24.1449  -13.9598   18.8740 N   0  0  0  0  0  0  0  0  0  0  0  0
  -21.6772  -16.5315   19.4778 N   0  3  0  0  0  0  0  0  0  0  0  0
  -29.4277  -22.6288   18.5539 O   0  0  0  0  0  0  0  0  0  0  0  0
  -26.2304  -34.7871   22.4433 O   0  0  0  0  0  0  0  0  0  0  0  0
  -29.3736  -13.2939   20.1689 O   0  0  0  0  0  0  0  0  0  0  0  0
  -25.7509  -12.3703   20.6356 O   0  0  0  0  0  0  0  0  0  0  0  0
  -24.2130  -16.2062   18.3029 O   0  0  0  0  0  0  0  0  0  0  0  0
  -27.9365  -25.9240   18.5566 O   0  0  0  0  0  0  0  0  0  0  0  0
  -24.8083  -31.1885   29.1971 O   0  0  0  0  0  0  0  0  0  0  0  0
  -29.6427  -19.8842   20.1310 O   0  0  0  0  0  0  0  0  0  1  0  0
  -21.2560  -34.8444   31.2996 F   0  0  0  0  0  0  0  0  0  0  0  0
  -22.5297  -30.3525   30.5208 F   0  0  0  0  0  0  0  0  0  0  0  0
  1  2  1  0  0  0  0
  1  5  2  0  0  0  0
  2  6  2  0  0  0  0
  3  8  2  0  0  0  0
  3 18  1  0  0  0  0
  4  9  1  0  0  0  0
  4 18  2  0  0  0  0
  5 20  1  0  0  0  0
  6 22  1  0  0  0  0
  7 10  2  0  0  0  0
  7 21  1  0  0  0  0
  8 27  1  0  0  0  0
  9 27  2  0  0  0  0
 10 28  1  0  0  0  0
 11 12  2  0  0  0  0
 11 29  1  0  0  0  0
 12 30  1  0  0  0  0
 13 23  1  0  0  0  0
 13 28  2  0  0  0  0
 14 24  1  0  0  0  0
 14 25  2  0  0  0  0
 15 24  2  0  0  0  0
 15 26  1  0  0  0  0
 16 25  1  0  0  0  0
 16 26  2  0  0  0  0
 17 30  2  0  0  0  0
 17 31  1  0  0  0  0
 18 32  1  0  0  0  0
 19 32  1  0  0  0  0
 19 33  2  0  0  0  0
 19 37  1  0  0  0  0
 20 22  2  0  0  0  0
 20 42  1  0  0  0  0
 21 23  2  0  0  0  0
 21 43  1  0  0  0  0
 22 52  1  0  0  0  0
 23 44  1  0  0  0  0
 24 68  1  0  0  0  0
 25 71  1  0  0  0  0
 26 74  1  0  0  0  0
 27 84  1  0  0  0  0
 28 85  1  0  0  0  0
 29 31  2  0  0  0  0
 29 84  1  0  0  0  0
 30 86  1  0  0  0  0
 31 87  1  0  0  0  0
 32 66  2  0  0  0  0
 33 67  1  0  0  0  0
 33 72  1  0  0  0  0
 34 36  2  0  0  0  0
 34 45  1  0  0  0  0
 34 55  1  0  0  0  0
 35 55  1  0  0  0  0
 35 68  1  0  0  0  0
 35 78  2  0  0  0  0
 37 73  1  0  0  0  0
 37 79  2  0  0  0  0
 38 53  1  0  0  0  0
 38 75  1  0  0  0  0
 38 80  2  0  0  0  0
 39 63  1  0  0  0  0
 39 69  1  0  0  0  0
 39 81  2  0  0  0  0
 40 64  1  0  0  0  0
 40 76  1  0  0  0  0
 40 82  2  0  0  0  0
 41 70  1  0  0  0  0
 41 74  1  0  0  0  0
 41 83  2  0  0  0  0
 42 46  1  0  0  0  0
 43 53  1  0  0  0  0
 44 69  1  0  0  0  0
 45 68  1  0  0  0  0
 46 48  1  0  0  0  0
 47 49  1  0  0  0  0
 47 50  1  0  0  0  0
 48 52  1  0  0  0  0
 49 54  1  0  0  0  0
 50 70  1  0  0  0  0
 51 54  1  0  0  0  0
 51 70  1  0  0  0  0
 52 75  1  0  0  0  0
 53 69  1  0  0  0  0
 54 67  1  0  0  0  0
 55 56  1  0  0  0  0
 55 62  1  0  0  0  0
 57 64  1  0  0  0  0
 58 65  1  0  0  0  0
 59 65  1  0  0  0  0
 60 65  1  0  0  0  0
 61 77  1  0  0  0  0
 62 85  1  0  0  0  0
 63 65  1  0  0  0  0
 63 76  1  0  0  0  0
 64 77  1  0  0  0  0
 66 67  1  0  0  0  0
M  CHG  1  77   1
M  ISO  4  41 100  62 101  74 100  85 101
M  END
> <Batch ID>
0076

> <Smiles>
C=C1CN(c2cc(N)cc([100NH:0][100C:0](=O)N3CCCC(n4nc(-c5ccc(Oc6ccc(F)cc6F)cc5)c(C(N)=O)c4N)C3)c2)C(=O)C1(C)[101CH2:1][101O:1]c1ccc2c(c1)CN(C(=O)C(NC(=O)C(C)NC)C(C)(C)C)C(C(=O)NC1CCCc3ccccc31)C2

> <Shape>
0.234

> <Color>
0.084

> <Negative vol penalty>
0.000

$$$$

  -OEChem-04042323503D

 86 95  0     1  0  0  0  0  0999 V2000
  -41.4238  -28.1954   14.3591 C   0  0  0  0  0  0  0  0  0  0  0  0
  -41.3913  -27.0406   15.1342 C   0  0  0  0  0  0  0  0  0  0  0  0
  -23.0940   -9.7402   20.3825 C   0  0  0  0  0  0  0  0  0  0  0  0
  -23.8140  -10.1283   22.6559 C   0  0  0  0  0  0  0  0  0  0  0  0
  -40.6260  -29.2863   14.7017 C   0  0  0  0  0  0  0  0  0  0  0  0
  -40.5616  -26.9765   16.2531 C   0  0  0  0  0  0  0  0  0  0  0  0
  -36.6235  -22.3303   20.0241 C   0  0  0  0  0  0  0  0  0  0  0  0
  -32.5575  -17.9211   22.7459 C   0  0  0  0  0  0  0  0  0  0  0  0
  -31.9753  -16.9038   21.9899 C   0  0  0  0  0  0  0  0  0  0  0  0
  -22.3564   -8.6343   20.8048 C   0  0  0  0  0  0  0  0  0  0  0  0
  -23.0763   -9.0223   23.0782 C   0  0  0  0  0  0  0  0  0  0  0  0
  -36.4417  -21.8862   21.3331 C   0  0  0  0  0  0  0  0  0  0  0  0
  -19.8455   -8.2950   23.7518 C   0  0  0  0  0  0  0  0  0  0  0  0
  -19.0688   -8.4368   24.9016 C   0  0  0  0  0  0  0  0  0  0  0  0
  -35.0482  -23.8032   21.7834 C   0  0  0  0  0  0  0  0  0  0  0  0
  -30.3705  -18.8534   23.1758 C   0  0  0  0  0  0  0  0  0  0  0  0
  -20.3147   -6.6592   25.9624 C   0  0  0  0  0  0  0  0  0  0  0  0
  -23.8229  -10.4872   21.3080 C   0  0  0  0  0  0  0  0  0  0  0  0
  -24.1439  -12.9632   20.7847 C   0  0  0  0  0  0  0  0  0  0  0  0
  -39.7790  -29.2320   15.8199 C   0  0  0  0  0  0  0  0  0  0  0  0
  -36.0270  -23.5218   19.5874 C   0  0  0  0  0  0  0  0  0  0  0  0
  -39.7528  -28.0681   16.6118 C   0  0  0  0  0  0  0  0  0  0  0  0
  -35.2220  -24.2588   20.4677 C   0  0  0  0  0  0  0  0  0  0  0  0
  -29.7882  -17.8360   22.4198 C   0  0  0  0  0  0  0  0  0  0  0  0
  -31.7552  -18.8959   23.3389 C   0  0  0  0  0  0  0  0  0  0  0  0
  -30.5906  -16.8612   21.8269 C   0  0  0  0  0  0  0  0  0  0  0  0
  -22.3475   -8.2753   22.1526 C   0  0  0  0  0  0  0  0  0  0  0  0
  -35.6563  -22.6242   22.2139 C   0  0  0  0  0  0  0  0  0  0  0  0
  -20.8568   -7.3353   23.7072 C   0  0  0  0  0  0  0  0  0  0  0  0
  -19.3034   -7.6189   26.0069 C   0  0  0  0  0  0  0  0  0  0  0  0
  -21.0914   -6.5175   24.8125 C   0  0  0  0  0  0  0  0  0  0  0  0
  -24.5855  -11.6294   20.8723 C   0  0  0  0  0  0  0  0  0  0  0  0
  -25.2353  -13.6566   20.3216 C   0  0  0  0  0  0  0  0  0  0  0  0
  -33.7269  -20.1108   24.3717 C   0  0  0  0  0  0  0  0  0  0  0  0
  -22.8617  -13.5253   21.0943 C   0  0  0  0  0  0  0  0  0  0  0  0
  -37.1100  -26.3048   18.4985 C   0  0  0  0  0  0  0  0  0  0  0  0
  -33.9594  -26.8913   17.9970 C   0  0  0  0  0  0  0  0  0  0  0  0
  -30.7184  -26.2064   18.8177 C   0  0  0  0  0  0  0  0  0  0  0  0
  -30.6880  -14.7808   20.4096 C   0  0  0  0  0  0  0  0  0  0  0  0
  -38.9702  -30.4536   16.1780 C   0  0  0  0  0  0  0  0  0  0  0  0
  -36.2111  -23.9732   18.1644 C   0  0  0  0  0  0  0  0  0  0  0  0
  -34.5430  -25.5342   20.0422 C   0  0  0  0  0  0  0  0  0  0  0  0
  -37.8395  -30.1682   17.1630 C   0  0  0  0  0  0  0  0  0  0  0  0
  -29.6367  -12.0017   18.4478 C   0  0  0  0  0  0  0  0  0  0  0  0
  -38.3426  -29.3099   18.3193 C   0  0  0  0  0  0  0  0  0  0  0  0
  -28.1925  -11.7668   18.8965 C   0  0  0  0  0  0  0  0  0  0  0  0
  -32.4913  -21.6388   25.7206 C   0  0  0  0  0  0  0  0  0  0  0  0
  -30.5287  -12.4332   19.6105 C   0  0  0  0  0  0  0  0  0  0  0  0
  -31.5623  -20.9999   24.7062 C   0  0  0  0  0  0  0  0  0  0  0  0
  -28.5916  -13.3498   20.8257 C   0  0  0  0  0  0  0  0  0  0  0  0
  -38.8474  -27.9511   17.8188 C   0  0  1  0  0  0  0  0  0  0  0  0
  -35.9757  -25.4688   17.9769 C   0  0  1  0  0  0  0  0  0  0  0  0
  -27.6410  -12.9763   19.6766 C   0  0  2  0  0  0  0  0  0  0  0  0
  -33.8865  -21.4297   25.1264 C   0  0  1  0  0  0  0  0  0  0  0  0
  -28.3023  -17.8137   22.2634 C   0  0  0  0  0  0  0  0  0  0  0  0
  -34.9530  -21.3282   26.2141 C   0  0  0  0  0  0  0  0  0  0  0  0
  -28.3631  -26.8720   18.2636 C   0  0  0  0  0  0  0  0  0  0  0  0
  -34.3104  -29.4615   19.6035 C   0  0  0  0  0  0  0  0  0  0  0  0
  -31.8194  -29.5808   19.8251 C   0  0  0  0  0  0  0  0  0  0  0  0
  -32.8757  -29.6913   17.5679 C   0  0  0  0  0  0  0  0  0  0  0  0
  -30.0347  -23.4720   17.9151 C   0  0  0  0  0  0  0  0  0  0  0  0
  -34.2460  -22.5351   24.1268 C   0  0  0  0  0  0  0  0  0  1  0  0
  -32.8404  -27.4914   18.8135 C   0  0  1  0  0  0  0  0  0  0  0  0
  -29.5023  -25.9119   17.9581 C   0  0  2  0  0  0  0  0  0  0  0  0
  -32.9757  -29.0333   18.9614 C   0  0  0  0  0  0  0  0  0  0  0  0
  -25.8582  -11.4818   20.4949 N   0  0  0  0  0  0  0  0  0  0  0  0
  -26.2257  -12.7319   20.1657 N   0  0  0  0  0  0  0  0  0  0  0  0
  -32.3512  -19.9357   24.1150 N   0  0  0  0  0  0  0  0  0  0  0  0
  -34.7586  -25.9374   18.6427 N   0  0  0  0  0  0  0  0  0  0  0  0
  -29.9453  -13.5861   20.2999 N   0  0  0  0  0  0  0  0  0  0  0  0
  -25.4349  -14.9609   20.0365 N   0  0  0  0  0  0  0  0  0  0  0  0
  -21.8524  -12.6711   21.5590 N   0  0  0  0  0  0  0  0  0  0  0  0
  -30.0182  -15.8187   21.0566 N   0  0  0  0  0  0  0  0  0  0  0  0
  -37.7336  -27.0722   17.5333 N   0  0  0  0  0  0  0  0  0  0  0  0
  -31.5978  -27.0583   18.1836 N   0  0  0  0  0  0  0  0  0  0  0  0
  -29.0224  -24.5216   18.1985 N   0  3  0  0  0  0  0  0  0  0  0  0
  -34.6766  -19.4187   24.0321 O   0  0  0  0  0  0  0  0  0  0  0  0
  -22.6134  -14.7460   20.9473 O   0  0  0  0  0  0  0  0  0  0  0  0
  -37.3972  -26.2582   19.6889 O   0  0  0  0  0  0  0  0  0  0  0  0
  -34.1140  -27.2503   16.8270 O   0  0  0  0  0  0  0  0  0  0  0  0
  -30.8710  -25.7313   19.9408 O   0  0  0  0  0  0  0  0  0  0  0  0
  -31.8235  -14.8846   19.9385 O   0  0  0  0  0  0  0  0  0  0  0  0
  -21.6276   -7.1964   22.5651 O   0  0  0  0  0  0  0  0  0  0  0  0
  -35.4777  -22.1933   23.4923 O   0  0  0  0  0  0  0  0  0  1  0  0
  -18.5584   -7.7562   27.1116 F   0  0  0  0  0  0  0  0  0  0  0  0
  -22.0623   -5.5945   24.7760 F   0  0  0  0  0  0  0  0  0  0  0  0
  1  2  1  0  0  0  0
  1  5  2  0  0  0  0
  2  6  2  0  0  0  0
  3 10  2  0  0  0  0
  3 18  1  0  0  0  0
  4 11  1  0  0  0  0
  4 18  2  0  0  0  0
  5 20  1  0  0  0  0
  6 22  1  0  0  0  0
  7 12  2  0  0  0  0
  7 21  1  0  0  0  0
  8  9  2  0  0  0  0
  8 25  1  0  0  0  0
  9 26  1  0  0  0  0
 10 27  1  0  0  0  0
 11 27  2  0  0  0  0
 12 28  1  0  0  0  0
 13 14  2  0  0  0  0
 13 29  1  0  0  0  0
 14 30  1  0  0  0  0
 15 23  1  0  0  0  0
 15 28  2  0  0  0  0
 16 24  1  0  0  0  0
 16 25  2  0  0  0  0
 17 30  2  0  0  0  0
 17 31  1  0  0  0  0
 18 32  1  0  0  0  0
 19 32  1  0  0  0  0
 19 33  2  0  0  0  0
 19 35  1  0  0  0  0
 20 22  2  0  0  0  0
 20 40  1  0  0  0  0
 21 23  2  0  0  0  0
 21 41  1  0  0  0  0
 22 51  1  0  0  0  0
 23 42  1  0  0  0  0
 24 26  2  0  0  0  0
 24 55  1  0  0  0  0
 25 68  1  0  0  0  0
 26 73  1  0  0  0  0
 27 83  1  0  0  0  0
 28 84  1  0  0  0  0
 29 31  2  0  0  0  0
 29 83  1  0  0  0  0
 30 85  1  0  0  0  0
 31 86  1  0  0  0  0
 32 66  2  0  0  0  0
 33 67  1  0  0  0  0
 33 71  1  0  0  0  0
 34 54  1  0  0  0  0
 34 68  1  0  0  0  0
 34 77  2  0  0  0  0
 35 72  1  0  0  0  0
 35 78  2  0  0  0  0
 36 52  1  0  0  0  0
 36 74  1  0  0  0  0
 36 79  2  0  0  0  0
 37 63  1  0  0  0  0
 37 69  1  0  0  0  0
 37 80  2  0  0  0  0
 38 64  1  0  0  0  0
 38 75  1  0  0  0  0
 38 81  2  0  0  0  0
 39 70  1  0  0  0  0
 39 73  1  0  0  0  0
 39 82  2  0  0  0  0
 40 43  1  0  0  0  0
 41 52  1  0  0  0  0
 42 69  1  0  0  0  0
 43 45  1  0  0  0  0
 44 46  1  0  0  0  0
 44 48  1  0  0  0  0
 45 51  1  0  0  0  0
 46 53  1  0  0  0  0
 47 49  1  0  0  0  0
 47 54  1  0  0  0  0
 48 70  1  0  0  0  0
 49 68  1  0  0  0  0
 50 53  1  0  0  0  0
 50 70  1  0  0  0  0
 51 74  1  0  0  0  0
 52 69  1  0  0  0  0
 53 67  1  0  0  0  0
 54 56  1  0  0  0  0
 54 62  1  0  0  0  0
 57 64  1  0  0  0  0
 58 65  1  0  0  0  0
 59 65  1  0  0  0  0
 60 65  1  0  0  0  0
 61 76  1  0  0  0  0
 62 84  1  0  0  0  0
 63 65  1  0  0  0  0
 63 75  1  0  0  0  0
 64 76  1  0  0  0  0
 66 67  1  0  0  0  0
M  CHG  1  76   1
M  ISO  4  39 100  62 101  73 100  84 101
M  END
> <Batch ID>
0076

> <Smiles>
CNC(C)C(=O)NC(C(=O)N1Cc2cc([101O:1][101CH2:1]C3(C)CCN(c4ccc([100NH:0][100C:0](=O)N5CCCC(n6nc(-c7ccc(Oc8ccc(F)cc8F)cc7)c(C(N)=O)c6N)C5)c(C)c4)C3=O)ccc2CC1C(=O)NC1CCCc2ccccc21)C(C)(C)C

> <Shape>
0.201

> <Color>
0.185

> <Negative vol penalty>
0.000

$$$$

  -OEChem-04042323503D

 91100  0     1  0  0  0  0  0999 V2000
  -19.0494  -26.3574   23.5567 C   0  0  0  0  0  0  0  0  0  0  0  0
  -20.2105  -26.1860   22.8097 C   0  0  0  0  0  0  0  0  0  0  0  0
  -26.3927  -10.5675   18.0840 C   0  0  0  0  0  0  0  0  0  0  0  0
  -26.1440  -10.7173   20.4825 C   0  0  0  0  0  0  0  0  0  0  0  0
  -18.2974  -27.5231   23.4165 C   0  0  0  0  0  0  0  0  0  0  0  0
  -20.6197  -27.1799   21.9213 C   0  0  0  0  0  0  0  0  0  0  0  0
  -25.6555  -28.1875   22.2642 C   0  0  0  0  0  0  0  0  0  0  0  0
  -29.5221  -20.9433   15.5992 C   0  0  0  0  0  0  0  0  0  0  0  0
  -29.6968  -19.6093   15.2311 C   0  0  0  0  0  0  0  0  0  0  0  0
  -25.1601   -9.9206   17.9966 C   0  0  0  0  0  0  0  0  0  0  0  0
  -24.9113  -10.0705   20.3951 C   0  0  0  0  0  0  0  0  0  0  0  0
  -26.5501  -27.3067   21.6579 C   0  0  0  0  0  0  0  0  0  0  0  0
  -23.7789   -6.9064   20.0249 C   0  0  0  0  0  0  0  0  0  0  0  0
  -23.5157   -5.8870   20.9398 C   0  0  0  0  0  0  0  0  0  0  0  0
  -26.6958  -28.7767   19.7511 C   0  0  0  0  0  0  0  0  0  0  0  0
  -29.2341  -20.2703   17.9016 C   0  0  0  0  0  0  0  0  0  0  0  0
  -21.6027   -7.1152   21.7579 C   0  0  0  0  0  0  0  0  0  0  0  0
  -26.8848  -10.9658   19.3270 C   0  0  0  0  0  0  0  0  0  0  0  0
  -29.4110  -11.1337   19.0146 C   0  0  0  0  0  0  0  0  0  0  0  0
  -18.7028  -28.5359   22.5330 C   0  0  0  0  0  0  0  0  0  0  0  0
  -25.2652  -29.3667   21.6132 C   0  0  0  0  0  0  0  0  0  0  0  0
  -19.8717  -28.3596   21.7682 C   0  0  0  0  0  0  0  0  0  0  0  0
  -25.7998  -29.6730   20.3534 C   0  0  0  0  0  0  0  0  0  0  0  0
  -29.2908  -21.2738   16.9345 C   0  0  0  0  0  0  0  0  0  0  0  0
  -29.6401  -18.6058   16.1983 C   0  0  0  0  0  0  0  0  0  0  0  0
  -29.4088  -18.9363   17.5336 C   0  0  0  0  0  0  0  0  0  0  0  0
  -24.4193   -9.6721   19.1521 C   0  0  0  0  0  0  0  0  0  0  0  0
  -27.0686  -27.6001   20.4002 C   0  0  0  0  0  0  0  0  0  0  0  0
  -22.9541   -8.0303   19.9765 C   0  0  0  0  0  0  0  0  0  0  0  0
  -22.4276   -5.9913   21.8062 C   0  0  0  0  0  0  0  0  0  0  0  0
  -21.8660   -8.1346   20.8430 C   0  0  0  0  0  0  0  0  0  0  0  0
  -28.1583  -11.6336   19.4181 C   0  0  0  0  0  0  0  0  0  0  0  0
  -30.2947  -12.1428   19.3102 C   0  0  0  0  0  0  0  0  0  0  0  0
  -28.3745  -25.3306   17.9097 C   0  0  0  0  0  0  0  0  0  0  0  0
  -29.4609  -25.1013   17.1392 C   0  0  0  0  0  0  0  0  0  0  0  0
  -27.5803  -24.1957   18.3766 C   0  0  0  0  0  0  0  0  0  0  0  0
  -29.7274  -23.7045   16.6144 C   0  0  0  0  0  0  0  0  0  0  0  0
  -26.2717  -24.2354   18.6719 C   0  0  0  0  0  0  0  0  0  0  0  0
  -29.7459   -9.8703   18.4252 C   0  0  0  0  0  0  0  0  0  0  0  0
  -22.5207  -30.6370   20.5645 C   0  0  0  0  0  0  0  0  0  0  0  0
  -24.5468  -33.2000   19.9484 C   0  0  0  0  0  0  0  0  0  0  0  0
  -30.0544  -16.7817   14.5173 C   0  0  0  0  0  0  0  0  0  0  0  0
  -21.8115  -35.1787   19.4557 C   0  0  0  0  0  0  0  0  0  0  0  0
  -29.6921  -18.0605   19.8786 C   0  0  0  0  0  0  0  0  0  0  0  0
  -17.8318  -29.7577   22.3807 C   0  0  0  0  0  0  0  0  0  0  0  0
  -24.3221  -30.3186   22.2980 C   0  0  0  0  0  0  0  0  0  0  0  0
  -25.4157  -30.9270   19.6155 C   0  0  0  0  0  0  0  0  0  0  0  0
  -28.3924  -22.9477   18.5582 C   0  0  0  0  0  0  0  0  0  0  0  0
  -18.5354  -30.9254   21.6939 C   0  0  0  0  0  0  0  0  0  0  0  0
  -30.9266  -15.7999   22.3368 C   0  0  0  0  0  0  0  0  0  0  0  0
  -19.2754  -30.4455   20.4493 C   0  0  0  0  0  0  0  0  0  0  0  0
  -30.4760  -14.4289   21.8275 C   0  0  0  0  0  0  0  0  0  0  0  0
  -29.8831  -16.8800   22.0569 C   0  0  0  0  0  0  0  0  0  0  0  0
  -28.9931  -15.6001   20.1493 C   0  0  0  0  0  0  0  0  0  0  0  0
  -20.3616  -29.4256   20.8123 C   0  0  1  0  0  0  0  0  0  0  0  0
  -23.6309  -31.2871   21.3405 C   0  0  1  0  0  0  0  0  0  0  0  0
  -30.0397  -14.4920   20.3506 C   0  0  2  0  0  0  0  0  0  0  0  0
  -30.4296  -26.1433   16.6524 C   0  0  0  0  0  0  0  0  0  0  0  0
  -30.1881  -15.2795   14.5132 C   0  0  0  0  0  0  0  0  0  0  0  0
  -21.1492  -37.5756   19.1188 C   0  0  0  0  0  0  0  0  0  0  0  0
  -24.9766  -33.7331   22.9210 C   0  0  0  0  0  0  0  0  0  0  0  0
  -23.4603  -35.7144   22.7128 C   0  0  0  0  0  0  0  0  0  0  0  0
  -25.5922  -35.6363   21.4199 C   0  0  0  0  0  0  0  0  0  0  0  0
  -20.6515  -34.6051   16.7941 C   0  0  0  0  0  0  0  0  0  0  0  0
  -27.9389  -26.6956   18.3802 C   0  0  0  0  0  0  0  0  0  1  0  0
  -23.6703  -34.1444   20.7324 C   0  0  1  0  0  0  0  0  0  0  0  0
  -21.5268  -36.2690   18.4385 C   0  0  2  0  0  0  0  0  0  0  0  0
  -24.4158  -34.7811   21.9391 C   0  0  0  0  0  0  0  0  0  0  0  0
  -28.2352  -12.8644   19.9310 N   0  0  0  0  0  0  0  0  0  0  0  0
  -29.5468  -13.1464   19.8520 N   0  0  0  0  0  0  0  0  0  0  0  0
  -29.1100  -22.6529   17.3145 N   0  0  0  0  0  0  0  0  0  0  0  0
  -24.5611  -31.8611   20.3599 N   0  0  0  0  0  0  0  0  0  0  0  0
  -29.5213  -16.8835   20.6377 N   0  0  0  0  0  0  0  0  0  0  0  0
  -31.6308  -12.2606   19.1571 N   0  0  0  0  0  0  0  0  0  0  0  0
  -30.0726   -8.8032   19.2730 N   0  0  0  0  0  0  0  0  0  0  0  0
  -29.8170  -17.2761   15.8051 N   0  0  0  0  0  0  0  0  0  0  0  0
  -29.3452  -17.9347   18.5338 N   0  0  0  0  0  0  0  0  0  0  0  0
  -21.5239  -30.0964   21.3541 N   0  0  0  0  0  0  0  0  0  0  0  0
  -23.1520  -35.1126   19.7719 N   0  0  0  0  0  0  0  0  0  0  0  0
  -20.4055  -35.8633   17.5446 N   0  3  0  0  0  0  0  0  0  0  0  0
  -30.4073  -23.5906   15.5940 O   0  0  0  0  0  0  0  0  0  0  0  0
  -29.7711   -9.6975   17.1831 O   0  0  0  0  0  0  0  0  0  0  0  0
  -22.5645  -30.6278   19.3398 O   0  0  0  0  0  0  0  0  0  0  0  0
  -25.2075  -33.6362   19.0016 O   0  0  0  0  0  0  0  0  0  0  0  0
  -30.1572  -17.4243   13.4774 O   0  0  0  0  0  0  0  0  0  0  0  0
  -20.9321  -34.4602   19.9259 O   0  0  0  0  0  0  0  0  0  0  0  0
  -30.1407  -19.0955   20.3781 O   0  0  0  0  0  0  0  0  0  0  0  0
  -23.2163   -9.0412   19.0671 O   0  0  0  0  0  0  0  0  0  0  0  0
  -27.9425  -26.7424   19.8064 O   0  0  0  0  0  0  0  0  0  1  0  0
  -22.1740   -5.0116   22.6837 F   0  0  0  0  0  0  0  0  0  0  0  0
  -21.0694   -9.2114   20.8004 F   0  0  0  0  0  0  0  0  0  0  0  0
  1  2  1  0  0  0  0
  1  5  2  0  0  0  0
  2  6  2  0  0  0  0
  3 10  2  0  0  0  0
  3 18  1  0  0  0  0
  4 11  1  0  0  0  0
  4 18  2  0  0  0  0
  5 20  1  0  0  0  0
  6 22  1  0  0  0  0
  7 12  2  0  0  0  0
  7 21  1  0  0  0  0
  8  9  2  0  0  0  0
  8 24  1  0  0  0  0
  9 25  1  0  0  0  0
 10 27  1  0  0  0  0
 11 27  2  0  0  0  0
 12 28  1  0  0  0  0
 13 14  2  0  0  0  0
 13 29  1  0  0  0  0
 14 30  1  0  0  0  0
 15 23  1  0  0  0  0
 15 28  2  0  0  0  0
 16 24  2  0  0  0  0
 16 26  1  0  0  0  0
 17 30  2  0  0  0  0
 17 31  1  0  0  0  0
 18 32  1  0  0  0  0
 19 32  1  0  0  0  0
 19 33  2  0  0  0  0
 19 39  1  0  0  0  0
 20 22  2  0  0  0  0
 20 45  1  0  0  0  0
 21 23  2  0  0  0  0
 21 46  1  0  0  0  0
 22 55  1  0  0  0  0
 23 47  1  0  0  0  0
 24 71  1  0  0  0  0
 25 26  2  0  0  0  0
 25 76  1  0  0  0  0
 26 77  1  0  0  0  0
 27 88  1  0  0  0  0
 28 89  1  0  0  0  0
 29 31  2  0  0  0  0
 29 88  1  0  0  0  0
 30 90  1  0  0  0  0
 31 91  1  0  0  0  0
 32 69  2  0  0  0  0
 33 70  1  0  0  0  0
 33 74  1  0  0  0  0
 34 35  2  0  0  0  0
 34 36  1  0  0  0  0
 34 65  1  0  0  0  0
 35 37  1  0  0  0  0
 35 58  1  0  0  0  0
 36 38  2  0  0  0  0
 36 48  1  0  0  0  0
 37 71  1  0  0  0  0
 37 81  2  0  0  0  0
 39 75  1  0  0  0  0
 39 82  2  0  0  0  0
 40 56  1  0  0  0  0
 40 78  1  0  0  0  0
 40 83  2  0  0  0  0
 41 66  1  0  0  0  0
 41 72  1  0  0  0  0
 41 84  2  0  0  0  0
 42 59  1  0  0  0  0
 42 76  1  0  0  0  0
 42 85  2  0  0  0  0
 43 67  1  0  0  0  0
 43 79  1  0  0  0  0
 43 86  2  0  0  0  0
 44 73  1  0  0  0  0
 44 77  1  0  0  0  0
 44 87  2  0  0  0  0
 45 49  1  0  0  0  0
 46 56  1  0  0  0  0
 47 72  1  0  0  0  0
 48 71  1  0  0  0  0
 49 51  1  0  0  0  0
 50 52  1  0  0  0  0
 50 53  1  0  0  0  0
 51 55  1  0  0  0  0
 52 57  1  0  0  0  0
 53 73  1  0  0  0  0
 54 57  1  0  0  0  0
 54 73  1  0  0  0  0
 55 78  1  0  0  0  0
 56 72  1  0  0  0  0
 57 70  1  0  0  0  0
 60 67  1  0  0  0  0
 61 68  1  0  0  0  0
 62 68  1  0  0  0  0
 63 68  1  0  0  0  0
 64 80  1  0  0  0  0
 65 89  1  0  0  0  0
 66 68  1  0  0  0  0
 66 79  1  0  0  0  0
 67 80  1  0  0  0  0
 69 70  1  0  0  0  0
M  CHG  1  80   1
M  ISO  4  44 100  65 101  77 100  89 101
M  END
> <Batch ID>
0076

> <Smiles>
C=C1CN(c2ccc(NC(C)=O)c([100NH:0][100C:0](=O)N3CCCC(n4nc(-c5ccc(Oc6ccc(F)cc6F)cc5)c(C(N)=O)c4N)C3)c2)C(=O)C(C)=C1[101CH2:1][101O:1]c1ccc2c(c1)CN(C(=O)C(NC(=O)C(C)NC)C(C)(C)C)C(C(=O)NC1CCCc3ccccc31)C2

> <Shape>
0.270

> <Color>
0.075

> <Negative vol penalty>
0.000

$$$$

  -OEChem-04042323503D

 89 98  0     1  0  0  0  0  0999 V2000
  -33.9368  -14.8354   23.8162 C   0  0  0  0  0  0  0  0  0  0  0  0
  -33.9831  -15.7465   22.7658 C   0  0  0  0  0  0  0  0  0  0  0  0
  -23.0759   -9.8678   19.9403 C   0  0  0  0  0  0  0  0  0  0  0  0
  -23.8350   -9.8743   22.2339 C   0  0  0  0  0  0  0  0  0  0  0  0
  -33.8300  -15.2919   25.1292 C   0  0  0  0  0  0  0  0  0  0  0  0
  -33.9215  -17.1147   23.0279 C   0  0  0  0  0  0  0  0  0  0  0  0
  -37.3280  -19.7570   20.3711 C   0  0  0  0  0  0  0  0  0  0  0  0
  -22.3318   -8.7146   20.1898 C   0  0  0  0  0  0  0  0  0  0  0  0
  -23.0909   -8.7212   22.4834 C   0  0  0  0  0  0  0  0  0  0  0  0
  -37.0351  -20.0078   19.0313 C   0  0  0  0  0  0  0  0  0  0  0  0
  -21.1052   -5.9840   23.8189 C   0  0  0  0  0  0  0  0  0  0  0  0
  -20.3485   -5.9403   24.9898 C   0  0  0  0  0  0  0  0  0  0  0  0
  -36.3097  -22.2337   19.6128 C   0  0  0  0  0  0  0  0  0  0  0  0
  -30.5856  -19.8684   21.4957 C   0  0  0  0  0  0  0  0  0  0  0  0
  -31.1513  -17.6967   20.6010 C   0  0  0  0  0  0  0  0  0  0  0  0
  -29.5185  -17.8857   22.3716 C   0  0  0  0  0  0  0  0  0  0  0  0
  -19.1044   -7.8778   24.2582 C   0  0  0  0  0  0  0  0  0  0  0  0
  -23.8275  -10.4476   20.9623 C   0  0  0  0  0  0  0  0  0  0  0  0
  -24.1696  -12.9727   20.8429 C   0  0  0  0  0  0  0  0  0  0  0  0
  -33.7768  -16.6666   25.4082 C   0  0  0  0  0  0  0  0  0  0  0  0
  -37.1034  -20.7406   21.3450 C   0  0  0  0  0  0  0  0  0  0  0  0
  -33.8125  -17.5899   24.3459 C   0  0  0  0  0  0  0  0  0  0  0  0
  -36.6030  -21.9938   20.9639 C   0  0  0  0  0  0  0  0  0  0  0  0
  -31.3185  -19.0815   20.6073 C   0  0  0  0  0  0  0  0  0  0  0  0
  -29.6856  -19.2705   22.3779 C   0  0  0  0  0  0  0  0  0  0  0  0
  -30.2513  -17.0988   21.4831 C   0  0  0  0  0  0  0  0  0  0  0  0
  -22.3393   -8.1413   21.4613 C   0  0  0  0  0  0  0  0  0  0  0  0
  -36.5231  -21.2453   18.6524 C   0  0  0  0  0  0  0  0  0  0  0  0
  -20.8616   -6.9747   22.8676 C   0  0  0  0  0  0  0  0  0  0  0  0
  -19.3481   -6.8871   25.2095 C   0  0  0  0  0  0  0  0  0  0  0  0
  -19.8611   -7.9215   23.0872 C   0  0  0  0  0  0  0  0  0  0  0  0
  -24.5968  -11.6384   20.7051 C   0  0  0  0  0  0  0  0  0  0  0  0
  -25.2619  -13.7222   20.4801 C   0  0  0  0  0  0  0  0  0  0  0  0
  -33.5269  -21.1942   18.5162 C   0  0  0  0  0  0  0  0  0  0  0  0
  -32.5104  -21.0640   19.5940 C   0  0  0  0  0  0  0  0  0  0  0  0
  -22.8990  -13.4886   21.2614 C   0  0  0  0  0  0  0  0  0  0  0  0
  -34.1192  -22.3535   18.2197 C   0  0  0  0  0  0  0  0  0  0  0  0
  -35.2580  -20.9641   23.9235 C   0  0  0  0  0  0  0  0  0  0  0  0
  -36.8621  -23.7509   24.3512 C   0  0  0  0  0  0  0  0  0  0  0  0
  -38.6572  -26.3024   22.9676 C   0  0  0  0  0  0  0  0  0  0  0  0
  -30.7282  -14.7672   20.6569 C   0  0  0  0  0  0  0  0  0  0  0  0
  -33.6138  -17.1110   26.8403 C   0  0  0  0  0  0  0  0  0  0  0  0
  -37.4497  -20.4636   22.7823 C   0  0  0  0  0  0  0  0  0  0  0  0
  -36.3629  -23.0905   21.9680 C   0  0  0  0  0  0  0  0  0  0  0  0
  -33.7737  -19.8724   17.8774 C   0  0  0  0  0  0  0  0  0  0  0  0
  -33.9315  -18.5878   27.0597 C   0  0  0  0  0  0  0  0  0  0  0  0
  -29.6144  -12.3539   18.2878 C   0  0  0  0  0  0  0  0  0  0  0  0
  -33.2590  -19.4431   25.9905 C   0  0  0  0  0  0  0  0  0  0  0  0
  -28.1746  -12.0624   18.7168 C   0  0  0  0  0  0  0  0  0  0  0  0
  -33.0747  -18.9003   18.8134 C   0  0  0  0  0  0  0  0  0  0  0  0
  -30.5291  -12.5824   19.4898 C   0  0  0  0  0  0  0  0  0  0  0  0
  -28.6217  -13.3068   20.8705 C   0  0  0  0  0  0  0  0  0  0  0  0
  -33.7732  -19.0826   24.5916 C   0  0  1  0  0  0  0  0  0  0  0  0
  -36.6983  -21.3604   23.7614 C   0  0  1  0  0  0  0  0  0  0  0  0
  -27.6493  -13.1339   19.6924 C   0  0  2  0  0  0  0  0  0  0  0  0
  -39.8011  -28.4552   23.5628 C   0  0  0  0  0  0  0  0  0  0  0  0
  -34.5891  -21.9800   15.7157 C   0  0  0  0  0  0  0  0  0  0  0  0
  -35.8370  -23.7948   16.9579 C   0  0  0  0  0  0  0  0  0  0  0  0
  -34.1507  -25.1384   24.5336 C   0  0  0  0  0  0  0  0  0  0  0  0
  -35.3216  -27.3215   24.1712 C   0  0  0  0  0  0  0  0  0  0  0  0
  -35.8483  -25.9447   26.1836 C   0  0  0  0  0  0  0  0  0  0  0  0
  -41.2909  -25.2820   22.0836 C   0  0  0  0  0  0  0  0  0  0  0  0
  -36.6565  -25.1809   23.9131 C   0  0  1  0  0  0  0  0  0  0  0  0
  -39.9644  -26.9542   23.3810 C   0  0  2  0  0  0  0  0  0  0  0  0
  -35.1750  -22.4080   17.0756 C   0  0  0  0  0  0  0  0  0  1  0  0
  -35.4968  -25.8753   24.6815 C   0  0  0  0  0  0  0  0  0  0  0  0
  -25.8618  -11.5426   20.2872 N   0  0  0  0  0  0  0  0  0  0  0  0
  -26.2388  -12.8261   20.1592 N   0  0  0  0  0  0  0  0  0  0  0  0
  -32.2401  -19.6937   19.7020 N   0  0  0  0  0  0  0  0  0  0  0  0
  -36.7112  -22.7690   23.3618 N   0  0  0  0  0  0  0  0  0  0  0  0
  -29.9699  -13.6132   20.3672 N   0  0  0  0  0  0  0  0  0  0  0  0
  -28.9444  -20.0657   23.2765 N   0  0  0  0  0  0  0  0  0  0  0  0
  -25.4725  -15.0536   20.4074 N   0  0  0  0  0  0  0  0  0  0  0  0
  -21.8869  -12.5794   21.5982 N   0  0  0  0  0  0  0  0  0  0  0  0
  -30.0806  -15.6922   21.4752 N   0  0  0  0  0  0  0  0  0  0  0  0
  -35.0776  -19.6676   24.3663 N   0  0  0  0  0  0  0  0  0  0  0  0
  -37.9491  -25.8418   24.0574 N   0  0  0  0  0  0  0  0  0  0  0  0
  -41.0111  -26.7171   22.3470 N   0  3  0  0  0  0  0  0  0  0  0  0
  -33.9367  -23.4800   18.7651 O   0  5  0  0  0  0  0  0  0  0  0  0
  -32.0643  -22.0162   20.2122 O   0  0  0  0  0  0  0  0  0  0  0  0
  -22.6629  -14.7192   21.3189 O   0  0  0  0  0  0  0  0  0  0  0  0
  -34.3758  -21.7750   23.6672 O   0  0  0  0  0  0  0  0  0  0  0  0
  -37.1530  -23.5144   25.5264 O   0  0  0  0  0  0  0  0  0  0  0  0
  -38.2983  -26.2142   21.7954 O   0  0  0  0  0  0  0  0  0  0  0  0
  -31.8574  -14.9359   20.1897 O   0  0  0  0  0  0  0  0  0  0  0  0
  -21.6131   -7.0163   21.7052 O   0  0  0  0  0  0  0  0  0  0  0  0
  -36.2357  -21.4925   17.3454 O   0  0  0  0  0  0  0  0  0  1  0  0
  -18.6205   -6.8441   26.3333 F   0  0  0  0  0  0  0  0  0  0  0  0
  -19.6216   -8.8749   22.1764 F   0  0  0  0  0  0  0  0  0  0  0  0
  1  2  1  0  0  0  0
  1  5  2  0  0  0  0
  2  6  2  0  0  0  0
  3  8  2  0  0  0  0
  3 18  1  0  0  0  0
  4  9  1  0  0  0  0
  4 18  2  0  0  0  0
  5 20  1  0  0  0  0
  6 22  1  0  0  0  0
  7 10  2  0  0  0  0
  7 21  1  0  0  0  0
  8 27  1  0  0  0  0
  9 27  2  0  0  0  0
 10 28  1  0  0  0  0
 11 12  2  0  0  0  0
 11 29  1  0  0  0  0
 12 30  1  0  0  0  0
 13 23  1  0  0  0  0
 13 28  2  0  0  0  0
 14 24  1  0  0  0  0
 14 25  2  0  0  0  0
 15 24  2  0  0  0  0
 15 26  1  0  0  0  0
 16 25  1  0  0  0  0
 16 26  2  0  0  0  0
 17 30  2  0  0  0  0
 17 31  1  0  0  0  0
 18 32  1  0  0  0  0
 19 32  1  0  0  0  0
 19 33  2  0  0  0  0
 19 36  1  0  0  0  0
 20 22  2  0  0  0  0
 20 42  1  0  0  0  0
 21 23  2  0  0  0  0
 21 43  1  0  0  0  0
 22 53  1  0  0  0  0
 23 44  1  0  0  0  0
 24 69  1  0  0  0  0
 25 72  1  0  0  0  0
 26 75  1  0  0  0  0
 27 86  1  0  0  0  0
 28 87  1  0  0  0  0
 29 31  2  0  0  0  0
 29 86  1  0  0  0  0
 30 88  1  0  0  0  0
 31 89  1  0  0  0  0
 32 67  2  0  0  0  0
 33 68  1  0  0  0  0
 33 73  1  0  0  0  0
 34 35  1  0  0  0  0
 34 37  2  0  0  0  0
 34 45  1  0  0  0  0
 35 69  1  0  0  0  0
 35 80  2  0  0  0  0
 36 74  1  0  0  0  0
 36 81  2  0  0  0  0
 37 65  1  0  0  0  0
 37 79  1  0  0  0  0
 38 54  1  0  0  0  0
 38 76  1  0  0  0  0
 38 82  2  0  0  0  0
 39 63  1  0  0  0  0
 39 70  1  0  0  0  0
 39 83  2  0  0  0  0
 40 64  1  0  0  0  0
 40 77  1  0  0  0  0
 40 84  2  0  0  0  0
 41 71  1  0  0  0  0
 41 75  1  0  0  0  0
 41 85  2  0  0  0  0
 42 46  1  0  0  0  0
 43 54  1  0  0  0  0
 44 70  1  0  0  0  0
 45 50  1  0  0  0  0
 46 48  1  0  0  0  0
 47 49  1  0  0  0  0
 47 51  1  0  0  0  0
 48 53  1  0  0  0  0
 49 55  1  0  0  0  0
 50 69  1  0  0  0  0
 51 71  1  0  0  0  0
 52 55  1  0  0  0  0
 52 71  1  0  0  0  0
 53 76  1  0  0  0  0
 54 70  1  0  0  0  0
 55 68  1  0  0  0  0
 56 64  1  0  0  0  0
 57 65  1  0  0  0  0
 58 65  1  0  0  0  0
 59 66  1  0  0  0  0
 60 66  1  0  0  0  0
 61 66  1  0  0  0  0
 62 78  1  0  0  0  0
 63 66  1  0  0  0  0
 63 77  1  0  0  0  0
 64 78  1  0  0  0  0
 65 87  1  0  0  0  0
 67 68  1  0  0  0  0
M  CHG  2  78   1  79  -1
M  ISO  4  41 100  65 101  75 100  87 101
M  END
> <Batch ID>
0076

> <Smiles>
CNC(C)C(=O)NC(C(=O)N1Cc2cc([101O:1][101C:1](C)(C)C(=O)C3CCN(c4cc(N)cc([100NH:0][100C:0](=O)N5CCCC(n6nc(-c7ccc(Oc8ccc(F)cc8F)cc7)c(C(N)=O)c6N)C5)c4)C3=O)ccc2CC1C(=O)NC1CCCc2ccccc21)C(C)(C)C

> <Shape>
0.167

> <Color>
0.180

> <Negative vol penalty>
0.000

$$$$

  -OEChem-04042323503D

 83 92  0     1  0  0  0  0  0999 V2000
  -31.3424  -34.6990   23.0753 C   0  0  0  0  0  0  0  0  0  0  0  0
  -31.2389  -33.4732   22.4257 C   0  0  0  0  0  0  0  0  0  0  0  0
  -31.8980  -19.4914   19.4680 C   0  0  0  0  0  0  0  0  0  0  0  0
  -24.4581  -11.8766   24.0881 C   0  0  0  0  0  0  0  0  0  0  0  0
  -24.1384  -14.2664   23.9331 C   0  0  0  0  0  0  0  0  0  0  0  0
  -30.4780  -35.0053   24.1255 C   0  0  0  0  0  0  0  0  0  0  0  0
  -30.2716  -32.5524   22.8266 C   0  0  0  0  0  0  0  0  0  0  0  0
  -27.1861  -28.6593   19.2447 C   0  0  0  0  0  0  0  0  0  0  0  0
  -30.9967  -20.5362   19.6717 C   0  0  0  0  0  0  0  0  0  0  0  0
  -31.4306  -18.1850   19.3243 C   0  0  0  0  0  0  0  0  0  0  0  0
  -24.0442  -11.9076   25.4197 C   0  0  0  0  0  0  0  0  0  0  0  0
  -23.7244  -14.2974   25.2647 C   0  0  0  0  0  0  0  0  0  0  0  0
  -27.3643  -27.3067   18.9576 C   0  0  0  0  0  0  0  0  0  0  0  0
  -20.9244  -13.5859   27.0181 C   0  0  0  0  0  0  0  0  0  0  0  0
  -19.7898  -14.3369   27.3251 C   0  0  0  0  0  0  0  0  0  0  0  0
  -25.7485  -26.7393   20.6565 C   0  0  0  0  0  0  0  0  0  0  0  0
  -21.1010  -15.7054   28.8234 C   0  0  0  0  0  0  0  0  0  0  0  0
  -24.5053  -13.0560   23.3448 C   0  0  0  0  0  0  0  0  0  0  0  0
  -24.1249  -12.8430   20.8313 C   0  0  0  0  0  0  0  0  0  0  0  0
  -29.4932  -34.0916   24.5332 C   0  0  0  0  0  0  0  0  0  0  0  0
  -26.2943  -29.0622   20.2491 C   0  0  0  0  0  0  0  0  0  0  0  0
  -29.3940  -32.8462   23.8841 C   0  0  0  0  0  0  0  0  0  0  0  0
  -25.5588  -28.0978   20.9527 C   0  0  0  0  0  0  0  0  0  0  0  0
  -29.6279  -20.2747   19.7317 C   0  0  0  0  0  0  0  0  0  0  0  0
  -30.0617  -17.9235   19.3843 C   0  0  0  0  0  0  0  0  0  0  0  0
  -23.6773  -13.1180   26.0080 C   0  0  0  0  0  0  0  0  0  0  0  0
  -26.6476  -26.3463   19.6655 C   0  0  0  0  0  0  0  0  0  0  0  0
  -22.1473  -13.8946   27.6138 C   0  0  0  0  0  0  0  0  0  0  0  0
  -19.8781  -15.3967   28.2277 C   0  0  0  0  0  0  0  0  0  0  0  0
  -22.2356  -14.9543   28.5164 C   0  0  0  0  0  0  0  0  0  0  0  0
  -29.1604  -18.9684   19.5880 C   0  0  0  0  0  0  0  0  0  0  0  0
  -24.9334  -13.0248   21.9693 C   0  0  0  0  0  0  0  0  0  0  0  0
  -25.0020  -12.8927   19.7755 C   0  0  0  0  0  0  0  0  0  0  0  0
  -28.8749  -22.5999   20.0968 C   0  0  0  0  0  0  0  0  0  0  0  0
  -27.5459  -22.8342   20.2250 C   0  0  0  0  0  0  0  0  0  0  0  0
  -22.7078  -12.6468   20.7370 C   0  0  0  0  0  0  0  0  0  0  0  0
  -26.5740  -30.6278   23.0013 C   0  0  0  0  0  0  0  0  0  0  0  0
  -23.3346  -30.4605   22.9773 C   0  0  0  0  0  0  0  0  0  0  0  0
  -20.5238  -28.8692   21.8754 C   0  0  0  0  0  0  0  0  0  0  0  0
  -30.3526  -15.4464   19.0302 C   0  0  0  0  0  0  0  0  0  0  0  0
  -28.6125  -34.4482   25.7044 C   0  0  0  0  0  0  0  0  0  0  0  0
  -26.0936  -30.5265   20.5284 C   0  0  0  0  0  0  0  0  0  0  0  0
  -24.5740  -28.4792   22.0266 C   0  0  0  0  0  0  0  0  0  0  0  0
  -27.3164  -21.3533   20.0438 C   0  0  0  0  0  0  0  0  0  0  0  0
  -27.3701  -33.5690   25.8222 C   0  0  0  0  0  0  0  0  0  0  0  0
  -29.5708  -11.9928   18.6571 C   0  0  0  0  0  0  0  0  0  0  0  0
  -27.7396  -32.0981   25.6587 C   0  0  0  0  0  0  0  0  0  0  0  0
  -28.2165  -11.8502   19.3553 C   0  0  0  0  0  0  0  0  0  0  0  0
  -30.4780  -12.9889   19.3772 C   0  0  0  0  0  0  0  0  0  0  0  0
  -28.5284  -14.1671   20.3153 C   0  0  0  0  0  0  0  0  0  0  0  0
  -28.3414  -31.8311   24.2737 C   0  0  1  0  0  0  0  0  0  0  0  0
  -25.5405  -30.7983   21.9240 C   0  0  1  0  0  0  0  0  0  0  0  0
  -27.5559  -13.2229   19.5897 C   0  0  2  0  0  0  0  0  0  0  0  0
  -18.0218  -28.9394   22.0552 C   0  0  0  0  0  0  0  0  0  0  0  0
  -23.5025  -29.2274   25.7632 C   0  0  0  0  0  0  0  0  0  0  0  0
  -21.1340  -28.4628   25.4915 C   0  0  0  0  0  0  0  0  0  0  0  0
  -21.6661  -30.8998   25.4716 C   0  0  0  0  0  0  0  0  0  0  0  0
  -20.2120  -29.3291   18.9685 C   0  0  0  0  0  0  0  0  0  0  0  0
  -26.6329  -24.1057   20.4626 C   0  0  0  0  0  0  0  0  0  1  0  0
  -22.3112  -29.4740   23.4859 C   0  0  1  0  0  0  0  0  0  0  0  0
  -19.2383  -29.4005   21.2675 C   0  0  2  0  0  0  0  0  0  0  0  0
  -22.1734  -29.5084   25.0342 C   0  0  0  0  0  0  0  0  0  0  0  0
  -26.2249  -13.1783   21.6651 N   0  0  0  0  0  0  0  0  0  0  0  0
  -26.2346  -13.0930   20.3240 N   0  0  0  0  0  0  0  0  0  0  0  0
  -28.7376  -21.3116   19.9331 N   0  0  0  0  0  0  0  0  0  0  0  0
  -24.4176  -29.9232   22.2673 N   0  0  0  0  0  0  0  0  0  0  0  0
  -29.7873  -14.2673   19.5603 N   0  0  0  0  0  0  0  0  0  0  0  0
  -24.8315  -12.7840   18.4408 N   0  0  0  0  0  0  0  0  0  0  0  0
  -21.9565  -12.6222   21.9199 N   0  0  0  0  0  0  0  0  0  0  0  0
  -29.5902  -16.5953   19.2381 N   0  0  0  0  0  0  0  0  0  0  0  0
  -27.2984  -31.7729   23.2721 N   0  0  0  0  0  0  0  0  0  0  0  0
  -21.0739  -29.7634   22.7693 N   0  0  0  0  0  0  0  0  0  0  0  0
  -19.0954  -28.9265   19.8619 N   0  3  0  0  0  0  0  0  0  0  0  0
  -22.1272  -12.4813   19.6374 O   0  0  0  0  0  0  0  0  0  0  0  0
  -26.7035  -29.5385   23.5474 O   0  0  0  0  0  0  0  0  0  0  0  0
  -23.1750  -31.6640   23.1956 O   0  0  0  0  0  0  0  0  0  0  0  0
  -20.9911  -27.7691   21.5890 O   0  0  0  0  0  0  0  0  0  0  0  0
  -31.4201  -15.4331   18.4119 O   0  0  0  0  0  0  0  0  0  0  0  0
  -23.2730  -13.1485   27.3074 O   0  0  0  0  0  0  0  0  0  0  0  0
  -26.8202  -25.0254   19.3877 O   0  0  0  0  0  0  0  0  0  1  0  0
  -18.7888  -16.1187   28.5213 F   0  0  0  0  0  0  0  0  0  0  0  0
  -23.4080  -15.2564   29.0910 F   0  0  0  0  0  0  0  0  0  0  0  0
  -27.8434  -18.7174   19.6456 F   0  0  0  0  0  0  0  0  0  0  0  0
  1  2  1  0  0  0  0
  1  6  2  0  0  0  0
  2  7  2  0  0  0  0
  3  9  2  0  0  0  0
  3 10  1  0  0  0  0
  4 11  2  0  0  0  0
  4 18  1  0  0  0  0
  5 12  1  0  0  0  0
  5 18  2  0  0  0  0
  6 20  1  0  0  0  0
  7 22  1  0  0  0  0
  8 13  2  0  0  0  0
  8 21  1  0  0  0  0
  9 24  1  0  0  0  0
 10 25  2  0  0  0  0
 11 26  1  0  0  0  0
 12 26  2  0  0  0  0
 13 27  1  0  0  0  0
 14 15  2  0  0  0  0
 14 28  1  0  0  0  0
 15 29  1  0  0  0  0
 16 23  1  0  0  0  0
 16 27  2  0  0  0  0
 17 29  2  0  0  0  0
 17 30  1  0  0  0  0
 18 32  1  0  0  0  0
 19 32  1  0  0  0  0
 19 33  2  0  0  0  0
 19 36  1  0  0  0  0
 20 22  2  0  0  0  0
 20 41  1  0  0  0  0
 21 23  2  0  0  0  0
 21 42  1  0  0  0  0
 22 51  1  0  0  0  0
 23 43  1  0  0  0  0
 24 31  2  0  0  0  0
 24 65  1  0  0  0  0
 25 31  1  0  0  0  0
 25 70  1  0  0  0  0
 26 79  1  0  0  0  0
 27 80  1  0  0  0  0
 28 30  2  0  0  0  0
 28 79  1  0  0  0  0
 29 81  1  0  0  0  0
 30 82  1  0  0  0  0
 31 83  1  0  0  0  0
 32 63  2  0  0  0  0
 33 64  1  0  0  0  0
 33 68  1  0  0  0  0
 34 35  2  0  0  0  0
 34 65  1  0  0  0  0
 35 44  1  0  0  0  0
 35 59  1  0  0  0  0
 36 69  1  0  0  0  0
 36 74  2  0  0  0  0
 37 52  1  0  0  0  0
 37 71  1  0  0  0  0
 37 75  2  0  0  0  0
 38 60  1  0  0  0  0
 38 66  1  0  0  0  0
 38 76  2  0  0  0  0
 39 61  1  0  0  0  0
 39 72  1  0  0  0  0
 39 77  2  0  0  0  0
 40 67  1  0  0  0  0
 40 70  1  0  0  0  0
 40 78  2  0  0  0  0
 41 45  1  0  0  0  0
 42 52  1  0  0  0  0
 43 66  1  0  0  0  0
 44 65  1  0  0  0  0
 45 47  1  0  0  0  0
 46 48  1  0  0  0  0
 46 49  1  0  0  0  0
 47 51  1  0  0  0  0
 48 53  1  0  0  0  0
 49 67  1  0  0  0  0
 50 53  1  0  0  0  0
 50 67  1  0  0  0  0
 51 71  1  0  0  0  0
 52 66  1  0  0  0  0
 53 64  1  0  0  0  0
 54 61  1  0  0  0  0
 55 62  1  0  0  0  0
 56 62  1  0  0  0  0
 57 62  1  0  0  0  0
 58 73  1  0  0  0  0
 59 80  1  0  0  0  0
 60 62  1  0  0  0  0
 60 72  1  0  0  0  0
 61 73  1  0  0  0  0
 63 64  1  0  0  0  0
M  CHG  1  73   1
M  ISO  4  40 100  59 101  70 100  80 101
M  END
> <Batch ID>
0076

> <Smiles>
CNC(C)C(=O)NC(C(=O)N1Cc2cc([101O:1][101CH2:1]C3=CN(c4cccc([100NH:0][100C:0](=O)N5CCCC(n6nc(-c7ccc(Oc8ccc(F)cc8F)cc7)c(C(N)=O)c6N)C5)c4F)C3)ccc2CC1C(=O)NC1CCCc2ccccc21)C(C)(C)C

> <Shape>
0.252

> <Color>
0.098

> <Negative vol penalty>
0.000

$$$$

  -OEChem-04042323503D

 85 93  0     1  0  0  0  0  0999 V2000
  -23.9407   -8.2630   23.6719 C   0  0  0  0  0  0  0  0  0  0  0  0
  -24.6502   -9.3575   23.1905 C   0  0  0  0  0  0  0  0  0  0  0  0
  -20.2261  -25.8534   22.8614 C   0  0  0  0  0  0  0  0  0  0  0  0
  -20.9812  -28.0816   22.3118 C   0  0  0  0  0  0  0  0  0  0  0  0
  -29.7497  -19.5337   19.5307 C   0  0  0  0  0  0  0  0  0  0  0  0
  -28.9062  -19.2189   21.7727 C   0  0  0  0  0  0  0  0  0  0  0  0
  -22.5575   -8.2095   23.5137 C   0  0  0  0  0  0  0  0  0  0  0  0
  -23.9754  -10.4043   22.5615 C   0  0  0  0  0  0  0  0  0  0  0  0
  -26.6142  -14.3948   21.4143 C   0  0  0  0  0  0  0  0  0  0  0  0
  -29.2404  -20.8322   19.5214 C   0  0  0  0  0  0  0  0  0  0  0  0
  -28.3969  -20.5175   21.7634 C   0  0  0  0  0  0  0  0  0  0  0  0
  -18.9013  -26.2818   22.7781 C   0  0  0  0  0  0  0  0  0  0  0  0
  -19.6564  -28.5100   22.2285 C   0  0  0  0  0  0  0  0  0  0  0  0
  -27.5525  -14.4071   20.3832 C   0  0  0  0  0  0  0  0  0  0  0  0
  -17.1836  -29.3889   24.3602 C   0  0  0  0  0  0  0  0  0  0  0  0
  -16.8536  -30.5975   24.9732 C   0  0  0  0  0  0  0  0  0  0  0  0
  -25.9950  -15.6105   18.9885 C   0  0  0  0  0  0  0  0  0  0  0  0
  -16.1490  -31.4870   22.8402 C   0  0  0  0  0  0  0  0  0  0  0  0
  -21.2661  -26.7533   22.6283 C   0  0  0  0  0  0  0  0  0  0  0  0
  -29.5825  -18.7270   20.6564 C   0  0  0  0  0  0  0  0  0  0  0  0
  -23.2814  -25.7618   23.8379 C   0  0  0  0  0  0  0  0  0  0  0  0
  -21.8677   -9.2509   22.8712 C   0  0  0  0  0  0  0  0  0  0  0  0
  -25.3532  -14.9817   21.2362 C   0  0  0  0  0  0  0  0  0  0  0  0
  -22.5768  -10.3800   22.4135 C   0  0  0  0  0  0  0  0  0  0  0  0
  -25.0435  -15.6065   20.0198 C   0  0  0  0  0  0  0  0  0  0  0  0
  -28.5641  -21.3241   20.6377 C   0  0  0  0  0  0  0  0  0  0  0  0
  -18.6164  -27.6101   22.4617 C   0  0  0  0  0  0  0  0  0  0  0  0
  -27.2420  -15.0125   19.1691 C   0  0  0  0  0  0  0  0  0  0  0  0
  -16.9964  -29.2292   22.9871 C   0  0  0  0  0  0  0  0  0  0  0  0
  -16.3363  -31.6466   24.2132 C   0  0  0  0  0  0  0  0  0  0  0  0
  -16.4791  -30.2783   22.2272 C   0  0  0  0  0  0  0  0  0  0  0  0
  -22.6348  -26.3116   22.7147 C   0  0  0  0  0  0  0  0  0  0  0  0
  -24.5612  -25.5094   23.4080 C   0  0  0  0  0  0  0  0  0  0  0  0
  -30.1217  -17.3517   20.6664 C   0  0  0  0  0  0  0  0  0  0  0  0
  -22.7707  -25.5022   25.1522 C   0  0  0  0  0  0  0  0  0  0  0  0
  -22.3584  -13.9167   21.2701 C   0  0  0  0  0  0  0  0  0  0  0  0
  -21.6463  -17.0692   20.9935 C   0  0  0  0  0  0  0  0  0  0  0  0
  -22.6333  -20.1879   20.0205 C   0  0  0  0  0  0  0  0  0  0  0  0
  -30.0672  -15.1079   19.5933 C   0  0  0  0  0  0  0  0  0  0  0  0
  -28.1257  -23.5743   19.5932 C   0  0  0  0  0  0  0  0  0  0  0  0
  -20.3693   -9.1452   22.7339 C   0  0  0  0  0  0  0  0  0  0  0  0
  -24.3619  -14.9834   22.3675 C   0  0  0  0  0  0  0  0  0  0  0  0
  -23.7111  -16.2684   19.7849 C   0  0  0  0  0  0  0  0  0  0  0  0
  -19.8023  -10.0801   21.6706 C   0  0  0  0  0  0  0  0  0  0  0  0
  -26.9479  -26.9074   19.1688 C   0  0  0  0  0  0  0  0  0  0  0  0
  -20.3441  -11.4872   21.8734 C   0  0  0  0  0  0  0  0  0  0  0  0
  -25.7740  -27.0043   20.1458 C   0  0  0  0  0  0  0  0  0  0  0  0
  -27.0309  -25.5283   18.5169 C   0  0  0  0  0  0  0  0  0  0  0  0
  -25.8754  -24.4953   20.4318 C   0  0  0  0  0  0  0  0  0  0  0  0
  -21.8678  -11.5162   21.6988 C   0  0  1  0  0  0  0  0  0  0  0  0
  -22.9209  -15.1600   21.8990 C   0  0  1  0  0  0  0  0  0  0  0  0
  -25.7895  -25.8456   21.1620 C   0  0  2  0  0  0  0  0  0  0  0  0
  -22.5263  -22.6776   19.7250 C   0  0  0  0  0  0  0  0  0  0  0  0
  -30.2880  -14.5649   17.1772 C   0  0  0  0  0  0  0  0  0  0  0  0
  -29.1730  -12.9235   18.7207 C   0  0  0  0  0  0  0  0  0  0  0  0
  -19.9455  -16.3438   18.5664 C   0  0  0  0  0  0  0  0  0  0  0  0
  -19.9479  -18.7647   17.9283 C   0  0  0  0  0  0  0  0  0  0  0  0
  -18.9224  -18.0464   20.0858 C   0  0  0  0  0  0  0  0  0  0  0  0
  -23.8995  -20.6710   22.6515 C   0  0  0  0  0  0  0  0  0  0  0  0
  -21.4386  -18.0211   19.8404 C   0  0  1  0  0  0  0  0  0  0  0  0
  -22.5644  -21.5314   20.7238 C   0  0  2  0  0  0  0  0  0  0  0  0
  -29.4129  -14.4000   18.4155 C   0  0  0  0  0  0  0  0  0  1  0  0
  -20.0881  -17.7799   19.1087 C   0  0  0  0  0  0  0  0  0  0  0  0
  -23.4378  -26.4036   21.6513 N   0  0  0  0  0  0  0  0  0  0  0  0
  -24.6020  -25.9083   22.1044 N   0  0  0  0  0  0  0  0  0  0  0  0
  -22.7732  -16.2383   20.9193 N   0  0  0  0  0  0  0  0  0  0  0  0
  -27.0458  -24.4809   19.5404 N   0  0  0  0  0  0  0  0  0  0  0  0
  -25.6445  -24.9877   24.0218 N   0  0  0  0  0  0  0  0  0  0  0  0
  -22.8746  -26.5102   26.1205 N   0  0  0  0  0  0  0  0  0  0  0  0
  -28.0468  -22.6432   20.6283 N   0  0  0  0  0  0  0  0  0  0  0  0
  -29.6746  -16.4924   19.7407 N   0  0  0  0  0  0  0  0  0  0  0  0
  -22.3646  -12.8133   22.1020 N   0  0  0  0  0  0  0  0  0  0  0  0
  -21.5898  -19.3649   20.3880 N   0  0  0  0  0  0  0  0  0  0  0  0
  -31.0262  -17.0460   21.5960 N   0  3  0  0  0  0  0  0  0  0  0  0
  -23.7514  -21.7158   21.6058 N   0  3  0  0  0  0  0  0  0  0  0  0
  -22.2527  -24.4030   25.4635 O   0  0  0  0  0  0  0  0  0  0  0  0
  -21.9479  -13.9559   20.1162 O   0  0  0  0  0  0  0  0  0  0  0  0
  -20.8424  -17.0681   21.9291 O   0  0  0  0  0  0  0  0  0  0  0  0
  -23.5217  -19.8988   19.2219 O   0  0  0  0  0  0  0  0  0  0  0  0
  -30.8826  -14.5959   20.3484 O   0  0  0  0  0  0  0  0  0  0  0  0
  -29.0656  -23.6375   18.7967 O   0  0  0  0  0  0  0  0  0  0  0  0
  -17.3238  -28.0284   22.3801 O   0  0  0  0  0  0  0  0  0  0  0  0
  -28.1557  -15.0254   18.1607 O   0  0  0  0  0  0  0  0  0  1  0  0
  -16.0180  -32.8067   24.8023 F   0  0  0  0  0  0  0  0  0  0  0  0
  -16.2959  -30.1305   20.9079 F   0  0  0  0  0  0  0  0  0  0  0  0
  1  2  1  0  0  0  0
  1  7  2  0  0  0  0
  2  8  2  0  0  0  0
  3 12  2  0  0  0  0
  3 19  1  0  0  0  0
  4 13  1  0  0  0  0
  4 19  2  0  0  0  0
  5 10  2  0  0  0  0
  5 20  1  0  0  0  0
  6 11  1  0  0  0  0
  6 20  2  0  0  0  0
  7 22  1  0  0  0  0
  8 24  1  0  0  0  0
  9 14  2  0  0  0  0
  9 23  1  0  0  0  0
 10 26  1  0  0  0  0
 11 26  2  0  0  0  0
 12 27  1  0  0  0  0
 13 27  2  0  0  0  0
 14 28  1  0  0  0  0
 15 16  2  0  0  0  0
 15 29  1  0  0  0  0
 16 30  1  0  0  0  0
 17 25  1  0  0  0  0
 17 28  2  0  0  0  0
 18 30  2  0  0  0  0
 18 31  1  0  0  0  0
 19 32  1  0  0  0  0
 20 34  1  0  0  0  0
 21 32  1  0  0  0  0
 21 33  2  0  0  0  0
 21 35  1  0  0  0  0
 22 24  2  0  0  0  0
 22 41  1  0  0  0  0
 23 25  2  0  0  0  0
 23 42  1  0  0  0  0
 24 50  1  0  0  0  0
 25 43  1  0  0  0  0
 26 70  1  0  0  0  0
 27 82  1  0  0  0  0
 28 83  1  0  0  0  0
 29 31  2  0  0  0  0
 29 82  1  0  0  0  0
 30 84  1  0  0  0  0
 31 85  1  0  0  0  0
 32 64  2  0  0  0  0
 33 65  1  0  0  0  0
 33 68  1  0  0  0  0
 34 71  1  0  0  0  0
 34 74  2  0  0  0  0
 35 69  1  0  0  0  0
 35 76  2  0  0  0  0
 36 51  1  0  0  0  0
 36 72  1  0  0  0  0
 36 77  2  0  0  0  0
 37 60  1  0  0  0  0
 37 66  1  0  0  0  0
 37 78  2  0  0  0  0
 38 61  1  0  0  0  0
 38 73  1  0  0  0  0
 38 79  2  0  0  0  0
 39 62  1  0  0  0  0
 39 71  1  0  0  0  0
 39 80  2  0  0  0  0
 40 67  1  0  0  0  0
 40 70  1  0  0  0  0
 40 81  2  0  0  0  0
 41 44  1  0  0  0  0
 42 51  1  0  0  0  0
 43 66  1  0  0  0  0
 44 46  1  0  0  0  0
 45 47  1  0  0  0  0
 45 48  1  0  0  0  0
 46 50  1  0  0  0  0
 47 52  1  0  0  0  0
 48 67  1  0  0  0  0
 49 52  1  0  0  0  0
 49 67  1  0  0  0  0
 50 72  1  0  0  0  0
 51 66  1  0  0  0  0
 52 65  1  0  0  0  0
 53 61  1  0  0  0  0
 54 62  1  0  0  0  0
 55 62  1  0  0  0  0
 56 63  1  0  0  0  0
 57 63  1  0  0  0  0
 58 63  1  0  0  0  0
 59 75  1  0  0  0  0
 60 63  1  0  0  0  0
 60 73  1  0  0  0  0
 61 75  1  0  0  0  0
 62 83  1  0  0  0  0
 64 65  1  0  0  0  0
M  CHG  2  74   1  75   1
M  ISO  4  40 100  62 101  70 100  83 101
M  END
> <Batch ID>
0076

> <Smiles>
CNC(C)C(=O)NC(C(=O)N1Cc2cc([101O:1][101C:1](C)(C)C(=O)NC(=N)c3ccc([100NH:0][100C:0](=O)N4CCCC(n5nc(-c6ccc(Oc7ccc(F)cc7F)cc6)c(C(N)=O)c5N)C4)cc3)ccc2CC1C(=O)NC1CCCc2ccccc21)C(C)(C)C

> <Shape>
0.223

> <Color>
0.056

> <Negative vol penalty>
0.000

$$$$

  -OEChem-04042323503D

 86 95  0     1  0  0  0  0  0999 V2000
  -17.8614  -30.1933   23.9919 C   0  0  0  0  0  0  0  0  0  0  0  0
  -19.1402  -29.6855   23.7868 C   0  0  0  0  0  0  0  0  0  0  0  0
  -23.1132   -9.9281   21.4339 C   0  0  0  0  0  0  0  0  0  0  0  0
  -23.7596  -10.9265   23.5368 C   0  0  0  0  0  0  0  0  0  0  0  0
  -16.7511  -29.3628   23.8458 C   0  0  0  0  0  0  0  0  0  0  0  0
  -19.3096  -28.3464   23.4365 C   0  0  0  0  0  0  0  0  0  0  0  0
  -23.5937  -26.0248   19.7268 C   0  0  0  0  0  0  0  0  0  0  0  0
  -22.3731   -8.9645   22.1189 C   0  0  0  0  0  0  0  0  0  0  0  0
  -23.0195   -9.9629   24.2219 C   0  0  0  0  0  0  0  0  0  0  0  0
  -24.8130  -25.3977   19.9790 C   0  0  0  0  0  0  0  0  0  0  0  0
  -19.7763   -9.3892   24.9792 C   0  0  0  0  0  0  0  0  0  0  0  0
  -18.9635   -9.8223   26.0267 C   0  0  0  0  0  0  0  0  0  0  0  0
  -23.7393  -23.2461   19.7865 C   0  0  0  0  0  0  0  0  0  0  0  0
  -31.5595  -19.7052   22.0404 C   0  0  0  0  0  0  0  0  0  0  0  0
  -31.8731  -17.4289   21.2943 C   0  0  0  0  0  0  0  0  0  0  0  0
  -29.6522  -18.3757   21.3836 C   0  0  0  0  0  0  0  0  0  0  0  0
  -20.1925   -8.4178   27.5610 C   0  0  0  0  0  0  0  0  0  0  0  0
  -23.8065  -10.9091   22.1429 C   0  0  0  0  0  0  0  0  0  0  0  0
  -24.1209  -13.1576   20.9797 C   0  0  0  0  0  0  0  0  0  0  0  0
  -16.9063  -28.0153   23.4841 C   0  0  0  0  0  0  0  0  0  0  0  0
  -22.4339  -25.2662   19.5130 C   0  0  0  0  0  0  0  0  0  0  0  0
  -18.2003  -27.4968   23.2868 C   0  0  0  0  0  0  0  0  0  0  0  0
  -22.5070  -23.8660   19.5293 C   0  0  0  0  0  0  0  0  0  0  0  0
  -32.4043  -18.6309   21.7620 C   0  0  0  0  0  0  0  0  0  0  0  0
  -30.1834  -19.5777   21.8513 C   0  0  0  0  0  0  0  0  0  0  0  0
  -30.4970  -17.3013   21.1051 C   0  0  0  0  0  0  0  0  0  0  0  0
  -22.3262   -8.9819   23.5129 C   0  0  0  0  0  0  0  0  0  0  0  0
  -24.8855  -24.0081   20.0117 C   0  0  0  0  0  0  0  0  0  0  0  0
  -20.7972   -8.4703   25.2225 C   0  0  0  0  0  0  0  0  0  0  0  0
  -19.1716   -9.3366   27.3176 C   0  0  0  0  0  0  0  0  0  0  0  0
  -21.0053   -7.9847   26.5134 C   0  0  0  0  0  0  0  0  0  0  0  0
  -24.5717  -11.9044   21.4358 C   0  0  0  0  0  0  0  0  0  0  0  0
  -25.2196  -13.7190   20.3763 C   0  0  0  0  0  0  0  0  0  0  0  0
  -28.1242  -20.8915   21.4653 C   0  0  0  0  0  0  0  0  0  0  0  0
  -27.2820  -21.9126   21.7019 C   0  0  0  0  0  0  0  0  0  0  0  0
  -28.6577  -22.4093   23.7330 C   0  0  0  0  0  0  0  0  0  0  0  0
  -28.5593  -22.5582   25.0629 C   0  0  0  0  0  0  0  0  0  0  0  0
  -22.8248  -13.7604   21.0914 C   0  0  0  0  0  0  0  0  0  0  0  0
  -19.6362  -24.9796   20.9944 C   0  0  0  0  0  0  0  0  0  0  0  0
  -18.9187  -23.1077   18.4442 C   0  0  0  0  0  0  0  0  0  0  0  0
  -20.0340  -21.1178   15.9059 C   0  0  0  0  0  0  0  0  0  0  0  0
  -30.6566  -14.9179   20.3049 C   0  0  0  0  0  0  0  0  0  0  0  0
  -15.6790  -27.1445   23.3843 C   0  0  0  0  0  0  0  0  0  0  0  0
  -21.1315  -25.9575   19.2158 C   0  0  0  0  0  0  0  0  0  0  0  0
  -21.2949  -23.0057   19.2859 C   0  0  0  0  0  0  0  0  0  0  0  0
  -27.5844  -22.9094   22.7939 C   0  0  0  0  0  0  0  0  0  0  0  0
  -29.8220  -21.6856   23.0906 C   0  0  0  0  0  0  0  0  0  0  0  0
  -15.9224  -25.8313   22.6449 C   0  0  0  0  0  0  0  0  0  0  0  0
  -29.6911  -11.6955   19.1382 C   0  0  0  0  0  0  0  0  0  0  0  0
  -17.2017  -25.1670   23.1439 C   0  0  0  0  0  0  0  0  0  0  0  0
  -28.2361  -11.5657   19.5944 C   0  0  0  0  0  0  0  0  0  0  0  0
  -30.5432  -12.4395   20.1650 C   0  0  0  0  0  0  0  0  0  0  0  0
  -28.5616  -13.6165   21.0350 C   0  0  0  0  0  0  0  0  0  0  0  0
  -18.4234  -26.0559   22.8816 C   0  0  1  0  0  0  0  0  0  0  0  0
  -19.9125  -25.0928   19.5218 C   0  0  1  0  0  0  0  0  0  0  0  0
  -27.6500  -12.9311   20.0041 C   0  0  2  0  0  0  0  0  0  0  0  0
  -33.8756  -18.7674   21.9642 C   0  0  0  0  0  0  0  0  0  0  0  0
  -19.2092  -19.6966   14.0092 C   0  0  0  0  0  0  0  0  0  0  0  0
  -18.1241  -20.9282   20.4260 C   0  0  0  0  0  0  0  0  0  0  0  0
  -18.2298  -19.2777   18.5464 C   0  0  0  0  0  0  0  0  0  0  0  0
  -16.5945  -21.1594   18.4610 C   0  0  0  0  0  0  0  0  0  0  0  0
  -21.4336  -22.7813   13.8978 C   0  0  0  0  0  0  0  0  0  0  0  0
  -26.0268  -22.1266   20.9134 C   0  0  0  0  0  0  0  0  0  1  0  0
  -19.0540  -21.6385   18.1246 C   0  0  1  0  0  0  0  0  0  0  0  0
  -19.6851  -21.0786   14.4290 C   0  0  2  0  0  0  0  0  0  0  0  0
  -18.0232  -20.7669   18.8961 C   0  0  0  0  0  0  0  0  0  0  0  0
  -25.8567  -11.6823   21.1469 N   0  0  0  0  0  0  0  0  0  0  0  0
  -26.2227  -12.8035   20.5026 N   0  0  0  0  0  0  0  0  0  0  0  0
  -29.3230  -20.6723   22.1352 N   0  0  0  0  0  0  0  0  0  0  0  0
  -20.0433  -23.7286   19.0058 N   0  0  0  0  0  0  0  0  0  0  0  0
  -29.9285  -13.7254   20.5017 N   0  0  0  0  0  0  0  0  0  0  0  0
  -25.4160  -14.9015   19.7554 N   0  0  0  0  0  0  0  0  0  0  0  0
  -21.8095  -13.0460   21.7419 N   0  0  0  0  0  0  0  0  0  0  0  0
  -29.9579  -16.0802   20.6295 N   0  0  0  0  0  0  0  0  0  0  0  0
  -18.8176  -25.9758   21.4915 N   0  0  0  0  0  0  0  0  0  0  0  0
  -18.9635  -21.5265   16.6728 N   0  0  0  0  0  0  0  0  0  0  0  0
  -20.8750  -21.4360   13.6060 N   0  3  0  0  0  0  0  0  0  0  0  0
  -22.5700  -14.8920   20.6138 O   0  0  0  0  0  0  0  0  0  0  0  0
  -20.1279  -24.0559   21.6322 O   0  0  0  0  0  0  0  0  0  0  0  0
  -17.8567  -23.6849   18.1977 O   0  0  0  0  0  0  0  0  0  0  0  0
  -21.1439  -20.8124   16.3364 O   0  0  0  0  0  0  0  0  0  0  0  0
  -31.8050  -14.9102   19.8541 O   0  0  0  0  0  0  0  0  0  0  0  0
  -21.6038   -8.0419   24.1816 O   0  0  0  0  0  0  0  0  0  0  0  0
  -26.0742  -23.3934   20.2583 O   0  0  0  0  0  0  0  0  0  1  0  0
  -18.3920   -9.7538   28.3237 F   0  0  0  0  0  0  0  0  0  0  0  0
  -21.9852   -7.1027   26.7536 F   0  0  0  0  0  0  0  0  0  0  0  0
  1  2  1  0  0  0  0
  1  5  2  0  0  0  0
  2  6  2  0  0  0  0
  3  8  2  0  0  0  0
  3 18  1  0  0  0  0
  4  9  1  0  0  0  0
  4 18  2  0  0  0  0
  5 20  1  0  0  0  0
  6 22  1  0  0  0  0
  7 10  2  0  0  0  0
  7 21  1  0  0  0  0
  8 27  1  0  0  0  0
  9 27  2  0  0  0  0
 10 28  1  0  0  0  0
 11 12  2  0  0  0  0
 11 29  1  0  0  0  0
 12 30  1  0  0  0  0
 13 23  1  0  0  0  0
 13 28  2  0  0  0  0
 14 24  2  0  0  0  0
 14 25  1  0  0  0  0
 15 24  1  0  0  0  0
 15 26  2  0  0  0  0
 16 25  2  0  0  0  0
 16 26  1  0  0  0  0
 17 30  2  0  0  0  0
 17 31  1  0  0  0  0
 18 32  1  0  0  0  0
 19 32  1  0  0  0  0
 19 33  2  0  0  0  0
 19 38  1  0  0  0  0
 20 22  2  0  0  0  0
 20 43  1  0  0  0  0
 21 23  2  0  0  0  0
 21 44  1  0  0  0  0
 22 54  1  0  0  0  0
 23 45  1  0  0  0  0
 24 57  1  0  0  0  0
 25 69  1  0  0  0  0
 26 74  1  0  0  0  0
 27 83  1  0  0  0  0
 28 84  1  0  0  0  0
 29 31  2  0  0  0  0
 29 83  1  0  0  0  0
 30 85  1  0  0  0  0
 31 86  1  0  0  0  0
 32 67  2  0  0  0  0
 33 68  1  0  0  0  0
 33 72  1  0  0  0  0
 34 35  2  0  0  0  0
 34 69  1  0  0  0  0
 35 46  1  0  0  0  0
 35 63  1  0  0  0  0
 36 37  2  0  0  0  0
 36 46  1  0  0  0  0
 36 47  1  0  0  0  0
 38 73  1  0  0  0  0
 38 78  2  0  0  0  0
 39 55  1  0  0  0  0
 39 75  1  0  0  0  0
 39 79  2  0  0  0  0
 40 64  1  0  0  0  0
 40 70  1  0  0  0  0
 40 80  2  0  0  0  0
 41 65  1  0  0  0  0
 41 76  1  0  0  0  0
 41 81  2  0  0  0  0
 42 71  1  0  0  0  0
 42 74  1  0  0  0  0
 42 82  2  0  0  0  0
 43 48  1  0  0  0  0
 44 55  1  0  0  0  0
 45 70  1  0  0  0  0
 47 69  1  0  0  0  0
 48 50  1  0  0  0  0
 49 51  1  0  0  0  0
 49 52  1  0  0  0  0
 50 54  1  0  0  0  0
 51 56  1  0  0  0  0
 52 71  1  0  0  0  0
 53 56  1  0  0  0  0
 53 71  1  0  0  0  0
 54 75  1  0  0  0  0
 55 70  1  0  0  0  0
 56 68  1  0  0  0  0
 58 65  1  0  0  0  0
 59 66  1  0  0  0  0
 60 66  1  0  0  0  0
 61 66  1  0  0  0  0
 62 77  1  0  0  0  0
 63 84  1  0  0  0  0
 64 66  1  0  0  0  0
 64 76  1  0  0  0  0
 65 77  1  0  0  0  0
 67 68  1  0  0  0  0
M  CHG  1  77   1
M  ISO  4  42 100  63 101  74 100  84 101
M  END
> <Batch ID>
0076

> <Smiles>
C=C1CC([101CH2:1][101O:1]c2ccc3c(c2)CN(C(=O)C(NC(=O)C(C)NC)C(C)(C)C)C(C(=O)NC2CCCc4ccccc42)C3)=CN(c2cc(C)cc([100NH:0][100C:0](=O)N3CCCC(n4nc(-c5ccc(Oc6ccc(F)cc6F)cc5)c(C(N)=O)c4N)C3)c2)C1

> <Shape>
0.200

> <Color>
0.146

> <Negative vol penalty>
0.000

$$$$

  -OEChem-04042323503D

 90 99  0     1  0  0  0  0  0999 V2000
  -26.8660  -26.6672   11.6668 C   0  0  0  0  0  0  0  0  0  0  0  0
  -27.1677  -26.1653   12.9287 C   0  0  0  0  0  0  0  0  0  0  0  0
  -23.3617  -15.8043   21.9760 C   0  0  0  0  0  0  0  0  0  0  0  0
  -22.7837  -15.2702   19.6917 C   0  0  0  0  0  0  0  0  0  0  0  0
  -26.5374  -28.0135   11.5136 C   0  0  0  0  0  0  0  0  0  0  0  0
  -27.1421  -27.0097   14.0381 C   0  0  0  0  0  0  0  0  0  0  0  0
  -24.7980  -24.9243   18.0131 C   0  0  0  0  0  0  0  0  0  0  0  0
  -30.4087  -17.9990   20.5384 C   0  0  0  0  0  0  0  0  0  0  0  0
  -30.7758  -16.6865   20.8353 C   0  0  0  0  0  0  0  0  0  0  0  0
  -22.4466  -16.8569   21.9614 C   0  0  0  0  0  0  0  0  0  0  0  0
  -21.8686  -16.3228   19.6772 C   0  0  0  0  0  0  0  0  0  0  0  0
  -25.5141  -23.9849   18.7538 C   0  0  0  0  0  0  0  0  0  0  0  0
  -22.3102  -20.0221   20.7836 C   0  0  0  0  0  0  0  0  0  0  0  0
  -22.7202  -21.2437   21.3175 C   0  0  0  0  0  0  0  0  0  0  0  0
  -26.0122  -25.6736   20.4028 C   0  0  0  0  0  0  0  0  0  0  0  0
  -29.2562  -18.1558   22.6560 C   0  0  0  0  0  0  0  0  0  0  0  0
  -20.9343  -21.1335   22.9410 C   0  0  0  0  0  0  0  0  0  0  0  0
  -23.5303  -15.0110   20.8411 C   0  0  0  0  0  0  0  0  0  0  0  0
  -24.2309  -12.5889   21.2292 C   0  0  0  0  0  0  0  0  0  0  0  0
  -26.4983  -28.8727   12.6230 C   0  0  0  0  0  0  0  0  0  0  0  0
  -24.6926  -26.2503   18.4571 C   0  0  0  0  0  0  0  0  0  0  0  0
  -26.8140  -28.3690   13.8994 C   0  0  0  0  0  0  0  0  0  0  0  0
  -25.2921  -26.6273   19.6673 C   0  0  0  0  0  0  0  0  0  0  0  0
  -29.6490  -18.7337   21.4488 C   0  0  0  0  0  0  0  0  0  0  0  0
  -30.3831  -16.1086   22.0426 C   0  0  0  0  0  0  0  0  0  0  0  0
  -29.6233  -16.8433   22.9529 C   0  0  0  0  0  0  0  0  0  0  0  0
  -21.7000  -17.1162   20.8121 C   0  0  0  0  0  0  0  0  0  0  0  0
  -26.1237  -24.3602   19.9473 C   0  0  0  0  0  0  0  0  0  0  0  0
  -21.2122  -19.3562   21.3283 C   0  0  0  0  0  0  0  0  0  0  0  0
  -22.0323  -21.7994   22.3962 C   0  0  0  0  0  0  0  0  0  0  0  0
  -20.5243  -19.9119   22.4070 C   0  0  0  0  0  0  0  0  0  0  0  0
  -24.4759  -13.9238   20.8553 C   0  0  0  0  0  0  0  0  0  0  0  0
  -25.4413  -11.9599   21.0691 C   0  0  0  0  0  0  0  0  0  0  0  0
  -29.5278  -20.8288   20.0709 C   0  0  0  0  0  0  0  0  0  0  0  0
  -28.5206  -20.9447   21.8247 C   0  0  0  0  0  0  0  0  0  0  0  0
  -28.2952  -16.4258   27.6845 C   0  0  0  0  0  0  0  0  0  0  0  0
  -28.5622  -15.9893   26.4496 C   0  0  0  0  0  0  0  0  0  0  0  0
  -23.0176  -11.9727   21.6807 C   0  0  0  0  0  0  0  0  0  0  0  0
  -28.9868  -16.9421   25.3832 C   0  0  0  0  0  0  0  0  0  0  0  0
  -25.5917  -29.0767   17.3138 C   0  0  0  0  0  0  0  0  0  0  0  0
  -23.9402  -30.1994   19.8700 C   0  0  0  0  0  0  0  0  0  0  0  0
  -22.7013  -29.6262   22.9978 C   0  0  0  0  0  0  0  0  0  0  0  0
  -30.9597  -13.8083   21.2895 C   0  0  0  0  0  0  0  0  0  0  0  0
  -26.1838  -30.3309   12.4011 C   0  0  0  0  0  0  0  0  0  0  0  0
  -23.8941  -27.2452   17.6601 C   0  0  0  0  0  0  0  0  0  0  0  0
  -25.1916  -28.0333   20.1978 C   0  0  0  0  0  0  0  0  0  0  0  0
  -25.8139  -31.0759   13.6812 C   0  0  0  0  0  0  0  0  0  0  0  0
  -29.4688  -12.1681   18.5092 C   0  0  0  0  0  0  0  0  0  0  0  0
  -26.8009  -30.7442   14.7960 C   0  0  0  0  0  0  0  0  0  0  0  0
  -27.9822  -12.3145   18.8319 C   0  0  0  0  0  0  0  0  0  0  0  0
  -30.2597  -13.4257   18.8707 C   0  0  0  0  0  0  0  0  0  0  0  0
  -28.5850  -14.0184   20.5937 C   0  0  0  0  0  0  0  0  0  0  0  0
  -26.7729  -29.2480   15.1306 C   0  0  1  0  0  0  0  0  0  0  0  0
  -28.7094  -21.9747   20.6952 C   0  0  0  0  0  0  0  0  0  0  0  0
  -24.2846  -28.6918   17.9470 C   0  0  1  0  0  0  0  0  0  0  0  0
  -27.7745  -12.7478   20.2938 C   0  0  1  0  0  0  0  0  0  0  0  0
  -21.4287  -30.7458   24.8483 C   0  0  0  0  0  0  0  0  0  0  0  0
  -26.4442  -31.7620   20.6433 C   0  0  0  0  0  0  0  0  0  0  0  0
  -25.4600  -32.0752   22.9239 C   0  0  0  0  0  0  0  0  0  0  0  0
  -24.3010  -33.0192   20.9269 C   0  0  0  0  0  0  0  0  0  0  0  0
  -31.2142  -14.4153   23.6857 C   0  0  0  0  0  0  0  0  0  0  0  0
  -20.5010  -27.6535   22.8351 C   0  0  0  0  0  0  0  0  0  0  0  0
  -27.4570  -22.3908   19.9484 C   0  0  0  0  0  0  0  0  0  1  0  0
  -24.2801  -30.5196   21.3056 C   0  0  1  0  0  0  0  0  0  0  0  0
  -21.3317  -29.8810   23.6011 C   0  0  2  0  0  0  0  0  0  0  0  0
  -25.1250  -31.8179   21.4392 C   0  0  0  0  0  0  0  0  0  0  0  0
  -25.7424  -14.1317   20.4857 N   0  0  0  0  0  0  0  0  0  0  0  0
  -26.3042  -12.9189   20.6266 N   0  0  0  0  0  0  0  0  0  0  0  0
  -29.2871  -20.0274   21.1556 N   0  0  0  0  0  0  0  0  0  0  0  0
  -24.4054  -28.9711   19.3793 N   0  0  0  0  0  0  0  0  0  0  0  0
  -29.9984  -13.8237   20.2613 N   0  0  0  0  0  0  0  0  0  0  0  0
  -25.8411  -10.6854   21.2651 N   0  0  0  0  0  0  0  0  0  0  0  0
  -21.8659  -12.7641   21.7879 N   0  0  0  0  0  0  0  0  0  0  0  0
  -29.2163  -16.2851   24.1685 N   0  0  0  0  0  0  0  0  0  0  0  0
  -25.6151  -28.9326   15.9397 N   0  0  0  0  0  0  0  0  0  0  0  0
  -23.0125  -30.5546   22.0271 N   0  0  0  0  0  0  0  0  0  0  0  0
  -30.7745  -14.7479   22.3264 N   0  0  0  0  0  0  0  0  0  0  0  0
  -20.6812  -28.5925   23.9720 N   0  3  0  0  0  0  0  0  0  0  0  0
  -30.1373  -20.6542   19.0399 O   0  0  0  0  0  0  0  0  0  0  0  0
  -27.9317  -20.9093   22.8815 O   0  0  0  0  0  0  0  0  0  0  0  0
  -22.9606  -10.7599   21.9960 O   0  0  0  0  0  0  0  0  0  0  0  0
  -29.1011  -18.1406   25.6108 O   0  0  0  0  0  0  0  0  0  0  0  0
  -26.5104  -29.4763   18.0194 O   0  0  0  0  0  0  0  0  0  0  0  0
  -23.2799  -31.0061   19.2105 O   0  0  0  0  0  0  0  0  0  0  0  0
  -23.4242  -28.6986   23.3548 O   0  0  0  0  0  0  0  0  0  0  0  0
  -31.8961  -13.0002   21.2947 O   0  0  0  0  0  0  0  0  0  0  0  0
  -20.8068  -18.1430   20.7976 O   0  0  0  0  0  0  0  0  0  0  0  0
  -26.8238  -23.4454   20.6718 O   0  0  0  0  0  0  0  0  0  1  0  0
  -22.4271  -22.9718   22.9098 F   0  0  0  0  0  0  0  0  0  0  0  0
  -19.4694  -19.2763   22.9354 F   0  0  0  0  0  0  0  0  0  0  0  0
  1  2  1  0  0  0  0
  1  5  2  0  0  0  0
  2  6  2  0  0  0  0
  3 10  2  0  0  0  0
  3 18  1  0  0  0  0
  4 11  1  0  0  0  0
  4 18  2  0  0  0  0
  5 20  1  0  0  0  0
  6 22  1  0  0  0  0
  7 12  2  0  0  0  0
  7 21  1  0  0  0  0
  8  9  2  0  0  0  0
  8 24  1  0  0  0  0
  9 25  1  0  0  0  0
 10 27  1  0  0  0  0
 11 27  2  0  0  0  0
 12 28  1  0  0  0  0
 13 14  2  0  0  0  0
 13 29  1  0  0  0  0
 14 30  1  0  0  0  0
 15 23  1  0  0  0  0
 15 28  2  0  0  0  0
 16 24  2  0  0  0  0
 16 26  1  0  0  0  0
 17 30  2  0  0  0  0
 17 31  1  0  0  0  0
 18 32  1  0  0  0  0
 19 32  1  0  0  0  0
 19 33  2  0  0  0  0
 19 38  1  0  0  0  0
 20 22  2  0  0  0  0
 20 44  1  0  0  0  0
 21 23  2  0  0  0  0
 21 45  1  0  0  0  0
 22 53  1  0  0  0  0
 23 46  1  0  0  0  0
 24 69  1  0  0  0  0
 25 26  2  0  0  0  0
 25 77  1  0  0  0  0
 26 74  1  0  0  0  0
 27 87  1  0  0  0  0
 28 88  1  0  0  0  0
 29 31  2  0  0  0  0
 29 87  1  0  0  0  0
 30 89  1  0  0  0  0
 31 90  1  0  0  0  0
 32 67  2  0  0  0  0
 33 68  1  0  0  0  0
 33 72  1  0  0  0  0
 34 54  1  0  0  0  0
 34 69  1  0  0  0  0
 34 79  2  0  0  0  0
 35 54  1  0  0  0  0
 35 69  1  0  0  0  0
 35 80  2  0  0  0  0
 36 37  2  0  0  0  0
 37 39  1  0  0  0  0
 38 73  1  0  0  0  0
 38 81  2  0  0  0  0
 39 74  1  0  0  0  0
 39 82  2  0  0  0  0
 40 55  1  0  0  0  0
 40 75  1  0  0  0  0
 40 83  2  0  0  0  0
 41 64  1  0  0  0  0
 41 70  1  0  0  0  0
 41 84  2  0  0  0  0
 42 65  1  0  0  0  0
 42 76  1  0  0  0  0
 42 85  2  0  0  0  0
 43 71  1  0  0  0  0
 43 77  1  0  0  0  0
 43 86  2  0  0  0  0
 44 47  1  0  0  0  0
 45 55  1  0  0  0  0
 46 70  1  0  0  0  0
 47 49  1  0  0  0  0
 48 50  1  0  0  0  0
 48 51  1  0  0  0  0
 49 53  1  0  0  0  0
 50 56  1  0  0  0  0
 51 71  1  0  0  0  0
 52 56  1  0  0  0  0
 52 71  1  0  0  0  0
 53 75  1  0  0  0  0
 54 63  1  0  0  0  0
 55 70  1  0  0  0  0
 56 68  1  0  0  0  0
 57 65  1  0  0  0  0
 58 66  1  0  0  0  0
 59 66  1  0  0  0  0
 60 66  1  0  0  0  0
 61 77  1  0  0  0  0
 62 78  1  0  0  0  0
 63 88  1  0  0  0  0
 64 66  1  0  0  0  0
 64 76  1  0  0  0  0
 65 78  1  0  0  0  0
 67 68  1  0  0  0  0
M  CHG  1  78   1
M  ISO  4  43 100  63 101  77 100  88 101
M  END
> <Batch ID>
0076

> <Smiles>
C=CC(=O)Nc1cc(N2C(=O)C([101CH2:1][101O:1]c3ccc4c(c3)CN(C(=O)C(NC(=O)C(C)NC)C(C)(C)C)C(C(=O)NC3CCCc5ccccc53)C4)C2=O)ccc1[100N:0](C)[100C:0](=O)N1CCCC(n2nc(-c3ccc(Oc4ccc(F)cc4F)cc3)c(C(N)=O)c2N)C1

> <Shape>
0.248

> <Color>
0.079

> <Negative vol penalty>
0.000

$$$$

  -OEChem-04042323503D

 87 96  0     1  0  0  0  0  0999 V2000
  -32.4182  -13.2562   21.1445 C   0  0  0  0  0  0  0  0  0  0  0  0
  -31.7619  -14.4466   21.4406 C   0  0  0  0  0  0  0  0  0  0  0  0
  -26.6150  -23.6396   21.1808 C   0  0  0  0  0  0  0  0  0  0  0  0
  -28.7127  -24.8363   21.2509 C   0  0  0  0  0  0  0  0  0  0  0  0
  -31.7576  -12.2557   20.4329 C   0  0  0  0  0  0  0  0  0  0  0  0
  -30.4449  -14.6376   21.0242 C   0  0  0  0  0  0  0  0  0  0  0  0
  -26.0558  -17.7127   23.9882 C   0  0  0  0  0  0  0  0  0  0  0  0
  -22.3886  -25.4239   20.8489 C   0  0  0  0  0  0  0  0  0  0  0  0
  -22.1205  -26.4760   19.9732 C   0  0  0  0  0  0  0  0  0  0  0  0
  -27.2475  -22.5677   20.5511 C   0  0  0  0  0  0  0  0  0  0  0  0
  -29.3452  -23.7643   20.6213 C   0  0  0  0  0  0  0  0  0  0  0  0
  -25.5605  -19.0085   23.8486 C   0  0  0  0  0  0  0  0  0  0  0  0
  -29.2174  -19.9670   21.4393 C   0  0  0  0  0  0  0  0  0  0  0  0
  -28.9305  -18.6827   21.9016 C   0  0  0  0  0  0  0  0  0  0  0  0
  -23.7792  -18.1708   22.4542 C   0  0  0  0  0  0  0  0  0  0  0  0
  -22.0437  -26.9010   22.7294 C   0  0  0  0  0  0  0  0  0  0  0  0
  -28.0971  -18.0818   19.7149 C   0  0  0  0  0  0  0  0  0  0  0  0
  -27.3476  -24.7739   21.5307 C   0  0  0  0  0  0  0  0  0  0  0  0
  -26.5349  -26.0811   23.5650 C   0  0  0  0  0  0  0  0  0  0  0  0
  -30.4286  -12.4307   20.0159 C   0  0  0  0  0  0  0  0  0  0  0  0
  -25.4218  -16.6359   23.3519 C   0  0  0  0  0  0  0  0  0  0  0  0
  -29.7663  -13.6390   20.3051 C   0  0  0  0  0  0  0  0  0  0  0  0
  -24.2669  -16.8620   22.5894 C   0  0  0  0  0  0  0  0  0  0  0  0
  -22.3502  -25.6363   22.2269 C   0  0  0  0  0  0  0  0  0  0  0  0
  -21.8141  -27.7406   20.4756 C   0  0  0  0  0  0  0  0  0  0  0  0
  -21.7756  -27.9531   21.8537 C   0  0  0  0  0  0  0  0  0  0  0  0
  -28.6126  -22.6300   20.2714 C   0  0  0  0  0  0  0  0  0  0  0  0
  -24.4237  -19.2380   23.0791 C   0  0  0  0  0  0  0  0  0  0  0  0
  -28.9441  -20.3088   20.1148 C   0  0  0  0  0  0  0  0  0  0  0  0
  -28.3704  -17.7400   21.0394 C   0  0  0  0  0  0  0  0  0  0  0  0
  -28.3839  -19.3662   19.2526 C   0  0  0  0  0  0  0  0  0  0  0  0
  -26.6946  -25.8818   22.1806 C   0  0  0  0  0  0  0  0  0  0  0  0
  -25.8543  -27.2700   23.6645 C   0  0  0  0  0  0  0  0  0  0  0  0
  -22.9475  -23.2324   22.7698 C   0  0  0  0  0  0  0  0  0  0  0  0
  -26.9635  -25.2646   24.6629 C   0  0  0  0  0  0  0  0  0  0  0  0
  -26.2761  -14.5184   21.1406 C   0  0  0  0  0  0  0  0  0  0  0  0
  -23.3828  -13.2205   21.8237 C   0  0  0  0  0  0  0  0  0  0  0  0
  -20.2225  -13.6616   23.0339 C   0  0  0  0  0  0  0  0  0  0  0  0
  -22.2975  -29.9983   19.4956 C   0  0  0  0  0  0  0  0  0  0  0  0
  -29.7716  -11.3395   19.2082 C   0  0  0  0  0  0  0  0  0  0  0  0
  -25.9531  -15.2406   23.5344 C   0  0  0  0  0  0  0  0  0  0  0  0
  -23.5375  -15.7375   21.9024 C   0  0  0  0  0  0  0  0  0  0  0  0
  -28.2528  -11.4712   19.1284 C   0  0  0  0  0  0  0  0  0  0  0  0
  -25.1497  -31.4108   21.3831 C   0  0  0  0  0  0  0  0  0  0  0  0
  -27.8581  -12.9073   18.7988 C   0  0  0  0  0  0  0  0  0  0  0  0
  -25.9006  -30.1640   21.8468 C   0  0  0  0  0  0  0  0  0  0  0  0
  -23.2565  -23.5010   25.1180 C   0  0  0  0  0  0  0  0  0  0  0  0
  -24.3988  -31.1671   20.0776 C   0  0  0  0  0  0  0  0  0  0  0  0
  -22.5446  -24.7196   24.5625 C   0  0  0  0  0  0  0  0  0  0  0  0
  -24.2174  -28.7515   20.6004 C   0  0  0  0  0  0  0  0  0  0  0  0
  -28.3295  -13.8738   19.8921 C   0  0  1  0  0  0  0  0  0  0  0  0
  -25.5256  -14.2883   22.4218 C   0  0  1  0  0  0  0  0  0  0  0  0
  -24.9492  -28.9593   21.9348 C   0  0  1  0  0  0  0  0  0  0  0  0
  -23.0153  -22.4194   24.0618 C   0  0  1  0  0  0  0  0  0  0  0  0
  -21.6725  -21.7109   24.2750 C   0  0  0  0  0  0  0  0  0  0  0  0
  -18.0746  -12.4259   23.4303 C   0  0  0  0  0  0  0  0  0  0  0  0
  -22.7586  -13.3532   18.8400 C   0  0  0  0  0  0  0  0  0  0  0  0
  -20.3414  -13.0223   19.4019 C   0  0  0  0  0  0  0  0  0  0  0  0
  -22.0058  -11.2535   19.9709 C   0  0  0  0  0  0  0  0  0  0  0  0
  -20.2751  -28.7799   18.8197 C   0  0  0  0  0  0  0  0  0  0  0  0
  -20.3477  -14.1451   25.9510 C   0  0  0  0  0  0  0  0  0  0  0  0
  -24.1539  -21.4028   24.0260 C   0  0  0  0  0  0  0  0  0  1  0  0
  -21.9786  -13.4036   21.3007 C   0  0  1  0  0  0  0  0  0  0  0  0
  -19.4038  -12.8591   24.0289 C   0  0  2  0  0  0  0  0  0  0  0  0
  -21.7857  -12.7798   19.8896 C   0  0  0  0  0  0  0  0  0  0  0  0
  -26.1586  -26.8652   21.4529 N   0  0  0  0  0  0  0  0  0  0  0  0
  -25.6553  -27.6938   22.3835 N   0  0  0  0  0  0  0  0  0  0  0  0
  -22.6244  -24.5590   23.1230 N   0  0  0  0  0  0  0  0  0  0  0  0
  -24.0996  -14.3920   22.1059 N   0  0  0  0  0  0  0  0  0  0  0  0
  -23.5428  -29.9823   20.1568 N   0  0  0  0  0  0  0  0  0  0  0  0
  -21.4671  -29.2260   22.3841 N   0  0  0  0  0  0  0  0  0  0  0  0
  -25.4127  -27.9836   24.7219 N   0  0  0  0  0  0  0  0  0  0  0  0
  -27.6503  -24.0754   24.3829 N   0  0  0  0  0  0  0  0  0  0  0  0
  -27.4537  -13.8021   21.0420 N   0  0  0  0  0  0  0  0  0  0  0  0
  -21.0888  -12.8600   22.3210 N   0  0  0  0  0  0  0  0  0  0  0  0
  -21.5403  -28.8126   19.5501 N   0  0  0  0  0  0  0  0  0  0  0  0
  -19.1279  -13.6716   25.2474 N   0  3  0  0  0  0  0  0  0  0  0  0
  -23.0963  -22.7358   21.6618 O   0  0  0  0  0  0  0  0  0  0  0  0
  -26.7294  -25.5720   25.8563 O   0  0  0  0  0  0  0  0  0  0  0  0
  -25.8198  -15.2876   20.3029 O   0  0  0  0  0  0  0  0  0  0  0  0
  -23.8249  -12.0800   21.9831 O   0  0  0  0  0  0  0  0  0  0  0  0
  -20.1026  -14.8774   22.8995 O   0  0  0  0  0  0  0  0  0  0  0  0
  -21.9103  -30.9821   18.8532 O   0  0  0  0  0  0  0  0  0  0  0  0
  -29.2302  -21.5841   19.6572 O   0  0  0  0  0  0  0  0  0  0  0  0
  -23.9386  -20.5019   22.9406 O   0  0  0  0  0  0  0  0  0  1  0  0
  -28.0964  -16.5062   21.4830 F   0  0  0  0  0  0  0  0  0  0  0  0
  -28.1202  -19.6883   17.9789 F   0  0  0  0  0  0  0  0  0  0  0  0
  1  2  1  0  0  0  0
  1  5  2  0  0  0  0
  2  6  2  0  0  0  0
  3 10  2  0  0  0  0
  3 18  1  0  0  0  0
  4 11  1  0  0  0  0
  4 18  2  0  0  0  0
  5 20  1  0  0  0  0
  6 22  1  0  0  0  0
  7 12  2  0  0  0  0
  7 21  1  0  0  0  0
  8  9  2  0  0  0  0
  8 24  1  0  0  0  0
  9 25  1  0  0  0  0
 10 27  1  0  0  0  0
 11 27  2  0  0  0  0
 12 28  1  0  0  0  0
 13 14  2  0  0  0  0
 13 29  1  0  0  0  0
 14 30  1  0  0  0  0
 15 23  1  0  0  0  0
 15 28  2  0  0  0  0
 16 24  2  0  0  0  0
 16 26  1  0  0  0  0
 17 30  2  0  0  0  0
 17 31  1  0  0  0  0
 18 32  1  0  0  0  0
 19 32  1  0  0  0  0
 19 33  2  0  0  0  0
 19 35  1  0  0  0  0
 20 22  2  0  0  0  0
 20 40  1  0  0  0  0
 21 23  2  0  0  0  0
 21 41  1  0  0  0  0
 22 51  1  0  0  0  0
 23 42  1  0  0  0  0
 24 68  1  0  0  0  0
 25 26  2  0  0  0  0
 25 76  1  0  0  0  0
 26 71  1  0  0  0  0
 27 84  1  0  0  0  0
 28 85  1  0  0  0  0
 29 31  2  0  0  0  0
 29 84  1  0  0  0  0
 30 86  1  0  0  0  0
 31 87  1  0  0  0  0
 32 66  2  0  0  0  0
 33 67  1  0  0  0  0
 33 72  1  0  0  0  0
 34 54  1  0  0  0  0
 34 68  1  0  0  0  0
 34 78  2  0  0  0  0
 35 73  1  0  0  0  0
 35 79  2  0  0  0  0
 36 52  1  0  0  0  0
 36 74  1  0  0  0  0
 36 80  2  0  0  0  0
 37 63  1  0  0  0  0
 37 69  1  0  0  0  0
 37 81  2  0  0  0  0
 38 64  1  0  0  0  0
 38 75  1  0  0  0  0
 38 82  2  0  0  0  0
 39 70  1  0  0  0  0
 39 76  1  0  0  0  0
 39 83  2  0  0  0  0
 40 43  1  0  0  0  0
 41 52  1  0  0  0  0
 42 69  1  0  0  0  0
 43 45  1  0  0  0  0
 44 46  1  0  0  0  0
 44 48  1  0  0  0  0
 45 51  1  0  0  0  0
 46 53  1  0  0  0  0
 47 49  1  0  0  0  0
 47 54  1  0  0  0  0
 48 70  1  0  0  0  0
 49 68  1  0  0  0  0
 50 53  1  0  0  0  0
 50 70  1  0  0  0  0
 51 74  1  0  0  0  0
 52 69  1  0  0  0  0
 53 67  1  0  0  0  0
 54 55  1  0  0  0  0
 54 62  1  0  0  0  0
 56 64  1  0  0  0  0
 57 65  1  0  0  0  0
 58 65  1  0  0  0  0
 59 65  1  0  0  0  0
 60 76  1  0  0  0  0
 61 77  1  0  0  0  0
 62 85  1  0  0  0  0
 63 65  1  0  0  0  0
 63 75  1  0  0  0  0
 64 77  1  0  0  0  0
 66 67  1  0  0  0  0
M  CHG  1  77   1
M  ISO  4  39 100  62 101  76 100  85 101
M  END
> <Batch ID>
0076

> <Smiles>
CNC(C)C(=O)NC(C(=O)N1Cc2cc([101O:1][101CH2:1]C3(C)CCN(c4ccc([100N:0](C)[100C:0](=O)N5CCCC(n6nc(-c7ccc(Oc8ccc(F)cc8F)cc7)c(C(N)=O)c6N)C5)c(N)c4)C3=O)ccc2CC1C(=O)NC1CCCc2ccccc21)C(C)(C)C

> <Shape>
0.212

> <Color>
0.085

> <Negative vol penalty>
0.000

$$$$

  -OEChem-04042323503D

 86 94  0     1  0  0  0  0  0999 V2000
  -26.9880  -35.3863   18.9665 C   0  0  0  0  0  0  0  0  0  0  0  0
  -27.6589  -34.3764   19.6487 C   0  0  0  0  0  0  0  0  0  0  0  0
  -24.5418   -9.6193   20.9645 C   0  0  0  0  0  0  0  0  0  0  0  0
  -25.0118  -10.4411   23.1873 C   0  0  0  0  0  0  0  0  0  0  0  0
  -28.7446  -21.6747   23.0429 C   0  0  0  0  0  0  0  0  0  0  0  0
  -25.5997  -35.3413   18.8459 C   0  0  0  0  0  0  0  0  0  0  0  0
  -26.9417  -33.3214   20.2117 C   0  0  0  0  0  0  0  0  0  0  0  0
  -29.0728  -28.8188   19.3009 C   0  0  0  0  0  0  0  0  0  0  0  0
  -24.3006   -8.3481   21.4854 C   0  0  0  0  0  0  0  0  0  0  0  0
  -24.7706   -9.1698   23.7082 C   0  0  0  0  0  0  0  0  0  0  0  0
  -30.1791  -28.4699   20.0743 C   0  0  0  0  0  0  0  0  0  0  0  0
  -21.7921   -6.7500   23.0937 C   0  0  0  0  0  0  0  0  0  0  0  0
  -27.5026  -21.0564   22.8990 C   0  0  0  0  0  0  0  0  0  0  0  0
  -20.6657   -6.0654   22.6373 C   0  0  0  0  0  0  0  0  0  0  0  0
  -29.7911  -19.8489   21.8561 C   0  0  0  0  0  0  0  0  0  0  0  0
  -28.7643  -27.1034   21.4708 C   0  0  0  0  0  0  0  0  0  0  0  0
  -22.0793   -4.2860   21.8172 C   0  0  0  0  0  0  0  0  0  0  0  0
  -24.8974  -10.6658   21.8154 C   0  0  0  0  0  0  0  0  0  0  0  0
  -29.8889  -21.0709   22.5214 C   0  0  0  0  0  0  0  0  0  0  0  0
  -24.2113  -13.0143   21.0932 C   0  0  0  0  0  0  0  0  0  0  0  0
  -24.8660  -34.2803   19.3994 C   0  0  0  0  0  0  0  0  0  0  0  0
  -27.7999  -28.3204   19.6138 C   0  0  0  0  0  0  0  0  0  0  0  0
  -25.5421  -33.2629   20.0996 C   0  0  0  0  0  0  0  0  0  0  0  0
  -27.6439  -27.4455   20.6984 C   0  0  0  0  0  0  0  0  0  0  0  0
  -28.5491  -19.2306   21.7122 C   0  0  0  0  0  0  0  0  0  0  0  0
  -24.4149   -8.1233   22.8573 C   0  0  0  0  0  0  0  0  0  0  0  0
  -30.0245  -27.6144   21.1611 C   0  0  0  0  0  0  0  0  0  0  0  0
  -23.0622   -6.2026   22.9117 C   0  0  0  0  0  0  0  0  0  0  0  0
  -20.8093   -4.8335   21.9991 C   0  0  0  0  0  0  0  0  0  0  0  0
  -27.4048  -19.8343   22.2336 C   0  0  0  0  0  0  0  0  0  0  0  0
  -23.2058   -4.9706   22.2735 C   0  0  0  0  0  0  0  0  0  0  0  0
  -25.1473  -11.9791   21.2778 C   0  0  0  0  0  0  0  0  0  0  0  0
  -24.9422  -14.0466   20.5580 C   0  0  0  0  0  0  0  0  0  0  0  0
  -31.4346  -25.9498   22.0048 C   0  0  0  0  0  0  0  0  0  1  0  0
  -31.2111  -21.7297   22.6746 C   0  0  0  0  0  0  0  0  0  0  0  0
  -22.8068  -13.0405   21.3801 C   0  0  0  0  0  0  0  0  0  0  0  0
  -32.0280  -25.3928   23.0722 C   0  0  0  0  0  0  0  0  0  0  0  0
  -32.3106  -23.9166   22.9767 C   0  0  0  0  0  0  0  0  0  0  0  0
  -25.0292  -29.6224   20.4693 C   0  0  0  0  0  0  0  0  0  0  0  0
  -23.9550  -26.5748   20.1860 C   0  0  0  0  0  0  0  0  0  0  0  0
  -24.6695  -23.2377   20.2029 C   0  0  0  0  0  0  0  0  0  0  0  0
  -29.4907  -17.2568   20.4616 C   0  0  0  0  0  0  0  0  0  0  0  0
  -23.3623  -34.2994   19.2841 C   0  0  0  0  0  0  0  0  0  0  0  0
  -26.6211  -28.6851   18.7537 C   0  0  0  0  0  0  0  0  0  0  0  0
  -26.3022  -26.8670   21.0640 C   0  0  0  0  0  0  0  0  0  0  0  0
  -22.7110  -32.9524   19.5865 C   0  0  0  0  0  0  0  0  0  0  0  0
  -29.6666  -14.1433   18.7434 C   0  0  0  0  0  0  0  0  0  0  0  0
  -23.2983  -32.3491   20.8585 C   0  0  0  0  0  0  0  0  0  0  0  0
  -28.4295  -13.3879   19.2344 C   0  0  0  0  0  0  0  0  0  0  0  0
  -30.2942  -14.9856   19.8526 C   0  0  0  0  0  0  0  0  0  0  0  0
  -28.1337  -15.1459   21.0257 C   0  0  0  0  0  0  0  0  0  0  0  0
  -24.8015  -32.0891   20.7028 C   0  0  1  0  0  0  0  0  0  0  0  0
  -25.2850  -28.5272   19.4729 C   0  0  1  0  0  0  0  0  0  0  0  0
  -27.4291  -14.3343   19.9264 C   0  0  2  0  0  0  0  0  0  0  0  0
  -32.3896  -26.1733   24.3011 C   0  0  0  0  0  0  0  0  0  0  0  0
  -23.5788  -20.9885   19.9821 C   0  0  0  0  0  0  0  0  0  0  0  0
  -22.8630  -26.8286   23.0238 C   0  0  0  0  0  0  0  0  0  0  0  0
  -22.6530  -24.3347   23.0914 C   0  0  0  0  0  0  0  0  0  0  0  0
  -21.3451  -25.6499   21.4234 C   0  0  0  0  0  0  0  0  0  0  0  0
  -26.2735  -22.5659   17.8081 C   0  0  0  0  0  0  0  0  0  0  0  0
  -23.8411  -25.3906   21.1155 C   0  0  1  0  0  0  0  0  0  0  0  0
  -24.2837  -22.1201   19.2506 C   0  0  2  0  0  0  0  0  0  0  0  0
  -22.7006  -25.5632   22.1581 C   0  0  0  0  0  0  0  0  0  0  0  0
  -26.3788  -12.3224   20.8910 N   0  0  0  0  0  0  0  0  0  0  0  0
  -26.2217  -13.5849   20.4580 N   0  0  0  0  0  0  0  0  0  0  0  0
  -25.1791  -27.2585   20.1964 N   0  0  0  0  0  0  0  0  0  0  0  0
  -29.2885  -15.8604   20.4593 N   0  0  0  0  0  0  0  0  0  0  0  0
  -24.6089  -15.2952   20.1677 N   0  0  0  0  0  0  0  0  0  0  0  0
  -22.2153  -11.8941   21.9282 N   0  0  0  0  0  0  0  0  0  0  0  0
  -28.4523  -17.9888   21.0365 N   0  0  0  0  0  0  0  0  0  0  0  0
  -31.1816  -23.1197   22.7935 N   0  0  0  0  0  0  0  0  0  0  0  0
  -25.0292  -30.8915   19.9227 N   0  0  0  0  0  0  0  0  0  0  0  0
  -23.6988  -24.2150   20.2633 N   0  0  0  0  0  0  0  0  0  0  0  0
  -25.4960  -21.5658   18.5843 N   0  3  0  0  0  0  0  0  0  0  0  0
  -32.2222  -21.0342   22.7152 O   0  0  0  0  0  0  0  0  0  0  0  0
  -22.0940  -14.0448   21.1418 O   0  0  0  0  0  0  0  0  0  0  0  0
  -33.4574  -23.4775   23.0534 O   0  0  0  0  0  0  0  0  0  0  0  0
  -24.8440  -29.3370   21.6466 O   0  0  0  0  0  0  0  0  0  0  0  0
  -22.9959  -26.8774   19.4718 O   0  0  0  0  0  0  0  0  0  0  0  0
  -25.7247  -23.2413   20.8330 O   0  0  0  0  0  0  0  0  0  0  0  0
  -30.4974  -17.7676   19.9639 O   0  0  0  0  0  0  0  0  0  0  0  0
  -24.1794   -6.8831   23.3660 O   0  0  0  0  0  0  0  0  0  0  0  0
  -31.1026  -27.2727   21.9180 O   0  0  0  0  0  0  0  0  0  1  0  0
  -19.7274   -4.1755   21.5624 F   0  0  0  0  0  0  0  0  0  0  0  0
  -26.2060  -19.2494   22.1010 F   0  0  0  0  0  0  0  0  0  0  0  0
  -24.4232   -4.4392   22.0969 F   0  0  0  0  0  0  0  0  0  0  0  0
  1  2  1  0  0  0  0
  1  6  2  0  0  0  0
  2  7  2  0  0  0  0
  3  9  2  0  0  0  0
  3 18  1  0  0  0  0
  4 10  1  0  0  0  0
  4 18  2  0  0  0  0
  5 13  2  0  0  0  0
  5 19  1  0  0  0  0
  6 21  1  0  0  0  0
  7 23  1  0  0  0  0
  8 11  2  0  0  0  0
  8 22  1  0  0  0  0
  9 26  1  0  0  0  0
 10 26  2  0  0  0  0
 11 27  1  0  0  0  0
 12 14  2  0  0  0  0
 12 28  1  0  0  0  0
 13 30  1  0  0  0  0
 14 29  1  0  0  0  0
 15 19  2  0  0  0  0
 15 25  1  0  0  0  0
 16 24  1  0  0  0  0
 16 27  2  0  0  0  0
 17 29  2  0  0  0  0
 17 31  1  0  0  0  0
 18 32  1  0  0  0  0
 19 35  1  0  0  0  0
 20 32  1  0  0  0  0
 20 33  2  0  0  0  0
 20 36  1  0  0  0  0
 21 23  2  0  0  0  0
 21 43  1  0  0  0  0
 22 24  2  0  0  0  0
 22 44  1  0  0  0  0
 23 52  1  0  0  0  0
 24 45  1  0  0  0  0
 25 30  2  0  0  0  0
 25 70  1  0  0  0  0
 26 82  1  0  0  0  0
 27 83  1  0  0  0  0
 28 31  2  0  0  0  0
 28 82  1  0  0  0  0
 29 84  1  0  0  0  0
 30 85  1  0  0  0  0
 31 86  1  0  0  0  0
 32 64  2  0  0  0  0
 33 65  1  0  0  0  0
 33 68  1  0  0  0  0
 34 37  2  0  0  0  0
 34 83  1  0  0  0  0
 35 71  1  0  0  0  0
 35 75  2  0  0  0  0
 36 69  1  0  0  0  0
 36 76  2  0  0  0  0
 37 38  1  0  0  0  0
 37 55  1  0  0  0  0
 38 71  1  0  0  0  0
 38 77  2  0  0  0  0
 39 53  1  0  0  0  0
 39 72  1  0  0  0  0
 39 78  2  0  0  0  0
 40 61  1  0  0  0  0
 40 66  1  0  0  0  0
 40 79  2  0  0  0  0
 41 62  1  0  0  0  0
 41 73  1  0  0  0  0
 41 80  2  0  0  0  0
 42 67  1  0  0  0  0
 42 70  1  0  0  0  0
 42 81  2  0  0  0  0
 43 46  1  0  0  0  0
 44 53  1  0  0  0  0
 45 66  1  0  0  0  0
 46 48  1  0  0  0  0
 47 49  1  0  0  0  0
 47 50  1  0  0  0  0
 48 52  1  0  0  0  0
 49 54  1  0  0  0  0
 50 67  1  0  0  0  0
 51 54  1  0  0  0  0
 51 67  1  0  0  0  0
 52 72  1  0  0  0  0
 53 66  1  0  0  0  0
 54 65  1  0  0  0  0
 56 62  1  0  0  0  0
 57 63  1  0  0  0  0
 58 63  1  0  0  0  0
 59 63  1  0  0  0  0
 60 74  1  0  0  0  0
 61 63  1  0  0  0  0
 61 73  1  0  0  0  0
 62 74  1  0  0  0  0
 64 65  1  0  0  0  0
M  CHG  1  74   1
M  ISO  4  34 101  42 100  70 100  83 101
M  END
> <Batch ID>
0076

> <Smiles>
CNC(C)C(=O)NC(C(=O)N1Cc2cc([101O:1][101CH:1]=C(C)C(=O)NC(=O)c3ccc(F)c([100NH:0][100C:0](=O)N4CCCC(n5nc(-c6ccc(Oc7ccc(F)cc7F)cc6)c(C(N)=O)c5N)C4)c3)ccc2CC1C(=O)NC1CCCc2ccccc21)C(C)(C)C

> <Shape>
0.222

> <Color>
0.099

> <Negative vol penalty>
0.000

$$$$

  -OEChem-04042323503D

 88 97  0     1  0  0  0  0  0999 V2000
  -27.6667  -36.8831   21.1468 C   0  0  0  0  0  0  0  0  0  0  0  0
  -27.7082  -35.4937   21.0894 C   0  0  0  0  0  0  0  0  0  0  0  0
  -24.4695   -9.2374   22.2430 C   0  0  0  0  0  0  0  0  0  0  0  0
  -23.6274   -9.6674   20.0197 C   0  0  0  0  0  0  0  0  0  0  0  0
  -27.6019  -21.1272   18.3562 C   0  0  0  0  0  0  0  0  0  0  0  0
  -26.7858  -37.5175   22.0218 C   0  0  0  0  0  0  0  0  0  0  0  0
  -26.8696  -34.7379   21.9079 C   0  0  0  0  0  0  0  0  0  0  0  0
  -24.6567  -30.9197   19.4241 C   0  0  0  0  0  0  0  0  0  0  0  0
  -27.6273  -22.4884   18.6598 C   0  0  0  0  0  0  0  0  0  0  0  0
  -23.3560   -8.4412   22.5109 C   0  0  0  0  0  0  0  0  0  0  0  0
  -22.5138   -8.8711   20.2876 C   0  0  0  0  0  0  0  0  0  0  0  0
  -25.4299  -29.7853   19.1808 C   0  0  0  0  0  0  0  0  0  0  0  0
  -22.3124   -5.3018   21.8121 C   0  0  0  0  0  0  0  0  0  0  0  0
  -22.5284   -4.0754   22.4405 C   0  0  0  0  0  0  0  0  0  0  0  0
  -30.0172  -21.0760   18.3834 C   0  0  0  0  0  0  0  0  0  0  0  0
  -24.3882  -28.6808   21.0555 C   0  0  0  0  0  0  0  0  0  0  0  0
  -21.1310   -4.7736   24.2836 C   0  0  0  0  0  0  0  0  0  0  0  0
  -24.6052   -9.8505   20.9975 C   0  0  0  0  0  0  0  0  0  0  0  0
  -28.7968  -20.4210   18.2180 C   0  0  0  0  0  0  0  0  0  0  0  0
  -26.9848  -10.2599   20.1743 C   0  0  0  0  0  0  0  0  0  0  0  0
  -25.9292  -36.7691   22.8444 C   0  0  0  0  0  0  0  0  0  0  0  0
  -23.7498  -30.9471   20.4933 C   0  0  0  0  0  0  0  0  0  0  0  0
  -25.9774  -35.3628   22.7957 C   0  0  0  0  0  0  0  0  0  0  0  0
  -23.6029  -29.8158   21.3086 C   0  0  0  0  0  0  0  0  0  0  0  0
  -28.8476  -23.1434   18.8251 C   0  0  0  0  0  0  0  0  0  0  0  0
  -22.3782   -8.2580   21.5331 C   0  0  0  0  0  0  0  0  0  0  0  0
  -25.2978  -28.6667   19.9984 C   0  0  0  0  0  0  0  0  0  0  0  0
  -21.5057   -6.2642   22.4195 C   0  0  0  0  0  0  0  0  0  0  0  0
  -21.9378   -3.8113   23.6762 C   0  0  0  0  0  0  0  0  0  0  0  0
  -30.0426  -22.4372   18.6870 C   0  0  0  0  0  0  0  0  0  0  0  0
  -20.9150   -6.0000   23.6552 C   0  0  0  0  0  0  0  0  0  0  0  0
  -25.7549  -10.6736   20.7204 C   0  0  0  0  0  0  0  0  0  0  0  0
  -27.7358  -11.4081   20.1110 C   0  0  0  0  0  0  0  0  0  0  0  0
  -28.2462  -26.6654   19.6005 C   0  0  0  0  0  0  0  0  0  0  0  0
  -29.6873  -26.6482   19.6203 C   0  0  0  0  0  0  0  0  0  0  0  0
  -27.7275  -25.3043   19.2890 C   0  0  0  0  0  0  0  0  0  0  0  0
  -30.5266  -27.6613   19.8602 C   0  0  0  0  0  0  0  0  0  0  0  0
  -27.4118  -27.6829   19.8137 C   0  0  0  0  0  0  0  0  0  1  0  0
  -28.7708  -18.9787   17.8965 C   0  0  0  0  0  0  0  0  0  0  0  0
  -27.4102   -8.9546   19.7612 C   0  0  0  0  0  0  0  0  0  0  0  0
  -23.4451  -32.6932   23.1319 C   0  0  0  0  0  0  0  0  0  0  0  0
  -20.6709  -31.0401   23.4376 C   0  0  0  0  0  0  0  0  0  0  0  0
  -18.8707  -28.2382   22.6924 C   0  0  0  0  0  0  0  0  0  0  0  0
  -28.0230  -16.7190   18.6115 C   0  0  0  0  0  0  0  0  0  0  0  0
  -25.0276  -37.4990   23.8083 C   0  0  0  0  0  0  0  0  0  0  0  0
  -22.9039  -32.1688   20.7260 C   0  0  0  0  0  0  0  0  0  0  0  0
  -22.6289  -29.7871   22.4571 C   0  0  0  0  0  0  0  0  0  0  0  0
  -30.1141  -25.2443   19.3141 C   0  0  0  0  0  0  0  0  0  0  0  0
  -23.9069  -36.6290   24.3719 C   0  0  0  0  0  0  0  0  0  0  0  0
  -26.9788  -15.9738   22.0918 C   0  0  0  0  0  0  0  0  0  0  0  0
  -24.4553  -35.2800   24.8259 C   0  0  0  0  0  0  0  0  0  0  0  0
  -26.5958  -14.5034   21.9660 C   0  0  0  0  0  0  0  0  0  0  0  0
  -26.7150  -16.7518   20.8033 C   0  0  0  0  0  0  0  0  0  0  0  0
  -26.9804  -14.6658   19.4788 C   0  0  0  0  0  0  0  0  0  0  0  0
  -25.0659  -34.5085   23.6497 C   0  0  1  0  0  0  0  0  0  0  0  0
  -22.3830  -32.2714   22.1562 C   0  0  1  0  0  0  0  0  0  0  0  0
  -27.2934  -13.8697   20.7539 C   0  0  2  0  0  0  0  0  0  0  0  0
  -16.6475  -27.1543   23.1168 C   0  0  0  0  0  0  0  0  0  0  0  0
  -21.5850  -30.2698   26.2449 C   0  0  0  0  0  0  0  0  0  0  0  0
  -19.8414  -28.4732   26.2443 C   0  0  0  0  0  0  0  0  0  0  0  0
  -19.1632  -30.8669   26.0635 C   0  0  0  0  0  0  0  0  0  0  0  0
  -18.1850  -28.2496   19.8134 C   0  0  0  0  0  0  0  0  0  0  0  0
  -20.2678  -29.7391   24.0887 C   0  0  1  0  0  0  0  0  0  0  0  0
  -17.4487  -28.0578   22.1924 C   0  0  2  0  0  0  0  0  0  0  0  0
  -20.2342  -29.8382   25.6400 C   0  0  0  0  0  0  0  0  0  0  0  0
  -25.7225  -11.9823   20.9853 N   0  0  0  0  0  0  0  0  0  0  0  0
  -26.9413  -12.4010   20.6041 N   0  0  0  0  0  0  0  0  0  0  0  0
  -28.8694  -24.5011   19.1281 N   0  0  0  0  0  0  0  0  0  0  0  0
  -21.8289  -31.0082   22.6479 N   0  0  0  0  0  0  0  0  0  0  0  0
  -27.2992  -16.0898   19.6287 N   0  0  0  0  0  0  0  0  0  0  0  0
  -28.9918  -11.6552   19.6822 N   0  0  0  0  0  0  0  0  0  0  0  0
  -26.5132   -7.8860   19.8951 N   0  0  0  0  0  0  0  0  0  0  0  0
  -28.1514  -18.1533   18.7545 N   0  0  0  0  0  0  0  0  0  0  0  0
  -24.0242  -33.9134   22.8403 N   0  0  0  0  0  0  0  0  0  0  0  0
  -18.9946  -29.3585   23.4866 N   0  0  0  0  0  0  0  0  0  0  0  0
  -29.3714  -18.5864   16.7733 N   0  3  0  0  0  0  0  0  0  0  0  0
  -17.4513  -27.4531   20.8304 N   0  3  0  0  0  0  0  0  0  0  0  0
  -26.5530  -24.9880   19.1998 O   0  0  0  0  0  0  0  0  0  0  0  0
  -28.5577   -8.7391   19.3026 O   0  0  0  0  0  0  0  0  0  0  0  0
  -23.7178  -31.9661   24.0798 O   0  0  0  0  0  0  0  0  0  0  0  0
  -19.9795  -32.0458   23.6172 O   0  0  0  0  0  0  0  0  0  0  0  0
  -19.7797  -27.4607   22.4100 O   0  0  0  0  0  0  0  0  0  0  0  0
  -28.5090  -16.1627   17.6327 O   0  0  0  0  0  0  0  0  0  0  0  0
  -21.2916   -7.4810   21.7941 O   0  0  0  0  0  0  0  0  0  0  0  0
  -26.0517  -27.5584   19.7636 O   0  0  0  0  0  0  0  0  0  1  0  0
  -22.1440   -2.6329   24.2788 F   0  0  0  0  0  0  0  0  0  0  0  0
  -31.2213  -23.0569   18.8424 F   0  0  0  0  0  0  0  0  0  0  0  0
  -20.1381   -6.9202   24.2431 F   0  0  0  0  0  0  0  0  0  0  0  0
  1  2  1  0  0  0  0
  1  6  2  0  0  0  0
  2  7  2  0  0  0  0
  3 10  2  0  0  0  0
  3 18  1  0  0  0  0
  4 11  1  0  0  0  0
  4 18  2  0  0  0  0
  5  9  2  0  0  0  0
  5 19  1  0  0  0  0
  6 21  1  0  0  0  0
  7 23  1  0  0  0  0
  8 12  2  0  0  0  0
  8 22  1  0  0  0  0
  9 25  1  0  0  0  0
 10 26  1  0  0  0  0
 11 26  2  0  0  0  0
 12 27  1  0  0  0  0
 13 14  2  0  0  0  0
 13 28  1  0  0  0  0
 14 29  1  0  0  0  0
 15 19  2  0  0  0  0
 15 30  1  0  0  0  0
 16 24  1  0  0  0  0
 16 27  2  0  0  0  0
 17 29  2  0  0  0  0
 17 31  1  0  0  0  0
 18 32  1  0  0  0  0
 19 39  1  0  0  0  0
 20 32  1  0  0  0  0
 20 33  2  0  0  0  0
 20 40  1  0  0  0  0
 21 23  2  0  0  0  0
 21 45  1  0  0  0  0
 22 24  2  0  0  0  0
 22 46  1  0  0  0  0
 23 55  1  0  0  0  0
 24 47  1  0  0  0  0
 25 30  2  0  0  0  0
 25 68  1  0  0  0  0
 26 84  1  0  0  0  0
 27 85  1  0  0  0  0
 28 31  2  0  0  0  0
 28 84  1  0  0  0  0
 29 86  1  0  0  0  0
 30 87  1  0  0  0  0
 31 88  1  0  0  0  0
 32 66  2  0  0  0  0
 33 67  1  0  0  0  0
 33 71  1  0  0  0  0
 34 35  1  0  0  0  0
 34 36  1  0  0  0  0
 34 38  2  0  0  0  0
 35 37  2  0  0  0  0
 35 48  1  0  0  0  0
 36 68  1  0  0  0  0
 36 78  2  0  0  0  0
 38 85  1  0  0  0  0
 39 73  1  0  0  0  0
 39 76  2  0  0  0  0
 40 72  1  0  0  0  0
 40 79  2  0  0  0  0
 41 56  1  0  0  0  0
 41 74  1  0  0  0  0
 41 80  2  0  0  0  0
 42 63  1  0  0  0  0
 42 69  1  0  0  0  0
 42 81  2  0  0  0  0
 43 64  1  0  0  0  0
 43 75  1  0  0  0  0
 43 82  2  0  0  0  0
 44 70  1  0  0  0  0
 44 73  1  0  0  0  0
 44 83  2  0  0  0  0
 45 49  1  0  0  0  0
 46 56  1  0  0  0  0
 47 69  1  0  0  0  0
 48 68  1  0  0  0  0
 49 51  1  0  0  0  0
 50 52  1  0  0  0  0
 50 53  1  0  0  0  0
 51 55  1  0  0  0  0
 52 57  1  0  0  0  0
 53 70  1  0  0  0  0
 54 57  1  0  0  0  0
 54 70  1  0  0  0  0
 55 74  1  0  0  0  0
 56 69  1  0  0  0  0
 57 67  1  0  0  0  0
 58 64  1  0  0  0  0
 59 65  1  0  0  0  0
 60 65  1  0  0  0  0
 61 65  1  0  0  0  0
 62 77  1  0  0  0  0
 63 65  1  0  0  0  0
 63 75  1  0  0  0  0
 64 77  1  0  0  0  0
 66 67  1  0  0  0  0
M  CHG  2  76   1  77   1
M  ISO  4  38 101  44 100  73 100  85 101
M  END
> <Batch ID>
0076

> <Smiles>
C=C1CN(c2ccc(C(=N)[100NH:0][100C:0](=O)N3CCCC(n4nc(-c5ccc(Oc6ccc(F)cc6F)cc5)c(C(N)=O)c4N)C3)cc2F)C(=O)C1=[101CH:1][101O:1]c1ccc2c(c1)CN(C(=O)C(NC(=O)C(C)NC)C(C)(C)C)C(C(=O)NC1CCCc3ccccc31)C2

> <Shape>
0.347

> <Color>
0.081

> <Negative vol penalty>
0.000

$$$$

  -OEChem-04042323503D

 88 96  0     1  0  0  0  0  0999 V2000
  -18.1144  -30.8989   23.1128 C   0  0  0  0  0  0  0  0  0  0  0  0
  -19.5029  -30.9697   23.1629 C   0  0  0  0  0  0  0  0  0  0  0  0
  -24.0880   -9.6893   20.8155 C   0  0  0  0  0  0  0  0  0  0  0  0
  -24.7204  -10.4279   23.0272 C   0  0  0  0  0  0  0  0  0  0  0  0
  -30.8069  -20.4082   22.2699 C   0  0  0  0  0  0  0  0  0  0  0  0
  -17.4881  -29.6765   22.8735 C   0  0  0  0  0  0  0  0  0  0  0  0
  -20.2659  -29.8177   22.9749 C   0  0  0  0  0  0  0  0  0  0  0  0
  -25.7278  -29.4263   20.2327 C   0  0  0  0  0  0  0  0  0  0  0  0
  -30.5431  -19.2128   21.6014 C   0  0  0  0  0  0  0  0  0  0  0  0
  -23.7133   -8.4508   21.3363 C   0  0  0  0  0  0  0  0  0  0  0  0
  -24.3456   -9.1893   23.5480 C   0  0  0  0  0  0  0  0  0  0  0  0
  -27.0276  -29.3737   20.7343 C   0  0  0  0  0  0  0  0  0  0  0  0
  -21.4820   -7.6134   24.4062 C   0  0  0  0  0  0  0  0  0  0  0  0
  -20.7261   -7.6068   25.5784 C   0  0  0  0  0  0  0  0  0  0  0  0
  -28.4489  -20.6754   22.7229 C   0  0  0  0  0  0  0  0  0  0  0  0
  -26.9821  -26.9666   20.5828 C   0  0  0  0  0  0  0  0  0  0  0  0
  -22.4595   -6.3424   26.6891 C   0  0  0  0  0  0  0  0  0  0  0  0
  -24.5917  -10.6779   21.6610 C   0  0  0  0  0  0  0  0  0  0  0  0
  -29.7599  -21.1395   22.8307 C   0  0  0  0  0  0  0  0  0  0  0  0
  -24.1682  -13.0981   20.9749 C   0  0  0  0  0  0  0  0  0  0  0  0
  -18.2440  -28.5107   22.6729 C   0  0  0  0  0  0  0  0  0  0  0  0
  -25.0403  -28.2469   19.9121 C   0  0  0  0  0  0  0  0  0  0  0  0
  -19.6490  -28.5783   22.7341 C   0  0  0  0  0  0  0  0  0  0  0  0
  -25.6747  -27.0071   20.0749 C   0  0  0  0  0  0  0  0  0  0  0  0
  -29.2321  -18.7487   21.4936 C   0  0  0  0  0  0  0  0  0  0  0  0
  -23.8420   -8.2008   22.7025 C   0  0  0  0  0  0  0  0  0  0  0  0
  -27.6539  -28.1436   20.9121 C   0  0  0  0  0  0  0  0  0  0  0  0
  -22.7266   -6.9844   24.3753 C   0  0  0  0  0  0  0  0  0  0  0  0
  -21.2149   -6.9714   26.7199 C   0  0  0  0  0  0  0  0  0  0  0  0
  -28.1850  -19.4800   22.0544 C   0  0  0  0  0  0  0  0  0  0  0  0
  -23.2154   -6.3489   25.5168 C   0  0  0  0  0  0  0  0  0  0  0  0
  -24.9795  -11.9573   21.1236 C   0  0  0  0  0  0  0  0  0  0  0  0
  -25.0001  -14.0414   20.4229 C   0  0  0  0  0  0  0  0  0  0  0  0
  -30.0384  -22.4056   23.5390 C   0  0  0  0  0  0  0  0  0  0  0  0
  -22.7863  -13.2882   21.3061 C   0  0  0  0  0  0  0  0  0  0  0  0
  -22.3834  -26.8460   20.9521 C   0  0  0  0  0  0  0  0  0  0  0  0
  -30.9103  -26.9037   22.1157 C   0  0  0  0  0  0  0  0  0  0  0  0
  -22.9766  -24.7912   18.5133 C   0  0  0  0  0  0  0  0  0  0  0  0
  -30.9751  -24.7010   23.3672 C   0  0  0  0  0  0  0  0  0  0  0  0
  -25.2544  -23.3977   16.3880 C   0  0  0  0  0  0  0  0  0  0  0  0
  -29.8933  -16.6892   20.2022 C   0  0  0  0  0  0  0  0  0  0  0  0
  -17.5210  -27.2036   22.4644 C   0  0  0  0  0  0  0  0  0  0  0  0
  -23.6484  -28.3221   19.3469 C   0  0  0  0  0  0  0  0  0  0  0  0
  -24.9874  -25.7129   19.7268 C   0  0  0  0  0  0  0  0  0  0  0  0
  -18.4113  -26.0978   21.9033 C   0  0  0  0  0  0  0  0  0  0  0  0
  -29.6446  -13.5936   18.4608 C   0  0  0  0  0  0  0  0  0  0  0  0
  -19.7343  -26.0419   22.6604 C   0  0  0  0  0  0  0  0  0  0  0  0
  -28.3420  -12.9858   18.9861 C   0  0  0  0  0  0  0  0  0  0  0  0
  -30.4017  -14.3446   19.5547 C   0  0  0  0  0  0  0  0  0  0  0  0
  -28.3126  -14.7491   20.7963 C   0  0  0  0  0  0  0  0  0  0  0  0
  -20.5117  -27.3552   22.5105 C   0  0  1  0  0  0  0  0  0  0  0  0
  -22.8556  -27.0328   19.5380 C   0  0  1  0  0  0  0  0  0  0  0  0
  -27.4830  -14.0376   19.7150 C   0  0  2  0  0  0  0  0  0  0  0  0
  -25.4473  -21.7211   14.5308 C   0  0  0  0  0  0  0  0  0  0  0  0
  -22.7914  -22.5226   20.5453 C   0  0  0  0  0  0  0  0  0  0  0  0
  -23.9066  -21.0283   18.8745 C   0  0  0  0  0  0  0  0  0  0  0  0
  -21.6917  -22.0488   18.3497 C   0  0  0  0  0  0  0  0  0  0  0  0
  -26.1962  -25.4510   14.4759 C   0  0  0  0  0  0  0  0  0  0  0  0
  -29.5032  -26.7955   21.5590 C   0  0  0  0  0  0  0  0  0  1  0  0
  -31.6394  -25.5922   22.3492 C   0  0  2  0  0  0  0  0  0  0  0  0
  -23.7567  -23.5075   18.3626 C   0  0  1  0  0  0  0  0  0  0  0  0
  -25.2307  -23.1840   14.8852 C   0  0  2  0  0  0  0  0  0  0  0  0
  -23.0491  -22.3009   19.0415 C   0  0  0  0  0  0  0  0  0  0  0  0
  -26.2307  -12.1555   20.7002 N   0  0  0  0  0  0  0  0  0  0  0  0
  -26.2118  -13.4319   20.2799 N   0  0  0  0  0  0  0  0  0  0  0  0
  -23.6248  -25.8383   19.1834 N   0  0  0  0  0  0  0  0  0  0  0  0
  -29.5263  -15.3268   20.1979 N   0  0  0  0  0  0  0  0  0  0  0  0
  -24.8060  -15.3244   20.0508 N   0  0  0  0  0  0  0  0  0  0  0  0
  -22.0796  -12.2149   21.8657 N   0  0  0  0  0  0  0  0  0  0  0  0
  -28.9676  -17.5338   20.8139 N   0  0  0  0  0  0  0  0  0  0  0  0
  -30.6242  -23.3967   22.8532 N   0  0  0  0  0  0  0  0  0  0  0  0
  -21.1531  -27.4178   21.2146 N   0  0  0  0  0  0  0  0  0  0  0  0
  -23.9891  -23.3365   16.9325 N   0  0  0  0  0  0  0  0  0  0  0  0
  -29.6925  -22.4873   24.8234 N   0  3  0  0  0  0  0  0  0  0  0  0
  -33.0426  -25.8560   22.7835 N   0  3  0  0  0  0  0  0  0  0  0  0
  -26.3001  -23.9895   14.2306 N   0  3  0  0  0  0  0  0  0  0  0  0
  -22.1912  -14.3723   21.0963 O   0  0  0  0  0  0  0  0  0  0  0  0
  -23.0827  -26.2276   21.7459 O   0  0  0  0  0  0  0  0  0  0  0  0
  -31.4235  -27.9933   22.3693 O   0  0  0  0  0  0  0  0  0  0  0  0
  -21.8369  -24.8645   18.0470 O   0  0  0  0  0  0  0  0  0  0  0  0
  -30.7513  -25.0132   24.5285 O   0  0  0  0  0  0  0  0  0  0  0  0
  -26.2920  -23.5952   17.0164 O   0  0  0  0  0  0  0  0  0  0  0  0
  -30.9380  -17.0815   19.6760 O   0  0  0  0  0  0  0  0  0  0  0  0
  -23.4762   -6.9924   23.2110 O   0  0  0  0  0  0  0  0  0  0  0  0
  -28.9223  -28.0894   21.4021 O   0  0  0  0  0  0  0  0  0  1  0  0
  -20.4896   -6.9665   27.8460 F   0  0  0  0  0  0  0  0  0  0  0  0
  -26.9210  -19.0441   21.9557 F   0  0  0  0  0  0  0  0  0  0  0  0
  -24.4109   -5.7439   25.4936 F   0  0  0  0  0  0  0  0  0  0  0  0
  1  2  1  0  0  0  0
  1  6  2  0  0  0  0
  2  7  2  0  0  0  0
  3 10  2  0  0  0  0
  3 18  1  0  0  0  0
  4 11  1  0  0  0  0
  4 18  2  0  0  0  0
  5  9  2  0  0  0  0
  5 19  1  0  0  0  0
  6 21  1  0  0  0  0
  7 23  1  0  0  0  0
  8 12  2  0  0  0  0
  8 22  1  0  0  0  0
  9 25  1  0  0  0  0
 10 26  1  0  0  0  0
 11 26  2  0  0  0  0
 12 27  1  0  0  0  0
 13 14  2  0  0  0  0
 13 28  1  0  0  0  0
 14 29  1  0  0  0  0
 15 19  2  0  0  0  0
 15 30  1  0  0  0  0
 16 24  1  0  0  0  0
 16 27  2  0  0  0  0
 17 29  2  0  0  0  0
 17 31  1  0  0  0  0
 18 32  1  0  0  0  0
 19 34  1  0  0  0  0
 20 32  1  0  0  0  0
 20 33  2  0  0  0  0
 20 35  1  0  0  0  0
 21 23  2  0  0  0  0
 21 42  1  0  0  0  0
 22 24  2  0  0  0  0
 22 43  1  0  0  0  0
 23 51  1  0  0  0  0
 24 44  1  0  0  0  0
 25 30  2  0  0  0  0
 25 70  1  0  0  0  0
 26 84  1  0  0  0  0
 27 85  1  0  0  0  0
 28 31  2  0  0  0  0
 28 84  1  0  0  0  0
 29 86  1  0  0  0  0
 30 87  1  0  0  0  0
 31 88  1  0  0  0  0
 32 64  2  0  0  0  0
 33 65  1  0  0  0  0
 33 68  1  0  0  0  0
 34 71  1  0  0  0  0
 34 74  2  0  0  0  0
 35 69  1  0  0  0  0
 35 77  2  0  0  0  0
 36 52  1  0  0  0  0
 36 72  1  0  0  0  0
 36 78  2  0  0  0  0
 37 59  1  0  0  0  0
 37 60  1  0  0  0  0
 37 79  2  0  0  0  0
 38 61  1  0  0  0  0
 38 66  1  0  0  0  0
 38 80  2  0  0  0  0
 39 60  1  0  0  0  0
 39 71  1  0  0  0  0
 39 81  2  0  0  0  0
 40 62  1  0  0  0  0
 40 73  1  0  0  0  0
 40 82  2  0  0  0  0
 41 67  1  0  0  0  0
 41 70  1  0  0  0  0
 41 83  2  0  0  0  0
 42 45  1  0  0  0  0
 43 52  1  0  0  0  0
 44 66  1  0  0  0  0
 45 47  1  0  0  0  0
 46 48  1  0  0  0  0
 46 49  1  0  0  0  0
 47 51  1  0  0  0  0
 48 53  1  0  0  0  0
 49 67  1  0  0  0  0
 50 53  1  0  0  0  0
 50 67  1  0  0  0  0
 51 72  1  0  0  0  0
 52 66  1  0  0  0  0
 53 65  1  0  0  0  0
 54 62  1  0  0  0  0
 55 63  1  0  0  0  0
 56 63  1  0  0  0  0
 57 63  1  0  0  0  0
 58 76  1  0  0  0  0
 59 85  1  0  0  0  0
 60 75  1  0  0  0  0
 61 63  1  0  0  0  0
 61 73  1  0  0  0  0
 62 76  1  0  0  0  0
 64 65  1  0  0  0  0
M  CHG  3  74   1  75   1  76   1
M  ISO  4  41 100  59 101  70 100  85 101
M  END
> <Batch ID>
0076

> <Smiles>
CNC(C)C(=O)NC(C(=O)N1Cc2cc([101O:1][101CH2:1]C(=O)C(N)C(=O)NC(=N)c3ccc([100NH:0][100C:0](=O)N4CCCC(n5nc(-c6ccc(Oc7ccc(F)cc7F)cc6)c(C(N)=O)c5N)C4)c(F)c3)ccc2CC1C(=O)NC1CCCc2ccccc21)C(C)(C)C

> <Shape>
0.266

> <Color>
0.127

> <Negative vol penalty>
0.000

$$$$

  -OEChem-04042323503D

 90100  0     1  0  0  0  0  0999 V2000
  -27.1967  -30.3742   23.1468 C   0  0  0  0  0  0  0  0  0  0  0  0
  -26.7048  -29.2456   23.7946 C   0  0  0  0  0  0  0  0  0  0  0  0
  -18.3382  -12.1386   22.3233 C   0  0  0  0  0  0  0  0  0  0  0  0
  -28.3948  -13.3310   19.1430 C   0  0  0  0  0  0  0  0  0  0  0  0
  -28.6462  -11.7444   20.9476 C   0  0  0  0  0  0  0  0  0  0  0  0
  -27.1128  -30.4717   21.7585 C   0  0  0  0  0  0  0  0  0  0  0  0
  -26.1278  -28.2142   23.0546 C   0  0  0  0  0  0  0  0  0  0  0  0
  -25.3637  -21.0915   23.0575 C   0  0  0  0  0  0  0  0  0  0  0  0
  -18.6666  -13.4858   22.1728 C   0  0  0  0  0  0  0  0  0  0  0  0
  -19.2373  -11.2658   22.9362 C   0  0  0  0  0  0  0  0  0  0  0  0
  -29.7728  -13.3058   18.9288 C   0  0  0  0  0  0  0  0  0  0  0  0
  -30.0243  -11.7191   20.7334 C   0  0  0  0  0  0  0  0  0  0  0  0
  -24.3730  -20.1145   22.9701 C   0  0  0  0  0  0  0  0  0  0  0  0
  -32.5361  -14.6570   20.3298 C   0  0  0  0  0  0  0  0  0  0  0  0
  -33.1848  -15.8778   20.1440 C   0  0  0  0  0  0  0  0  0  0  0  0
  -24.3539  -20.3572   20.5701 C   0  0  0  0  0  0  0  0  0  0  0  0
  -20.7933  -13.0875   23.2479 C   0  0  0  0  0  0  0  0  0  0  0  0
  -33.9163  -15.1563   17.9573 C   0  0  0  0  0  0  0  0  0  0  0  0
  -27.8314  -12.5504   20.1525 C   0  0  0  0  0  0  0  0  0  0  0  0
  -25.6212  -13.6930   20.7155 C   0  0  0  0  0  0  0  0  0  0  0  0
  -26.5432  -29.4367   21.0002 C   0  0  0  0  0  0  0  0  0  0  0  0
  -25.8501  -21.7175   21.9008 C   0  0  0  0  0  0  0  0  0  0  0  0
  -26.0350  -28.2986   21.6549 C   0  0  0  0  0  0  0  0  0  0  0  0
  -25.3526  -21.3400   20.6453 C   0  0  0  0  0  0  0  0  0  0  0  0
  -19.8941  -13.9603   22.6351 C   0  0  0  0  0  0  0  0  0  0  0  0
  -20.4648  -11.7402   23.3984 C   0  0  0  0  0  0  0  0  0  0  0  0
  -30.5876  -12.4998   19.7239 C   0  0  0  0  0  0  0  0  0  0  0  0
  -23.8658  -19.7493   21.7265 C   0  0  0  0  0  0  0  0  0  0  0  0
  -32.5775  -13.6858   19.3293 C   0  0  0  0  0  0  0  0  0  0  0  0
  -33.8749  -16.1274   18.9578 C   0  0  0  0  0  0  0  0  0  0  0  0
  -33.2675  -13.9355   18.1431 C   0  0  0  0  0  0  0  0  0  0  0  0
  -26.4080  -12.5765   20.3747 C   0  0  0  0  0  0  0  0  0  0  0  0
  -24.3442  -13.1965   20.8119 C   0  0  0  0  0  0  0  0  0  0  0  0
  -23.1584  -10.4373   25.6144 C   0  0  0  0  0  0  0  0  0  0  0  0
  -22.2799  -11.2445   25.0042 C   0  0  0  0  0  0  0  0  0  0  0  0
  -21.3747  -15.9216   22.8800 C   0  0  0  0  0  0  0  0  0  0  0  0
  -21.3707  -17.2286   22.5845 C   0  0  0  0  0  0  0  0  0  0  0  0
  -20.1100  -17.5438   21.9299 C   0  0  0  0  0  0  0  0  0  0  0  0
  -22.5646   -8.7172   23.9625 C   0  0  0  0  0  0  0  0  0  0  0  0
  -19.7024  -18.7324   21.4739 C   0  0  0  0  0  0  0  0  0  0  0  0
  -26.0098  -15.0569   20.9262 C   0  0  0  0  0  0  0  0  0  0  0  0
  -25.8859  -24.7039   20.8127 C   0  0  0  0  0  0  0  0  0  0  0  0
  -27.7133  -23.4130   18.4640 C   0  0  0  0  0  0  0  0  0  0  0  0
  -28.6162  -20.6422   16.6880 C   0  0  0  0  0  0  0  0  0  0  0  0
  -22.3021   -7.6541   21.9480 C   0  0  0  0  0  0  0  0  0  0  0  0
  -26.4319  -29.6082   19.5059 C   0  0  0  0  0  0  0  0  0  0  0  0
  -26.9379  -22.7505   22.0099 C   0  0  0  0  0  0  0  0  0  0  0  0
  -25.8556  -21.9673   19.3717 C   0  0  0  0  0  0  0  0  0  0  0  0
  -23.2871   -8.9906   25.2649 C   0  0  0  0  0  0  0  0  0  0  0  0
  -19.3081  -16.2552   21.8483 C   0  0  0  0  0  0  0  0  0  0  0  0
  -21.2526   -9.4222   23.6894 C   0  0  0  0  0  0  0  0  0  0  0  0
  -26.1448  -28.3058   18.7631 C   0  0  0  0  0  0  0  0  0  0  0  0
  -21.5196   -9.7432   19.1070 C   0  0  0  0  0  0  0  0  0  0  0  0
  -25.0267  -27.5322   19.4545 C   0  0  0  0  0  0  0  0  0  0  0  0
  -22.6371  -10.7856   19.1236 C   0  0  0  0  0  0  0  0  0  0  0  0
  -22.0182   -8.3810   19.5790 C   0  0  0  0  0  0  0  0  0  0  0  0
  -23.7856   -9.4544   20.9487 C   0  0  0  0  0  0  0  0  0  0  0  0
  -25.4244  -27.1478   20.8847 C   0  0  1  0  0  0  0  0  0  0  0  0
  -26.9936  -23.6888   20.8083 C   0  0  1  0  0  0  0  0  0  0  0  0
  -23.3125  -10.8494   20.5050 C   0  0  1  0  0  0  0  0  0  0  0  0
  -30.1053  -19.9070   14.8067 C   0  0  0  0  0  0  0  0  0  0  0  0
  -25.7744  -24.6403   16.4530 C   0  0  0  0  0  0  0  0  0  0  0  0
  -26.7307  -23.1202   14.7086 C   0  0  0  0  0  0  0  0  0  0  0  0
  -28.1867  -24.8156   15.8170 C   0  0  0  0  0  0  0  0  0  0  0  0
  -30.1215  -18.7977   18.4461 C   0  0  0  0  0  0  0  0  0  0  0  0
  -22.4488  -18.2123   22.8603 C   0  0  0  0  0  0  0  0  0  1  0  0
  -27.4385  -22.7825   17.1202 C   0  0  1  0  0  0  0  0  0  0  0  0
  -29.9778  -20.0866   16.3114 C   0  0  2  0  0  0  0  0  0  0  0  0
  -27.0215  -23.8290   16.0487 C   0  0  0  0  0  0  0  0  0  0  0  0
  -25.6909  -11.4553   20.2622 N   0  0  0  0  0  0  0  0  0  0  0  0
  -23.0120   -7.8536   23.1172 N   0  0  0  0  0  0  0  0  0  0  0  0
  -24.4401  -11.8647   20.5340 N   0  0  0  0  0  0  0  0  0  0  0  0
  -20.2172  -15.2854   22.4866 N   0  0  0  0  0  0  0  0  0  0  0  0
  -21.3801  -10.8511   24.0244 N   0  0  0  0  0  0  0  0  0  0  0  0
  -26.9153  -22.9768   19.5311 N   0  0  0  0  0  0  0  0  0  0  0  0
  -22.6849   -8.4841   20.8779 N   0  0  0  0  0  0  0  0  0  0  0  0
  -23.1599  -13.7736   21.1064 N   0  0  0  0  0  0  0  0  0  0  0  0
  -26.3732  -15.4559   22.2197 N   0  0  0  0  0  0  0  0  0  0  0  0
  -26.3230  -26.0135   20.8719 N   0  0  0  0  0  0  0  0  0  0  0  0
  -28.6326  -22.0182   16.7761 N   0  0  0  0  0  0  0  0  0  0  0  0
  -30.1958  -18.7640   16.9627 N   0  3  0  0  0  0  0  0  0  0  0  0
  -26.0185  -15.9008   19.9982 O   0  0  0  0  0  0  0  0  0  0  0  0
  -24.7208  -24.3271   20.7644 O   0  0  0  0  0  0  0  0  0  0  0  0
  -28.6081  -24.2562   18.5647 O   0  0  0  0  0  0  0  0  0  0  0  0
  -27.6352  -19.9274   16.8809 O   0  0  0  0  0  0  0  0  0  0  0  0
  -21.4006   -6.8212   21.8253 O   0  0  0  0  0  0  0  0  0  0  0  0
  -31.9323  -12.4747   19.5150 O   0  0  0  0  0  0  0  0  0  0  0  0
  -22.8983  -18.7964   21.6384 O   0  0  0  0  0  0  0  0  0  1  0  0
  -34.4965  -17.3003   18.7789 F   0  0  0  0  0  0  0  0  0  0  0  0
  -33.3098  -13.0068   17.1779 F   0  0  0  0  0  0  0  0  0  0  0  0
  1  2  1  0  0  0  0
  1  6  2  0  0  0  0
  2  7  2  0  0  0  0
  3  9  2  0  0  0  0
  3 10  1  0  0  0  0
  4 11  2  0  0  0  0
  4 19  1  0  0  0  0
  5 12  1  0  0  0  0
  5 19  2  0  0  0  0
  6 21  1  0  0  0  0
  7 23  1  0  0  0  0
  8 13  2  0  0  0  0
  8 22  1  0  0  0  0
  9 25  1  0  0  0  0
 10 26  2  0  0  0  0
 11 27  1  0  0  0  0
 12 27  2  0  0  0  0
 13 28  1  0  0  0  0
 14 15  2  0  0  0  0
 14 29  1  0  0  0  0
 15 30  1  0  0  0  0
 16 24  1  0  0  0  0
 16 28  2  0  0  0  0
 17 25  2  0  0  0  0
 17 26  1  0  0  0  0
 18 30  2  0  0  0  0
 18 31  1  0  0  0  0
 19 32  1  0  0  0  0
 20 32  1  0  0  0  0
 20 33  2  0  0  0  0
 20 41  1  0  0  0  0
 21 23  2  0  0  0  0
 21 46  1  0  0  0  0
 22 24  2  0  0  0  0
 22 47  1  0  0  0  0
 23 58  1  0  0  0  0
 24 48  1  0  0  0  0
 25 73  1  0  0  0  0
 26 74  1  0  0  0  0
 27 87  1  0  0  0  0
 28 88  1  0  0  0  0
 29 31  2  0  0  0  0
 29 87  1  0  0  0  0
 30 89  1  0  0  0  0
 31 90  1  0  0  0  0
 32 70  2  0  0  0  0
 33 72  1  0  0  0  0
 33 77  1  0  0  0  0
 34 35  2  0  0  0  0
 34 49  1  0  0  0  0
 35 74  1  0  0  0  0
 36 37  2  0  0  0  0
 36 73  1  0  0  0  0
 37 38  1  0  0  0  0
 37 66  1  0  0  0  0
 38 40  2  0  0  0  0
 38 50  1  0  0  0  0
 39 49  1  0  0  0  0
 39 51  1  0  0  0  0
 39 71  2  0  0  0  0
 41 78  1  0  0  0  0
 41 82  2  0  0  0  0
 42 59  1  0  0  0  0
 42 79  1  0  0  0  0
 42 83  2  0  0  0  0
 43 67  1  0  0  0  0
 43 75  1  0  0  0  0
 43 84  2  0  0  0  0
 44 68  1  0  0  0  0
 44 80  1  0  0  0  0
 44 85  2  0  0  0  0
 45 71  1  0  0  0  0
 45 76  1  0  0  0  0
 45 86  2  0  0  0  0
 46 52  1  0  0  0  0
 47 59  1  0  0  0  0
 48 75  1  0  0  0  0
 50 73  1  0  0  0  0
 51 74  1  0  0  0  0
 52 54  1  0  0  0  0
 53 55  1  0  0  0  0
 53 56  1  0  0  0  0
 54 58  1  0  0  0  0
 55 60  1  0  0  0  0
 56 76  1  0  0  0  0
 57 60  1  0  0  0  0
 57 76  1  0  0  0  0
 58 79  1  0  0  0  0
 59 75  1  0  0  0  0
 60 72  1  0  0  0  0
 61 68  1  0  0  0  0
 62 69  1  0  0  0  0
 63 69  1  0  0  0  0
 64 69  1  0  0  0  0
 65 81  1  0  0  0  0
 66 88  1  0  0  0  0
 67 69  1  0  0  0  0
 67 80  1  0  0  0  0
 68 81  1  0  0  0  0
 70 72  1  0  0  0  0
M  CHG  1  81   1
M  ISO  4  45 100  66 101  71 100  88 101
M  END
> <Batch ID>
0076

> <Smiles>
C=C1CN(c2cccc(N3C=CC=C([100NH:0][100C:0](=O)N4CCCC(n5nc(-c6ccc(Oc7ccc(F)cc7F)cc6)c(C(N)=O)c5N)C4)C3)c2)C=C1[101CH2:1][101O:1]c1ccc2c(c1)CN(C(=O)C(NC(=O)C(C)NC)C(C)(C)C)C(C(=O)NC1CCCc3ccccc31)C2

> <Shape>
0.185

> <Color>
0.104

> <Negative vol penalty>
0.000

$$$$

  -OEChem-04042323503D

 85 94  0     1  0  0  0  0  0999 V2000
  -17.8999  -29.5106   25.7358 C   0  0  0  0  0  0  0  0  0  0  0  0
  -19.0304  -28.7035   25.8135 C   0  0  0  0  0  0  0  0  0  0  0  0
  -23.1668   -9.7920   21.4714 C   0  0  0  0  0  0  0  0  0  0  0  0
  -23.8058  -10.7864   23.5784 C   0  0  0  0  0  0  0  0  0  0  0  0
  -17.5027  -30.0356   24.5067 C   0  0  0  0  0  0  0  0  0  0  0  0
  -19.7637  -28.4199   24.6618 C   0  0  0  0  0  0  0  0  0  0  0  0
  -25.8294  -27.6845   24.2477 C   0  0  0  0  0  0  0  0  0  0  0  0
  -32.1944  -18.7672   21.7999 C   0  0  0  0  0  0  0  0  0  0  0  0
  -31.6945  -17.5554   21.3235 C   0  0  0  0  0  0  0  0  0  0  0  0
  -22.4636   -8.7989   22.1532 C   0  0  0  0  0  0  0  0  0  0  0  0
  -23.1025   -9.7934   24.2604 C   0  0  0  0  0  0  0  0  0  0  0  0
  -26.6360  -26.5479   24.2093 C   0  0  0  0  0  0  0  0  0  0  0  0
  -23.1687   -5.9346   23.8033 C   0  0  0  0  0  0  0  0  0  0  0  0
  -23.3304   -4.6169   23.3752 C   0  0  0  0  0  0  0  0  0  0  0  0
  -26.6679  -26.6593   21.7998 C   0  0  0  0  0  0  0  0  0  0  0  0
  -29.4472  -18.4335   21.4481 C   0  0  0  0  0  0  0  0  0  0  0  0
  -20.9622   -4.4749   22.9182 C   0  0  0  0  0  0  0  0  0  0  0  0
  -23.8379  -10.7857   22.1840 C   0  0  0  0  0  0  0  0  0  0  0  0
  -24.0716  -13.0553   21.0429 C   0  0  0  0  0  0  0  0  0  0  0  0
  -18.2370  -29.7662   23.3410 C   0  0  0  0  0  0  0  0  0  0  0  0
  -25.4263  -28.3116   23.0600 C   0  0  0  0  0  0  0  0  0  0  0  0
  -19.3751  -28.9407   23.4158 C   0  0  0  0  0  0  0  0  0  0  0  0
  -25.8583  -27.8051   21.8259 C   0  0  0  0  0  0  0  0  0  0  0  0
  -31.3207  -19.8123   22.1005 C   0  0  0  0  0  0  0  0  0  0  0  0
  -29.9471  -19.6454   21.9246 C   0  0  0  0  0  0  0  0  0  0  0  0
  -30.3209  -17.3885   21.1475 C   0  0  0  0  0  0  0  0  0  0  0  0
  -22.4314   -8.7996   23.5477 C   0  0  0  0  0  0  0  0  0  0  0  0
  -27.0530  -26.0335   22.9851 C   0  0  0  0  0  0  0  0  0  0  0  0
  -21.9038   -6.5224   23.7889 C   0  0  0  0  0  0  0  0  0  0  0  0
  -22.2271   -3.8871   22.9327 C   0  0  0  0  0  0  0  0  0  0  0  0
  -20.8006   -5.7926   23.3463 C   0  0  0  0  0  0  0  0  0  0  0  0
  -24.5650  -11.8114   21.4802 C   0  0  0  0  0  0  0  0  0  0  0  0
  -25.1463  -13.6563   20.4344 C   0  0  0  0  0  0  0  0  0  0  0  0
  -29.0286  -21.9223   21.6590 C   0  0  0  0  0  0  0  0  0  0  0  0
  -28.0475  -22.6778   22.1713 C   0  0  0  0  0  0  0  0  0  0  0  0
  -27.3417  -21.8909   23.1713 C   0  0  0  0  0  0  0  0  0  0  0  0
  -26.2988  -22.2671   23.9182 C   0  0  0  0  0  0  0  0  0  0  0  0
  -22.7592  -13.6173   21.1752 C   0  0  0  0  0  0  0  0  0  0  0  0
  -22.6287  -28.8880   21.6654 C   0  0  0  0  0  0  0  0  0  0  0  0
  -24.4578  -30.5596   19.5719 C   0  0  0  0  0  0  0  0  0  0  0  0
  -27.5222  -31.0508   18.1524 C   0  0  0  0  0  0  0  0  0  0  0  0
  -30.5435  -15.0199   20.3189 C   0  0  0  0  0  0  0  0  0  0  0  0
  -17.7417  -30.3174   22.0275 C   0  0  0  0  0  0  0  0  0  0  0  0
  -24.5782  -29.5524   23.1194 C   0  0  0  0  0  0  0  0  0  0  0  0
  -25.4699  -28.4532   20.5229 C   0  0  0  0  0  0  0  0  0  0  0  0
  -28.0090  -20.5265   23.2270 C   0  0  0  0  0  0  0  0  0  0  0  0
  -18.7874  -30.2753   20.9162 C   0  0  0  0  0  0  0  0  0  0  0  0
  -29.6630  -11.7827   19.1262 C   0  0  0  0  0  0  0  0  0  0  0  0
  -19.4723  -28.9128   20.8790 C   0  0  0  0  0  0  0  0  0  0  0  0
  -28.2176  -11.6039   19.5963 C   0  0  0  0  0  0  0  0  0  0  0  0
  -30.5034  -12.5409   20.1522 C   0  0  0  0  0  0  0  0  0  0  0  0
  -28.4968  -13.6478   21.0564 C   0  0  0  0  0  0  0  0  0  0  0  0
  -20.2108  -28.6305   22.1929 C   0  0  1  0  0  0  0  0  0  0  0  0
  -23.8042  -29.8094   21.8301 C   0  0  1  0  0  0  0  0  0  0  0  0
  -27.5951  -12.9464   20.0275 C   0  0  2  0  0  0  0  0  0  0  0  0
  -31.8835  -21.0995   22.6089 C   0  0  0  0  0  0  0  0  0  0  0  0
  -28.6986  -32.4648   16.4452 C   0  0  0  0  0  0  0  0  0  0  0  0
  -23.1686  -28.9301   17.3375 C   0  0  0  0  0  0  0  0  0  0  0  0
  -25.0122  -29.6825   15.8198 C   0  0  0  0  0  0  0  0  0  0  0  0
  -23.4609  -31.3596   16.8216 C   0  0  0  0  0  0  0  0  0  0  0  0
  -29.3748  -32.1591   20.1769 C   0  0  0  0  0  0  0  0  0  0  0  0
  -27.7099  -24.0767   21.8039 C   0  0  0  0  0  0  0  0  0  1  0  0
  -25.1840  -30.2332   18.2893 C   0  0  1  0  0  0  0  0  0  0  0  0
  -28.3308  -32.3131   17.9130 C   0  0  2  0  0  0  0  0  0  0  0  0
  -24.2123  -30.0378   17.0913 C   0  0  0  0  0  0  0  0  0  0  0  0
  -25.8529  -11.6315   21.1751 N   0  0  0  0  0  0  0  0  0  0  0  0
  -26.1778  -12.7702   20.5396 N   0  0  0  0  0  0  0  0  0  0  0  0
  -29.0740  -20.6627   22.2163 N   0  0  0  0  0  0  0  0  0  0  0  0
  -24.6344  -29.6604   20.6331 N   0  0  0  0  0  0  0  0  0  0  0  0
  -29.8539  -13.8039   20.5099 N   0  0  0  0  0  0  0  0  0  0  0  0
  -25.3001  -14.8509   19.8247 N   0  0  0  0  0  0  0  0  0  0  0  0
  -21.7731  -12.8654   21.8283 N   0  0  0  0  0  0  0  0  0  0  0  0
  -29.8137  -16.1569   20.6640 N   0  0  0  0  0  0  0  0  0  0  0  0
  -21.4613  -29.3578   22.2361 N   0  0  0  0  0  0  0  0  0  0  0  0
  -26.1662  -31.2943   18.0950 N   0  0  0  0  0  0  0  0  0  0  0  0
  -29.5885  -32.2819   18.7119 N   0  3  0  0  0  0  0  0  0  0  0  0
  -22.4652  -14.7458   20.7130 O   0  0  0  0  0  0  0  0  0  0  0  0
  -22.7701  -27.8299   21.0636 O   0  0  0  0  0  0  0  0  0  0  0  0
  -23.7653  -31.5786   19.6323 O   0  0  0  0  0  0  0  0  0  0  0  0
  -28.0416  -29.9574   18.3650 O   0  0  0  0  0  0  0  0  0  0  0  0
  -31.6866  -15.0520   19.8559 O   0  0  0  0  0  0  0  0  0  0  0  0
  -21.7451   -7.8309   24.2135 O   0  0  0  0  0  0  0  0  0  0  0  0
  -27.8398  -24.9239   22.9448 O   0  0  0  0  0  0  0  0  0  1  0  0
  -22.3827   -2.6223   22.5202 F   0  0  0  0  0  0  0  0  0  0  0  0
  -19.5831   -6.3523   23.3291 F   0  0  0  0  0  0  0  0  0  0  0  0
  1  2  1  0  0  0  0
  1  5  2  0  0  0  0
  2  6  2  0  0  0  0
  3 10  2  0  0  0  0
  3 18  1  0  0  0  0
  4 11  1  0  0  0  0
  4 18  2  0  0  0  0
  5 20  1  0  0  0  0
  6 22  1  0  0  0  0
  7 12  2  0  0  0  0
  7 21  1  0  0  0  0
  8  9  2  0  0  0  0
  8 24  1  0  0  0  0
  9 26  1  0  0  0  0
 10 27  1  0  0  0  0
 11 27  2  0  0  0  0
 12 28  1  0  0  0  0
 13 14  2  0  0  0  0
 13 29  1  0  0  0  0
 14 30  1  0  0  0  0
 15 23  1  0  0  0  0
 15 28  2  0  0  0  0
 16 25  1  0  0  0  0
 16 26  2  0  0  0  0
 17 30  2  0  0  0  0
 17 31  1  0  0  0  0
 18 32  1  0  0  0  0
 19 32  1  0  0  0  0
 19 33  2  0  0  0  0
 19 38  1  0  0  0  0
 20 22  2  0  0  0  0
 20 43  1  0  0  0  0
 21 23  2  0  0  0  0
 21 44  1  0  0  0  0
 22 53  1  0  0  0  0
 23 45  1  0  0  0  0
 24 25  2  0  0  0  0
 24 56  1  0  0  0  0
 25 68  1  0  0  0  0
 26 73  1  0  0  0  0
 27 82  1  0  0  0  0
 28 83  1  0  0  0  0
 29 31  2  0  0  0  0
 29 82  1  0  0  0  0
 30 84  1  0  0  0  0
 31 85  1  0  0  0  0
 32 66  2  0  0  0  0
 33 67  1  0  0  0  0
 33 71  1  0  0  0  0
 34 35  2  0  0  0  0
 34 68  1  0  0  0  0
 35 36  1  0  0  0  0
 35 62  1  0  0  0  0
 36 37  2  0  0  0  0
 36 46  1  0  0  0  0
 38 72  1  0  0  0  0
 38 77  2  0  0  0  0
 39 54  1  0  0  0  0
 39 74  1  0  0  0  0
 39 78  2  0  0  0  0
 40 63  1  0  0  0  0
 40 69  1  0  0  0  0
 40 79  2  0  0  0  0
 41 64  1  0  0  0  0
 41 75  1  0  0  0  0
 41 80  2  0  0  0  0
 42 70  1  0  0  0  0
 42 73  1  0  0  0  0
 42 81  2  0  0  0  0
 43 47  1  0  0  0  0
 44 54  1  0  0  0  0
 45 69  1  0  0  0  0
 46 68  1  0  0  0  0
 47 49  1  0  0  0  0
 48 50  1  0  0  0  0
 48 51  1  0  0  0  0
 49 53  1  0  0  0  0
 50 55  1  0  0  0  0
 51 70  1  0  0  0  0
 52 55  1  0  0  0  0
 52 70  1  0  0  0  0
 53 74  1  0  0  0  0
 54 69  1  0  0  0  0
 55 67  1  0  0  0  0
 57 64  1  0  0  0  0
 58 65  1  0  0  0  0
 59 65  1  0  0  0  0
 60 65  1  0  0  0  0
 61 76  1  0  0  0  0
 62 83  1  0  0  0  0
 63 65  1  0  0  0  0
 63 75  1  0  0  0  0
 64 76  1  0  0  0  0
 66 67  1  0  0  0  0
M  CHG  1  76   1
M  ISO  4  42 100  62 101  73 100  83 101
M  END
> <Batch ID>
0076

> <Smiles>
C=C1CN(c2cc([100NH:0][100C:0](=O)N3CCCC(n4nc(-c5ccc(Oc6ccc(F)cc6F)cc5)c(C(N)=O)c4N)C3)ccc2C)C=C1[101CH2:1][101O:1]c1ccc2c(c1)CN(C(=O)C(NC(=O)C(C)NC)C(C)(C)C)C(C(=O)NC1CCCc3ccccc31)C2

> <Shape>
0.264

> <Color>
0.182

> <Negative vol penalty>
0.000

$$$$

  -OEChem-04042323503D

 92102  0     1  0  0  0  0  0999 V2000
  -31.1276  -33.7697   22.7930 C   0  0  0  0  0  0  0  0  0  0  0  0
  -30.7518  -32.4767   22.4433 C   0  0  0  0  0  0  0  0  0  0  0  0
  -22.9523  -10.0679   22.3962 C   0  0  0  0  0  0  0  0  0  0  0  0
  -23.7587   -9.6492   20.1575 C   0  0  0  0  0  0  0  0  0  0  0  0
  -30.3062  -34.5332   23.6214 C   0  0  0  0  0  0  0  0  0  0  0  0
  -29.5547  -31.9461   22.9227 C   0  0  0  0  0  0  0  0  0  0  0  0
  -26.8582  -29.5288   19.2652 C   0  0  0  0  0  0  0  0  0  0  0  0
  -22.2784   -8.8467   22.3818 C   0  0  0  0  0  0  0  0  0  0  0  0
  -23.0849   -8.4280   20.1432 C   0  0  0  0  0  0  0  0  0  0  0  0
  -27.2527  -28.2451   18.8905 C   0  0  0  0  0  0  0  0  0  0  0  0
  -23.0395   -5.5769   22.7840 C   0  0  0  0  0  0  0  0  0  0  0  0
  -23.1435   -4.7659   23.9140 C   0  0  0  0  0  0  0  0  0  0  0  0
  -25.5582  -27.3107   20.3306 C   0  0  0  0  0  0  0  0  0  0  0  0
  -30.1402  -19.8461   18.9847 C   0  0  0  0  0  0  0  0  0  0  0  0
  -27.7343  -19.6469   18.8899 C   0  0  0  0  0  0  0  0  0  0  0  0
  -20.7468   -4.8617   24.2034 C   0  0  0  0  0  0  0  0  0  0  0  0
  -23.6924  -10.4692   21.2840 C   0  0  0  0  0  0  0  0  0  0  0  0
  -25.7072  -11.9695   21.7282 C   0  0  0  0  0  0  0  0  0  0  0  0
  -29.0938  -34.0152   24.1034 C   0  0  0  0  0  0  0  0  0  0  0  0
  -25.8158  -29.7137   20.1849 C   0  0  0  0  0  0  0  0  0  0  0  0
  -28.7169  -32.7029   23.7594 C   0  0  0  0  0  0  0  0  0  0  0  0
  -25.1494  -28.5977   20.7115 C   0  0  0  0  0  0  0  0  0  0  0  0
  -28.8752  -20.4248   19.0868 C   0  0  0  0  0  0  0  0  0  0  0  0
  -30.2643  -18.4893   18.6855 C   0  0  0  0  0  0  0  0  0  0  0  0
  -27.8584  -18.2901   18.5908 C   0  0  0  0  0  0  0  0  0  0  0  0
  -22.3447   -8.0268   21.2554 C   0  0  0  0  0  0  0  0  0  0  0  0
  -26.6042  -27.1358   19.4249 C   0  0  0  0  0  0  0  0  0  0  0  0
  -21.7892   -6.0304   22.3637 C   0  0  0  0  0  0  0  0  0  0  0  0
  -21.9972   -4.4082   24.6237 C   0  0  0  0  0  0  0  0  0  0  0  0
  -20.6428   -5.6728   23.0734 C   0  0  0  0  0  0  0  0  0  0  0  0
  -29.1234  -17.7113   18.4886 C   0  0  0  0  0  0  0  0  0  0  0  0
  -24.3882  -11.7308   21.2979 C   0  0  0  0  0  0  0  0  0  0  0  0
  -25.8907  -13.3177   21.5413 C   0  0  0  0  0  0  0  0  0  0  0  0
  -27.5924  -22.4906   19.5178 C   0  0  0  0  0  0  0  0  0  0  0  0
  -27.8255  -23.7781   19.8072 C   0  0  0  0  0  0  0  0  0  0  0  0
  -29.2653  -23.9751   19.8798 C   0  0  0  0  0  0  0  0  0  0  0  0
  -33.5446  -17.3672   17.5155 C   0  0  0  0  0  0  0  0  0  0  0  0
  -32.0863  -16.8625   19.3271 C   0  0  0  0  0  0  0  0  0  0  0  0
  -29.9211  -25.1095   20.1440 C   0  0  0  0  0  0  0  0  0  0  0  0
  -34.5088  -17.2855   16.5927 C   0  0  0  0  0  0  0  0  0  0  0  0
  -31.6899  -16.3038   20.4799 C   0  0  0  0  0  0  0  0  0  0  0  0
  -26.6796  -11.0542   22.2502 C   0  0  0  0  0  0  0  0  0  0  0  0
  -25.4810  -31.0575   23.0707 C   0  0  0  0  0  0  0  0  0  0  0  0
  -22.2970  -30.3085   22.4753 C   0  0  0  0  0  0  0  0  0  0  0  0
  -21.3916  -32.2967   25.0958 C   0  0  0  0  0  0  0  0  0  0  0  0
  -25.3699  -17.9226   18.4547 C   0  0  0  0  0  0  0  0  0  0  0  0
  -28.2619  -34.8612   25.0344 C   0  0  0  0  0  0  0  0  0  0  0  0
  -25.3855  -31.1079   20.5529 C   0  0  0  0  0  0  0  0  0  0  0  0
  -24.0228  -28.7431   21.6986 C   0  0  0  0  0  0  0  0  0  0  0  0
  -29.9205  -22.6333   19.5960 C   0  0  0  0  0  0  0  0  0  0  0  0
  -33.3751  -16.4229   18.6708 C   0  0  0  0  0  0  0  0  0  0  0  0
  -32.4414  -18.3905   17.5212 C   0  0  0  0  0  0  0  0  0  0  0  0
  -26.8289  -34.3603   25.1959 C   0  0  0  0  0  0  0  0  0  0  0  0
  -22.5677  -16.9722   20.4350 C   0  0  0  0  0  0  0  0  0  0  0  0
  -26.8137  -32.8535   25.4330 C   0  0  0  0  0  0  0  0  0  0  0  0
  -22.9000  -15.5435   20.8715 C   0  0  0  0  0  0  0  0  0  0  0  0
  -23.0418  -17.2549   19.0106 C   0  0  0  0  0  0  0  0  0  0  0  0
  -24.7894  -15.5281   19.1931 C   0  0  0  0  0  0  0  0  0  0  0  0
  -27.4140  -32.1011   24.2392 C   0  0  1  0  0  0  0  0  0  0  0  0
  -24.5992  -31.1788   21.8603 C   0  0  1  0  0  0  0  0  0  0  0  0
  -24.3891  -15.2169   20.6445 C   0  0  2  0  0  0  0  0  0  0  0  0
  -19.3753  -33.3016   26.2013 C   0  0  0  0  0  0  0  0  0  0  0  0
  -22.1026  -32.3722   20.2373 C   0  0  0  0  0  0  0  0  0  0  0  0
  -20.7971  -33.8344   21.7949 C   0  0  0  0  0  0  0  0  0  0  0  0
  -19.9014  -31.6005   21.1391 C   0  0  0  0  0  0  0  0  0  0  0  0
  -21.9347  -30.8797   27.6366 C   0  0  0  0  0  0  0  0  0  0  0  0
  -26.8145  -24.8441   20.0249 C   0  0  0  0  0  0  0  0  0  1  0  0
  -21.8644  -31.7313   22.7270 C   0  0  1  0  0  0  0  0  0  0  0  0
  -20.3373  -32.1240   26.1742 C   0  0  2  0  0  0  0  0  0  0  0  0
  -21.1924  -32.3755   21.4817 C   0  0  0  0  0  0  0  0  0  0  0  0
  -23.7771  -12.8387   20.8700 N   0  0  0  0  0  0  0  0  0  0  0  0
  -24.7162  -13.7865   21.0306 N   0  0  0  0  0  0  0  0  0  0  0  0
  -28.7525  -21.7596   19.3798 N   0  0  0  0  0  0  0  0  0  0  0  0
  -31.5445  -17.9066   18.5833 N   0  0  0  0  0  0  0  0  0  0  0  0
  -23.5858  -30.1207   21.9597 N   0  0  0  0  0  0  0  0  0  0  0  0
  -24.4621  -16.9261   18.8714 N   0  0  0  0  0  0  0  0  0  0  0  0
  -26.9406  -14.1362   21.7656 N   0  0  0  0  0  0  0  0  0  0  0  0
  -26.3261   -9.7038   22.3762 N   0  0  0  0  0  0  0  0  0  0  0  0
  -26.6979  -17.5022   18.3902 N   0  0  0  0  0  0  0  0  0  0  0  0
  -26.4588  -32.0303   23.1543 N   0  0  0  0  0  0  0  0  0  0  0  0
  -21.0155  -31.6961   23.9130 N   0  0  0  0  0  0  0  0  0  0  0  0
  -20.9803  -32.0115   27.5139 N   0  3  0  0  0  0  0  0  0  0  0  0
  -27.8224  -11.4258   22.6099 O   0  0  0  0  0  0  0  0  0  0  0  0
  -25.2877  -30.1493   23.8705 O   0  0  0  0  0  0  0  0  0  0  0  0
  -21.5130  -29.3875   22.7209 O   0  0  0  0  0  0  0  0  0  0  0  0
  -22.4420  -32.9069   25.2827 O   0  0  0  0  0  0  0  0  0  0  0  0
  -25.0005  -19.0722   18.2019 O   0  0  0  0  0  0  0  0  0  0  0  0
  -21.6875   -6.8349   21.2411 O   0  0  0  0  0  0  0  0  0  0  0  0
  -26.9868  -25.8817   19.0605 O   0  0  0  0  0  0  0  0  0  1  0  0
  -22.0970   -3.6281   25.7080 F   0  0  0  0  0  0  0  0  0  0  0  0
  -19.4388   -6.1045   22.6737 F   0  0  0  0  0  0  0  0  0  0  0  0
  -29.2435  -16.4062   18.2008 F   0  0  0  0  0  0  0  0  0  0  0  0
  1  2  1  0  0  0  0
  1  5  2  0  0  0  0
  2  6  2  0  0  0  0
  3  8  2  0  0  0  0
  3 17  1  0  0  0  0
  4  9  1  0  0  0  0
  4 17  2  0  0  0  0
  5 19  1  0  0  0  0
  6 21  1  0  0  0  0
  7 10  2  0  0  0  0
  7 20  1  0  0  0  0
  8 26  1  0  0  0  0
  9 26  2  0  0  0  0
 10 27  1  0  0  0  0
 11 12  2  0  0  0  0
 11 28  1  0  0  0  0
 12 29  1  0  0  0  0
 13 22  1  0  0  0  0
 13 27  2  0  0  0  0
 14 23  2  0  0  0  0
 14 24  1  0  0  0  0
 15 23  1  0  0  0  0
 15 25  2  0  0  0  0
 16 29  2  0  0  0  0
 16 30  1  0  0  0  0
 17 32  1  0  0  0  0
 18 32  1  0  0  0  0
 18 33  2  0  0  0  0
 18 42  1  0  0  0  0
 19 21  2  0  0  0  0
 19 47  1  0  0  0  0
 20 22  2  0  0  0  0
 20 48  1  0  0  0  0
 21 59  1  0  0  0  0
 22 49  1  0  0  0  0
 23 73  1  0  0  0  0
 24 31  2  0  0  0  0
 24 74  1  0  0  0  0
 25 31  1  0  0  0  0
 25 79  1  0  0  0  0
 26 88  1  0  0  0  0
 27 89  1  0  0  0  0
 28 30  2  0  0  0  0
 28 88  1  0  0  0  0
 29 90  1  0  0  0  0
 30 91  1  0  0  0  0
 31 92  1  0  0  0  0
 32 71  2  0  0  0  0
 33 72  1  0  0  0  0
 33 77  1  0  0  0  0
 34 35  2  0  0  0  0
 34 73  1  0  0  0  0
 35 36  1  0  0  0  0
 35 67  1  0  0  0  0
 36 39  2  0  0  0  0
 36 50  1  0  0  0  0
 37 40  2  0  0  0  0
 37 51  1  0  0  0  0
 37 52  1  0  0  0  0
 38 41  2  0  0  0  0
 38 51  1  0  0  0  0
 38 74  1  0  0  0  0
 42 78  1  0  0  0  0
 42 83  2  0  0  0  0
 43 60  1  0  0  0  0
 43 80  1  0  0  0  0
 43 84  2  0  0  0  0
 44 68  1  0  0  0  0
 44 75  1  0  0  0  0
 44 85  2  0  0  0  0
 45 69  1  0  0  0  0
 45 81  1  0  0  0  0
 45 86  2  0  0  0  0
 46 76  1  0  0  0  0
 46 79  1  0  0  0  0
 46 87  2  0  0  0  0
 47 53  1  0  0  0  0
 48 60  1  0  0  0  0
 49 75  1  0  0  0  0
 50 73  1  0  0  0  0
 52 74  1  0  0  0  0
 53 55  1  0  0  0  0
 54 56  1  0  0  0  0
 54 57  1  0  0  0  0
 55 59  1  0  0  0  0
 56 61  1  0  0  0  0
 57 76  1  0  0  0  0
 58 61  1  0  0  0  0
 58 76  1  0  0  0  0
 59 80  1  0  0  0  0
 60 75  1  0  0  0  0
 61 72  1  0  0  0  0
 62 69  1  0  0  0  0
 63 70  1  0  0  0  0
 64 70  1  0  0  0  0
 65 70  1  0  0  0  0
 66 82  1  0  0  0  0
 67 89  1  0  0  0  0
 68 70  1  0  0  0  0
 68 81  1  0  0  0  0
 69 82  1  0  0  0  0
 71 72  1  0  0  0  0
M  CHG  1  82   1
M  ISO  4  46 100  67 101  79 100  89 101
M  END
> <Batch ID>
0076

> <Smiles>
C=C1CC(=C)N(c2cc(N3C=C([101CH2:1][101O:1]c4ccc5c(c4)CN(C(=O)C(NC(=O)C(C)NC)C(C)(C)C)C(C(=O)NC4CCCc6ccccc64)C5)C(=C)C3)cc([100NH:0][100C:0](=O)N3CCCC(n4nc(-c5ccc(Oc6ccc(F)cc6F)cc5)c(C(N)=O)c4N)C3)c2F)C1

> <Shape>
0.272

> <Color>
0.105

> <Negative vol penalty>
0.000

$$$$

  -OEChem-04042323503D

 88 97  0     1  0  0  0  0  0999 V2000
  -34.7794  -13.2707   20.2491 C   0  0  0  0  0  0  0  0  0  0  0  0
  -34.0101  -14.3799   19.9125 C   0  0  0  0  0  0  0  0  0  0  0  0
  -23.9319  -27.5067   22.8655 C   0  0  0  0  0  0  0  0  0  0  0  0
  -23.0717  -29.3383   21.5457 C   0  0  0  0  0  0  0  0  0  0  0  0
  -34.1613  -12.0487   20.5112 C   0  0  0  0  0  0  0  0  0  0  0  0
  -32.6223  -14.2675   19.8366 C   0  0  0  0  0  0  0  0  0  0  0  0
  -30.2349  -18.1237   22.0893 C   0  0  0  0  0  0  0  0  0  0  0  0
  -30.7895  -26.0632   19.5859 C   0  0  0  0  0  0  0  0  0  0  0  0
  -31.3578  -27.0941   20.3342 C   0  0  0  0  0  0  0  0  0  0  0  0
  -22.8551  -27.6331   23.7430 C   0  0  0  0  0  0  0  0  0  0  0  0
  -21.9947  -29.4647   22.4231 C   0  0  0  0  0  0  0  0  0  0  0  0
  -30.1684  -19.3276   21.3893 C   0  0  0  0  0  0  0  0  0  0  0  0
  -18.8270  -30.0349   24.1138 C   0  0  0  0  0  0  0  0  0  0  0  0
  -17.5555  -30.1930   23.5625 C   0  0  0  0  0  0  0  0  0  0  0  0
  -27.9108  -18.8057   20.7183 C   0  0  0  0  0  0  0  0  0  0  0  0
  -29.6039  -25.2942   21.5454 C   0  0  0  0  0  0  0  0  0  0  0  0
  -17.7768  -28.0643   22.4416 C   0  0  0  0  0  0  0  0  0  0  0  0
  -24.0403  -28.3593   21.7669 C   0  0  0  0  0  0  0  0  0  0  0  0
  -25.2189  -27.4282   19.7050 C   0  0  0  0  0  0  0  0  0  0  0  0
  -32.7645  -11.9236   20.4480 C   0  0  0  0  0  0  0  0  0  0  0  0
  -29.1418  -17.2453   22.1000 C   0  0  0  0  0  0  0  0  0  0  0  0
  -31.9851  -13.0423   20.0968 C   0  0  0  0  0  0  0  0  0  0  0  0
  -27.9651  -17.5925   21.4213 C   0  0  0  0  0  0  0  0  0  0  0  0
  -30.1722  -26.3251   22.2938 C   0  0  0  0  0  0  0  0  0  0  0  0
  -29.9125  -25.1633   20.1915 C   0  0  0  0  0  0  0  0  0  0  0  0
  -31.0491  -27.2250   21.6881 C   0  0  0  0  0  0  0  0  0  0  0  0
  -21.8864  -28.6121   23.5217 C   0  0  0  0  0  0  0  0  0  0  0  0
  -29.0072  -19.6674   20.7012 C   0  0  0  0  0  0  0  0  0  0  0  0
  -19.5735  -28.8915   23.8289 C   0  0  0  0  0  0  0  0  0  0  0  0
  -17.0304  -29.2077   22.7265 C   0  0  0  0  0  0  0  0  0  0  0  0
  -19.0483  -27.9062   22.9928 C   0  0  0  0  0  0  0  0  0  0  0  0
  -25.1528  -28.2296   20.8605 C   0  0  0  0  0  0  0  0  0  0  0  0
  -26.4759  -27.6561   19.2005 C   0  0  0  0  0  0  0  0  0  0  0  0
  -28.0963  -23.5722   19.6840 C   0  0  0  0  0  0  0  0  0  0  0  0
  -29.9392  -23.5271   18.3433 C   0  0  0  0  0  0  0  0  0  0  0  0
  -24.2322  -26.5558   19.1383 C   0  0  0  0  0  0  0  0  0  0  0  0
  -28.6482  -14.2664   21.1068 C   0  0  0  0  0  0  0  0  0  0  0  0
  -25.7789  -14.6700   22.5650 C   0  0  0  0  0  0  0  0  0  0  0  0
  -23.3699  -16.8171   23.6755 C   0  0  0  0  0  0  0  0  0  0  0  0
  -31.4644  -29.6590   22.1291 C   0  0  0  0  0  0  0  0  0  0  0  0
  -32.1450  -10.5706   20.6934 C   0  0  0  0  0  0  0  0  0  0  0  0
  -29.2200  -15.9628   22.8820 C   0  0  0  0  0  0  0  0  0  0  0  0
  -26.7566  -16.6936   21.4184 C   0  0  0  0  0  0  0  0  0  0  0  0
  -30.6427  -10.6275   20.9578 C   0  0  0  0  0  0  0  0  0  0  0  0
  -29.9242  -30.9617   19.0268 C   0  0  0  0  0  0  0  0  0  0  0  0
  -29.9545  -11.5269   19.9359 C   0  0  0  0  0  0  0  0  0  0  0  0
  -28.5030  -30.4059   19.0944 C   0  0  0  0  0  0  0  0  0  0  0  0
  -30.5166  -31.1724   20.4169 C   0  0  0  0  0  0  0  0  0  0  0  0
  -29.0644  -29.3875   21.3370 C   0  0  0  0  0  0  0  0  0  0  0  0
  -30.4752  -12.9663   20.0285 C   0  0  1  0  0  0  0  0  0  0  0  0
  -28.2296  -14.9075   22.3996 C   0  0  1  0  0  0  0  0  0  0  0  0
  -28.4602  -29.1282   19.9488 C   0  0  1  0  0  0  0  0  0  0  0  0
  -27.8384  -22.4726   18.6523 C   0  0  2  0  0  0  0  0  0  0  0  0
  -29.8223  -26.4429   23.7417 C   0  0  0  0  0  0  0  0  0  0  0  0
  -26.6147  -22.8056   17.8092 C   0  0  0  0  0  0  0  0  0  0  0  0
  -21.1224  -16.8495   24.7912 C   0  0  0  0  0  0  0  0  0  0  0  0
  -24.4683  -13.8194   19.9441 C   0  0  0  0  0  0  0  0  0  0  0  0
  -22.3132  -14.7682   20.7947 C   0  0  0  0  0  0  0  0  0  0  0  0
  -23.4015  -12.8739   21.9990 C   0  0  0  0  0  0  0  0  0  0  0  0
  -32.6851  -27.9583   23.4134 C   0  0  0  0  0  0  0  0  0  0  0  0
  -24.4095  -18.3480   25.9852 C   0  0  0  0  0  0  0  0  0  0  0  0
  -27.7195  -21.1263   19.3340 C   0  0  0  0  0  0  0  0  0  1  0  0
  -24.4247  -15.1817   22.1369 C   0  0  1  0  0  0  0  0  0  0  0  0
  -22.6282  -16.9024   24.9972 C   0  0  2  0  0  0  0  0  0  0  0  0
  -23.6752  -14.1771   21.2169 C   0  0  0  0  0  0  0  0  0  0  0  0
  -26.2783  -28.9152   21.0775 N   0  0  0  0  0  0  0  0  0  0  0  0
  -27.0635  -28.5453   20.0515 N   0  0  0  0  0  0  0  0  0  0  0  0
  -29.0474  -22.5607   17.8784 N   0  0  0  0  0  0  0  0  0  0  0  0
  -29.3442  -24.1375   19.4448 N   0  0  0  0  0  0  0  0  0  0  0  0
  -26.8844  -15.4477   22.1924 N   0  0  0  0  0  0  0  0  0  0  0  0
  -30.4146  -29.9657   21.2391 N   0  0  0  0  0  0  0  0  0  0  0  0
  -27.1248  -27.1806   18.1164 N   0  0  0  0  0  0  0  0  0  0  0  0
  -22.9939  -26.4387   19.7842 N   0  0  0  0  0  0  0  0  0  0  0  0
  -29.8821  -13.6465   21.1599 N   0  0  0  0  0  0  0  0  0  0  0  0
  -23.7090  -15.5177   23.3630 N   0  0  0  0  0  0  0  0  0  0  0  0
  -31.6460  -28.2988   22.4441 N   0  0  0  0  0  0  0  0  0  0  0  0
  -22.9623  -18.1747   25.6976 N   0  3  0  0  0  0  0  0  0  0  0  0
  -27.3077  -23.8769   20.5713 O   0  0  0  0  0  0  0  0  0  0  0  0
  -31.0347  -23.7769   17.8556 O   0  0  0  0  0  0  0  0  0  0  0  0
  -24.4484  -25.8871   18.0992 O   0  0  0  0  0  0  0  0  0  0  0  0
  -27.9061  -14.3283   20.1336 O   0  0  0  0  0  0  0  0  0  0  0  0
  -25.8526  -13.6226   23.2125 O   0  0  0  0  0  0  0  0  0  0  0  0
  -23.6199  -17.8041   22.9871 O   0  0  0  0  0  0  0  0  0  0  0  0
  -32.1578  -30.5403   22.6517 O   0  0  0  0  0  0  0  0  0  0  0  0
  -20.8353  -28.7356   24.3776 O   0  0  0  0  0  0  0  0  0  0  0  0
  -28.9399  -20.8416   20.0167 O   0  0  0  0  0  0  0  0  0  1  0  0
  -15.8087  -29.3589   22.1984 F   0  0  0  0  0  0  0  0  0  0  0  0
  -19.7602  -26.8050   22.7165 F   0  0  0  0  0  0  0  0  0  0  0  0
  1  2  1  0  0  0  0
  1  5  2  0  0  0  0
  2  6  2  0  0  0  0
  3 10  2  0  0  0  0
  3 18  1  0  0  0  0
  4 11  1  0  0  0  0
  4 18  2  0  0  0  0
  5 20  1  0  0  0  0
  6 22  1  0  0  0  0
  7 12  2  0  0  0  0
  7 21  1  0  0  0  0
  8  9  2  0  0  0  0
  8 25  1  0  0  0  0
  9 26  1  0  0  0  0
 10 27  1  0  0  0  0
 11 27  2  0  0  0  0
 12 28  1  0  0  0  0
 13 14  2  0  0  0  0
 13 29  1  0  0  0  0
 14 30  1  0  0  0  0
 15 23  1  0  0  0  0
 15 28  2  0  0  0  0
 16 24  1  0  0  0  0
 16 25  2  0  0  0  0
 17 30  2  0  0  0  0
 17 31  1  0  0  0  0
 18 32  1  0  0  0  0
 19 32  1  0  0  0  0
 19 33  2  0  0  0  0
 19 36  1  0  0  0  0
 20 22  2  0  0  0  0
 20 41  1  0  0  0  0
 21 23  2  0  0  0  0
 21 42  1  0  0  0  0
 22 50  1  0  0  0  0
 23 43  1  0  0  0  0
 24 26  2  0  0  0  0
 24 54  1  0  0  0  0
 25 69  1  0  0  0  0
 26 76  1  0  0  0  0
 27 85  1  0  0  0  0
 28 86  1  0  0  0  0
 29 31  2  0  0  0  0
 29 85  1  0  0  0  0
 30 87  1  0  0  0  0
 31 88  1  0  0  0  0
 32 66  2  0  0  0  0
 33 67  1  0  0  0  0
 33 72  1  0  0  0  0
 34 53  1  0  0  0  0
 34 69  1  0  0  0  0
 34 78  2  0  0  0  0
 35 68  1  0  0  0  0
 35 69  1  0  0  0  0
 35 79  2  0  0  0  0
 36 73  1  0  0  0  0
 36 80  2  0  0  0  0
 37 51  1  0  0  0  0
 37 74  1  0  0  0  0
 37 81  2  0  0  0  0
 38 63  1  0  0  0  0
 38 70  1  0  0  0  0
 38 82  2  0  0  0  0
 39 64  1  0  0  0  0
 39 75  1  0  0  0  0
 39 83  2  0  0  0  0
 40 71  1  0  0  0  0
 40 76  1  0  0  0  0
 40 84  2  0  0  0  0
 41 44  1  0  0  0  0
 42 51  1  0  0  0  0
 43 70  1  0  0  0  0
 44 46  1  0  0  0  0
 45 47  1  0  0  0  0
 45 48  1  0  0  0  0
 46 50  1  0  0  0  0
 47 52  1  0  0  0  0
 48 71  1  0  0  0  0
 49 52  1  0  0  0  0
 49 71  1  0  0  0  0
 50 74  1  0  0  0  0
 51 70  1  0  0  0  0
 52 67  1  0  0  0  0
 53 55  1  0  0  0  0
 53 62  1  0  0  0  0
 53 68  1  0  0  0  0
 56 64  1  0  0  0  0
 57 65  1  0  0  0  0
 58 65  1  0  0  0  0
 59 65  1  0  0  0  0
 60 76  1  0  0  0  0
 61 77  1  0  0  0  0
 62 86  1  0  0  0  0
 63 65  1  0  0  0  0
 63 75  1  0  0  0  0
 64 77  1  0  0  0  0
 66 67  1  0  0  0  0
M  CHG  1  77   1
M  ISO  4  40 100  62 101  76 100  86 101
M  END
> <Batch ID>
0076

> <Smiles>
CNC(C)C(=O)NC(C(=O)N1Cc2cc([101O:1][101CH2:1]C3(C)NC(=O)N(c4ccc([100N:0](C)[100C:0](=O)N5CCCC(n6nc(-c7ccc(Oc8ccc(F)cc8F)cc7)c(C(N)=O)c6N)C5)c(C)c4)C3=O)ccc2CC1C(=O)NC1CCCc2ccccc21)C(C)(C)C

> <Shape>
0.268

> <Color>
0.045

> <Negative vol penalty>
0.000

$$$$

  -OEChem-04042323503D

 91100  0     1  0  0  0  0  0999 V2000
  -16.6069  -26.2308   25.6222 C   0  0  0  0  0  0  0  0  0  0  0  0
  -17.8833  -25.7655   25.3230 C   0  0  0  0  0  0  0  0  0  0  0  0
  -22.7035  -12.0129   18.7420 C   0  0  0  0  0  0  0  0  0  0  0  0
  -22.8515  -10.2061   20.3391 C   0  0  0  0  0  0  0  0  0  0  0  0
  -16.1934  -27.4778   25.1552 C   0  0  0  0  0  0  0  0  0  0  0  0
  -18.7468  -26.5465   24.5556 C   0  0  0  0  0  0  0  0  0  0  0  0
  -23.4398  -26.6908   26.4528 C   0  0  0  0  0  0  0  0  0  0  0  0
  -21.6270  -11.3777   18.1230 C   0  0  0  0  0  0  0  0  0  0  0  0
  -21.7749   -9.5708   19.7201 C   0  0  0  0  0  0  0  0  0  0  0  0
  -24.2529  -25.5813   26.2255 C   0  0  0  0  0  0  0  0  0  0  0  0
  -18.4076   -9.8533   19.6775 C   0  0  0  0  0  0  0  0  0  0  0  0
  -17.4085   -9.3282   20.4970 C   0  0  0  0  0  0  0  0  0  0  0  0
  -25.3430  -26.7571   24.4231 C   0  0  0  0  0  0  0  0  0  0  0  0
  -28.3827  -19.7773   21.0597 C   0  0  0  0  0  0  0  0  0  0  0  0
  -29.3801  -19.5801   23.2513 C   0  0  0  0  0  0  0  0  0  0  0  0
  -17.8342   -7.1242   19.6038 C   0  0  0  0  0  0  0  0  0  0  0  0
  -23.3158  -11.4271   19.8500 C   0  0  0  0  0  0  0  0  0  0  0  0
  -30.0444  -18.0752   21.4819 C   0  0  0  0  0  0  0  0  0  0  0  0
  -24.3747  -13.0116   21.5458 C   0  0  0  0  0  0  0  0  0  0  0  0
  -17.0557  -28.2787   24.3898 C   0  0  0  0  0  0  0  0  0  0  0  0
  -23.5650  -27.8397   25.6586 C   0  0  0  0  0  0  0  0  0  0  0  0
  -18.3440  -27.8048   24.0768 C   0  0  0  0  0  0  0  0  0  0  0  0
  -24.5320  -27.8808   24.6441 C   0  0  0  0  0  0  0  0  0  0  0  0
  -28.4937  -20.2132   22.3800 C   0  0  0  0  0  0  0  0  0  0  0  0
  -29.1580  -18.7083   20.6106 C   0  0  0  0  0  0  0  0  0  0  0  0
  -21.1627  -10.1566   18.6121 C   0  0  0  0  0  0  0  0  0  0  0  0
  -25.2027  -25.6133   25.2086 C   0  0  0  0  0  0  0  0  0  0  0  0
  -19.1200   -9.0139   18.8210 C   0  0  0  0  0  0  0  0  0  0  0  0
  -17.1218   -7.9637   20.4602 C   0  0  0  0  0  0  0  0  0  0  0  0
  -30.1555  -18.5111   22.8022 C   0  0  0  0  0  0  0  0  0  0  0  0
  -18.8333   -7.6493   18.7842 C   0  0  0  0  0  0  0  0  0  0  0  0
  -24.4283  -12.0825   20.4895 C   0  0  0  0  0  0  0  0  0  0  0  0
  -25.6882  -13.3321   21.7881 C   0  0  0  0  0  0  0  0  0  0  0  0
  -26.6783  -22.8607   23.4231 C   0  0  0  0  0  0  0  0  0  0  0  0
  -26.8050  -22.0496   22.2116 C   0  0  0  0  0  0  0  0  0  0  0  0
  -25.9393  -23.9344   23.7562 C   0  0  0  0  0  0  0  0  0  1  0  0
  -30.8824  -16.9348   21.0300 C   0  0  0  0  0  0  0  0  0  0  0  0
  -23.2393  -13.5377   22.2456 C   0  0  0  0  0  0  0  0  0  0  0  0
  -21.6452  -29.4153   23.6748 C   0  0  0  0  0  0  0  0  0  0  0  0
  -24.0982  -31.5368   23.6080 C   0  0  0  0  0  0  0  0  0  0  0  0
  -27.4343  -32.1225   24.0255 C   0  0  0  0  0  0  0  0  0  0  0  0
  -30.7803  -14.6620   20.0564 C   0  0  0  0  0  0  0  0  0  0  0  0
  -16.5475  -29.5991   23.8674 C   0  0  0  0  0  0  0  0  0  0  0  0
  -22.6985  -29.0380   25.9340 C   0  0  0  0  0  0  0  0  0  0  0  0
  -24.7201  -29.0975   23.7765 C   0  0  0  0  0  0  0  0  0  0  0  0
  -27.7104  -21.9793   24.0883 C   0  0  0  0  0  0  0  0  0  0  0  0
  -17.6556  -30.5269   23.3760 C   0  0  0  0  0  0  0  0  0  0  0  0
  -29.9655  -11.2222   20.0830 C   0  0  0  0  0  0  0  0  0  0  0  0
  -18.6359  -29.7650   22.4898 C   0  0  0  0  0  0  0  0  0  0  0  0
  -28.4479  -11.2122   20.2861 C   0  0  0  0  0  0  0  0  0  0  0  0
  -30.4096  -12.3726   19.1807 C   0  0  0  0  0  0  0  0  0  0  0  0
  -28.4191  -13.6884   19.7844 C   0  0  0  0  0  0  0  0  0  0  0  0
  -19.3184  -28.6335   23.2680 C   0  0  1  0  0  0  0  0  0  0  0  0
  -22.5617  -29.9656   24.7306 C   0  0  1  0  0  0  0  0  0  0  0  0
  -27.9292  -12.5906   20.7425 C   0  0  1  0  0  0  0  0  0  0  0  0
  -29.1495  -33.9470   23.8626 C   0  0  0  0  0  0  0  0  0  0  0  0
  -24.0449  -31.3120   20.5655 C   0  0  0  0  0  0  0  0  0  0  0  0
  -26.3162  -32.3643   20.5176 C   0  0  0  0  0  0  0  0  0  0  0  0
  -24.3744  -33.6338   21.4344 C   0  0  0  0  0  0  0  0  0  0  0  0
  -28.1186  -31.8943   26.8958 C   0  0  0  0  0  0  0  0  0  0  0  0
  -31.3729  -18.9212   18.1176 C   0  0  0  0  0  0  0  0  0  0  0  0
  -25.3378  -31.7116   22.7643 C   0  0  1  0  0  0  0  0  0  0  0  0
  -28.1796  -33.2121   24.7748 C   0  0  2  0  0  0  0  0  0  0  0  0
  -25.0137  -32.2316   21.3354 C   0  0  0  0  0  0  0  0  0  0  0  0
  -25.6768  -11.8294   20.0882 N   0  0  0  0  0  0  0  0  0  0  0  0
  -26.4200  -12.6042   20.8966 N   0  0  0  0  0  0  0  0  0  0  0  0
  -27.7280  -21.2667   22.8231 N   0  0  0  0  0  0  0  0  0  0  0  0
  -23.8447  -30.2414   24.0808 N   0  0  0  0  0  0  0  0  0  0  0  0
  -29.8857  -13.6427   19.6863 N   0  0  0  0  0  0  0  0  0  0  0  0
  -26.2769  -14.1629   22.6744 N   0  0  0  0  0  0  0  0  0  0  0  0
  -21.9616  -13.1015   21.8693 N   0  0  0  0  0  0  0  0  0  0  0  0
  -29.0263  -18.2775   19.2529 N   0  0  0  0  0  0  0  0  0  0  0  0
  -30.1831  -15.8198   20.5672 N   0  0  0  0  0  0  0  0  0  0  0  0
  -20.3614  -29.1635   24.1198 N   0  0  0  0  0  0  0  0  0  0  0  0
  -26.2317  -32.5766   23.5266 N   0  0  0  0  0  0  0  0  0  0  0  0
  -28.9514  -32.6269   25.9075 N   0  3  0  0  0  0  0  0  0  0  0  0
  -26.3046  -22.0707   21.1064 O   0  0  0  0  0  0  0  0  0  0  0  0
  -32.1051  -17.0463   21.0499 O   0  0  0  0  0  0  0  0  0  0  0  0
  -23.3533  -14.3824   23.1659 O   0  0  0  0  0  0  0  0  0  0  0  0
  -22.0707  -29.2341   22.5400 O   0  0  0  0  0  0  0  0  0  0  0  0
  -23.3850  -32.5150   23.8449 O   0  0  0  0  0  0  0  0  0  0  0  0
  -27.8764  -30.9835   23.8925 O   0  0  0  0  0  0  0  0  0  0  0  0
  -32.0064  -14.5381   19.9751 O   0  0  0  0  0  0  0  0  0  0  0  0
  -29.1730  -18.8010   16.7343 O   0  0  0  0  0  0  0  0  0  0  0  0
  -29.4687  -20.6992   18.3635 O   0  0  0  0  0  0  0  0  0  0  0  0
  -20.1121   -9.5366   18.0085 O   0  0  0  0  0  0  0  0  0  0  0  0
  -25.9972  -24.5315   24.9842 O   0  0  0  0  0  0  0  0  0  1  0  0
  -16.1635   -7.4593   21.2484 F   0  0  0  0  0  0  0  0  0  0  0  0
  -31.0038  -17.9113   23.6498 F   0  0  0  0  0  0  0  0  0  0  0  0
  -19.5151   -6.8377   17.9643 F   0  0  0  0  0  0  0  0  0  0  0  0
  -29.6385  -19.3028   18.0138 S   0  0  0  0  0  0  0  0  0  0  0  0
  1  2  1  0  0  0  0
  1  5  2  0  0  0  0
  2  6  2  0  0  0  0
  3  8  2  0  0  0  0
  3 17  1  0  0  0  0
  4  9  1  0  0  0  0
  4 17  2  0  0  0  0
  5 20  1  0  0  0  0
  6 22  1  0  0  0  0
  7 10  2  0  0  0  0
  7 21  1  0  0  0  0
  8 26  1  0  0  0  0
  9 26  2  0  0  0  0
 10 27  1  0  0  0  0
 11 12  2  0  0  0  0
 11 28  1  0  0  0  0
 12 29  1  0  0  0  0
 13 23  1  0  0  0  0
 13 27  2  0  0  0  0
 14 24  2  0  0  0  0
 14 25  1  0  0  0  0
 15 24  1  0  0  0  0
 15 30  2  0  0  0  0
 16 29  2  0  0  0  0
 16 31  1  0  0  0  0
 17 32  1  0  0  0  0
 18 25  2  0  0  0  0
 18 30  1  0  0  0  0
 18 37  1  0  0  0  0
 19 32  1  0  0  0  0
 19 33  2  0  0  0  0
 19 38  1  0  0  0  0
 20 22  2  0  0  0  0
 20 43  1  0  0  0  0
 21 23  2  0  0  0  0
 21 44  1  0  0  0  0
 22 53  1  0  0  0  0
 23 45  1  0  0  0  0
 24 67  1  0  0  0  0
 25 72  1  0  0  0  0
 26 86  1  0  0  0  0
 27 87  1  0  0  0  0
 28 31  2  0  0  0  0
 28 86  1  0  0  0  0
 29 88  1  0  0  0  0
 30 89  1  0  0  0  0
 31 90  1  0  0  0  0
 32 65  2  0  0  0  0
 33 66  1  0  0  0  0
 33 70  1  0  0  0  0
 34 35  1  0  0  0  0
 34 36  2  0  0  0  0
 34 46  1  0  0  0  0
 35 67  1  0  0  0  0
 35 77  2  0  0  0  0
 36 87  1  0  0  0  0
 37 73  1  0  0  0  0
 37 78  2  0  0  0  0
 38 71  1  0  0  0  0
 38 79  2  0  0  0  0
 39 54  1  0  0  0  0
 39 74  1  0  0  0  0
 39 80  2  0  0  0  0
 40 62  1  0  0  0  0
 40 68  1  0  0  0  0
 40 81  2  0  0  0  0
 41 63  1  0  0  0  0
 41 75  1  0  0  0  0
 41 82  2  0  0  0  0
 42 69  1  0  0  0  0
 42 73  1  0  0  0  0
 42 83  2  0  0  0  0
 43 47  1  0  0  0  0
 44 54  1  0  0  0  0
 45 68  1  0  0  0  0
 46 67  1  0  0  0  0
 47 49  1  0  0  0  0
 48 50  1  0  0  0  0
 48 51  1  0  0  0  0
 49 53  1  0  0  0  0
 50 55  1  0  0  0  0
 51 69  1  0  0  0  0
 52 55  1  0  0  0  0
 52 69  1  0  0  0  0
 53 74  1  0  0  0  0
 54 68  1  0  0  0  0
 55 66  1  0  0  0  0
 56 63  1  0  0  0  0
 57 64  1  0  0  0  0
 58 64  1  0  0  0  0
 59 64  1  0  0  0  0
 60 76  1  0  0  0  0
 61 91  1  0  0  0  0
 62 64  1  0  0  0  0
 62 75  1  0  0  0  0
 63 76  1  0  0  0  0
 65 66  1  0  0  0  0
 72 91  1  0  0  0  0
 84 91  2  0  0  0  0
 85 91  2  0  0  0  0
M  CHG  1  76   1
M  ISO  4  36 101  42 100  73 100  87 101
M  END
> <Batch ID>
0076

> <Smiles>
CNC(C)C(=O)NC(C(=O)N1Cc2cc([101O:1][101CH:1]=C3CN(c4cc(F)c(C(=O)[100NH:0][100C:0](=O)N5CCCC(n6nc(-c7ccc(Oc8ccc(F)cc8F)cc7)c(C(N)=O)c6N)C5)c(NS(C)(=O)=O)c4)C3=O)ccc2CC1C(=O)NC1CCCc2ccccc21)C(C)(C)C

> <Shape>
0.259

> <Color>
0.116

> <Negative vol penalty>
0.000

$$$$

  -OEChem-04042323503D

 85 93  0     1  0  0  0  0  0999 V2000
  -27.1473  -32.2612   29.2548 C   0  0  0  0  0  0  0  0  0  0  0  0
  -27.0865  -30.9330   28.8456 C   0  0  0  0  0  0  0  0  0  0  0  0
  -32.7434  -17.3027   23.4010 C   0  0  0  0  0  0  0  0  0  0  0  0
  -22.9415   -9.9123   20.0157 C   0  0  0  0  0  0  0  0  0  0  0  0
  -23.6601   -9.9843   22.3212 C   0  0  0  0  0  0  0  0  0  0  0  0
  -27.0686  -33.2845   28.3110 C   0  0  0  0  0  0  0  0  0  0  0  0
  -26.9458  -30.6272   27.4924 C   0  0  0  0  0  0  0  0  0  0  0  0
  -30.0486  -26.9105   26.0079 C   0  0  0  0  0  0  0  0  0  0  0  0
  -32.1354  -16.4063   22.5222 C   0  0  0  0  0  0  0  0  0  0  0  0
  -31.9689  -18.2298   24.0983 C   0  0  0  0  0  0  0  0  0  0  0  0
  -22.1492   -8.7994   20.2974 C   0  0  0  0  0  0  0  0  0  0  0  0
  -22.8678   -8.8715   22.6030 C   0  0  0  0  0  0  0  0  0  0  0  0
  -29.6807  -25.6057   26.3336 C   0  0  0  0  0  0  0  0  0  0  0  0
  -23.0397   -5.5208   22.1855 C   0  0  0  0  0  0  0  0  0  0  0  0
  -23.6022   -4.5031   22.9559 C   0  0  0  0  0  0  0  0  0  0  0  0
  -28.8356  -25.2919   24.0960 C   0  0  0  0  0  0  0  0  0  0  0  0
  -21.8786   -4.8110   24.6208 C   0  0  0  0  0  0  0  0  0  0  0  0
  -23.6970  -10.5047   21.0276 C   0  0  0  0  0  0  0  0  0  0  0  0
  -24.1385  -13.0081   20.8127 C   0  0  0  0  0  0  0  0  0  0  0  0
  -26.9366  -32.9909   26.9446 C   0  0  0  0  0  0  0  0  0  0  0  0
  -29.8024  -27.4202   24.7249 C   0  0  0  0  0  0  0  0  0  0  0  0
  -26.8639  -31.6475   26.5296 C   0  0  0  0  0  0  0  0  0  0  0  0
  -29.2036  -26.6026   23.7558 C   0  0  0  0  0  0  0  0  0  0  0  0
  -30.7527  -16.4371   22.3405 C   0  0  0  0  0  0  0  0  0  0  0  0
  -30.5862  -18.2606   23.9167 C   0  0  0  0  0  0  0  0  0  0  0  0
  -22.1123   -8.2790   21.5910 C   0  0  0  0  0  0  0  0  0  0  0  0
  -29.0715  -24.7972   25.3785 C   0  0  0  0  0  0  0  0  0  0  0  0
  -21.8968   -6.1836   22.6327 C   0  0  0  0  0  0  0  0  0  0  0  0
  -23.0216   -4.1482   24.1735 C   0  0  0  0  0  0  0  0  0  0  0  0
  -21.3162   -5.8287   23.8504 C   0  0  0  0  0  0  0  0  0  0  0  0
  -29.9781  -17.3643   23.0378 C   0  0  0  0  0  0  0  0  0  0  0  0
  -24.5161  -11.6540   20.7371 C   0  0  0  0  0  0  0  0  0  0  0  0
  -25.2651  -13.7000   20.4408 C   0  0  0  0  0  0  0  0  0  0  0  0
  -29.3728  -21.2422   25.7616 C   0  0  0  0  0  0  0  0  0  0  0  0
  -29.6224  -22.5266   25.4869 C   0  0  0  0  0  0  0  0  0  1  0  0
  -22.8817  -13.5885   21.1859 C   0  0  0  0  0  0  0  0  0  0  0  0
  -28.0622  -29.8097   23.5564 C   0  0  0  0  0  0  0  0  0  0  0  0
  -29.4950  -28.9736   20.7689 C   0  0  0  0  0  0  0  0  0  0  0  0
  -30.6099  -19.4441   26.8635 C   0  0  0  0  0  0  0  0  0  0  0  0
  -31.0538  -26.5647   18.9213 C   0  0  0  0  0  0  0  0  0  0  0  0
  -30.7637  -14.5436   20.6790 C   0  0  0  0  0  0  0  0  0  0  0  0
  -26.8080  -34.1315   25.9662 C   0  0  0  0  0  0  0  0  0  0  0  0
  -30.2296  -28.8209   24.3814 C   0  0  0  0  0  0  0  0  0  0  0  0
  -28.9358  -27.0955   22.3581 C   0  0  0  0  0  0  0  0  0  0  0  0
  -27.0364  -33.7176   24.5147 C   0  0  0  0  0  0  0  0  0  0  0  0
  -29.5990  -12.0788   18.3887 C   0  0  0  0  0  0  0  0  0  0  0  0
  -26.2619  -32.4429   24.1949 C   0  0  0  0  0  0  0  0  0  0  0  0
  -28.1417  -11.8600   18.8017 C   0  0  0  0  0  0  0  0  0  0  0  0
  -30.5007  -12.3218   19.5976 C   0  0  0  0  0  0  0  0  0  0  0  0
  -28.5990  -13.1741   20.9114 C   0  0  0  0  0  0  0  0  0  0  0  0
  -26.7365  -31.2752   25.0683 C   0  0  1  0  0  0  0  0  0  0  0  0
  -29.4644  -29.4057   23.1983 C   0  0  1  0  0  0  0  0  0  0  0  0
  -27.6413  -12.9898   19.7229 C   0  0  2  0  0  0  0  0  0  0  0  0
  -32.0775  -26.1670   16.6649 C   0  0  0  0  0  0  0  0  0  0  0  0
  -26.7082  -28.7655   19.5439 C   0  0  0  0  0  0  0  0  0  0  0  0
  -27.7144  -27.4792   17.6463 C   0  0  0  0  0  0  0  0  0  0  0  0
  -28.4199  -29.8347   18.0669 C   0  0  0  0  0  0  0  0  0  0  0  0
  -33.7078  -25.9898   20.0981 C   0  0  0  0  0  0  0  0  0  0  0  0
  -30.3690  -20.1444   25.5383 C   0  0  1  0  0  0  0  0  0  0  0  0
  -29.1758  -28.0131   19.6488 C   0  0  1  0  0  0  0  0  0  0  0  0
  -32.3319  -26.5926   18.1026 C   0  0  2  0  0  0  0  0  0  0  0  0
  -28.0077  -28.5142   18.7533 C   0  0  0  0  0  0  0  0  0  0  0  0
  -25.7836  -11.4932   20.3475 N   0  0  0  0  0  0  0  0  0  0  0  0
  -26.2121  -12.7552   20.1750 N   0  0  0  0  0  0  0  0  0  0  0  0
  -29.3661  -28.4743   22.0727 N   0  0  0  0  0  0  0  0  0  0  0  0
  -29.9666  -13.4081   20.4218 N   0  0  0  0  0  0  0  0  0  0  0  0
  -25.5282  -15.0184   20.3183 N   0  0  0  0  0  0  0  0  0  0  0  0
  -21.8295  -12.7329   21.5398 N   0  0  0  0  0  0  0  0  0  0  0  0
  -31.6680  -19.9682   27.5739 N   0  0  0  0  0  0  0  0  0  0  0  0
  -30.1382  -15.5253   21.4469 N   0  0  0  0  0  0  0  0  0  0  0  0
  -29.8198  -19.1823   24.6105 N   0  0  0  0  0  0  0  0  0  0  0  0
  -27.9880  -30.7468   24.5692 N   0  0  0  0  0  0  0  0  0  0  0  0
  -30.4267  -27.7927   18.9313 N   0  0  0  0  0  0  0  0  0  0  0  0
  -33.3453  -25.6730   18.6927 N   0  3  0  0  0  0  0  0  0  0  0  0
  -22.6923  -14.8285   21.1890 O   0  0  0  0  0  0  0  0  0  0  0  0
  -27.1176  -29.3094   22.9572 O   0  0  0  0  0  0  0  0  0  0  0  0
  -29.8527  -30.1224   20.4969 O   0  0  0  0  0  0  0  0  0  0  0  0
  -29.9228  -18.5069   27.2656 O   0  0  0  0  0  0  0  0  0  0  0  0
  -30.6501  -25.5536   19.4916 O   0  0  0  0  0  0  0  0  0  0  0  0
  -31.9066  -14.6500   20.2269 O   0  0  0  0  0  0  0  0  0  0  0  0
  -21.3391   -7.1933   21.8663 O   0  0  0  0  0  0  0  0  0  0  0  0
  -28.7108  -23.5235   25.6939 O   0  0  0  0  0  0  0  0  0  1  0  0
  -23.5610   -3.1698   24.9125 F   0  0  0  0  0  0  0  0  0  0  0  0
  -20.2175   -6.4611   24.2847 F   0  0  0  0  0  0  0  0  0  0  0  0
  -28.6480  -17.3942   22.8633 F   0  0  0  0  0  0  0  0  0  0  0  0
  1  2  1  0  0  0  0
  1  6  2  0  0  0  0
  2  7  2  0  0  0  0
  3  9  1  0  0  0  0
  3 10  2  0  0  0  0
  4 11  2  0  0  0  0
  4 18  1  0  0  0  0
  5 12  1  0  0  0  0
  5 18  2  0  0  0  0
  6 20  1  0  0  0  0
  7 22  1  0  0  0  0
  8 13  2  0  0  0  0
  8 21  1  0  0  0  0
  9 24  2  0  0  0  0
 10 25  1  0  0  0  0
 11 26  1  0  0  0  0
 12 26  2  0  0  0  0
 13 27  1  0  0  0  0
 14 15  2  0  0  0  0
 14 28  1  0  0  0  0
 15 29  1  0  0  0  0
 16 23  1  0  0  0  0
 16 27  2  0  0  0  0
 17 29  2  0  0  0  0
 17 30  1  0  0  0  0
 18 32  1  0  0  0  0
 19 32  1  0  0  0  0
 19 33  2  0  0  0  0
 19 36  1  0  0  0  0
 20 22  2  0  0  0  0
 20 42  1  0  0  0  0
 21 23  2  0  0  0  0
 21 43  1  0  0  0  0
 22 51  1  0  0  0  0
 23 44  1  0  0  0  0
 24 31  1  0  0  0  0
 24 70  1  0  0  0  0
 25 31  2  0  0  0  0
 25 71  1  0  0  0  0
 26 81  1  0  0  0  0
 27 82  1  0  0  0  0
 28 30  2  0  0  0  0
 28 81  1  0  0  0  0
 29 83  1  0  0  0  0
 30 84  1  0  0  0  0
 31 85  1  0  0  0  0
 32 63  2  0  0  0  0
 33 64  1  0  0  0  0
 33 67  1  0  0  0  0
 34 35  2  0  0  0  0
 34 59  1  0  0  0  0
 35 82  1  0  0  0  0
 36 68  1  0  0  0  0
 36 75  2  0  0  0  0
 37 52  1  0  0  0  0
 37 72  1  0  0  0  0
 37 76  2  0  0  0  0
 38 60  1  0  0  0  0
 38 65  1  0  0  0  0
 38 77  2  0  0  0  0
 39 59  1  0  0  0  0
 39 69  1  0  0  0  0
 39 78  2  0  0  0  0
 40 61  1  0  0  0  0
 40 73  1  0  0  0  0
 40 79  2  0  0  0  0
 41 66  1  0  0  0  0
 41 70  1  0  0  0  0
 41 80  2  0  0  0  0
 42 45  1  0  0  0  0
 43 52  1  0  0  0  0
 44 65  1  0  0  0  0
 45 47  1  0  0  0  0
 46 48  1  0  0  0  0
 46 49  1  0  0  0  0
 47 51  1  0  0  0  0
 48 53  1  0  0  0  0
 49 66  1  0  0  0  0
 50 53  1  0  0  0  0
 50 66  1  0  0  0  0
 51 72  1  0  0  0  0
 52 65  1  0  0  0  0
 53 64  1  0  0  0  0
 54 61  1  0  0  0  0
 55 62  1  0  0  0  0
 56 62  1  0  0  0  0
 57 62  1  0  0  0  0
 58 74  1  0  0  0  0
 59 71  1  0  0  0  0
 60 62  1  0  0  0  0
 60 73  1  0  0  0  0
 61 74  1  0  0  0  0
 63 64  1  0  0  0  0
M  CHG  1  74   1
M  ISO  4  35 101  41 100  70 100  82 101
M  END
> <Batch ID>
0076

> <Smiles>
CNC(C)C(=O)NC(C(=O)N1Cc2cc([101O:1][101CH:1]=CC(Nc3cccc([100NH:0][100C:0](=O)N4CCCC(n5nc(-c6ccc(Oc7ccc(F)cc7F)cc6)c(C(N)=O)c5N)C4)c3F)C(N)=O)ccc2CC1C(=O)NC1CCCc2ccccc21)C(C)(C)C

> <Shape>
0.281

> <Color>
0.215

> <Negative vol penalty>
0.000

$$$$

  -OEChem-04042323503D

 84 92  0     1  0  0  0  0  0999 V2000
  -23.2561  -17.7453   31.6861 C   0  0  0  0  0  0  0  0  0  0  0  0
  -24.3957  -18.0800   30.9618 C   0  0  0  0  0  0  0  0  0  0  0  0
  -23.0758   -9.8680   19.9413 C   0  0  0  0  0  0  0  0  0  0  0  0
  -23.8342   -9.8764   22.2352 C   0  0  0  0  0  0  0  0  0  0  0  0
  -32.6500  -17.4938   23.4555 C   0  0  0  0  0  0  0  0  0  0  0  0
  -22.0045  -17.7882   31.0733 C   0  0  0  0  0  0  0  0  0  0  0  0
  -24.2845  -18.4566   29.6238 C   0  0  0  0  0  0  0  0  0  0  0  0
  -27.0822  -22.5290   28.5130 C   0  0  0  0  0  0  0  0  0  0  0  0
  -32.0629  -16.6091   22.5510 C   0  0  0  0  0  0  0  0  0  0  0  0
  -22.3315   -8.7152   20.1916 C   0  0  0  0  0  0  0  0  0  0  0  0
  -23.0898   -8.7236   22.4856 C   0  0  0  0  0  0  0  0  0  0  0  0
  -28.4510  -22.3322   28.3363 C   0  0  0  0  0  0  0  0  0  0  0  0
  -19.8610   -7.9271   23.0865 C   0  0  0  0  0  0  0  0  0  0  0  0
  -19.1033   -7.8882   24.2569 C   0  0  0  0  0  0  0  0  0  0  0  0
  -28.1391  -22.3523   25.9444 C   0  0  0  0  0  0  0  0  0  0  0  0
  -29.8786  -17.4584   23.1380 C   0  0  0  0  0  0  0  0  0  0  0  0
  -20.3437   -5.9510   24.9956 C   0  0  0  0  0  0  0  0  0  0  0  0
  -23.8272  -10.4486   20.9631 C   0  0  0  0  0  0  0  0  0  0  0  0
  -31.8514  -18.3608   24.2014 C   0  0  0  0  0  0  0  0  0  0  0  0
  -24.1698  -12.9735   20.8415 C   0  0  0  0  0  0  0  0  0  0  0  0
  -21.8769  -18.1749   29.7298 C   0  0  0  0  0  0  0  0  0  0  0  0
  -26.2285  -22.6282   27.4050 C   0  0  0  0  0  0  0  0  0  0  0  0
  -23.0302  -18.5034   28.9920 C   0  0  0  0  0  0  0  0  0  0  0  0
  -26.7601  -22.5529   26.1097 C   0  0  0  0  0  0  0  0  0  0  0  0
  -30.6772  -16.5914   22.3922 C   0  0  0  0  0  0  0  0  0  0  0  0
  -22.3384   -8.1430   21.4637 C   0  0  0  0  0  0  0  0  0  0  0  0
  -28.9793  -22.2409   27.0519 C   0  0  0  0  0  0  0  0  0  0  0  0
  -20.8601   -6.9779   22.8706 C   0  0  0  0  0  0  0  0  0  0  0  0
  -19.3446   -6.9002   25.2115 C   0  0  0  0  0  0  0  0  0  0  0  0
  -30.4657  -18.3431   24.0426 C   0  0  0  0  0  0  0  0  0  0  0  0
  -21.1014   -5.9899   23.8251 C   0  0  0  0  0  0  0  0  0  0  0  0
  -24.5968  -11.6391   20.7050 C   0  0  0  0  0  0  0  0  0  0  0  0
  -25.2624  -13.7225   20.4784 C   0  0  0  0  0  0  0  0  0  0  0  0
  -32.4810  -19.2994   25.1656 C   0  0  0  0  0  0  0  0  0  0  0  0
  -22.8991  -13.4900   21.2592 C   0  0  0  0  0  0  0  0  0  0  0  0
  -23.7588  -20.9477   26.3186 C   0  0  0  0  0  0  0  0  0  0  0  0
  -23.5738  -23.3547   24.1518 C   0  0  0  0  0  0  0  0  0  0  0  0
  -25.1562  -25.8694   22.4729 C   0  0  0  0  0  0  0  0  0  0  0  0
  -30.7287  -14.7668   20.6559 C   0  0  0  0  0  0  0  0  0  0  0  0
  -20.5078  -18.1606   29.0972 C   0  0  0  0  0  0  0  0  0  0  0  0
  -24.7580  -22.8672   27.6121 C   0  0  0  0  0  0  0  0  0  0  0  0
  -25.8892  -22.6733   24.8868 C   0  0  0  0  0  0  0  0  0  0  0  0
  -20.4367  -18.9315   27.7816 C   0  0  0  0  0  0  0  0  0  0  0  0
  -29.6152  -12.3515   18.2887 C   0  0  0  0  0  0  0  0  0  0  0  0
  -21.6155  -18.5669   26.8848 C   0  0  0  0  0  0  0  0  0  0  0  0
  -28.1752  -12.0606   18.7175 C   0  0  0  0  0  0  0  0  0  0  0  0
  -30.5296  -12.5810   19.4908 C   0  0  0  0  0  0  0  0  0  0  0  0
  -28.6219  -13.3069   20.8702 C   0  0  0  0  0  0  0  0  0  0  0  0
  -22.9478  -18.9409   27.5457 C   0  0  1  0  0  0  0  0  0  0  0  0
  -23.9092  -22.4393   26.4188 C   0  0  1  0  0  0  0  0  0  0  0  0
  -27.6498  -13.1331   19.6919 C   0  0  2  0  0  0  0  0  0  0  0  0
  -24.7538  -27.6383   20.7390 C   0  0  0  0  0  0  0  0  0  0  0  0
  -32.9536  -19.7976   28.3559 C   0  0  0  0  0  0  0  0  0  0  0  0
  -23.6416  -21.2255   21.9674 C   0  0  0  0  0  0  0  0  0  0  0  0
  -24.1929  -23.0304   20.3222 C   0  0  0  0  0  0  0  0  0  0  0  0
  -22.0262  -23.0900   21.5570 C   0  0  0  0  0  0  0  0  0  0  0  0
  -25.8277  -28.0424   24.3666 C   0  0  0  0  0  0  0  0  0  0  0  0
  -31.0049  -21.3205   27.8920 C   0  0  0  0  0  0  0  0  0  1  0  0
  -24.1702  -23.6151   22.7897 C   0  0  1  0  0  0  0  0  0  0  0  0
  -24.7673  -27.3157   22.2251 C   0  0  2  0  0  0  0  0  0  0  0  0
  -32.1783  -20.5537   27.2849 C   0  0  2  0  0  0  0  0  0  0  0  0
  -23.5242  -22.7360   21.6819 C   0  0  0  0  0  0  0  0  0  0  0  0
  -25.8619  -11.5426   20.2876 N   0  0  0  0  0  0  0  0  0  0  0  0
  -26.2392  -12.8260   20.1586 N   0  0  0  0  0  0  0  0  0  0  0  0
  -24.4570  -22.9001   25.1414 N   0  0  0  0  0  0  0  0  0  0  0  0
  -29.9703  -13.6126   20.3670 N   0  0  0  0  0  0  0  0  0  0  0  0
  -25.4732  -15.0538   20.4045 N   0  0  0  0  0  0  0  0  0  0  0  0
  -21.8868  -12.5813   21.5964 N   0  0  0  0  0  0  0  0  0  0  0  0
  -30.0810  -15.6926   21.4732 N   0  0  0  0  0  0  0  0  0  0  0  0
  -31.7149  -19.6339   26.2709 N   0  0  0  0  0  0  0  0  0  0  0  0
  -23.1863  -20.3638   27.4325 N   0  0  0  0  0  0  0  0  0  0  0  0
  -24.0501  -25.0507   22.5592 N   0  0  0  0  0  0  0  0  0  0  0  0
  -25.7305  -28.2335   22.8966 N   0  3  0  0  0  0  0  0  0  0  0  0
  -33.6055  -19.7347   24.9321 O   0  0  0  0  0  0  0  0  0  0  0  0
  -22.6632  -14.7207   21.3155 O   0  0  0  0  0  0  0  0  0  0  0  0
  -24.1330  -20.3695   25.3050 O   0  0  0  0  0  0  0  0  0  0  0  0
  -22.3701  -23.5542   24.3332 O   0  0  0  0  0  0  0  0  0  0  0  0
  -26.3246  -25.5021   22.5756 O   0  0  0  0  0  0  0  0  0  0  0  0
  -31.8581  -14.9349   20.1890 O   0  0  0  0  0  0  0  0  0  0  0  0
  -21.6120   -7.0183   21.7084 O   0  0  0  0  0  0  0  0  0  0  0  0
  -30.3150  -22.0482   26.8767 O   0  0  0  0  0  0  0  0  0  1  0  0
  -18.6180   -6.8639   26.3361 F   0  0  0  0  0  0  0  0  0  0  0  0
  -29.6883  -19.1717   24.7544 F   0  0  0  0  0  0  0  0  0  0  0  0
  -22.0607   -5.0760   23.6238 F   0  0  0  0  0  0  0  0  0  0  0  0
  1  2  1  0  0  0  0
  1  6  2  0  0  0  0
  2  7  2  0  0  0  0
  3 10  2  0  0  0  0
  3 18  1  0  0  0  0
  4 11  1  0  0  0  0
  4 18  2  0  0  0  0
  5  9  2  0  0  0  0
  5 19  1  0  0  0  0
  6 21  1  0  0  0  0
  7 23  1  0  0  0  0
  8 12  2  0  0  0  0
  8 22  1  0  0  0  0
  9 25  1  0  0  0  0
 10 26  1  0  0  0  0
 11 26  2  0  0  0  0
 12 27  1  0  0  0  0
 13 14  2  0  0  0  0
 13 28  1  0  0  0  0
 14 29  1  0  0  0  0
 15 24  1  0  0  0  0
 15 27  2  0  0  0  0
 16 25  2  0  0  0  0
 16 30  1  0  0  0  0
 17 29  2  0  0  0  0
 17 31  1  0  0  0  0
 18 32  1  0  0  0  0
 19 30  2  0  0  0  0
 19 34  1  0  0  0  0
 20 32  1  0  0  0  0
 20 33  2  0  0  0  0
 20 35  1  0  0  0  0
 21 23  2  0  0  0  0
 21 40  1  0  0  0  0
 22 24  2  0  0  0  0
 22 41  1  0  0  0  0
 23 49  1  0  0  0  0
 24 42  1  0  0  0  0
 25 69  1  0  0  0  0
 26 80  1  0  0  0  0
 27 81  1  0  0  0  0
 28 31  2  0  0  0  0
 28 80  1  0  0  0  0
 29 82  1  0  0  0  0
 30 83  1  0  0  0  0
 31 84  1  0  0  0  0
 32 63  2  0  0  0  0
 33 64  1  0  0  0  0
 33 67  1  0  0  0  0
 34 70  1  0  0  0  0
 34 74  2  0  0  0  0
 35 68  1  0  0  0  0
 35 75  2  0  0  0  0
 36 50  1  0  0  0  0
 36 71  1  0  0  0  0
 36 76  2  0  0  0  0
 37 59  1  0  0  0  0
 37 65  1  0  0  0  0
 37 77  2  0  0  0  0
 38 60  1  0  0  0  0
 38 72  1  0  0  0  0
 38 78  2  0  0  0  0
 39 66  1  0  0  0  0
 39 69  1  0  0  0  0
 39 79  2  0  0  0  0
 40 43  1  0  0  0  0
 41 50  1  0  0  0  0
 42 65  1  0  0  0  0
 43 45  1  0  0  0  0
 44 46  1  0  0  0  0
 44 47  1  0  0  0  0
 45 49  1  0  0  0  0
 46 51  1  0  0  0  0
 47 66  1  0  0  0  0
 48 51  1  0  0  0  0
 48 66  1  0  0  0  0
 49 71  1  0  0  0  0
 50 65  1  0  0  0  0
 51 64  1  0  0  0  0
 52 60  1  0  0  0  0
 53 61  1  0  0  0  0
 54 62  1  0  0  0  0
 55 62  1  0  0  0  0
 56 62  1  0  0  0  0
 57 73  1  0  0  0  0
 58 61  1  0  0  0  0
 58 81  1  0  0  0  0
 59 62  1  0  0  0  0
 59 72  1  0  0  0  0
 60 73  1  0  0  0  0
 61 70  1  0  0  0  0
 63 64  1  0  0  0  0
M  CHG  1  73   1
M  ISO  4  39 100  58 101  69 100  81 101
M  END
> <Batch ID>
0076

> <Smiles>
CNC(C)C(=O)NC(C(=O)N1Cc2cc([101O:1][101CH2:1]C(C)NC(=O)c3ccc([100NH:0][100C:0](=O)N4CCCC(n5nc(-c6ccc(Oc7ccc(F)cc7F)cc6)c(C(N)=O)c5N)C4)cc3F)ccc2CC1C(=O)NC1CCCc2ccccc21)C(C)(C)C

> <Shape>
0.173

> <Color>
0.192

> <Negative vol penalty>
0.000

$$$$

  -OEChem-04042323503D

 88 96  0     1  0  0  0  0  0999 V2000
  -29.8646  -34.0036   26.5917 C   0  0  0  0  0  0  0  0  0  0  0  0
  -29.4512  -32.8666   25.9048 C   0  0  0  0  0  0  0  0  0  0  0  0
  -24.0684   -9.8446   22.1391 C   0  0  0  0  0  0  0  0  0  0  0  0
  -24.5232  -11.3682   23.9581 C   0  0  0  0  0  0  0  0  0  0  0  0
  -30.7857  -20.4549   20.0288 C   0  0  0  0  0  0  0  0  0  0  0  0
  -28.9299  -34.9664   26.9702 C   0  0  0  0  0  0  0  0  0  0  0  0
  -28.1025  -32.6913   25.5971 C   0  0  0  0  0  0  0  0  0  0  0  0
  -27.3845  -31.1171   20.8377 C   0  0  0  0  0  0  0  0  0  0  0  0
  -30.5627  -19.0915   19.8367 C   0  0  0  0  0  0  0  0  0  0  0  0
  -23.6347   -8.8837   23.0524 C   0  0  0  0  0  0  0  0  0  0  0  0
  -24.0895  -10.4072   24.8714 C   0  0  0  0  0  0  0  0  0  0  0  0
  -27.6132  -29.7677   20.5721 C   0  0  0  0  0  0  0  0  0  0  0  0
  -20.8557   -8.2514   24.8718 C   0  0  0  0  0  0  0  0  0  0  0  0
  -19.6750   -7.5677   24.5817 C   0  0  0  0  0  0  0  0  0  0  0  0
  -28.4018  -20.8275   20.1524 C   0  0  0  0  0  0  0  0  0  0  0  0
  -25.2393  -29.3512   20.6759 C   0  0  0  0  0  0  0  0  0  0  0  0
  -20.8841   -5.4760   24.5907 C   0  0  0  0  0  0  0  0  0  0  0  0
  -24.5128  -11.0869   22.5920 C   0  0  0  0  0  0  0  0  0  0  0  0
  -29.7053  -21.3229   20.1868 C   0  0  0  0  0  0  0  0  0  0  0  0
  -24.1809  -13.0667   21.0179 C   0  0  0  0  0  0  0  0  0  0  0  0
  -27.5704  -34.8074   26.6585 C   0  0  0  0  0  0  0  0  0  0  0  0
  -26.0802  -31.5925   21.0356 C   0  0  0  0  0  0  0  0  0  0  0  0
  -27.1485  -33.6522   25.9730 C   0  0  0  0  0  0  0  0  0  0  0  0
  -24.9966  -30.7076   20.9413 C   0  0  0  0  0  0  0  0  0  0  0  0
  -29.2593  -18.5960   19.8023 C   0  0  0  0  0  0  0  0  0  0  0  0
  -23.6452   -9.1650   24.4185 C   0  0  0  0  0  0  0  0  0  0  0  0
  -26.5407  -28.8840   20.4940 C   0  0  0  0  0  0  0  0  0  0  0  0
  -22.0506   -7.5475   25.0212 C   0  0  0  0  0  0  0  0  0  0  0  0
  -19.6892   -6.1800   24.4412 C   0  0  0  0  0  0  0  0  0  0  0  0
  -28.1788  -19.4640   19.9601 C   0  0  0  0  0  0  0  0  0  0  0  0
  -22.0648   -6.1598   24.8807 C   0  0  0  0  0  0  0  0  0  0  0  0
  -24.9615  -12.0797   21.6491 C   0  0  0  0  0  0  0  0  0  0  0  0
  -25.0688  -13.7508   20.2240 C   0  0  0  0  0  0  0  0  0  0  0  0
  -29.9405  -22.7665   20.3904 C   0  0  0  0  0  0  0  0  0  0  0  0
  -22.7788  -13.3406   21.1384 C   0  0  0  0  0  0  0  0  0  0  0  0
  -24.5381  -32.9745   23.4472 C   0  0  0  0  0  0  0  0  0  0  0  0
  -28.1933  -25.6630   19.8056 C   0  0  0  0  0  0  0  0  0  0  0  0
  -22.1645  -33.2589   21.2547 C   0  0  0  0  0  0  0  0  0  0  0  0
  -20.7322  -32.1254   18.3718 C   0  0  0  0  0  0  0  0  0  0  0  0
  -29.9985  -16.2160   19.4344 C   0  0  0  0  0  0  0  0  0  0  0  0
  -26.5905  -35.8524   27.1300 C   0  0  0  0  0  0  0  0  0  0  0  0
  -25.8483  -33.0559   21.2948 C   0  0  0  0  0  0  0  0  0  0  0  0
  -23.5756  -31.1714   21.1258 C   0  0  0  0  0  0  0  0  0  0  0  0
  -25.2329  -35.7712   26.4368 C   0  0  0  0  0  0  0  0  0  0  0  0
  -29.8548  -12.6898   18.9632 C   0  0  0  0  0  0  0  0  0  0  0  0
  -24.7386  -34.3286   26.3982 C   0  0  0  0  0  0  0  0  0  0  0  0
  -28.5047  -12.2979   19.5680 C   0  0  0  0  0  0  0  0  0  0  0  0
  -30.5276  -13.8094   19.7554 C   0  0  0  0  0  0  0  0  0  0  0  0
  -28.3476  -14.6092   20.5781 C   0  0  0  0  0  0  0  0  0  0  0  0
  -25.6978  -33.4380   25.5992 C   0  0  1  0  0  0  0  0  0  0  0  0
  -24.5191  -33.3364   21.9890 C   0  0  1  0  0  0  0  0  0  0  0  0
  -27.6020  -13.5295   19.7768 C   0  0  2  0  0  0  0  0  0  0  0  0
  -18.7792  -32.5333   16.8498 C   0  0  0  0  0  0  0  0  0  0  0  0
  -29.5302  -25.3763   17.0609 C   0  0  0  0  0  0  0  0  0  0  0  0
  -31.7142  -25.0564   18.2499 C   0  0  0  0  0  0  0  0  0  0  0  0
  -20.3187  -31.8862   23.2593 C   0  0  0  0  0  0  0  0  0  0  0  0
  -18.7092  -31.4706   21.3872 C   0  0  0  0  0  0  0  0  0  0  0  0
  -19.2864  -33.8087   22.0375 C   0  0  0  0  0  0  0  0  0  0  0  0
  -22.4991  -32.7589   16.0837 C   0  0  0  0  0  0  0  0  0  0  0  0
  -28.1164  -27.1576   20.0548 C   0  0  0  0  0  0  0  0  0  1  0  0
  -29.5816  -25.0792   19.6034 C   0  0  2  0  0  0  0  0  0  0  0  0
  -20.9997  -32.4012   20.8227 C   0  0  1  0  0  0  0  0  0  0  0  0
  -20.2368  -32.8575   17.1377 C   0  0  2  0  0  0  0  0  0  0  0  0
  -30.2987  -25.6304   18.3613 C   0  0  0  0  0  0  0  0  0  0  0  0
  -19.8553  -32.3822   21.8751 C   0  0  0  0  0  0  0  0  0  0  0  0
  -26.2463  -12.1289   21.2873 N   0  0  0  0  0  0  0  0  0  0  0  0
  -26.2799  -13.1550   20.4201 N   0  0  0  0  0  0  0  0  0  0  0  0
  -23.4009  -32.6104   21.3834 N   0  0  0  0  0  0  0  0  0  0  0  0
  -29.6148  -14.9442   19.9097 N   0  0  0  0  0  0  0  0  0  0  0  0
  -24.9238  -14.7978   19.3843 N   0  0  0  0  0  0  0  0  0  0  0  0
  -22.0133  -12.5413   21.9983 N   0  0  0  0  0  0  0  0  0  0  0  0
  -29.0363  -17.2104   19.6070 N   0  0  0  0  0  0  0  0  0  0  0  0
  -29.4318  -23.6285   19.4996 N   0  0  0  0  0  0  0  0  0  0  0  0
  -25.5062  -33.6360   24.1785 N   0  0  0  0  0  0  0  0  0  0  0  0
  -20.5959  -32.8923   19.5096 N   0  0  0  0  0  0  0  0  0  0  0  0
  -30.6520  -23.1433   21.4529 N   0  3  0  0  0  0  0  0  0  0  0  0
  -21.0475  -32.4738   15.9475 N   0  3  0  0  0  0  0  0  0  0  0  0
  -22.2180  -14.2564   20.4899 O   0  0  0  0  0  0  0  0  0  0  0  0
  -23.7331  -32.1568   23.8773 O   0  0  0  0  0  0  0  0  0  0  0  0
  -27.1797  -24.9644   19.7759 O   0  0  0  0  0  0  0  0  0  0  0  0
  -21.9854  -34.4614   21.4630 O   0  0  0  0  0  0  0  0  0  0  0  0
  -21.1905  -30.9858   18.3312 O   0  0  0  0  0  0  0  0  0  0  0  0
  -31.0887  -16.4029   18.8881 O   0  0  0  0  0  0  0  0  0  0  0  0
  -23.2218   -8.2276   25.3099 O   0  0  0  0  0  0  0  0  0  0  0  0
  -26.7612  -27.5662   20.2355 O   0  0  0  0  0  0  0  0  0  1  0  0
  -18.5550   -5.5234   24.1642 F   0  0  0  0  0  0  0  0  0  0  0  0
  -26.9218  -18.9991   19.9274 F   0  0  0  0  0  0  0  0  0  0  0  0
  -23.2094   -5.4779   25.0243 F   0  0  0  0  0  0  0  0  0  0  0  0
  1  2  1  0  0  0  0
  1  6  2  0  0  0  0
  2  7  2  0  0  0  0
  3 10  2  0  0  0  0
  3 18  1  0  0  0  0
  4 11  1  0  0  0  0
  4 18  2  0  0  0  0
  5  9  2  0  0  0  0
  5 19  1  0  0  0  0
  6 21  1  0  0  0  0
  7 23  1  0  0  0  0
  8 12  2  0  0  0  0
  8 22  1  0  0  0  0
  9 25  1  0  0  0  0
 10 26  1  0  0  0  0
 11 26  2  0  0  0  0
 12 27  1  0  0  0  0
 13 14  2  0  0  0  0
 13 28  1  0  0  0  0
 14 29  1  0  0  0  0
 15 19  2  0  0  0  0
 15 30  1  0  0  0  0
 16 24  1  0  0  0  0
 16 27  2  0  0  0  0
 17 29  2  0  0  0  0
 17 31  1  0  0  0  0
 18 32  1  0  0  0  0
 19 34  1  0  0  0  0
 20 32  1  0  0  0  0
 20 33  2  0  0  0  0
 20 35  1  0  0  0  0
 21 23  2  0  0  0  0
 21 41  1  0  0  0  0
 22 24  2  0  0  0  0
 22 42  1  0  0  0  0
 23 50  1  0  0  0  0
 24 43  1  0  0  0  0
 25 30  2  0  0  0  0
 25 72  1  0  0  0  0
 26 84  1  0  0  0  0
 27 85  1  0  0  0  0
 28 31  2  0  0  0  0
 28 84  1  0  0  0  0
 29 86  1  0  0  0  0
 30 87  1  0  0  0  0
 31 88  1  0  0  0  0
 32 66  2  0  0  0  0
 33 67  1  0  0  0  0
 33 70  1  0  0  0  0
 34 73  1  0  0  0  0
 34 76  2  0  0  0  0
 35 71  1  0  0  0  0
 35 78  2  0  0  0  0
 36 51  1  0  0  0  0
 36 74  1  0  0  0  0
 36 79  2  0  0  0  0
 37 60  1  0  0  0  0
 37 61  1  0  0  0  0
 37 80  2  0  0  0  0
 38 62  1  0  0  0  0
 38 68  1  0  0  0  0
 38 81  2  0  0  0  0
 39 63  1  0  0  0  0
 39 75  1  0  0  0  0
 39 82  2  0  0  0  0
 40 69  1  0  0  0  0
 40 72  1  0  0  0  0
 40 83  2  0  0  0  0
 41 44  1  0  0  0  0
 42 51  1  0  0  0  0
 43 68  1  0  0  0  0
 44 46  1  0  0  0  0
 45 47  1  0  0  0  0
 45 48  1  0  0  0  0
 46 50  1  0  0  0  0
 47 52  1  0  0  0  0
 48 69  1  0  0  0  0
 49 52  1  0  0  0  0
 49 69  1  0  0  0  0
 50 74  1  0  0  0  0
 51 68  1  0  0  0  0
 52 67  1  0  0  0  0
 53 63  1  0  0  0  0
 54 64  1  0  0  0  0
 55 64  1  0  0  0  0
 56 65  1  0  0  0  0
 57 65  1  0  0  0  0
 58 65  1  0  0  0  0
 59 77  1  0  0  0  0
 60 85  1  0  0  0  0
 61 64  1  0  0  0  0
 61 73  1  0  0  0  0
 62 65  1  0  0  0  0
 62 75  1  0  0  0  0
 63 77  1  0  0  0  0
 66 67  1  0  0  0  0
M  CHG  2  76   1  77   1
M  ISO  4  40 100  60 101  72 100  85 101
M  END
> <Batch ID>
0076

> <Smiles>
CNC(C)C(=O)NC(C(=O)N1Cc2cc([101O:1][101CH2:1]C(=O)C(NC(=N)c3ccc([100NH:0][100C:0](=O)N4CCCC(n5nc(-c6ccc(Oc7ccc(F)cc7F)cc6)c(C(N)=O)c5N)C4)c(F)c3)C(C)C)ccc2CC1C(=O)NC1CCCc2ccccc21)C(C)(C)C

> <Shape>
0.299

> <Color>
0.116

> <Negative vol penalty>
0.000

$$$$

  -OEChem-04042323503D

 87 96  0     1  0  0  0  0  0999 V2000
  -19.2666  -18.3377   21.8656 C   0  0  0  0  0  0  0  0  0  0  0  0
  -20.4589  -18.9559   22.2286 C   0  0  0  0  0  0  0  0  0  0  0  0
  -23.0757   -9.8680   19.9410 C   0  0  0  0  0  0  0  0  0  0  0  0
  -23.8346   -9.8757   22.2347 C   0  0  0  0  0  0  0  0  0  0  0  0
  -18.0664  -19.0434   21.9390 C   0  0  0  0  0  0  0  0  0  0  0  0
  -20.4518  -20.2805   22.6642 C   0  0  0  0  0  0  0  0  0  0  0  0
  -23.3248  -20.9896   26.7737 C   0  0  0  0  0  0  0  0  0  0  0  0
  -32.0633  -16.6083   22.5511 C   0  0  0  0  0  0  0  0  0  0  0  0
  -32.6509  -17.4948   23.4536 C   0  0  0  0  0  0  0  0  0  0  0  0
  -22.3315   -8.7151   20.1911 C   0  0  0  0  0  0  0  0  0  0  0  0
  -23.0902   -8.7228   22.4848 C   0  0  0  0  0  0  0  0  0  0  0  0
  -24.7034  -21.0680   26.5810 C   0  0  0  0  0  0  0  0  0  0  0  0
  -19.8616   -7.9260   23.0861 C   0  0  0  0  0  0  0  0  0  0  0  0
  -19.1041   -7.8867   24.2567 C   0  0  0  0  0  0  0  0  0  0  0  0
  -24.5782  -23.4737   26.7074 C   0  0  0  0  0  0  0  0  0  0  0  0
  -29.8794  -17.4596   23.1367 C   0  0  0  0  0  0  0  0  0  0  0  0
  -20.3447   -5.9492   24.9945 C   0  0  0  0  0  0  0  0  0  0  0  0
  -23.8273  -10.4483   20.9628 C   0  0  0  0  0  0  0  0  0  0  0  0
  -24.1698  -12.9733   20.8420 C   0  0  0  0  0  0  0  0  0  0  0  0
  -18.0433  -20.3743   22.3849 C   0  0  0  0  0  0  0  0  0  0  0  0
  -22.5598  -22.1551   26.9241 C   0  0  0  0  0  0  0  0  0  0  0  0
  -19.2503  -21.0050   22.7424 C   0  0  0  0  0  0  0  0  0  0  0  0
  -23.1905  -23.4073   26.9045 C   0  0  0  0  0  0  0  0  0  0  0  0
  -30.4670  -18.3461   24.0392 C   0  0  0  0  0  0  0  0  0  0  0  0
  -30.6776  -16.5907   22.3927 C   0  0  0  0  0  0  0  0  0  0  0  0
  -31.8528  -18.3637   24.1976 C   0  0  0  0  0  0  0  0  0  0  0  0
  -22.3387   -8.1425   21.4630 C   0  0  0  0  0  0  0  0  0  0  0  0
  -25.3299  -22.3103   26.5449 C   0  0  0  0  0  0  0  0  0  0  0  0
  -20.8606   -6.9769   22.8697 C   0  0  0  0  0  0  0  0  0  0  0  0
  -19.3456   -6.8984   25.2109 C   0  0  0  0  0  0  0  0  0  0  0  0
  -21.1022   -5.9885   23.8239 C   0  0  0  0  0  0  0  0  0  0  0  0
  -24.5968  -11.6389   20.7050 C   0  0  0  0  0  0  0  0  0  0  0  0
  -25.2623  -13.7224   20.4789 C   0  0  0  0  0  0  0  0  0  0  0  0
  -28.5829  -20.3023   26.5169 C   0  0  0  0  0  0  0  0  0  0  0  0
  -28.0971  -20.8839   25.2587 C   0  0  0  0  0  0  0  0  0  0  0  0
  -29.5758  -19.2306   26.1596 C   0  0  0  0  0  0  0  0  0  0  0  0
  -22.8993  -13.4896   21.2601 C   0  0  0  0  0  0  0  0  0  0  0  0
  -27.1952  -21.8703   25.2041 C   0  0  0  0  0  0  0  0  0  1  0  0
  -20.1829  -23.5032   25.3002 C   0  0  0  0  0  0  0  0  0  0  0  0
  -20.1654  -25.5692   27.8009 C   0  0  0  0  0  0  0  0  0  0  0  0
  -21.8720  -27.0074   30.3828 C   0  0  0  0  0  0  0  0  0  0  0  0
  -30.7287  -14.7667   20.6558 C   0  0  0  0  0  0  0  0  0  0  0  0
  -16.7276  -21.1113   22.4024 C   0  0  0  0  0  0  0  0  0  0  0  0
  -21.0775  -22.0524   27.1578 C   0  0  0  0  0  0  0  0  0  0  0  0
  -22.4171  -24.6876   27.0812 C   0  0  0  0  0  0  0  0  0  0  0  0
  -28.7767  -20.1865   24.1289 C   0  0  0  0  0  0  0  0  0  0  0  0
  -16.7584  -22.3931   23.2308 C   0  0  0  0  0  0  0  0  0  0  0  0
  -29.6148  -12.3522   18.2879 C   0  0  0  0  0  0  0  0  0  0  0  0
  -18.0036  -23.2109   22.9028 C   0  0  0  0  0  0  0  0  0  0  0  0
  -28.1749  -12.0612   18.7170 C   0  0  0  0  0  0  0  0  0  0  0  0
  -30.5294  -12.5813   19.4899 C   0  0  0  0  0  0  0  0  0  0  0  0
  -28.6220  -13.3068   20.8700 C   0  0  0  0  0  0  0  0  0  0  0  0
  -19.2802  -22.4327   23.2435 C   0  0  1  0  0  0  0  0  0  0  0  0
  -20.3242  -23.3257   26.7855 C   0  0  1  0  0  0  0  0  0  0  0  0
  -27.6497  -13.1333   19.6918 C   0  0  2  0  0  0  0  0  0  0  0  0
  -26.6968  -22.4664   23.9271 C   0  0  0  0  0  0  0  0  0  0  0  0
  -21.6045  -28.6874   32.2276 C   0  0  0  0  0  0  0  0  0  0  0  0
  -20.4040  -27.8338   25.7700 C   0  0  0  0  0  0  0  0  0  0  0  0
  -21.0804  -29.3498   27.6441 C   0  0  0  0  0  0  0  0  0  0  0  0
  -18.8243  -28.2855   27.6554 C   0  0  0  0  0  0  0  0  0  0  0  0
  -22.3931  -24.9731   32.4681 C   0  0  0  0  0  0  0  0  0  0  0  0
  -20.8657  -26.8681   28.1195 C   0  0  1  0  0  0  0  0  0  0  0  0
  -21.5026  -27.2205   31.8397 C   0  0  2  0  0  0  0  0  0  0  0  0
  -20.3082  -28.0605   27.2919 C   0  0  0  0  0  0  0  0  0  0  0  0
  -25.8619  -11.5426   20.2873 N   0  0  0  0  0  0  0  0  0  0  0  0
  -26.2391  -12.8260   20.1587 N   0  0  0  0  0  0  0  0  0  0  0  0
  -29.6513  -19.2039   24.7700 N   0  0  0  0  0  0  0  0  0  0  0  0
  -20.9693  -24.5351   27.3006 N   0  0  0  0  0  0  0  0  0  0  0  0
  -29.9703  -13.6126   20.3666 N   0  0  0  0  0  0  0  0  0  0  0  0
  -32.4691  -19.2518   25.1076 N   0  0  0  0  0  0  0  0  0  0  0  0
  -25.4731  -15.0538   20.4055 N   0  0  0  0  0  0  0  0  0  0  0  0
  -21.8870  -12.5808   21.5973 N   0  0  0  0  0  0  0  0  0  0  0  0
  -30.0812  -15.6922   21.4735 N   0  0  0  0  0  0  0  0  0  0  0  0
  -19.5260  -22.4640   24.6693 N   0  0  0  0  0  0  0  0  0  0  0  0
  -20.7630  -27.0435   29.5641 N   0  0  0  0  0  0  0  0  0  0  0  0
  -22.4102  -26.4363   32.7242 N   0  3  0  0  0  0  0  0  0  0  0  0
  -28.2855  -20.5791   27.6566 O   0  0  0  0  0  0  0  0  0  0  0  0
  -30.1441  -18.5761   27.0096 O   0  0  0  0  0  0  0  0  0  0  0  0
  -22.6633  -14.7203   21.3169 O   0  0  0  0  0  0  0  0  0  0  0  0
  -20.6351  -24.5092   24.7662 O   0  0  0  0  0  0  0  0  0  0  0  0
  -18.9511  -25.4733   27.9957 O   0  0  0  0  0  0  0  0  0  0  0  0
  -23.0290  -26.8306   30.0079 O   0  0  0  0  0  0  0  0  0  0  0  0
  -31.8580  -14.9350   20.1886 O   0  0  0  0  0  0  0  0  0  0  0  0
  -21.6124   -7.0177   21.7074 O   0  0  0  0  0  0  0  0  0  0  0  0
  -26.6753  -22.3896   26.3563 O   0  0  0  0  0  0  0  0  0  1  0  0
  -18.6192   -6.8617   26.3356 F   0  0  0  0  0  0  0  0  0  0  0  0
  -22.0614   -5.0747   23.6220 F   0  0  0  0  0  0  0  0  0  0  0  0
  1  2  1  0  0  0  0
  1  5  2  0  0  0  0
  2  6  2  0  0  0  0
  3 10  2  0  0  0  0
  3 18  1  0  0  0  0
  4 11  1  0  0  0  0
  4 18  2  0  0  0  0
  5 20  1  0  0  0  0
  6 22  1  0  0  0  0
  7 12  2  0  0  0  0
  7 21  1  0  0  0  0
  8  9  2  0  0  0  0
  8 25  1  0  0  0  0
  9 26  1  0  0  0  0
 10 27  1  0  0  0  0
 11 27  2  0  0  0  0
 12 28  1  0  0  0  0
 13 14  2  0  0  0  0
 13 29  1  0  0  0  0
 14 30  1  0  0  0  0
 15 23  1  0  0  0  0
 15 28  2  0  0  0  0
 16 24  1  0  0  0  0
 16 25  2  0  0  0  0
 17 30  2  0  0  0  0
 17 31  1  0  0  0  0
 18 32  1  0  0  0  0
 19 32  1  0  0  0  0
 19 33  2  0  0  0  0
 19 37  1  0  0  0  0
 20 22  2  0  0  0  0
 20 43  1  0  0  0  0
 21 23  2  0  0  0  0
 21 44  1  0  0  0  0
 22 53  1  0  0  0  0
 23 45  1  0  0  0  0
 24 26  2  0  0  0  0
 24 67  1  0  0  0  0
 25 73  1  0  0  0  0
 26 70  1  0  0  0  0
 27 84  1  0  0  0  0
 28 85  1  0  0  0  0
 29 31  2  0  0  0  0
 29 84  1  0  0  0  0
 30 86  1  0  0  0  0
 31 87  1  0  0  0  0
 32 65  2  0  0  0  0
 33 66  1  0  0  0  0
 33 71  1  0  0  0  0
 34 35  1  0  0  0  0
 34 36  1  0  0  0  0
 34 77  2  0  0  0  0
 35 38  2  0  0  0  0
 35 46  1  0  0  0  0
 36 67  1  0  0  0  0
 36 78  2  0  0  0  0
 37 72  1  0  0  0  0
 37 79  2  0  0  0  0
 38 56  1  0  0  0  0
 38 85  1  0  0  0  0
 39 54  1  0  0  0  0
 39 74  1  0  0  0  0
 39 80  2  0  0  0  0
 40 62  1  0  0  0  0
 40 68  1  0  0  0  0
 40 81  2  0  0  0  0
 41 63  1  0  0  0  0
 41 75  1  0  0  0  0
 41 82  2  0  0  0  0
 42 69  1  0  0  0  0
 42 73  1  0  0  0  0
 42 83  2  0  0  0  0
 43 47  1  0  0  0  0
 44 54  1  0  0  0  0
 45 68  1  0  0  0  0
 46 67  1  0  0  0  0
 47 49  1  0  0  0  0
 48 50  1  0  0  0  0
 48 51  1  0  0  0  0
 49 53  1  0  0  0  0
 50 55  1  0  0  0  0
 51 69  1  0  0  0  0
 52 55  1  0  0  0  0
 52 69  1  0  0  0  0
 53 74  1  0  0  0  0
 54 68  1  0  0  0  0
 55 66  1  0  0  0  0
 57 63  1  0  0  0  0
 58 64  1  0  0  0  0
 59 64  1  0  0  0  0
 60 64  1  0  0  0  0
 61 76  1  0  0  0  0
 62 64  1  0  0  0  0
 62 75  1  0  0  0  0
 63 76  1  0  0  0  0
 65 66  1  0  0  0  0
M  CHG  1  76   1
M  ISO  4  38 101  42 100  73 100  85 101
M  END
> <Batch ID>
0076

> <Smiles>
CNC(C)C(=O)NC(C(=O)N1Cc2cc([101O:1][101C:1](C)=C3CN(c4cc([100NH:0][100C:0](=O)N5CCCC(n6nc(-c7ccc(Oc8ccc(F)cc8F)cc7)c(C(N)=O)c6N)C5)ccc4N)C(=O)C3=O)ccc2CC1C(=O)NC1CCCc2ccccc21)C(C)(C)C

> <Shape>
0.165

> <Color>
0.180

> <Negative vol penalty>
0.000

$$$$

  -OEChem-04042323503D

 84 92  0     1  0  0  0  0  0999 V2000
  -19.6888  -21.8253   25.9869 C   0  0  0  0  0  0  0  0  0  0  0  0
  -21.0368  -21.7580   25.6497 C   0  0  0  0  0  0  0  0  0  0  0  0
  -31.8693  -21.5691   16.1777 C   0  0  0  0  0  0  0  0  0  0  0  0
  -25.7815  -12.8558   21.6782 C   0  0  0  0  0  0  0  0  0  0  0  0
  -25.1535  -13.6379   19.4803 C   0  0  0  0  0  0  0  0  0  0  0  0
  -18.8535  -22.7336   25.3379 C   0  0  0  0  0  0  0  0  0  0  0  0
  -21.5501  -22.5982   24.6623 C   0  0  0  0  0  0  0  0  0  0  0  0
  -27.5262  -26.1275   22.8883 C   0  0  0  0  0  0  0  0  0  0  0  0
  -31.3127  -20.8352   17.2253 C   0  0  0  0  0  0  0  0  0  0  0  0
  -31.6385  -22.9418   16.0880 C   0  0  0  0  0  0  0  0  0  0  0  0
  -24.7304  -11.9393   21.6524 C   0  0  0  0  0  0  0  0  0  0  0  0
  -24.1024  -12.7213   19.4545 C   0  0  0  0  0  0  0  0  0  0  0  0
  -28.4038  -26.2892   21.8171 C   0  0  0  0  0  0  0  0  0  0  0  0
  -24.0906   -8.9211   20.2688 C   0  0  0  0  0  0  0  0  0  0  0  0
  -24.3570   -7.6174   20.6871 C   0  0  0  0  0  0  0  0  0  0  0  0
  -26.8835  -27.8740   20.8188 C   0  0  0  0  0  0  0  0  0  0  0  0
  -30.2943  -22.8468   18.0933 C   0  0  0  0  0  0  0  0  0  0  0  0
  -22.7001   -7.8386   22.4315 C   0  0  0  0  0  0  0  0  0  0  0  0
  -25.9930  -13.7052   20.5921 C   0  0  0  0  0  0  0  0  0  0  0  0
  -28.3965  -14.4480   20.1687 C   0  0  0  0  0  0  0  0  0  0  0  0
  -19.3589  -23.5921   24.3488 C   0  0  0  0  0  0  0  0  0  0  0  0
  -26.3136  -26.8307   22.9275 C   0  0  0  0  0  0  0  0  0  0  0  0
  -20.7206  -23.5179   23.9985 C   0  0  0  0  0  0  0  0  0  0  0  0
  -25.9935  -27.7213   21.8928 C   0  0  0  0  0  0  0  0  0  0  0  0
  -30.5252  -21.4741   18.1830 C   0  0  0  0  0  0  0  0  0  0  0  0
  -30.8509  -23.5807   17.0458 C   0  0  0  0  0  0  0  0  0  0  0  0
  -23.8908  -11.8720   20.5406 C   0  0  0  0  0  0  0  0  0  0  0  0
  -28.0812  -27.1604   20.7807 C   0  0  0  0  0  0  0  0  0  0  0  0
  -23.1291   -9.6837   20.9319 C   0  0  0  0  0  0  0  0  0  0  0  0
  -23.6617   -7.0761   21.7684 C   0  0  0  0  0  0  0  0  0  0  0  0
  -22.4338   -9.1424   22.0132 C   0  0  0  0  0  0  0  0  0  0  0  0
  -27.0783  -14.6526   20.6184 C   0  0  0  0  0  0  0  0  0  0  0  0
  -29.0312  -15.6416   20.4112 C   0  0  0  0  0  0  0  0  0  0  0  0
  -31.2745  -26.9507   15.7254 C   0  0  0  0  0  0  0  0  0  0  0  0
  -31.5723  -25.8232   16.3746 C   0  0  0  0  0  0  0  0  0  0  0  0
  -28.9938  -13.2830   19.5840 C   0  0  0  0  0  0  0  0  0  0  0  0
  -23.2434  -26.0082   22.9561 C   0  0  0  0  0  0  0  0  0  0  0  0
  -22.7966  -29.1914   23.3919 C   0  0  0  0  0  0  0  0  0  0  0  0
  -29.3958  -25.5461   17.4534 C   0  0  0  0  0  0  0  0  0  0  0  0
  -23.9986  -32.3636   23.0185 C   0  0  0  0  0  0  0  0  0  0  0  0
  -29.1557  -21.2067   20.2805 C   0  0  0  0  0  0  0  0  0  0  0  0
  -18.4075  -24.5245   23.6417 C   0  0  0  0  0  0  0  0  0  0  0  0
  -25.3901  -26.6653   24.1031 C   0  0  0  0  0  0  0  0  0  0  0  0
  -24.7135  -28.5151   21.8974 C   0  0  0  0  0  0  0  0  0  0  0  0
  -19.1083  -25.6399   22.8703 C   0  0  0  0  0  0  0  0  0  0  0  0
  -27.5400  -19.6858   23.0650 C   0  0  0  0  0  0  0  0  0  0  0  0
  -20.2623  -25.0762   22.0472 C   0  0  0  0  0  0  0  0  0  0  0  0
  -27.3843  -18.2239   22.6397 C   0  0  0  0  0  0  0  0  0  0  0  0
  -27.3479  -20.6420   21.8892 C   0  0  0  0  0  0  0  0  0  0  0  0
  -28.0267  -18.8957   20.2896 C   0  0  0  0  0  0  0  0  0  0  0  0
  -21.3199  -24.4299   22.9501 C   0  0  1  0  0  0  0  0  0  0  0  0
  -23.9466  -27.0441   23.7869 C   0  0  1  0  0  0  0  0  0  0  0  0
  -28.2757  -17.8918   21.4270 C   0  0  2  0  0  0  0  0  0  0  0  0
  -23.3908  -34.7623   23.4360 C   0  0  0  0  0  0  0  0  0  0  0  0
  -20.9077  -29.1273   20.9966 C   0  0  0  0  0  0  0  0  0  0  0  0
  -21.0876  -31.6215   20.8763 C   0  0  0  0  0  0  0  0  0  0  0  0
  -20.1233  -30.5388   22.9062 C   0  0  0  0  0  0  0  0  0  0  0  0
  -26.3100  -32.7558   24.8247 C   0  0  0  0  0  0  0  0  0  0  0  0
  -29.2270  -27.0660   17.3558 C   0  0  0  0  0  0  0  0  0  0  0  0
  -28.3597  -27.6427   18.4686 C   0  0  0  0  0  0  0  0  0  1  0  0
  -22.6102  -30.3796   22.4796 C   0  0  1  0  0  0  0  0  0  0  0  0
  -24.0867  -33.5281   23.9884 C   0  0  2  0  0  0  0  0  0  0  0  0
  -21.2055  -30.4005   21.8133 C   0  0  0  0  0  0  0  0  0  0  0  0
  -26.8857  -15.8797   21.1095 N   0  0  0  0  0  0  0  0  0  0  0  0
  -28.0913  -16.4568   20.9699 N   0  0  0  0  0  0  0  0  0  0  0  0
  -23.8404  -28.3140   23.0657 N   0  0  0  0  0  0  0  0  0  0  0  0
  -28.2275  -20.2685   20.7794 N   0  0  0  0  0  0  0  0  0  0  0  0
  -30.2961  -16.0629   20.1989 N   0  0  0  0  0  0  0  0  0  0  0  0
  -28.1990  -12.1425   19.4061 N   0  0  0  0  0  0  0  0  0  0  0  0
  -29.9605  -20.7281   19.2471 N   0  0  0  0  0  0  0  0  0  0  0  0
  -22.1420  -25.4455   23.5723 N   0  0  0  0  0  0  0  0  0  0  0  0
  -22.9087  -31.5611   23.2817 N   0  0  0  0  0  0  0  0  0  0  0  0
  -30.6111  -25.0097   16.9518 N   0  0  0  0  0  0  0  0  0  0  0  0
  -25.5117  -33.8723   24.2563 N   0  3  0  0  0  0  0  0  0  0  0  0
  -30.2010  -13.2490   19.2449 O   0  0  0  0  0  0  0  0  0  0  0  0
  -23.6678  -25.7404   21.8381 O   0  0  0  0  0  0  0  0  0  0  0  0
  -22.0485  -29.0510   24.3626 O   0  0  0  0  0  0  0  0  0  0  0  0
  -28.5037  -24.8718   17.9774 O   0  0  0  0  0  0  0  0  0  0  0  0
  -24.8128  -32.1860   22.1152 O   0  0  0  0  0  0  0  0  0  0  0  0
  -29.2496  -22.3418   20.7546 O   0  0  0  0  0  0  0  0  0  0  0  0
  -22.8652  -10.9776   20.5150 O   0  0  0  0  0  0  0  0  0  0  0  0
  -28.9357  -27.3196   19.7336 O   0  0  0  0  0  0  0  0  0  1  0  0
  -23.9165   -5.8236   22.1690 F   0  0  0  0  0  0  0  0  0  0  0  0
  -21.5081   -9.8697   22.6535 F   0  0  0  0  0  0  0  0  0  0  0  0
  1  2  1  0  0  0  0
  1  6  2  0  0  0  0
  2  7  2  0  0  0  0
  3  9  1  0  0  0  0
  3 10  2  0  0  0  0
  4 11  2  0  0  0  0
  4 19  1  0  0  0  0
  5 12  1  0  0  0  0
  5 19  2  0  0  0  0
  6 21  1  0  0  0  0
  7 23  1  0  0  0  0
  8 13  2  0  0  0  0
  8 22  1  0  0  0  0
  9 25  2  0  0  0  0
 10 26  1  0  0  0  0
 11 27  1  0  0  0  0
 12 27  2  0  0  0  0
 13 28  1  0  0  0  0
 14 15  2  0  0  0  0
 14 29  1  0  0  0  0
 15 30  1  0  0  0  0
 16 24  1  0  0  0  0
 16 28  2  0  0  0  0
 17 25  1  0  0  0  0
 17 26  2  0  0  0  0
 18 30  2  0  0  0  0
 18 31  1  0  0  0  0
 19 32  1  0  0  0  0
 20 32  1  0  0  0  0
 20 33  2  0  0  0  0
 20 36  1  0  0  0  0
 21 23  2  0  0  0  0
 21 42  1  0  0  0  0
 22 24  2  0  0  0  0
 22 43  1  0  0  0  0
 23 51  1  0  0  0  0
 24 44  1  0  0  0  0
 25 70  1  0  0  0  0
 26 73  1  0  0  0  0
 27 81  1  0  0  0  0
 28 82  1  0  0  0  0
 29 31  2  0  0  0  0
 29 81  1  0  0  0  0
 30 83  1  0  0  0  0
 31 84  1  0  0  0  0
 32 64  2  0  0  0  0
 33 65  1  0  0  0  0
 33 68  1  0  0  0  0
 34 35  2  0  0  0  0
 35 73  1  0  0  0  0
 36 69  1  0  0  0  0
 36 75  2  0  0  0  0
 37 52  1  0  0  0  0
 37 71  1  0  0  0  0
 37 76  2  0  0  0  0
 38 61  1  0  0  0  0
 38 66  1  0  0  0  0
 38 77  2  0  0  0  0
 39 59  1  0  0  0  0
 39 73  1  0  0  0  0
 39 78  2  0  0  0  0
 40 62  1  0  0  0  0
 40 72  1  0  0  0  0
 40 79  2  0  0  0  0
 41 67  1  0  0  0  0
 41 70  1  0  0  0  0
 41 80  2  0  0  0  0
 42 45  1  0  0  0  0
 43 52  1  0  0  0  0
 44 66  1  0  0  0  0
 45 47  1  0  0  0  0
 46 48  1  0  0  0  0
 46 49  1  0  0  0  0
 47 51  1  0  0  0  0
 48 53  1  0  0  0  0
 49 67  1  0  0  0  0
 50 53  1  0  0  0  0
 50 67  1  0  0  0  0
 51 71  1  0  0  0  0
 52 66  1  0  0  0  0
 53 65  1  0  0  0  0
 54 62  1  0  0  0  0
 55 63  1  0  0  0  0
 56 63  1  0  0  0  0
 57 63  1  0  0  0  0
 58 74  1  0  0  0  0
 59 60  1  0  0  0  0
 60 82  1  0  0  0  0
 61 63  1  0  0  0  0
 61 72  1  0  0  0  0
 62 74  1  0  0  0  0
 64 65  1  0  0  0  0
M  CHG  1  74   1
M  ISO  4  41 100  60 101  70 100  82 101
M  END
> <Batch ID>
0076

> <Smiles>
C=CN(C(=O)C[101CH2:1][101O:1]c1ccc2c(c1)CN(C(=O)C(NC(=O)C(C)NC)C(C)(C)C)C(C(=O)NC1CCCc3ccccc31)C2)c1cccc([100NH:0][100C:0](=O)N2CCCC(n3nc(-c4ccc(Oc5ccc(F)cc5F)cc4)c(C(N)=O)c3N)C2)c1

> <Shape>
0.264

> <Color>
0.059

> <Negative vol penalty>
0.000

$$$$

  -OEChem-04042323503D

 90 99  0     1  0  0  0  0  0999 V2000
  -20.6967  -33.6958   24.3724 C   0  0  0  0  0  0  0  0  0  0  0  0
  -21.9469  -33.2106   24.0026 C   0  0  0  0  0  0  0  0  0  0  0  0
  -23.5393  -11.0433   21.3438 C   0  0  0  0  0  0  0  0  0  0  0  0
  -24.4984   -8.9679   20.5630 C   0  0  0  0  0  0  0  0  0  0  0  0
  -19.6365  -32.8114   24.5668 C   0  0  0  0  0  0  0  0  0  0  0  0
  -22.1380  -31.8404   23.8281 C   0  0  0  0  0  0  0  0  0  0  0  0
  -25.8114  -29.1259   19.7484 C   0  0  0  0  0  0  0  0  0  0  0  0
  -31.0327  -19.6214   17.2811 C   0  0  0  0  0  0  0  0  0  0  0  0
  -30.6357  -18.3078   17.0313 C   0  0  0  0  0  0  0  0  0  0  0  0
  -22.4244  -10.3506   21.8157 C   0  0  0  0  0  0  0  0  0  0  0  0
  -23.3836   -8.2751   21.0350 C   0  0  0  0  0  0  0  0  0  0  0  0
  -27.0955  -28.5927   19.8513 C   0  0  0  0  0  0  0  0  0  0  0  0
  -22.2286   -7.1438   24.0026 C   0  0  0  0  0  0  0  0  0  0  0  0
  -22.4531   -5.9640   24.7121 C   0  0  0  0  0  0  0  0  0  0  0  0
  -28.8412  -20.1146   18.1707 C   0  0  0  0  0  0  0  0  0  0  0  0
  -26.1511  -26.3988   20.1887 C   0  0  0  0  0  0  0  0  0  0  0  0
  -21.1811   -4.7330   23.0677 C   0  0  0  0  0  0  0  0  0  0  0  0
  -24.5763  -10.3520   20.7174 C   0  0  0  0  0  0  0  0  0  0  0  0
  -28.4442  -18.8010   17.9209 C   0  0  0  0  0  0  0  0  0  0  0  0
  -26.9140  -11.3503   20.9327 C   0  0  0  0  0  0  0  0  0  0  0  0
  -19.8123  -31.4305   24.3851 C   0  0  0  0  0  0  0  0  0  0  0  0
  -24.6855  -28.2999   19.8760 C   0  0  0  0  0  0  0  0  0  0  0  0
  -21.0796  -30.9365   24.0215 C   0  0  0  0  0  0  0  0  0  0  0  0
  -24.8538  -26.9235   20.0845 C   0  0  0  0  0  0  0  0  0  0  0  0
  -30.1355  -20.5248   17.8509 C   0  0  0  0  0  0  0  0  0  0  0  0
  -29.3414  -17.8976   17.3512 C   0  0  0  0  0  0  0  0  0  0  0  0
  -22.3466   -8.9665   21.6614 C   0  0  0  0  0  0  0  0  0  0  0  0
  -27.2655  -27.2295   20.0744 C   0  0  0  0  0  0  0  0  0  0  0  0
  -21.4803   -7.1182   22.8256 C   0  0  0  0  0  0  0  0  0  0  0  0
  -21.9294   -4.7587   24.2446 C   0  0  0  0  0  0  0  0  0  0  0  0
  -20.9566   -5.9128   22.3582 C   0  0  0  0  0  0  0  0  0  0  0  0
  -25.7280  -11.0671   20.2291 C   0  0  0  0  0  0  0  0  0  0  0  0
  -27.6881  -12.0446   20.0354 C   0  0  0  0  0  0  0  0  0  0  0  0
  -30.5636  -24.0465   18.7351 C   0  0  0  0  0  0  0  0  0  0  0  0
  -31.8737  -23.7610   18.2062 C   0  0  0  0  0  0  0  0  0  0  0  0
  -29.7130  -22.8256   18.6677 C   0  0  0  0  0  0  0  0  0  0  0  0
  -32.9206  -24.5852   18.0917 C   0  0  0  0  0  0  0  0  0  0  0  0
  -30.0829  -25.1910   19.2332 C   0  0  0  0  0  0  0  0  0  0  0  0
  -27.0841  -18.4047   18.2643 C   0  0  0  0  0  0  0  0  0  0  0  0
  -27.2830  -11.0156   22.2771 C   0  0  0  0  0  0  0  0  0  0  0  0
  -22.2339  -28.1452   21.8933 C   0  0  0  0  0  0  0  0  0  0  0  0
  -21.1859  -25.8690   19.8334 C   0  0  0  0  0  0  0  0  0  0  0  0
  -21.9453  -23.5471   17.4504 C   0  0  0  0  0  0  0  0  0  0  0  0
  -27.8809  -16.2340   16.2135 C   0  0  0  0  0  0  0  0  0  0  0  0
  -18.6486  -30.5092   24.6527 C   0  0  0  0  0  0  0  0  0  0  0  0
  -23.3074  -28.8861   19.7358 C   0  0  0  0  0  0  0  0  0  0  0  0
  -23.6779  -25.9906   20.2084 C   0  0  0  0  0  0  0  0  0  0  0  0
  -31.8737  -22.3225   17.7854 C   0  0  0  0  0  0  0  0  0  0  0  0
  -18.8390  -29.1060   24.0826 C   0  0  0  0  0  0  0  0  0  0  0  0
  -27.1278  -12.8064   15.0756 C   0  0  0  0  0  0  0  0  0  0  0  0
  -20.2297  -28.5774   24.4189 C   0  0  0  0  0  0  0  0  0  0  0  0
  -26.7314  -12.0975   16.3695 C   0  0  0  0  0  0  0  0  0  0  0  0
  -26.7947  -14.2947   15.1197 C   0  0  0  0  0  0  0  0  0  0  0  0
  -26.9810  -14.2967   17.5886 C   0  0  0  0  0  0  0  0  0  0  0  0
  -21.3201  -29.4592   23.7983 C   0  0  1  0  0  0  0  0  0  0  0  0
  -22.2262  -28.0352   20.3948 C   0  0  1  0  0  0  0  0  0  0  0  0
  -27.3432  -12.8039   17.5917 C   0  0  1  0  0  0  0  0  0  0  0  0
  -25.9614  -19.1403   17.5956 C   0  0  0  0  0  0  0  0  0  0  0  0
  -20.8824  -21.8146   15.9787 C   0  0  0  0  0  0  0  0  0  0  0  0
  -20.9173  -24.0008   22.2309 C   0  0  0  0  0  0  0  0  0  0  0  0
  -20.7853  -22.0798   20.6308 C   0  0  0  0  0  0  0  0  0  0  0  0
  -19.0401  -23.8615   20.5843 C   0  0  0  0  0  0  0  0  0  0  0  0
  -29.8371  -15.4524   17.5296 C   0  0  0  0  0  0  0  0  0  0  0  0
  -22.8370  -24.9248   14.9875 C   0  0  0  0  0  0  0  0  0  0  0  0
  -28.6934  -25.3549   19.7535 C   0  0  0  0  0  0  0  0  0  1  0  0
  -21.3580  -24.3739   19.7144 C   0  0  1  0  0  0  0  0  0  0  0  0
  -21.3339  -23.2625   16.0904 C   0  0  2  0  0  0  0  0  0  0  0  0
  -20.5475  -23.5966   20.7897 C   0  0  0  0  0  0  0  0  0  0  0  0
  -25.7427  -11.5429   18.9811 N   0  0  0  0  0  0  0  0  0  0  0  0
  -26.9474  -12.1321   18.8935 N   0  0  0  0  0  0  0  0  0  0  0  0
  -30.5319  -21.8351   18.0991 N   0  0  0  0  0  0  0  0  0  0  0  0
  -22.3507  -26.6126   20.0705 N   0  0  0  0  0  0  0  0  0  0  0  0
  -27.3493  -14.9326   16.3143 N   0  0  0  0  0  0  0  0  0  0  0  0
  -28.9232  -12.5829   20.1197 N   0  0  0  0  0  0  0  0  0  0  0  0
  -26.3694  -10.2989   23.0620 N   0  0  0  0  0  0  0  0  0  0  0  0
  -21.4561  -29.1758   22.3857 N   0  0  0  0  0  0  0  0  0  0  0  0
  -21.0095  -24.0311   18.3399 N   0  0  0  0  0  0  0  0  0  0  0  0
  -28.9526  -16.5333   17.0823 N   0  0  0  0  0  0  0  0  0  0  0  0
  -22.3254  -23.5302   15.0105 N   0  3  0  0  0  0  0  0  0  0  0  0
  -28.5539  -22.7385   19.0370 O   0  0  0  0  0  0  0  0  0  0  0  0
  -26.7914  -17.5162   19.0644 O   0  0  0  0  0  0  0  0  0  0  0  0
  -28.3835  -11.3565   22.7732 O   0  0  0  0  0  0  0  0  0  0  0  0
  -22.8953  -27.3529   22.5539 O   0  0  0  0  0  0  0  0  0  0  0  0
  -20.0606  -26.3597   19.7132 O   0  0  0  0  0  0  0  0  0  0  0  0
  -23.1334  -23.3555   17.6999 O   0  0  0  0  0  0  0  0  0  0  0  0
  -27.4513  -17.0523   15.3916 O   0  0  0  0  0  0  0  0  0  0  0  0
  -21.2589   -8.2902   22.1220 O   0  0  0  0  0  0  0  0  0  0  0  0
  -28.5178  -26.7066   20.1759 O   0  0  0  0  0  0  0  0  0  1  0  0
  -22.1464   -3.6256   24.9252 F   0  0  0  0  0  0  0  0  0  0  0  0
  -20.2379   -5.8818   21.2276 F   0  0  0  0  0  0  0  0  0  0  0  0
  1  2  1  0  0  0  0
  1  5  2  0  0  0  0
  2  6  2  0  0  0  0
  3 10  2  0  0  0  0
  3 18  1  0  0  0  0
  4 11  1  0  0  0  0
  4 18  2  0  0  0  0
  5 21  1  0  0  0  0
  6 23  1  0  0  0  0
  7 12  2  0  0  0  0
  7 22  1  0  0  0  0
  8  9  2  0  0  0  0
  8 25  1  0  0  0  0
  9 26  1  0  0  0  0
 10 27  1  0  0  0  0
 11 27  2  0  0  0  0
 12 28  1  0  0  0  0
 13 14  2  0  0  0  0
 13 29  1  0  0  0  0
 14 30  1  0  0  0  0
 15 19  1  0  0  0  0
 15 25  2  0  0  0  0
 16 24  1  0  0  0  0
 16 28  2  0  0  0  0
 17 30  2  0  0  0  0
 17 31  1  0  0  0  0
 18 32  1  0  0  0  0
 19 26  2  0  0  0  0
 19 39  1  0  0  0  0
 20 32  1  0  0  0  0
 20 33  2  0  0  0  0
 20 40  1  0  0  0  0
 21 23  2  0  0  0  0
 21 45  1  0  0  0  0
 22 24  2  0  0  0  0
 22 46  1  0  0  0  0
 23 55  1  0  0  0  0
 24 47  1  0  0  0  0
 25 71  1  0  0  0  0
 26 78  1  0  0  0  0
 27 87  1  0  0  0  0
 28 88  1  0  0  0  0
 29 31  2  0  0  0  0
 29 87  1  0  0  0  0
 30 89  1  0  0  0  0
 31 90  1  0  0  0  0
 32 69  2  0  0  0  0
 33 70  1  0  0  0  0
 33 74  1  0  0  0  0
 34 35  1  0  0  0  0
 34 36  1  0  0  0  0
 34 38  2  0  0  0  0
 35 37  2  0  0  0  0
 35 48  1  0  0  0  0
 36 71  1  0  0  0  0
 36 80  2  0  0  0  0
 38 65  1  0  0  0  0
 39 58  1  0  0  0  0
 39 81  2  0  0  0  0
 40 75  1  0  0  0  0
 40 82  2  0  0  0  0
 41 56  1  0  0  0  0
 41 76  1  0  0  0  0
 41 83  2  0  0  0  0
 42 66  1  0  0  0  0
 42 72  1  0  0  0  0
 42 84  2  0  0  0  0
 43 67  1  0  0  0  0
 43 77  1  0  0  0  0
 43 85  2  0  0  0  0
 44 73  1  0  0  0  0
 44 78  1  0  0  0  0
 44 86  2  0  0  0  0
 45 49  1  0  0  0  0
 46 56  1  0  0  0  0
 47 72  1  0  0  0  0
 48 71  1  0  0  0  0
 49 51  1  0  0  0  0
 50 52  1  0  0  0  0
 50 53  1  0  0  0  0
 51 55  1  0  0  0  0
 52 57  1  0  0  0  0
 53 73  1  0  0  0  0
 54 57  1  0  0  0  0
 54 73  1  0  0  0  0
 55 76  1  0  0  0  0
 56 72  1  0  0  0  0
 57 70  1  0  0  0  0
 59 67  1  0  0  0  0
 60 68  1  0  0  0  0
 61 68  1  0  0  0  0
 62 68  1  0  0  0  0
 63 78  1  0  0  0  0
 64 79  1  0  0  0  0
 65 88  1  0  0  0  0
 66 68  1  0  0  0  0
 66 77  1  0  0  0  0
 67 79  1  0  0  0  0
 69 70  1  0  0  0  0
M  CHG  1  79   1
M  ISO  4  44 100  65 101  78 100  88 101
M  END
> <Batch ID>
0076

> <Smiles>
C=C1CN(c2ccc([100N:0](C)[100C:0](=O)N3CCCC(n4nc(-c5ccc(Oc6ccc(F)cc6F)cc5)c(C(N)=O)c4N)C3)c(C(C)=O)c2)C(=O)C1=C[101CH2:1][101O:1]c1ccc2c(c1)CN(C(=O)C(NC(=O)C(C)NC)C(C)(C)C)C(C(=O)NC1CCCc3ccccc31)C2

> <Shape>
0.234

> <Color>
0.098

> <Negative vol penalty>
0.000

$$$$

  -OEChem-04042323503D

 87 96  0     1  0  0  0  0  0999 V2000
  -21.9568  -33.3061   25.7207 C   0  0  0  0  0  0  0  0  0  0  0  0
  -22.3737  -32.3650   26.6565 C   0  0  0  0  0  0  0  0  0  0  0  0
  -23.0005   -9.8903   19.9862 C   0  0  0  0  0  0  0  0  0  0  0  0
  -23.7197   -9.9537   22.2918 C   0  0  0  0  0  0  0  0  0  0  0  0
  -22.0383  -33.0171   24.3592 C   0  0  0  0  0  0  0  0  0  0  0  0
  -22.8715  -31.1338   26.2314 C   0  0  0  0  0  0  0  0  0  0  0  0
  -27.6487  -26.1146   28.0488 C   0  0  0  0  0  0  0  0  0  0  0  0
  -22.2332   -8.7573   20.2566 C   0  0  0  0  0  0  0  0  0  0  0  0
  -22.9523   -8.8207   22.5623 C   0  0  0  0  0  0  0  0  0  0  0  0
  -27.7373  -24.7402   28.2656 C   0  0  0  0  0  0  0  0  0  0  0  0
  -23.1977   -5.4792   22.1089 C   0  0  0  0  0  0  0  0  0  0  0  0
  -23.7832   -4.4661   22.8680 C   0  0  0  0  0  0  0  0  0  0  0  0
  -27.9058  -24.3818   25.8860 C   0  0  0  0  0  0  0  0  0  0  0  0
  -29.8760  -17.4599   23.0798 C   0  0  0  0  0  0  0  0  0  0  0  0
  -32.0464  -16.5644   22.5585 C   0  0  0  0  0  0  0  0  0  0  0  0
  -22.0550   -4.7181   24.5374 C   0  0  0  0  0  0  0  0  0  0  0  0
  -23.7438  -10.4885   21.0038 C   0  0  0  0  0  0  0  0  0  0  0  0
  -24.1297  -13.0031   20.8152 C   0  0  0  0  0  0  0  0  0  0  0  0
  -22.5463  -31.7855   23.9168 C   0  0  0  0  0  0  0  0  0  0  0  0
  -27.6770  -26.6330   26.7462 C   0  0  0  0  0  0  0  0  0  0  0  0
  -22.9587  -30.8275   24.8627 C   0  0  0  0  0  0  0  0  0  0  0  0
  -27.8199  -25.7634   25.6555 C   0  0  0  0  0  0  0  0  0  0  0  0
  -30.6682  -16.5608   22.3746 C   0  0  0  0  0  0  0  0  0  0  0  0
  -22.2091   -8.2225   21.5446 C   0  0  0  0  0  0  0  0  0  0  0  0
  -27.8629  -23.8734   27.1840 C   0  0  0  0  0  0  0  0  0  0  0  0
  -22.0408   -6.1119   22.5641 C   0  0  0  0  0  0  0  0  0  0  0  0
  -23.2118   -4.0854   24.0823 C   0  0  0  0  0  0  0  0  0  0  0  0
  -21.4695   -5.7313   23.7783 C   0  0  0  0  0  0  0  0  0  0  0  0
  -24.5370  -11.6586   20.7249 C   0  0  0  0  0  0  0  0  0  0  0  0
  -30.5056  -18.3352   23.9499 C   0  0  0  0  0  0  0  0  0  0  0  0
  -32.5789  -17.4799   23.4519 C   0  0  0  0  0  0  0  0  0  0  0  0
  -25.2405  -13.7236   20.4499 C   0  0  0  0  0  0  0  0  0  0  0  0
  -28.9698  -20.8984   26.0568 C   0  0  0  0  0  0  0  0  0  0  0  0
  -27.7937  -20.3619   25.4192 C   0  0  0  0  0  0  0  0  0  0  0  0
  -30.1815  -20.1818   25.5699 C   0  0  0  0  0  0  0  0  0  0  0  0
  -26.5188  -20.7307   25.5836 C   0  0  0  0  0  0  0  0  0  0  0  0
  -22.8608  -13.5516   21.1955 C   0  0  0  0  0  0  0  0  0  0  0  0
  -29.0702  -21.8830   26.9567 C   0  0  0  0  0  0  0  0  0  1  0  0
  -25.6512  -28.2986   24.9502 C   0  0  0  0  0  0  0  0  0  0  0  0
  -28.1568  -28.3858   22.8919 C   0  0  0  0  0  0  0  0  0  0  0  0
  -31.0679  -26.9710   21.8097 C   0  0  0  0  0  0  0  0  0  0  0  0
  -30.7193  -14.6857   20.6930 C   0  0  0  0  0  0  0  0  0  0  0  0
  -22.5711  -31.5001   22.4361 C   0  0  0  0  0  0  0  0  0  0  0  0
  -27.6072  -28.1200   26.5307 C   0  0  0  0  0  0  0  0  0  0  0  0
  -27.8757  -26.2709   24.2386 C   0  0  0  0  0  0  0  0  0  0  0  0
  -28.2519  -19.2720   24.4980 C   0  0  0  0  0  0  0  0  0  0  0  0
  -23.4599  -30.3179   22.0584 C   0  0  0  0  0  0  0  0  0  0  0  0
  -29.6070  -12.2204   18.3774 C   0  0  0  0  0  0  0  0  0  0  0  0
  -23.1974  -29.1352   22.9852 C   0  0  0  0  0  0  0  0  0  0  0  0
  -28.1553  -11.9651   18.7891 C   0  0  0  0  0  0  0  0  0  0  0  0
  -30.5044  -12.4703   19.5882 C   0  0  0  0  0  0  0  0  0  0  0  0
  -28.5856  -13.2664   20.9124 C   0  0  0  0  0  0  0  0  0  0  0  0
  -23.5275  -29.4904   24.4400 C   0  0  1  0  0  0  0  0  0  0  0  0
  -27.1291  -28.4993   25.1325 C   0  0  1  0  0  0  0  0  0  0  0  0
  -27.6310  -13.0737   19.7227 C   0  0  2  0  0  0  0  0  0  0  0  0
  -30.3676  -22.3419   27.5403 C   0  0  0  0  0  0  0  0  0  0  0  0
  -32.8700  -27.2464   20.0853 C   0  0  0  0  0  0  0  0  0  0  0  0
  -26.2808  -27.2749   20.7574 C   0  0  0  0  0  0  0  0  0  0  0  0
  -28.2953  -26.6872   19.3919 C   0  0  0  0  0  0  0  0  0  0  0  0
  -27.8253  -29.0712   19.9562 C   0  0  0  0  0  0  0  0  0  0  0  0
  -33.1555  -27.3177   23.8786 C   0  0  0  0  0  0  0  0  0  0  0  0
  -28.6462  -27.5078   21.7656 C   0  0  1  0  0  0  0  0  0  0  0  0
  -32.4273  -27.5729   21.5031 C   0  0  2  0  0  0  0  0  0  0  0  0
  -27.7589  -27.6253   20.4942 C   0  0  0  0  0  0  0  0  0  0  0  0
  -25.8073  -11.5299   20.3327 N   0  0  0  0  0  0  0  0  0  0  0  0
  -31.8415  -18.3685   24.1549 N   0  0  0  0  0  0  0  0  0  0  0  0
  -26.2078  -12.8028   20.1733 N   0  0  0  0  0  0  0  0  0  0  0  0
  -29.7049  -19.2308   24.6516 N   0  0  0  0  0  0  0  0  0  0  0  0
  -27.7973  -27.7324   24.0792 N   0  0  0  0  0  0  0  0  0  0  0  0
  -29.9472  -13.5358   20.4243 N   0  0  0  0  0  0  0  0  0  0  0  0
  -33.9848  -17.4721   23.6282 N   0  0  0  0  0  0  0  0  0  0  0  0
  -25.4743  -15.0488   20.3413 N   0  0  0  0  0  0  0  0  0  0  0  0
  -21.8280  -12.6694   21.5410 N   0  0  0  0  0  0  0  0  0  0  0  0
  -30.0731  -15.6452   21.4717 N   0  0  0  0  0  0  0  0  0  0  0  0
  -24.9581  -29.4573   24.6562 N   0  0  0  0  0  0  0  0  0  0  0  0
  -30.0458  -27.8600   21.5521 N   0  0  0  0  0  0  0  0  0  0  0  0
  -33.4520  -27.0465   22.4484 N   0  3  0  0  0  0  0  0  0  0  0  0
  -31.3305  -20.3997   25.9161 O   0  0  0  0  0  0  0  0  0  0  0  0
  -22.6441  -14.7870   21.2120 O   0  0  0  0  0  0  0  0  0  0  0  0
  -25.1752  -27.1753   25.0661 O   0  0  0  0  0  0  0  0  0  0  0  0
  -28.1026  -29.6071   22.7269 O   0  0  0  0  0  0  0  0  0  0  0  0
  -30.9265  -25.8254   22.2318 O   0  0  0  0  0  0  0  0  0  0  0  0
  -31.8592  -14.8222   20.2412 O   0  0  0  0  0  0  0  0  0  0  0  0
  -21.4603   -7.1170   21.8089 O   0  0  0  0  0  0  0  0  0  0  0  0
  -27.9490  -22.5314   27.3928 O   0  0  0  0  0  0  0  0  0  1  0  0
  -23.7733   -3.1114   24.8104 F   0  0  0  0  0  0  0  0  0  0  0  0
  -20.3574   -6.3346   24.2202 F   0  0  0  0  0  0  0  0  0  0  0  0
  1  2  1  0  0  0  0
  1  5  2  0  0  0  0
  2  6  2  0  0  0  0
  3  8  2  0  0  0  0
  3 17  1  0  0  0  0
  4  9  1  0  0  0  0
  4 17  2  0  0  0  0
  5 19  1  0  0  0  0
  6 21  1  0  0  0  0
  7 10  2  0  0  0  0
  7 20  1  0  0  0  0
  8 24  1  0  0  0  0
  9 24  2  0  0  0  0
 10 25  1  0  0  0  0
 11 12  2  0  0  0  0
 11 26  1  0  0  0  0
 12 27  1  0  0  0  0
 13 22  1  0  0  0  0
 13 25  2  0  0  0  0
 14 23  2  0  0  0  0
 14 30  1  0  0  0  0
 15 23  1  0  0  0  0
 15 31  2  0  0  0  0
 16 27  2  0  0  0  0
 16 28  1  0  0  0  0
 17 29  1  0  0  0  0
 18 29  1  0  0  0  0
 18 32  2  0  0  0  0
 18 37  1  0  0  0  0
 19 21  2  0  0  0  0
 19 43  1  0  0  0  0
 20 22  2  0  0  0  0
 20 44  1  0  0  0  0
 21 53  1  0  0  0  0
 22 45  1  0  0  0  0
 23 74  1  0  0  0  0
 24 84  1  0  0  0  0
 25 85  1  0  0  0  0
 26 28  2  0  0  0  0
 26 84  1  0  0  0  0
 27 86  1  0  0  0  0
 28 87  1  0  0  0  0
 29 65  2  0  0  0  0
 30 66  2  0  0  0  0
 30 68  1  0  0  0  0
 31 66  1  0  0  0  0
 31 71  1  0  0  0  0
 32 67  1  0  0  0  0
 32 72  1  0  0  0  0
 33 34  1  0  0  0  0
 33 35  1  0  0  0  0
 33 38  2  0  0  0  0
 34 36  2  0  0  0  0
 34 46  1  0  0  0  0
 35 68  1  0  0  0  0
 35 78  2  0  0  0  0
 37 73  1  0  0  0  0
 37 79  2  0  0  0  0
 38 56  1  0  0  0  0
 38 85  1  0  0  0  0
 39 54  1  0  0  0  0
 39 75  1  0  0  0  0
 39 80  2  0  0  0  0
 40 62  1  0  0  0  0
 40 69  1  0  0  0  0
 40 81  2  0  0  0  0
 41 63  1  0  0  0  0
 41 76  1  0  0  0  0
 41 82  2  0  0  0  0
 42 70  1  0  0  0  0
 42 74  1  0  0  0  0
 42 83  2  0  0  0  0
 43 47  1  0  0  0  0
 44 54  1  0  0  0  0
 45 69  1  0  0  0  0
 46 68  1  0  0  0  0
 47 49  1  0  0  0  0
 48 50  1  0  0  0  0
 48 51  1  0  0  0  0
 49 53  1  0  0  0  0
 50 55  1  0  0  0  0
 51 70  1  0  0  0  0
 52 55  1  0  0  0  0
 52 70  1  0  0  0  0
 53 75  1  0  0  0  0
 54 69  1  0  0  0  0
 55 67  1  0  0  0  0
 57 63  1  0  0  0  0
 58 64  1  0  0  0  0
 59 64  1  0  0  0  0
 60 64  1  0  0  0  0
 61 77  1  0  0  0  0
 62 64  1  0  0  0  0
 62 76  1  0  0  0  0
 63 77  1  0  0  0  0
 65 67  1  0  0  0  0
M  CHG  1  77   1
M  ISO  4  38 101  42 100  74 100  85 101
M  END
> <Batch ID>
0076

> <Smiles>
C=C1CN(c2cc([100NH:0][100C:0](=O)N3CCCC(n4nc(-c5ccc(Oc6ccc(F)cc6F)cc5)c(C(N)=O)c4N)C3)cc(N)n2)C(=O)C1=[101C:1](C)[101O:1]c1ccc2c(c1)CN(C(=O)C(NC(=O)C(C)NC)C(C)(C)C)C(C(=O)NC1CCCc3ccccc31)C2

> <Shape>
0.247

> <Color>
0.186

> <Negative vol penalty>
0.000

$$$$

  -OEChem-04042323503D

 89 98  0     1  0  0  0  0  0999 V2000
  -27.2496  -36.5353   25.7822 C   0  0  0  0  0  0  0  0  0  0  0  0
  -27.1613  -35.3793   26.5511 C   0  0  0  0  0  0  0  0  0  0  0  0
  -31.4501  -21.9163   25.0932 C   0  0  0  0  0  0  0  0  0  0  0  0
  -24.4052   -9.6278   21.3718 C   0  0  0  0  0  0  0  0  0  0  0  0
  -24.8526  -10.6399   23.5195 C   0  0  0  0  0  0  0  0  0  0  0  0
  -26.9564  -36.4892   24.4199 C   0  0  0  0  0  0  0  0  0  0  0  0
  -26.7785  -34.1766   25.9582 C   0  0  0  0  0  0  0  0  0  0  0  0
  -28.7658  -28.5658   27.3990 C   0  0  0  0  0  0  0  0  0  0  0  0
  -31.1606  -21.1970   23.9337 C   0  0  0  0  0  0  0  0  0  0  0  0
  -30.4202  -22.5193   25.8153 C   0  0  0  0  0  0  0  0  0  0  0  0
  -24.0595   -8.4346   22.0060 C   0  0  0  0  0  0  0  0  0  0  0  0
  -24.5068   -9.4466   24.1538 C   0  0  0  0  0  0  0  0  0  0  0  0
  -28.2235  -27.5526   28.1885 C   0  0  0  0  0  0  0  0  0  0  0  0
  -21.3930   -7.1742   23.6594 C   0  0  0  0  0  0  0  0  0  0  0  0
  -20.2390   -6.5209   23.2269 C   0  0  0  0  0  0  0  0  0  0  0  0
  -27.2961  -26.5198   26.2156 C   0  0  0  0  0  0  0  0  0  0  0  0
  -21.5552   -4.5796   22.6473 C   0  0  0  0  0  0  0  0  0  0  0  0
  -24.8018  -10.7305   22.1285 C   0  0  0  0  0  0  0  0  0  0  0  0
  -24.3037  -13.0325   21.1485 C   0  0  0  0  0  0  0  0  0  0  0  0
  -26.5792  -35.2833   23.8081 C   0  0  0  0  0  0  0  0  0  0  0  0
  -28.5677  -28.5694   26.0107 C   0  0  0  0  0  0  0  0  0  0  0  0
  -26.4787  -34.1145   24.5867 C   0  0  0  0  0  0  0  0  0  0  0  0
  -27.8390  -27.5327   25.4104 C   0  0  0  0  0  0  0  0  0  0  0  0
  -29.8412  -21.0809   23.4962 C   0  0  0  0  0  0  0  0  0  0  0  0
  -29.1008  -22.4032   25.3778 C   0  0  0  0  0  0  0  0  0  0  0  0
  -24.1103   -8.3440   23.3970 C   0  0  0  0  0  0  0  0  0  0  0  0
  -27.4861  -26.5310   27.5972 C   0  0  0  0  0  0  0  0  0  0  0  0
  -22.6281   -6.5302   23.5858 C   0  0  0  0  0  0  0  0  0  0  0  0
  -20.3201   -5.2236   22.7208 C   0  0  0  0  0  0  0  0  0  0  0  0
  -22.7092   -5.2329   23.0797 C   0  0  0  0  0  0  0  0  0  0  0  0
  -28.8113  -21.6840   24.2182 C   0  0  0  0  0  0  0  0  0  0  0  0
  -25.1596  -11.9632   21.4739 C   0  0  0  0  0  0  0  0  0  0  0  0
  -25.1218  -13.9554   20.5441 C   0  0  0  0  0  0  0  0  0  0  0  0
  -30.3535  -19.6986   21.4786 C   0  0  0  0  0  0  0  0  0  0  0  0
  -22.8951  -13.1784   21.3726 C   0  0  0  0  0  0  0  0  0  0  0  0
  -27.1597  -30.5389   23.9510 C   0  0  0  0  0  0  0  0  0  0  0  0
  -28.4011  -28.5015   21.7533 C   0  0  0  0  0  0  0  0  0  0  0  0
  -29.5640  -25.3750   21.0325 C   0  0  0  0  0  0  0  0  0  0  0  0
  -28.1710  -23.7706   27.2764 C   0  0  0  0  0  0  0  0  0  0  0  0
  -29.8955  -16.8266   20.3204 C   0  0  0  0  0  0  0  0  0  0  0  0
  -26.2262  -35.2925   22.3419 C   0  0  0  0  0  0  0  0  0  0  0  0
  -29.1817  -29.6550   25.1700 C   0  0  0  0  0  0  0  0  0  0  0  0
  -27.6147  -27.4797   23.9220 C   0  0  0  0  0  0  0  0  0  0  0  0
  -26.1910  -33.9011   21.7151 C   0  0  0  0  0  0  0  0  0  0  0  0
  -29.8985  -13.5612   18.9243 C   0  0  0  0  0  0  0  0  0  0  0  0
  -25.4173  -32.9339   22.6055 C   0  0  0  0  0  0  0  0  0  0  0  0
  -28.5976  -12.9409   19.4369 C   0  0  0  0  0  0  0  0  0  0  0  0
  -30.5450  -14.4635   19.9732 C   0  0  0  0  0  0  0  0  0  0  0  0
  -28.3629  -14.8898   21.0330 C   0  0  0  0  0  0  0  0  0  0  0  0
  -28.2862  -19.9685   21.7652 C   0  0  0  0  0  0  0  0  0  0  0  0
  -26.0910  -32.7858   23.9751 C   0  0  1  0  0  0  0  0  0  0  0  0
  -28.4827  -29.8377   23.8264 C   0  0  1  0  0  0  0  0  0  0  0  0
  -27.6433  -14.0161   19.9911 C   0  0  2  0  0  0  0  0  0  0  0  0
  -29.1122  -19.1808   20.7110 C   0  0  1  0  0  0  0  0  0  0  0  0
  -28.9998  -19.6468   19.2719 C   0  0  0  0  0  0  0  0  0  0  0  0
  -30.4738  -23.9992   19.1412 C   0  0  0  0  0  0  0  0  0  0  0  0
  -26.1919  -23.2952   28.7652 C   0  0  0  0  0  0  0  0  0  0  0  0
  -25.5881  -28.2253   20.6042 C   0  0  0  0  0  0  0  0  0  0  0  0
  -26.3621  -26.1800   19.3853 C   0  0  0  0  0  0  0  0  0  0  0  0
  -27.4028  -28.3927   18.8916 C   0  0  0  0  0  0  0  0  0  0  0  0
  -32.1336  -24.9368   22.4339 C   0  0  0  0  0  0  0  0  0  0  0  0
  -27.9258  -27.2374   21.0788 C   0  0  1  0  0  0  0  0  0  0  0  0
  -30.8158  -24.9071   20.3123 C   0  0  2  0  0  0  0  0  0  0  0  0
  -26.8075  -24.2575   27.7602 C   0  0  1  0  0  0  0  0  0  1  0  0
  -26.8221  -27.5106   20.0182 C   0  0  0  0  0  0  0  0  0  0  0  0
  -26.4245  -12.1850   21.1065 N   0  0  0  0  0  0  0  0  0  0  0  0
  -26.3694  -13.4042   20.5439 N   0  0  0  0  0  0  0  0  0  0  0  0
  -29.5553  -20.3605   22.3359 N   0  0  0  0  0  0  0  0  0  0  0  0
  -28.2299  -28.5673   23.1434 N   0  0  0  0  0  0  0  0  0  0  0  0
  -29.5869  -15.4634   20.4517 N   0  0  0  0  0  0  0  0  0  0  0  0
  -24.8886  -15.1766   20.0181 N   0  0  0  0  0  0  0  0  0  0  0  0
  -22.2078  -12.1345   22.0069 N   0  0  0  0  0  0  0  0  0  0  0  0
  -28.0586  -23.0166   26.1129 N   0  0  0  0  0  0  0  0  0  0  0  0
  -27.2441  -31.9163   23.8797 N   0  0  0  0  0  0  0  0  0  0  0  0
  -29.1176  -26.5857   20.5465 N   0  0  0  0  0  0  0  0  0  0  0  0
  -28.9342  -17.7162   20.7888 N   0  0  0  0  0  0  0  0  0  0  0  0
  -31.7007  -24.1556   21.2468 N   0  3  0  0  0  0  0  0  0  0  0  0
  -31.5533  -19.5706   21.3867 O   0  0  0  0  0  0  0  0  0  0  0  0
  -22.2616  -14.1971   21.0062 O   0  0  0  0  0  0  0  0  0  0  0  0
  -26.1378  -29.8791   24.0994 O   0  0  0  0  0  0  0  0  0  0  0  0
  -28.9123  -29.3945   21.0730 O   0  0  0  0  0  0  0  0  0  0  0  0
  -29.0330  -24.7291   21.9333 O   0  0  0  0  0  0  0  0  0  0  0  0
  -29.2007  -24.0601   27.8790 O   0  0  0  0  0  0  0  0  0  0  0  0
  -30.9484  -17.2302   19.8148 O   0  0  0  0  0  0  0  0  0  0  0  0
  -23.7728   -7.1799   24.0163 O   0  0  0  0  0  0  0  0  0  0  0  0
  -26.9552  -25.5413   28.3656 O   0  0  0  0  0  0  0  0  0  1  0  0
  -19.2116   -4.5957   22.3070 F   0  0  0  0  0  0  0  0  0  0  0  0
  -23.8929   -4.6087   23.0077 F   0  0  0  0  0  0  0  0  0  0  0  0
  -27.5422  -21.5730   23.7966 F   0  0  0  0  0  0  0  0  0  0  0  0
  1  2  1  0  0  0  0
  1  6  2  0  0  0  0
  2  7  2  0  0  0  0
  3  9  1  0  0  0  0
  3 10  2  0  0  0  0
  4 11  2  0  0  0  0
  4 18  1  0  0  0  0
  5 12  1  0  0  0  0
  5 18  2  0  0  0  0
  6 20  1  0  0  0  0
  7 22  1  0  0  0  0
  8 13  2  0  0  0  0
  8 21  1  0  0  0  0
  9 24  2  0  0  0  0
 10 25  1  0  0  0  0
 11 26  1  0  0  0  0
 12 26  2  0  0  0  0
 13 27  1  0  0  0  0
 14 15  2  0  0  0  0
 14 28  1  0  0  0  0
 15 29  1  0  0  0  0
 16 23  1  0  0  0  0
 16 27  2  0  0  0  0
 17 29  2  0  0  0  0
 17 30  1  0  0  0  0
 18 32  1  0  0  0  0
 19 32  1  0  0  0  0
 19 33  2  0  0  0  0
 19 35  1  0  0  0  0
 20 22  2  0  0  0  0
 20 41  1  0  0  0  0
 21 23  2  0  0  0  0
 21 42  1  0  0  0  0
 22 51  1  0  0  0  0
 23 43  1  0  0  0  0
 24 31  1  0  0  0  0
 24 68  1  0  0  0  0
 25 31  2  0  0  0  0
 25 73  1  0  0  0  0
 26 85  1  0  0  0  0
 27 86  1  0  0  0  0
 28 30  2  0  0  0  0
 28 85  1  0  0  0  0
 29 87  1  0  0  0  0
 30 88  1  0  0  0  0
 31 89  1  0  0  0  0
 32 66  2  0  0  0  0
 33 67  1  0  0  0  0
 33 71  1  0  0  0  0
 34 54  1  0  0  0  0
 34 68  1  0  0  0  0
 34 78  2  0  0  0  0
 35 72  1  0  0  0  0
 35 79  2  0  0  0  0
 36 52  1  0  0  0  0
 36 74  1  0  0  0  0
 36 80  2  0  0  0  0
 37 62  1  0  0  0  0
 37 69  1  0  0  0  0
 37 81  2  0  0  0  0
 38 63  1  0  0  0  0
 38 75  1  0  0  0  0
 38 82  2  0  0  0  0
 39 64  1  0  0  0  0
 39 73  1  0  0  0  0
 39 83  2  0  0  0  0
 40 70  1  0  0  0  0
 40 76  1  0  0  0  0
 40 84  2  0  0  0  0
 41 44  1  0  0  0  0
 42 52  1  0  0  0  0
 43 69  1  0  0  0  0
 44 46  1  0  0  0  0
 45 47  1  0  0  0  0
 45 48  1  0  0  0  0
 46 51  1  0  0  0  0
 47 53  1  0  0  0  0
 48 70  1  0  0  0  0
 49 53  1  0  0  0  0
 49 70  1  0  0  0  0
 50 54  1  0  0  0  0
 50 68  1  0  0  0  0
 51 74  1  0  0  0  0
 52 69  1  0  0  0  0
 53 67  1  0  0  0  0
 54 55  1  0  0  0  0
 54 76  1  0  0  0  0
 56 63  1  0  0  0  0
 57 64  1  0  0  0  0
 58 65  1  0  0  0  0
 59 65  1  0  0  0  0
 60 65  1  0  0  0  0
 61 77  1  0  0  0  0
 62 65  1  0  0  0  0
 62 75  1  0  0  0  0
 63 77  1  0  0  0  0
 64 86  1  0  0  0  0
 66 67  1  0  0  0  0
M  CHG  1  77   1
M  ISO  4  40 100  64 101  76 100  86 101
M  END
> <Batch ID>
0076

> <Smiles>
CNC(C)C(=O)NC(C(=O)N1Cc2cc([101O:1][101CH:1](C)C(=O)Nc3cccc(N4CC(C)([100NH:0][100C:0](=O)N5CCCC(n6nc(-c7ccc(Oc8ccc(F)cc8F)cc7)c(C(N)=O)c6N)C5)C4=O)c3F)ccc2CC1C(=O)NC1CCCc2ccccc21)C(C)(C)C

> <Shape>
0.285

> <Color>
0.097

> <Negative vol penalty>
0.000

$$$$

  -OEChem-04042323503D

 85 94  0     1  0  0  0  0  0999 V2000
  -26.4901  -35.0587   23.4919 C   0  0  0  0  0  0  0  0  0  0  0  0
  -26.9496  -33.7741   23.2197 C   0  0  0  0  0  0  0  0  0  0  0  0
  -28.9761  -19.9640   23.6054 C   0  0  0  0  0  0  0  0  0  0  0  0
  -23.3098  -10.5122   21.9909 C   0  0  0  0  0  0  0  0  0  0  0  0
  -24.7551   -8.8332   21.0268 C   0  0  0  0  0  0  0  0  0  0  0  0
  -25.1935  -35.2477   23.9684 C   0  0  0  0  0  0  0  0  0  0  0  0
  -26.1130  -32.6776   23.4249 C   0  0  0  0  0  0  0  0  0  0  0  0
  -26.2627  -29.3750   19.5888 C   0  0  0  0  0  0  0  0  0  0  0  0
  -28.8732  -21.1568   22.8897 C   0  0  0  0  0  0  0  0  0  0  0  0
  -28.8948  -18.7414   22.9387 C   0  0  0  0  0  0  0  0  0  0  0  0
  -22.2421   -9.6156   21.9517 C   0  0  0  0  0  0  0  0  0  0  0  0
  -23.6873   -7.9365   20.9877 C   0  0  0  0  0  0  0  0  0  0  0  0
  -27.3603  -28.5173   19.5295 C   0  0  0  0  0  0  0  0  0  0  0  0
  -22.0465   -5.9238   23.1503 C   0  0  0  0  0  0  0  0  0  0  0  0
  -22.2812   -4.6194   23.5852 C   0  0  0  0  0  0  0  0  0  0  0  0
  -26.0304  -26.7576   20.5062 C   0  0  0  0  0  0  0  0  0  0  0  0
  -28.6073  -19.9045   20.8407 C   0  0  0  0  0  0  0  0  0  0  0  0
  -21.6650   -3.7814   21.4046 C   0  0  0  0  0  0  0  0  0  0  0  0
  -24.5664  -10.1210   21.5284 C   0  0  0  0  0  0  0  0  0  0  0  0
  -26.5867  -11.2320   22.6200 C   0  0  0  0  0  0  0  0  0  0  0  0
  -24.3374  -34.1537   24.1703 C   0  0  0  0  0  0  0  0  0  0  0  0
  -25.0418  -28.9329   20.1182 C   0  0  0  0  0  0  0  0  0  0  0  0
  -24.8041  -32.8520   23.9058 C   0  0  0  0  0  0  0  0  0  0  0  0
  -24.9181  -27.6108   20.5688 C   0  0  0  0  0  0  0  0  0  0  0  0
  -28.6888  -21.1271   21.5074 C   0  0  0  0  0  0  0  0  0  0  0  0
  -28.7103  -18.7117   21.5564 C   0  0  0  0  0  0  0  0  0  0  0  0
  -22.4308   -8.3278   21.4501 C   0  0  0  0  0  0  0  0  0  0  0  0
  -27.2451  -27.2093   19.9909 C   0  0  0  0  0  0  0  0  0  0  0  0
  -21.6210   -6.1569   21.8425 C   0  0  0  0  0  0  0  0  0  0  0  0
  -22.0905   -3.5482   22.7124 C   0  0  0  0  0  0  0  0  0  0  0  0
  -21.4303   -5.0858   20.9697 C   0  0  0  0  0  0  0  0  0  0  0  0
  -25.6696  -11.0469   21.5680 C   0  0  0  0  0  0  0  0  0  0  0  0
  -27.4316  -12.2167   22.1696 C   0  0  0  0  0  0  0  0  0  0  0  0
  -28.3466  -24.0226   19.8069 C   0  0  0  0  0  0  0  0  0  0  0  0
  -28.6308  -23.6054   21.1805 C   0  0  0  0  0  0  0  0  0  0  0  0
  -26.6676  -10.5727   23.8906 C   0  0  0  0  0  0  0  0  0  0  0  0
  -28.1958  -25.2237   19.2006 C   0  0  0  0  0  0  0  0  0  1  0  0
  -23.2316  -29.7778   22.5907 C   0  0  0  0  0  0  0  0  0  0  0  0
  -21.1671  -27.6251   21.3157 C   0  0  0  0  0  0  0  0  0  0  0  0
  -20.6981  -24.8655   19.3633 C   0  0  0  0  0  0  0  0  0  0  0  0
  -27.8613  -17.3018   19.6892 C   0  0  0  0  0  0  0  0  0  0  0  0
  -22.9601  -34.4038   24.7317 C   0  0  0  0  0  0  0  0  0  0  0  0
  -23.8597  -29.8624   20.1505 C   0  0  0  0  0  0  0  0  0  0  0  0
  -23.6235  -27.0812   21.1274 C   0  0  0  0  0  0  0  0  0  0  0  0
  -28.2998  -22.5667   19.4033 C   0  0  0  0  0  0  0  0  0  0  0  0
  -22.0108  -33.2198   24.5665 C   0  0  0  0  0  0  0  0  0  0  0  0
  -27.9764  -14.2707   17.5894 C   0  0  0  0  0  0  0  0  0  0  0  0
  -22.6990  -31.9222   24.9781 C   0  0  0  0  0  0  0  0  0  0  0  0
  -27.3987  -13.1968   18.5097 C   0  0  0  0  0  0  0  0  0  0  0  0
  -27.4045  -15.6508   17.8998 C   0  0  0  0  0  0  0  0  0  0  0  0
  -26.9826  -14.9843   20.2467 C   0  0  0  0  0  0  0  0  0  0  0  0
  -23.9182  -31.6393   24.0921 C   0  0  1  0  0  0  0  0  0  0  0  0
  -22.8114  -29.4603   21.1835 C   0  0  1  0  0  0  0  0  0  0  0  0
  -27.5716  -13.5894   19.9872 C   0  0  1  0  0  0  0  0  0  0  0  0
  -27.9011  -25.4050   17.7454 C   0  0  0  0  0  0  0  0  0  0  0  0
  -18.9034  -23.3167   18.5402 C   0  0  0  0  0  0  0  0  0  0  0  0
  -21.0793  -26.2768   24.0515 C   0  0  0  0  0  0  0  0  0  0  0  0
  -20.0761  -24.2645   22.9502 C   0  0  0  0  0  0  0  0  0  0  0  0
  -18.8657  -26.4451   22.8999 C   0  0  0  0  0  0  0  0  0  0  0  0
  -29.5396  -16.3699   21.2654 C   0  0  0  0  0  0  0  0  0  0  0  0
  -21.2323  -25.5615   16.5368 C   0  0  0  0  0  0  0  0  0  0  0  0
  -20.9336  -26.1424   21.4772 C   0  0  1  0  0  0  0  0  0  0  0  0
  -19.7067  -24.5753   18.2510 C   0  0  2  0  0  0  0  0  0  0  0  0
  -20.2638  -25.7924   22.8360 C   0  0  0  0  0  0  0  0  0  0  0  0
  -25.9093  -11.8498   20.5278 N   0  0  0  0  0  0  0  0  0  0  0  0
  -26.9865  -12.5489   20.9239 N   0  0  0  0  0  0  0  0  0  0  0  0
  -28.5878  -22.3039   20.8022 N   0  0  0  0  0  0  0  0  0  0  0  0
  -22.4982  -28.0304   21.1437 N   0  0  0  0  0  0  0  0  0  0  0  0
  -27.5407  -15.9802   19.3191 N   0  0  0  0  0  0  0  0  0  0  0  0
  -28.5045  -12.8223   22.7216 N   0  0  0  0  0  0  0  0  0  0  0  0
  -25.7201   -9.5850   24.1923 N   0  0  0  0  0  0  0  0  0  0  0  0
  -23.5001  -31.1155   22.8094 N   0  0  0  0  0  0  0  0  0  0  0  0
  -20.1700  -25.7196   20.3082 N   0  0  0  0  0  0  0  0  0  0  0  0
  -28.6262  -17.4459   20.8669 N   0  0  0  0  0  0  0  0  0  0  0  0
  -20.4206  -24.3900   16.9560 N   0  3  0  0  0  0  0  0  0  0  0  0
  -28.8160  -24.1803   22.2329 O   0  0  0  0  0  0  0  0  0  0  0  0
  -27.5438  -10.8628   24.7400 O   0  0  0  0  0  0  0  0  0  0  0  0
  -23.3052  -28.8761   23.4173 O   0  0  0  0  0  0  0  0  0  0  0  0
  -20.2031  -28.3946   21.3341 O   0  0  0  0  0  0  0  0  0  0  0  0
  -21.8268  -24.3800   19.3930 O   0  0  0  0  0  0  0  0  0  0  0  0
  -27.5167  -18.2728   19.0050 O   0  0  0  0  0  0  0  0  0  0  0  0
  -21.3891   -7.4525   21.4119 O   0  0  0  0  0  0  0  0  0  0  0  0
  -28.3150  -26.3703   19.9348 O   0  0  0  0  0  0  0  0  0  1  0  0
  -22.3174   -2.2958   23.1298 F   0  0  0  0  0  0  0  0  0  0  0  0
  -21.0227   -5.3036   19.7118 F   0  0  0  0  0  0  0  0  0  0  0  0
  1  2  1  0  0  0  0
  1  6  2  0  0  0  0
  2  7  2  0  0  0  0
  3  9  2  0  0  0  0
  3 10  1  0  0  0  0
  4 11  2  0  0  0  0
  4 19  1  0  0  0  0
  5 12  1  0  0  0  0
  5 19  2  0  0  0  0
  6 21  1  0  0  0  0
  7 23  1  0  0  0  0
  8 13  2  0  0  0  0
  8 22  1  0  0  0  0
  9 25  1  0  0  0  0
 10 26  2  0  0  0  0
 11 27  1  0  0  0  0
 12 27  2  0  0  0  0
 13 28  1  0  0  0  0
 14 15  2  0  0  0  0
 14 29  1  0  0  0  0
 15 30  1  0  0  0  0
 16 24  1  0  0  0  0
 16 28  2  0  0  0  0
 17 25  2  0  0  0  0
 17 26  1  0  0  0  0
 18 30  2  0  0  0  0
 18 31  1  0  0  0  0
 19 32  1  0  0  0  0
 20 32  1  0  0  0  0
 20 33  2  0  0  0  0
 20 36  1  0  0  0  0
 21 23  2  0  0  0  0
 21 42  1  0  0  0  0
 22 24  2  0  0  0  0
 22 43  1  0  0  0  0
 23 52  1  0  0  0  0
 24 44  1  0  0  0  0
 25 67  1  0  0  0  0
 26 74  1  0  0  0  0
 27 82  1  0  0  0  0
 28 83  1  0  0  0  0
 29 31  2  0  0  0  0
 29 82  1  0  0  0  0
 30 84  1  0  0  0  0
 31 85  1  0  0  0  0
 32 65  2  0  0  0  0
 33 66  1  0  0  0  0
 33 70  1  0  0  0  0
 34 35  1  0  0  0  0
 34 37  2  0  0  0  0
 34 45  1  0  0  0  0
 35 67  1  0  0  0  0
 35 76  2  0  0  0  0
 36 71  1  0  0  0  0
 36 77  2  0  0  0  0
 37 55  1  0  0  0  0
 37 83  1  0  0  0  0
 38 53  1  0  0  0  0
 38 72  1  0  0  0  0
 38 78  2  0  0  0  0
 39 62  1  0  0  0  0
 39 68  1  0  0  0  0
 39 79  2  0  0  0  0
 40 63  1  0  0  0  0
 40 73  1  0  0  0  0
 40 80  2  0  0  0  0
 41 69  1  0  0  0  0
 41 74  1  0  0  0  0
 41 81  2  0  0  0  0
 42 46  1  0  0  0  0
 43 53  1  0  0  0  0
 44 68  1  0  0  0  0
 45 67  1  0  0  0  0
 46 48  1  0  0  0  0
 47 49  1  0  0  0  0
 47 50  1  0  0  0  0
 48 52  1  0  0  0  0
 49 54  1  0  0  0  0
 50 69  1  0  0  0  0
 51 54  1  0  0  0  0
 51 69  1  0  0  0  0
 52 72  1  0  0  0  0
 53 68  1  0  0  0  0
 54 66  1  0  0  0  0
 56 63  1  0  0  0  0
 57 64  1  0  0  0  0
 58 64  1  0  0  0  0
 59 64  1  0  0  0  0
 60 74  1  0  0  0  0
 61 75  1  0  0  0  0
 62 64  1  0  0  0  0
 62 73  1  0  0  0  0
 63 75  1  0  0  0  0
 65 66  1  0  0  0  0
M  CHG  1  75   1
M  ISO  4  37 101  41 100  74 100  83 101
M  END
> <Batch ID>
0076

> <Smiles>
CNC(C)C(=O)NC(C(=O)N1Cc2cc([101O:1][101C:1](C)=C3CN(c4cccc([100N:0](C)[100C:0](=O)N5CCCC(n6nc(-c7ccc(Oc8ccc(F)cc8F)cc7)c(C(N)=O)c6N)C5)c4)C3=O)ccc2CC1C(=O)NC1CCCc2ccccc21)C(C)(C)C

> <Shape>
0.312

> <Color>
0.111

> <Negative vol penalty>
0.000

$$$$

  -OEChem-04042323503D

 88 97  0     1  0  0  0  0  0999 V2000
  -25.3984  -19.5730   18.4120 C   0  0  0  0  0  0  0  0  0  0  0  0
  -25.9112  -19.5916   19.7051 C   0  0  0  0  0  0  0  0  0  0  0  0
  -23.1580   -9.6965   20.0568 C   0  0  0  0  0  0  0  0  0  0  0  0
  -23.8323   -9.9218   22.3658 C   0  0  0  0  0  0  0  0  0  0  0  0
  -25.9739  -20.3703   17.4236 C   0  0  0  0  0  0  0  0  0  0  0  0
  -27.0006  -20.4067   20.0103 C   0  0  0  0  0  0  0  0  0  0  0  0
  -28.0481  -23.3279   25.2900 C   0  0  0  0  0  0  0  0  0  0  0  0
  -32.3568  -17.9096   23.2182 C   0  0  0  0  0  0  0  0  0  0  0  0
  -31.8115  -16.9404   22.3763 C   0  0  0  0  0  0  0  0  0  0  0  0
  -22.4451   -8.5413   20.3777 C   0  0  0  0  0  0  0  0  0  0  0  0
  -23.1193   -8.7667   22.6867 C   0  0  0  0  0  0  0  0  0  0  0  0
  -28.8493  -23.0209   26.3889 C   0  0  0  0  0  0  0  0  0  0  0  0
  -19.9002   -7.9028   23.2447 C   0  0  0  0  0  0  0  0  0  0  0  0
  -19.1024   -7.9321   24.3885 C   0  0  0  0  0  0  0  0  0  0  0  0
  -30.1407  -18.7514   23.6845 C   0  0  0  0  0  0  0  0  0  0  0  0
  -30.6077  -24.4033   25.4853 C   0  0  0  0  0  0  0  0  0  0  0  0
  -20.3811   -6.1097   25.3271 C   0  0  0  0  0  0  0  0  0  0  0  0
  -23.8517  -10.3867   21.0509 C   0  0  0  0  0  0  0  0  0  0  0  0
  -29.5954  -17.7822   22.8425 C   0  0  0  0  0  0  0  0  0  0  0  0
  -24.1116  -12.9041   20.7302 C   0  0  0  0  0  0  0  0  0  0  0  0
  -27.0648  -21.2030   17.7191 C   0  0  0  0  0  0  0  0  0  0  0  0
  -28.5255  -24.1676   24.2734 C   0  0  0  0  0  0  0  0  0  0  0  0
  -27.5921  -21.2150   19.0245 C   0  0  0  0  0  0  0  0  0  0  0  0
  -29.8096  -24.7214   24.3758 C   0  0  0  0  0  0  0  0  0  0  0  0
  -31.5214  -18.8151   23.8724 C   0  0  0  0  0  0  0  0  0  0  0  0
  -30.4308  -16.8767   22.1884 C   0  0  0  0  0  0  0  0  0  0  0  0
  -22.4257   -8.0764   21.6926 C   0  0  0  0  0  0  0  0  0  0  0  0
  -30.1304  -23.5563   26.4853 C   0  0  0  0  0  0  0  0  0  0  0  0
  -20.9384   -6.9768   23.1420 C   0  0  0  0  0  0  0  0  0  0  0  0
  -19.3429   -7.0357   25.4297 C   0  0  0  0  0  0  0  0  0  0  0  0
  -21.1788   -6.0803   24.1832 C   0  0  0  0  0  0  0  0  0  0  0  0
  -24.5888  -11.5797   20.7199 C   0  0  0  0  0  0  0  0  0  0  0  0
  -25.1903  -13.6608   20.3423 C   0  0  0  0  0  0  0  0  0  0  0  0
  -31.4404  -20.3355   25.8353 C   0  0  0  0  0  0  0  0  0  0  0  0
  -33.8204  -21.4571   25.2769 C   0  0  0  0  0  0  0  0  0  0  0  0
  -31.9469  -21.3407   26.5677 C   0  0  0  0  0  0  0  0  0  0  0  0
  -28.1488  -17.7425   22.6676 C   0  0  0  0  0  0  0  0  0  0  0  0
  -22.8097  -13.4056   21.0610 C   0  0  0  0  0  0  0  0  0  0  0  0
  -29.0923  -23.8272   21.1643 C   0  0  0  0  0  0  0  0  0  0  0  0
  -29.6731  -27.0149   21.3181 C   0  0  0  0  0  0  0  0  0  0  0  0
  -30.5608  -29.7099   23.2145 C   0  0  0  0  0  0  0  0  0  0  0  0
  -30.6076  -14.9187   20.6132 C   0  0  0  0  0  0  0  0  0  0  0  0
  -27.6833  -22.0115   16.6062 C   0  0  0  0  0  0  0  0  0  0  0  0
  -27.6389  -24.5104   23.1077 C   0  0  0  0  0  0  0  0  0  0  0  0
  -30.3616  -25.6444   23.3214 C   0  0  0  0  0  0  0  0  0  0  0  0
  -33.4335  -20.2725   24.4230 C   0  0  0  0  0  0  0  0  0  0  0  0
  -28.5984  -23.1287   17.1010 C   0  0  0  0  0  0  0  0  0  0  0  0
  -29.6639  -12.2771   18.4203 C   0  0  0  0  0  0  0  0  0  0  0  0
  -29.5403  -22.6078   18.1819 C   0  0  0  0  0  0  0  0  0  0  0  0
  -28.2201  -11.9692   18.8239 C   0  0  0  0  0  0  0  0  0  0  0  0
  -30.5258  -12.6385   19.6287 C   0  0  0  0  0  0  0  0  0  0  0  0
  -28.5457  -13.4041   20.8787 C   0  0  0  0  0  0  0  0  0  0  0  0
  -28.7572  -22.1046   19.4005 C   0  0  1  0  0  0  0  0  0  0  0  0
  -28.4183  -24.9650   21.8776 C   0  0  1  0  0  0  0  0  0  0  0  0
  -27.6234  -13.0978   19.6874 C   0  0  2  0  0  0  0  0  0  0  0  0
  -27.3018  -18.2005   23.8172 C   0  0  0  0  0  0  0  0  0  0  0  0
  -32.0780  -21.7788   29.0256 C   0  0  0  0  0  0  0  0  0  0  0  0
  -30.9881  -32.1774   23.0529 C   0  0  0  0  0  0  0  0  0  0  0  0
  -32.3735  -26.4591   20.0110 C   0  0  0  0  0  0  0  0  0  0  0  0
  -33.1147  -28.7382   20.7352 C   0  0  0  0  0  0  0  0  0  0  0  0
  -31.1996  -28.4949   19.1554 C   0  0  0  0  0  0  0  0  0  0  0  0
  -28.3819  -30.3295   25.1191 C   0  0  0  0  0  0  0  0  0  0  0  0
  -31.2296  -21.8820   27.7677 C   0  0  1  0  0  0  0  0  0  1  0  0
  -30.8894  -27.8683   21.5850 C   0  0  1  0  0  0  0  0  0  0  0  0
  -29.9567  -31.0970   23.3387 C   0  0  2  0  0  0  0  0  0  0  0  0
  -31.8850  -27.8712   20.3907 C   0  0  0  0  0  0  0  0  0  0  0  0
  -25.8707  -11.4964   20.3543 N   0  0  0  0  0  0  0  0  0  0  0  0
  -33.1431  -21.9474   26.2694 N   0  0  0  0  0  0  0  0  0  0  0  0
  -26.2082  -12.7779   20.1311 N   0  0  0  0  0  0  0  0  0  0  0  0
  -32.0779  -19.8031   24.7309 N   0  0  0  0  0  0  0  0  0  0  0  0
  -29.4587  -25.9444   22.1979 N   0  0  0  0  0  0  0  0  0  0  0  0
  -29.9002  -13.7172   20.3967 N   0  0  0  0  0  0  0  0  0  0  0  0
  -25.3578  -14.9884   20.1646 N   0  0  0  0  0  0  0  0  0  0  0  0
  -21.8176  -12.4907   21.4392 N   0  0  0  0  0  0  0  0  0  0  0  0
  -29.8994  -15.8838   21.3284 N   0  0  0  0  0  0  0  0  0  0  0  0
  -28.3046  -23.2186   20.2058 N   0  0  0  0  0  0  0  0  0  0  0  0
  -30.3892  -29.1895   21.9492 N   0  0  0  0  0  0  0  0  0  0  0  0
  -29.4234  -31.3084   24.7142 N   0  3  0  0  0  0  0  0  0  0  0  0
  -27.5740  -17.3570   21.6497 O   0  0  0  0  0  0  0  0  0  0  0  0
  -22.5298  -14.6271   21.0064 O   0  0  0  0  0  0  0  0  0  0  0  0
  -30.2423  -23.5249   21.4605 O   0  0  0  0  0  0  0  0  0  0  0  0
  -28.9363  -27.2923   20.3685 O   0  0  0  0  0  0  0  0  0  0  0  0
  -31.1313  -29.1459   24.1456 O   0  0  0  0  0  0  0  0  0  0  0  0
  -31.7467  -15.0896   20.1716 O   0  0  0  0  0  0  0  0  0  0  0  0
  -21.7300   -6.9494   22.0061 O   0  0  0  0  0  0  0  0  0  0  0  0
  -30.9147  -23.2578   27.5565 O   0  0  0  0  0  0  0  0  0  1  0  0
  -18.5777   -7.0650   26.5287 F   0  0  0  0  0  0  0  0  0  0  0  0
  -22.1755   -5.1893   24.0909 F   0  0  0  0  0  0  0  0  0  0  0  0
  1  2  1  0  0  0  0
  1  5  2  0  0  0  0
  2  6  2  0  0  0  0
  3 10  2  0  0  0  0
  3 18  1  0  0  0  0
  4 11  1  0  0  0  0
  4 18  2  0  0  0  0
  5 21  1  0  0  0  0
  6 23  1  0  0  0  0
  7 12  2  0  0  0  0
  7 22  1  0  0  0  0
  8  9  2  0  0  0  0
  8 25  1  0  0  0  0
  9 26  1  0  0  0  0
 10 27  1  0  0  0  0
 11 27  2  0  0  0  0
 12 28  1  0  0  0  0
 13 14  2  0  0  0  0
 13 29  1  0  0  0  0
 14 30  1  0  0  0  0
 15 19  1  0  0  0  0
 15 25  2  0  0  0  0
 16 24  1  0  0  0  0
 16 28  2  0  0  0  0
 17 30  2  0  0  0  0
 17 31  1  0  0  0  0
 18 32  1  0  0  0  0
 19 26  2  0  0  0  0
 19 37  1  0  0  0  0
 20 32  1  0  0  0  0
 20 33  2  0  0  0  0
 20 38  1  0  0  0  0
 21 23  2  0  0  0  0
 21 43  1  0  0  0  0
 22 24  2  0  0  0  0
 22 44  1  0  0  0  0
 23 53  1  0  0  0  0
 24 45  1  0  0  0  0
 25 70  1  0  0  0  0
 26 75  1  0  0  0  0
 27 85  1  0  0  0  0
 28 86  1  0  0  0  0
 29 31  2  0  0  0  0
 29 85  1  0  0  0  0
 30 87  1  0  0  0  0
 31 88  1  0  0  0  0
 32 67  2  0  0  0  0
 33 69  1  0  0  0  0
 33 73  1  0  0  0  0
 34 36  2  0  0  0  0
 34 70  1  0  0  0  0
 35 46  1  0  0  0  0
 35 68  2  0  0  0  0
 36 63  1  0  0  0  0
 36 68  1  0  0  0  0
 37 56  1  0  0  0  0
 37 79  2  0  0  0  0
 38 74  1  0  0  0  0
 38 80  2  0  0  0  0
 39 54  1  0  0  0  0
 39 76  1  0  0  0  0
 39 81  2  0  0  0  0
 40 64  1  0  0  0  0
 40 71  1  0  0  0  0
 40 82  2  0  0  0  0
 41 65  1  0  0  0  0
 41 77  1  0  0  0  0
 41 83  2  0  0  0  0
 42 72  1  0  0  0  0
 42 75  1  0  0  0  0
 42 84  2  0  0  0  0
 43 47  1  0  0  0  0
 44 54  1  0  0  0  0
 45 71  1  0  0  0  0
 46 70  1  0  0  0  0
 47 49  1  0  0  0  0
 48 50  1  0  0  0  0
 48 51  1  0  0  0  0
 49 53  1  0  0  0  0
 50 55  1  0  0  0  0
 51 72  1  0  0  0  0
 52 55  1  0  0  0  0
 52 72  1  0  0  0  0
 53 76  1  0  0  0  0
 54 71  1  0  0  0  0
 55 69  1  0  0  0  0
 57 63  1  0  0  0  0
 58 65  1  0  0  0  0
 59 66  1  0  0  0  0
 60 66  1  0  0  0  0
 61 66  1  0  0  0  0
 62 78  1  0  0  0  0
 63 86  1  0  0  0  0
 64 66  1  0  0  0  0
 64 77  1  0  0  0  0
 65 78  1  0  0  0  0
 67 69  1  0  0  0  0
M  CHG  1  78   1
M  ISO  4  42 100  63 101  75 100  86 101
M  END
> <Batch ID>
0076

> <Smiles>
CNC(C)C(=O)NC(C(=O)N1Cc2cc([101O:1][101C:1](C)=C3CN(c4ccc([100NH:0][100C:0](=O)N5CCCC(n6nc(-c7ccc(Oc8ccc(F)cc8F)cc7)c(C(N)=O)c6N)C5)c(C(C)=O)c4)CC=N3)ccc2CC1C(=O)NC1CCCc2ccccc21)C(C)(C)C

> <Shape>
0.243

> <Color>
0.191

> <Negative vol penalty>
0.000

$$$$

  -OEChem-04042323503D

 88 97  0     1  0  0  0  0  0999 V2000
  -23.4470  -11.2628   18.9807 C   0  0  0  0  0  0  0  0  0  0  0  0
  -22.8147  -12.4915   18.8201 C   0  0  0  0  0  0  0  0  0  0  0  0
  -25.6994  -24.8943   18.7494 C   0  0  0  0  0  0  0  0  0  0  0  0
  -24.5962  -26.3227   17.1433 C   0  0  0  0  0  0  0  0  0  0  0  0
  -24.5696  -11.1598   19.8011 C   0  0  0  0  0  0  0  0  0  0  0  0
  -23.3039  -13.6178   19.4809 C   0  0  0  0  0  0  0  0  0  0  0  0
  -23.3018  -19.3852   17.4210 C   0  0  0  0  0  0  0  0  0  0  0  0
  -20.0433  -25.9600   22.6538 C   0  0  0  0  0  0  0  0  0  0  0  0
  -18.8476  -27.8798   21.8043 C   0  0  0  0  0  0  0  0  0  0  0  0
  -20.8836  -26.8044   23.3794 C   0  0  0  0  0  0  0  0  0  0  0  0
  -19.6878  -28.7242   22.5299 C   0  0  0  0  0  0  0  0  0  0  0  0
  -25.4495  -23.7881   17.9374 C   0  0  0  0  0  0  0  0  0  0  0  0
  -24.3463  -25.2165   16.3312 C   0  0  0  0  0  0  0  0  0  0  0  0
  -22.4529  -20.4655   17.6580 C   0  0  0  0  0  0  0  0  0  0  0  0
  -26.0575  -23.3080   14.1289 C   0  0  0  0  0  0  0  0  0  0  0  0
  -26.3051  -23.4398   12.7626 C   0  0  0  0  0  0  0  0  0  0  0  0
  -23.9592  -21.2674   19.3630 C   0  0  0  0  0  0  0  0  0  0  0  0
  -23.9846  -22.9557   12.2955 C   0  0  0  0  0  0  0  0  0  0  0  0
  -25.2727  -26.1616   18.3524 C   0  0  0  0  0  0  0  0  0  0  0  0
  -26.7850  -27.7903   19.6046 C   0  0  0  0  0  0  0  0  0  0  0  0
  -25.0787  -12.2873   20.4646 C   0  0  0  0  0  0  0  0  0  0  0  0
  -24.4823  -19.2317   18.1621 C   0  0  0  0  0  0  0  0  0  0  0  0
  -24.4336  -13.5295   20.3120 C   0  0  0  0  0  0  0  0  0  0  0  0
  -24.8226  -20.1856   19.1318 C   0  0  0  0  0  0  0  0  0  0  0  0
  -19.0253  -26.4977   21.8662 C   0  0  0  0  0  0  0  0  0  0  0  0
  -20.7058  -28.1865   23.3175 C   0  0  0  0  0  0  0  0  0  0  0  0
  -24.7730  -23.9492   16.7282 C   0  0  0  0  0  0  0  0  0  0  0  0
  -22.7801  -21.4052   18.6311 C   0  0  0  0  0  0  0  0  0  0  0  0
  -24.7735  -22.9998   14.5786 C   0  0  0  0  0  0  0  0  0  0  0  0
  -25.2686  -23.2637   11.8458 C   0  0  0  0  0  0  0  0  0  0  0  0
  -23.7371  -22.8237   13.6618 C   0  0  0  0  0  0  0  0  0  0  0  0
  -25.5301  -27.3046   19.1911 C   0  0  0  0  0  0  0  0  0  0  0  0
  -26.4910  -28.8848   20.3805 C   0  0  0  0  0  0  0  0  0  0  0  0
  -19.5644  -24.7909   17.7856 C   0  0  0  0  0  0  0  0  0  0  0  0
  -19.9660  -23.7238   18.4883 C   0  0  0  0  0  0  0  0  0  0  0  0
  -18.7919  -25.6704   18.6892 C   0  0  0  0  0  0  0  0  0  0  0  0
  -19.4680  -23.8719   19.8734 C   0  0  0  0  0  0  0  0  0  0  0  0
  -28.0991  -27.2963   19.3132 C   0  0  0  0  0  0  0  0  0  0  0  0
  -25.6057  -17.0304   20.1611 C   0  0  0  0  0  0  0  0  0  0  0  0
  -28.2896  -18.8480   20.0370 C   0  0  0  0  0  0  0  0  0  0  0  0
  -29.6957  -21.9023   19.4536 C   0  0  0  0  0  0  0  0  0  0  0  0
  -21.8767  -30.3622   23.6122 C   0  0  0  0  0  0  0  0  0  0  0  0
  -26.2665  -12.1172   21.3783 C   0  0  0  0  0  0  0  0  0  0  0  0
  -25.4006  -18.0753   17.8759 C   0  0  0  0  0  0  0  0  0  0  0  0
  -26.0886  -20.0775   19.9406 C   0  0  0  0  0  0  0  0  0  0  0  0
  -26.9450  -13.4341   21.7468 C   0  0  0  0  0  0  0  0  0  0  0  0
  -23.2082  -32.3077   20.9504 C   0  0  0  0  0  0  0  0  0  0  0  0
  -25.9060  -14.4750   22.1515 C   0  0  0  0  0  0  0  0  0  0  0  0
  -24.0756  -31.2784   20.2266 C   0  0  0  0  0  0  0  0  0  0  0  0
  -21.8947  -31.7021   21.4463 C   0  0  0  0  0  0  0  0  0  0  0  0
  -22.9363  -29.4598   21.5555 C   0  0  0  0  0  0  0  0  0  0  0  0
  -24.9491  -14.7790   20.9925 C   0  0  1  0  0  0  0  0  0  0  0  0
  -26.3205  -17.7392   19.0456 C   0  0  1  0  0  0  0  0  0  0  0  0
  -24.2887  -30.0267   21.0961 C   0  0  1  0  0  0  0  0  0  0  0  0
  -19.7855  -25.1472   16.3629 C   0  0  0  0  0  0  0  0  0  0  0  0
  -31.9073  -23.0881   19.4690 C   0  0  0  0  0  0  0  0  0  0  0  0
  -28.2115  -18.9491   23.0855 C   0  0  0  0  0  0  0  0  0  0  0  0
  -29.8160  -20.8688   22.9935 C   0  0  0  0  0  0  0  0  0  0  0  0
  -30.4930  -18.6362   22.1103 C   0  0  0  0  0  0  0  0  0  0  0  0
  -21.9491  -28.6727   25.4331 C   0  0  0  0  0  0  0  0  0  0  0  0
  -29.5086  -22.5334   16.5682 C   0  0  0  0  0  0  0  0  0  0  0  0
  -18.1209  -25.5887   21.0852 C   0  0  0  0  0  0  0  0  0  0  0  0
  -20.7665  -22.5426   18.0763 C   0  0  0  0  0  0  0  0  0  1  0  0
  -28.8208  -20.0249   20.8190 C   0  0  1  0  0  0  0  0  0  0  0  0
  -30.9020  -22.3151   18.6296 C   0  0  2  0  0  0  0  0  0  0  0  0
  -29.3104  -19.6210   22.2384 C   0  0  0  0  0  0  0  0  0  0  0  0
  -24.5143  -28.0309   19.6653 N   0  0  0  0  0  0  0  0  0  0  0  0
  -25.1307  -28.9841   20.3848 N   0  0  0  0  0  0  0  0  0  0  0  0
  -18.7763  -25.0512   19.9090 N   0  0  0  0  0  0  0  0  0  0  0  0
  -26.9507  -18.9256   19.6282 N   0  0  0  0  0  0  0  0  0  0  0  0
  -22.1461  -30.4884   22.2363 N   0  0  0  0  0  0  0  0  0  0  0  0
  -27.2658  -29.7623   21.0529 N   0  0  0  0  0  0  0  0  0  0  0  0
  -28.7612  -27.7871   18.1796 N   0  0  0  0  0  0  0  0  0  0  0  0
  -25.5829  -15.6549   20.0304 N   0  0  0  0  0  0  0  0  0  0  0  0
  -29.8481  -20.6391   19.9848 N   0  0  0  0  0  0  0  0  0  0  0  0
  -21.5754  -29.0610   24.0688 N   0  0  0  0  0  0  0  0  0  0  0  0
  -30.4801  -23.1771   17.4895 N   0  3  0  0  0  0  0  0  0  0  0  0
  -18.2911  -26.7322   18.3573 O   0  0  0  0  0  0  0  0  0  0  0  0
  -19.6705  -23.0673   20.7678 O   0  0  0  0  0  0  0  0  0  0  0  0
  -28.6626  -26.4328   20.0276 O   0  0  0  0  0  0  0  0  0  0  0  0
  -25.1127  -17.6830   21.0737 O   0  0  0  0  0  0  0  0  0  0  0  0
  -29.0372  -17.8980   19.7916 O   0  0  0  0  0  0  0  0  0  0  0  0
  -28.7178  -22.6294   19.6134 O   0  0  0  0  0  0  0  0  0  0  0  0
  -21.9272  -31.3320   24.3783 O   0  0  0  0  0  0  0  0  0  0  0  0
  -24.5292  -22.8700   15.9354 O   0  0  0  0  0  0  0  0  0  0  0  0
  -21.9530  -22.4603   18.8648 O   0  0  0  0  0  0  0  0  0  1  0  0
  -25.5061  -23.3919   10.5338 F   0  0  0  0  0  0  0  0  0  0  0  0
  -22.5012  -22.5288   14.0879 F   0  0  0  0  0  0  0  0  0  0  0  0
  1  2  1  0  0  0  0
  1  5  2  0  0  0  0
  2  6  2  0  0  0  0
  3 12  2  0  0  0  0
  3 19  1  0  0  0  0
  4 13  1  0  0  0  0
  4 19  2  0  0  0  0
  5 21  1  0  0  0  0
  6 23  1  0  0  0  0
  7 14  2  0  0  0  0
  7 22  1  0  0  0  0
  8 10  2  0  0  0  0
  8 25  1  0  0  0  0
  9 11  1  0  0  0  0
  9 25  2  0  0  0  0
 10 26  1  0  0  0  0
 11 26  2  0  0  0  0
 12 27  1  0  0  0  0
 13 27  2  0  0  0  0
 14 28  1  0  0  0  0
 15 16  2  0  0  0  0
 15 29  1  0  0  0  0
 16 30  1  0  0  0  0
 17 24  1  0  0  0  0
 17 28  2  0  0  0  0
 18 30  2  0  0  0  0
 18 31  1  0  0  0  0
 19 32  1  0  0  0  0
 20 32  1  0  0  0  0
 20 33  2  0  0  0  0
 20 38  1  0  0  0  0
 21 23  2  0  0  0  0
 21 43  1  0  0  0  0
 22 24  2  0  0  0  0
 22 44  1  0  0  0  0
 23 52  1  0  0  0  0
 24 45  1  0  0  0  0
 25 62  1  0  0  0  0
 26 76  1  0  0  0  0
 27 85  1  0  0  0  0
 28 86  1  0  0  0  0
 29 31  2  0  0  0  0
 29 85  1  0  0  0  0
 30 87  1  0  0  0  0
 31 88  1  0  0  0  0
 32 67  2  0  0  0  0
 33 68  1  0  0  0  0
 33 72  1  0  0  0  0
 34 35  2  0  0  0  0
 34 36  1  0  0  0  0
 34 55  1  0  0  0  0
 35 37  1  0  0  0  0
 35 63  1  0  0  0  0
 36 69  1  0  0  0  0
 36 78  2  0  0  0  0
 37 69  1  0  0  0  0
 37 79  2  0  0  0  0
 38 73  1  0  0  0  0
 38 80  2  0  0  0  0
 39 53  1  0  0  0  0
 39 74  1  0  0  0  0
 39 81  2  0  0  0  0
 40 64  1  0  0  0  0
 40 70  1  0  0  0  0
 40 82  2  0  0  0  0
 41 65  1  0  0  0  0
 41 75  1  0  0  0  0
 41 83  2  0  0  0  0
 42 71  1  0  0  0  0
 42 76  1  0  0  0  0
 42 84  2  0  0  0  0
 43 46  1  0  0  0  0
 44 53  1  0  0  0  0
 45 70  1  0  0  0  0
 46 48  1  0  0  0  0
 47 49  1  0  0  0  0
 47 50  1  0  0  0  0
 48 52  1  0  0  0  0
 49 54  1  0  0  0  0
 50 71  1  0  0  0  0
 51 54  1  0  0  0  0
 51 71  1  0  0  0  0
 52 74  1  0  0  0  0
 53 70  1  0  0  0  0
 54 68  1  0  0  0  0
 56 65  1  0  0  0  0
 57 66  1  0  0  0  0
 58 66  1  0  0  0  0
 59 66  1  0  0  0  0
 60 76  1  0  0  0  0
 61 77  1  0  0  0  0
 62 69  1  0  0  0  0
 63 86  1  0  0  0  0
 64 66  1  0  0  0  0
 64 75  1  0  0  0  0
 65 77  1  0  0  0  0
 67 68  1  0  0  0  0
M  CHG  1  77   1
M  ISO  4  42 100  63 101  76 100  86 101
M  END
> <Batch ID>
0076

> <Smiles>
CNC(C)C(=O)NC(C(=O)N1Cc2cc([101O:1][101CH2:1]C3=C(C)C(=O)N(Cc4ccc([100N:0](C)[100C:0](=O)N5CCCC(n6nc(-c7ccc(Oc8ccc(F)cc8F)cc7)c(C(N)=O)c6N)C5)cc4)C3=O)ccc2CC1C(=O)NC1CCCc2ccccc21)C(C)(C)C

> <Shape>
0.223

> <Color>
0.080

> <Negative vol penalty>
0.000

$$$$

  -OEChem-04042323503D

 87 96  0     1  0  0  0  0  0999 V2000
  -17.7021  -32.7795   23.5527 C   0  0  0  0  0  0  0  0  0  0  0  0
  -18.9510  -33.0885   23.0234 C   0  0  0  0  0  0  0  0  0  0  0  0
  -26.8614  -12.3869   21.1935 C   0  0  0  0  0  0  0  0  0  0  0  0
  -26.3890  -13.1589   18.9534 C   0  0  0  0  0  0  0  0  0  0  0  0
  -17.5004  -31.5574   24.1927 C   0  0  0  0  0  0  0  0  0  0  0  0
  -19.9993  -32.1758   23.1349 C   0  0  0  0  0  0  0  0  0  0  0  0
  -25.8150  -29.8979   19.6269 C   0  0  0  0  0  0  0  0  0  0  0  0
  -26.2520  -11.1667   20.9015 C   0  0  0  0  0  0  0  0  0  0  0  0
  -25.7797  -11.9387   18.6614 C   0  0  0  0  0  0  0  0  0  0  0  0
  -27.1788  -29.6873   19.8252 C   0  0  0  0  0  0  0  0  0  0  0  0
  -23.1088   -9.9469   20.6622 C   0  0  0  0  0  0  0  0  0  0  0  0
  -22.2290   -9.4201   21.6076 C   0  0  0  0  0  0  0  0  0  0  0  0
  -26.6927  -27.5741   20.8821 C   0  0  0  0  0  0  0  0  0  0  0  0
  -31.4618  -24.0673   20.0827 C   0  0  0  0  0  0  0  0  0  0  0  0
  -29.3459  -23.3750   21.0210 C   0  0  0  0  0  0  0  0  0  0  0  0
  -30.2876  -22.1738   19.1482 C   0  0  0  0  0  0  0  0  0  0  0  0
  -23.6188   -7.4538   21.8053 C   0  0  0  0  0  0  0  0  0  0  0  0
  -26.9299  -13.3831   20.2195 C   0  0  0  0  0  0  0  0  0  0  0  0
  -28.9152  -14.9796   20.3502 C   0  0  0  0  0  0  0  0  0  0  0  0
  -18.5441  -30.6253   24.3036 C   0  0  0  0  0  0  0  0  0  0  0  0
  -24.8776  -28.9516   20.0652 C   0  0  0  0  0  0  0  0  0  0  0  0
  -19.8118  -30.9406   23.7782 C   0  0  0  0  0  0  0  0  0  0  0  0
  -25.3177  -27.7738   20.6858 C   0  0  0  0  0  0  0  0  0  0  0  0
  -30.4426  -24.2369   21.0197 C   0  0  0  0  0  0  0  0  0  0  0  0
  -31.3843  -23.0357   19.1469 C   0  0  0  0  0  0  0  0  0  0  0  0
  -29.2683  -22.3434   20.0853 C   0  0  0  0  0  0  0  0  0  0  0  0
  -25.7111  -10.9425   19.6354 C   0  0  0  0  0  0  0  0  0  0  0  0
  -27.6177  -28.5267   20.4555 C   0  0  0  0  0  0  0  0  0  0  0  0
  -24.2436   -9.2271   20.2882 C   0  0  0  0  0  0  0  0  0  0  0  0
  -22.4839   -8.1735   22.1792 C   0  0  0  0  0  0  0  0  0  0  0  0
  -24.4986   -7.9806   20.8598 C   0  0  0  0  0  0  0  0  0  0  0  0
  -27.5587  -14.6440   20.5207 C   0  0  0  0  0  0  0  0  0  0  0  0
  -29.0034  -16.2813   20.7793 C   0  0  0  0  0  0  0  0  0  0  0  0
  -30.0128  -26.5475   21.7566 C   0  0  0  0  0  0  0  0  0  0  0  0
  -30.2401  -27.3395   22.9894 C   0  0  0  0  0  0  0  0  0  0  0  0
  -31.1285  -25.1417   23.2389 C   0  0  0  0  0  0  0  0  0  0  0  0
  -29.9987  -14.1857   19.8486 C   0  0  0  0  0  0  0  0  0  0  0  0
  -29.4026  -27.0301   20.6685 C   0  0  0  0  0  0  0  0  0  1  0  0
  -22.4810  -28.9689   22.1532 C   0  0  0  0  0  0  0  0  0  0  0  0
  -21.9423  -25.9976   20.9684 C   0  0  0  0  0  0  0  0  0  0  0  0
  -23.1870  -23.2352   19.3979 C   0  0  0  0  0  0  0  0  0  0  0  0
  -27.0592  -21.4961   20.9502 C   0  0  0  0  0  0  0  0  0  0  0  0
  -18.2911  -29.3370   25.0458 C   0  0  0  0  0  0  0  0  0  0  0  0
  -23.4115  -29.1812   19.8197 C   0  0  0  0  0  0  0  0  0  0  0  0
  -24.3530  -26.7174   21.1568 C   0  0  0  0  0  0  0  0  0  0  0  0
  -30.9899  -26.4750   23.9519 C   0  0  0  0  0  0  0  0  0  0  0  0
  -19.3522  -28.2693   24.7920 C   0  0  0  0  0  0  0  0  0  0  0  0
  -25.6610  -19.1679   23.2528 C   0  0  0  0  0  0  0  0  0  0  0  0
  -20.7504  -28.8686   24.9059 C   0  0  0  0  0  0  0  0  0  0  0  0
  -26.1417  -17.8110   22.7332 C   0  0  0  0  0  0  0  0  0  0  0  0
  -25.3382  -20.1303   22.1112 C   0  0  0  0  0  0  0  0  0  0  0  0
  -26.8941  -18.9523   20.6076 C   0  0  0  0  0  0  0  0  0  0  0  0
  -20.9671  -29.9664   23.8573 C   0  0  1  0  0  0  0  0  0  0  0  0
  -22.5158  -28.3893   20.7674 C   0  0  1  0  0  0  0  0  0  0  0  0
  -27.2934  -17.9707   21.7215 C   0  0  2  0  0  0  0  0  0  0  0  0
  -29.1732  -26.2320   19.4256 C   0  0  0  0  0  0  0  0  0  0  0  0
  -22.5159  -20.9523   18.6009 C   0  0  0  0  0  0  0  0  0  0  0  0
  -22.0246  -24.9731   23.8413 C   0  0  0  0  0  0  0  0  0  0  0  0
  -22.3050  -22.6568   22.9336 C   0  0  0  0  0  0  0  0  0  0  0  0
  -20.2365  -23.9535   22.4210 C   0  0  0  0  0  0  0  0  0  0  0  0
  -23.8148  -23.9057   16.5845 C   0  0  0  0  0  0  0  0  0  0  0  0
  -22.4145  -24.6064   21.3155 C   0  0  1  0  0  0  0  0  0  0  0  0
  -22.6640  -22.4195   18.2293 C   0  0  2  0  0  0  0  0  0  0  0  0
  -21.7635  -24.0680   22.6208 C   0  0  0  0  0  0  0  0  0  0  0  0
  -26.8371  -15.6512   21.0195 N   0  0  0  0  0  0  0  0  0  0  0  0
  -27.7436  -16.6325   21.1661 N   0  0  0  0  0  0  0  0  0  0  0  0
  -30.5201  -25.2687   21.9577 N   0  0  0  0  0  0  0  0  0  0  0  0
  -22.9294  -26.9909   20.8996 N   0  0  0  0  0  0  0  0  0  0  0  0
  -26.4763  -20.2348   21.1954 N   0  0  0  0  0  0  0  0  0  0  0  0
  -32.4145  -22.8637   18.1992 N   0  0  0  0  0  0  0  0  0  0  0  0
  -30.0350  -17.1484   20.8599 N   0  0  0  0  0  0  0  0  0  0  0  0
  -29.7334  -12.8681   19.4512 N   0  0  0  0  0  0  0  0  0  0  0  0
  -28.1549  -21.4671   20.0881 N   0  0  0  0  0  0  0  0  0  0  0  0
  -21.2262  -29.3813   22.5592 N   0  0  0  0  0  0  0  0  0  0  0  0
  -22.1608  -23.7835   20.1379 N   0  0  0  0  0  0  0  0  0  0  0  0
  -23.5953  -22.5190   17.0701 N   0  3  0  0  0  0  0  0  0  0  0  0
  -29.8896  -28.4906   23.1790 O   0  0  0  0  0  0  0  0  0  0  0  0
  -31.6753  -24.1566   23.7155 O   0  0  0  0  0  0  0  0  0  0  0  0
  -31.1706  -14.6262   19.7709 O   0  0  0  0  0  0  0  0  0  0  0  0
  -23.5157  -29.0354   22.8064 O   0  0  0  0  0  0  0  0  0  0  0  0
  -20.7427  -26.1943   20.7587 O   0  0  0  0  0  0  0  0  0  0  0  0
  -24.3859  -23.3693   19.6330 O   0  0  0  0  0  0  0  0  0  0  0  0
  -26.6358  -22.5223   21.4884 O   0  0  0  0  0  0  0  0  0  0  0  0
  -25.1166   -9.7519   19.3500 O   0  0  0  0  0  0  0  0  0  0  0  0
  -28.9484  -28.3189   20.6509 O   0  0  0  0  0  0  0  0  0  1  0  0
  -21.6397   -7.6684   23.0882 F   0  0  0  0  0  0  0  0  0  0  0  0
  -25.5878   -7.2850   20.5054 F   0  0  0  0  0  0  0  0  0  0  0  0
  1  2  1  0  0  0  0
  1  5  2  0  0  0  0
  2  6  2  0  0  0  0
  3  8  2  0  0  0  0
  3 18  1  0  0  0  0
  4  9  1  0  0  0  0
  4 18  2  0  0  0  0
  5 20  1  0  0  0  0
  6 22  1  0  0  0  0
  7 10  2  0  0  0  0
  7 21  1  0  0  0  0
  8 27  1  0  0  0  0
  9 27  2  0  0  0  0
 10 28  1  0  0  0  0
 11 12  2  0  0  0  0
 11 29  1  0  0  0  0
 12 30  1  0  0  0  0
 13 23  1  0  0  0  0
 13 28  2  0  0  0  0
 14 24  1  0  0  0  0
 14 25  2  0  0  0  0
 15 24  2  0  0  0  0
 15 26  1  0  0  0  0
 16 25  1  0  0  0  0
 16 26  2  0  0  0  0
 17 30  2  0  0  0  0
 17 31  1  0  0  0  0
 18 32  1  0  0  0  0
 19 32  1  0  0  0  0
 19 33  2  0  0  0  0
 19 37  1  0  0  0  0
 20 22  2  0  0  0  0
 20 43  1  0  0  0  0
 21 23  2  0  0  0  0
 21 44  1  0  0  0  0
 22 53  1  0  0  0  0
 23 45  1  0  0  0  0
 24 67  1  0  0  0  0
 25 70  1  0  0  0  0
 26 73  1  0  0  0  0
 27 84  1  0  0  0  0
 28 85  1  0  0  0  0
 29 31  2  0  0  0  0
 29 84  1  0  0  0  0
 30 86  1  0  0  0  0
 31 87  1  0  0  0  0
 32 65  2  0  0  0  0
 33 66  1  0  0  0  0
 33 71  1  0  0  0  0
 34 35  1  0  0  0  0
 34 38  2  0  0  0  0
 34 67  1  0  0  0  0
 35 46  1  0  0  0  0
 35 77  2  0  0  0  0
 36 46  1  0  0  0  0
 36 67  1  0  0  0  0
 36 78  2  0  0  0  0
 37 72  1  0  0  0  0
 37 79  2  0  0  0  0
 38 56  1  0  0  0  0
 38 85  1  0  0  0  0
 39 54  1  0  0  0  0
 39 74  1  0  0  0  0
 39 80  2  0  0  0  0
 40 62  1  0  0  0  0
 40 68  1  0  0  0  0
 40 81  2  0  0  0  0
 41 63  1  0  0  0  0
 41 75  1  0  0  0  0
 41 82  2  0  0  0  0
 42 69  1  0  0  0  0
 42 73  1  0  0  0  0
 42 83  2  0  0  0  0
 43 47  1  0  0  0  0
 44 54  1  0  0  0  0
 45 68  1  0  0  0  0
 47 49  1  0  0  0  0
 48 50  1  0  0  0  0
 48 51  1  0  0  0  0
 49 53  1  0  0  0  0
 50 55  1  0  0  0  0
 51 69  1  0  0  0  0
 52 55  1  0  0  0  0
 52 69  1  0  0  0  0
 53 74  1  0  0  0  0
 54 68  1  0  0  0  0
 55 66  1  0  0  0  0
 57 63  1  0  0  0  0
 58 64  1  0  0  0  0
 59 64  1  0  0  0  0
 60 64  1  0  0  0  0
 61 76  1  0  0  0  0
 62 64  1  0  0  0  0
 62 75  1  0  0  0  0
 63 76  1  0  0  0  0
 65 66  1  0  0  0  0
M  CHG  1  76   1
M  ISO  4  38 101  42 100  73 100  85 101
M  END
> <Batch ID>
0076

> <Smiles>
CNC(C)C(=O)NC(C(=O)N1Cc2cc([101O:1][101C:1](C)=C3C(=O)CC(=O)N3c3cc(N)cc([100NH:0][100C:0](=O)N4CCCC(n5nc(-c6ccc(Oc7ccc(F)cc7F)cc6)c(C(N)=O)c5N)C4)c3)ccc2CC1C(=O)NC1CCCc2ccccc21)C(C)(C)C

> <Shape>
0.249

> <Color>
0.079

> <Negative vol penalty>
0.000

$$$$

  -OEChem-04042323503D

 90 99  0     1  0  0  0  0  0999 V2000
  -29.9969  -33.9896   25.2613 C   0  0  0  0  0  0  0  0  0  0  0  0
  -30.2719  -32.7655   24.6603 C   0  0  0  0  0  0  0  0  0  0  0  0
  -23.0026   -9.9557   19.9361 C   0  0  0  0  0  0  0  0  0  0  0  0
  -23.8620   -9.8493   22.1916 C   0  0  0  0  0  0  0  0  0  0  0  0
  -29.3828  -16.9098   19.8857 C   0  0  0  0  0  0  0  0  0  0  0  0
  -28.6823  -34.3300   25.5773 C   0  0  0  0  0  0  0  0  0  0  0  0
  -29.2325  -31.8805   24.3758 C   0  0  0  0  0  0  0  0  0  0  0  0
  -27.2804  -26.9121   19.5987 C   0  0  0  0  0  0  0  0  0  0  0  0
  -28.6885  -18.0503   19.4823 C   0  0  0  0  0  0  0  0  0  0  0  0
  -22.2419   -8.8106   20.1720 C   0  0  0  0  0  0  0  0  0  0  0  0
  -23.1013   -8.7042   22.4275 C   0  0  0  0  0  0  0  0  0  0  0  0
  -26.8406  -25.5905   19.5379 C   0  0  0  0  0  0  0  0  0  0  0  0
  -19.8837   -7.9565   23.1408 C   0  0  0  0  0  0  0  0  0  0  0  0
  -19.1780   -7.8852   24.3418 C   0  0  0  0  0  0  0  0  0  0  0  0
  -24.6000  -26.3188   20.0563 C   0  0  0  0  0  0  0  0  0  0  0  0
  -28.3383  -18.6551   21.7950 C   0  0  0  0  0  0  0  0  0  0  0  0
  -20.4018   -5.8905   24.9424 C   0  0  0  0  0  0  0  0  0  0  0  0
  -23.8127  -10.4751   20.9459 C   0  0  0  0  0  0  0  0  0  0  0  0
  -29.5549  -16.6419   21.2437 C   0  0  0  0  0  0  0  0  0  0  0  0
  -24.2116  -12.9945   20.9137 C   0  0  0  0  0  0  0  0  0  0  0  0
  -27.6252  -33.4528   25.2878 C   0  0  0  0  0  0  0  0  0  0  0  0
  -26.3840  -27.9475   19.9000 C   0  0  0  0  0  0  0  0  0  0  0  0
  -27.9027  -32.2089   24.6894 C   0  0  0  0  0  0  0  0  0  0  0  0
  -25.0305  -27.6529   20.1178 C   0  0  0  0  0  0  0  0  0  0  0  0
  -28.1662  -18.9230   20.4369 C   0  0  0  0  0  0  0  0  0  0  0  0
  -22.2912   -8.1848   21.4176 C   0  0  0  0  0  0  0  0  0  0  0  0
  -25.5007  -25.2933   19.7695 C   0  0  0  0  0  0  0  0  0  0  0  0
  -20.8485   -6.9948   22.8406 C   0  0  0  0  0  0  0  0  0  0  0  0
  -29.0326  -17.5146   22.1984 C   0  0  0  0  0  0  0  0  0  0  0  0
  -19.4370   -6.8522   25.2426 C   0  0  0  0  0  0  0  0  0  0  0  0
  -21.1076   -5.9619   23.7414 C   0  0  0  0  0  0  0  0  0  0  0  0
  -24.5991  -11.6576   20.7028 C   0  0  0  0  0  0  0  0  0  0  0  0
  -25.3052  -13.7331   20.5327 C   0  0  0  0  0  0  0  0  0  0  0  0
  -26.4868  -21.6692   18.7065 C   0  0  0  0  0  0  0  0  0  0  0  0
  -26.2746  -22.0312   20.0954 C   0  0  0  0  0  0  0  0  0  0  0  0
  -26.0754  -22.3297   17.6169 C   0  0  0  0  0  0  0  0  0  0  0  0
  -30.2839  -15.4462   21.6434 C   0  0  0  0  0  0  0  0  0  0  0  0
  -22.9739  -13.5215   21.4097 C   0  0  0  0  0  0  0  0  0  0  0  0
  -25.6256  -23.0997   20.5714 C   0  0  0  0  0  0  0  0  0  1  0  0
  -30.8433  -14.5138   20.6379 C   0  0  0  0  0  0  0  0  0  0  0  0
  -26.1315  -30.0865   22.2377 C   0  0  0  0  0  0  0  0  0  0  0  0
  -23.7187  -31.2346   20.3985 C   0  0  0  0  0  0  0  0  0  0  0  0
  -21.3733  -30.6371   17.9925 C   0  0  0  0  0  0  0  0  0  0  0  0
  -28.1604  -16.5028   24.0966 C   0  0  0  0  0  0  0  0  0  0  0  0
  -26.2257  -33.8446   25.6910 C   0  0  0  0  0  0  0  0  0  0  0  0
  -26.8691  -29.3708   19.9356 C   0  0  0  0  0  0  0  0  0  0  0  0
  -24.0239  -28.7303   20.4251 C   0  0  0  0  0  0  0  0  0  0  0  0
  -27.2677  -20.3878   18.6475 C   0  0  0  0  0  0  0  0  0  0  0  0
  -26.9120  -20.9945   20.9753 C   0  0  0  0  0  0  0  0  0  0  0  0
  -25.1409  -33.0096   25.0154 C   0  0  0  0  0  0  0  0  0  0  0  0
  -29.5081  -12.3881   18.0776 C   0  0  0  0  0  0  0  0  0  0  0  0
  -25.4893  -31.5261   25.0832 C   0  0  0  0  0  0  0  0  0  0  0  0
  -28.0930  -12.0875   18.5707 C   0  0  0  0  0  0  0  0  0  0  0  0
  -30.4883  -12.5175   19.2389 C   0  0  0  0  0  0  0  0  0  0  0  0
  -28.6642  -13.2338   20.7582 C   0  0  0  0  0  0  0  0  0  0  0  0
  -26.7996  -31.2327   24.3426 C   0  0  1  0  0  0  0  0  0  0  0  0
  -25.9693  -30.2884   20.7576 C   0  0  1  0  0  0  0  0  0  0  0  0
  -27.6404  -13.1236   19.6148 C   0  0  2  0  0  0  0  0  0  0  0  0
  -25.4601  -23.3860   22.0292 C   0  0  0  0  0  0  0  0  0  0  0  0
  -28.4249  -16.2898   25.5576 C   0  0  0  0  0  0  0  0  0  0  0  0
  -19.5219  -31.7602   16.7242 C   0  0  0  0  0  0  0  0  0  0  0  0
  -21.9207  -31.0406   22.8560 C   0  0  0  0  0  0  0  0  0  0  0  0
  -19.9408  -31.2474   21.3376 C   0  0  0  0  0  0  0  0  0  0  0  0
  -21.5959  -33.1078   21.4864 C   0  0  0  0  0  0  0  0  0  0  0  0
  -22.7227  -30.1887   15.3970 C   0  0  0  0  0  0  0  0  0  0  0  0
  -22.2358  -30.9719   20.2944 C   0  0  1  0  0  0  0  0  0  0  0  0
  -21.0004  -31.4042   16.7367 C   0  0  2  0  0  0  0  0  0  0  0  0
  -21.4424  -31.5712   21.4897 C   0  0  0  0  0  0  0  0  0  0  0  0
  -25.8417  -11.5502   20.2248 N   0  0  0  0  0  0  0  0  0  0  0  0
  -30.4931  -15.1197   22.8890 N   0  0  0  0  0  0  0  0  0  0  0  0
  -26.2444  -12.8290   20.1321 N   0  0  0  0  0  0  0  0  0  0  0  0
  -27.4915  -20.0330   20.0444 N   0  0  3  0  0  0  0  0  0  0  0  0
  -30.0111  -13.4813   20.2285 N   0  0  0  0  0  0  0  0  0  0  0  0
  -24.5483  -30.1057   20.4549 N   0  0  0  0  0  0  0  0  0  0  0  0
  -25.5452  -15.0613   20.5047 N   0  0  0  0  0  0  0  0  0  0  0  0
  -21.9554  -12.6226   21.7546 N   0  0  0  0  0  0  0  0  0  0  0  0
  -26.5771  -31.2068   22.9128 N   0  0  0  0  0  0  0  0  0  0  0  0
  -21.8224  -31.4770   18.9896 N   0  0  0  0  0  0  0  0  0  0  0  0
  -21.2980  -30.5897   15.5247 N   0  3  0  0  0  0  0  0  0  0  0  0
  -22.7711  -14.7537   21.5276 O   0  0  0  0  0  0  0  0  0  0  0  0
  -31.9868  -14.7550   20.2737 O   0  0  0  0  0  0  0  0  0  0  0  0
  -25.8702  -28.9955   22.7309 O   0  0  0  0  0  0  0  0  0  0  0  0
  -24.1265  -32.3986   20.4215 O   0  0  0  0  0  0  0  0  0  0  0  0
  -21.2724  -29.4154   18.0815 O   0  0  0  0  0  0  0  0  0  0  0  0
  -27.1831  -16.0658   23.5034 O   0  0  0  0  0  0  0  0  0  0  0  0
  -21.5489   -7.0675   21.6482 O   0  0  0  0  0  0  0  0  0  0  0  0
  -25.0688  -24.0042   19.7113 O   0  0  0  0  0  0  0  0  0  1  0  0
  -29.1903  -17.2700   23.5299 O   0  0  0  0  0  0  0  0  0  0  0  0
  -18.7603   -6.7847   26.3966 F   0  0  0  0  0  0  0  0  0  0  0  0
  -22.0341   -5.0358   23.4590 F   0  0  0  0  0  0  0  0  0  0  0  0
  1  2  1  0  0  0  0
  1  6  2  0  0  0  0
  2  7  2  0  0  0  0
  3 10  2  0  0  0  0
  3 18  1  0  0  0  0
  4 11  1  0  0  0  0
  4 18  2  0  0  0  0
  5  9  2  0  0  0  0
  5 19  1  0  0  0  0
  6 21  1  0  0  0  0
  7 23  1  0  0  0  0
  8 12  2  0  0  0  0
  8 22  1  0  0  0  0
  9 25  1  0  0  0  0
 10 26  1  0  0  0  0
 11 26  2  0  0  0  0
 12 27  1  0  0  0  0
 13 14  2  0  0  0  0
 13 28  1  0  0  0  0
 14 30  1  0  0  0  0
 15 24  1  0  0  0  0
 15 27  2  0  0  0  0
 16 25  2  0  0  0  0
 16 29  1  0  0  0  0
 17 30  2  0  0  0  0
 17 31  1  0  0  0  0
 18 32  1  0  0  0  0
 19 29  2  0  0  0  0
 19 37  1  0  0  0  0
 20 32  1  0  0  0  0
 20 33  2  0  0  0  0
 20 38  1  0  0  0  0
 21 23  2  0  0  0  0
 21 45  1  0  0  0  0
 22 24  2  0  0  0  0
 22 46  1  0  0  0  0
 23 56  1  0  0  0  0
 24 47  1  0  0  0  0
 25 72  1  0  0  0  0
 26 86  1  0  0  0  0
 27 87  1  0  0  0  0
 28 31  2  0  0  0  0
 28 86  1  0  0  0  0
 29 88  1  0  0  0  0
 30 89  1  0  0  0  0
 31 90  1  0  0  0  0
 32 69  2  0  0  0  0
 33 71  1  0  0  0  0
 33 75  1  0  0  0  0
 34 35  1  0  0  0  0
 34 36  2  0  0  0  0
 34 48  1  0  0  0  0
 35 39  2  0  0  0  0
 35 49  1  0  0  0  0
 37 40  1  0  0  0  0
 37 70  2  0  0  0  0
 38 76  1  0  0  0  0
 38 80  2  0  0  0  0
 39 59  1  0  0  0  0
 39 87  1  0  0  0  0
 40 73  1  0  0  0  0
 40 81  2  0  0  0  0
 41 57  1  0  0  0  0
 41 77  1  0  0  0  0
 41 82  2  0  0  0  0
 42 66  1  0  0  0  0
 42 74  1  0  0  0  0
 42 83  2  0  0  0  0
 43 67  1  0  0  0  0
 43 78  1  0  0  0  0
 43 84  2  0  0  0  0
 44 60  1  0  0  0  0
 44 85  2  0  0  0  0
 44 88  1  0  0  0  0
 45 50  1  0  0  0  0
 46 57  1  0  0  0  0
 47 74  1  0  0  0  0
 48 72  1  0  0  0  0
 49 72  1  0  0  0  0
 50 52  1  0  0  0  0
 51 53  1  0  0  0  0
 51 54  1  0  0  0  0
 52 56  1  0  0  0  0
 53 58  1  0  0  0  0
 54 73  1  0  0  0  0
 55 58  1  0  0  0  0
 55 73  1  0  0  0  0
 56 77  1  0  0  0  0
 57 74  1  0  0  0  0
 58 71  1  0  0  0  0
 61 67  1  0  0  0  0
 62 68  1  0  0  0  0
 63 68  1  0  0  0  0
 64 68  1  0  0  0  0
 65 79  1  0  0  0  0
 66 68  1  0  0  0  0
 66 78  1  0  0  0  0
 67 79  1  0  0  0  0
 69 71  1  0  0  0  0
M  CHG  1  79   1
M  ISO  4  37 100  39 101  40 100  87 101
M  END
> <Batch ID>
0076

> <Smiles>
C=C1CN(c2ccc([100C:0](=N)[100C:0](=O)N3CCCC(n4nc(-c5ccc(Oc6ccc(F)cc6F)cc5)c(C(N)=O)c4N)C3)c(OC(C)=O)c2)CC1=[101C:1](C)[101O:1]c1ccc2c(c1)CN(C(=O)C(NC(=O)C(C)NC)C(C)(C)C)C(C(=O)NC1CCCc3ccccc31)C2

> <Shape>
0.347

> <Color>
0.197

> <Negative vol penalty>
0.000

$$$$
