
  -OEChem-04042323533D

 89 99  0     1  0  0  0  0  0999 V2000
  -25.1434  -30.5376   12.3928 C   0  0  0  0  0  0  0  0  0  0  0  0
  -24.4181  -30.6730   13.5722 C   0  0  0  0  0  0  0  0  0  0  0  0
  -26.5300  -13.8884   21.8789 C   0  0  0  0  0  0  0  0  0  0  0  0
  -24.6794  -14.0419   20.3333 C   0  0  0  0  0  0  0  0  0  0  0  0
  -25.9623  -29.4251   12.2031 C   0  0  0  0  0  0  0  0  0  0  0  0
  -24.5104  -29.6955   14.5623 C   0  0  0  0  0  0  0  0  0  0  0  0
  -24.2963  -30.5607   20.6213 C   0  0  0  0  0  0  0  0  0  0  0  0
  -22.0303  -24.4702   18.5599 C   0  0  0  0  0  0  0  0  0  0  0  0
  -22.6344  -23.5142   19.3764 C   0  0  0  0  0  0  0  0  0  0  0  0
  -26.4938  -12.4973   21.7841 C   0  0  0  0  0  0  0  0  0  0  0  0
  -24.6432  -12.6507   20.2385 C   0  0  0  0  0  0  0  0  0  0  0  0
  -23.2672  -30.4264   21.5522 C   0  0  0  0  0  0  0  0  0  0  0  0
  -23.8289   -9.1281   19.8670 C   0  0  0  0  0  0  0  0  0  0  0  0
  -22.5821   -8.5062   19.9309 C   0  0  0  0  0  0  0  0  0  0  0  0
  -24.0427  -28.2040   22.0800 C   0  0  0  0  0  0  0  0  0  0  0  0
  -21.0467  -24.0081   21.1292 C   0  0  0  0  0  0  0  0  0  0  0  0
  -22.2316   -9.4350   22.1335 C   0  0  0  0  0  0  0  0  0  0  0  0
  -25.6228  -14.6607   21.1535 C   0  0  0  0  0  0  0  0  0  0  0  0
  -26.4018  -16.9859   20.4503 C   0  0  0  0  0  0  0  0  0  0  0  0
  -26.0721  -28.4383   13.1955 C   0  0  0  0  0  0  0  0  0  0  0  0
  -25.2014  -29.5117   20.4046 C   0  0  0  0  0  0  0  0  0  0  0  0
  -25.3305  -28.5681   14.3852 C   0  0  0  0  0  0  0  0  0  0  0  0
  -25.0840  -28.3285   21.1476 C   0  0  0  0  0  0  0  0  0  0  0  0
  -20.9345  -25.1952   19.0280 C   0  0  0  0  0  0  0  0  0  0  0  0
  -20.4426  -24.9641   20.3127 C   0  0  0  0  0  0  0  0  0  0  0  0
  -22.1426  -23.2831   20.6611 C   0  0  0  0  0  0  0  0  0  0  0  0
  -25.5505  -11.8784   20.9640 C   0  0  0  0  0  0  0  0  0  0  0  0
  -23.1385  -29.2469   22.2796 C   0  0  0  0  0  0  0  0  0  0  0  0
  -24.2772   -9.9035   20.9364 C   0  0  0  0  0  0  0  0  0  0  0  0
  -21.7834   -8.6596   21.0641 C   0  0  0  0  0  0  0  0  0  0  0  0
  -23.4785  -10.0570   22.0696 C   0  0  0  0  0  0  0  0  0  0  0  0
  -25.6593  -16.0978   21.2514 C   0  0  0  0  0  0  0  0  0  0  0  0
  -26.0937  -18.2309   20.9415 C   0  0  0  0  0  0  0  0  0  0  0  0
  -19.8694  -27.7076   23.8177 C   0  0  0  0  0  0  0  0  0  0  0  0
  -27.2905  -16.7100   19.3595 C   0  0  0  0  0  0  0  0  0  0  0  0
  -25.9663  -27.6870   17.9168 C   0  0  0  0  0  0  0  0  0  0  0  0
  -28.2621  -26.5858   19.9265 C   0  0  0  0  0  0  0  0  0  0  0  0
  -29.3163  -26.1087   23.1371 C   0  0  0  0  0  0  0  0  0  0  0  0
  -22.3945  -21.9596   22.7897 C   0  0  0  0  0  0  0  0  0  0  0  0
  -26.9334  -27.2300   12.9255 C   0  0  0  0  0  0  0  0  0  0  0  0
  -26.3221  -29.6824   19.4160 C   0  0  0  0  0  0  0  0  0  0  0  0
  -26.0419  -27.1803   20.9670 C   0  0  0  0  0  0  0  0  0  0  0  0
  -19.5222  -26.3639   23.2095 C   0  0  0  0  0  0  0  0  0  0  0  0
  -27.2655  -26.4261   14.1800 C   0  0  0  0  0  0  0  0  0  0  0  0
  -23.6306  -19.5955   25.1478 C   0  0  0  0  0  0  0  0  0  0  0  0
  -26.0118  -26.2064   15.0206 C   0  0  0  0  0  0  0  0  0  0  0  0
  -24.3297  -18.5479   24.2784 C   0  0  0  0  0  0  0  0  0  0  0  0
  -17.6555  -26.6863   21.4503 C   0  0  0  0  0  0  0  0  0  0  0  0
  -19.8686  -28.0415   21.4542 C   0  0  0  0  0  0  0  0  0  0  0  0
  -22.3685  -20.1370   24.4787 C   0  0  0  0  0  0  0  0  0  0  0  0
  -18.0060  -25.7583   20.2910 C   0  0  0  0  0  0  0  0  0  0  0  0
  -23.2578  -19.5987   22.2452 C   0  0  0  0  0  0  0  0  0  0  0  0
  -25.4234  -27.5414   15.4930 C   0  0  1  0  0  0  0  0  0  0  0  0
  -19.8024  -28.8188   22.7818 C   0  0  2  0  0  0  0  0  0  0  0  0
  -26.8773  -28.3557   18.9071 C   0  0  1  0  0  0  0  0  0  0  0  0
  -24.5698  -19.0712   22.8487 C   0  0  2  0  0  0  0  0  0  0  0  0
  -19.1676  -26.7209   21.7711 C   0  0  1  0  0  0  0  0  0  0  0  0
  -20.3066  -26.2127   18.1321 C   0  0  0  0  0  0  0  0  0  0  0  0
  -31.2176  -25.1487   24.4641 C   0  0  0  0  0  0  0  0  0  0  0  0
  -20.6599  -30.7959   24.0717 C   0  0  0  0  0  0  0  0  0  0  0  0
  -27.2378  -23.7696   19.3523 C   0  0  0  0  0  0  0  0  0  0  0  0
  -28.4938  -22.9770   21.3679 C   0  0  0  0  0  0  0  0  0  0  0  0
  -29.7286  -23.9753   19.4440 C   0  0  0  0  0  0  0  0  0  0  0  0
  -29.9338  -28.7290   24.3665 C   0  0  0  0  0  0  0  0  0  0  0  0
  -28.3492  -25.4729   20.9428 C   0  0  1  0  0  0  0  0  0  0  0  0
  -30.6432  -26.3984   23.8152 C   0  0  2  0  0  0  0  0  0  0  0  0
  -20.9256  -29.8260   22.9305 C   0  0  1  0  0  0  0  0  0  1  0  0
  -28.4330  -24.0694   20.2790 C   0  0  0  0  0  0  0  0  0  0  0  0
  -24.9343  -16.7254   22.1812 N   0  0  0  0  0  0  0  0  0  0  0  0
  -25.2197  -18.0211   21.9673 N   0  0  0  0  0  0  0  0  0  0  0  0
  -19.3382  -25.6874   20.8013 N   0  0  3  0  0  0  0  0  0  0  0  0
  -27.1172  -27.3931   19.9842 N   0  0  0  0  0  0  0  0  0  0  0  0
  -22.6734  -20.6189   23.1298 N   0  0  0  0  0  0  0  0  0  0  0  0
  -26.4879  -19.4738   20.5918 N   0  0  0  0  0  0  0  0  0  0  0  0
  -27.4938  -15.3749   18.9846 N   0  0  0  0  0  0  0  0  0  0  0  0
  -22.7571  -22.3122   21.4902 N   0  0  0  0  0  0  0  0  0  0  0  0
  -26.1865  -28.0645   16.6059 N   0  0  0  0  0  0  0  0  0  0  0  0
  -29.4815  -25.7948   21.8046 N   0  0  0  0  0  0  0  0  0  0  0  0
  -30.4703  -27.4380   24.8689 N   0  3  0  0  0  0  0  0  0  0  0  0
  -20.1449  -27.8700   24.9990 O   0  0  0  0  0  0  0  0  0  0  0  0
  -27.8993  -17.6193   18.7463 O   0  0  0  0  0  0  0  0  0  0  0  0
  -25.1270  -26.8867   18.3126 O   0  0  0  0  0  0  0  0  0  0  0  0
  -29.1796  -26.7379   19.1161 O   0  0  0  0  0  0  0  0  0  0  0  0
  -28.2412  -26.1524   23.7310 O   0  0  0  0  0  0  0  0  0  0  0  0
  -21.8973  -22.7449   23.6010 O   0  0  0  0  0  0  0  0  0  0  0  0
  -25.5150  -10.5210   20.8711 O   0  0  0  0  0  0  0  0  0  0  0  0
  -22.1344  -29.1129   23.1884 O   0  0  0  0  0  0  0  0  0  1  0  0
  -20.5854   -8.0636   21.1247 F   0  0  0  0  0  0  0  0  0  0  0  0
  -23.9033  -10.8016   23.0996 F   0  0  0  0  0  0  0  0  0  0  0  0
  1  2  1  0  0  0  0
  1  5  2  0  0  0  0
  2  6  2  0  0  0  0
  3 10  2  0  0  0  0
  3 18  1  0  0  0  0
  4 11  1  0  0  0  0
  4 18  2  0  0  0  0
  5 20  1  0  0  0  0
  6 22  1  0  0  0  0
  7 12  2  0  0  0  0
  7 21  1  0  0  0  0
  8  9  2  0  0  0  0
  8 24  1  0  0  0  0
  9 26  1  0  0  0  0
 10 27  1  0  0  0  0
 11 27  2  0  0  0  0
 12 28  1  0  0  0  0
 13 14  2  0  0  0  0
 13 29  1  0  0  0  0
 14 30  1  0  0  0  0
 15 23  1  0  0  0  0
 15 28  2  0  0  0  0
 16 25  1  0  0  0  0
 16 26  2  0  0  0  0
 17 30  2  0  0  0  0
 17 31  1  0  0  0  0
 18 32  1  0  0  0  0
 19 32  1  0  0  0  0
 19 33  2  0  0  0  0
 19 35  1  0  0  0  0
 20 22  2  0  0  0  0
 20 40  1  0  0  0  0
 21 23  2  0  0  0  0
 21 41  1  0  0  0  0
 22 53  1  0  0  0  0
 23 42  1  0  0  0  0
 24 25  2  0  0  0  0
 24 58  1  0  0  0  0
 25 71  1  0  0  0  0
 26 76  1  0  0  0  0
 27 86  1  0  0  0  0
 28 87  1  0  0  0  0
 29 31  2  0  0  0  0
 29 86  1  0  0  0  0
 30 88  1  0  0  0  0
 31 89  1  0  0  0  0
 32 69  2  0  0  0  0
 33 70  1  0  0  0  0
 33 74  1  0  0  0  0
 34 43  1  0  0  0  0
 34 54  1  0  0  0  0
 34 80  2  0  0  0  0
 35 75  1  0  0  0  0
 35 81  2  0  0  0  0
 36 55  1  0  0  0  0
 36 77  1  0  0  0  0
 36 82  2  0  0  0  0
 37 65  1  0  0  0  0
 37 72  1  0  0  0  0
 37 83  2  0  0  0  0
 38 66  1  0  0  0  0
 38 78  1  0  0  0  0
 38 84  2  0  0  0  0
 39 73  1  0  0  0  0
 39 76  1  0  0  0  0
 39 85  2  0  0  0  0
 40 44  1  0  0  0  0
 41 55  1  0  0  0  0
 42 72  1  0  0  0  0
 43 57  1  0  0  0  0
 44 46  1  0  0  0  0
 45 47  1  0  0  0  0
 45 50  1  0  0  0  0
 46 53  1  0  0  0  0
 47 56  1  0  0  0  0
 48 51  1  0  0  0  0
 48 57  1  0  0  0  0
 49 54  1  0  0  0  0
 49 57  1  0  0  0  0
 50 73  1  0  0  0  0
 51 71  1  0  0  0  0
 52 56  1  0  0  0  0
 52 73  1  0  0  0  0
 53 77  1  0  0  0  0
 54 67  1  0  0  0  0
 55 72  1  0  0  0  0
 56 70  1  0  0  0  0
 57 71  1  0  0  0  0
 59 66  1  0  0  0  0
 60 67  1  0  0  0  0
 61 68  1  0  0  0  0
 62 68  1  0  0  0  0
 63 68  1  0  0  0  0
 64 79  1  0  0  0  0
 65 68  1  0  0  0  0
 65 78  1  0  0  0  0
 66 79  1  0  0  0  0
 67 87  1  0  0  0  0
 69 70  1  0  0  0  0
M  CHG  1  79   1
M  ISO  4  39 100  67 101  76 100  87 101
M  END
> <Batch ID>
0077

> <Smiles>
CNC(C)C(=O)NC(C(=O)N1Cc2cc([101O:1][101CH:1](C)C3CC4(CCN4c4cc([100NH:0][100C:0](=O)N5CCCC(n6nc(-c7ccc(Oc8ccc(F)cc8F)cc7)c(C(N)=O)c6N)C5)ccc4C)CC3=O)ccc2CC1C(=O)NC1CCCc2ccccc21)C(C)(C)C

> <Shape>
0.207

> <Color>
0.083

> <Negative vol penalty>
0.000

$$$$

  -OEChem-04042323533D

 86 95  0     1  0  0  0  0  0999 V2000
  -19.8125  -30.4962   24.9371 C   0  0  0  0  0  0  0  0  0  0  0  0
  -21.1142  -30.2300   24.5248 C   0  0  0  0  0  0  0  0  0  0  0  0
  -33.0422  -22.0458   22.4873 C   0  0  0  0  0  0  0  0  0  0  0  0
  -24.6950  -13.8915   21.1142 C   0  0  0  0  0  0  0  0  0  0  0  0
  -26.6800  -13.3848   19.8335 C   0  0  0  0  0  0  0  0  0  0  0  0
  -18.7610  -29.7048   24.4767 C   0  0  0  0  0  0  0  0  0  0  0  0
  -21.3654  -29.1713   23.6526 C   0  0  0  0  0  0  0  0  0  0  0  0
  -24.5597  -30.4354   19.9320 C   0  0  0  0  0  0  0  0  0  0  0  0
  -32.8115  -23.4139   22.6309 C   0  0  0  0  0  0  0  0  0  0  0  0
  -32.2282  -21.2855   21.6477 C   0  0  0  0  0  0  0  0  0  0  0  0
  -24.1267  -12.6830   20.7116 C   0  0  0  0  0  0  0  0  0  0  0  0
  -26.1117  -12.1763   19.4309 C   0  0  0  0  0  0  0  0  0  0  0  0
  -25.9166  -30.4875   20.2480 C   0  0  0  0  0  0  0  0  0  0  0  0
  -24.3740   -9.4148   21.5427 C   0  0  0  0  0  0  0  0  0  0  0  0
  -23.7425   -8.6396   22.5153 C   0  0  0  0  0  0  0  0  0  0  0  0
  -26.2225  -28.3047   19.2676 C   0  0  0  0  0  0  0  0  0  0  0  0
  -30.9525  -23.2616   21.0953 C   0  0  0  0  0  0  0  0  0  0  0  0
  -21.6676   -8.7886   21.2866 C   0  0  0  0  0  0  0  0  0  0  0  0
  -25.9716  -14.2425   20.6751 C   0  0  0  0  0  0  0  0  0  0  0  0
  -27.3530  -15.7196   22.2300 C   0  0  0  0  0  0  0  0  0  0  0  0
  -18.9982  -28.6419   23.5909 C   0  0  0  0  0  0  0  0  0  0  0  0
  -24.0210  -29.3110   19.2901 C   0  0  0  0  0  0  0  0  0  0  0  0
  -20.3162  -28.3641   23.1810 C   0  0  0  0  0  0  0  0  0  0  0  0
  -24.8590  -28.2419   18.9423 C   0  0  0  0  0  0  0  0  0  0  0  0
  -31.7667  -24.0218   21.9349 C   0  0  0  0  0  0  0  0  0  0  0  0
  -31.1833  -21.8934   20.9517 C   0  0  0  0  0  0  0  0  0  0  0  0
  -24.8350  -11.8254   19.8699 C   0  0  0  0  0  0  0  0  0  0  0  0
  -26.7477  -29.4208   19.9184 C   0  0  0  0  0  0  0  0  0  0  0  0
  -23.6523   -9.8770   20.4421 C   0  0  0  0  0  0  0  0  0  0  0  0
  -22.3893   -8.3265   22.3872 C   0  0  0  0  0  0  0  0  0  0  0  0
  -22.2991   -9.5639   20.3141 C   0  0  0  0  0  0  0  0  0  0  0  0
  -26.5590  -15.4910   21.0902 C   0  0  0  0  0  0  0  0  0  0  0  0
  -27.6586  -17.0574   22.1728 C   0  0  0  0  0  0  0  0  0  0  0  0
  -30.6677  -27.5086   21.8874 C   0  0  0  0  0  0  0  0  0  0  0  0
  -31.7750  -27.6084   22.8048 C   0  0  0  0  0  0  0  0  0  0  0  0
  -30.5167  -26.1000   21.4271 C   0  0  0  0  0  0  0  0  0  0  0  0
  -32.2342  -28.6938   23.4369 C   0  0  0  0  0  0  0  0  0  0  0  0
  -29.8413  -28.4654   21.4509 C   0  0  0  0  0  0  0  0  0  0  0  0
  -27.7764  -14.8045   23.2492 C   0  0  0  0  0  0  0  0  0  0  0  0
  -21.8239  -27.1391   20.0379 C   0  0  0  0  0  0  0  0  0  0  0  0
  -22.3188  -26.1561   16.9865 C   0  0  0  0  0  0  0  0  0  0  0  0
  -24.4028  -26.0238   14.2872 C   0  0  0  0  0  0  0  0  0  0  0  0
  -29.2778  -21.5670   19.3365 C   0  0  0  0  0  0  0  0  0  0  0  0
  -17.8354  -27.7848   23.1575 C   0  0  0  0  0  0  0  0  0  0  0  0
  -22.5604  -29.2817   18.9321 C   0  0  0  0  0  0  0  0  0  0  0  0
  -24.3339  -27.0205   18.2345 C   0  0  0  0  0  0  0  0  0  0  0  0
  -32.3564  -26.2339   22.9429 C   0  0  0  0  0  0  0  0  0  0  0  0
  -18.1399  -26.9151   21.9405 C   0  0  0  0  0  0  0  0  0  0  0  0
  -25.8182  -20.7335   19.2195 C   0  0  0  0  0  0  0  0  0  0  0  0
  -19.4871  -26.2190   22.1055 C   0  0  0  0  0  0  0  0  0  0  0  0
  -25.7679  -19.3141   19.7895 C   0  0  0  0  0  0  0  0  0  0  0  0
  -27.0692  -20.9604   18.3726 C   0  0  0  0  0  0  0  0  0  0  0  0
  -28.2862  -19.2091   19.6058 C   0  0  0  0  0  0  0  0  0  0  0  0
  -20.6258  -27.2400   22.2163 C   0  0  1  0  0  0  0  0  0  0  0  0
  -22.0208  -27.8679   18.7388 C   0  0  1  0  0  0  0  0  0  0  0  0
  -27.0765  -18.9531   20.5194 C   0  0  2  0  0  0  0  0  0  0  0  0
  -24.5449  -25.1193   11.9507 C   0  0  0  0  0  0  0  0  0  0  0  0
  -22.8280  -23.3620   18.1017 C   0  0  0  0  0  0  0  0  0  0  0  0
  -23.8707  -22.7525   15.9087 C   0  0  0  0  0  0  0  0  0  0  0  0
  -21.4679  -23.4159   16.0037 C   0  0  0  0  0  0  0  0  0  0  0  0
  -24.6837  -28.7337   13.1311 C   0  0  0  0  0  0  0  0  0  0  0  0
  -28.7230  -28.2267   20.4913 C   0  0  0  0  0  0  0  0  0  1  0  0
  -23.2536  -25.1781   16.3167 C   0  0  1  0  0  0  0  0  0  0  0  0
  -24.1646  -26.3109   12.8157 C   0  0  2  0  0  0  0  0  0  0  0  0
  -22.8649  -23.6992   16.5977 C   0  0  0  0  0  0  0  0  0  0  0  0
  -26.3718  -16.5951   20.3623 N   0  0  0  0  0  0  0  0  0  0  0  0
  -27.0524  -17.5305   21.0463 N   0  0  0  0  0  0  0  0  0  0  0  0
  -31.5374  -25.3865   22.0783 N   0  0  0  0  0  0  0  0  0  0  0  0
  -22.8976  -27.0365   17.9115 N   0  0  0  0  0  0  0  0  0  0  0  0
  -28.2699  -20.6014   19.1304 N   0  0  0  0  0  0  0  0  0  0  0  0
  -28.3840  -17.8636   22.9768 N   0  0  0  0  0  0  0  0  0  0  0  0
  -27.3728  -13.4656   23.1547 N   0  0  0  0  0  0  0  0  0  0  0  0
  -30.3567  -21.1206   20.0988 N   0  0  0  0  0  0  0  0  0  0  0  0
  -20.9584  -27.7698   20.9112 N   0  0  0  0  0  0  0  0  0  0  0  0
  -23.2701  -25.5330   14.9017 N   0  0  0  0  0  0  0  0  0  0  0  0
  -24.9722  -27.4850   12.3797 N   0  3  0  0  0  0  0  0  0  0  0  0
  -29.6737  -25.6870   20.6485 O   0  0  0  0  0  0  0  0  0  0  0  0
  -28.4780  -15.1668   24.2239 O   0  0  0  0  0  0  0  0  0  0  0  0
  -22.4124  -26.0821   20.2329 O   0  0  0  0  0  0  0  0  0  0  0  0
  -21.1204  -26.1441   16.6943 O   0  0  0  0  0  0  0  0  0  0  0  0
  -25.4863  -26.2122   14.8357 O   0  0  0  0  0  0  0  0  0  0  0  0
  -29.1777  -22.7142   18.8939 O   0  0  0  0  0  0  0  0  0  0  0  0
  -24.2809  -10.6459   19.4771 O   0  0  0  0  0  0  0  0  0  0  0  0
  -28.0724  -29.4688   20.2263 O   0  0  0  0  0  0  0  0  0  1  0  0
  -21.7834   -7.5807   23.3204 F   0  0  0  0  0  0  0  0  0  0  0  0
  -21.6008  -10.0040   19.2584 F   0  0  0  0  0  0  0  0  0  0  0  0
  1  2  1  0  0  0  0
  1  6  2  0  0  0  0
  2  7  2  0  0  0  0
  3  9  2  0  0  0  0
  3 10  1  0  0  0  0
  4 11  2  0  0  0  0
  4 19  1  0  0  0  0
  5 12  1  0  0  0  0
  5 19  2  0  0  0  0
  6 21  1  0  0  0  0
  7 23  1  0  0  0  0
  8 13  2  0  0  0  0
  8 22  1  0  0  0  0
  9 25  1  0  0  0  0
 10 26  2  0  0  0  0
 11 27  1  0  0  0  0
 12 27  2  0  0  0  0
 13 28  1  0  0  0  0
 14 15  2  0  0  0  0
 14 29  1  0  0  0  0
 15 30  1  0  0  0  0
 16 24  1  0  0  0  0
 16 28  2  0  0  0  0
 17 25  2  0  0  0  0
 17 26  1  0  0  0  0
 18 30  2  0  0  0  0
 18 31  1  0  0  0  0
 19 32  1  0  0  0  0
 20 32  1  0  0  0  0
 20 33  2  0  0  0  0
 20 39  1  0  0  0  0
 21 23  2  0  0  0  0
 21 44  1  0  0  0  0
 22 24  2  0  0  0  0
 22 45  1  0  0  0  0
 23 54  1  0  0  0  0
 24 46  1  0  0  0  0
 25 68  1  0  0  0  0
 26 73  1  0  0  0  0
 27 83  1  0  0  0  0
 28 84  1  0  0  0  0
 29 31  2  0  0  0  0
 29 83  1  0  0  0  0
 30 85  1  0  0  0  0
 31 86  1  0  0  0  0
 32 66  2  0  0  0  0
 33 67  1  0  0  0  0
 33 71  1  0  0  0  0
 34 35  1  0  0  0  0
 34 36  1  0  0  0  0
 34 38  2  0  0  0  0
 35 37  2  0  0  0  0
 35 47  1  0  0  0  0
 36 68  1  0  0  0  0
 36 77  2  0  0  0  0
 38 62  1  0  0  0  0
 39 72  1  0  0  0  0
 39 78  2  0  0  0  0
 40 55  1  0  0  0  0
 40 74  1  0  0  0  0
 40 79  2  0  0  0  0
 41 63  1  0  0  0  0
 41 69  1  0  0  0  0
 41 80  2  0  0  0  0
 42 64  1  0  0  0  0
 42 75  1  0  0  0  0
 42 81  2  0  0  0  0
 43 70  1  0  0  0  0
 43 73  1  0  0  0  0
 43 82  2  0  0  0  0
 44 48  1  0  0  0  0
 45 55  1  0  0  0  0
 46 69  1  0  0  0  0
 47 68  1  0  0  0  0
 48 50  1  0  0  0  0
 49 51  1  0  0  0  0
 49 52  1  0  0  0  0
 50 54  1  0  0  0  0
 51 56  1  0  0  0  0
 52 70  1  0  0  0  0
 53 56  1  0  0  0  0
 53 70  1  0  0  0  0
 54 74  1  0  0  0  0
 55 69  1  0  0  0  0
 56 67  1  0  0  0  0
 57 64  1  0  0  0  0
 58 65  1  0  0  0  0
 59 65  1  0  0  0  0
 60 65  1  0  0  0  0
 61 76  1  0  0  0  0
 62 84  1  0  0  0  0
 63 65  1  0  0  0  0
 63 75  1  0  0  0  0
 64 76  1  0  0  0  0
 66 67  1  0  0  0  0
M  CHG  1  76   1
M  ISO  4  43 100  62 101  73 100  84 101
M  END
> <Batch ID>
0077

> <Smiles>
C=C1CN(c2cccc([100NH:0][100C:0](=O)N3CCCC(n4nc(-c5ccc(Oc6ccc(F)cc6F)cc5)c(C(N)=O)c4N)C3)c2)C(=O)C1=C[101CH2:1][101O:1]c1ccc2c(c1)CN(C(=O)C(NC(=O)C(C)NC)C(C)(C)C)C(C(=O)NC1CCCc3ccccc31)C2

> <Shape>
0.240

> <Color>
0.074

> <Negative vol penalty>
0.000

$$$$

  -OEChem-04042323533D

 86 95  0     1  0  0  0  0  0999 V2000
  -16.5290  -29.3041   24.1476 C   0  0  0  0  0  0  0  0  0  0  0  0
  -16.8104  -28.7311   22.9115 C   0  0  0  0  0  0  0  0  0  0  0  0
  -33.2380  -27.6661   19.7278 C   0  0  0  0  0  0  0  0  0  0  0  0
  -28.8930  -17.1060   19.9128 C   0  0  0  0  0  0  0  0  0  0  0  0
  -27.8558  -16.6799   22.0528 C   0  0  0  0  0  0  0  0  0  0  0  0
  -33.4705  -27.2017   21.0224 C   0  0  0  0  0  0  0  0  0  0  0  0
  -17.4276  -30.2048   24.7179 C   0  0  0  0  0  0  0  0  0  0  0  0
  -17.9901  -29.0593   22.2444 C   0  0  0  0  0  0  0  0  0  0  0  0
  -23.7023  -24.4262   19.6115 C   0  0  0  0  0  0  0  0  0  0  0  0
  -32.2167  -27.1074   18.9594 C   0  0  0  0  0  0  0  0  0  0  0  0
  -28.6867  -15.7756   19.5479 C   0  0  0  0  0  0  0  0  0  0  0  0
  -27.6494  -15.3495   21.6879 C   0  0  0  0  0  0  0  0  0  0  0  0
  -24.8498  -23.7240   19.2423 C   0  0  0  0  0  0  0  0  0  0  0  0
  -25.4751  -13.5995   19.7825 C   0  0  0  0  0  0  0  0  0  0  0  0
  -24.2254  -13.0417   20.0516 C   0  0  0  0  0  0  0  0  0  0  0  0
  -31.6605  -25.6198   20.7800 C   0  0  0  0  0  0  0  0  0  0  0  0
  -26.1827  -25.7177   19.5530 C   0  0  0  0  0  0  0  0  0  0  0  0
  -25.2716  -11.3723   21.4500 C   0  0  0  0  0  0  0  0  0  0  0  0
  -28.4776  -17.5581   21.1653 C   0  0  0  0  0  0  0  0  0  0  0  0
  -32.6818  -26.1785   21.5485 C   0  0  0  0  0  0  0  0  0  0  0  0
  -28.1921  -20.0788   20.8964 C   0  0  0  0  0  0  0  0  0  0  0  0
  -18.6235  -30.5368   24.0620 C   0  0  0  0  0  0  0  0  0  0  0  0
  -23.7931  -25.7745   19.9681 C   0  0  0  0  0  0  0  0  0  0  0  0
  -18.9050  -29.9663   22.8059 C   0  0  0  0  0  0  0  0  0  0  0  0
  -25.0386  -26.4230   19.9357 C   0  0  0  0  0  0  0  0  0  0  0  0
  -31.4280  -26.0843   19.4855 C   0  0  0  0  0  0  0  0  0  0  0  0
  -28.0649  -14.8974   20.4354 C   0  0  0  0  0  0  0  0  0  0  0  0
  -26.0869  -24.3682   19.2129 C   0  0  0  0  0  0  0  0  0  0  0  0
  -26.6232  -13.0437   20.3471 C   0  0  0  0  0  0  0  0  0  0  0  0
  -24.1236  -11.9281   20.8853 C   0  0  0  0  0  0  0  0  0  0  0  0
  -26.5214  -11.9301   21.1809 C   0  0  0  0  0  0  0  0  0  0  0  0
  -28.6909  -18.9321   21.5430 C   0  0  0  0  0  0  0  0  0  0  0  0
  -28.6743  -21.1288   21.6389 C   0  0  0  0  0  0  0  0  0  0  0  0
  -29.1994  -24.9734   19.2656 C   0  0  0  0  0  0  0  0  0  0  0  0
  -32.9306  -25.6850   22.9274 C   0  0  0  0  0  0  0  0  0  0  0  0
  -27.3666  -20.1853   19.7290 C   0  0  0  0  0  0  0  0  0  0  0  0
  -22.0038  -28.8635   21.1225 C   0  0  0  0  0  0  0  0  0  0  0  0
  -24.6647  -28.7536   22.6450 C   0  0  0  0  0  0  0  0  0  0  0  0
  -27.4923  -28.0420   24.4158 C   0  0  0  0  0  0  0  0  0  0  0  0
  -32.7469  -23.6931   24.3842 C   0  0  0  0  0  0  0  0  0  0  0  0
  -19.5417  -31.5515   24.6961 C   0  0  0  0  0  0  0  0  0  0  0  0
  -22.5741  -26.5862   20.3130 C   0  0  0  0  0  0  0  0  0  0  0  0
  -25.0833  -27.8833   20.2939 C   0  0  0  0  0  0  0  0  0  0  0  0
  -20.9461  -31.5598   24.0979 C   0  0  0  0  0  0  0  0  0  0  0  0
  -30.2022  -24.1375   16.6387 C   0  0  0  0  0  0  0  0  0  0  0  0
  -30.9764  -21.1943   26.1501 C   0  0  0  0  0  0  0  0  0  0  0  0
  -20.8774  -31.5479   22.5741 C   0  0  0  0  0  0  0  0  0  0  0  0
  -28.9962  -23.4642   17.2916 C   0  0  0  0  0  0  0  0  0  0  0  0
  -30.1749  -20.4799   25.0584 C   0  0  0  0  0  0  0  0  0  0  0  0
  -30.4829  -25.5150   17.2289 C   0  0  0  0  0  0  0  0  0  0  0  0
  -32.3650  -21.6019   25.6597 C   0  0  0  0  0  0  0  0  0  0  0  0
  -31.5845  -21.6616   23.3262 C   0  0  0  0  0  0  0  0  0  0  0  0
  -20.1859  -30.2783   22.0629 C   0  0  1  0  0  0  0  0  0  0  0  0
  -28.2387  -24.4056   18.2215 C   0  0  1  0  0  0  0  0  0  1  0  0
  -22.8426  -27.6492   21.3933 C   0  0  1  0  0  0  0  0  0  0  0  0
  -30.1530  -21.2933   23.7487 C   0  0  1  0  0  0  0  0  0  0  0  0
  -28.9436  -28.9419   26.2546 C   0  0  0  0  0  0  0  0  0  0  0  0
  -25.8292  -30.8087   20.7151 C   0  0  0  0  0  0  0  0  0  0  0  0
  -27.8207  -30.9900   22.2214 C   0  0  0  0  0  0  0  0  0  0  0  0
  -25.5593  -31.6198   23.0653 C   0  0  0  0  0  0  0  0  0  0  0  0
  -27.0157  -25.6649   26.1132 C   0  0  0  0  0  0  0  0  0  0  0  0
  -26.1100  -29.1797   22.6984 C   0  0  1  0  0  0  0  0  0  0  0  0
  -27.7720  -28.0365   25.9078 C   0  0  2  0  0  0  0  0  0  0  0  0
  -26.3221  -30.6244   22.1642 C   0  0  0  0  0  0  0  0  0  0  0  0
  -29.4333  -19.2259   22.6138 N   0  0  0  0  0  0  0  0  0  0  0  0
  -29.4045  -20.5691   22.6457 N   0  0  0  0  0  0  0  0  0  0  0  0
  -30.3749  -25.5087   18.6932 N   0  0  0  0  0  0  0  0  0  0  0  0
  -24.2294  -28.1399   21.4642 N   0  0  0  0  0  0  0  0  0  0  0  0
  -32.2567  -22.3761   24.4219 N   0  0  0  0  0  0  0  0  0  0  0  0
  -28.5409  -22.4671   21.5222 N   0  0  0  0  0  0  0  0  0  0  0  0
  -25.9748  -20.1964   19.8936 N   0  0  0  0  0  0  0  0  0  0  0  0
  -32.5578  -24.3627   23.1701 N   0  0  0  0  0  0  0  0  0  0  0  0
  -21.0920  -29.1513   22.1202 N   0  0  0  0  0  0  0  0  0  0  0  0
  -26.5429  -28.9830   24.0777 N   0  0  0  0  0  0  0  0  0  0  0  0
  -28.0920  -26.6562   26.3697 N   0  3  0  0  0  0  0  0  0  0  0  0
  -28.9314  -24.9002   20.4636 O   0  0  0  0  0  0  0  0  0  0  0  0
  -33.4698  -26.4300   23.7410 O   0  0  0  0  0  0  0  0  0  0  0  0
  -27.8486  -20.2516   18.5727 O   0  0  0  0  0  0  0  0  0  0  0  0
  -22.1716  -29.4947   20.0857 O   0  0  0  0  0  0  0  0  0  0  0  0
  -23.9377  -28.9631   23.6201 O   0  0  0  0  0  0  0  0  0  0  0  0
  -28.0619  -27.2895   23.6285 O   0  0  0  0  0  0  0  0  0  0  0  0
  -33.2732  -24.2392   25.3589 O   0  0  0  0  0  0  0  0  0  0  0  0
  -27.8632  -13.5992   20.0796 O   0  0  0  0  0  0  0  0  0  0  0  0
  -27.2038  -23.6756   18.8559 O   0  0  0  0  0  0  0  0  0  1  0  0
  -22.9232  -11.3934   21.1449 F   0  0  0  0  0  0  0  0  0  0  0  0
  -27.6207  -11.3925   21.7271 F   0  0  0  0  0  0  0  0  0  0  0  0
  1  2  1  0  0  0  0
  1  7  2  0  0  0  0
  2  8  2  0  0  0  0
  3  6  1  0  0  0  0
  3 10  2  0  0  0  0
  4 11  2  0  0  0  0
  4 19  1  0  0  0  0
  5 12  1  0  0  0  0
  5 19  2  0  0  0  0
  6 20  2  0  0  0  0
  7 22  1  0  0  0  0
  8 24  1  0  0  0  0
  9 13  2  0  0  0  0
  9 23  1  0  0  0  0
 10 26  1  0  0  0  0
 11 27  1  0  0  0  0
 12 27  2  0  0  0  0
 13 28  1  0  0  0  0
 14 15  2  0  0  0  0
 14 29  1  0  0  0  0
 15 30  1  0  0  0  0
 16 20  1  0  0  0  0
 16 26  2  0  0  0  0
 17 25  1  0  0  0  0
 17 28  2  0  0  0  0
 18 30  2  0  0  0  0
 18 31  1  0  0  0  0
 19 32  1  0  0  0  0
 20 35  1  0  0  0  0
 21 32  1  0  0  0  0
 21 33  2  0  0  0  0
 21 36  1  0  0  0  0
 22 24  2  0  0  0  0
 22 41  1  0  0  0  0
 23 25  2  0  0  0  0
 23 42  1  0  0  0  0
 24 53  1  0  0  0  0
 25 43  1  0  0  0  0
 26 67  1  0  0  0  0
 27 83  1  0  0  0  0
 28 84  1  0  0  0  0
 29 31  2  0  0  0  0
 29 83  1  0  0  0  0
 30 85  1  0  0  0  0
 31 86  1  0  0  0  0
 32 65  2  0  0  0  0
 33 66  1  0  0  0  0
 33 70  1  0  0  0  0
 34 54  1  0  0  0  0
 34 67  1  0  0  0  0
 34 76  2  0  0  0  0
 35 72  1  0  0  0  0
 35 77  2  0  0  0  0
 36 71  1  0  0  0  0
 36 78  2  0  0  0  0
 37 55  1  0  0  0  0
 37 73  1  0  0  0  0
 37 79  2  0  0  0  0
 38 62  1  0  0  0  0
 38 68  1  0  0  0  0
 38 80  2  0  0  0  0
 39 63  1  0  0  0  0
 39 74  1  0  0  0  0
 39 81  2  0  0  0  0
 40 69  1  0  0  0  0
 40 72  1  0  0  0  0
 40 82  2  0  0  0  0
 41 44  1  0  0  0  0
 42 55  1  0  0  0  0
 43 68  1  0  0  0  0
 44 47  1  0  0  0  0
 45 48  1  0  0  0  0
 45 50  1  0  0  0  0
 46 49  1  0  0  0  0
 46 51  1  0  0  0  0
 47 53  1  0  0  0  0
 48 54  1  0  0  0  0
 49 56  1  0  0  0  0
 50 67  1  0  0  0  0
 51 69  1  0  0  0  0
 52 56  1  0  0  0  0
 52 69  1  0  0  0  0
 53 73  1  0  0  0  0
 54 84  1  0  0  0  0
 55 68  1  0  0  0  0
 56 66  1  0  0  0  0
 57 63  1  0  0  0  0
 58 64  1  0  0  0  0
 59 64  1  0  0  0  0
 60 64  1  0  0  0  0
 61 75  1  0  0  0  0
 62 64  1  0  0  0  0
 62 74  1  0  0  0  0
 63 75  1  0  0  0  0
 65 66  1  0  0  0  0
M  CHG  1  75   1
M  ISO  4  40 100  54 101  72 100  84 101
M  END
> <Batch ID>
0077

> <Smiles>
CNC(C)C(=O)NC(C(=O)N1Cc2cc([101O:1][101CH:1]3CCCN(c4cccc(C(=O)[100NH:0][100C:0](=O)N5CCCC(n6nc(-c7ccc(Oc8ccc(F)cc8F)cc7)c(C(N)=O)c6N)C5)c4)C3=O)ccc2CC1C(=O)NC1CCCc2ccccc21)C(C)(C)C

> <Shape>
0.247

> <Color>
0.065

> <Negative vol penalty>
0.000

$$$$

  -OEChem-04042323533D

 88 97  0     1  0  0  0  0  0999 V2000
  -26.2811  -35.8728   22.0724 C   0  0  0  0  0  0  0  0  0  0  0  0
  -26.8036  -34.5840   22.0356 C   0  0  0  0  0  0  0  0  0  0  0  0
  -24.1293   -8.8189   20.2779 C   0  0  0  0  0  0  0  0  0  0  0  0
  -22.9895  -10.5706   21.4903 C   0  0  0  0  0  0  0  0  0  0  0  0
  -24.9874  -36.0861   22.5463 C   0  0  0  0  0  0  0  0  0  0  0  0
  -26.0329  -33.5077   22.4740 C   0  0  0  0  0  0  0  0  0  0  0  0
  -26.2748  -29.5398   19.3367 C   0  0  0  0  0  0  0  0  0  0  0  0
  -23.1878   -7.8940   20.7292 C   0  0  0  0  0  0  0  0  0  0  0  0
  -22.0480   -9.6456   21.9416 C   0  0  0  0  0  0  0  0  0  0  0  0
  -27.4159  -28.7418   19.4063 C   0  0  0  0  0  0  0  0  0  0  0  0
  -22.5678   -6.1493   23.5570 C   0  0  0  0  0  0  0  0  0  0  0  0
  -23.0388   -4.9245   24.0298 C   0  0  0  0  0  0  0  0  0  0  0  0
  -26.2065  -27.1398   20.7444 C   0  0  0  0  0  0  0  0  0  0  0  0
  -28.0857  -20.1436   20.1174 C   0  0  0  0  0  0  0  0  0  0  0  0
  -29.7786  -18.7380   21.8324 C   0  0  0  0  0  0  0  0  0  0  0  0
  -21.7629   -3.7773   22.3289 C   0  0  0  0  0  0  0  0  0  0  0  0
  -24.0302  -10.1572   20.6585 C   0  0  0  0  0  0  0  0  0  0  0  0
  -24.9402  -11.8860   19.0181 C   0  0  0  0  0  0  0  0  0  0  0  0
  -24.1969  -35.0108   22.9816 C   0  0  0  0  0  0  0  0  0  0  0  0
  -25.0922  -29.1485   19.9807 C   0  0  0  0  0  0  0  0  0  0  0  0
  -24.7278  -33.7070   22.9554 C   0  0  0  0  0  0  0  0  0  0  0  0
  -25.0511  -27.9335   20.6793 C   0  0  0  0  0  0  0  0  0  0  0  0
  -28.8969  -20.8346   21.0175 C   0  0  0  0  0  0  0  0  0  0  0  0
  -28.1209  -18.7498   20.0749 C   0  0  0  0  0  0  0  0  0  0  0  0
  -28.9674  -18.0470   20.9324 C   0  0  0  0  0  0  0  0  0  0  0  0
  -22.1472   -8.3073   21.5610 C   0  0  0  0  0  0  0  0  0  0  0  0
  -27.3827  -27.5430   20.1126 C   0  0  0  0  0  0  0  0  0  0  0  0
  -21.6943   -6.1882   22.4702 C   0  0  0  0  0  0  0  0  0  0  0  0
  -22.6364   -3.7385   23.4158 C   0  0  0  0  0  0  0  0  0  0  0  0
  -29.7434  -20.1318   21.8749 C   0  0  0  0  0  0  0  0  0  0  0  0
  -21.2919   -5.0021   21.8561 C   0  0  0  0  0  0  0  0  0  0  0  0
  -25.0027  -11.1131   20.1930 C   0  0  0  0  0  0  0  0  0  0  0  0
  -26.0957  -12.6283   19.0335 C   0  0  0  0  0  0  0  0  0  0  0  0
  -28.6470  -24.4431   20.4850 C   0  0  0  0  0  0  0  0  0  0  0  0
  -28.9792  -24.4203   21.8874 C   0  0  0  0  0  0  0  0  0  0  0  0
  -28.5703  -23.0513   19.9598 C   0  0  0  0  0  0  0  0  0  0  0  0
  -29.1400  -25.4547   22.7195 C   0  0  0  0  0  0  0  0  0  0  0  0
  -23.9281  -11.9291   18.0034 C   0  0  0  0  0  0  0  0  0  0  0  0
  -28.4219  -25.4916   19.6854 C   0  0  0  0  0  0  0  0  0  1  0  0
  -23.2956  -30.3637   22.3043 C   0  0  0  0  0  0  0  0  0  0  0  0
  -21.3229  -27.9070   21.5327 C   0  0  0  0  0  0  0  0  0  0  0  0
  -20.9606  -24.8036   20.1600 C   0  0  0  0  0  0  0  0  0  0  0  0
  -29.8109  -15.8019   21.7034 C   0  0  0  0  0  0  0  0  0  0  0  0
  -22.8212  -35.2963   23.5299 C   0  0  0  0  0  0  0  0  0  0  0  0
  -23.8622  -30.0077   19.8737 C   0  0  0  0  0  0  0  0  0  0  0  0
  -23.8004  -27.4584   21.3711 C   0  0  0  0  0  0  0  0  0  0  0  0
  -29.1220  -22.9813   22.2816 C   0  0  0  0  0  0  0  0  0  0  0  0
  -21.9344  -34.0575   23.6252 C   0  0  0  0  0  0  0  0  0  0  0  0
  -30.1998  -12.2732   21.9750 C   0  0  0  0  0  0  0  0  0  0  0  0
  -22.7016  -32.8988   24.2543 C   0  0  0  0  0  0  0  0  0  0  0  0
  -28.8772  -11.7204   21.4390 C   0  0  0  0  0  0  0  0  0  0  0  0
  -29.9958  -13.5636   22.7668 C   0  0  0  0  0  0  0  0  0  0  0  0
  -27.9265  -14.0604   21.5256 C   0  0  0  0  0  0  0  0  0  0  0  0
  -23.9138  -32.5108   23.3990 C   0  0  1  0  0  0  0  0  0  0  0  0
  -22.8613  -29.7609   20.9983 C   0  0  1  0  0  0  0  0  0  0  0  0
  -28.0888  -12.7959   20.6662 C   0  0  2  0  0  0  0  0  0  0  0  0
  -28.0832  -25.3686   18.2347 C   0  0  0  0  0  0  0  0  0  0  0  0
  -19.2347  -23.0390   19.7074 C   0  0  0  0  0  0  0  0  0  0  0  0
  -21.3713  -27.1079   24.4770 C   0  0  0  0  0  0  0  0  0  0  0  0
  -20.4544  -24.8745   23.8140 C   0  0  0  0  0  0  0  0  0  0  0  0
  -19.1260  -26.9425   23.3880 C   0  0  0  0  0  0  0  0  0  0  0  0
  -21.3913  -24.9677   17.2365 C   0  0  0  0  0  0  0  0  0  0  0  0
  -21.1744  -26.4735   21.9821 C   0  0  1  0  0  0  0  0  0  0  0  0
  -19.9613  -24.2563   19.1568 C   0  0  2  0  0  0  0  0  0  0  0  0
  -20.5558  -26.3592   23.4040 C   0  0  0  0  0  0  0  0  0  0  0  0
  -26.1103  -11.3430   20.9032 N   0  0  0  0  0  0  0  0  0  0  0  0
  -26.7546  -12.2687   20.1723 N   0  0  0  0  0  0  0  0  0  0  0  0
  -28.8590  -22.2247   21.0590 N   0  0  0  0  0  0  0  0  0  0  0  0
  -22.6257  -28.3365   21.2428 N   0  0  0  0  0  0  0  0  0  0  0  0
  -29.2455  -14.5371   21.9703 N   0  0  0  0  0  0  0  0  0  0  0  0
  -27.2913  -18.0699   19.1551 N   0  0  0  0  0  0  0  0  0  0  0  0
  -26.6024  -13.5469   18.1840 N   0  0  0  0  0  0  0  0  0  0  0  0
  -22.8060  -11.1011   18.1434 N   0  0  0  0  0  0  0  0  0  0  0  0
  -29.0197  -16.6312   20.9092 N   0  0  0  0  0  0  0  0  0  0  0  0
  -23.4957  -31.7300   22.2545 N   0  0  0  0  0  0  0  0  0  0  0  0
  -20.4084  -25.7966   20.9411 N   0  0  0  0  0  0  0  0  0  0  0  0
  -20.6545  -23.8605   17.8983 N   0  3  0  0  0  0  0  0  0  0  0  0
  -28.3093  -22.7318   18.8121 O   0  0  0  0  0  0  0  0  0  0  0  0
  -24.0241  -12.6676   16.9940 O   0  0  0  0  0  0  0  0  0  0  0  0
  -23.4371  -29.6427   23.2851 O   0  0  0  0  0  0  0  0  0  0  0  0
  -20.3191  -28.6173   21.4354 O   0  0  0  0  0  0  0  0  0  0  0  0
  -22.1145  -24.3889   20.2448 O   0  0  0  0  0  0  0  0  0  0  0  0
  -30.9275  -16.1155   22.1241 O   0  0  0  0  0  0  0  0  0  0  0  0
  -21.2282   -7.4050   22.0014 O   0  0  0  0  0  0  0  0  0  0  0  0
  -28.4952  -26.7624   20.1827 O   0  0  0  0  0  0  0  0  0  1  0  0
  -23.0900   -2.5625   23.8689 F   0  0  0  0  0  0  0  0  0  0  0  0
  -30.5279  -20.7855   22.7437 F   0  0  0  0  0  0  0  0  0  0  0  0
  -20.4538   -5.0332   20.8109 F   0  0  0  0  0  0  0  0  0  0  0  0
  1  2  1  0  0  0  0
  1  5  2  0  0  0  0
  2  6  2  0  0  0  0
  3  8  2  0  0  0  0
  3 17  1  0  0  0  0
  4  9  1  0  0  0  0
  4 17  2  0  0  0  0
  5 19  1  0  0  0  0
  6 21  1  0  0  0  0
  7 10  2  0  0  0  0
  7 20  1  0  0  0  0
  8 26  1  0  0  0  0
  9 26  2  0  0  0  0
 10 27  1  0  0  0  0
 11 12  2  0  0  0  0
 11 28  1  0  0  0  0
 12 29  1  0  0  0  0
 13 22  1  0  0  0  0
 13 27  2  0  0  0  0
 14 23  1  0  0  0  0
 14 24  2  0  0  0  0
 15 25  2  0  0  0  0
 15 30  1  0  0  0  0
 16 29  2  0  0  0  0
 16 31  1  0  0  0  0
 17 32  1  0  0  0  0
 18 32  1  0  0  0  0
 18 33  2  0  0  0  0
 18 38  1  0  0  0  0
 19 21  2  0  0  0  0
 19 44  1  0  0  0  0
 20 22  2  0  0  0  0
 20 45  1  0  0  0  0
 21 54  1  0  0  0  0
 22 46  1  0  0  0  0
 23 30  2  0  0  0  0
 23 68  1  0  0  0  0
 24 25  1  0  0  0  0
 24 71  1  0  0  0  0
 25 74  1  0  0  0  0
 26 84  1  0  0  0  0
 27 85  1  0  0  0  0
 28 31  2  0  0  0  0
 28 84  1  0  0  0  0
 29 86  1  0  0  0  0
 30 87  1  0  0  0  0
 31 88  1  0  0  0  0
 32 66  2  0  0  0  0
 33 67  1  0  0  0  0
 33 72  1  0  0  0  0
 34 35  1  0  0  0  0
 34 36  1  0  0  0  0
 34 39  2  0  0  0  0
 35 37  2  0  0  0  0
 35 47  1  0  0  0  0
 36 68  1  0  0  0  0
 36 78  2  0  0  0  0
 38 73  1  0  0  0  0
 38 79  2  0  0  0  0
 39 57  1  0  0  0  0
 39 85  1  0  0  0  0
 40 55  1  0  0  0  0
 40 75  1  0  0  0  0
 40 80  2  0  0  0  0
 41 63  1  0  0  0  0
 41 69  1  0  0  0  0
 41 81  2  0  0  0  0
 42 64  1  0  0  0  0
 42 76  1  0  0  0  0
 42 82  2  0  0  0  0
 43 70  1  0  0  0  0
 43 74  1  0  0  0  0
 43 83  2  0  0  0  0
 44 48  1  0  0  0  0
 45 55  1  0  0  0  0
 46 69  1  0  0  0  0
 47 68  1  0  0  0  0
 48 50  1  0  0  0  0
 49 51  1  0  0  0  0
 49 52  1  0  0  0  0
 50 54  1  0  0  0  0
 51 56  1  0  0  0  0
 52 70  1  0  0  0  0
 53 56  1  0  0  0  0
 53 70  1  0  0  0  0
 54 75  1  0  0  0  0
 55 69  1  0  0  0  0
 56 67  1  0  0  0  0
 58 64  1  0  0  0  0
 59 65  1  0  0  0  0
 60 65  1  0  0  0  0
 61 65  1  0  0  0  0
 62 77  1  0  0  0  0
 63 65  1  0  0  0  0
 63 76  1  0  0  0  0
 64 77  1  0  0  0  0
 66 67  1  0  0  0  0
M  CHG  1  77   1
M  ISO  4  39 101  43 100  74 100  85 101
M  END
> <Batch ID>
0077

> <Smiles>
C=C1CN(c2cc(N)c([100NH:0][100C:0](=O)N3CCCC(n4nc(-c5ccc(Oc6ccc(F)cc6F)cc5)c(C(N)=O)c4N)C3)cc2F)C(=O)C1=[101C:1](C)[101O:1]c1ccc2c(c1)CN(C(=O)C(NC(=O)C(C)NC)C(C)(C)C)C(C(=O)NC1CCCc3ccccc31)C2

> <Shape>
0.331

> <Color>
0.115

> <Negative vol penalty>
0.000

$$$$

  -OEChem-04042323533D

 85 93  0     1  0  0  0  0  0999 V2000
  -33.3575  -31.9704   21.6055 C   0  0  0  0  0  0  0  0  0  0  0  0
  -32.5233  -30.8611   21.7007 C   0  0  0  0  0  0  0  0  0  0  0  0
  -23.0756   -9.8668   19.9437 C   0  0  0  0  0  0  0  0  0  0  0  0
  -23.8333   -9.8775   22.2378 C   0  0  0  0  0  0  0  0  0  0  0  0
  -34.7384  -31.8145   21.7183 C   0  0  0  0  0  0  0  0  0  0  0  0
  -33.0697  -29.5950   21.9078 C   0  0  0  0  0  0  0  0  0  0  0  0
  -30.5673  -26.9511   25.4281 C   0  0  0  0  0  0  0  0  0  0  0  0
  -31.8660  -17.3458   21.5586 C   0  0  0  0  0  0  0  0  0  0  0  0
  -32.3633  -18.5695   22.0065 C   0  0  0  0  0  0  0  0  0  0  0  0
  -22.3312   -8.7143   20.1948 C   0  0  0  0  0  0  0  0  0  0  0  0
  -23.0889   -8.7249   22.4890 C   0  0  0  0  0  0  0  0  0  0  0  0
  -29.3636  -26.3611   25.0452 C   0  0  0  0  0  0  0  0  0  0  0  0
  -19.8599   -7.9289   23.0897 C   0  0  0  0  0  0  0  0  0  0  0  0
  -19.1018   -7.8911   24.2599 C   0  0  0  0  0  0  0  0  0  0  0  0
  -29.8007  -17.7506   22.7451 C   0  0  0  0  0  0  0  0  0  0  0  0
  -30.4906  -24.2440   24.7864 C   0  0  0  0  0  0  0  0  0  0  0  0
  -20.3421   -5.9546   25.0008 C   0  0  0  0  0  0  0  0  0  0  0  0
  -23.8267  -10.4484   20.9651 C   0  0  0  0  0  0  0  0  0  0  0  0
  -30.2980  -18.9744   23.1931 C   0  0  0  0  0  0  0  0  0  0  0  0
  -24.1693  -12.9733   20.8412 C   0  0  0  0  0  0  0  0  0  0  0  0
  -35.3014  -30.5472   21.9365 C   0  0  0  0  0  0  0  0  0  0  0  0
  -31.7459  -26.1932   25.4826 C   0  0  0  0  0  0  0  0  0  0  0  0
  -34.4596  -29.4218   22.0223 C   0  0  0  0  0  0  0  0  0  0  0  0
  -31.7075  -24.8262   25.1727 C   0  0  0  0  0  0  0  0  0  0  0  0
  -30.5847  -16.9363   21.9278 C   0  0  0  0  0  0  0  0  0  0  0  0
  -31.5793  -19.3838   22.8239 C   0  0  0  0  0  0  0  0  0  0  0  0
  -22.3378   -8.1433   21.4675 C   0  0  0  0  0  0  0  0  0  0  0  0
  -29.3256  -25.0080   24.7215 C   0  0  0  0  0  0  0  0  0  0  0  0
  -20.8591   -6.9795   22.8749 C   0  0  0  0  0  0  0  0  0  0  0  0
  -19.3429   -6.9040   25.2155 C   0  0  0  0  0  0  0  0  0  0  0  0
  -21.1001   -5.9924   23.8305 C   0  0  0  0  0  0  0  0  0  0  0  0
  -24.5963  -11.6387   20.7061 C   0  0  0  0  0  0  0  0  0  0  0  0
  -25.2619  -13.7219   20.4778 C   0  0  0  0  0  0  0  0  0  0  0  0
  -29.4379  -19.8186   24.0611 C   0  0  0  0  0  0  0  0  0  0  0  0
  -22.8985  -13.4901   21.2581 C   0  0  0  0  0  0  0  0  0  0  0  0
  -34.5479  -26.2925   23.9850 C   0  0  0  0  0  0  0  0  0  0  0  0
  -35.3149  -23.9455   26.0888 C   0  0  0  0  0  0  0  0  0  0  0  0
  -34.2527  -21.4406   28.1488 C   0  0  0  0  0  0  0  0  0  0  0  0
  -28.3662  -22.0371   24.2337 C   0  0  0  0  0  0  0  0  0  0  0  0
  -30.7282  -14.7665   20.6560 C   0  0  0  0  0  0  0  0  0  0  0  0
  -36.8028  -30.4217   22.0047 C   0  0  0  0  0  0  0  0  0  0  0  0
  -33.0310  -26.8386   25.9233 C   0  0  0  0  0  0  0  0  0  0  0  0
  -32.9409  -23.9641   25.2350 C   0  0  0  0  0  0  0  0  0  0  0  0
  -37.2771  -29.0975   22.5977 C   0  0  0  0  0  0  0  0  0  0  0  0
  -29.6155  -12.3490   18.2907 C   0  0  0  0  0  0  0  0  0  0  0  0
  -36.5143  -27.9312   21.9775 C   0  0  0  0  0  0  0  0  0  0  0  0
  -28.1754  -12.0585   18.7193 C   0  0  0  0  0  0  0  0  0  0  0  0
  -30.5295  -12.5796   19.4928 C   0  0  0  0  0  0  0  0  0  0  0  0
  -28.6214  -13.3068   20.8710 C   0  0  0  0  0  0  0  0  0  0  0  0
  -35.0128  -28.0355   22.2714 C   0  0  1  0  0  0  0  0  0  0  0  0
  -34.2707  -26.0874   25.4475 C   0  0  1  0  0  0  0  0  0  0  0  0
  -27.6497  -13.1318   19.6926 C   0  0  2  0  0  0  0  0  0  0  0  0
  -35.1149  -19.6739   29.7085 C   0  0  0  0  0  0  0  0  0  0  0  0
  -26.9685  -23.3226   22.5921 C   0  0  0  0  0  0  0  0  0  0  0  0
  -36.1608  -22.2503   23.6970 C   0  0  0  0  0  0  0  0  0  0  0  0
  -36.0985  -20.2402   25.1882 C   0  0  0  0  0  0  0  0  0  0  0  0
  -37.6867  -22.1017   25.6728 C   0  0  0  0  0  0  0  0  0  0  0  0
  -32.8148  -22.6111   30.4556 C   0  0  0  0  0  0  0  0  0  0  0  0
  -35.2165  -22.4391   26.0925 C   0  0  1  0  0  0  0  0  0  0  0  0
  -34.6044  -21.1011   29.5860 C   0  0  2  0  0  0  0  0  0  0  0  0
  -28.2301  -23.3301   23.4408 C   0  0  1  0  0  0  0  0  0  1  0  0
  -36.2676  -21.7742   25.1595 C   0  0  0  0  0  0  0  0  0  0  0  0
  -25.8616  -11.5419   20.2892 N   0  0  0  0  0  0  0  0  0  0  0  0
  -26.2389  -12.8251   20.1591 N   0  0  0  0  0  0  0  0  0  0  0  0
  -34.1745  -24.6426   25.6654 N   0  0  0  0  0  0  0  0  0  0  0  0
  -29.9699  -13.6120   20.3679 N   0  0  0  0  0  0  0  0  0  0  0  0
  -32.1021  -20.6192   23.2673 N   0  0  0  0  0  0  0  0  0  0  0  0
  -25.4727  -15.0532   20.4027 N   0  0  0  0  0  0  0  0  0  0  0  0
  -21.8860  -12.5817   21.5959 N   0  0  0  0  0  0  0  0  0  0  0  0
  -30.0803  -15.6930   21.4722 N   0  0  0  0  0  0  0  0  0  0  0  0
  -29.1331  -21.0836   23.5616 N   0  0  0  0  0  0  0  0  0  0  0  0
  -34.7327  -27.6143   23.6273 N   0  0  0  0  0  0  0  0  0  0  0  0
  -35.3117  -22.0273   27.4889 N   0  0  0  0  0  0  0  0  0  0  0  0
  -33.4070  -21.2486   30.4610 N   0  3  0  0  0  0  0  0  0  0  0  0
  -29.0742  -19.3810   25.1493 O   0  0  0  0  0  0  0  0  0  0  0  0
  -22.6625  -14.7209   21.3131 O   0  0  0  0  0  0  0  0  0  0  0  0
  -34.5922  -25.3230   23.2368 O   0  0  0  0  0  0  0  0  0  0  0  0
  -36.3625  -24.4840   26.4550 O   0  0  0  0  0  0  0  0  0  0  0  0
  -33.1502  -21.2052   27.6594 O   0  0  0  0  0  0  0  0  0  0  0  0
  -27.8625  -21.8891   25.3448 O   0  0  0  0  0  0  0  0  0  0  0  0
  -31.8578  -14.9342   20.1892 O   0  0  0  0  0  0  0  0  0  0  0  0
  -21.6114   -7.0188   21.7130 O   0  0  0  0  0  0  0  0  0  0  0  0
  -28.1521  -24.4298   24.3468 O   0  0  0  0  0  0  0  0  0  1  0  0
  -18.6159   -6.8687   26.3399 F   0  0  0  0  0  0  0  0  0  0  0  0
  -22.0594   -5.0783   23.6303 F   0  0  0  0  0  0  0  0  0  0  0  0
  1  2  1  0  0  0  0
  1  5  2  0  0  0  0
  2  6  2  0  0  0  0
  3 10  2  0  0  0  0
  3 18  1  0  0  0  0
  4 11  1  0  0  0  0
  4 18  2  0  0  0  0
  5 21  1  0  0  0  0
  6 23  1  0  0  0  0
  7 12  2  0  0  0  0
  7 22  1  0  0  0  0
  8  9  2  0  0  0  0
  8 25  1  0  0  0  0
  9 26  1  0  0  0  0
 10 27  1  0  0  0  0
 11 27  2  0  0  0  0
 12 28  1  0  0  0  0
 13 14  2  0  0  0  0
 13 29  1  0  0  0  0
 14 30  1  0  0  0  0
 15 19  1  0  0  0  0
 15 25  2  0  0  0  0
 16 24  1  0  0  0  0
 16 28  2  0  0  0  0
 17 30  2  0  0  0  0
 17 31  1  0  0  0  0
 18 32  1  0  0  0  0
 19 26  2  0  0  0  0
 19 34  1  0  0  0  0
 20 32  1  0  0  0  0
 20 33  2  0  0  0  0
 20 35  1  0  0  0  0
 21 23  2  0  0  0  0
 21 41  1  0  0  0  0
 22 24  2  0  0  0  0
 22 42  1  0  0  0  0
 23 50  1  0  0  0  0
 24 43  1  0  0  0  0
 25 70  1  0  0  0  0
 26 67  1  0  0  0  0
 27 82  1  0  0  0  0
 28 83  1  0  0  0  0
 29 31  2  0  0  0  0
 29 82  1  0  0  0  0
 30 84  1  0  0  0  0
 31 85  1  0  0  0  0
 32 63  2  0  0  0  0
 33 64  1  0  0  0  0
 33 68  1  0  0  0  0
 34 71  1  0  0  0  0
 34 75  2  0  0  0  0
 35 69  1  0  0  0  0
 35 76  2  0  0  0  0
 36 51  1  0  0  0  0
 36 72  1  0  0  0  0
 36 77  2  0  0  0  0
 37 59  1  0  0  0  0
 37 65  1  0  0  0  0
 37 78  2  0  0  0  0
 38 60  1  0  0  0  0
 38 73  1  0  0  0  0
 38 79  2  0  0  0  0
 39 61  1  0  0  0  0
 39 71  1  0  0  0  0
 39 80  2  0  0  0  0
 40 66  1  0  0  0  0
 40 70  1  0  0  0  0
 40 81  2  0  0  0  0
 41 44  1  0  0  0  0
 42 51  1  0  0  0  0
 43 65  1  0  0  0  0
 44 46  1  0  0  0  0
 45 47  1  0  0  0  0
 45 48  1  0  0  0  0
 46 50  1  0  0  0  0
 47 52  1  0  0  0  0
 48 66  1  0  0  0  0
 49 52  1  0  0  0  0
 49 66  1  0  0  0  0
 50 72  1  0  0  0  0
 51 65  1  0  0  0  0
 52 64  1  0  0  0  0
 53 60  1  0  0  0  0
 54 61  1  0  0  0  0
 55 62  1  0  0  0  0
 56 62  1  0  0  0  0
 57 62  1  0  0  0  0
 58 74  1  0  0  0  0
 59 62  1  0  0  0  0
 59 73  1  0  0  0  0
 60 74  1  0  0  0  0
 61 83  1  0  0  0  0
 63 64  1  0  0  0  0
M  CHG  1  74   1
M  ISO  4  40 100  61 101  70 100  83 101
M  END
> <Batch ID>
0077

> <Smiles>
CNC(C)C(=O)NC(C(=O)N1Cc2cc([101O:1][101CH:1](C)C(=O)NC(=O)c3cc([100NH:0][100C:0](=O)N4CCCC(n5nc(-c6ccc(Oc7ccc(F)cc7F)cc6)c(C(N)=O)c5N)C4)ccc3N)ccc2CC1C(=O)NC1CCCc2ccccc21)C(C)(C)C

> <Shape>
0.169

> <Color>
0.180

> <Negative vol penalty>
0.000

$$$$

  -OEChem-04042323533D

 85 93  0     1  0  0  0  0  0999 V2000
  -29.8377  -16.9994   17.0184 C   0  0  0  0  0  0  0  0  0  0  0  0
  -29.8925  -17.7317   18.2000 C   0  0  0  0  0  0  0  0  0  0  0  0
  -32.3568  -18.5748   22.0094 C   0  0  0  0  0  0  0  0  0  0  0  0
  -23.0768   -9.8651   19.9414 C   0  0  0  0  0  0  0  0  0  0  0  0
  -23.8353   -9.8742   22.2352 C   0  0  0  0  0  0  0  0  0  0  0  0
  -31.5718  -19.3874   22.8273 C   0  0  0  0  0  0  0  0  0  0  0  0
  -30.7934  -17.2085   16.0250 C   0  0  0  0  0  0  0  0  0  0  0  0
  -30.9038  -18.6729   18.3893 C   0  0  0  0  0  0  0  0  0  0  0  0
  -29.1699  -23.0294   20.3023 C   0  0  0  0  0  0  0  0  0  0  0  0
  -31.8611  -17.3508   21.5603 C   0  0  0  0  0  0  0  0  0  0  0  0
  -22.3335   -8.7116   20.1917 C   0  0  0  0  0  0  0  0  0  0  0  0
  -23.0920   -8.7208   22.4856 C   0  0  0  0  0  0  0  0  0  0  0  0
  -28.8953  -23.0602   21.6688 C   0  0  0  0  0  0  0  0  0  0  0  0
  -19.8640   -7.9214   23.0868 C   0  0  0  0  0  0  0  0  0  0  0  0
  -19.1063   -7.8818   24.2572 C   0  0  0  0  0  0  0  0  0  0  0  0
  -29.7954  -17.7519   22.7473 C   0  0  0  0  0  0  0  0  0  0  0  0
  -31.0078  -24.1564   22.0624 C   0  0  0  0  0  0  0  0  0  0  0  0
  -20.3486   -5.9457   24.9959 C   0  0  0  0  0  0  0  0  0  0  0  0
  -23.8278  -10.4464   20.9631 C   0  0  0  0  0  0  0  0  0  0  0  0
  -30.2911  -18.9760   23.1963 C   0  0  0  0  0  0  0  0  0  0  0  0
  -24.1680  -12.9716   20.8414 C   0  0  0  0  0  0  0  0  0  0  0  0
  -31.8112  -18.1597   16.1982 C   0  0  0  0  0  0  0  0  0  0  0  0
  -30.3723  -23.5529   19.8059 C   0  0  0  0  0  0  0  0  0  0  0  0
  -31.8748  -18.8940   17.3978 C   0  0  0  0  0  0  0  0  0  0  0  0
  -31.2940  -24.1334   20.6888 C   0  0  0  0  0  0  0  0  0  0  0  0
  -30.5804  -16.9393   21.9293 C   0  0  0  0  0  0  0  0  0  0  0  0
  -22.3411   -8.1395   21.4638 C   0  0  0  0  0  0  0  0  0  0  0  0
  -29.8156  -23.6211   22.5494 C   0  0  0  0  0  0  0  0  0  0  0  0
  -20.8639   -6.9730   22.8708 C   0  0  0  0  0  0  0  0  0  0  0  0
  -19.3486   -6.8940   25.2118 C   0  0  0  0  0  0  0  0  0  0  0  0
  -21.1062   -5.9853   23.8253 C   0  0  0  0  0  0  0  0  0  0  0  0
  -24.5962  -11.6375   20.7049 C   0  0  0  0  0  0  0  0  0  0  0  0
  -25.2599  -13.7215   20.4782 C   0  0  0  0  0  0  0  0  0  0  0  0
  -29.4562  -19.8426   24.0675 C   0  0  0  0  0  0  0  0  0  0  0  0
  -22.8970  -13.4870   21.2592 C   0  0  0  0  0  0  0  0  0  0  0  0
  -32.8657  -22.3520   18.2424 C   0  0  0  0  0  0  0  0  0  0  0  0
  -33.7816  -25.4608   18.1046 C   0  0  0  0  0  0  0  0  0  0  0  0
  -33.5970  -28.5973   19.4368 C   0  0  0  0  0  0  0  0  0  0  0  0
  -30.7253  -14.7708   20.6555 C   0  0  0  0  0  0  0  0  0  0  0  0
  -32.8496  -18.3170   15.1158 C   0  0  0  0  0  0  0  0  0  0  0  0
  -30.6416  -23.5361   18.3261 C   0  0  0  0  0  0  0  0  0  0  0  0
  -32.5906  -24.7273   20.2043 C   0  0  0  0  0  0  0  0  0  0  0  0
  -33.6687  -19.5992   15.2392 C   0  0  0  0  0  0  0  0  0  0  0  0
  -29.6139  -12.3545   18.2883 C   0  0  0  0  0  0  0  0  0  0  0  0
  -34.1353  -19.7982   16.6778 C   0  0  0  0  0  0  0  0  0  0  0  0
  -28.1742  -12.0623   18.7172 C   0  0  0  0  0  0  0  0  0  0  0  0
  -30.5282  -12.5848   19.4903 C   0  0  0  0  0  0  0  0  0  0  0  0
  -28.6199  -13.3090   20.8699 C   0  0  0  0  0  0  0  0  0  0  0  0
  -32.9419  -19.9416   17.6301 C   0  0  1  0  0  0  0  0  0  0  0  0
  -32.1259  -23.6348   17.9878 C   0  0  1  0  0  0  0  0  0  0  0  0
  -27.6479  -13.1343   19.6916 C   0  0  2  0  0  0  0  0  0  0  0  0
  -34.4865  -30.9236   19.1294 C   0  0  0  0  0  0  0  0  0  0  0  0
  -29.4846  -23.8436   26.9871 C   0  0  0  0  0  0  0  0  0  0  0  0
  -29.1656  -20.8376   27.1399 C   0  0  0  0  0  0  0  0  0  0  0  0
  -36.4462  -24.5994   19.3163 C   0  0  0  0  0  0  0  0  0  0  0  0
  -36.8971  -27.0019   19.8577 C   0  0  0  0  0  0  0  0  0  0  0  0
  -36.6320  -26.2891   17.4820 C   0  0  0  0  0  0  0  0  0  0  0  0
  -30.8875  -29.6981   18.9826 C   0  0  0  0  0  0  0  0  0  0  0  0
  -30.6680  -23.5982   24.7695 C   0  0  0  0  0  0  0  0  0  1  0  0
  -34.6005  -26.3741   18.9846 C   0  0  1  0  0  0  0  0  0  0  0  0
  -33.3651  -29.9528   18.7938 C   0  0  2  0  0  0  0  0  0  0  0  0
  -30.2672  -22.8890   26.0721 C   0  0  2  0  0  0  0  0  0  0  0  0
  -29.4781  -21.5776   25.8409 C   0  0  1  0  0  0  0  0  0  0  0  0
  -36.1205  -26.0533   18.9198 C   0  0  0  0  0  0  0  0  0  0  0  0
  -25.8614  -11.5422   20.2875 N   0  0  0  0  0  0  0  0  0  0  0  0
  -26.2376  -12.8259   20.1584 N   0  0  0  0  0  0  0  0  0  0  0  0
  -32.8109  -24.6812   18.7493 N   0  0  0  0  0  0  0  0  0  0  0  0
  -29.9680  -13.6159   20.3666 N   0  0  0  0  0  0  0  0  0  0  0  0
  -25.4695  -15.0531   20.4044 N   0  0  0  0  0  0  0  0  0  0  0  0
  -21.8854  -12.5774   21.5965 N   0  0  0  0  0  0  0  0  0  0  0  0
  -30.0769  -15.6960   21.4728 N   0  0  0  0  0  0  0  0  0  0  0  0
  -30.1479  -20.6921   24.9165 N   0  0  0  0  0  0  0  0  0  0  0  0
  -32.3765  -21.2704   17.5351 N   0  0  0  0  0  0  0  0  0  0  0  0
  -34.2598  -27.7362   18.5882 N   0  0  0  0  0  0  0  0  0  0  0  0
  -32.0792  -30.5379   19.2682 N   0  3  0  0  0  0  0  0  0  0  0  0
  -28.2327  -19.7513   24.0089 O   0  0  0  0  0  0  0  0  0  0  0  0
  -22.6599  -14.7175   21.3155 O   0  0  0  0  0  0  0  0  0  0  0  0
  -33.8114  -22.3445   19.0218 O   0  0  0  0  0  0  0  0  0  0  0  0
  -33.9906  -25.4451   16.8890 O   0  0  0  0  0  0  0  0  0  0  0  0
  -33.2303  -28.3305   20.5791 O   0  0  0  0  0  0  0  0  0  0  0  0
  -31.8546  -14.9399   20.1884 O   0  0  0  0  0  0  0  0  0  0  0  0
  -21.6157   -7.0141   21.7086 O   0  0  0  0  0  0  0  0  0  0  0  0
  -29.5504  -23.6519   23.8838 O   0  0  0  0  0  0  0  0  0  1  0  0
  -18.6220   -6.8571   26.3365 F   0  0  0  0  0  0  0  0  0  0  0  0
  -22.0662   -5.0722   23.6240 F   0  0  0  0  0  0  0  0  0  0  0  0
  1  2  1  0  0  0  0
  1  7  2  0  0  0  0
  2  8  2  0  0  0  0
  3  6  2  0  0  0  0
  3 10  1  0  0  0  0
  4 11  2  0  0  0  0
  4 19  1  0  0  0  0
  5 12  1  0  0  0  0
  5 19  2  0  0  0  0
  6 20  1  0  0  0  0
  7 22  1  0  0  0  0
  8 24  1  0  0  0  0
  9 13  2  0  0  0  0
  9 23  1  0  0  0  0
 10 26  2  0  0  0  0
 11 27  1  0  0  0  0
 12 27  2  0  0  0  0
 13 28  1  0  0  0  0
 14 15  2  0  0  0  0
 14 29  1  0  0  0  0
 15 30  1  0  0  0  0
 16 20  2  0  0  0  0
 16 26  1  0  0  0  0
 17 25  1  0  0  0  0
 17 28  2  0  0  0  0
 18 30  2  0  0  0  0
 18 31  1  0  0  0  0
 19 32  1  0  0  0  0
 20 34  1  0  0  0  0
 21 32  1  0  0  0  0
 21 33  2  0  0  0  0
 21 35  1  0  0  0  0
 22 24  2  0  0  0  0
 22 40  1  0  0  0  0
 23 25  2  0  0  0  0
 23 41  1  0  0  0  0
 24 49  1  0  0  0  0
 25 42  1  0  0  0  0
 26 71  1  0  0  0  0
 27 82  1  0  0  0  0
 28 83  1  0  0  0  0
 29 31  2  0  0  0  0
 29 82  1  0  0  0  0
 30 84  1  0  0  0  0
 31 85  1  0  0  0  0
 32 65  2  0  0  0  0
 33 66  1  0  0  0  0
 33 69  1  0  0  0  0
 34 72  1  0  0  0  0
 34 76  2  0  0  0  0
 35 70  1  0  0  0  0
 35 77  2  0  0  0  0
 36 50  1  0  0  0  0
 36 73  1  0  0  0  0
 36 78  2  0  0  0  0
 37 60  1  0  0  0  0
 37 67  1  0  0  0  0
 37 79  2  0  0  0  0
 38 61  1  0  0  0  0
 38 74  1  0  0  0  0
 38 80  2  0  0  0  0
 39 68  1  0  0  0  0
 39 71  1  0  0  0  0
 39 81  2  0  0  0  0
 40 43  1  0  0  0  0
 41 50  1  0  0  0  0
 42 67  1  0  0  0  0
 43 45  1  0  0  0  0
 44 46  1  0  0  0  0
 44 47  1  0  0  0  0
 45 49  1  0  0  0  0
 46 51  1  0  0  0  0
 47 68  1  0  0  0  0
 48 51  1  0  0  0  0
 48 68  1  0  0  0  0
 49 73  1  0  0  0  0
 50 67  1  0  0  0  0
 51 66  1  0  0  0  0
 52 61  1  0  0  0  0
 53 62  1  0  0  0  0
 54 63  1  0  0  0  0
 55 64  1  0  0  0  0
 56 64  1  0  0  0  0
 57 64  1  0  0  0  0
 58 75  1  0  0  0  0
 59 62  1  0  0  0  0
 59 83  1  0  0  0  0
 60 64  1  0  0  0  0
 60 74  1  0  0  0  0
 61 75  1  0  0  0  0
 62 63  1  0  0  0  0
 63 72  1  0  0  0  0
 65 66  1  0  0  0  0
M  CHG  1  75   1
M  ISO  4  39 100  59 101  71 100  83 101
M  END
> <Batch ID>
0077

> <Smiles>
CNC(C)C(=O)NC(C(=O)N1Cc2cc([101O:1][101CH2:1]C(C)C(C)NC(=O)c3cccc([100NH:0][100C:0](=O)N4CCCC(n5nc(-c6ccc(Oc7ccc(F)cc7F)cc6)c(C(N)=O)c5N)C4)c3)ccc2CC1C(=O)NC1CCCc2ccccc21)C(C)(C)C

> <Shape>
0.212

> <Color>
0.188

> <Negative vol penalty>
0.000

$$$$

  -OEChem-04042323533D

 78 85  0     1  0  0  0  0  0999 V2000
  -20.9211  -25.8860   25.7473 C   0  0  0  0  0  0  0  0  0  0  0  0
  -21.9882  -25.6754   24.8800 C   0  0  0  0  0  0  0  0  0  0  0  0
  -26.5587  -13.2242   21.6845 C   0  0  0  0  0  0  0  0  0  0  0  0
  -26.0847  -14.3802   19.6167 C   0  0  0  0  0  0  0  0  0  0  0  0
  -19.7335  -26.4377   25.2686 C   0  0  0  0  0  0  0  0  0  0  0  0
  -21.8680  -26.0154   23.5330 C   0  0  0  0  0  0  0  0  0  0  0  0
  -25.9403  -28.4592   21.7753 C   0  0  0  0  0  0  0  0  0  0  0  0
  -25.2561  -12.7257   21.7045 C   0  0  0  0  0  0  0  0  0  0  0  0
  -24.7821  -13.8817   19.6366 C   0  0  0  0  0  0  0  0  0  0  0  0
  -27.0633  -27.6901   21.4734 C   0  0  0  0  0  0  0  0  0  0  0  0
  -23.5125  -10.2515   20.1976 C   0  0  0  0  0  0  0  0  0  0  0  0
  -23.3398   -8.9010   20.5009 C   0  0  0  0  0  0  0  0  0  0  0  0
  -26.4727  -27.7561   19.1355 C   0  0  0  0  0  0  0  0  0  0  0  0
  -21.9920   -9.5028   22.4136 C   0  0  0  0  0  0  0  0  0  0  0  0
  -26.9730  -14.0515   20.6406 C   0  0  0  0  0  0  0  0  0  0  0  0
  -29.4479  -13.9714   20.0275 C   0  0  0  0  0  0  0  0  0  0  0  0
  -19.6021  -26.7936   23.9170 C   0  0  0  0  0  0  0  0  0  0  0  0
  -25.0676  -28.8740   20.7590 C   0  0  0  0  0  0  0  0  0  0  0  0
  -20.6771  -26.5712   23.0354 C   0  0  0  0  0  0  0  0  0  0  0  0
  -25.3407  -28.5326   19.4267 C   0  0  0  0  0  0  0  0  0  0  0  0
  -24.3678  -13.0544   20.6806 C   0  0  0  0  0  0  0  0  0  0  0  0
  -27.3281  -27.3360   20.1537 C   0  0  0  0  0  0  0  0  0  0  0  0
  -22.9250  -11.2277   21.0024 C   0  0  0  0  0  0  0  0  0  0  0  0
  -22.5795   -8.5267   21.6088 C   0  0  0  0  0  0  0  0  0  0  0  0
  -22.1647  -10.8533   22.1104 C   0  0  0  0  0  0  0  0  0  0  0  0
  -28.3182  -14.5672   20.6197 C   0  0  0  0  0  0  0  0  0  0  0  0
  -30.4726  -14.8497   20.2826 C   0  0  0  0  0  0  0  0  0  0  0  0
  -28.2894  -25.2248   19.8548 C   0  0  0  0  0  0  0  0  0  1  0  0
  -29.5609  -12.7348   19.3108 C   0  0  0  0  0  0  0  0  0  0  0  0
  -29.2987  -24.3911   19.5771 C   0  0  0  0  0  0  0  0  0  0  0  0
  -29.0505  -22.9147   19.6006 C   0  0  0  0  0  0  0  0  0  0  0  0
  -22.0003  -28.3725   20.0931 C   0  0  0  0  0  0  0  0  0  0  0  0
  -22.5550  -30.5486   17.7523 C   0  0  0  0  0  0  0  0  0  0  0  0
  -24.8070  -32.0843   15.6987 C   0  0  0  0  0  0  0  0  0  0  0  0
  -30.6218  -20.7346   21.3766 C   0  0  0  0  0  0  0  0  0  0  0  0
  -18.2824  -27.3432   23.4361 C   0  0  0  0  0  0  0  0  0  0  0  0
  -23.8751  -29.7257   21.0980 C   0  0  0  0  0  0  0  0  0  0  0  0
  -24.4462  -28.9699   18.2967 C   0  0  0  0  0  0  0  0  0  0  0  0
  -18.3666  -28.0230   22.0719 C   0  0  0  0  0  0  0  0  0  0  0  0
  -31.8830  -18.1372   23.4597 C   0  0  0  0  0  0  0  0  0  0  0  0
  -19.1526  -27.1579   21.0919 C   0  0  0  0  0  0  0  0  0  0  0  0
  -31.2144  -16.8739   22.9146 C   0  0  0  0  0  0  0  0  0  0  0  0
  -30.9468  -19.3421   23.3994 C   0  0  0  0  0  0  0  0  0  0  0  0
  -29.6947  -18.3440   21.5260 C   0  0  0  0  0  0  0  0  0  0  0  0
  -20.5938  -26.9500   21.5726 C   0  0  1  0  0  0  0  0  0  0  0  0
  -22.7744  -29.6594   20.0437 C   0  0  1  0  0  0  0  0  0  0  0  0
  -30.6189  -17.1143   21.5143 C   0  0  2  0  0  0  0  0  0  0  0  0
  -30.2469  -21.6513   17.8002 C   0  0  0  0  0  0  0  0  0  0  0  0
  -24.9566  -33.7924   13.8664 C   0  0  0  0  0  0  0  0  0  0  0  0
  -21.4315  -28.5182   15.7712 C   0  0  0  0  0  0  0  0  0  0  0  0
  -22.4643  -29.8544   13.9229 C   0  0  0  0  0  0  0  0  0  0  0  0
  -20.7085  -30.8783   15.3691 C   0  0  0  0  0  0  0  0  0  0  0  0
  -26.5740  -33.8279   17.3100 C   0  0  0  0  0  0  0  0  0  0  0  0
  -30.2271  -21.9999   19.2784 C   0  0  2  0  0  0  0  0  0  0  0  0
  -23.0182  -30.4804   16.3171 C   0  0  1  0  0  0  0  0  0  0  0  0
  -25.0314  -33.5482   15.3655 C   0  0  2  0  0  0  0  0  0  0  0  0
  -21.9216  -29.9228   15.3664 C   0  0  0  0  0  0  0  0  0  0  0  0
  -28.5986  -15.7336   21.2070 N   0  0  0  0  0  0  0  0  0  0  0  0
  -29.9162  -15.8778   20.9850 N   0  0  0  0  0  0  0  0  0  0  0  0
  -23.2893  -29.7959   18.6797 N   0  0  0  0  0  0  0  0  0  0  0  0
  -30.4179  -19.5158   22.0444 N   0  0  0  0  0  0  0  0  0  0  0  0
  -31.7864  -14.8350   19.9724 N   0  0  0  0  0  0  0  0  0  0  0  0
  -28.4094  -11.9543   19.1394 N   0  0  0  0  0  0  0  0  0  0  0  0
  -21.3898  -28.1295   21.3087 N   0  0  0  0  0  0  0  0  0  0  0  0
  -23.4818  -31.8204   15.9737 N   0  0  0  0  0  0  0  0  0  0  0  0
  -30.0934  -20.8133   20.0938 N   0  0  0  0  0  0  0  0  0  0  0  0
  -26.3708  -33.9896   15.8473 N   0  3  0  0  0  0  0  0  0  0  0  0
  -30.6538  -12.3258   18.8507 O   0  0  0  0  0  0  0  0  0  0  0  0
  -27.9278  -22.4658   19.8332 O   0  0  0  0  0  0  0  0  0  0  0  0
  -21.9586  -27.6541   19.1012 O   0  0  0  0  0  0  0  0  0  0  0  0
  -21.5821  -31.2498   18.0411 O   0  0  0  0  0  0  0  0  0  0  0  0
  -25.7157  -31.2568   15.7100 O   0  0  0  0  0  0  0  0  0  0  0  0
  -31.2342  -21.6805   21.8837 O   0  0  0  0  0  0  0  0  0  0  0  0
  -30.5665  -24.8341   19.2680 O   0  0  0  0  0  0  0  0  0  0  0  0
  -23.0967  -12.5680   20.6996 O   0  0  0  0  0  0  0  0  0  0  0  0
  -28.4232  -26.5849   19.8564 O   0  0  0  0  0  0  0  0  0  1  0  0
  -22.4125   -7.2297   21.8990 F   0  0  0  0  0  0  0  0  0  0  0  0
  -21.5969  -11.7866   22.8865 F   0  0  0  0  0  0  0  0  0  0  0  0
  1  2  1  0  0  0  0
  1  5  2  0  0  0  0
  2  6  2  0  0  0  0
  3  8  2  0  0  0  0
  3 15  1  0  0  0  0
  4  9  1  0  0  0  0
  4 15  2  0  0  0  0
  5 17  1  0  0  0  0
  6 19  1  0  0  0  0
  7 10  2  0  0  0  0
  7 18  1  0  0  0  0
  8 21  1  0  0  0  0
  9 21  2  0  0  0  0
 10 22  1  0  0  0  0
 11 12  2  0  0  0  0
 11 23  1  0  0  0  0
 12 24  1  0  0  0  0
 13 20  1  0  0  0  0
 13 22  2  0  0  0  0
 14 24  2  0  0  0  0
 14 25  1  0  0  0  0
 15 26  1  0  0  0  0
 16 26  1  0  0  0  0
 16 27  2  0  0  0  0
 16 29  1  0  0  0  0
 17 19  2  0  0  0  0
 17 36  1  0  0  0  0
 18 20  2  0  0  0  0
 18 37  1  0  0  0  0
 19 45  1  0  0  0  0
 20 38  1  0  0  0  0
 21 75  1  0  0  0  0
 22 76  1  0  0  0  0
 23 25  2  0  0  0  0
 23 75  1  0  0  0  0
 24 77  1  0  0  0  0
 25 78  1  0  0  0  0
 26 58  2  0  0  0  0
 27 59  1  0  0  0  0
 27 62  1  0  0  0  0
 28 30  2  0  0  0  0
 28 76  1  0  0  0  0
 29 63  1  0  0  0  0
 29 68  2  0  0  0  0
 30 31  1  0  0  0  0
 30 74  1  0  0  0  0
 31 54  1  0  0  0  0
 31 69  2  0  0  0  0
 32 46  1  0  0  0  0
 32 64  1  0  0  0  0
 32 70  2  0  0  0  0
 33 55  1  0  0  0  0
 33 60  1  0  0  0  0
 33 71  2  0  0  0  0
 34 56  1  0  0  0  0
 34 65  1  0  0  0  0
 34 72  2  0  0  0  0
 35 61  1  0  0  0  0
 35 66  1  0  0  0  0
 35 73  2  0  0  0  0
 36 39  1  0  0  0  0
 37 46  1  0  0  0  0
 38 60  1  0  0  0  0
 39 41  1  0  0  0  0
 40 42  1  0  0  0  0
 40 43  1  0  0  0  0
 41 45  1  0  0  0  0
 42 47  1  0  0  0  0
 43 61  1  0  0  0  0
 44 47  1  0  0  0  0
 44 61  1  0  0  0  0
 45 64  1  0  0  0  0
 46 60  1  0  0  0  0
 47 59  1  0  0  0  0
 48 54  1  0  0  0  0
 49 56  1  0  0  0  0
 50 57  1  0  0  0  0
 51 57  1  0  0  0  0
 52 57  1  0  0  0  0
 53 67  1  0  0  0  0
 54 66  1  0  0  0  0
 55 57  1  0  0  0  0
 55 65  1  0  0  0  0
 56 67  1  0  0  0  0
 58 59  1  0  0  0  0
M  CHG  1  67   1
M  ISO  4  28 101  35 100  66 100  76 101
M  END
> <Batch ID>
0077

> <Smiles>
CNC(C)C(=O)NC(C(=O)N1Cc2cc([101O:1][101CH2:1]C(=O)C(=O)C(C)[100NH:0][100C:0](=O)N3CCCC(n4nc(-c5ccc(Oc6ccc(F)cc6F)cc5)c(C(N)=O)c4N)C3)ccc2CC1C(=O)NC1CCCc2ccccc21)C(C)(C)C

> <Shape>
0.279

> <Color>
0.094

> <Negative vol penalty>
0.000

$$$$

  -OEChem-04042323533D

 85 94  0     1  0  0  0  0  0999 V2000
  -28.8430  -37.4217   20.9656 C   0  0  0  0  0  0  0  0  0  0  0  0
  -29.1962  -36.1041   20.6928 C   0  0  0  0  0  0  0  0  0  0  0  0
  -24.6578   -8.6843   20.5112 C   0  0  0  0  0  0  0  0  0  0  0  0
  -23.0261  -10.4284   20.8755 C   0  0  0  0  0  0  0  0  0  0  0  0
  -27.8584  -37.6962   21.9138 C   0  0  0  0  0  0  0  0  0  0  0  0
  -28.5659  -35.0601   21.3689 C   0  0  0  0  0  0  0  0  0  0  0  0
  -27.1949  -29.5246   19.1364 C   0  0  0  0  0  0  0  0  0  0  0  0
  -26.8673  -20.9414   17.0172 C   0  0  0  0  0  0  0  0  0  0  0  0
  -23.8468   -7.7819   21.1992 C   0  0  0  0  0  0  0  0  0  0  0  0
  -22.2151   -9.5260   21.5635 C   0  0  0  0  0  0  0  0  0  0  0  0
  -27.8314  -28.2883   19.2379 C   0  0  0  0  0  0  0  0  0  0  0  0
  -21.0787   -5.9433   20.5746 C   0  0  0  0  0  0  0  0  0  0  0  0
  -26.3694  -19.7959   16.3964 C   0  0  0  0  0  0  0  0  0  0  0  0
  -20.8937   -4.6798   20.0135 C   0  0  0  0  0  0  0  0  0  0  0  0
  -26.3875  -27.7028   21.0794 C   0  0  0  0  0  0  0  0  0  0  0  0
  -27.9951  -19.5654   18.6518 C   0  0  0  0  0  0  0  0  0  0  0  0
  -21.8540   -3.6640   21.9841 C   0  0  0  0  0  0  0  0  0  0  0  0
  -24.2475  -10.0077   20.3494 C   0  0  0  0  0  0  0  0  0  0  0  0
  -25.0706  -11.2156   18.2587 C   0  0  0  0  0  0  0  0  0  0  0  0
  -27.2088  -36.6547   22.5950 C   0  0  0  0  0  0  0  0  0  0  0  0
  -26.1555  -29.8641   20.0143 C   0  0  0  0  0  0  0  0  0  0  0  0
  -27.5726  -35.3210   22.3282 C   0  0  0  0  0  0  0  0  0  0  0  0
  -25.7377  -28.9430   20.9854 C   0  0  0  0  0  0  0  0  0  0  0  0
  -27.6802  -20.8262   18.1449 C   0  0  0  0  0  0  0  0  0  0  0  0
  -27.4971  -18.4198   18.0310 C   0  0  0  0  0  0  0  0  0  0  0  0
  -22.6254   -8.2027   21.7254 C   0  0  0  0  0  0  0  0  0  0  0  0
  -27.4297  -27.3783   20.2113 C   0  0  0  0  0  0  0  0  0  0  0  0
  -21.6514   -6.0672   21.8405 C   0  0  0  0  0  0  0  0  0  0  0  0
  -21.2813   -3.5401   20.7182 C   0  0  0  0  0  0  0  0  0  0  0  0
  -26.6842  -18.5351   16.9033 C   0  0  0  0  0  0  0  0  0  0  0  0
  -22.0390   -4.9275   22.5452 C   0  0  0  0  0  0  0  0  0  0  0  0
  -25.0851  -10.9405   19.6392 C   0  0  0  0  0  0  0  0  0  0  0  0
  -26.0472  -12.1661   18.0877 C   0  0  0  0  0  0  0  0  0  0  0  0
  -27.9639  -23.2668   18.3935 C   0  0  0  0  0  0  0  0  0  0  0  0
  -28.5899  -24.1296   19.2055 C   0  0  0  0  0  0  0  0  0  0  0  0
  -29.2964  -23.3665   20.2232 C   0  0  0  0  0  0  0  0  0  0  0  0
  -30.0438  -23.8397   21.2254 C   0  0  0  0  0  0  0  0  0  0  0  0
  -24.2479  -10.6615   17.2234 C   0  0  0  0  0  0  0  0  0  0  0  0
  -25.7158  -32.1290   22.2008 C   0  0  0  0  0  0  0  0  0  0  0  0
  -22.7255  -30.8784   22.3304 C   0  0  0  0  0  0  0  0  0  0  0  0
  -20.6834  -28.1930   21.8154 C   0  0  0  0  0  0  0  0  0  0  0  0
  -28.6114  -16.8524   19.6582 C   0  0  0  0  0  0  0  0  0  0  0  0
  -26.1841  -37.0025   23.6455 C   0  0  0  0  0  0  0  0  0  0  0  0
  -25.4612  -31.1911   19.8745 C   0  0  0  0  0  0  0  0  0  0  0  0
  -24.6133  -29.2511   21.9390 C   0  0  0  0  0  0  0  0  0  0  0  0
  -29.0348  -21.8947   19.9482 C   0  0  0  0  0  0  0  0  0  0  0  0
  -25.2999  -35.8248   24.0474 C   0  0  0  0  0  0  0  0  0  0  0  0
  -29.6088  -13.8393   21.2717 C   0  0  0  0  0  0  0  0  0  0  0  0
  -26.1475  -34.5808   24.2946 C   0  0  0  0  0  0  0  0  0  0  0  0
  -28.5196  -12.8391   20.8772 C   0  0  0  0  0  0  0  0  0  0  0  0
  -29.0388  -15.2383   21.4986 C   0  0  0  0  0  0  0  0  0  0  0  0
  -27.1437  -14.7674   19.9965 C   0  0  0  0  0  0  0  0  0  0  0  0
  -26.8941  -34.1603   23.0229 C   0  0  1  0  0  0  0  0  0  0  0  0
  -24.7581  -31.6353   21.1535 C   0  0  1  0  0  0  0  0  0  0  0  0
  -27.6794  -13.3585   19.6940 C   0  0  2  0  0  0  0  0  0  0  0  0
  -18.2943  -27.4616   22.0491 C   0  0  0  0  0  0  0  0  0  0  0  0
  -23.1091  -30.5970   25.3443 C   0  0  0  0  0  0  0  0  0  0  0  0
  -21.1531  -29.0345   25.3770 C   0  0  0  0  0  0  0  0  0  0  0  0
  -20.8446  -31.4011   24.6514 C   0  0  0  0  0  0  0  0  0  0  0  0
  -20.4295  -27.6968   18.9088 C   0  0  0  0  0  0  0  0  0  0  0  0
  -28.5830  -25.6119   19.1133 C   0  0  0  0  0  0  0  0  0  1  0  0
  -22.0572  -29.7863   23.1302 C   0  0  1  0  0  0  0  0  0  0  0  0
  -19.3375  -28.0689   21.1242 C   0  0  2  0  0  0  0  0  0  0  0  0
  -21.8135  -30.1994   24.6092 C   0  0  0  0  0  0  0  0  0  0  0  0
  -25.9986  -11.6581   20.2984 N   0  0  0  0  0  0  0  0  0  0  0  0
  -26.5673  -12.3935   19.3279 N   0  0  0  0  0  0  0  0  0  0  0  0
  -28.1704  -21.9530   18.7550 N   0  0  0  0  0  0  0  0  0  0  0  0
  -23.9701  -30.5641   21.7664 N   0  0  0  0  0  0  0  0  0  0  0  0
  -28.2587  -15.6658   20.3352 N   0  0  0  0  0  0  0  0  0  0  0  0
  -26.5033  -12.8212   16.9990 N   0  0  0  0  0  0  0  0  0  0  0  0
  -23.2944   -9.6955   17.5728 N   0  0  0  0  0  0  0  0  0  0  0  0
  -27.8184  -17.1402   18.5479 N   0  0  0  0  0  0  0  0  0  0  0  0
  -25.9986  -33.4787   22.1131 N   0  0  0  0  0  0  0  0  0  0  0  0
  -20.8443  -29.4307   22.4015 N   0  0  0  0  0  0  0  0  0  0  0  0
  -19.4538  -27.2051   19.9154 N   0  3  0  0  0  0  0  0  0  0  0  0
  -24.3663  -11.0007   16.0215 O   0  0  0  0  0  0  0  0  0  0  0  0
  -26.1637  -31.3438   23.0281 O   0  0  0  0  0  0  0  0  0  0  0  0
  -22.1607  -31.9678   22.2045 O   0  0  0  0  0  0  0  0  0  0  0  0
  -21.5078  -27.2818   21.8367 O   0  0  0  0  0  0  0  0  0  0  0  0
  -29.5649  -17.5468   20.0196 O   0  0  0  0  0  0  0  0  0  0  0  0
  -21.8337   -7.3222   22.3966 O   0  0  0  0  0  0  0  0  0  0  0  0
  -28.0497  -26.1712   20.3130 O   0  0  0  0  0  0  0  0  0  1  0  0
  -21.1022   -2.3268   20.1798 F   0  0  0  0  0  0  0  0  0  0  0  0
  -26.1998  -17.4410   16.2985 F   0  0  0  0  0  0  0  0  0  0  0  0
  -22.5886   -5.0402   23.7622 F   0  0  0  0  0  0  0  0  0  0  0  0
  1  2  1  0  0  0  0
  1  5  2  0  0  0  0
  2  6  2  0  0  0  0
  3  9  2  0  0  0  0
  3 18  1  0  0  0  0
  4 10  1  0  0  0  0
  4 18  2  0  0  0  0
  5 20  1  0  0  0  0
  6 22  1  0  0  0  0
  7 11  2  0  0  0  0
  7 21  1  0  0  0  0
  8 13  2  0  0  0  0
  8 24  1  0  0  0  0
  9 26  1  0  0  0  0
 10 26  2  0  0  0  0
 11 27  1  0  0  0  0
 12 14  2  0  0  0  0
 12 28  1  0  0  0  0
 13 30  1  0  0  0  0
 14 29  1  0  0  0  0
 15 23  1  0  0  0  0
 15 27  2  0  0  0  0
 16 24  2  0  0  0  0
 16 25  1  0  0  0  0
 17 29  2  0  0  0  0
 17 31  1  0  0  0  0
 18 32  1  0  0  0  0
 19 32  1  0  0  0  0
 19 33  2  0  0  0  0
 19 38  1  0  0  0  0
 20 22  2  0  0  0  0
 20 43  1  0  0  0  0
 21 23  2  0  0  0  0
 21 44  1  0  0  0  0
 22 53  1  0  0  0  0
 23 45  1  0  0  0  0
 24 67  1  0  0  0  0
 25 30  2  0  0  0  0
 25 72  1  0  0  0  0
 26 81  1  0  0  0  0
 27 82  1  0  0  0  0
 28 31  2  0  0  0  0
 28 81  1  0  0  0  0
 29 83  1  0  0  0  0
 30 84  1  0  0  0  0
 31 85  1  0  0  0  0
 32 65  2  0  0  0  0
 33 66  1  0  0  0  0
 33 70  1  0  0  0  0
 34 35  2  0  0  0  0
 34 67  1  0  0  0  0
 35 36  1  0  0  0  0
 35 61  1  0  0  0  0
 36 37  2  0  0  0  0
 36 46  1  0  0  0  0
 38 71  1  0  0  0  0
 38 76  2  0  0  0  0
 39 54  1  0  0  0  0
 39 73  1  0  0  0  0
 39 77  2  0  0  0  0
 40 62  1  0  0  0  0
 40 68  1  0  0  0  0
 40 78  2  0  0  0  0
 41 63  1  0  0  0  0
 41 74  1  0  0  0  0
 41 79  2  0  0  0  0
 42 69  1  0  0  0  0
 42 72  1  0  0  0  0
 42 80  2  0  0  0  0
 43 47  1  0  0  0  0
 44 54  1  0  0  0  0
 45 68  1  0  0  0  0
 46 67  1  0  0  0  0
 47 49  1  0  0  0  0
 48 50  1  0  0  0  0
 48 51  1  0  0  0  0
 49 53  1  0  0  0  0
 50 55  1  0  0  0  0
 51 69  1  0  0  0  0
 52 55  1  0  0  0  0
 52 69  1  0  0  0  0
 53 73  1  0  0  0  0
 54 68  1  0  0  0  0
 55 66  1  0  0  0  0
 56 63  1  0  0  0  0
 57 64  1  0  0  0  0
 58 64  1  0  0  0  0
 59 64  1  0  0  0  0
 60 75  1  0  0  0  0
 61 82  1  0  0  0  0
 62 64  1  0  0  0  0
 62 74  1  0  0  0  0
 63 75  1  0  0  0  0
 65 66  1  0  0  0  0
M  CHG  1  75   1
M  ISO  4  42 100  61 101  72 100  82 101
M  END
> <Batch ID>
0077

> <Smiles>
C=C1CN(c2ccc(F)c([100NH:0][100C:0](=O)N3CCCC(n4nc(-c5ccc(Oc6ccc(F)cc6F)cc5)c(C(N)=O)c4N)C3)c2)C=C1[101CH2:1][101O:1]c1ccc2c(c1)CN(C(=O)C(NC(=O)C(C)NC)C(C)(C)C)C(C(=O)NC1CCCc3ccccc31)C2

> <Shape>
0.309

> <Color>
0.109

> <Negative vol penalty>
0.000

$$$$

  -OEChem-04042323533D

 85 94  0     1  0  0  0  0  0999 V2000
  -29.1274  -35.4435   22.5744 C   0  0  0  0  0  0  0  0  0  0  0  0
  -29.1305  -34.0534   22.5180 C   0  0  0  0  0  0  0  0  0  0  0  0
  -22.5906  -12.8389   18.5324 C   0  0  0  0  0  0  0  0  0  0  0  0
  -22.4499  -11.5765   20.5876 C   0  0  0  0  0  0  0  0  0  0  0  0
  -31.3458  -19.3830   20.4804 C   0  0  0  0  0  0  0  0  0  0  0  0
  -29.5100  -18.5304   19.1615 C   0  0  0  0  0  0  0  0  0  0  0  0
  -27.9760  -36.1213   22.9729 C   0  0  0  0  0  0  0  0  0  0  0  0
  -27.9824  -33.3403   22.8613 C   0  0  0  0  0  0  0  0  0  0  0  0
  -26.9553  -29.6180   19.5849 C   0  0  0  0  0  0  0  0  0  0  0  0
  -30.7260  -20.6313   20.5363 C   0  0  0  0  0  0  0  0  0  0  0  0
  -28.8901  -19.7788   19.2174 C   0  0  0  0  0  0  0  0  0  0  0  0
  -21.4361  -12.2097   18.0668 C   0  0  0  0  0  0  0  0  0  0  0  0
  -21.2953  -10.9473   20.1220 C   0  0  0  0  0  0  0  0  0  0  0  0
  -27.7060  -28.4483   19.6944 C   0  0  0  0  0  0  0  0  0  0  0  0
  -18.5146   -8.7454   19.3287 C   0  0  0  0  0  0  0  0  0  0  0  0
  -18.4136   -7.3651   19.5021 C   0  0  0  0  0  0  0  0  0  0  0  0
  -25.8883  -27.4005   20.8850 C   0  0  0  0  0  0  0  0  0  0  0  0
  -20.4082   -7.0524   18.1751 C   0  0  0  0  0  0  0  0  0  0  0  0
  -23.0976  -12.5222   19.7928 C   0  0  0  0  0  0  0  0  0  0  0  0
  -30.7378  -18.3326   19.7930 C   0  0  0  0  0  0  0  0  0  0  0  0
  -24.3684  -14.3666   21.0138 C   0  0  0  0  0  0  0  0  0  0  0  0
  -26.8103  -35.4165   23.3120 C   0  0  0  0  0  0  0  0  0  0  0  0
  -25.6676  -29.6915   20.1351 C   0  0  0  0  0  0  0  0  0  0  0  0
  -26.8148  -34.0092   23.2661 C   0  0  0  0  0  0  0  0  0  0  0  0
  -25.1224  -28.5715   20.7789 C   0  0  0  0  0  0  0  0  0  0  0  0
  -29.4982  -20.8292   19.9048 C   0  0  0  0  0  0  0  0  0  0  0  0
  -20.7884  -11.2639   18.8616 C   0  0  0  0  0  0  0  0  0  0  0  0
  -27.1736  -27.3402   20.3471 C   0  0  0  0  0  0  0  0  0  0  0  0
  -19.5624   -9.2793   18.5784 C   0  0  0  0  0  0  0  0  0  0  0  0
  -19.3604   -6.5186   18.9254 C   0  0  0  0  0  0  0  0  0  0  0  0
  -20.5092   -8.4328   18.0016 C   0  0  0  0  0  0  0  0  0  0  0  0
  -24.2905  -13.1714   20.2741 C   0  0  0  0  0  0  0  0  0  0  0  0
  -25.7129  -14.5544   21.2222 C   0  0  0  0  0  0  0  0  0  0  0  0
  -28.0325  -23.8694   19.9497 C   0  0  0  0  0  0  0  0  0  0  0  0
  -27.7210  -22.5289   19.4521 C   0  0  0  0  0  0  0  0  0  0  0  0
  -27.3981  -25.0548   19.9029 C   0  0  0  0  0  0  0  0  0  1  0  0
  -31.3980  -17.0031   19.7333 C   0  0  0  0  0  0  0  0  0  0  0  0
  -23.3192  -15.2299   21.4717 C   0  0  0  0  0  0  0  0  0  0  0  0
  -24.2881  -31.4604   22.3871 C   0  0  0  0  0  0  0  0  0  0  0  0
  -21.6028  -29.9381   21.3900 C   0  0  0  0  0  0  0  0  0  0  0  0
  -20.2089  -27.2191   19.8700 C   0  0  0  0  0  0  0  0  0  0  0  0
  -30.9628  -14.5835   19.4513 C   0  0  0  0  0  0  0  0  0  0  0  0
  -25.6046  -36.1909   23.7823 C   0  0  0  0  0  0  0  0  0  0  0  0
  -24.8604  -30.9518   19.9851 C   0  0  0  0  0  0  0  0  0  0  0  0
  -23.7368  -28.5924   21.3690 C   0  0  0  0  0  0  0  0  0  0  0  0
  -29.3299  -23.3310   20.5079 C   0  0  0  0  0  0  0  0  0  0  0  0
  -24.3140  -35.3758   23.7695 C   0  0  0  0  0  0  0  0  0  0  0  0
  -29.6377  -11.4539   20.4244 C   0  0  0  0  0  0  0  0  0  0  0  0
  -24.5422  -34.0048   24.3980 C   0  0  0  0  0  0  0  0  0  0  0  0
  -28.1343  -11.7190   20.5416 C   0  0  0  0  0  0  0  0  0  0  0  0
  -30.2585  -12.2148   19.2537 C   0  0  0  0  0  0  0  0  0  0  0  0
  -28.4841  -13.9180   19.3474 C   0  0  0  0  0  0  0  0  0  0  0  0
  -25.5814  -33.2013   23.6068 C   0  0  1  0  0  0  0  0  0  0  0  0
  -23.7588  -31.0840   21.0322 C   0  0  1  0  0  0  0  0  0  0  0  0
  -27.8255  -13.2296   20.5539 C   0  0  1  0  0  0  0  0  0  0  0  0
  -17.9870  -26.2405   19.2353 C   0  0  0  0  0  0  0  0  0  0  0  0
  -21.1280  -29.1379   24.2959 C   0  0  0  0  0  0  0  0  0  0  0  0
  -19.4941  -27.4235   23.4839 C   0  0  0  0  0  0  0  0  0  0  0  0
  -19.0725  -29.8452   23.0594 C   0  0  0  0  0  0  0  0  0  0  0  0
  -20.8873  -27.2505   16.9894 C   0  0  0  0  0  0  0  0  0  0  0  0
  -20.8952  -28.6597   21.7694 C   0  0  1  0  0  0  0  0  0  0  0  0
  -19.1555  -27.1024   18.7832 C   0  0  2  0  0  0  0  0  0  0  0  0
  -20.1743  -28.7665   23.1429 C   0  0  0  0  0  0  0  0  0  0  0  0
  -25.4900  -12.6376   20.0289 N   0  0  0  0  0  0  0  0  0  0  0  0
  -26.3344  -13.5015   20.6179 N   0  0  0  0  0  0  0  0  0  0  0  0
  -28.8876  -22.0606   19.9606 N   0  0  0  0  0  0  0  0  0  0  0  0
  -22.9895  -29.8498   21.2021 N   0  0  0  0  0  0  0  0  0  0  0  0
  -29.9278  -13.6381   19.3439 N   0  0  0  0  0  0  0  0  0  0  0  0
  -26.4123  -15.5159   21.8616 N   0  0  0  0  0  0  0  0  0  0  0  0
  -21.9937  -14.8885   21.1703 N   0  0  0  0  0  0  0  0  0  0  0  0
  -30.5425  -15.9125   19.5750 N   0  0  0  0  0  0  0  0  0  0  0  0
  -24.9883  -32.6516   22.4066 N   0  0  0  0  0  0  0  0  0  0  0  0
  -20.0119  -28.3357   20.6545 N   0  0  0  0  0  0  0  0  0  0  0  0
  -19.7422  -26.4927   17.5564 N   0  3  0  0  0  0  0  0  0  0  0  0
  -26.8051  -22.0346   18.8283 O   0  0  0  0  0  0  0  0  0  0  0  0
  -32.6234  -16.9411   19.7845 O   0  0  0  0  0  0  0  0  0  0  0  0
  -23.5512  -16.2818   22.1145 O   0  0  0  0  0  0  0  0  0  0  0  0
  -24.0756  -30.7254   23.3443 O   0  0  0  0  0  0  0  0  0  0  0  0
  -20.9483  -30.9753   21.2580 O   0  0  0  0  0  0  0  0  0  0  0  0
  -21.1137  -26.3994   20.0113 O   0  0  0  0  0  0  0  0  0  0  0  0
  -32.1568  -14.2687   19.4738 O   0  0  0  0  0  0  0  0  0  0  0  0
  -19.6617  -10.6499   18.4077 O   0  0  0  0  0  0  0  0  0  0  0  0
  -27.9044  -26.1974   20.4559 O   0  0  0  0  0  0  0  0  0  1  0  0
  -19.2642   -5.1932   19.0933 F   0  0  0  0  0  0  0  0  0  0  0  0
  -21.5186   -8.9399   17.2807 F   0  0  0  0  0  0  0  0  0  0  0  0
  1  2  1  0  0  0  0
  1  7  2  0  0  0  0
  2  8  2  0  0  0  0
  3 12  2  0  0  0  0
  3 19  1  0  0  0  0
  4 13  1  0  0  0  0
  4 19  2  0  0  0  0
  5 10  2  0  0  0  0
  5 20  1  0  0  0  0
  6 11  1  0  0  0  0
  6 20  2  0  0  0  0
  7 22  1  0  0  0  0
  8 24  1  0  0  0  0
  9 14  2  0  0  0  0
  9 23  1  0  0  0  0
 10 26  1  0  0  0  0
 11 26  2  0  0  0  0
 12 27  1  0  0  0  0
 13 27  2  0  0  0  0
 14 28  1  0  0  0  0
 15 16  2  0  0  0  0
 15 29  1  0  0  0  0
 16 30  1  0  0  0  0
 17 25  1  0  0  0  0
 17 28  2  0  0  0  0
 18 30  2  0  0  0  0
 18 31  1  0  0  0  0
 19 32  1  0  0  0  0
 20 37  1  0  0  0  0
 21 32  1  0  0  0  0
 21 33  2  0  0  0  0
 21 38  1  0  0  0  0
 22 24  2  0  0  0  0
 22 43  1  0  0  0  0
 23 25  2  0  0  0  0
 23 44  1  0  0  0  0
 24 53  1  0  0  0  0
 25 45  1  0  0  0  0
 26 66  1  0  0  0  0
 27 82  1  0  0  0  0
 28 83  1  0  0  0  0
 29 31  2  0  0  0  0
 29 82  1  0  0  0  0
 30 84  1  0  0  0  0
 31 85  1  0  0  0  0
 32 64  2  0  0  0  0
 33 65  1  0  0  0  0
 33 69  1  0  0  0  0
 34 35  1  0  0  0  0
 34 36  2  0  0  0  0
 34 46  1  0  0  0  0
 35 66  1  0  0  0  0
 35 75  2  0  0  0  0
 36 83  1  0  0  0  0
 37 71  1  0  0  0  0
 37 76  2  0  0  0  0
 38 70  1  0  0  0  0
 38 77  2  0  0  0  0
 39 54  1  0  0  0  0
 39 72  1  0  0  0  0
 39 78  2  0  0  0  0
 40 61  1  0  0  0  0
 40 67  1  0  0  0  0
 40 79  2  0  0  0  0
 41 62  1  0  0  0  0
 41 73  1  0  0  0  0
 41 80  2  0  0  0  0
 42 68  1  0  0  0  0
 42 71  1  0  0  0  0
 42 81  2  0  0  0  0
 43 47  1  0  0  0  0
 44 54  1  0  0  0  0
 45 67  1  0  0  0  0
 46 66  1  0  0  0  0
 47 49  1  0  0  0  0
 48 50  1  0  0  0  0
 48 51  1  0  0  0  0
 49 53  1  0  0  0  0
 50 55  1  0  0  0  0
 51 68  1  0  0  0  0
 52 55  1  0  0  0  0
 52 68  1  0  0  0  0
 53 72  1  0  0  0  0
 54 67  1  0  0  0  0
 55 65  1  0  0  0  0
 56 62  1  0  0  0  0
 57 63  1  0  0  0  0
 58 63  1  0  0  0  0
 59 63  1  0  0  0  0
 60 74  1  0  0  0  0
 61 63  1  0  0  0  0
 61 73  1  0  0  0  0
 62 74  1  0  0  0  0
 64 65  1  0  0  0  0
M  CHG  1  74   1
M  ISO  4  36 101  42 100  71 100  83 101
M  END
> <Batch ID>
0077

> <Smiles>
CNC(C)C(=O)NC(C(=O)N1Cc2cc([101O:1][101CH:1]=C3CN(c4ccc(C(=O)[100NH:0][100C:0](=O)N5CCCC(n6nc(-c7ccc(Oc8ccc(F)cc8F)cc7)c(C(N)=O)c6N)C5)cc4)C3=O)ccc2CC1C(=O)NC1CCCc2ccccc21)C(C)(C)C

> <Shape>
0.299

> <Color>
0.081

> <Negative vol penalty>
0.000

$$$$

  -OEChem-04042323533D

 85 93  0     1  0  0  0  0  0999 V2000
  -27.6469  -34.0535   23.1455 C   0  0  0  0  0  0  0  0  0  0  0  0
  -27.7939  -32.6892   23.3745 C   0  0  0  0  0  0  0  0  0  0  0  0
  -23.0035   -9.8920   19.9753 C   0  0  0  0  0  0  0  0  0  0  0  0
  -23.7320   -9.9338   22.2785 C   0  0  0  0  0  0  0  0  0  0  0  0
  -27.5264  -34.5312   21.8411 C   0  0  0  0  0  0  0  0  0  0  0  0
  -27.8194  -31.8016   22.2994 C   0  0  0  0  0  0  0  0  0  0  0  0
  -31.4943  -28.3431   22.7220 C   0  0  0  0  0  0  0  0  0  0  0  0
  -32.6439  -17.4434   23.4695 C   0  0  0  0  0  0  0  0  0  0  0  0
  -30.4648  -18.3357   24.0102 C   0  0  0  0  0  0  0  0  0  0  0  0
  -32.0559  -16.5497   22.5745 C   0  0  0  0  0  0  0  0  0  0  0  0
  -29.8768  -17.4420   23.1152 C   0  0  0  0  0  0  0  0  0  0  0  0
  -22.2388   -8.7554   20.2378 C   0  0  0  0  0  0  0  0  0  0  0  0
  -22.9672   -8.7972   22.5410 C   0  0  0  0  0  0  0  0  0  0  0  0
  -31.2669  -27.2752   23.5890 C   0  0  0  0  0  0  0  0  0  0  0  0
  -23.2149   -5.4607   22.0542 C   0  0  0  0  0  0  0  0  0  0  0  0
  -23.8048   -4.4410   22.8010 C   0  0  0  0  0  0  0  0  0  0  0  0
  -30.6797  -25.8820   21.7092 C   0  0  0  0  0  0  0  0  0  0  0  0
  -22.0831   -4.6744   24.4798 C   0  0  0  0  0  0  0  0  0  0  0  0
  -23.7502  -10.4812   20.9956 C   0  0  0  0  0  0  0  0  0  0  0  0
  -24.1321  -12.9980   20.8300 C   0  0  0  0  0  0  0  0  0  0  0  0
  -27.5601  -33.6500   20.7489 C   0  0  0  0  0  0  0  0  0  0  0  0
  -31.3052  -28.1913   21.3408 C   0  0  0  0  0  0  0  0  0  0  0  0
  -27.6978  -32.2678   20.9793 C   0  0  0  0  0  0  0  0  0  0  0  0
  -30.9078  -26.9489   20.8266 C   0  0  0  0  0  0  0  0  0  0  0  0
  -31.8484  -18.3364   24.1874 C   0  0  0  0  0  0  0  0  0  0  0  0
  -30.6724  -16.5490   22.3973 C   0  0  0  0  0  0  0  0  0  0  0  0
  -22.2206   -8.2080   21.5206 C   0  0  0  0  0  0  0  0  0  0  0  0
  -30.8568  -26.0452   23.0829 C   0  0  0  0  0  0  0  0  0  0  0  0
  -22.0591   -6.0874   22.5202 C   0  0  0  0  0  0  0  0  0  0  0  0
  -23.2389   -4.0478   24.0138 C   0  0  0  0  0  0  0  0  0  0  0  0
  -21.4932   -5.6942   23.7330 C   0  0  0  0  0  0  0  0  0  0  0  0
  -24.5408  -11.6549   20.7249 C   0  0  0  0  0  0  0  0  0  0  0  0
  -25.2404  -13.7235   20.4671 C   0  0  0  0  0  0  0  0  0  0  0  0
  -33.6895  -18.6096   27.2481 C   0  0  0  0  0  0  0  0  0  0  0  0
  -31.2344  -22.7901   24.5338 C   0  0  0  0  0  0  0  0  0  0  0  0
  -32.5519  -18.7608   26.5593 C   0  0  0  0  0  0  0  0  0  0  0  0
  -31.3776  -23.8674   23.7587 C   0  0  0  0  0  0  0  0  0  1  0  0
  -22.8640  -13.5411   21.2207 C   0  0  0  0  0  0  0  0  0  0  0  0
  -32.0775  -21.5885   24.2962 C   0  0  0  0  0  0  0  0  0  0  0  0
  -29.3907  -29.5205   19.1795 C   0  0  0  0  0  0  0  0  0  0  0  0
  -31.1705  -27.7773   17.1020 C   0  0  0  0  0  0  0  0  0  0  0  0
  -33.1878  -25.0759   16.5732 C   0  0  0  0  0  0  0  0  0  0  0  0
  -30.7190  -14.6904   20.6974 C   0  0  0  0  0  0  0  0  0  0  0  0
  -27.3785  -34.2084   19.3597 C   0  0  0  0  0  0  0  0  0  0  0  0
  -31.5805  -29.3455   20.4165 C   0  0  0  0  0  0  0  0  0  0  0  0
  -30.7101  -26.7283   19.3499 C   0  0  0  0  0  0  0  0  0  0  0  0
  -27.7913  -33.2393   18.2549 C   0  0  0  0  0  0  0  0  0  0  0  0
  -29.6004  -12.2462   18.3624 C   0  0  0  0  0  0  0  0  0  0  0  0
  -27.2185  -31.8508   18.5213 C   0  0  0  0  0  0  0  0  0  0  0  0
  -28.1508  -11.9850   18.7775 C   0  0  0  0  0  0  0  0  0  0  0  0
  -30.5024  -12.4855   19.5719 C   0  0  0  0  0  0  0  0  0  0  0  0
  -28.5880  -13.2662   20.9116 C   0  0  0  0  0  0  0  0  0  0  0  0
  -27.7549  -31.2760   19.8378 C   0  0  1  0  0  0  0  0  0  0  0  0
  -30.8600  -29.2235   19.0773 C   0  0  1  0  0  0  0  0  0  0  0  0
  -27.6289  -13.0838   19.7240 C   0  0  2  0  0  0  0  0  0  0  0  0
  -34.4585  -23.8906   14.7627 C   0  0  0  0  0  0  0  0  0  0  0  0
  -28.5585  -26.6215   16.0288 C   0  0  0  0  0  0  0  0  0  0  0  0
  -29.8918  -24.8053   14.9371 C   0  0  0  0  0  0  0  0  0  0  0  0
  -30.2495  -27.1833   14.2740 C   0  0  0  0  0  0  0  0  0  0  0  0
  -35.7728  -25.4974   17.9513 C   0  0  0  0  0  0  0  0  0  0  0  0
  -32.4869  -19.3066   25.1591 C   0  0  2  0  0  0  0  0  0  0  0  0
  -31.0814  -26.3855   16.5242 C   0  0  1  0  0  0  0  0  0  0  0  0
  -34.5222  -24.9390   15.8625 C   0  0  2  0  0  0  0  0  0  0  0  0
  -29.9471  -26.2533   15.4691 C   0  0  0  0  0  0  0  0  0  0  0  0
  -25.8096  -11.5317   20.3264 N   0  0  0  0  0  0  0  0  0  0  0  0
  -26.2078  -12.8067   20.1777 N   0  0  0  0  0  0  0  0  0  0  0  0
  -30.9859  -27.8892   18.4873 N   0  0  0  0  0  0  0  0  0  0  0  0
  -29.9473  -13.5421   20.4206 N   0  0  0  0  0  0  0  0  0  0  0  0
  -25.4721  -15.0499   20.3705 N   0  0  0  0  0  0  0  0  0  0  0  0
  -21.8338  -12.6542   21.5619 N   0  0  0  0  0  0  0  0  0  0  0  0
  -30.0747  -15.6414   21.4880 N   0  0  0  0  0  0  0  0  0  0  0  0
  -31.7926  -20.5724   25.1921 N   0  0  0  0  0  0  0  0  0  0  0  0
  -29.1043  -30.7835   19.6616 N   0  0  0  0  0  0  0  0  0  0  0  0
  -32.4113  -26.0691   16.0147 N   0  0  0  0  0  0  0  0  0  0  0  0
  -35.5854  -24.5426   16.8287 N   0  3  0  0  0  0  0  0  0  0  0  0
  -22.6458  -14.7760   21.2502 O   0  0  0  0  0  0  0  0  0  0  0  0
  -32.9188  -21.5366   23.4048 O   0  0  0  0  0  0  0  0  0  0  0  0
  -28.5771  -28.6677   18.8442 O   0  0  0  0  0  0  0  0  0  0  0  0
  -31.4026  -28.7294   16.3527 O   0  0  0  0  0  0  0  0  0  0  0  0
  -32.8650  -24.3698   17.5259 O   0  0  0  0  0  0  0  0  0  0  0  0
  -31.8569  -14.8327   20.2423 O   0  0  0  0  0  0  0  0  0  0  0  0
  -21.4742   -7.0991   21.7772 O   0  0  0  0  0  0  0  0  0  0  0  0
  -30.6335  -25.0014   23.9269 O   0  0  0  0  0  0  0  0  0  1  0  0
  -23.8046   -3.0675   24.7301 F   0  0  0  0  0  0  0  0  0  0  0  0
  -20.3822   -6.2918   24.1852 F   0  0  0  0  0  0  0  0  0  0  0  0
  1  2  1  0  0  0  0
  1  5  2  0  0  0  0
  2  6  2  0  0  0  0
  3 12  2  0  0  0  0
  3 19  1  0  0  0  0
  4 13  1  0  0  0  0
  4 19  2  0  0  0  0
  5 21  1  0  0  0  0
  6 23  1  0  0  0  0
  7 14  2  0  0  0  0
  7 22  1  0  0  0  0
  8 10  2  0  0  0  0
  8 25  1  0  0  0  0
  9 11  1  0  0  0  0
  9 25  2  0  0  0  0
 10 26  1  0  0  0  0
 11 26  2  0  0  0  0
 12 27  1  0  0  0  0
 13 27  2  0  0  0  0
 14 28  1  0  0  0  0
 15 16  2  0  0  0  0
 15 29  1  0  0  0  0
 16 30  1  0  0  0  0
 17 24  1  0  0  0  0
 17 28  2  0  0  0  0
 18 30  2  0  0  0  0
 18 31  1  0  0  0  0
 19 32  1  0  0  0  0
 20 32  1  0  0  0  0
 20 33  2  0  0  0  0
 20 38  1  0  0  0  0
 21 23  2  0  0  0  0
 21 44  1  0  0  0  0
 22 24  2  0  0  0  0
 22 45  1  0  0  0  0
 23 53  1  0  0  0  0
 24 46  1  0  0  0  0
 25 61  1  0  0  0  0
 26 71  1  0  0  0  0
 27 82  1  0  0  0  0
 28 83  1  0  0  0  0
 29 31  2  0  0  0  0
 29 82  1  0  0  0  0
 30 84  1  0  0  0  0
 31 85  1  0  0  0  0
 32 65  2  0  0  0  0
 33 66  1  0  0  0  0
 33 69  1  0  0  0  0
 34 36  2  0  0  0  0
 35 37  2  0  0  0  0
 35 39  1  0  0  0  0
 36 61  1  0  0  0  0
 37 83  1  0  0  0  0
 38 70  1  0  0  0  0
 38 76  2  0  0  0  0
 39 72  1  0  0  0  0
 39 77  2  0  0  0  0
 40 54  1  0  0  0  0
 40 73  1  0  0  0  0
 40 78  2  0  0  0  0
 41 62  1  0  0  0  0
 41 67  1  0  0  0  0
 41 79  2  0  0  0  0
 42 63  1  0  0  0  0
 42 74  1  0  0  0  0
 42 80  2  0  0  0  0
 43 68  1  0  0  0  0
 43 71  1  0  0  0  0
 43 81  2  0  0  0  0
 44 47  1  0  0  0  0
 45 54  1  0  0  0  0
 46 67  1  0  0  0  0
 47 49  1  0  0  0  0
 48 50  1  0  0  0  0
 48 51  1  0  0  0  0
 49 53  1  0  0  0  0
 50 55  1  0  0  0  0
 51 68  1  0  0  0  0
 52 55  1  0  0  0  0
 52 68  1  0  0  0  0
 53 73  1  0  0  0  0
 54 67  1  0  0  0  0
 55 66  1  0  0  0  0
 56 63  1  0  0  0  0
 57 64  1  0  0  0  0
 58 64  1  0  0  0  0
 59 64  1  0  0  0  0
 60 75  1  0  0  0  0
 61 72  1  0  0  0  0
 62 64  1  0  0  0  0
 62 74  1  0  0  0  0
 63 75  1  0  0  0  0
 65 66  1  0  0  0  0
M  CHG  1  75   1
M  ISO  4  37 101  43 100  71 100  83 101
M  END
> <Batch ID>
0077

> <Smiles>
C=CC(NC(=O)C=[101CH:1][101O:1]c1ccc2c(c1)CN(C(=O)C(NC(=O)C(C)NC)C(C)(C)C)C(C(=O)NC1CCCc3ccccc31)C2)c1ccc([100NH:0][100C:0](=O)N2CCCC(n3nc(-c4ccc(Oc5ccc(F)cc5F)cc4)c(C(N)=O)c3N)C2)cc1

> <Shape>
0.220

> <Color>
0.194

> <Negative vol penalty>
0.000

$$$$

  -OEChem-04042323533D

 86 95  0     1  0  0  0  0  0999 V2000
  -25.7906  -39.0662   24.4823 C   0  0  0  0  0  0  0  0  0  0  0  0
  -25.4061  -38.1585   25.4641 C   0  0  0  0  0  0  0  0  0  0  0  0
  -24.4216   -8.9483   21.0942 C   0  0  0  0  0  0  0  0  0  0  0  0
  -22.5442  -10.4603   21.2576 C   0  0  0  0  0  0  0  0  0  0  0  0
  -25.2525  -21.5183   24.9057 C   0  0  0  0  0  0  0  0  0  0  0  0
  -27.4311  -22.1299   24.0591 C   0  0  0  0  0  0  0  0  0  0  0  0
  -25.6831  -38.7218   23.1356 C   0  0  0  0  0  0  0  0  0  0  0  0
  -24.9129  -36.9062   25.0995 C   0  0  0  0  0  0  0  0  0  0  0  0
  -28.1258  -30.8601   27.3384 C   0  0  0  0  0  0  0  0  0  0  0  0
  -25.3870  -22.4561   25.9293 C   0  0  0  0  0  0  0  0  0  0  0  0
  -27.5656  -23.0678   25.0827 C   0  0  0  0  0  0  0  0  0  0  0  0
  -23.5547   -7.8606   21.1989 C   0  0  0  0  0  0  0  0  0  0  0  0
  -21.6773   -9.3725   21.3622 C   0  0  0  0  0  0  0  0  0  0  0  0
  -28.5590  -29.6578   27.8980 C   0  0  0  0  0  0  0  0  0  0  0  0
  -21.8832   -6.2345   23.6456 C   0  0  0  0  0  0  0  0  0  0  0  0
  -22.2464   -5.1977   24.5050 C   0  0  0  0  0  0  0  0  0  0  0  0
  -26.9413  -28.4450   26.5714 C   0  0  0  0  0  0  0  0  0  0  0  0
  -22.2354   -3.6536   22.6468 C   0  0  0  0  0  0  0  0  0  0  0  0
  -23.9163  -10.2482   21.1237 C   0  0  0  0  0  0  0  0  0  0  0  0
  -26.2746  -21.3551   23.9705 C   0  0  0  0  0  0  0  0  0  0  0  0
  -25.6791  -11.6689   19.9481 C   0  0  0  0  0  0  0  0  0  0  0  0
  -25.1974  -37.4610   22.7545 C   0  0  0  0  0  0  0  0  0  0  0  0
  -27.1080  -30.8578   26.3805 C   0  0  0  0  0  0  0  0  0  0  0  0
  -24.7976  -36.5451   23.7464 C   0  0  0  0  0  0  0  0  0  0  0  0
  -26.5118  -29.6449   25.9981 C   0  0  0  0  0  0  0  0  0  0  0  0
  -26.5436  -23.2309   26.0179 C   0  0  0  0  0  0  0  0  0  0  0  0
  -22.1825   -8.0727   21.3328 C   0  0  0  0  0  0  0  0  0  0  0  0
  -27.9680  -28.4534   27.5156 C   0  0  0  0  0  0  0  0  0  0  0  0
  -21.6961   -5.9809   22.2867 C   0  0  0  0  0  0  0  0  0  0  0  0
  -22.4225   -3.9072   24.0057 C   0  0  0  0  0  0  0  0  0  0  0  0
  -21.8722   -4.6905   21.7874 C   0  0  0  0  0  0  0  0  0  0  0  0
  -24.8114  -11.3722   21.0162 C   0  0  0  0  0  0  0  0  0  0  0  0
  -26.3060  -12.8306   20.3275 C   0  0  0  0  0  0  0  0  0  0  0  0
  -27.4349  -25.3840   26.9225 C   0  0  0  0  0  0  0  0  0  0  0  0
  -26.1323  -20.3614   22.8859 C   0  0  0  0  0  0  0  0  0  0  0  0
  -25.8988  -10.9580   18.7225 C   0  0  0  0  0  0  0  0  0  0  0  0
  -24.9529  -32.8665   24.0575 C   0  0  0  0  0  0  0  0  0  0  0  0
  -25.7509  -30.3162   22.5510 C   0  0  0  0  0  0  0  0  0  0  0  0
  -27.1950  -27.5889   21.0972 C   0  0  0  0  0  0  0  0  0  0  0  0
  -25.8145  -17.9639   22.3134 C   0  0  0  0  0  0  0  0  0  0  0  0
  -25.0549  -37.1516   21.2853 C   0  0  0  0  0  0  0  0  0  0  0  0
  -26.5676  -32.1347   25.7964 C   0  0  0  0  0  0  0  0  0  0  0  0
  -25.3965  -29.6940   24.9898 C   0  0  0  0  0  0  0  0  0  0  0  0
  -24.8742  -35.6647   20.9907 C   0  0  0  0  0  0  0  0  0  0  0  0
  -26.9146  -24.1620   29.5381 C   0  0  0  0  0  0  0  0  0  0  0  0
  -26.4303  -15.2348   24.7487 C   0  0  0  0  0  0  0  0  0  0  0  0
  -23.8355  -35.0572   21.9281 C   0  0  0  0  0  0  0  0  0  0  0  0
  -27.8270  -25.3776   29.3847 C   0  0  0  0  0  0  0  0  0  0  0  0
  -26.0548  -14.0163   23.9125 C   0  0  0  0  0  0  0  0  0  0  0  0
  -25.9804  -23.9882   28.3457 C   0  0  0  0  0  0  0  0  0  0  0  0
  -25.6111  -16.4686   24.3721 C   0  0  0  0  0  0  0  0  0  0  0  0
  -25.2965  -15.5701   22.0765 C   0  0  0  0  0  0  0  0  0  0  0  0
  -24.2811  -35.1677   23.3912 C   0  0  1  0  0  0  0  0  0  0  0  0
  -27.4465  -26.2417   28.1874 C   0  0  1  0  0  0  0  0  0  1  0  0
  -26.1432  -31.9926   24.3238 C   0  0  1  0  0  0  0  0  0  0  0  0
  -26.1542  -14.3425   22.4155 C   0  0  2  0  0  0  0  0  0  0  0  0
  -27.2646  -26.3134   18.9372 C   0  0  0  0  0  0  0  0  0  0  0  0
  -23.0163  -29.1177   23.1749 C   0  0  0  0  0  0  0  0  0  0  0  0
  -23.5559  -27.2469   21.6010 C   0  0  0  0  0  0  0  0  0  0  0  0
  -23.4211  -29.5888   20.7524 C   0  0  0  0  0  0  0  0  0  0  0  0
  -30.0969  -28.0707   20.7719 C   0  0  0  0  0  0  0  0  0  0  0  0
  -25.3895  -28.8998   22.1817 C   0  0  1  0  0  0  0  0  0  0  0  0
  -27.9063  -27.4141   19.7675 C   0  0  2  0  0  0  0  0  0  0  0  0
  -23.8628  -28.7190   21.9495 C   0  0  0  0  0  0  0  0  0  0  0  0
  -24.8784  -12.2727   22.0004 N   0  0  0  0  0  0  0  0  0  0  0  0
  -25.7958  -13.1466   21.5523 N   0  0  0  0  0  0  0  0  0  0  0  0
  -26.6824  -24.1978   27.0732 N   0  0  0  0  0  0  0  0  0  0  0  0
  -25.7337  -30.6387   23.9134 N   0  0  0  0  0  0  0  0  0  0  0  0
  -25.6258  -16.7208   22.9246 N   0  0  0  0  0  0  0  0  0  0  0  0
  -27.2385  -13.6023   19.7297 N   0  0  0  0  0  0  0  0  0  0  0  0
  -25.1105  -11.2841   17.6105 N   0  0  0  0  0  0  0  0  0  0  0  0
  -25.9697  -19.0740   23.2286 N   0  0  0  0  0  0  0  0  0  0  0  0
  -25.2749  -34.1603   23.6944 N   0  0  0  0  0  0  0  0  0  0  0  0
  -26.2141  -28.5556   21.0285 N   0  0  0  0  0  0  0  0  0  0  0  0
  -26.1800  -20.8073   21.6308 N   0  3  0  0  0  0  0  0  0  0  0  0
  -29.3377  -27.0627   19.9880 N   0  3  0  0  0  0  0  0  0  0  0  0
  -28.0706  -25.7313   25.9287 O   0  0  0  0  0  0  0  0  0  0  0  0
  -26.7571  -10.0488   18.6213 O   0  0  0  0  0  0  0  0  0  0  0  0
  -23.8247  -32.4020   24.1714 O   0  0  0  0  0  0  0  0  0  0  0  0
  -26.0357  -31.1186   21.6575 O   0  0  0  0  0  0  0  0  0  0  0  0
  -27.4785  -26.9310   22.0958 O   0  0  0  0  0  0  0  0  0  0  0  0
  -25.8260  -18.1702   21.1046 O   0  0  0  0  0  0  0  0  0  0  0  0
  -21.3363   -7.0115   21.4347 O   0  0  0  0  0  0  0  0  0  0  0  0
  -28.3987  -27.2829   28.0626 O   0  0  0  0  0  0  0  0  0  1  0  0
  -22.7727   -2.9119   24.8308 F   0  0  0  0  0  0  0  0  0  0  0  0
  -21.6950   -4.4409   20.4827 F   0  0  0  0  0  0  0  0  0  0  0  0
  1  2  1  0  0  0  0
  1  7  2  0  0  0  0
  2  8  2  0  0  0  0
  3 12  2  0  0  0  0
  3 19  1  0  0  0  0
  4 13  1  0  0  0  0
  4 19  2  0  0  0  0
  5 10  2  0  0  0  0
  5 20  1  0  0  0  0
  6 11  1  0  0  0  0
  6 20  2  0  0  0  0
  7 22  1  0  0  0  0
  8 24  1  0  0  0  0
  9 14  2  0  0  0  0
  9 23  1  0  0  0  0
 10 26  1  0  0  0  0
 11 26  2  0  0  0  0
 12 27  1  0  0  0  0
 13 27  2  0  0  0  0
 14 28  1  0  0  0  0
 15 16  2  0  0  0  0
 15 29  1  0  0  0  0
 16 30  1  0  0  0  0
 17 25  1  0  0  0  0
 17 28  2  0  0  0  0
 18 30  2  0  0  0  0
 18 31  1  0  0  0  0
 19 32  1  0  0  0  0
 20 35  1  0  0  0  0
 21 32  1  0  0  0  0
 21 33  2  0  0  0  0
 21 36  1  0  0  0  0
 22 24  2  0  0  0  0
 22 41  1  0  0  0  0
 23 25  2  0  0  0  0
 23 42  1  0  0  0  0
 24 53  1  0  0  0  0
 25 43  1  0  0  0  0
 26 67  1  0  0  0  0
 27 83  1  0  0  0  0
 28 84  1  0  0  0  0
 29 31  2  0  0  0  0
 29 83  1  0  0  0  0
 30 85  1  0  0  0  0
 31 86  1  0  0  0  0
 32 65  2  0  0  0  0
 33 66  1  0  0  0  0
 33 70  1  0  0  0  0
 34 54  1  0  0  0  0
 34 67  1  0  0  0  0
 34 77  2  0  0  0  0
 35 72  1  0  0  0  0
 35 75  2  0  0  0  0
 36 71  1  0  0  0  0
 36 78  2  0  0  0  0
 37 55  1  0  0  0  0
 37 73  1  0  0  0  0
 37 79  2  0  0  0  0
 38 62  1  0  0  0  0
 38 68  1  0  0  0  0
 38 80  2  0  0  0  0
 39 63  1  0  0  0  0
 39 74  1  0  0  0  0
 39 81  2  0  0  0  0
 40 69  1  0  0  0  0
 40 72  1  0  0  0  0
 40 82  2  0  0  0  0
 41 44  1  0  0  0  0
 42 55  1  0  0  0  0
 43 68  1  0  0  0  0
 44 47  1  0  0  0  0
 45 48  1  0  0  0  0
 45 50  1  0  0  0  0
 46 49  1  0  0  0  0
 46 51  1  0  0  0  0
 47 53  1  0  0  0  0
 48 54  1  0  0  0  0
 49 56  1  0  0  0  0
 50 67  1  0  0  0  0
 51 69  1  0  0  0  0
 52 56  1  0  0  0  0
 52 69  1  0  0  0  0
 53 73  1  0  0  0  0
 54 84  1  0  0  0  0
 55 68  1  0  0  0  0
 56 66  1  0  0  0  0
 57 63  1  0  0  0  0
 58 64  1  0  0  0  0
 59 64  1  0  0  0  0
 60 64  1  0  0  0  0
 61 76  1  0  0  0  0
 62 64  1  0  0  0  0
 62 74  1  0  0  0  0
 63 76  1  0  0  0  0
 65 66  1  0  0  0  0
M  CHG  2  75   1  76   1
M  ISO  4  40 100  54 101  72 100  84 101
M  END
> <Batch ID>
0077

> <Smiles>
CNC(C)C(=O)NC(C(=O)N1Cc2cc([101O:1][101CH:1]3CCCN(c4ccc(C(=N)[100NH:0][100C:0](=O)N5CCCC(n6nc(-c7ccc(Oc8ccc(F)cc8F)cc7)c(C(N)=O)c6N)C5)cc4)C3=O)ccc2CC1C(=O)NC1CCCc2ccccc21)C(C)(C)C

> <Shape>
0.249

> <Color>
0.089

> <Negative vol penalty>
0.000

$$$$

  -OEChem-04042323533D

 86 95  0     1  0  0  0  0  0999 V2000
  -29.2522  -37.2440   22.4385 C   0  0  0  0  0  0  0  0  0  0  0  0
  -29.3204  -36.2568   21.4607 C   0  0  0  0  0  0  0  0  0  0  0  0
  -24.1118   -8.7469   20.9986 C   0  0  0  0  0  0  0  0  0  0  0  0
  -22.9955  -10.8894   21.0105 C   0  0  0  0  0  0  0  0  0  0  0  0
  -28.8475  -36.9158   23.7317 C   0  0  0  0  0  0  0  0  0  0  0  0
  -28.9851  -34.9405   21.7759 C   0  0  0  0  0  0  0  0  0  0  0  0
  -26.0544  -29.0798   18.8812 C   0  0  0  0  0  0  0  0  0  0  0  0
  -23.1809   -8.2567   21.9143 C   0  0  0  0  0  0  0  0  0  0  0  0
  -22.0645  -10.3992   21.9263 C   0  0  0  0  0  0  0  0  0  0  0  0
  -26.3141  -27.7217   18.7023 C   0  0  0  0  0  0  0  0  0  0  0  0
  -20.0019   -7.1058   21.8608 C   0  0  0  0  0  0  0  0  0  0  0  0
  -19.4612   -5.8424   21.6222 C   0  0  0  0  0  0  0  0  0  0  0  0
  -25.5526  -27.2862   20.9494 C   0  0  0  0  0  0  0  0  0  0  0  0
  -27.3235  -19.3930   20.6438 C   0  0  0  0  0  0  0  0  0  0  0  0
  -29.5386  -18.0713   19.5811 C   0  0  0  0  0  0  0  0  0  0  0  0
  -20.3424   -5.0666   23.7338 C   0  0  0  0  0  0  0  0  0  0  0  0
  -24.0192  -10.0633   20.5467 C   0  0  0  0  0  0  0  0  0  0  0  0
  -24.8934  -10.5329   18.1966 C   0  0  0  0  0  0  0  0  0  0  0  0
  -28.4978  -35.5967   24.0605 C   0  0  0  0  0  0  0  0  0  0  0  0
  -25.5512  -29.5535   20.1013 C   0  0  0  0  0  0  0  0  0  0  0  0
  -28.5766  -34.5941   23.0751 C   0  0  0  0  0  0  0  0  0  0  0  0
  -25.2849  -28.6504   21.1404 C   0  0  0  0  0  0  0  0  0  0  0  0
  -27.3855  -17.9999   20.6749 C   0  0  0  0  0  0  0  0  0  0  0  0
  -28.3690  -20.1253   20.0812 C   0  0  0  0  0  0  0  0  0  0  0  0
  -28.4931  -17.3391   20.1436 C   0  0  0  0  0  0  0  0  0  0  0  0
  -22.1572   -9.0828   22.3782 C   0  0  0  0  0  0  0  0  0  0  0  0
  -26.0660  -26.8251   19.7375 C   0  0  0  0  0  0  0  0  0  0  0  0
  -20.7129   -7.3497   23.0358 C   0  0  0  0  0  0  0  0  0  0  0  0
  -19.6314   -4.8228   22.5587 C   0  0  0  0  0  0  0  0  0  0  0  0
  -29.4765  -19.4645   19.5499 C   0  0  0  0  0  0  0  0  0  0  0  0
  -20.8831   -6.3300   23.9723 C   0  0  0  0  0  0  0  0  0  0  0  0
  -24.9809  -10.5704   19.6012 C   0  0  0  0  0  0  0  0  0  0  0  0
  -26.0482  -11.1379   17.7644 C   0  0  0  0  0  0  0  0  0  0  0  0
  -27.2971  -22.3054   20.5250 C   0  0  0  0  0  0  0  0  0  0  0  0
  -27.5500  -23.6079   20.3374 C   0  0  0  0  0  0  0  0  0  0  0  0
  -28.8409  -23.7308   19.6774 C   0  0  0  0  0  0  0  0  0  0  0  0
  -29.4655  -24.8540   19.3097 C   0  0  0  0  0  0  0  0  0  0  0  0
  -23.8605   -9.9989   17.3577 C   0  0  0  0  0  0  0  0  0  0  0  0
  -26.5969  -31.5646   22.3297 C   0  0  0  0  0  0  0  0  0  0  0  0
  -23.6467  -31.0875   23.5910 C   0  0  0  0  0  0  0  0  0  0  0  0
  -20.9017  -29.0778   23.8612 C   0  0  0  0  0  0  0  0  0  0  0  0
  -29.7283  -15.1454   20.2346 C   0  0  0  0  0  0  0  0  0  0  0  0
  -28.1117  -35.2813   25.4839 C   0  0  0  0  0  0  0  0  0  0  0  0
  -25.2511  -31.0178   20.2692 C   0  0  0  0  0  0  0  0  0  0  0  0
  -24.7257  -29.1055   22.4627 C   0  0  0  0  0  0  0  0  0  0  0  0
  -29.3782  -22.3243   19.4690 C   0  0  0  0  0  0  0  0  0  0  0  0
  -27.4136  -33.9329   25.6412 C   0  0  0  0  0  0  0  0  0  0  0  0
  -30.5937  -11.8945   19.0682 C   0  0  0  0  0  0  0  0  0  0  0  0
  -28.1651  -32.8499   24.8735 C   0  0  0  0  0  0  0  0  0  0  0  0
  -29.2441  -11.1846   18.9389 C   0  0  0  0  0  0  0  0  0  0  0  0
  -30.6291  -12.8298   20.2756 C   0  0  0  0  0  0  0  0  0  0  0  0
  -28.1803  -13.0914   20.2115 C   0  0  0  0  0  0  0  0  0  0  0  0
  -28.1971  -33.1596   23.3720 C   0  0  1  0  0  0  0  0  0  0  0  0
  -25.2236  -31.4585   21.7295 C   0  0  1  0  0  0  0  0  0  0  0  0
  -28.0743  -12.1876   18.9723 C   0  0  2  0  0  0  0  0  0  0  0  0
  -26.2502  -17.2407   21.2812 C   0  0  0  0  0  0  0  0  0  0  0  0
  -18.6669  -28.9374   24.9940 C   0  0  0  0  0  0  0  0  0  0  0  0
  -25.0238  -30.3447   26.2105 C   0  0  0  0  0  0  0  0  0  0  0  0
  -22.8687  -29.3239   26.9732 C   0  0  0  0  0  0  0  0  0  0  0  0
  -22.9818  -31.7648   26.4715 C   0  0  0  0  0  0  0  0  0  0  0  0
  -19.4641  -29.0278   21.2748 C   0  0  0  0  0  0  0  0  0  0  0  0
  -26.6867  -24.7526   20.7251 C   0  0  0  0  0  0  0  0  0  1  0  0
  -23.0475  -30.1037   24.5667 C   0  0  1  0  0  0  0  0  0  0  0  0
  -19.4181  -29.3784   23.7474 C   0  0  2  0  0  0  0  0  0  0  0  0
  -23.4928  -30.3757   26.0313 C   0  0  0  0  0  0  0  0  0  0  0  0
  -26.1027  -11.1531   20.0325 N   0  0  0  0  0  0  0  0  0  0  0  0
  -26.7307  -11.4872   18.8923 N   0  0  0  0  0  0  0  0  0  0  0  0
  -28.3063  -21.4955   20.0508 N   0  0  0  0  0  0  0  0  0  0  0  0
  -24.4549  -30.5478   22.5803 N   0  0  0  0  0  0  0  0  0  0  0  0
  -29.4937  -13.7541   20.2379 N   0  0  0  0  0  0  0  0  0  0  0  0
  -26.5362  -11.3999   16.5333 N   0  0  0  0  0  0  0  0  0  0  0  0
  -22.7424   -9.4121   17.9658 N   0  0  0  0  0  0  0  0  0  0  0  0
  -28.5740  -15.9246   20.1640 N   0  0  0  0  0  0  0  0  0  0  0  0
  -26.9255  -32.8353   22.7618 N   0  0  0  0  0  0  0  0  0  0  0  0
  -21.6039  -30.1536   24.3620 N   0  0  0  0  0  0  0  0  0  0  0  0
  -18.8349  -28.6710   22.5724 N   0  3  0  0  0  0  0  0  0  0  0  0
  -23.9348  -10.0262   16.1058 O   0  0  0  0  0  0  0  0  0  0  0  0
  -27.3055  -30.5670   22.3972 O   0  0  0  0  0  0  0  0  0  0  0  0
  -23.4008  -32.2897   23.7165 O   0  0  0  0  0  0  0  0  0  0  0  0
  -21.3885  -27.9954   23.5416 O   0  0  0  0  0  0  0  0  0  0  0  0
  -30.8704  -15.6110   20.2627 O   0  0  0  0  0  0  0  0  0  0  0  0
  -21.2485   -8.6048   23.2716 O   0  0  0  0  0  0  0  0  0  0  0  0
  -26.3193  -25.4991   19.5658 O   0  0  0  0  0  0  0  0  0  1  0  0
  -19.1108   -3.6100   22.3301 F   0  0  0  0  0  0  0  0  0  0  0  0
  -30.4866  -20.1577   19.0056 F   0  0  0  0  0  0  0  0  0  0  0  0
  -21.5641   -6.5586   25.1036 F   0  0  0  0  0  0  0  0  0  0  0  0
  1  2  1  0  0  0  0
  1  5  2  0  0  0  0
  2  6  2  0  0  0  0
  3  8  2  0  0  0  0
  3 17  1  0  0  0  0
  4  9  1  0  0  0  0
  4 17  2  0  0  0  0
  5 19  1  0  0  0  0
  6 21  1  0  0  0  0
  7 10  2  0  0  0  0
  7 20  1  0  0  0  0
  8 26  1  0  0  0  0
  9 26  2  0  0  0  0
 10 27  1  0  0  0  0
 11 12  2  0  0  0  0
 11 28  1  0  0  0  0
 12 29  1  0  0  0  0
 13 22  1  0  0  0  0
 13 27  2  0  0  0  0
 14 23  2  0  0  0  0
 14 24  1  0  0  0  0
 15 25  2  0  0  0  0
 15 30  1  0  0  0  0
 16 29  2  0  0  0  0
 16 31  1  0  0  0  0
 17 32  1  0  0  0  0
 18 32  1  0  0  0  0
 18 33  2  0  0  0  0
 18 38  1  0  0  0  0
 19 21  2  0  0  0  0
 19 43  1  0  0  0  0
 20 22  2  0  0  0  0
 20 44  1  0  0  0  0
 21 53  1  0  0  0  0
 22 45  1  0  0  0  0
 23 25  1  0  0  0  0
 23 56  1  0  0  0  0
 24 30  2  0  0  0  0
 24 68  1  0  0  0  0
 25 73  1  0  0  0  0
 26 82  1  0  0  0  0
 27 83  1  0  0  0  0
 28 31  2  0  0  0  0
 28 82  1  0  0  0  0
 29 84  1  0  0  0  0
 30 85  1  0  0  0  0
 31 86  1  0  0  0  0
 32 66  2  0  0  0  0
 33 67  1  0  0  0  0
 33 71  1  0  0  0  0
 34 35  2  0  0  0  0
 34 68  1  0  0  0  0
 35 36  1  0  0  0  0
 35 62  1  0  0  0  0
 36 37  2  0  0  0  0
 36 46  1  0  0  0  0
 38 72  1  0  0  0  0
 38 77  2  0  0  0  0
 39 54  1  0  0  0  0
 39 74  1  0  0  0  0
 39 78  2  0  0  0  0
 40 63  1  0  0  0  0
 40 69  1  0  0  0  0
 40 79  2  0  0  0  0
 41 64  1  0  0  0  0
 41 75  1  0  0  0  0
 41 80  2  0  0  0  0
 42 70  1  0  0  0  0
 42 73  1  0  0  0  0
 42 81  2  0  0  0  0
 43 47  1  0  0  0  0
 44 54  1  0  0  0  0
 45 69  1  0  0  0  0
 46 68  1  0  0  0  0
 47 49  1  0  0  0  0
 48 50  1  0  0  0  0
 48 51  1  0  0  0  0
 49 53  1  0  0  0  0
 50 55  1  0  0  0  0
 51 70  1  0  0  0  0
 52 55  1  0  0  0  0
 52 70  1  0  0  0  0
 53 74  1  0  0  0  0
 54 69  1  0  0  0  0
 55 67  1  0  0  0  0
 57 64  1  0  0  0  0
 58 65  1  0  0  0  0
 59 65  1  0  0  0  0
 60 65  1  0  0  0  0
 61 76  1  0  0  0  0
 62 83  1  0  0  0  0
 63 65  1  0  0  0  0
 63 75  1  0  0  0  0
 64 76  1  0  0  0  0
 66 67  1  0  0  0  0
M  CHG  1  76   1
M  ISO  4  42 100  62 101  73 100  83 101
M  END
> <Batch ID>
0077

> <Smiles>
C=C1CN(c2cc(C)c([100NH:0][100C:0](=O)N3CCCC(n4nc(-c5ccc(Oc6ccc(F)cc6F)cc5)c(C(N)=O)c4N)C3)cc2F)C=C1[101CH2:1][101O:1]c1ccc2c(c1)CN(C(=O)C(NC(=O)C(C)NC)C(C)(C)C)C(C(=O)NC1CCCc3ccccc31)C2

> <Shape>
0.312

> <Color>
0.101

> <Negative vol penalty>
0.000

$$$$

  -OEChem-04042323533D

 86 94  0     1  0  0  0  0  0999 V2000
  -23.6162  -38.7145   22.2260 C   0  0  0  0  0  0  0  0  0  0  0  0
  -24.5960  -37.7373   22.0830 C   0  0  0  0  0  0  0  0  0  0  0  0
  -24.5129   -9.6918   21.5761 C   0  0  0  0  0  0  0  0  0  0  0  0
  -24.7964  -10.8432   23.6811 C   0  0  0  0  0  0  0  0  0  0  0  0
  -30.0399  -21.1607   21.8683 C   0  0  0  0  0  0  0  0  0  0  0  0
  -27.6291  -21.2398   22.0054 C   0  0  0  0  0  0  0  0  0  0  0  0
  -22.4267  -38.4157   22.8891 C   0  0  0  0  0  0  0  0  0  0  0  0
  -24.3873  -36.4608   22.6040 C   0  0  0  0  0  0  0  0  0  0  0  0
  -26.3213  -31.1554   20.2338 C   0  0  0  0  0  0  0  0  0  0  0  0
  -29.9700  -19.8511   21.3933 C   0  0  0  0  0  0  0  0  0  0  0  0
  -27.5592  -19.9302   21.5303 C   0  0  0  0  0  0  0  0  0  0  0  0
  -24.1841   -8.5217   22.2604 C   0  0  0  0  0  0  0  0  0  0  0  0
  -24.4674   -9.6731   24.3654 C   0  0  0  0  0  0  0  0  0  0  0  0
  -27.4173  -30.3434   20.5221 C   0  0  0  0  0  0  0  0  0  0  0  0
  -21.4863   -7.2352   23.8415 C   0  0  0  0  0  0  0  0  0  0  0  0
  -20.3872   -6.5060   23.3877 C   0  0  0  0  0  0  0  0  0  0  0  0
  -26.0284  -28.9879   21.9549 C   0  0  0  0  0  0  0  0  0  0  0  0
  -21.8158   -4.5978   22.9942 C   0  0  0  0  0  0  0  0  0  0  0  0
  -24.8191  -10.8526   22.2865 C   0  0  0  0  0  0  0  0  0  0  0  0
  -28.8695  -21.8551   22.1744 C   0  0  0  0  0  0  0  0  0  0  0  0
  -24.2779  -13.0701   21.1474 C   0  0  0  0  0  0  0  0  0  0  0  0
  -22.1993  -37.1321   23.4101 C   0  0  0  0  0  0  0  0  0  0  0  0
  -25.0710  -30.8958   20.8134 C   0  0  0  0  0  0  0  0  0  0  0  0
  -23.1942  -36.1449   23.2759 C   0  0  0  0  0  0  0  0  0  0  0  0
  -24.9175  -29.7966   21.6703 C   0  0  0  0  0  0  0  0  0  0  0  0
  -28.7296  -19.2359   21.2243 C   0  0  0  0  0  0  0  0  0  0  0  0
  -24.1613   -8.5123   23.6550 C   0  0  0  0  0  0  0  0  0  0  0  0
  -27.2717  -29.2612   21.3850 C   0  0  0  0  0  0  0  0  0  0  0  0
  -22.7502   -6.6457   23.8716 C   0  0  0  0  0  0  0  0  0  0  0  0
  -20.5520   -5.1873   22.9641 C   0  0  0  0  0  0  0  0  0  0  0  0
  -22.9149   -5.3270   23.4479 C   0  0  0  0  0  0  0  0  0  0  0  0
  -25.1595  -12.0615   21.5802 C   0  0  0  0  0  0  0  0  0  0  0  0
  -25.0879  -13.9941   20.5339 C   0  0  0  0  0  0  0  0  0  0  0  0
  -28.9434  -23.2420   22.6776 C   0  0  0  0  0  0  0  0  0  0  0  0
  -22.8540  -13.1634   21.2876 C   0  0  0  0  0  0  0  0  0  0  0  0
  -23.1288  -32.4862   22.7632 C   0  0  0  0  0  0  0  0  0  0  0  0
  -30.6223  -27.7908   21.4544 C   0  0  0  0  0  0  0  0  0  0  0  0
  -21.1307  -30.0014   22.1669 C   0  0  0  0  0  0  0  0  0  0  0  0
  -29.6975  -25.5642   22.2181 C   0  0  0  0  0  0  0  0  0  0  0  0
  -20.7614  -26.7434   21.2202 C   0  0  0  0  0  0  0  0  0  0  0  0
  -29.7231  -17.0760   20.3911 C   0  0  0  0  0  0  0  0  0  0  0  0
  -20.9175  -36.8698   24.1604 C   0  0  0  0  0  0  0  0  0  0  0  0
  -23.8924  -31.7653   20.4712 C   0  0  0  0  0  0  0  0  0  0  0  0
  -23.5919  -29.4630   22.3026 C   0  0  0  0  0  0  0  0  0  0  0  0
  -20.6187  -35.3856   24.3554 C   0  0  0  0  0  0  0  0  0  0  0  0
  -29.9633  -13.7297   19.1986 C   0  0  0  0  0  0  0  0  0  0  0  0
  -21.8643  -34.6492   24.8380 C   0  0  0  0  0  0  0  0  0  0  0  0
  -28.6624  -13.0804   19.6763 C   0  0  0  0  0  0  0  0  0  0  0  0
  -30.5092  -14.7248   20.2211 C   0  0  0  0  0  0  0  0  0  0  0  0
  -28.2538  -15.1013   21.1377 C   0  0  0  0  0  0  0  0  0  0  0  0
  -22.9945  -34.7415   23.8057 C   0  0  1  0  0  0  0  0  0  0  0  0
  -22.7867  -31.7132   21.5210 C   0  0  1  0  0  0  0  0  0  0  0  0
  -27.6311  -14.1394   20.1127 C   0  0  2  0  0  0  0  0  0  0  0  0
  -19.0098  -24.9822   20.8632 C   0  0  0  0  0  0  0  0  0  0  0  0
  -20.8854  -29.6367   25.1863 C   0  0  0  0  0  0  0  0  0  0  0  0
  -19.9379  -27.3581   24.7639 C   0  0  0  0  0  0  0  0  0  0  0  0
  -18.7402  -29.3797   23.9267 C   0  0  0  0  0  0  0  0  0  0  0  0
  -21.4551  -26.4694   18.3562 C   0  0  0  0  0  0  0  0  0  0  0  0
  -30.3976  -26.3337   21.1303 C   0  0  0  0  0  0  0  0  0  0  0  0
  -29.5804  -28.8012   21.0471 C   0  0  0  0  0  0  0  0  0  1  0  0
  -20.8832  -28.6530   22.7991 C   0  0  1  0  0  0  0  0  0  0  0  0
  -19.8326  -26.0853   20.2159 C   0  0  2  0  0  0  0  0  0  0  0  0
  -20.1373  -28.7640   24.1588 C   0  0  0  0  0  0  0  0  0  0  0  0
  -26.4321  -12.3202   21.2679 N   0  0  0  0  0  0  0  0  0  0  0  0
  -31.6664  -28.1793   22.1120 N   0  0  0  0  0  0  0  0  0  0  0  0
  -26.3561  -13.5018   20.6323 N   0  0  0  0  0  0  0  0  0  0  0  0
  -22.4709  -30.3467   21.9419 N   0  0  0  0  0  0  0  0  0  0  0  0
  -29.4785  -15.6998   20.5841 N   0  0  0  0  0  0  0  0  0  0  0  0
  -24.8321  -15.1715   19.9251 N   0  0  0  0  0  0  0  0  0  0  0  0
  -22.1780  -12.1265   21.9449 N   0  0  0  0  0  0  0  0  0  0  0  0
  -28.6585  -17.9055   20.7417 N   0  0  0  0  0  0  0  0  0  0  0  0
  -29.5216  -24.1667   21.8986 N   0  0  0  0  0  0  0  0  0  0  0  0
  -22.7609  -33.8174   22.7167 N   0  0  0  0  0  0  0  0  0  0  0  0
  -20.1845  -27.8547   21.7977 N   0  0  0  0  0  0  0  0  0  0  0  0
  -28.4264  -23.4939   23.8798 N   0  3  0  0  0  0  0  0  0  0  0  0
  -20.6170  -25.4914   19.0966 N   0  3  0  0  0  0  0  0  0  0  0  0
  -22.1987  -14.1295   20.8286 O   0  0  0  0  0  0  0  0  0  0  0  0
  -23.6840  -31.9168   23.6955 O   0  0  0  0  0  0  0  0  0  0  0  0
  -20.1701  -30.7187   21.8765 O   0  0  0  0  0  0  0  0  0  0  0  0
  -29.3121  -26.0341   23.2789 O   0  0  0  0  0  0  0  0  0  0  0  0
  -21.8849  -26.3124   21.4704 O   0  0  0  0  0  0  0  0  0  0  0  0
  -30.7878  -17.4863   19.9220 O   0  0  0  0  0  0  0  0  0  0  0  0
  -23.8402   -7.3708   24.3231 O   0  0  0  0  0  0  0  0  0  0  0  0
  -28.3400  -28.4674   21.6687 O   0  0  0  0  0  0  0  0  0  1  0  0
  -19.4962   -4.4867   22.5298 F   0  0  0  0  0  0  0  0  0  0  0  0
  -24.1264   -4.7549   23.4756 F   0  0  0  0  0  0  0  0  0  0  0  0
  1  2  1  0  0  0  0
  1  7  2  0  0  0  0
  2  8  2  0  0  0  0
  3 12  2  0  0  0  0
  3 19  1  0  0  0  0
  4 13  1  0  0  0  0
  4 19  2  0  0  0  0
  5 10  2  0  0  0  0
  5 20  1  0  0  0  0
  6 11  1  0  0  0  0
  6 20  2  0  0  0  0
  7 22  1  0  0  0  0
  8 24  1  0  0  0  0
  9 14  2  0  0  0  0
  9 23  1  0  0  0  0
 10 26  1  0  0  0  0
 11 26  2  0  0  0  0
 12 27  1  0  0  0  0
 13 27  2  0  0  0  0
 14 28  1  0  0  0  0
 15 16  2  0  0  0  0
 15 29  1  0  0  0  0
 16 30  1  0  0  0  0
 17 25  1  0  0  0  0
 17 28  2  0  0  0  0
 18 30  2  0  0  0  0
 18 31  1  0  0  0  0
 19 32  1  0  0  0  0
 20 34  1  0  0  0  0
 21 32  1  0  0  0  0
 21 33  2  0  0  0  0
 21 35  1  0  0  0  0
 22 24  2  0  0  0  0
 22 42  1  0  0  0  0
 23 25  2  0  0  0  0
 23 43  1  0  0  0  0
 24 51  1  0  0  0  0
 25 44  1  0  0  0  0
 26 71  1  0  0  0  0
 27 83  1  0  0  0  0
 28 84  1  0  0  0  0
 29 31  2  0  0  0  0
 29 83  1  0  0  0  0
 30 85  1  0  0  0  0
 31 86  1  0  0  0  0
 32 64  2  0  0  0  0
 33 66  1  0  0  0  0
 33 69  1  0  0  0  0
 34 72  1  0  0  0  0
 34 75  2  0  0  0  0
 35 70  1  0  0  0  0
 35 77  2  0  0  0  0
 36 52  1  0  0  0  0
 36 73  1  0  0  0  0
 36 78  2  0  0  0  0
 37 59  1  0  0  0  0
 37 60  1  0  0  0  0
 37 65  2  0  0  0  0
 38 61  1  0  0  0  0
 38 67  1  0  0  0  0
 38 79  2  0  0  0  0
 39 59  1  0  0  0  0
 39 72  1  0  0  0  0
 39 80  2  0  0  0  0
 40 62  1  0  0  0  0
 40 74  1  0  0  0  0
 40 81  2  0  0  0  0
 41 68  1  0  0  0  0
 41 71  1  0  0  0  0
 41 82  2  0  0  0  0
 42 45  1  0  0  0  0
 43 52  1  0  0  0  0
 44 67  1  0  0  0  0
 45 47  1  0  0  0  0
 46 48  1  0  0  0  0
 46 49  1  0  0  0  0
 47 51  1  0  0  0  0
 48 53  1  0  0  0  0
 49 68  1  0  0  0  0
 50 53  1  0  0  0  0
 50 68  1  0  0  0  0
 51 73  1  0  0  0  0
 52 67  1  0  0  0  0
 53 66  1  0  0  0  0
 54 62  1  0  0  0  0
 55 63  1  0  0  0  0
 56 63  1  0  0  0  0
 57 63  1  0  0  0  0
 58 76  1  0  0  0  0
 60 84  1  0  0  0  0
 61 63  1  0  0  0  0
 61 74  1  0  0  0  0
 62 76  1  0  0  0  0
 64 66  1  0  0  0  0
M  CHG  2  75   1  76   1
M  ISO  4  41 100  60 101  71 100  84 101
M  END
> <Batch ID>
0077

> <Smiles>
CNC(C)C(=O)NC(C(=O)N1Cc2cc([101O:1][101CH2:1]C(=N)CC(=O)NC(=N)c3ccc([100NH:0][100C:0](=O)N4CCCC(n5nc(-c6ccc(Oc7ccc(F)cc7F)cc6)c(C(N)=O)c5N)C4)cc3)ccc2CC1C(=O)NC1CCCc2ccccc21)C(C)(C)C

> <Shape>
0.318

> <Color>
0.120

> <Negative vol penalty>
0.000

$$$$

  -OEChem-04042323533D

 86 94  0     1  0  0  0  0  0999 V2000
  -17.7759  -26.8119   24.0318 C   0  0  0  0  0  0  0  0  0  0  0  0
  -18.8115  -26.3840   23.2072 C   0  0  0  0  0  0  0  0  0  0  0  0
  -26.6770  -11.4720   21.1108 C   0  0  0  0  0  0  0  0  0  0  0  0
  -25.9560  -13.0424   19.4223 C   0  0  0  0  0  0  0  0  0  0  0  0
  -30.5571  -22.3243   19.7484 C   0  0  0  0  0  0  0  0  0  0  0  0
  -17.4610  -28.1680   24.1067 C   0  0  0  0  0  0  0  0  0  0  0  0
  -19.5321  -27.3120   22.4563 C   0  0  0  0  0  0  0  0  0  0  0  0
  -25.4907  -27.0868   21.0597 C   0  0  0  0  0  0  0  0  0  0  0  0
  -30.9716  -21.0499   20.1354 C   0  0  0  0  0  0  0  0  0  0  0  0
  -25.3465  -11.1530   21.3822 C   0  0  0  0  0  0  0  0  0  0  0  0
  -24.6255  -12.7234   19.6937 C   0  0  0  0  0  0  0  0  0  0  0  0
  -26.1713  -26.6665   19.9178 C   0  0  0  0  0  0  0  0  0  0  0  0
  -22.9115   -9.2497   20.0106 C   0  0  0  0  0  0  0  0  0  0  0  0
  -22.5825   -7.9008   20.1440 C   0  0  0  0  0  0  0  0  0  0  0  0
  -26.2612  -28.9479   19.1391 C   0  0  0  0  0  0  0  0  0  0  0  0
  -29.8233  -20.0991   18.2342 C   0  0  0  0  0  0  0  0  0  0  0  0
  -21.8222   -8.3093   22.4005 C   0  0  0  0  0  0  0  0  0  0  0  0
  -26.9818  -12.4167   20.1309 C   0  0  0  0  0  0  0  0  0  0  0  0
  -29.7757  -22.4861   18.6043 C   0  0  0  0  0  0  0  0  0  0  0  0
  -29.2046  -12.1287   18.9127 C   0  0  0  0  0  0  0  0  0  0  0  0
  -18.1844  -29.1141   23.3636 C   0  0  0  0  0  0  0  0  0  0  0  0
  -25.1802  -28.4416   21.2450 C   0  0  0  0  0  0  0  0  0  0  0  0
  -19.2257  -28.6819   22.5203 C   0  0  0  0  0  0  0  0  0  0  0  0
  -25.5789  -29.3831   20.2855 C   0  0  0  0  0  0  0  0  0  0  0  0
  -30.6047  -19.9373   19.3783 C   0  0  0  0  0  0  0  0  0  0  0  0
  -24.3208  -11.7787   20.6737 C   0  0  0  0  0  0  0  0  0  0  0  0
  -26.5540  -27.5967   18.9559 C   0  0  0  0  0  0  0  0  0  0  0  0
  -22.6959  -10.1284   21.0723 C   0  0  0  0  0  0  0  0  0  0  0  0
  -22.0378   -7.4306   21.3389 C   0  0  0  0  0  0  0  0  0  0  0  0
  -29.4088  -21.3735   17.8472 C   0  0  0  0  0  0  0  0  0  0  0  0
  -22.1512   -9.6582   22.2672 C   0  0  0  0  0  0  0  0  0  0  0  0
  -28.3559  -12.7470   19.8504 C   0  0  0  0  0  0  0  0  0  0  0  0
  -30.3953  -12.8030   19.0303 C   0  0  0  0  0  0  0  0  0  0  0  0
  -26.5994  -26.2918   17.0153 C   0  0  0  0  0  0  0  0  0  1  0  0
  -29.3343  -23.8451   18.1976 C   0  0  0  0  0  0  0  0  0  0  0  0
  -28.9401  -11.0420   18.0156 C   0  0  0  0  0  0  0  0  0  0  0  0
  -27.2404  -25.3849   16.2595 C   0  0  0  0  0  0  0  0  0  0  0  0
  -22.4879  -30.1071   21.5304 C   0  0  0  0  0  0  0  0  0  0  0  0
  -24.5257  -32.5549   22.1453 C   0  0  0  0  0  0  0  0  0  0  0  0
  -27.6518  -33.8791   21.7977 C   0  0  0  0  0  0  0  0  0  0  0  0
  -31.8041  -18.3078   20.8790 C   0  0  0  0  0  0  0  0  0  0  0  0
  -17.7764  -30.5640   23.4412 C   0  0  0  0  0  0  0  0  0  0  0  0
  -24.4691  -28.8823   22.4951 C   0  0  0  0  0  0  0  0  0  0  0  0
  -25.2874  -30.8520   20.4467 C   0  0  0  0  0  0  0  0  0  0  0  0
  -18.8327  -31.5238   22.8996 C   0  0  0  0  0  0  0  0  0  0  0  0
  -33.0220  -15.2379   22.2093 C   0  0  0  0  0  0  0  0  0  0  0  0
  -19.3680  -31.0279   21.5601 C   0  0  0  0  0  0  0  0  0  0  0  0
  -32.0445  -14.1937   21.6650 C   0  0  0  0  0  0  0  0  0  0  0  0
  -32.3172  -16.5479   22.5568 C   0  0  0  0  0  0  0  0  0  0  0  0
  -30.5259  -16.0764   20.9325 C   0  0  0  0  0  0  0  0  0  0  0  0
  -20.0466  -29.6608   21.7092 C   0  0  1  0  0  0  0  0  0  0  0  0
  -23.7520  -30.2193   22.3348 C   0  0  1  0  0  0  0  0  0  0  0  0
  -31.2001  -14.7617   20.5074 C   0  0  2  0  0  0  0  0  0  0  0  0
  -26.5023  -24.4203   15.3683 C   0  0  0  0  0  0  0  0  0  0  0  0
  -29.3907  -25.5417   14.9153 C   0  0  0  0  0  0  0  0  0  0  0  0
  -29.0057  -35.9115   22.3755 C   0  0  0  0  0  0  0  0  0  0  0  0
  -23.1121  -34.1204   19.9405 C   0  0  0  0  0  0  0  0  0  0  0  0
  -25.0546  -35.6997   19.9125 C   0  0  0  0  0  0  0  0  0  0  0  0
  -23.6734  -35.4606   21.9760 C   0  0  0  0  0  0  0  0  0  0  0  0
  -29.5734  -32.2889   23.3906 C   0  0  0  0  0  0  0  0  0  0  0  0
  -28.7549  -25.3139   16.2837 C   0  0  2  0  0  0  0  0  0  0  0  0
  -25.2372  -33.5898   21.3076 C   0  0  1  0  0  0  0  0  0  0  0  0
  -28.5956  -34.5113   22.8046 C   0  0  2  0  0  0  0  0  0  0  0  0
  -24.2733  -34.6898   20.7799 C   0  0  0  0  0  0  0  0  0  0  0  0
  -28.9566  -13.7379   20.5148 N   0  0  0  0  0  0  0  0  0  0  0  0
  -30.1955  -13.7472   19.9939 N   0  0  0  0  0  0  0  0  0  0  0  0
  -24.5844  -31.2325   21.6830 N   0  0  0  0  0  0  0  0  0  0  0  0
  -31.5405  -17.0281   21.4117 N   0  0  0  0  0  0  0  0  0  0  0  0
  -31.5834  -12.6744   18.4024 N   0  0  0  0  0  0  0  0  0  0  0  0
  -27.6633  -10.4640   18.0243 N   0  0  0  0  0  0  0  0  0  0  0  0
  -31.0258  -18.6428   19.7716 N   0  0  0  0  0  0  0  0  0  0  0  0
  -29.1570  -24.0428   16.8363 N   0  0  0  0  0  0  0  0  0  0  0  0
  -21.3669  -29.8118   22.2824 N   0  0  0  0  0  0  0  0  0  0  0  0
  -26.3311  -34.0976   22.1284 N   0  0  0  0  0  0  0  0  0  0  0  0
  -29.8271  -33.6848   22.9502 N   0  3  0  0  0  0  0  0  0  0  0  0
  -29.1729  -24.7062   19.0584 O   0  0  0  0  0  0  0  0  0  0  0  0
  -29.8152  -10.5859   17.2412 O   0  0  0  0  0  0  0  0  0  0  0  0
  -22.5264  -30.2775   20.3175 O   0  0  0  0  0  0  0  0  0  0  0  0
  -23.9455  -32.9058   23.1758 O   0  0  0  0  0  0  0  0  0  0  0  0
  -28.0466  -33.2571   20.8140 O   0  0  0  0  0  0  0  0  0  0  0  0
  -32.6763  -19.0407   21.3524 O   0  0  0  0  0  0  0  0  0  0  0  0
  -23.0224  -11.4675   20.9381 O   0  0  0  0  0  0  0  0  0  0  0  0
  -27.2178  -27.1891   17.8400 O   0  0  0  0  0  0  0  0  0  1  0  0
  -21.7205   -6.1355   21.4662 F   0  0  0  0  0  0  0  0  0  0  0  0
  -28.6576  -21.5171   16.7460 F   0  0  0  0  0  0  0  0  0  0  0  0
  -21.9407  -10.4979   23.2902 F   0  0  0  0  0  0  0  0  0  0  0  0
  1  2  1  0  0  0  0
  1  6  2  0  0  0  0
  2  7  2  0  0  0  0
  3 10  2  0  0  0  0
  3 18  1  0  0  0  0
  4 11  1  0  0  0  0
  4 18  2  0  0  0  0
  5  9  2  0  0  0  0
  5 19  1  0  0  0  0
  6 21  1  0  0  0  0
  7 23  1  0  0  0  0
  8 12  2  0  0  0  0
  8 22  1  0  0  0  0
  9 25  1  0  0  0  0
 10 26  1  0  0  0  0
 11 26  2  0  0  0  0
 12 27  1  0  0  0  0
 13 14  2  0  0  0  0
 13 28  1  0  0  0  0
 14 29  1  0  0  0  0
 15 24  1  0  0  0  0
 15 27  2  0  0  0  0
 16 25  2  0  0  0  0
 16 30  1  0  0  0  0
 17 29  2  0  0  0  0
 17 31  1  0  0  0  0
 18 32  1  0  0  0  0
 19 30  2  0  0  0  0
 19 35  1  0  0  0  0
 20 32  1  0  0  0  0
 20 33  2  0  0  0  0
 20 36  1  0  0  0  0
 21 23  2  0  0  0  0
 21 42  1  0  0  0  0
 22 24  2  0  0  0  0
 22 43  1  0  0  0  0
 23 51  1  0  0  0  0
 24 44  1  0  0  0  0
 25 71  1  0  0  0  0
 26 82  1  0  0  0  0
 27 83  1  0  0  0  0
 28 31  2  0  0  0  0
 28 82  1  0  0  0  0
 29 84  1  0  0  0  0
 30 85  1  0  0  0  0
 31 86  1  0  0  0  0
 32 65  2  0  0  0  0
 33 66  1  0  0  0  0
 33 69  1  0  0  0  0
 34 37  2  0  0  0  0
 34 83  1  0  0  0  0
 35 72  1  0  0  0  0
 35 76  2  0  0  0  0
 36 70  1  0  0  0  0
 36 77  2  0  0  0  0
 37 54  1  0  0  0  0
 37 61  1  0  0  0  0
 38 52  1  0  0  0  0
 38 73  1  0  0  0  0
 38 78  2  0  0  0  0
 39 62  1  0  0  0  0
 39 67  1  0  0  0  0
 39 79  2  0  0  0  0
 40 63  1  0  0  0  0
 40 74  1  0  0  0  0
 40 80  2  0  0  0  0
 41 68  1  0  0  0  0
 41 71  1  0  0  0  0
 41 81  2  0  0  0  0
 42 45  1  0  0  0  0
 43 52  1  0  0  0  0
 44 67  1  0  0  0  0
 45 47  1  0  0  0  0
 46 48  1  0  0  0  0
 46 49  1  0  0  0  0
 47 51  1  0  0  0  0
 48 53  1  0  0  0  0
 49 68  1  0  0  0  0
 50 53  1  0  0  0  0
 50 68  1  0  0  0  0
 51 73  1  0  0  0  0
 52 67  1  0  0  0  0
 53 66  1  0  0  0  0
 55 61  1  0  0  0  0
 56 63  1  0  0  0  0
 57 64  1  0  0  0  0
 58 64  1  0  0  0  0
 59 64  1  0  0  0  0
 60 75  1  0  0  0  0
 61 72  1  0  0  0  0
 62 64  1  0  0  0  0
 62 74  1  0  0  0  0
 63 75  1  0  0  0  0
 65 66  1  0  0  0  0
M  CHG  1  75   1
M  ISO  4  34 101  41 100  71 100  83 101
M  END
> <Batch ID>
0077

> <Smiles>
CNC(C)C(=O)NC(C(=O)N1Cc2cc([101O:1][101CH:1]=C(C)C(C)NC(=O)c3ccc([100NH:0][100C:0](=O)N4CCCC(n5nc(-c6ccc(Oc7ccc(F)cc7F)cc6)c(C(N)=O)c5N)C4)cc3F)ccc2CC1C(=O)NC1CCCc2ccccc21)C(C)(C)C

> <Shape>
0.307

> <Color>
0.100

> <Negative vol penalty>
0.000

$$$$

  -OEChem-04042323533D

 88 96  0     1  0  0  0  0  0999 V2000
  -25.5449  -10.6603   20.4866 C   0  0  0  0  0  0  0  0  0  0  0  0
  -24.4855  -11.3551   19.9118 C   0  0  0  0  0  0  0  0  0  0  0  0
  -30.1480  -27.8527   20.5159 C   0  0  0  0  0  0  0  0  0  0  0  0
  -28.7617  -25.9622   21.1000 C   0  0  0  0  0  0  0  0  0  0  0  0
  -26.4011  -11.3081   21.3761 C   0  0  0  0  0  0  0  0  0  0  0  0
  -24.2811  -12.6980   20.2270 C   0  0  0  0  0  0  0  0  0  0  0  0
  -21.9118  -18.8118   17.3419 C   0  0  0  0  0  0  0  0  0  0  0  0
  -19.4669  -28.7703   23.5030 C   0  0  0  0  0  0  0  0  0  0  0  0
  -18.3347  -28.0357   23.8551 C   0  0  0  0  0  0  0  0  0  0  0  0
  -31.2789  -27.1539   20.9382 C   0  0  0  0  0  0  0  0  0  0  0  0
  -29.8927  -25.2633   21.5222 C   0  0  0  0  0  0  0  0  0  0  0  0
  -21.0030  -19.8393   17.5912 C   0  0  0  0  0  0  0  0  0  0  0  0
  -34.4894  -26.0006   22.1978 C   0  0  0  0  0  0  0  0  0  0  0  0
  -35.4166  -26.6807   22.9872 C   0  0  0  0  0  0  0  0  0  0  0  0
  -19.9446  -27.1890   21.7399 C   0  0  0  0  0  0  0  0  0  0  0  0
  -22.5930  -20.8764   19.0797 C   0  0  0  0  0  0  0  0  0  0  0  0
  -33.7131  -27.0658   24.6565 C   0  0  0  0  0  0  0  0  0  0  0  0
  -28.8894  -27.2568   20.5969 C   0  0  0  0  0  0  0  0  0  0  0  0
  -18.8124  -26.4544   22.0920 C   0  0  0  0  0  0  0  0  0  0  0  0
  -27.1608  -27.9896   18.8698 C   0  0  0  0  0  0  0  0  0  0  0  0
  -26.2128  -12.6622   21.6950 C   0  0  0  0  0  0  0  0  0  0  0  0
  -23.1660  -18.8032   17.9691 C   0  0  0  0  0  0  0  0  0  0  0  0
  -25.1348  -13.3642   21.1227 C   0  0  0  0  0  0  0  0  0  0  0  0
  -23.5169  -19.8490   18.8346 C   0  0  0  0  0  0  0  0  0  0  0  0
  -20.2719  -28.3470   22.4453 C   0  0  0  0  0  0  0  0  0  0  0  0
  -18.0074  -26.8777   23.1497 C   0  0  0  0  0  0  0  0  0  0  0  0
  -31.1513  -25.8592   21.4413 C   0  0  0  0  0  0  0  0  0  0  0  0
  -21.3424  -20.8702   18.4624 C   0  0  0  0  0  0  0  0  0  0  0  0
  -33.1739  -25.8531   22.6377 C   0  0  0  0  0  0  0  0  0  0  0  0
  -35.0285  -27.2133   24.2165 C   0  0  0  0  0  0  0  0  0  0  0  0
  -32.7858  -26.3857   23.8670 C   0  0  0  0  0  0  0  0  0  0  0  0
  -27.7207  -27.9784   20.1614 C   0  0  0  0  0  0  0  0  0  0  0  0
  -26.0716  -28.8197   18.9750 C   0  0  0  0  0  0  0  0  0  0  0  0
  -20.4952  -22.9772   17.9023 C   0  0  0  0  0  0  0  0  0  1  0  0
  -18.4907  -25.2264   21.3202 C   0  0  0  0  0  0  0  0  0  0  0  0
  -27.5872  -27.3104   17.6813 C   0  0  0  0  0  0  0  0  0  0  0  0
  -19.6831  -24.0399   18.0289 C   0  0  0  0  0  0  0  0  0  0  0  0
  -24.6520  -16.8466   19.9858 C   0  0  0  0  0  0  0  0  0  0  0  0
  -27.1527  -18.8481   19.4730 C   0  0  0  0  0  0  0  0  0  0  0  0
  -17.2506  -24.3031   18.4820 C   0  0  0  0  0  0  0  0  0  0  0  0
  -28.2401  -21.9489   18.5513 C   0  0  0  0  0  0  0  0  0  0  0  0
  -21.8875  -30.2649   22.6851 C   0  0  0  0  0  0  0  0  0  0  0  0
  -27.1361  -13.3069   22.6982 C   0  0  0  0  0  0  0  0  0  0  0  0
  -24.1454  -17.7017   17.6689 C   0  0  0  0  0  0  0  0  0  0  0  0
  -24.8585  -19.8969   19.5175 C   0  0  0  0  0  0  0  0  0  0  0  0
  -27.0740  -14.8321   22.6909 C   0  0  0  0  0  0  0  0  0  0  0  0
  -24.6951  -32.3811   22.1223 C   0  0  0  0  0  0  0  0  0  0  0  0
  -25.6246  -15.3073   22.6815 C   0  0  0  0  0  0  0  0  0  0  0  0
  -25.7079  -31.4640   21.4328 C   0  0  0  0  0  0  0  0  0  0  0  0
  -23.8947  -31.6397   23.1916 C   0  0  0  0  0  0  0  0  0  0  0  0
  -24.2548  -29.4890   22.0453 C   0  0  0  0  0  0  0  0  0  0  0  0
  -24.8951  -14.8284   21.4206 C   0  0  1  0  0  0  0  0  0  0  0  0
  -25.1968  -17.5233   18.7598 C   0  0  1  0  0  0  0  0  0  0  0  0
  -25.0399  -30.1749   20.9153 C   0  0  2  0  0  0  0  0  0  0  0  0
  -19.8174  -25.1968   17.0722 C   0  0  0  0  0  0  0  0  0  0  0  0
  -30.3376  -23.2967   18.2661 C   0  0  0  0  0  0  0  0  0  0  0  0
  -27.3563  -19.1674   22.5007 C   0  0  0  0  0  0  0  0  0  0  0  0
  -28.7808  -21.1910   22.1216 C   0  0  0  0  0  0  0  0  0  0  0  0
  -29.5529  -18.9572   21.3238 C   0  0  0  0  0  0  0  0  0  0  0  0
  -27.7283  -22.3497   15.6640 C   0  0  0  0  0  0  0  0  0  0  0  0
  -18.6262  -24.1149   19.1061 C   0  0  2  0  0  0  0  0  0  0  0  0
  -27.6568  -20.1163   20.1184 C   0  0  1  0  0  0  0  0  0  0  0  0
  -29.3244  -22.3900   17.5848 C   0  0  2  0  0  0  0  0  0  0  0  0
  -28.3106  -19.8564   21.5049 C   0  0  0  0  0  0  0  0  0  0  0  0
  -27.0432  -28.7410   21.0237 N   0  0  0  0  0  0  0  0  0  0  0  0
  -26.0465  -29.2392   20.2725 N   0  0  0  0  0  0  0  0  0  0  0  0
  -25.7792  -18.7938   19.1966 N   0  0  0  0  0  0  0  0  0  0  0  0
  -23.2874  -30.4321   22.6279 N   0  0  0  0  0  0  0  0  0  0  0  0
  -16.8568  -26.1478   23.5229 N   0  0  0  0  0  0  0  0  0  0  0  0
  -25.1426  -29.2245   18.0831 N   0  0  0  0  0  0  0  0  0  0  0  0
  -28.7264  -26.4968   17.7489 N   0  0  0  0  0  0  0  0  0  0  0  0
  -16.6016  -23.1104   18.2418 N   0  0  0  0  0  0  0  0  0  0  0  0
  -21.4218  -29.0939   22.0882 N   0  0  0  0  0  0  0  0  0  0  0  0
  -18.8874  -25.2211   19.9891 N   0  0  0  0  0  0  0  0  0  0  0  0
  -25.2637  -15.6437   20.2831 N   0  0  0  0  0  0  0  0  0  0  0  0
  -28.5460  -20.7434   19.1466 N   0  0  0  0  0  0  0  0  0  0  0  0
  -28.7264  -23.1312   16.4385 N   0  3  0  0  0  0  0  0  0  0  0  0
  -17.8888  -24.3101   21.8739 O   0  0  0  0  0  0  0  0  0  0  0  0
  -26.9855  -27.4345   16.5877 O   0  0  0  0  0  0  0  0  0  0  0  0
  -23.7451  -17.3773   20.6162 O   0  0  0  0  0  0  0  0  0  0  0  0
  -27.9495  -17.9420   19.2169 O   0  0  0  0  0  0  0  0  0  0  0  0
  -16.7818  -25.4000   18.1863 O   0  0  0  0  0  0  0  0  0  0  0  0
  -27.2250  -22.6096   18.7602 O   0  0  0  0  0  0  0  0  0  0  0  0
  -21.1533  -31.1122   23.1999 O   0  0  0  0  0  0  0  0  0  0  0  0
  -32.2547  -25.1769   21.8532 O   0  0  0  0  0  0  0  0  0  0  0  0
  -20.4569  -21.8740   18.7080 O   0  0  0  0  0  0  0  0  0  1  0  0
  -35.9195  -27.8651   24.9752 F   0  0  0  0  0  0  0  0  0  0  0  0
  -31.5237  -26.2462   24.2955 F   0  0  0  0  0  0  0  0  0  0  0  0
  1  2  1  0  0  0  0
  1  5  2  0  0  0  0
  2  6  2  0  0  0  0
  3 10  2  0  0  0  0
  3 18  1  0  0  0  0
  4 11  1  0  0  0  0
  4 18  2  0  0  0  0
  5 21  1  0  0  0  0
  6 23  1  0  0  0  0
  7 12  2  0  0  0  0
  7 22  1  0  0  0  0
  8  9  2  0  0  0  0
  8 25  1  0  0  0  0
  9 26  1  0  0  0  0
 10 27  1  0  0  0  0
 11 27  2  0  0  0  0
 12 28  1  0  0  0  0
 13 14  2  0  0  0  0
 13 29  1  0  0  0  0
 14 30  1  0  0  0  0
 15 19  1  0  0  0  0
 15 25  2  0  0  0  0
 16 24  1  0  0  0  0
 16 28  2  0  0  0  0
 17 30  2  0  0  0  0
 17 31  1  0  0  0  0
 18 32  1  0  0  0  0
 19 26  2  0  0  0  0
 19 35  1  0  0  0  0
 20 32  1  0  0  0  0
 20 33  2  0  0  0  0
 20 36  1  0  0  0  0
 21 23  2  0  0  0  0
 21 43  1  0  0  0  0
 22 24  2  0  0  0  0
 22 44  1  0  0  0  0
 23 52  1  0  0  0  0
 24 45  1  0  0  0  0
 25 73  1  0  0  0  0
 26 69  1  0  0  0  0
 27 85  1  0  0  0  0
 28 86  1  0  0  0  0
 29 31  2  0  0  0  0
 29 85  1  0  0  0  0
 30 87  1  0  0  0  0
 31 88  1  0  0  0  0
 32 65  2  0  0  0  0
 33 66  1  0  0  0  0
 33 70  1  0  0  0  0
 34 37  2  0  0  0  0
 34 86  1  0  0  0  0
 35 74  1  0  0  0  0
 35 78  2  0  0  0  0
 36 71  1  0  0  0  0
 36 79  2  0  0  0  0
 37 55  1  0  0  0  0
 37 61  1  0  0  0  0
 38 53  1  0  0  0  0
 38 75  1  0  0  0  0
 38 80  2  0  0  0  0
 39 62  1  0  0  0  0
 39 67  1  0  0  0  0
 39 81  2  0  0  0  0
 40 61  1  0  0  0  0
 40 72  1  0  0  0  0
 40 82  2  0  0  0  0
 41 63  1  0  0  0  0
 41 76  1  0  0  0  0
 41 83  2  0  0  0  0
 42 68  1  0  0  0  0
 42 73  1  0  0  0  0
 42 84  2  0  0  0  0
 43 46  1  0  0  0  0
 44 53  1  0  0  0  0
 45 67  1  0  0  0  0
 46 48  1  0  0  0  0
 47 49  1  0  0  0  0
 47 50  1  0  0  0  0
 48 52  1  0  0  0  0
 49 54  1  0  0  0  0
 50 68  1  0  0  0  0
 51 54  1  0  0  0  0
 51 68  1  0  0  0  0
 52 75  1  0  0  0  0
 53 67  1  0  0  0  0
 54 66  1  0  0  0  0
 56 63  1  0  0  0  0
 57 64  1  0  0  0  0
 58 64  1  0  0  0  0
 59 64  1  0  0  0  0
 60 77  1  0  0  0  0
 61 74  1  0  0  0  0
 62 64  1  0  0  0  0
 62 76  1  0  0  0  0
 63 77  1  0  0  0  0
 65 66  1  0  0  0  0
M  CHG  1  77   1
M  ISO  4  34 101  42 100  73 100  86 101
M  END
> <Batch ID>
0077

> <Smiles>
CNC(C)C(=O)NC(C(=O)N1Cc2cc([101O:1][101CH:1]=C(C)C(NC(=O)c3cc([100NH:0][100C:0](=O)N4CCCC(n5nc(-c6ccc(Oc7ccc(F)cc7F)cc6)c(C(N)=O)c5N)C4)ccc3N)C(N)=O)ccc2CC1C(=O)NC1CCCc2ccccc21)C(C)(C)C

> <Shape>
0.224

> <Color>
0.068

> <Negative vol penalty>
0.000

$$$$

  -OEChem-04042323533D

 89 98  0     1  0  0  0  0  0999 V2000
  -16.6568  -24.8205   22.3110 C   0  0  0  0  0  0  0  0  0  0  0  0
  -17.8510  -24.2616   21.8673 C   0  0  0  0  0  0  0  0  0  0  0  0
  -25.8540  -16.3902   14.8807 C   0  0  0  0  0  0  0  0  0  0  0  0
  -23.7798   -9.5708   20.0355 C   0  0  0  0  0  0  0  0  0  0  0  0
  -23.0828  -10.3375   22.2180 C   0  0  0  0  0  0  0  0  0  0  0  0
  -27.1252  -15.8224   14.9656 C   0  0  0  0  0  0  0  0  0  0  0  0
  -16.6361  -26.1307   22.7873 C   0  0  0  0  0  0  0  0  0  0  0  0
  -19.0252  -25.0131   21.8987 C   0  0  0  0  0  0  0  0  0  0  0  0
  -22.9599  -22.3945   23.7169 C   0  0  0  0  0  0  0  0  0  0  0  0
  -25.3990  -17.2362   15.8922 C   0  0  0  0  0  0  0  0  0  0  0  0
  -23.0026   -8.4230   20.1904 C   0  0  0  0  0  0  0  0  0  0  0  0
  -22.3055   -9.1897   22.3730 C   0  0  0  0  0  0  0  0  0  0  0  0
  -23.5729  -21.4860   22.8553 C   0  0  0  0  0  0  0  0  0  0  0  0
  -19.3014   -8.0568   21.3181 C   0  0  0  0  0  0  0  0  0  0  0  0
  -18.0082   -8.2141   21.8165 C   0  0  0  0  0  0  0  0  0  0  0  0
  -27.4865  -16.9465   17.0735 C   0  0  0  0  0  0  0  0  0  0  0  0
  -25.3189  -23.0912   22.4148 C   0  0  0  0  0  0  0  0  0  0  0  0
  -18.5578   -6.7926   23.6913 C   0  0  0  0  0  0  0  0  0  0  0  0
  -23.8200  -10.5280   21.0494 C   0  0  0  0  0  0  0  0  0  0  0  0
  -27.9415  -16.1006   16.0620 C   0  0  0  0  0  0  0  0  0  0  0  0
  -24.2237  -12.9423   20.3312 C   0  0  0  0  0  0  0  0  0  0  0  0
  -17.8124  -26.8954   22.8335 C   0  0  0  0  0  0  0  0  0  0  0  0
  -23.5169  -23.6644   23.9259 C   0  0  0  0  0  0  0  0  0  0  0  0
  -19.0200  -26.3353   22.3748 C   0  0  0  0  0  0  0  0  0  0  0  0
  -24.7124  -24.0130   23.2816 C   0  0  0  0  0  0  0  0  0  0  0  0
  -26.2152  -17.5143   16.9885 C   0  0  0  0  0  0  0  0  0  0  0  0
  -22.2654   -8.2324   21.3591 C   0  0  0  0  0  0  0  0  0  0  0  0
  -24.7511  -21.8353   22.2018 C   0  0  0  0  0  0  0  0  0  0  0  0
  -20.2228   -7.2673   22.0062 C   0  0  0  0  0  0  0  0  0  0  0  0
  -17.6364   -7.5821   23.0031 C   0  0  0  0  0  0  0  0  0  0  0  0
  -19.8510   -6.6353   23.1928 C   0  0  0  0  0  0  0  0  0  0  0  0
  -24.6232  -11.7136   20.8902 C   0  0  0  0  0  0  0  0  0  0  0  0
  -25.3422  -13.7355   20.4107 C   0  0  0  0  0  0  0  0  0  0  0  0
  -25.1353  -19.6400   19.3777 C   0  0  0  0  0  0  0  0  0  0  0  0
  -24.6039  -19.0245   18.1610 C   0  0  0  0  0  0  0  0  0  0  0  0
  -24.6435  -20.5130   20.2754 C   0  0  0  0  0  0  0  0  0  1  0  0
  -30.7099  -17.4583   16.3953 C   0  0  0  0  0  0  0  0  0  0  0  0
  -29.2666  -15.5080   16.1492 C   0  0  0  0  0  0  0  0  0  0  0  0
  -22.9550  -13.3319   19.7886 C   0  0  0  0  0  0  0  0  0  0  0  0
  -30.3711  -16.2465   16.8673 C   0  0  0  0  0  0  0  0  0  0  0  0
  -22.5531  -26.6491   23.4101 C   0  0  0  0  0  0  0  0  0  0  0  0
  -25.2946  -27.3917   24.9768 C   0  0  0  0  0  0  0  0  0  0  0  0
  -28.4388  -26.4554   25.9172 C   0  0  0  0  0  0  0  0  0  0  0  0
  -30.8505  -14.3592   19.6934 C   0  0  0  0  0  0  0  0  0  0  0  0
  -17.7317  -28.3232   23.3125 C   0  0  0  0  0  0  0  0  0  0  0  0
  -22.8577  -24.6231   24.8792 C   0  0  0  0  0  0  0  0  0  0  0  0
  -25.3618  -25.3563   23.4876 C   0  0  0  0  0  0  0  0  0  0  0  0
  -26.4251  -18.8810   19.1655 C   0  0  0  0  0  0  0  0  0  0  0  0
  -19.0898  -28.9259   23.6625 C   0  0  0  0  0  0  0  0  0  0  0  0
  -29.7054  -13.0584   22.8612 C   0  0  0  0  0  0  0  0  0  0  0  0
  -20.1072  -28.6214   22.5675 C   0  0  0  0  0  0  0  0  0  0  0  0
  -28.2591  -12.6593   22.5703 C   0  0  0  0  0  0  0  0  0  0  0  0
  -30.6032  -12.8313   21.6489 C   0  0  0  0  0  0  0  0  0  0  0  0
  -28.6766  -13.1206   20.1138 C   0  0  0  0  0  0  0  0  0  0  0  0
  -20.3192  -27.1103   22.4162 C   0  0  1  0  0  0  0  0  0  0  0  0
  -23.2362  -26.0781   24.6204 C   0  0  1  0  0  0  0  0  0  0  0  0
  -27.7354  -13.3639   21.3063 C   0  0  1  0  0  0  0  0  0  0  0  0
  -31.7708  -18.3464   16.9650 C   0  0  0  0  0  0  0  0  0  0  0  0
  -30.4536  -27.2889   27.1596 C   0  0  0  0  0  0  0  0  0  0  0  0
  -26.0290  -29.1554   22.5978 C   0  0  0  0  0  0  0  0  0  0  0  0
  -28.3868  -29.1887   23.4392 C   0  0  0  0  0  0  0  0  0  0  0  0
  -26.5533  -30.1473   24.8329 C   0  0  0  0  0  0  0  0  0  0  0  0
  -28.2582  -24.2728   27.9078 C   0  0  0  0  0  0  0  0  0  0  0  0
  -26.7265  -27.6390   24.5675 C   0  0  1  0  0  0  0  0  0  0  0  0
  -29.1486  -26.5141   27.2578 C   0  0  2  0  0  0  0  0  0  0  0  0
  -26.9109  -29.0079   23.8538 C   0  0  0  0  0  0  0  0  0  0  0  0
  -25.8961  -11.7208   21.2947 N   0  0  0  0  0  0  0  0  0  0  0  0
  -30.9587  -15.6754   17.9539 N   0  0  0  0  0  0  0  0  0  0  0  0
  -30.2127  -14.9099   18.5958 N   0  0  0  0  0  0  0  0  0  0  0  0
  -26.3062  -12.9637   20.9896 N   0  0  0  0  0  0  0  0  0  0  0  0
  -25.7664  -18.3488   17.9858 N   0  0  0  0  0  0  0  0  0  0  0  0
  -24.6757  -26.2614   24.4244 N   0  0  0  0  0  0  0  0  0  0  0  0
  -30.0573  -13.4847   20.4585 N   0  0  0  0  0  0  0  0  0  0  0  0
  -25.5853  -15.0110   20.0411 N   0  0  0  0  0  0  0  0  0  0  0  0
  -21.9136  -12.3939   19.7847 N   0  0  0  0  0  0  0  0  0  0  0  0
  -21.1732  -26.6114   23.4727 N   0  0  0  0  0  0  0  0  0  0  0  0
  -27.5293  -27.4821   25.7755 N   0  0  0  0  0  0  0  0  0  0  0  0
  -29.4542  -25.1384   27.7427 N   0  3  0  0  0  0  0  0  0  0  0  0
  -23.5595  -19.0952   17.5473 O   0  0  0  0  0  0  0  0  0  0  0  0
  -29.4927  -14.4056   15.6271 O   0  0  0  0  0  0  0  0  0  0  0  0
  -22.7557  -14.4725   19.3062 O   0  0  0  0  0  0  0  0  0  0  0  0
  -23.2279  -27.0925   22.4883 O   0  0  0  0  0  0  0  0  0  0  0  0
  -24.7477  -28.1687   25.7635 O   0  0  0  0  0  0  0  0  0  0  0  0
  -28.6708  -25.5880   25.0780 O   0  0  0  0  0  0  0  0  0  0  0  0
  -32.0217  -14.6018   19.9977 O   0  0  0  0  0  0  0  0  0  0  0  0
  -21.5066   -7.1127   21.5105 O   0  0  0  0  0  0  0  0  0  0  0  0
  -25.3511  -20.9506   21.3597 O   0  0  0  0  0  0  0  0  0  1  0  0
  -16.3949   -7.7345   23.4824 F   0  0  0  0  0  0  0  0  0  0  0  0
  -20.7322   -5.8765   23.8589 F   0  0  0  0  0  0  0  0  0  0  0  0
  1  2  1  0  0  0  0
  1  7  2  0  0  0  0
  2  8  2  0  0  0  0
  3  6  2  0  0  0  0
  3 10  1  0  0  0  0
  4 11  2  0  0  0  0
  4 19  1  0  0  0  0
  5 12  1  0  0  0  0
  5 19  2  0  0  0  0
  6 20  1  0  0  0  0
  7 22  1  0  0  0  0
  8 24  1  0  0  0  0
  9 13  2  0  0  0  0
  9 23  1  0  0  0  0
 10 26  2  0  0  0  0
 11 27  1  0  0  0  0
 12 27  2  0  0  0  0
 13 28  1  0  0  0  0
 14 15  2  0  0  0  0
 14 29  1  0  0  0  0
 15 30  1  0  0  0  0
 16 20  2  0  0  0  0
 16 26  1  0  0  0  0
 17 25  1  0  0  0  0
 17 28  2  0  0  0  0
 18 30  2  0  0  0  0
 18 31  1  0  0  0  0
 19 32  1  0  0  0  0
 20 38  1  0  0  0  0
 21 32  1  0  0  0  0
 21 33  2  0  0  0  0
 21 39  1  0  0  0  0
 22 24  2  0  0  0  0
 22 45  1  0  0  0  0
 23 25  2  0  0  0  0
 23 46  1  0  0  0  0
 24 55  1  0  0  0  0
 25 47  1  0  0  0  0
 26 71  1  0  0  0  0
 27 86  1  0  0  0  0
 28 87  1  0  0  0  0
 29 31  2  0  0  0  0
 29 86  1  0  0  0  0
 30 88  1  0  0  0  0
 31 89  1  0  0  0  0
 32 67  2  0  0  0  0
 33 70  1  0  0  0  0
 33 74  1  0  0  0  0
 34 35  1  0  0  0  0
 34 36  2  0  0  0  0
 34 48  1  0  0  0  0
 35 71  1  0  0  0  0
 35 79  2  0  0  0  0
 36 87  1  0  0  0  0
 37 40  2  0  0  0  0
 37 58  1  0  0  0  0
 38 40  1  0  0  0  0
 38 80  2  0  0  0  0
 39 75  1  0  0  0  0
 39 81  2  0  0  0  0
 40 68  1  0  0  0  0
 41 56  1  0  0  0  0
 41 76  1  0  0  0  0
 41 82  2  0  0  0  0
 42 64  1  0  0  0  0
 42 72  1  0  0  0  0
 42 83  2  0  0  0  0
 43 65  1  0  0  0  0
 43 77  1  0  0  0  0
 43 84  2  0  0  0  0
 44 69  1  0  0  0  0
 44 73  1  0  0  0  0
 44 85  2  0  0  0  0
 45 49  1  0  0  0  0
 46 56  1  0  0  0  0
 47 72  1  0  0  0  0
 48 71  1  0  0  0  0
 49 51  1  0  0  0  0
 50 52  1  0  0  0  0
 50 53  1  0  0  0  0
 51 55  1  0  0  0  0
 52 57  1  0  0  0  0
 53 73  1  0  0  0  0
 54 57  1  0  0  0  0
 54 73  1  0  0  0  0
 55 76  1  0  0  0  0
 56 72  1  0  0  0  0
 57 70  1  0  0  0  0
 59 65  1  0  0  0  0
 60 66  1  0  0  0  0
 61 66  1  0  0  0  0
 62 66  1  0  0  0  0
 63 78  1  0  0  0  0
 64 66  1  0  0  0  0
 64 77  1  0  0  0  0
 65 78  1  0  0  0  0
 67 70  1  0  0  0  0
 68 69  2  0  0  0  0
M  CHG  1  78   1
M  ISO  4  36 101  44 100  69 100  87 101
M  END
> <Batch ID>
0077

> <Smiles>
C=CC(=N[100NH:0][100C:0](=O)N1CCCC(n2nc(-c3ccc(Oc4ccc(F)cc4F)cc3)c(C(N)=O)c2N)C1)C(=O)c1cccc(N2CC(=[101CH:1][101O:1]c3ccc4c(c3)CN(C(=O)C(NC(=O)C(C)NC)C(C)(C)C)C(C(=O)NC3CCCc5ccccc53)C4)C2=O)c1

> <Shape>
0.176

> <Color>
0.139

> <Negative vol penalty>
0.000

$$$$

  -OEChem-04042323533D

 86 95  0     1  0  0  0  0  0999 V2000
  -29.8995  -31.1827   14.3757 C   0  0  0  0  0  0  0  0  0  0  0  0
  -30.0095  -30.2871   15.4345 C   0  0  0  0  0  0  0  0  0  0  0  0
  -23.4588  -16.1292   22.2093 C   0  0  0  0  0  0  0  0  0  0  0  0
  -22.9435  -15.9544   19.8554 C   0  0  0  0  0  0  0  0  0  0  0  0
  -29.0826  -32.3061   14.4964 C   0  0  0  0  0  0  0  0  0  0  0  0
  -29.3035  -30.5150   16.6152 C   0  0  0  0  0  0  0  0  0  0  0  0
  -27.0507  -26.3327   18.3697 C   0  0  0  0  0  0  0  0  0  0  0  0
  -29.4291  -17.9843   23.4362 C   0  0  0  0  0  0  0  0  0  0  0  0
  -30.6444  -18.0978   21.3512 C   0  0  0  0  0  0  0  0  0  0  0  0
  -29.7233  -16.6243   23.5337 C   0  0  0  0  0  0  0  0  0  0  0  0
  -30.9387  -16.7378   21.4487 C   0  0  0  0  0  0  0  0  0  0  0  0
  -22.6040  -17.2264   22.3150 C   0  0  0  0  0  0  0  0  0  0  0  0
  -22.0887  -17.0516   19.9610 C   0  0  0  0  0  0  0  0  0  0  0  0
  -27.8540  -25.4089   19.0369 C   0  0  0  0  0  0  0  0  0  0  0  0
  -20.8329  -20.2969   23.1265 C   0  0  0  0  0  0  0  0  0  0  0  0
  -21.2842  -21.4060   23.8418 C   0  0  0  0  0  0  0  0  0  0  0  0
  -27.0761  -26.2692   21.1521 C   0  0  0  0  0  0  0  0  0  0  0  0
  -23.1383  -21.6392   22.3105 C   0  0  0  0  0  0  0  0  0  0  0  0
  -23.6286  -15.4933   20.9795 C   0  0  0  0  0  0  0  0  0  0  0  0
  -24.1796  -13.0033   21.0429 C   0  0  0  0  0  0  0  0  0  0  0  0
  -28.3586  -32.5428   15.6756 C   0  0  0  0  0  0  0  0  0  0  0  0
  -26.2610  -27.2404   19.0900 C   0  0  0  0  0  0  0  0  0  0  0  0
  -28.4771  -31.6433   16.7523 C   0  0  0  0  0  0  0  0  0  0  0  0
  -26.2617  -27.2017   20.4917 C   0  0  0  0  0  0  0  0  0  0  0  0
  -29.8896  -18.7210   22.3450 C   0  0  0  0  0  0  0  0  0  0  0  0
  -30.4781  -16.0011   22.5400 C   0  0  0  0  0  0  0  0  0  0  0  0
  -21.9189  -17.6875   21.1909 C   0  0  0  0  0  0  0  0  0  0  0  0
  -27.8690  -25.3790   20.4283 C   0  0  0  0  0  0  0  0  0  0  0  0
  -21.5343  -19.8588   22.0032 C   0  0  0  0  0  0  0  0  0  0  0  0
  -22.4368  -22.0772   23.4338 C   0  0  0  0  0  0  0  0  0  0  0  0
  -22.6870  -20.5300   21.5952 C   0  0  0  0  0  0  0  0  0  0  0  0
  -24.5120  -14.3602   20.8696 C   0  0  0  0  0  0  0  0  0  0  0  0
  -25.3592  -12.3315   20.8337 C   0  0  0  0  0  0  0  0  0  0  0  0
  -29.1277  -22.2581   22.7599 C   0  0  0  0  0  0  0  0  0  0  0  0
  -29.1380  -22.1703   21.4315 C   0  0  0  0  0  0  0  0  0  0  0  0
  -29.4095  -20.9277   23.3175 C   0  0  0  0  0  0  0  0  0  0  0  0
  -29.4472  -20.7746   21.0647 C   0  0  0  0  0  0  0  0  0  0  0  0
  -22.9175  -12.4037   21.3641 C   0  0  0  0  0  0  0  0  0  0  0  0
  -26.1416  -30.4074   19.3350 C   0  0  0  0  0  0  0  0  0  0  0  0
  -23.5079  -29.7801   21.1218 C   0  0  0  0  0  0  0  0  0  0  0  0
  -21.7929  -27.5716   23.0783 C   0  0  0  0  0  0  0  0  0  0  0  0
  -30.9574  -13.7979   21.4876 C   0  0  0  0  0  0  0  0  0  0  0  0
  -27.5253  -33.7958   15.7767 C   0  0  0  0  0  0  0  0  0  0  0  0
  -25.3796  -28.2129   18.3553 C   0  0  0  0  0  0  0  0  0  0  0  0
  -25.4167  -28.1413   21.3113 C   0  0  0  0  0  0  0  0  0  0  0  0
  -26.5185  -33.7668   16.9238 C   0  0  0  0  0  0  0  0  0  0  0  0
  -29.4905  -12.6535   18.4574 C   0  0  0  0  0  0  0  0  0  0  0  0
  -27.1834  -33.2745   18.2053 C   0  0  0  0  0  0  0  0  0  0  0  0
  -28.0025  -12.8421   18.7505 C   0  0  0  0  0  0  0  0  0  0  0  0
  -30.3340  -13.7990   19.0181 C   0  0  0  0  0  0  0  0  0  0  0  0
  -28.6273  -14.2446   20.7539 C   0  0  0  0  0  0  0  0  0  0  0  0
  -27.7077  -31.8430   18.0400 C   0  0  1  0  0  0  0  0  0  0  0  0
  -25.0072  -29.4323   19.1929 C   0  0  1  0  0  0  0  0  0  0  0  0
  -27.7610  -13.0789   20.2518 C   0  0  1  0  0  0  0  0  0  0  0  0
  -19.6882  -27.3577   24.4281 C   0  0  0  0  0  0  0  0  0  0  0  0
  -24.7521  -31.4827   23.3270 C   0  0  0  0  0  0  0  0  0  0  0  0
  -23.1173  -30.4736   24.9325 C   0  0  0  0  0  0  0  0  0  0  0  0
  -22.2960  -31.8262   23.0041 C   0  0  0  0  0  0  0  0  0  0  0  0
  -31.1495  -14.0486   23.9524 C   0  0  0  0  0  0  0  0  0  0  0  0
  -20.8089  -25.3375   21.4051 C   0  0  0  0  0  0  0  0  0  0  0  0
  -28.9017  -23.2367   20.4250 C   0  0  0  0  0  0  0  0  0  1  0  0
  -23.2461  -29.5209   22.5858 C   0  0  1  0  0  0  0  0  0  0  0  0
  -20.3381  -27.1381   23.0708 C   0  0  2  0  0  0  0  0  0  0  0  0
  -23.3704  -30.8093   23.4472 C   0  0  0  0  0  0  0  0  0  0  0  0
  -25.8017  -14.5415   20.5733 N   0  0  0  0  0  0  0  0  0  0  0  0
  -26.2902  -13.2896   20.5588 N   0  0  0  0  0  0  0  0  0  0  0  0
  -29.5961  -20.0765   22.2474 N   0  0  0  0  0  0  0  0  0  0  0  0
  -24.5766  -29.0779   20.5469 N   0  0  0  0  0  0  0  0  0  0  0  0
  -30.0399  -14.0140   20.4420 N   0  0  0  0  0  0  0  0  0  0  0  0
  -25.6805  -11.0206   20.8600 N   0  0  0  0  0  0  0  0  0  0  0  0
  -21.8075  -13.2399   21.5458 N   0  0  0  0  0  0  0  0  0  0  0  0
  -26.6203  -30.8925   18.1330 N   0  0  0  0  0  0  0  0  0  0  0  0
  -21.9391  -28.8770   22.6590 N   0  0  0  0  0  0  0  0  0  0  0  0
  -30.7829  -14.5932   22.6406 N   0  0  0  0  0  0  0  0  0  0  0  0
  -20.2301  -25.6922   22.7265 N   0  3  0  0  0  0  0  0  0  0  0  0
  -29.4565  -20.6905   24.5137 O   0  0  0  0  0  0  0  0  0  0  0  0
  -29.5387  -20.3697   19.9168 O   0  0  0  0  0  0  0  0  0  0  0  0
  -22.7817  -11.1644   21.5026 O   0  0  0  0  0  0  0  0  0  0  0  0
  -26.5511  -30.6990   20.4525 O   0  0  0  0  0  0  0  0  0  0  0  0
  -22.7861  -30.5709   20.5092 O   0  0  0  0  0  0  0  0  0  0  0  0
  -22.7077  -26.8278   23.4253 O   0  0  0  0  0  0  0  0  0  0  0  0
  -31.8473  -12.9425   21.4079 O   0  0  0  0  0  0  0  0  0  0  0  0
  -21.0845  -18.7579   21.2937 O   0  0  0  0  0  0  0  0  0  0  0  0
  -28.6527  -24.4787   21.0820 O   0  0  0  0  0  0  0  0  0  1  0  0
  -22.8693  -23.1432   24.1199 F   0  0  0  0  0  0  0  0  0  0  0  0
  -23.3644  -20.1145   20.5161 F   0  0  0  0  0  0  0  0  0  0  0  0
  1  2  1  0  0  0  0
  1  5  2  0  0  0  0
  2  6  2  0  0  0  0
  3 12  2  0  0  0  0
  3 19  1  0  0  0  0
  4 13  1  0  0  0  0
  4 19  2  0  0  0  0
  5 21  1  0  0  0  0
  6 23  1  0  0  0  0
  7 14  2  0  0  0  0
  7 22  1  0  0  0  0
  8 10  2  0  0  0  0
  8 25  1  0  0  0  0
  9 11  1  0  0  0  0
  9 25  2  0  0  0  0
 10 26  1  0  0  0  0
 11 26  2  0  0  0  0
 12 27  1  0  0  0  0
 13 27  2  0  0  0  0
 14 28  1  0  0  0  0
 15 16  2  0  0  0  0
 15 29  1  0  0  0  0
 16 30  1  0  0  0  0
 17 24  1  0  0  0  0
 17 28  2  0  0  0  0
 18 30  2  0  0  0  0
 18 31  1  0  0  0  0
 19 32  1  0  0  0  0
 20 32  1  0  0  0  0
 20 33  2  0  0  0  0
 20 38  1  0  0  0  0
 21 23  2  0  0  0  0
 21 43  1  0  0  0  0
 22 24  2  0  0  0  0
 22 44  1  0  0  0  0
 23 52  1  0  0  0  0
 24 45  1  0  0  0  0
 25 67  1  0  0  0  0
 26 74  1  0  0  0  0
 27 83  1  0  0  0  0
 28 84  1  0  0  0  0
 29 31  2  0  0  0  0
 29 83  1  0  0  0  0
 30 85  1  0  0  0  0
 31 86  1  0  0  0  0
 32 65  2  0  0  0  0
 33 66  1  0  0  0  0
 33 70  1  0  0  0  0
 34 35  2  0  0  0  0
 34 36  1  0  0  0  0
 35 37  1  0  0  0  0
 35 61  1  0  0  0  0
 36 67  1  0  0  0  0
 36 76  2  0  0  0  0
 37 67  1  0  0  0  0
 37 77  2  0  0  0  0
 38 71  1  0  0  0  0
 38 78  2  0  0  0  0
 39 53  1  0  0  0  0
 39 72  1  0  0  0  0
 39 79  2  0  0  0  0
 40 62  1  0  0  0  0
 40 68  1  0  0  0  0
 40 80  2  0  0  0  0
 41 63  1  0  0  0  0
 41 73  1  0  0  0  0
 41 81  2  0  0  0  0
 42 69  1  0  0  0  0
 42 74  1  0  0  0  0
 42 82  2  0  0  0  0
 43 46  1  0  0  0  0
 44 53  1  0  0  0  0
 45 68  1  0  0  0  0
 46 48  1  0  0  0  0
 47 49  1  0  0  0  0
 47 50  1  0  0  0  0
 48 52  1  0  0  0  0
 49 54  1  0  0  0  0
 50 69  1  0  0  0  0
 51 54  1  0  0  0  0
 51 69  1  0  0  0  0
 52 72  1  0  0  0  0
 53 68  1  0  0  0  0
 54 66  1  0  0  0  0
 55 63  1  0  0  0  0
 56 64  1  0  0  0  0
 57 64  1  0  0  0  0
 58 64  1  0  0  0  0
 59 74  1  0  0  0  0
 60 75  1  0  0  0  0
 61 84  1  0  0  0  0
 62 64  1  0  0  0  0
 62 73  1  0  0  0  0
 63 75  1  0  0  0  0
 65 66  1  0  0  0  0
M  CHG  1  75   1
M  ISO  4  42 100  61 101  74 100  84 101
M  END
> <Batch ID>
0077

> <Smiles>
CNC(C)C(=O)NC(C(=O)N1Cc2cc([101O:1][101CH2:1]C3=CC(=O)N(c4ccc([100N:0](C)[100C:0](=O)N5CCCC(n6nc(-c7ccc(Oc8ccc(F)cc8F)cc7)c(C(N)=O)c6N)C5)cc4)C3=O)ccc2CC1C(=O)NC1CCCc2ccccc21)C(C)(C)C

> <Shape>
0.258

> <Color>
0.100

> <Negative vol penalty>
0.000

$$$$

  -OEChem-04042323533D

 85 94  0     1  0  0  0  0  0999 V2000
  -20.2266  -30.3065   12.8940 C   0  0  0  0  0  0  0  0  0  0  0  0
  -21.1279  -29.5018   13.5835 C   0  0  0  0  0  0  0  0  0  0  0  0
  -28.1444  -18.7569   21.6667 C   0  0  0  0  0  0  0  0  0  0  0  0
  -23.0555   -9.8806   19.9538 C   0  0  0  0  0  0  0  0  0  0  0  0
  -23.8683   -9.8711   22.2290 C   0  0  0  0  0  0  0  0  0  0  0  0
  -28.8617  -17.6424   22.1014 C   0  0  0  0  0  0  0  0  0  0  0  0
  -19.2695  -29.7257   12.0630 C   0  0  0  0  0  0  0  0  0  0  0  0
  -21.0719  -28.1156   13.4433 C   0  0  0  0  0  0  0  0  0  0  0  0
  -25.7956  -24.2180   13.4788 C   0  0  0  0  0  0  0  0  0  0  0  0
  -27.9830  -18.9935   20.3015 C   0  0  0  0  0  0  0  0  0  0  0  0
  -22.3174   -8.7258   20.2127 C   0  0  0  0  0  0  0  0  0  0  0  0
  -23.1301   -8.7163   22.4878 C   0  0  0  0  0  0  0  0  0  0  0  0
  -26.3329  -23.4044   14.4754 C   0  0  0  0  0  0  0  0  0  0  0  0
  -19.9166   -7.9143   23.1592 C   0  0  0  0  0  0  0  0  0  0  0  0
  -19.1870   -7.8660   24.3470 C   0  0  0  0  0  0  0  0  0  0  0  0
  -29.2564  -17.0011   19.8057 C   0  0  0  0  0  0  0  0  0  0  0  0
  -25.0395  -21.5447   13.6462 C   0  0  0  0  0  0  0  0  0  0  0  0
  -20.4448   -5.9232   25.0406 C   0  0  0  0  0  0  0  0  0  0  0  0
  -23.8310  -10.4533   20.9620 C   0  0  0  0  0  0  0  0  0  0  0  0
  -29.4177  -16.7645   21.1709 C   0  0  0  0  0  0  0  0  0  0  0  0
  -24.1705  -12.9793   20.8522 C   0  0  0  0  0  0  0  0  0  0  0  0
  -19.2080  -28.3322   11.9050 C   0  0  0  0  0  0  0  0  0  0  0  0
  -24.8664  -23.7029   12.5636 C   0  0  0  0  0  0  0  0  0  0  0  0
  -20.1122  -27.5154   12.6105 C   0  0  0  0  0  0  0  0  0  0  0  0
  -24.4938  -22.3531   12.6373 C   0  0  0  0  0  0  0  0  0  0  0  0
  -28.5391  -18.1156   19.3710 C   0  0  0  0  0  0  0  0  0  0  0  0
  -22.3547   -8.1436   21.4797 C   0  0  0  0  0  0  0  0  0  0  0  0
  -25.9527  -22.0683   14.5610 C   0  0  0  0  0  0  0  0  0  0  0  0
  -20.9103   -6.9670   22.9121 C   0  0  0  0  0  0  0  0  0  0  0  0
  -19.4511   -6.8705   25.2877 C   0  0  0  0  0  0  0  0  0  0  0  0
  -21.1744   -5.9715   23.8528 C   0  0  0  0  0  0  0  0  0  0  0  0
  -24.5942  -11.6460   20.6950 C   0  0  0  0  0  0  0  0  0  0  0  0
  -25.2541  -13.7313   20.4691 C   0  0  0  0  0  0  0  0  0  0  0  0
  -28.5029  -18.1232   15.7166 C   0  0  0  0  0  0  0  0  0  0  0  0
  -27.7369  -19.3188   16.0147 C   0  0  0  0  0  0  0  0  0  0  0  0
  -28.8082  -17.6266   14.5112 C   0  0  0  0  0  0  0  0  0  0  0  0
  -27.1819  -20.1673   15.1492 C   0  0  0  0  0  0  0  0  0  1  0  0
  -30.1654  -15.6022   21.6239 C   0  0  0  0  0  0  0  0  0  0  0  0
  -22.9102  -13.4921   21.3041 C   0  0  0  0  0  0  0  0  0  0  0  0
  -30.7685  -14.6507   20.6626 C   0  0  0  0  0  0  0  0  0  0  0  0
  -21.8350  -24.3369   11.8477 C   0  0  0  0  0  0  0  0  0  0  0  0
  -22.3548  -22.1915    9.4708 C   0  0  0  0  0  0  0  0  0  0  0  0
  -24.1559  -19.5367    8.3071 C   0  0  0  0  0  0  0  0  0  0  0  0
  -18.1255  -27.7476   11.0325 C   0  0  0  0  0  0  0  0  0  0  0  0
  -24.3163  -24.5867   11.4780 C   0  0  0  0  0  0  0  0  0  0  0  0
  -23.5152  -21.7464   11.6665 C   0  0  0  0  0  0  0  0  0  0  0  0
  -28.9296  -17.4802   17.0049 C   0  0  0  0  0  0  0  0  0  0  0  0
  -27.6456  -19.4839   17.5046 C   0  0  0  0  0  0  0  0  0  0  0  0
  -18.3738  -26.2915   10.6472 C   0  0  0  0  0  0  0  0  0  0  0  0
  -29.5399  -12.4081   18.1490 C   0  0  0  0  0  0  0  0  0  0  0  0
  -18.7892  -25.4792   11.8696 C   0  0  0  0  0  0  0  0  0  0  0  0
  -28.1221  -12.0896   18.6226 C   0  0  0  0  0  0  0  0  0  0  0  0
  -30.4914  -12.6004   19.3254 C   0  0  0  0  0  0  0  0  0  0  0  0
  -28.6184  -13.3223   20.7811 C   0  0  0  0  0  0  0  0  0  0  0  0
  -20.0992  -26.0092   12.4651 C   0  0  1  0  0  0  0  0  0  0  0  0
  -22.9881  -24.0880   10.9171 C   0  0  1  0  0  0  0  0  0  0  0  0
  -27.6225  -13.1487   19.6212 C   0  0  2  0  0  0  0  0  0  0  0  0
  -24.3236  -17.9767    6.3486 C   0  0  0  0  0  0  0  0  0  0  0  0
  -19.8963  -20.6826   10.4654 C   0  0  0  0  0  0  0  0  0  0  0  0
  -20.6574  -18.7045    9.1327 C   0  0  0  0  0  0  0  0  0  0  0  0
  -20.0875  -20.8403    7.9768 C   0  0  0  0  0  0  0  0  0  0  0  0
  -26.9148  -20.4158    7.6949 C   0  0  0  0  0  0  0  0  0  0  0  0
  -22.2164  -20.6946    9.3327 C   0  0  1  0  0  0  0  0  0  0  0  0
  -24.8150  -19.2775    6.9643 C   0  0  2  0  0  0  0  0  0  0  0  0
  -20.7314  -20.2421    9.2465 C   0  0  0  0  0  0  0  0  0  0  0  0
  -25.8490  -11.5531   20.2469 N   0  0  0  0  0  0  0  0  0  0  0  0
  -30.3572  -15.3201   22.8843 N   0  0  0  0  0  0  0  0  0  0  0  0
  -26.2231  -12.8376   20.1191 N   0  0  0  0  0  0  0  0  0  0  0  0
  -28.3821  -18.3460   18.0430 N   0  0  3  0  0  0  0  0  0  0  0  0
  -29.9702  -13.5849   20.2715 N   0  0  0  0  0  0  0  0  0  0  0  0
  -23.0004  -22.6528   10.6268 N   0  0  0  0  0  0  0  0  0  0  0  0
  -25.4630  -15.0632   20.4007 N   0  0  0  0  0  0  0  0  0  0  0  0
  -21.9061  -12.5806   21.6582 N   0  0  0  0  0  0  0  0  0  0  0  0
  -21.2286  -25.5666   11.6758 N   0  0  0  0  0  0  0  0  0  0  0  0
  -23.0248  -20.3147    8.1792 N   0  0  0  0  0  0  0  0  0  0  0  0
  -26.2946  -19.1939    7.1210 N   0  3  0  0  0  0  0  0  0  0  0  0
  -22.6755  -14.7223   21.3757 O   0  0  0  0  0  0  0  0  0  0  0  0
  -31.9135  -14.9075   20.3143 O   0  0  0  0  0  0  0  0  0  0  0  0
  -21.5179  -23.4763   12.6604 O   0  0  0  0  0  0  0  0  0  0  0  0
  -21.9128  -22.9242    8.5823 O   0  0  0  0  0  0  0  0  0  0  0  0
  -24.5982  -19.0902    9.3633 O   0  0  0  0  0  0  0  0  0  0  0  0
  -21.6343   -7.0168   21.7327 O   0  0  0  0  0  0  0  0  0  0  0  0
  -26.4751  -21.2722   15.5332 O   0  0  0  0  0  0  0  0  0  1  0  0
  -18.7514   -6.8251   26.4290 F   0  0  0  0  0  0  0  0  0  0  0  0
  -22.1286   -5.0595   23.6214 F   0  0  0  0  0  0  0  0  0  0  0  0
  1  2  1  0  0  0  0
  1  7  2  0  0  0  0
  2  8  2  0  0  0  0
  3  6  1  0  0  0  0
  3 10  2  0  0  0  0
  4 11  2  0  0  0  0
  4 19  1  0  0  0  0
  5 12  1  0  0  0  0
  5 19  2  0  0  0  0
  6 20  2  0  0  0  0
  7 22  1  0  0  0  0
  8 24  1  0  0  0  0
  9 13  2  0  0  0  0
  9 23  1  0  0  0  0
 10 26  1  0  0  0  0
 11 27  1  0  0  0  0
 12 27  2  0  0  0  0
 13 28  1  0  0  0  0
 14 15  2  0  0  0  0
 14 29  1  0  0  0  0
 15 30  1  0  0  0  0
 16 20  1  0  0  0  0
 16 26  2  0  0  0  0
 17 25  1  0  0  0  0
 17 28  2  0  0  0  0
 18 30  2  0  0  0  0
 18 31  1  0  0  0  0
 19 32  1  0  0  0  0
 20 38  1  0  0  0  0
 21 32  1  0  0  0  0
 21 33  2  0  0  0  0
 21 39  1  0  0  0  0
 22 24  2  0  0  0  0
 22 44  1  0  0  0  0
 23 25  2  0  0  0  0
 23 45  1  0  0  0  0
 24 55  1  0  0  0  0
 25 46  1  0  0  0  0
 26 69  1  0  0  0  0
 27 82  1  0  0  0  0
 28 83  1  0  0  0  0
 29 31  2  0  0  0  0
 29 82  1  0  0  0  0
 30 84  1  0  0  0  0
 31 85  1  0  0  0  0
 32 66  2  0  0  0  0
 33 68  1  0  0  0  0
 33 72  1  0  0  0  0
 34 35  1  0  0  0  0
 34 36  2  0  0  0  0
 34 47  1  0  0  0  0
 35 37  2  0  0  0  0
 35 48  1  0  0  0  0
 37 83  1  0  0  0  0
 38 40  1  0  0  0  0
 38 67  2  0  0  0  0
 39 73  1  0  0  0  0
 39 77  2  0  0  0  0
 40 70  1  0  0  0  0
 40 78  2  0  0  0  0
 41 56  1  0  0  0  0
 41 74  1  0  0  0  0
 41 79  2  0  0  0  0
 42 63  1  0  0  0  0
 42 71  1  0  0  0  0
 42 80  2  0  0  0  0
 43 64  1  0  0  0  0
 43 75  1  0  0  0  0
 43 81  2  0  0  0  0
 44 49  1  0  0  0  0
 45 56  1  0  0  0  0
 46 71  1  0  0  0  0
 47 69  1  0  0  0  0
 48 69  1  0  0  0  0
 49 51  1  0  0  0  0
 50 52  1  0  0  0  0
 50 53  1  0  0  0  0
 51 55  1  0  0  0  0
 52 57  1  0  0  0  0
 53 70  1  0  0  0  0
 54 57  1  0  0  0  0
 54 70  1  0  0  0  0
 55 74  1  0  0  0  0
 56 71  1  0  0  0  0
 57 68  1  0  0  0  0
 58 64  1  0  0  0  0
 59 65  1  0  0  0  0
 60 65  1  0  0  0  0
 61 65  1  0  0  0  0
 62 76  1  0  0  0  0
 63 65  1  0  0  0  0
 63 75  1  0  0  0  0
 64 76  1  0  0  0  0
 66 68  1  0  0  0  0
M  CHG  1  76   1
M  ISO  4  37 101  38 100  40 100  83 101
M  END
> <Batch ID>
0077

> <Smiles>
C=C1CN(c2cccc([100C:0](=N)[100C:0](=O)N3CCCC(n4nc(-c5ccc(Oc6ccc(F)cc6F)cc5)c(C(N)=O)c4N)C3)c2)CC1=[101CH:1][101O:1]c1ccc2c(c1)CN(C(=O)C(NC(=O)C(C)NC)C(C)(C)C)C(C(=O)NC1CCCc3ccccc31)C2

> <Shape>
0.194

> <Color>
0.189

> <Negative vol penalty>
0.000

$$$$

  -OEChem-04042323533D

 87 96  0     1  0  0  0  0  0999 V2000
  -19.7072  -25.2734   24.2160 C   0  0  0  0  0  0  0  0  0  0  0  0
  -20.7725  -25.2494   23.3216 C   0  0  0  0  0  0  0  0  0  0  0  0
  -23.8273   -8.7244   19.9747 C   0  0  0  0  0  0  0  0  0  0  0  0
  -23.1173  -10.4509   21.5084 C   0  0  0  0  0  0  0  0  0  0  0  0
  -18.8549  -26.3761   24.2538 C   0  0  0  0  0  0  0  0  0  0  0  0
  -20.9854  -26.3279   22.4636 C   0  0  0  0  0  0  0  0  0  0  0  0
  -25.8550  -27.6996   22.2390 C   0  0  0  0  0  0  0  0  0  0  0  0
  -29.8662  -19.9337   20.1810 C   0  0  0  0  0  0  0  0  0  0  0  0
  -29.8775  -18.5409   20.1063 C   0  0  0  0  0  0  0  0  0  0  0  0
  -23.0352   -7.7972   20.6518 C   0  0  0  0  0  0  0  0  0  0  0  0
  -22.3251   -9.5236   22.1855 C   0  0  0  0  0  0  0  0  0  0  0  0
  -26.7013  -26.9175   21.4542 C   0  0  0  0  0  0  0  0  0  0  0  0
  -23.2129   -5.9726   23.4915 C   0  0  0  0  0  0  0  0  0  0  0  0
  -23.7741   -4.7280   23.7772 C   0  0  0  0  0  0  0  0  0  0  0  0
  -26.5449  -28.5417   19.6776 C   0  0  0  0  0  0  0  0  0  0  0  0
  -27.7773  -19.9819   18.9679 C   0  0  0  0  0  0  0  0  0  0  0  0
  -22.0424   -3.6500   22.4825 C   0  0  0  0  0  0  0  0  0  0  0  0
  -23.8684  -10.0512   20.4031 C   0  0  0  0  0  0  0  0  0  0  0  0
  -24.3074  -11.8193   18.6173 C   0  0  0  0  0  0  0  0  0  0  0  0
  -19.0632  -27.4728   23.4026 C   0  0  0  0  0  0  0  0  0  0  0  0
  -25.3377  -28.9054   21.7440 C   0  0  0  0  0  0  0  0  0  0  0  0
  -20.1343  -27.4457   22.4892 C   0  0  0  0  0  0  0  0  0  0  0  0
  -25.6943  -29.3386   20.4590 C   0  0  0  0  0  0  0  0  0  0  0  0
  -28.8161  -20.6542   19.6118 C   0  0  0  0  0  0  0  0  0  0  0  0
  -28.8387  -17.8686   19.4624 C   0  0  0  0  0  0  0  0  0  0  0  0
  -22.2841   -8.1968   21.7571 C   0  0  0  0  0  0  0  0  0  0  0  0
  -27.0440  -27.3371   20.1722 C   0  0  0  0  0  0  0  0  0  0  0  0
  -22.0664   -6.0559   22.7013 C   0  0  0  0  0  0  0  0  0  0  0  0
  -23.1889   -3.5667   23.2727 C   0  0  0  0  0  0  0  0  0  0  0  0
  -27.7886  -18.5891   18.8932 C   0  0  0  0  0  0  0  0  0  0  0  0
  -21.4812   -4.8946   22.1968 C   0  0  0  0  0  0  0  0  0  0  0  0
  -24.6869  -11.0094   19.7044 C   0  0  0  0  0  0  0  0  0  0  0  0
  -25.4342  -12.5468   18.3213 C   0  0  0  0  0  0  0  0  0  0  0  0
  -28.2184  -24.2585   19.4724 C   0  0  0  0  0  0  0  0  0  0  0  0
  -29.4644  -24.2401   20.1969 C   0  0  0  0  0  0  0  0  0  0  0  0
  -27.8000  -22.8661   19.1486 C   0  0  0  0  0  0  0  0  0  0  0  0
  -30.1672  -25.2764   20.6665 C   0  0  0  0  0  0  0  0  0  0  0  0
  -23.0488  -11.9063   17.9360 C   0  0  0  0  0  0  0  0  0  0  0  0
  -27.4722  -25.3038   19.0984 C   0  0  0  0  0  0  0  0  0  1  0  0
  -22.4211  -30.0135   21.1363 C   0  0  0  0  0  0  0  0  0  0  0  0
  -24.0168  -32.7747   20.5436 C   0  0  0  0  0  0  0  0  0  0  0  0
  -26.9419  -34.3003   19.6700 C   0  0  0  0  0  0  0  0  0  0  0  0
  -29.8212  -15.5906   19.9002 C   0  0  0  0  0  0  0  0  0  0  0  0
  -18.0873  -28.6219   23.4470 C   0  0  0  0  0  0  0  0  0  0  0  0
  -24.4475  -29.7507   22.6131 C   0  0  0  0  0  0  0  0  0  0  0  0
  -25.1821  -30.6350   19.8886 C   0  0  0  0  0  0  0  0  0  0  0  0
  -29.8643  -22.8033   20.3465 C   0  0  0  0  0  0  0  0  0  0  0  0
  -18.6037  -29.8862   22.7650 C   0  0  0  0  0  0  0  0  0  0  0  0
  -30.1991  -12.0506   19.9556 C   0  0  0  0  0  0  0  0  0  0  0  0
  -19.2128  -29.5497   21.4076 C   0  0  0  0  0  0  0  0  0  0  0  0
  -28.7675  -11.5308   19.8058 C   0  0  0  0  0  0  0  0  0  0  0  0
  -30.2561  -13.3180   20.8066 C   0  0  0  0  0  0  0  0  0  0  0  0
  -27.9292  -13.8782   20.2227 C   0  0  0  0  0  0  0  0  0  0  0  0
  -20.4127  -28.6071   21.5597 C   0  0  1  0  0  0  0  0  0  0  0  0
  -23.5678  -30.7080   21.8150 C   0  0  1  0  0  0  0  0  0  0  0  0
  -27.8134  -12.6394   19.3196 C   0  0  2  0  0  0  0  0  0  0  0  0
  -26.1884  -25.1763   18.3434 C   0  0  0  0  0  0  0  0  0  0  0  0
  -27.9271  -36.5659   19.2295 C   0  0  0  0  0  0  0  0  0  0  0  0
  -22.6275  -32.8482   17.8280 C   0  0  0  0  0  0  0  0  0  0  0  0
  -24.3183  -34.5393   17.0867 C   0  0  0  0  0  0  0  0  0  0  0  0
  -22.7819  -35.0621   18.9811 C   0  0  0  0  0  0  0  0  0  0  0  0
  -28.8974  -34.0061   21.8719 C   0  0  0  0  0  0  0  0  0  0  0  0
  -24.6557  -33.4004   19.3273 C   0  0  1  0  0  0  0  0  0  0  0  0
  -27.6786  -35.4845   20.2695 C   0  0  2  0  0  0  0  0  0  0  0  0
  -23.6041  -33.9371   18.3155 C   0  0  0  0  0  0  0  0  0  0  0  0
  -25.9557  -11.2037   20.0739 N   0  0  0  0  0  0  0  0  0  0  0  0
  -26.3832  -12.1439   19.2141 N   0  0  0  0  0  0  0  0  0  0  0  0
  -28.8050  -22.0435   19.6856 N   0  0  0  0  0  0  0  0  0  0  0  0
  -24.3097  -31.4232   20.7747 N   0  0  0  0  0  0  0  0  0  0  0  0
  -29.3297  -14.3249   20.2841 N   0  0  0  0  0  0  0  0  0  0  0  0
  -25.6958  -13.4854   17.3870 N   0  0  0  0  0  0  0  0  0  0  0  0
  -21.9967  -11.0879   18.3691 N   0  0  0  0  0  0  0  0  0  0  0  0
  -28.8532  -16.4537   19.3877 N   0  0  0  0  0  0  0  0  0  0  0  0
  -21.5791  -29.3411   22.0015 N   0  0  0  0  0  0  0  0  0  0  0  0
  -25.5768  -34.4155   19.8266 N   0  0  0  0  0  0  0  0  0  0  0  0
  -28.9938  -35.0514   20.8206 N   0  3  0  0  0  0  0  0  0  0  0  0
  -26.7916  -22.5432   18.5434 O   0  0  0  0  0  0  0  0  0  0  0  0
  -22.8677  -12.6748   16.9613 O   0  0  0  0  0  0  0  0  0  0  0  0
  -22.3078  -30.0837   19.9182 O   0  0  0  0  0  0  0  0  0  0  0  0
  -23.2906  -33.4619   21.2661 O   0  0  0  0  0  0  0  0  0  0  0  0
  -27.5195  -33.3683   19.1147 O   0  0  0  0  0  0  0  0  0  0  0  0
  -31.0175  -15.8774   19.9921 O   0  0  0  0  0  0  0  0  0  0  0  0
  -21.5109   -7.2923   22.4179 O   0  0  0  0  0  0  0  0  0  0  0  0
  -27.8694  -26.5752   19.4039 O   0  0  0  0  0  0  0  0  0  1  0  0
  -23.7288   -2.3717   23.5459 F   0  0  0  0  0  0  0  0  0  0  0  0
  -26.7856  -17.9535   18.2705 F   0  0  0  0  0  0  0  0  0  0  0  0
  -20.3804   -4.9684   21.4361 F   0  0  0  0  0  0  0  0  0  0  0  0
  1  2  1  0  0  0  0
  1  5  2  0  0  0  0
  2  6  2  0  0  0  0
  3 10  2  0  0  0  0
  3 18  1  0  0  0  0
  4 11  1  0  0  0  0
  4 18  2  0  0  0  0
  5 20  1  0  0  0  0
  6 22  1  0  0  0  0
  7 12  2  0  0  0  0
  7 21  1  0  0  0  0
  8  9  2  0  0  0  0
  8 24  1  0  0  0  0
  9 25  1  0  0  0  0
 10 26  1  0  0  0  0
 11 26  2  0  0  0  0
 12 27  1  0  0  0  0
 13 14  2  0  0  0  0
 13 28  1  0  0  0  0
 14 29  1  0  0  0  0
 15 23  1  0  0  0  0
 15 27  2  0  0  0  0
 16 24  2  0  0  0  0
 16 30  1  0  0  0  0
 17 29  2  0  0  0  0
 17 31  1  0  0  0  0
 18 32  1  0  0  0  0
 19 32  1  0  0  0  0
 19 33  2  0  0  0  0
 19 38  1  0  0  0  0
 20 22  2  0  0  0  0
 20 44  1  0  0  0  0
 21 23  2  0  0  0  0
 21 45  1  0  0  0  0
 22 54  1  0  0  0  0
 23 46  1  0  0  0  0
 24 68  1  0  0  0  0
 25 30  2  0  0  0  0
 25 73  1  0  0  0  0
 26 83  1  0  0  0  0
 27 84  1  0  0  0  0
 28 31  2  0  0  0  0
 28 83  1  0  0  0  0
 29 85  1  0  0  0  0
 30 86  1  0  0  0  0
 31 87  1  0  0  0  0
 32 66  2  0  0  0  0
 33 67  1  0  0  0  0
 33 71  1  0  0  0  0
 34 35  1  0  0  0  0
 34 36  1  0  0  0  0
 34 39  2  0  0  0  0
 35 37  2  0  0  0  0
 35 47  1  0  0  0  0
 36 68  1  0  0  0  0
 36 77  2  0  0  0  0
 38 72  1  0  0  0  0
 38 78  2  0  0  0  0
 39 57  1  0  0  0  0
 39 84  1  0  0  0  0
 40 55  1  0  0  0  0
 40 74  1  0  0  0  0
 40 79  2  0  0  0  0
 41 63  1  0  0  0  0
 41 69  1  0  0  0  0
 41 80  2  0  0  0  0
 42 64  1  0  0  0  0
 42 75  1  0  0  0  0
 42 81  2  0  0  0  0
 43 70  1  0  0  0  0
 43 73  1  0  0  0  0
 43 82  2  0  0  0  0
 44 48  1  0  0  0  0
 45 55  1  0  0  0  0
 46 69  1  0  0  0  0
 47 68  1  0  0  0  0
 48 50  1  0  0  0  0
 49 51  1  0  0  0  0
 49 52  1  0  0  0  0
 50 54  1  0  0  0  0
 51 56  1  0  0  0  0
 52 70  1  0  0  0  0
 53 56  1  0  0  0  0
 53 70  1  0  0  0  0
 54 74  1  0  0  0  0
 55 69  1  0  0  0  0
 56 67  1  0  0  0  0
 58 64  1  0  0  0  0
 59 65  1  0  0  0  0
 60 65  1  0  0  0  0
 61 65  1  0  0  0  0
 62 76  1  0  0  0  0
 63 65  1  0  0  0  0
 63 75  1  0  0  0  0
 64 76  1  0  0  0  0
 66 67  1  0  0  0  0
M  CHG  1  76   1
M  ISO  4  39 101  43 100  73 100  84 101
M  END
> <Batch ID>
0077

> <Smiles>
C=C1CN(c2ccc([100NH:0][100C:0](=O)N3CCCC(n4nc(-c5ccc(Oc6ccc(F)cc6F)cc5)c(C(N)=O)c4N)C3)c(F)c2)C(=O)C1=[101C:1](C)[101O:1]c1ccc2c(c1)CN(C(=O)C(NC(=O)C(C)NC)C(C)(C)C)C(C(=O)NC1CCCc3ccccc31)C2

> <Shape>
0.296

> <Color>
0.129

> <Negative vol penalty>
0.000

$$$$

  -OEChem-04042323533D

 92101  0     1  0  0  0  0  0999 V2000
  -17.4270  -28.2972   23.5883 C   0  0  0  0  0  0  0  0  0  0  0  0
  -18.5092  -27.6036   23.0561 C   0  0  0  0  0  0  0  0  0  0  0  0
  -24.4547   -9.1630   21.4865 C   0  0  0  0  0  0  0  0  0  0  0  0
  -24.6750  -10.4059   23.5465 C   0  0  0  0  0  0  0  0  0  0  0  0
  -17.4053  -29.6907   23.5476 C   0  0  0  0  0  0  0  0  0  0  0  0
  -19.5700  -28.3032   22.4818 C   0  0  0  0  0  0  0  0  0  0  0  0
  -25.4947  -26.7579   22.6040 C   0  0  0  0  0  0  0  0  0  0  0  0
  -29.8573  -18.6747   22.4308 C   0  0  0  0  0  0  0  0  0  0  0  0
  -31.9979  -18.1386   21.4471 C   0  0  0  0  0  0  0  0  0  0  0  0
  -29.8885  -19.9266   21.8166 C   0  0  0  0  0  0  0  0  0  0  0  0
  -32.0291  -19.3906   20.8328 C   0  0  0  0  0  0  0  0  0  0  0  0
  -24.1717   -8.0071   22.2141 C   0  0  0  0  0  0  0  0  0  0  0  0
  -24.3920   -9.2501   24.2742 C   0  0  0  0  0  0  0  0  0  0  0  0
  -26.3168  -26.1193   21.6766 C   0  0  0  0  0  0  0  0  0  0  0  0
  -21.5212   -6.6680   23.8311 C   0  0  0  0  0  0  0  0  0  0  0  0
  -20.4573   -5.8753   23.4007 C   0  0  0  0  0  0  0  0  0  0  0  0
  -27.0804  -28.2661   20.8844 C   0  0  0  0  0  0  0  0  0  0  0  0
  -21.9687   -4.0164   23.0885 C   0  0  0  0  0  0  0  0  0  0  0  0
  -24.7064  -10.3624   22.1526 C   0  0  0  0  0  0  0  0  0  0  0  0
  -24.0782  -12.5090   20.9257 C   0  0  0  0  0  0  0  0  0  0  0  0
  -18.4709  -30.4080   22.9812 C   0  0  0  0  0  0  0  0  0  0  0  0
  -25.4510  -28.1578   22.6713 C   0  0  0  0  0  0  0  0  0  0  0  0
  -19.5619  -29.7076   22.4323 C   0  0  0  0  0  0  0  0  0  0  0  0
  -26.2588  -28.9199   21.8153 C   0  0  0  0  0  0  0  0  0  0  0  0
  -30.9120  -17.7807   22.2462 C   0  0  0  0  0  0  0  0  0  0  0  0
  -30.9743  -20.2845   21.0176 C   0  0  0  0  0  0  0  0  0  0  0  0
  -24.1404   -8.0507   23.6080 C   0  0  0  0  0  0  0  0  0  0  0  0
  -27.1077  -26.8735   20.8146 C   0  0  0  0  0  0  0  0  0  0  0  0
  -22.8089   -6.1349   23.8901 C   0  0  0  0  0  0  0  0  0  0  0  0
  -20.6810   -4.5495   23.0294 C   0  0  0  0  0  0  0  0  0  0  0  0
  -23.0326   -4.8091   23.5188 C   0  0  0  0  0  0  0  0  0  0  0  0
  -24.9993  -11.5566   21.4016 C   0  0  0  0  0  0  0  0  0  0  0  0
  -24.8520  -13.4426   20.2806 C   0  0  0  0  0  0  0  0  0  0  0  0
  -30.4723  -23.6581   19.7005 C   0  0  0  0  0  0  0  0  0  0  0  0
  -31.7499  -23.3473   19.1101 C   0  0  0  0  0  0  0  0  0  0  0  0
  -30.0005  -22.5083   20.5215 C   0  0  0  0  0  0  0  0  0  0  0  0
  -32.5031  -24.1109   18.3112 C   0  0  0  0  0  0  0  0  0  0  0  0
  -29.7390  -24.7716   19.5939 C   0  0  0  0  0  0  0  0  0  0  0  0
  -22.6508  -12.5464   21.0553 C   0  0  0  0  0  0  0  0  0  0  0  0
  -23.1947  -30.3549   22.2402 C   0  0  0  0  0  0  0  0  0  0  0  0
  -25.5120  -32.3758   23.2740 C   0  0  0  0  0  0  0  0  0  0  0  0
  -28.8428  -33.0027   23.6733 C   0  0  0  0  0  0  0  0  0  0  0  0
  -30.5824  -15.0835   20.8475 C   0  0  0  0  0  0  0  0  0  0  0  0
  -18.3808  -31.9122   22.9176 C   0  0  0  0  0  0  0  0  0  0  0  0
  -24.5789  -28.8310   23.6954 C   0  0  0  0  0  0  0  0  0  0  0  0
  -26.2635  -30.4254   21.8610 C   0  0  0  0  0  0  0  0  0  0  0  0
  -32.1158  -21.9643   19.5573 C   0  0  0  0  0  0  0  0  0  0  0  0
  -19.7173  -32.5907   22.6282 C   0  0  0  0  0  0  0  0  0  0  0  0
  -28.9795  -13.8869   17.9020 C   0  0  0  0  0  0  0  0  0  0  0  0
  -20.4319  -31.8924   21.4755 C   0  0  0  0  0  0  0  0  0  0  0  0
  -27.6945  -13.2400   18.4220 C   0  0  0  0  0  0  0  0  0  0  0  0
  -30.1485  -13.6696   18.8602 C   0  0  0  0  0  0  0  0  0  0  0  0
  -28.6097  -13.4405   20.7716 C   0  0  0  0  0  0  0  0  0  0  0  0
  -20.7430  -30.4317   21.8232 C   0  0  1  0  0  0  0  0  0  0  0  0
  -24.2275  -30.2694   23.3282 C   0  0  1  0  0  0  0  0  0  0  0  0
  -27.3895  -13.6807   19.8663 C   0  0  2  0  0  0  0  0  0  0  0  0
  -30.4306  -34.7549   24.5134 C   0  0  0  0  0  0  0  0  0  0  0  0
  -32.3222  -14.4524   23.7723 C   0  0  0  0  0  0  0  0  0  0  0  0
  -30.0785  -16.5258   24.2456 C   0  0  0  0  0  0  0  0  0  0  0  0
  -25.0312  -34.0190   20.7484 C   0  0  0  0  0  0  0  0  0  0  0  0
  -27.2208  -35.1615   21.1588 C   0  0  0  0  0  0  0  0  0  0  0  0
  -25.3750  -35.3718   22.8235 C   0  0  0  0  0  0  0  0  0  0  0  0
  -29.9435  -31.1837   25.7321 C   0  0  0  0  0  0  0  0  0  0  0  0
  -28.4192  -24.9677   20.2634 C   0  0  0  0  0  0  0  0  0  1  0  0
  -33.2724  -16.7781   24.0708 C   0  0  0  0  0  0  0  0  0  0  0  0
  -26.6077  -33.1748   22.6107 C   0  0  1  0  0  0  0  0  0  0  0  0
  -29.6373  -33.5059   24.8649 C   0  0  2  0  0  0  0  0  0  0  0  0
  -32.3462  -15.8887   23.2148 C   0  0  2  0  0  0  0  0  0  0  0  0
  -30.8786  -16.4422   22.9030 C   0  0  2  0  0  0  0  0  0  0  0  0
  -26.0574  -34.4034   21.8329 C   0  0  0  0  0  0  0  0  0  0  0  0
  -26.2617  -11.8575   21.0856 N   0  0  0  0  0  0  0  0  0  0  0  0
  -26.1394  -13.0094   20.4042 N   0  0  0  0  0  0  0  0  0  0  0  0
  -31.0056  -21.5331   20.4045 N   0  0  0  0  0  0  0  0  0  0  0  0
  -25.3893  -31.0372   22.8754 N   0  0  0  0  0  0  0  0  0  0  0  0
  -29.7947  -14.1094   20.2120 N   0  0  0  0  0  0  0  0  0  0  0  0
  -24.5500  -14.5835   19.6253 N   0  0  0  0  0  0  0  0  0  0  0  0
  -22.0155  -11.5075   21.7492 N   0  0  0  0  0  0  0  0  0  0  0  0
  -21.8916  -30.3545   22.7001 N   0  0  0  0  0  0  0  0  0  0  0  0
  -27.5612  -33.5114   23.6623 N   0  0  0  0  0  0  0  0  0  0  0  0
  -30.1738  -15.4482   22.1245 N   0  0  0  0  0  0  0  0  0  0  0  0
  -34.6736  -16.3021   24.0718 N   0  3  0  0  0  0  0  0  0  0  0  0
  -30.5904  -32.4595   25.3312 N   0  3  0  0  0  0  0  0  0  0  0  0
  -28.9567  -22.4570   21.1502 O   0  0  0  0  0  0  0  0  0  0  0  0
  -21.9578  -13.4650   20.5560 O   0  0  0  0  0  0  0  0  0  0  0  0
  -23.5535  -30.4181   21.0702 O   0  0  0  0  0  0  0  0  0  0  0  0
  -24.7961  -32.9174   24.1201 O   0  0  0  0  0  0  0  0  0  0  0  0
  -29.3132  -32.2380   22.8340 O   0  0  0  0  0  0  0  0  0  0  0  0
  -31.5729  -15.5945   20.3140 O   0  0  0  0  0  0  0  0  0  0  0  0
  -23.8640   -6.9230   24.3183 O   0  0  0  0  0  0  0  0  0  0  0  0
  -27.9105  -26.2527   19.9080 O   0  0  0  0  0  0  0  0  0  1  0  0
  -19.6589   -3.7879   22.6176 F   0  0  0  0  0  0  0  0  0  0  0  0
  -24.2673   -4.2911   23.5746 F   0  0  0  0  0  0  0  0  0  0  0  0
  1  2  1  0  0  0  0
  1  5  2  0  0  0  0
  2  6  2  0  0  0  0
  3 12  2  0  0  0  0
  3 19  1  0  0  0  0
  4 13  1  0  0  0  0
  4 19  2  0  0  0  0
  5 21  1  0  0  0  0
  6 23  1  0  0  0  0
  7 14  2  0  0  0  0
  7 22  1  0  0  0  0
  8 10  2  0  0  0  0
  8 25  1  0  0  0  0
  9 11  1  0  0  0  0
  9 25  2  0  0  0  0
 10 26  1  0  0  0  0
 11 26  2  0  0  0  0
 12 27  1  0  0  0  0
 13 27  2  0  0  0  0
 14 28  1  0  0  0  0
 15 16  2  0  0  0  0
 15 29  1  0  0  0  0
 16 30  1  0  0  0  0
 17 24  1  0  0  0  0
 17 28  2  0  0  0  0
 18 30  2  0  0  0  0
 18 31  1  0  0  0  0
 19 32  1  0  0  0  0
 20 32  1  0  0  0  0
 20 33  2  0  0  0  0
 20 39  1  0  0  0  0
 21 23  2  0  0  0  0
 21 44  1  0  0  0  0
 22 24  2  0  0  0  0
 22 45  1  0  0  0  0
 23 54  1  0  0  0  0
 24 46  1  0  0  0  0
 25 69  1  0  0  0  0
 26 73  1  0  0  0  0
 27 89  1  0  0  0  0
 28 90  1  0  0  0  0
 29 31  2  0  0  0  0
 29 89  1  0  0  0  0
 30 91  1  0  0  0  0
 31 92  1  0  0  0  0
 32 71  2  0  0  0  0
 33 72  1  0  0  0  0
 33 76  1  0  0  0  0
 34 35  1  0  0  0  0
 34 36  1  0  0  0  0
 34 38  2  0  0  0  0
 35 37  2  0  0  0  0
 35 47  1  0  0  0  0
 36 73  1  0  0  0  0
 36 83  2  0  0  0  0
 38 64  1  0  0  0  0
 39 77  1  0  0  0  0
 39 84  2  0  0  0  0
 40 55  1  0  0  0  0
 40 78  1  0  0  0  0
 40 85  2  0  0  0  0
 41 66  1  0  0  0  0
 41 74  1  0  0  0  0
 41 86  2  0  0  0  0
 42 67  1  0  0  0  0
 42 79  1  0  0  0  0
 42 87  2  0  0  0  0
 43 75  1  0  0  0  0
 43 80  1  0  0  0  0
 43 88  2  0  0  0  0
 44 48  1  0  0  0  0
 45 55  1  0  0  0  0
 46 74  1  0  0  0  0
 47 73  1  0  0  0  0
 48 50  1  0  0  0  0
 49 51  1  0  0  0  0
 49 52  1  0  0  0  0
 50 54  1  0  0  0  0
 51 56  1  0  0  0  0
 52 75  1  0  0  0  0
 53 56  1  0  0  0  0
 53 75  1  0  0  0  0
 54 78  1  0  0  0  0
 55 74  1  0  0  0  0
 56 72  1  0  0  0  0
 57 67  1  0  0  0  0
 58 68  1  0  0  0  0
 59 69  1  0  0  0  0
 60 70  1  0  0  0  0
 61 70  1  0  0  0  0
 62 70  1  0  0  0  0
 63 82  1  0  0  0  0
 64 90  1  0  0  0  0
 65 68  1  0  0  0  0
 65 81  1  0  0  0  0
 66 70  1  0  0  0  0
 66 79  1  0  0  0  0
 67 82  1  0  0  0  0
 68 69  1  0  0  0  0
 69 80  1  0  0  0  0
 71 72  1  0  0  0  0
M  CHG  2  81   1  82   1
M  ISO  4  43 100  64 101  80 100  90 101
M  END
> <Batch ID>
0077

> <Smiles>
C=C1CN(c2ccc(C(C)([100NH:0][100C:0](=O)N3CCCC(n4nc(-c5ccc(Oc6ccc(F)cc6F)cc5)c(C(N)=O)c4N)C3)C(C)CN)cc2)C(=O)C1=C[101CH2:1][101O:1]c1ccc2c(c1)CN(C(=O)C(NC(=O)C(C)NC)C(C)(C)C)C(C(=O)NC1CCCc3ccccc31)C2

> <Shape>
0.334

> <Color>
0.107

> <Negative vol penalty>
0.000

$$$$

  -OEChem-04042323533D

 83 91  0     1  0  0  0  0  0999 V2000
  -28.0833  -36.2569   25.0332 C   0  0  0  0  0  0  0  0  0  0  0  0
  -28.5318  -35.0923   24.4185 C   0  0  0  0  0  0  0  0  0  0  0  0
  -23.9448   -9.1203   21.2477 C   0  0  0  0  0  0  0  0  0  0  0  0
  -22.9900  -11.3182   21.5559 C   0  0  0  0  0  0  0  0  0  0  0  0
  -26.8181  -36.2925   25.6178 C   0  0  0  0  0  0  0  0  0  0  0  0
  -27.7155  -33.9621   24.3889 C   0  0  0  0  0  0  0  0  0  0  0  0
  -27.3320  -29.8143   19.8995 C   0  0  0  0  0  0  0  0  0  0  0  0
  -27.5086  -19.2761   21.8085 C   0  0  0  0  0  0  0  0  0  0  0  0
  -29.8420  -19.0498   22.3927 C   0  0  0  0  0  0  0  0  0  0  0  0
  -27.5511  -18.0418   21.1604 C   0  0  0  0  0  0  0  0  0  0  0  0
  -29.8845  -17.8153   21.7446 C   0  0  0  0  0  0  0  0  0  0  0  0
  -23.0877   -8.6112   22.2233 C   0  0  0  0  0  0  0  0  0  0  0  0
  -22.1329  -10.8090   22.5314 C   0  0  0  0  0  0  0  0  0  0  0  0
  -27.9076  -28.5553   19.7340 C   0  0  0  0  0  0  0  0  0  0  0  0
  -22.9112   -8.5522   25.5981 C   0  0  0  0  0  0  0  0  0  0  0  0
  -23.4554   -7.6950   26.5544 C   0  0  0  0  0  0  0  0  0  0  0  0
  -25.9040  -27.5316   20.6039 C   0  0  0  0  0  0  0  0  0  0  0  0
  -21.9450   -5.9470   25.8472 C   0  0  0  0  0  0  0  0  0  0  0  0
  -23.8960  -10.4739   20.9141 C   0  0  0  0  0  0  0  0  0  0  0  0
  -24.5382  -11.0891   18.5231 C   0  0  0  0  0  0  0  0  0  0  0  0
  -25.9821  -35.1652   25.5869 C   0  0  0  0  0  0  0  0  0  0  0  0
  -26.0401  -29.9422   20.4296 C   0  0  0  0  0  0  0  0  0  0  0  0
  -26.4384  -33.9822   24.9748 C   0  0  0  0  0  0  0  0  0  0  0  0
  -25.3133  -28.7932   20.7727 C   0  0  0  0  0  0  0  0  0  0  0  0
  -28.6541  -19.7802   22.4247 C   0  0  0  0  0  0  0  0  0  0  0  0
  -28.7390  -17.3113   21.1284 C   0  0  0  0  0  0  0  0  0  0  0  0
  -22.1817   -9.4555   22.8651 C   0  0  0  0  0  0  0  0  0  0  0  0
  -27.1947  -27.4138   20.0889 C   0  0  0  0  0  0  0  0  0  0  0  0
  -21.8838   -8.1069   24.7664 C   0  0  0  0  0  0  0  0  0  0  0  0
  -22.9723   -6.3924   26.6789 C   0  0  0  0  0  0  0  0  0  0  0  0
  -21.4007   -6.8043   24.8909 C   0  0  0  0  0  0  0  0  0  0  0  0
  -24.7816  -11.0005   19.9068 C   0  0  0  0  0  0  0  0  0  0  0  0
  -25.6784  -11.6573   18.0096 C   0  0  0  0  0  0  0  0  0  0  0  0
  -28.9528  -22.2310   22.1810 C   0  0  0  0  0  0  0  0  0  0  0  0
  -23.3847  -10.6931   17.7693 C   0  0  0  0  0  0  0  0  0  0  0  0
  -24.8034  -31.3062   23.0206 C   0  0  0  0  0  0  0  0  0  0  0  0
  -28.4634  -24.1583   21.0529 C   0  0  0  0  0  0  0  0  0  0  0  0
  -21.9889  -30.4745   21.6388 C   0  0  0  0  0  0  0  0  0  0  0  0
  -20.3137  -28.4294   19.4806 C   0  0  0  0  0  0  0  0  0  0  0  0
  -29.8798  -15.2058   20.3464 C   0  0  0  0  0  0  0  0  0  0  0  0
  -24.6412  -35.2368   26.2736 C   0  0  0  0  0  0  0  0  0  0  0  0
  -25.4232  -31.3060   20.5769 C   0  0  0  0  0  0  0  0  0  0  0  0
  -23.9152  -28.8753   21.3270 C   0  0  0  0  0  0  0  0  0  0  0  0
  -23.6898  -34.1130   25.8709 C   0  0  0  0  0  0  0  0  0  0  0  0
  -30.3813  -12.0203   18.8371 C   0  0  0  0  0  0  0  0  0  0  0  0
  -24.4094  -32.7683   25.8997 C   0  0  0  0  0  0  0  0  0  0  0  0
  -28.9791  -11.4078   18.8087 C   0  0  0  0  0  0  0  0  0  0  0  0
  -30.6146  -12.8446   20.1019 C   0  0  0  0  0  0  0  0  0  0  0  0
  -28.1980  -13.2598   20.3407 C   0  0  0  0  0  0  0  0  0  0  0  0
  -25.5724  -32.7434   24.9005 C   0  0  1  0  0  0  0  0  0  0  0  0
  -24.2978  -31.3448   21.6062 C   0  0  1  0  0  0  0  0  0  0  0  0
  -27.8934  -12.4738   19.0550 C   0  0  2  0  0  0  0  0  0  0  0  0
  -18.0138  -27.9657   18.5902 C   0  0  0  0  0  0  0  0  0  0  0  0
  -21.2592  -29.0839   24.2548 C   0  0  0  0  0  0  0  0  0  0  0  0
  -19.4486  -27.8699   23.0235 C   0  0  0  0  0  0  0  0  0  0  0  0
  -19.3872  -30.3579   23.1932 C   0  0  0  0  0  0  0  0  0  0  0  0
  -21.1375  -29.0461   16.7057 C   0  0  0  0  0  0  0  0  0  0  0  0
  -28.6082  -21.1114   23.1235 C   0  0  0  0  0  0  0  0  0  0  0  0
  -27.3485  -25.1622   20.8390 C   0  0  0  0  0  0  0  0  0  1  0  0
  -21.0932  -29.2601   21.6843 C   0  0  1  0  0  0  0  0  0  0  0  0
  -19.3117  -28.7301   18.3806 C   0  0  2  0  0  0  0  0  0  0  0  0
  -20.3241  -29.1412   23.0304 C   0  0  0  0  0  0  0  0  0  0  0  0
  -25.9821  -11.4745   20.2506 N   0  0  0  0  0  0  0  0  0  0  0  0
  -28.0868  -23.1519   21.9167 N   0  0  0  0  0  0  0  0  0  0  0  0
  -26.5033  -11.8661   19.0754 N   0  0  0  0  0  0  0  0  0  0  0  0
  -23.3579  -30.2317   21.4582 N   0  0  0  0  0  0  0  0  0  0  0  0
  -29.5497  -13.8363   20.2676 N   0  0  0  0  0  0  0  0  0  0  0  0
  -26.0457  -11.9936   16.7549 N   0  0  0  0  0  0  0  0  0  0  0  0
  -22.3015  -10.1257   18.4542 N   0  0  0  0  0  0  0  0  0  0  0  0
  -28.7824  -16.0572   20.4704 N   0  0  0  0  0  0  0  0  0  0  0  0
  -25.0778  -32.5511   23.5541 N   0  0  0  0  0  0  0  0  0  0  0  0
  -20.2323  -29.3436   20.5095 N   0  0  0  0  0  0  0  0  0  0  0  0
  -19.8712  -28.3509   17.0524 N   0  3  0  0  0  0  0  0  0  0  0  0
  -23.3230  -10.8231   16.5232 O   0  0  0  0  0  0  0  0  0  0  0  0
  -24.9333  -30.2271   23.5866 O   0  0  0  0  0  0  0  0  0  0  0  0
  -29.5531  -24.2797   20.4973 O   0  0  0  0  0  0  0  0  0  0  0  0
  -21.4913  -31.5975   21.7519 O   0  0  0  0  0  0  0  0  0  0  0  0
  -21.0884  -27.4764   19.4336 O   0  0  0  0  0  0  0  0  0  0  0  0
  -31.0480  -15.5967   20.2793 O   0  0  0  0  0  0  0  0  0  0  0  0
  -21.3450   -8.9589   23.8169 O   0  0  0  0  0  0  0  0  0  0  0  0
  -27.7544  -26.1838   19.9290 O   0  0  0  0  0  0  0  0  0  1  0  0
  -23.4961   -5.5688   27.5963 F   0  0  0  0  0  0  0  0  0  0  0  0
  -20.4146   -6.3704   24.0938 F   0  0  0  0  0  0  0  0  0  0  0  0
  1  2  1  0  0  0  0
  1  5  2  0  0  0  0
  2  6  2  0  0  0  0
  3 12  2  0  0  0  0
  3 19  1  0  0  0  0
  4 13  1  0  0  0  0
  4 19  2  0  0  0  0
  5 21  1  0  0  0  0
  6 23  1  0  0  0  0
  7 14  2  0  0  0  0
  7 22  1  0  0  0  0
  8 10  2  0  0  0  0
  8 25  1  0  0  0  0
  9 11  1  0  0  0  0
  9 25  2  0  0  0  0
 10 26  1  0  0  0  0
 11 26  2  0  0  0  0
 12 27  1  0  0  0  0
 13 27  2  0  0  0  0
 14 28  1  0  0  0  0
 15 16  2  0  0  0  0
 15 29  1  0  0  0  0
 16 30  1  0  0  0  0
 17 24  1  0  0  0  0
 17 28  2  0  0  0  0
 18 30  2  0  0  0  0
 18 31  1  0  0  0  0
 19 32  1  0  0  0  0
 20 32  1  0  0  0  0
 20 33  2  0  0  0  0
 20 35  1  0  0  0  0
 21 23  2  0  0  0  0
 21 41  1  0  0  0  0
 22 24  2  0  0  0  0
 22 42  1  0  0  0  0
 23 50  1  0  0  0  0
 24 43  1  0  0  0  0
 25 58  1  0  0  0  0
 26 70  1  0  0  0  0
 27 80  1  0  0  0  0
 28 81  1  0  0  0  0
 29 31  2  0  0  0  0
 29 80  1  0  0  0  0
 30 82  1  0  0  0  0
 31 83  1  0  0  0  0
 32 63  2  0  0  0  0
 33 65  1  0  0  0  0
 33 68  1  0  0  0  0
 34 58  1  0  0  0  0
 34 64  2  0  0  0  0
 35 69  1  0  0  0  0
 35 74  2  0  0  0  0
 36 51  1  0  0  0  0
 36 71  1  0  0  0  0
 36 75  2  0  0  0  0
 37 59  1  0  0  0  0
 37 64  1  0  0  0  0
 37 76  2  0  0  0  0
 38 60  1  0  0  0  0
 38 66  1  0  0  0  0
 38 77  2  0  0  0  0
 39 61  1  0  0  0  0
 39 72  1  0  0  0  0
 39 78  2  0  0  0  0
 40 67  1  0  0  0  0
 40 70  1  0  0  0  0
 40 79  2  0  0  0  0
 41 44  1  0  0  0  0
 42 51  1  0  0  0  0
 43 66  1  0  0  0  0
 44 46  1  0  0  0  0
 45 47  1  0  0  0  0
 45 48  1  0  0  0  0
 46 50  1  0  0  0  0
 47 52  1  0  0  0  0
 48 67  1  0  0  0  0
 49 52  1  0  0  0  0
 49 67  1  0  0  0  0
 50 71  1  0  0  0  0
 51 66  1  0  0  0  0
 52 65  1  0  0  0  0
 53 61  1  0  0  0  0
 54 62  1  0  0  0  0
 55 62  1  0  0  0  0
 56 62  1  0  0  0  0
 57 73  1  0  0  0  0
 59 81  1  0  0  0  0
 60 62  1  0  0  0  0
 60 72  1  0  0  0  0
 61 73  1  0  0  0  0
 63 65  1  0  0  0  0
M  CHG  1  73   1
M  ISO  4  40 100  59 101  70 100  81 101
M  END
> <Batch ID>
0077

> <Smiles>
CNC(C)C(=O)NC(C(=O)N1Cc2cc([101O:1][101CH2:1]C(=O)NC=Cc3ccc([100NH:0][100C:0](=O)N4CCCC(n5nc(-c6ccc(Oc7ccc(F)cc7F)cc6)c(C(N)=O)c5N)C4)cc3)ccc2CC1C(=O)NC1CCCc2ccccc21)C(C)(C)C

> <Shape>
0.303

> <Color>
0.088

> <Negative vol penalty>
0.000

$$$$

  -OEChem-04042323533D

 86 95  0     1  0  0  0  0  0999 V2000
  -21.9690  -11.9612   19.0428 C   0  0  0  0  0  0  0  0  0  0  0  0
  -21.7453  -13.2567   19.4979 C   0  0  0  0  0  0  0  0  0  0  0  0
  -26.8635  -26.9173   16.0839 C   0  0  0  0  0  0  0  0  0  0  0  0
  -28.8920  -26.7929   17.3903 C   0  0  0  0  0  0  0  0  0  0  0  0
  -23.1987  -11.3455   19.2723 C   0  0  0  0  0  0  0  0  0  0  0  0
  -22.7509  -13.9368   20.1838 C   0  0  0  0  0  0  0  0  0  0  0  0
  -23.2879  -18.7184   18.6048 C   0  0  0  0  0  0  0  0  0  0  0  0
  -27.6080  -26.7685   14.9138 C   0  0  0  0  0  0  0  0  0  0  0  0
  -29.6365  -26.6440   16.2201 C   0  0  0  0  0  0  0  0  0  0  0  0
  -22.3560  -19.6487   19.0630 C   0  0  0  0  0  0  0  0  0  0  0  0
  -32.0348  -25.8696   13.5997 C   0  0  0  0  0  0  0  0  0  0  0  0
  -33.0269  -24.8894   13.5817 C   0  0  0  0  0  0  0  0  0  0  0  0
  -18.7031  -27.6317   23.5882 C   0  0  0  0  0  0  0  0  0  0  0  0
  -18.3484  -26.3298   23.1305 C   0  0  0  0  0  0  0  0  0  0  0  0
  -23.9375  -20.4081   20.7187 C   0  0  0  0  0  0  0  0  0  0  0  0
  -31.3599  -23.1941   14.0109 C   0  0  0  0  0  0  0  0  0  0  0  0
  -27.5056  -26.9295   17.3222 C   0  0  0  0  0  0  0  0  0  0  0  0
  -26.1702  -26.0606   19.3145 C   0  0  0  0  0  0  0  0  0  0  0  0
  -24.2232  -12.0220   19.9530 C   0  0  0  0  0  0  0  0  0  0  0  0
  -24.5497  -18.6183   19.2082 C   0  0  0  0  0  0  0  0  0  0  0  0
  -23.9950  -13.3291   20.4239 C   0  0  0  0  0  0  0  0  0  0  0  0
  -24.8844  -19.4775   20.2646 C   0  0  0  0  0  0  0  0  0  0  0  0
  -28.9944  -26.6318   14.9819 C   0  0  0  0  0  0  0  0  0  0  0  0
  -22.6797  -20.4918   20.1220 C   0  0  0  0  0  0  0  0  0  0  0  0
  -30.7051  -25.5121   13.8234 C   0  0  0  0  0  0  0  0  0  0  0  0
  -32.6895  -23.5516   13.7872 C   0  0  0  0  0  0  0  0  0  0  0  0
  -30.3677  -24.1744   14.0290 C   0  0  0  0  0  0  0  0  0  0  0  0
  -26.7372  -27.0838   18.5313 C   0  0  0  0  0  0  0  0  0  0  0  0
  -19.8144  -28.1233   22.9393 C   0  0  0  0  0  0  0  0  0  0  0  0
  -25.5480  -26.7219   20.3451 C   0  0  0  0  0  0  0  0  0  0  0  0
  -19.2020  -25.8761   22.1489 C   0  0  0  0  0  0  0  0  0  0  0  0
  -18.5820  -22.7827   20.3900 C   0  0  0  0  0  0  0  0  0  0  0  0
  -19.9070  -22.8585   20.2841 C   0  0  0  0  0  0  0  0  0  0  0  0
  -18.1068  -23.9504   21.1456 C   0  0  0  0  0  0  0  0  0  0  0  0
  -20.3524  -24.0957   20.9542 C   0  0  0  0  0  0  0  0  0  0  0  0
  -26.2030  -24.6395   19.1273 C   0  0  0  0  0  0  0  0  0  0  0  0
  -20.4985  -29.4293   23.1214 C   0  0  0  0  0  0  0  0  0  0  0  0
  -26.1112  -16.3374   20.7774 C   0  0  0  0  0  0  0  0  0  0  0  0
  -28.5527  -18.4700   20.6615 C   0  0  0  0  0  0  0  0  0  0  0  0
  -29.5478  -21.7221   20.3772 C   0  0  0  0  0  0  0  0  0  0  0  0
  -22.3690  -30.8210   22.2919 C   0  0  0  0  0  0  0  0  0  0  0  0
  -25.5193  -11.2980   20.2188 C   0  0  0  0  0  0  0  0  0  0  0  0
  -25.5533  -17.6278   18.6847 C   0  0  0  0  0  0  0  0  0  0  0  0
  -26.2329  -19.4240   20.9334 C   0  0  0  0  0  0  0  0  0  0  0  0
  -26.6623  -12.2246   20.6256 C   0  0  0  0  0  0  0  0  0  0  0  0
  -25.7814  -31.5785   21.7639 C   0  0  0  0  0  0  0  0  0  0  0  0
  -26.1944  -13.2152   21.6870 C   0  0  0  0  0  0  0  0  0  0  0  0
  -26.2930  -30.3892   20.9464 C   0  0  0  0  0  0  0  0  0  0  0  0
  -24.3597  -31.9716   21.3650 C   0  0  0  0  0  0  0  0  0  0  0  0
  -23.8951  -29.6920   20.5616 C   0  0  0  0  0  0  0  0  0  0  0  0
  -25.0697  -14.1087   21.1502 C   0  0  1  0  0  0  0  0  0  0  0  0
  -26.6227  -17.2624   19.7095 C   0  0  1  0  0  0  0  0  0  0  0  0
  -25.2964  -29.2131   20.9743 C   0  0  1  0  0  0  0  0  0  0  0  0
  -31.1198  -23.6642   20.1439 C   0  0  0  0  0  0  0  0  0  0  0  0
  -28.7863  -18.1776   23.6897 C   0  0  0  0  0  0  0  0  0  0  0  0
  -30.1531  -20.2750   23.7169 C   0  0  0  0  0  0  0  0  0  0  0  0
  -30.9725  -18.2704   22.4788 C   0  0  0  0  0  0  0  0  0  0  0  0
  -29.5327  -21.5289   17.4240 C   0  0  0  0  0  0  0  0  0  0  0  0
  -20.8441  -21.9177   19.6188 C   0  0  0  0  0  0  0  0  0  1  0  0
  -29.0319  -19.5956   21.5461 C   0  0  1  0  0  0  0  0  0  0  0  0
  -30.6081  -22.3790   19.5120 C   0  0  2  0  0  0  0  0  0  0  0  0
  -29.7098  -19.0796   22.8467 C   0  0  0  0  0  0  0  0  0  0  0  0
  -26.4964  -28.3024   19.0221 N   0  0  0  0  0  0  0  0  0  0  0  0
  -25.7712  -28.0493   20.1249 N   0  0  0  0  0  0  0  0  0  0  0  0
  -19.2191  -24.7063   21.4555 N   0  0  0  0  0  0  0  0  0  0  0  0
  -27.1776  -18.4344   20.3897 N   0  0  0  0  0  0  0  0  0  0  0  0
  -23.4769  -30.8054   21.4266 N   0  0  0  0  0  0  0  0  0  0  0  0
  -24.8373  -26.2917   21.4091 N   0  0  0  0  0  0  0  0  0  0  0  0
  -26.8865  -24.1276   18.0159 N   0  0  0  0  0  0  0  0  0  0  0  0
  -21.6126  -29.6439   22.3095 N   0  0  0  0  0  0  0  0  0  0  0  0
  -25.6106  -15.1432   20.2949 N   0  0  0  0  0  0  0  0  0  0  0  0
  -29.8923  -20.4303   20.7145 N   0  0  0  0  0  0  0  0  0  0  0  0
  -30.0513  -22.7052   18.1686 N   0  3  0  0  0  0  0  0  0  0  0  0
  -16.9330  -24.1519   21.4121 O   0  0  0  0  0  0  0  0  0  0  0  0
  -21.5161  -24.4581   21.0226 O   0  0  0  0  0  0  0  0  0  0  0  0
  -25.6290  -23.8480   19.9131 O   0  0  0  0  0  0  0  0  0  0  0  0
  -20.0383  -30.2391   23.9216 O   0  0  0  0  0  0  0  0  0  0  0  0
  -26.1680  -16.6809   21.9523 O   0  0  0  0  0  0  0  0  0  0  0  0
  -29.3693  -17.6567   20.2219 O   0  0  0  0  0  0  0  0  0  0  0  0
  -28.5188  -22.2985   20.7226 O   0  0  0  0  0  0  0  0  0  0  0  0
  -22.0983  -31.7851   23.0148 O   0  0  0  0  0  0  0  0  0  0  0  0
  -29.7212  -26.4864   13.8402 O   0  0  0  0  0  0  0  0  0  0  0  0
  -21.7718  -21.4003   20.5717 O   0  0  0  0  0  0  0  0  0  1  0  0
  -33.6422  -22.6102   13.7683 F   0  0  0  0  0  0  0  0  0  0  0  0
  -29.0919  -23.8247   14.2432 F   0  0  0  0  0  0  0  0  0  0  0  0
  -20.4251  -27.0174   21.7833 S   0  0  0  0  0  0  0  0  0  0  0  0
  1  2  1  0  0  0  0
  1  5  2  0  0  0  0
  2  6  2  0  0  0  0
  3  8  2  0  0  0  0
  3 17  1  0  0  0  0
  4  9  1  0  0  0  0
  4 17  2  0  0  0  0
  5 19  1  0  0  0  0
  6 21  1  0  0  0  0
  7 10  2  0  0  0  0
  7 20  1  0  0  0  0
  8 23  1  0  0  0  0
  9 23  2  0  0  0  0
 10 24  1  0  0  0  0
 11 12  2  0  0  0  0
 11 25  1  0  0  0  0
 12 26  1  0  0  0  0
 13 14  1  0  0  0  0
 13 29  2  0  0  0  0
 14 31  2  0  0  0  0
 15 22  1  0  0  0  0
 15 24  2  0  0  0  0
 16 26  2  0  0  0  0
 16 27  1  0  0  0  0
 17 28  1  0  0  0  0
 18 28  1  0  0  0  0
 18 30  2  0  0  0  0
 18 36  1  0  0  0  0
 19 21  2  0  0  0  0
 19 42  1  0  0  0  0
 20 22  2  0  0  0  0
 20 43  1  0  0  0  0
 21 51  1  0  0  0  0
 22 44  1  0  0  0  0
 23 82  1  0  0  0  0
 24 83  1  0  0  0  0
 25 27  2  0  0  0  0
 25 82  1  0  0  0  0
 26 84  1  0  0  0  0
 27 85  1  0  0  0  0
 28 63  2  0  0  0  0
 29 37  1  0  0  0  0
 29 86  1  0  0  0  0
 30 64  1  0  0  0  0
 30 68  1  0  0  0  0
 31 65  1  0  0  0  0
 31 86  1  0  0  0  0
 32 33  2  0  0  0  0
 32 34  1  0  0  0  0
 33 35  1  0  0  0  0
 33 59  1  0  0  0  0
 34 65  1  0  0  0  0
 34 74  2  0  0  0  0
 35 65  1  0  0  0  0
 35 75  2  0  0  0  0
 36 69  1  0  0  0  0
 36 76  2  0  0  0  0
 37 70  1  0  0  0  0
 37 77  2  0  0  0  0
 38 52  1  0  0  0  0
 38 71  1  0  0  0  0
 38 78  2  0  0  0  0
 39 60  1  0  0  0  0
 39 66  1  0  0  0  0
 39 79  2  0  0  0  0
 40 61  1  0  0  0  0
 40 72  1  0  0  0  0
 40 80  2  0  0  0  0
 41 67  1  0  0  0  0
 41 70  1  0  0  0  0
 41 81  2  0  0  0  0
 42 45  1  0  0  0  0
 43 52  1  0  0  0  0
 44 66  1  0  0  0  0
 45 47  1  0  0  0  0
 46 48  1  0  0  0  0
 46 49  1  0  0  0  0
 47 51  1  0  0  0  0
 48 53  1  0  0  0  0
 49 67  1  0  0  0  0
 50 53  1  0  0  0  0
 50 67  1  0  0  0  0
 51 71  1  0  0  0  0
 52 66  1  0  0  0  0
 53 64  1  0  0  0  0
 54 61  1  0  0  0  0
 55 62  1  0  0  0  0
 56 62  1  0  0  0  0
 57 62  1  0  0  0  0
 58 73  1  0  0  0  0
 59 83  1  0  0  0  0
 60 62  1  0  0  0  0
 60 72  1  0  0  0  0
 61 73  1  0  0  0  0
 63 64  1  0  0  0  0
M  CHG  1  73   1
M  ISO  4  41 100  59 101  70 100  83 101
M  END
> <Batch ID>
0077

> <Smiles>
CNC(C)C(=O)NC(C(=O)N1Cc2cc([101O:1][101CH2:1]C3=CC(=O)N(c4ccc(C(=O)[100NH:0][100C:0](=O)N5CCCC(n6nc(-c7ccc(Oc8ccc(F)cc8F)cc7)c(C(N)=O)c6N)C5)s4)C3=O)ccc2CC1C(=O)NC1CCCc2ccccc21)C(C)(C)C

> <Shape>
0.220

> <Color>
0.093

> <Negative vol penalty>
0.000

$$$$

  -OEChem-04042323533D

 89 98  0     1  0  0  0  0  0999 V2000
  -16.9369  -29.5937   24.6378 C   0  0  0  0  0  0  0  0  0  0  0  0
  -18.1722  -30.1291   24.9848 C   0  0  0  0  0  0  0  0  0  0  0  0
  -26.5175  -13.3311   21.2476 C   0  0  0  0  0  0  0  0  0  0  0  0
  -26.5127  -15.7430   21.3892 C   0  0  0  0  0  0  0  0  0  0  0  0
  -16.8547  -28.6390   23.6263 C   0  0  0  0  0  0  0  0  0  0  0  0
  -19.3240  -29.7190   24.3124 C   0  0  0  0  0  0  0  0  0  0  0  0
  -27.0602  -29.3792   22.5073 C   0  0  0  0  0  0  0  0  0  0  0  0
  -31.3896  -23.0552   18.6103 C   0  0  0  0  0  0  0  0  0  0  0  0
  -31.3104  -23.2070   16.2004 C   0  0  0  0  0  0  0  0  0  0  0  0
  -31.4380  -21.6641   18.5212 C   0  0  0  0  0  0  0  0  0  0  0  0
  -31.3589  -21.8158   16.1112 C   0  0  0  0  0  0  0  0  0  0  0  0
  -25.2314  -13.2969   21.7863 C   0  0  0  0  0  0  0  0  0  0  0  0
  -25.2265  -15.7088   21.9278 C   0  0  0  0  0  0  0  0  0  0  0  0
  -28.0216  -28.5919   21.8752 C   0  0  0  0  0  0  0  0  0  0  0  0
  -23.8013  -13.5623   24.8373 C   0  0  0  0  0  0  0  0  0  0  0  0
  -23.5445  -12.6285   25.8410 C   0  0  0  0  0  0  0  0  0  0  0  0
  -26.7013  -28.6111   19.8564 C   0  0  0  0  0  0  0  0  0  0  0  0
  -21.8331  -11.6206   24.4654 C   0  0  0  0  0  0  0  0  0  0  0  0
  -27.1583  -14.5542   21.0491 C   0  0  0  0  0  0  0  0  0  0  0  0
  -29.6482  -13.9996   21.0272 C   0  0  0  0  0  0  0  0  0  0  0  0
  -18.0082  -28.2084   22.9502 C   0  0  0  0  0  0  0  0  0  0  0  0
  -25.9049  -29.7800   21.8209 C   0  0  0  0  0  0  0  0  0  0  0  0
  -19.2586  -28.7742   23.2724 C   0  0  0  0  0  0  0  0  0  0  0  0
  -25.7280  -29.4056   20.4812 C   0  0  0  0  0  0  0  0  0  0  0  0
  -31.3257  -23.8267   17.4499 C   0  0  0  0  0  0  0  0  0  0  0  0
  -31.4227  -21.0444   17.2716 C   0  0  0  0  0  0  0  0  0  0  0  0
  -24.5858  -14.4858   22.1264 C   0  0  0  0  0  0  0  0  0  0  0  0
  -27.8409  -28.2053   20.5505 C   0  0  0  0  0  0  0  0  0  0  0  0
  -23.0740  -13.5254   23.6476 C   0  0  0  0  0  0  0  0  0  0  0  0
  -22.5604  -11.6576   25.6551 C   0  0  0  0  0  0  0  0  0  0  0  0
  -22.0899  -12.5545   23.4617 C   0  0  0  0  0  0  0  0  0  0  0  0
  -28.4871  -14.5901   20.4933 C   0  0  0  0  0  0  0  0  0  0  0  0
  -30.6391  -14.3197   20.1316 C   0  0  0  0  0  0  0  0  0  0  0  0
  -31.8904  -28.0254   17.8958 C   0  0  0  0  0  0  0  0  0  0  0  0
  -30.7715  -27.4099   18.6246 C   0  0  0  0  0  0  0  0  0  0  0  0
  -32.5489  -27.2241   16.8540 C   0  0  0  0  0  0  0  0  0  0  0  0
  -30.6801  -25.9026   18.6512 C   0  0  0  0  0  0  0  0  0  0  0  0
  -33.7823  -27.4297   16.3622 C   0  0  0  0  0  0  0  0  0  0  0  0
  -32.2941  -29.2818   18.1728 C   0  0  0  0  0  0  0  0  0  0  0  0
  -29.7934  -28.0675   19.2701 C   0  0  0  0  0  0  0  0  0  1  0  0
  -29.8159  -13.2305   22.2255 C   0  0  0  0  0  0  0  0  0  0  0  0
  -22.7868  -29.2953   22.2033 C   0  0  0  0  0  0  0  0  0  0  0  0
  -22.5534  -31.4119   19.7564 C   0  0  0  0  0  0  0  0  0  0  0  0
  -24.2654  -32.0364   16.6425 C   0  0  0  0  0  0  0  0  0  0  0  0
  -30.8616  -18.9168   16.1082 C   0  0  0  0  0  0  0  0  0  0  0  0
  -17.8607  -27.1783   21.8582 C   0  0  0  0  0  0  0  0  0  0  0  0
  -24.8900  -30.6514   22.5087 C   0  0  0  0  0  0  0  0  0  0  0  0
  -24.5150  -29.8264   19.6938 C   0  0  0  0  0  0  0  0  0  0  0  0
  -31.7076  -26.0627   16.3811 C   0  0  0  0  0  0  0  0  0  0  0  0
  -19.1751  -26.4861   21.5125 C   0  0  0  0  0  0  0  0  0  0  0  0
  -31.3495  -15.3091   15.5111 C   0  0  0  0  0  0  0  0  0  0  0  0
  -20.2664  -27.5229   21.2922 C   0  0  0  0  0  0  0  0  0  0  0  0
  -30.7086  -14.6704   16.7421 C   0  0  0  0  0  0  0  0  0  0  0  0
  -30.6898  -16.6375   15.1532 C   0  0  0  0  0  0  0  0  0  0  0  0
  -30.0154  -16.9754   17.5114 C   0  0  0  0  0  0  0  0  0  0  0  0
  -20.5288  -28.3208   22.5758 C   0  0  1  0  0  0  0  0  0  0  0  0
  -23.5056  -30.5726   21.8726 C   0  0  1  0  0  0  0  0  0  0  0  0
  -30.6866  -15.6563   17.9230 C   0  0  1  0  0  0  0  0  0  0  0  0
  -33.4162  -29.9597   17.4735 C   0  0  0  0  0  0  0  0  0  0  0  0
  -24.5406  -34.1566   15.3286 C   0  0  0  0  0  0  0  0  0  0  0  0
  -20.0878  -30.4495   18.2383 C   0  0  0  0  0  0  0  0  0  0  0  0
  -21.1229  -31.3328   16.1367 C   0  0  0  0  0  0  0  0  0  0  0  0
  -20.5699  -32.8923   18.0035 C   0  0  0  0  0  0  0  0  0  0  0  0
  -32.3739  -18.8761   18.0782 C   0  0  0  0  0  0  0  0  0  0  0  0
  -27.2146  -31.7892   16.6404 C   0  0  0  0  0  0  0  0  0  0  0  0
  -22.5233  -31.3064   18.2507 C   0  0  1  0  0  0  0  0  0  0  0  0
  -25.1812  -33.2054   16.3274 C   0  0  2  0  0  0  0  0  0  0  0  0
  -21.0897  -31.4761   17.6733 C   0  0  0  0  0  0  0  0  0  0  0  0
  -28.7176  -15.2365   19.3474 N   0  0  0  0  0  0  0  0  0  0  0  0
  -30.0349  -15.0542   19.1540 N   0  0  0  0  0  0  0  0  0  0  0  0
  -31.2753  -25.2644   17.5419 N   0  0  0  0  0  0  0  0  0  0  0  0
  -23.5481  -30.6728   20.4123 N   0  0  0  0  0  0  0  0  0  0  0  0
  -30.6409  -17.5388   16.3051 N   0  0  0  0  0  0  0  0  0  0  0  0
  -31.9596  -14.0418   20.0929 N   0  0  0  0  0  0  0  0  0  0  0  0
  -30.1296  -13.9045   23.4136 N   0  0  0  0  0  0  0  0  0  0  0  0
  -21.4128  -29.4247   22.2730 N   0  0  0  0  0  0  0  0  0  0  0  0
  -23.4871  -32.2823   17.7538 N   0  0  0  0  0  0  0  0  0  0  0  0
  -31.4728  -19.6043   17.1789 N   0  0  0  0  0  0  0  0  0  0  0  0
  -26.4665  -32.7165   15.7531 N   0  3  0  0  0  0  0  0  0  0  0  0
  -30.0979  -25.3412   19.5785 O   0  0  0  0  0  0  0  0  0  0  0  0
  -29.7075  -11.9809   22.2389 O   0  0  0  0  0  0  0  0  0  0  0  0
  -23.4309  -28.2680   22.3807 O   0  0  0  0  0  0  0  0  0  0  0  0
  -21.7294  -32.1295   20.3289 O   0  0  0  0  0  0  0  0  0  0  0  0
  -24.2402  -31.0094   15.9678 O   0  0  0  0  0  0  0  0  0  0  0  0
  -30.5634  -19.4804   15.0485 O   0  0  0  0  0  0  0  0  0  0  0  0
  -23.3307  -14.4528   22.6518 O   0  0  0  0  0  0  0  0  0  0  0  0
  -28.7775  -27.4363   19.9313 O   0  0  0  0  0  0  0  0  0  1  0  0
  -22.3149  -10.7599   26.6185 F   0  0  0  0  0  0  0  0  0  0  0  0
  -21.3887  -12.5133   22.3204 F   0  0  0  0  0  0  0  0  0  0  0  0
  1  2  1  0  0  0  0
  1  5  2  0  0  0  0
  2  6  2  0  0  0  0
  3 12  2  0  0  0  0
  3 19  1  0  0  0  0
  4 13  1  0  0  0  0
  4 19  2  0  0  0  0
  5 21  1  0  0  0  0
  6 23  1  0  0  0  0
  7 14  2  0  0  0  0
  7 22  1  0  0  0  0
  8 10  2  0  0  0  0
  8 25  1  0  0  0  0
  9 11  1  0  0  0  0
  9 25  2  0  0  0  0
 10 26  1  0  0  0  0
 11 26  2  0  0  0  0
 12 27  1  0  0  0  0
 13 27  2  0  0  0  0
 14 28  1  0  0  0  0
 15 16  2  0  0  0  0
 15 29  1  0  0  0  0
 16 30  1  0  0  0  0
 17 24  1  0  0  0  0
 17 28  2  0  0  0  0
 18 30  2  0  0  0  0
 18 31  1  0  0  0  0
 19 32  1  0  0  0  0
 20 32  1  0  0  0  0
 20 33  2  0  0  0  0
 20 41  1  0  0  0  0
 21 23  2  0  0  0  0
 21 46  1  0  0  0  0
 22 24  2  0  0  0  0
 22 47  1  0  0  0  0
 23 56  1  0  0  0  0
 24 48  1  0  0  0  0
 25 71  1  0  0  0  0
 26 78  1  0  0  0  0
 27 86  1  0  0  0  0
 28 87  1  0  0  0  0
 29 31  2  0  0  0  0
 29 86  1  0  0  0  0
 30 88  1  0  0  0  0
 31 89  1  0  0  0  0
 32 69  2  0  0  0  0
 33 70  1  0  0  0  0
 33 74  1  0  0  0  0
 34 35  1  0  0  0  0
 34 36  1  0  0  0  0
 34 39  2  0  0  0  0
 35 37  1  0  0  0  0
 35 40  2  0  0  0  0
 36 38  2  0  0  0  0
 36 49  1  0  0  0  0
 37 71  1  0  0  0  0
 37 80  2  0  0  0  0
 39 59  1  0  0  0  0
 40 87  1  0  0  0  0
 41 75  1  0  0  0  0
 41 81  2  0  0  0  0
 42 57  1  0  0  0  0
 42 76  1  0  0  0  0
 42 82  2  0  0  0  0
 43 66  1  0  0  0  0
 43 72  1  0  0  0  0
 43 83  2  0  0  0  0
 44 67  1  0  0  0  0
 44 77  1  0  0  0  0
 44 84  2  0  0  0  0
 45 73  1  0  0  0  0
 45 78  1  0  0  0  0
 45 85  2  0  0  0  0
 46 50  1  0  0  0  0
 47 57  1  0  0  0  0
 48 72  1  0  0  0  0
 49 71  1  0  0  0  0
 50 52  1  0  0  0  0
 51 53  1  0  0  0  0
 51 54  1  0  0  0  0
 52 56  1  0  0  0  0
 53 58  1  0  0  0  0
 54 73  1  0  0  0  0
 55 58  1  0  0  0  0
 55 73  1  0  0  0  0
 56 76  1  0  0  0  0
 57 72  1  0  0  0  0
 58 70  1  0  0  0  0
 60 67  1  0  0  0  0
 61 68  1  0  0  0  0
 62 68  1  0  0  0  0
 63 68  1  0  0  0  0
 64 78  1  0  0  0  0
 65 79  1  0  0  0  0
 66 68  1  0  0  0  0
 66 77  1  0  0  0  0
 67 79  1  0  0  0  0
 69 70  1  0  0  0  0
M  CHG  1  79   1
M  ISO  4  40 101  45 100  78 100  87 101
M  END
> <Batch ID>
0077

> <Smiles>
C=C1CN(c2ccc([100N:0](C)[100C:0](=O)N3CCCC(n4nc(-c5ccc(Oc6ccc(F)cc6F)cc5)c(C(N)=O)c4N)C3)cc2)C(=O)C(=[101CH:1][101O:1]c2ccc3c(c2)CN(C(=O)C(NC(=O)C(C)NC)C(C)(C)C)C(C(=O)NC2CCCc4ccccc42)C3)C1=CC

> <Shape>
0.229

> <Color>
0.115

> <Negative vol penalty>
0.000

$$$$

  -OEChem-04042323533D

 84 92  0     1  0  0  0  0  0999 V2000
  -37.5639  -31.9192   27.5310 C   0  0  0  0  0  0  0  0  0  0  0  0
  -37.3555  -30.5461   27.6123 C   0  0  0  0  0  0  0  0  0  0  0  0
  -23.1202   -9.8269   20.0989 C   0  0  0  0  0  0  0  0  0  0  0  0
  -23.8420  -10.0286   22.3957 C   0  0  0  0  0  0  0  0  0  0  0  0
  -30.3615  -18.6853   23.6119 C   0  0  0  0  0  0  0  0  0  0  0  0
  -36.5802  -32.7411   26.9826 C   0  0  0  0  0  0  0  0  0  0  0  0
  -36.1627  -29.9943   27.1463 C   0  0  0  0  0  0  0  0  0  0  0  0
  -35.4334  -24.5426   24.4532 C   0  0  0  0  0  0  0  0  0  0  0  0
  -29.7977  -17.7240   22.7730 C   0  0  0  0  0  0  0  0  0  0  0  0
  -22.3832   -8.6900   20.4303 C   0  0  0  0  0  0  0  0  0  0  0  0
  -23.1050   -8.8917   22.7272 C   0  0  0  0  0  0  0  0  0  0  0  0
  -35.0130  -23.3052   24.9389 C   0  0  0  0  0  0  0  0  0  0  0  0
  -19.8749   -8.1111   23.3421 C   0  0  0  0  0  0  0  0  0  0  0  0
  -19.0992   -8.1585   24.5003 C   0  0  0  0  0  0  0  0  0  0  0  0
  -32.7717  -23.7760   24.1811 C   0  0  0  0  0  0  0  0  0  0  0  0
  -31.9994  -16.8544   22.2898 C   0  0  0  0  0  0  0  0  0  0  0  0
  -20.3464   -6.3008   25.4116 C   0  0  0  0  0  0  0  0  0  0  0  0
  -23.8497  -10.4962   21.0815 C   0  0  0  0  0  0  0  0  0  0  0  0
  -31.7443  -18.7311   23.7897 C   0  0  0  0  0  0  0  0  0  0  0  0
  -24.1697  -13.0067   20.7614 C   0  0  0  0  0  0  0  0  0  0  0  0
  -35.3787  -32.1980   26.5009 C   0  0  0  0  0  0  0  0  0  0  0  0
  -34.5222  -25.4120   23.8365 C   0  0  0  0  0  0  0  0  0  0  0  0
  -35.1615  -30.8099   26.5923 C   0  0  0  0  0  0  0  0  0  0  0  0
  -33.1836  -25.0227   23.6861 C   0  0  0  0  0  0  0  0  0  0  0  0
  -30.6166  -16.8085   22.1120 C   0  0  0  0  0  0  0  0  0  0  0  0
  -22.3755   -8.2224   21.7445 C   0  0  0  0  0  0  0  0  0  0  0  0
  -33.6814  -22.9229   24.8055 C   0  0  0  0  0  0  0  0  0  0  0  0
  -20.8864   -7.1585   23.2185 C   0  0  0  0  0  0  0  0  0  0  0  0
  -19.3349   -7.2534   25.5351 C   0  0  0  0  0  0  0  0  0  0  0  0
  -32.5632  -17.8157   23.1287 C   0  0  0  0  0  0  0  0  0  0  0  0
  -21.1222   -6.2534   24.2533 C   0  0  0  0  0  0  0  0  0  0  0  0
  -24.6117  -11.6703   20.7396 C   0  0  0  0  0  0  0  0  0  0  0  0
  -25.2606  -13.7358   20.3554 C   0  0  0  0  0  0  0  0  0  0  0  0
  -32.3381  -19.7544   24.6783 C   0  0  0  0  0  0  0  0  0  0  0  0
  -22.8877  -13.5413   21.1169 C   0  0  0  0  0  0  0  0  0  0  0  0
  -33.4376  -28.3344   24.4585 C   0  0  0  0  0  0  0  0  0  0  0  0
  -31.9754  -27.9811   21.5845 C   0  0  0  0  0  0  0  0  0  0  0  0
  -30.7449  -25.8727   19.1996 C   0  0  0  0  0  0  0  0  0  0  0  0
  -30.7132  -14.8505   20.5299 C   0  0  0  0  0  0  0  0  0  0  0  0
  -34.3253  -33.1319   25.9598 C   0  0  0  0  0  0  0  0  0  0  0  0
  -34.9972  -26.7321   23.2940 C   0  0  0  0  0  0  0  0  0  0  0  0
  -32.1701  -25.9111   23.0136 C   0  0  0  0  0  0  0  0  0  0  0  0
  -33.2445  -32.4249   25.1460 C   0  0  0  0  0  0  0  0  0  0  0  0
  -29.6607  -12.2402   18.3492 C   0  0  0  0  0  0  0  0  0  0  0  0
  -32.7534  -31.1801   25.8783 C   0  0  0  0  0  0  0  0  0  0  0  0
  -28.2169  -11.9692   18.7785 C   0  0  0  0  0  0  0  0  0  0  0  0
  -30.5536  -12.5758   19.5423 C   0  0  0  0  0  0  0  0  0  0  0  0
  -28.6175  -13.3898   20.8299 C   0  0  0  0  0  0  0  0  0  0  0  0
  -33.8910  -30.1708   26.0749 C   0  0  1  0  0  0  0  0  0  0  0  0
  -33.8751  -27.7546   23.1431 C   0  0  1  0  0  0  0  0  0  0  0  0
  -27.6659  -13.1109   19.6550 C   0  0  2  0  0  0  0  0  0  0  0  0
  -29.5743  -25.8781   16.9800 C   0  0  0  0  0  0  0  0  0  0  0  0
  -32.0229  -17.9844   26.4354 C   0  0  0  0  0  0  0  0  0  0  0  0
  -31.6886  -20.4051   27.0024 C   0  0  0  0  0  0  0  0  0  0  0  0
  -33.9921  -19.4906   26.6497 C   0  0  0  0  0  0  0  0  0  0  0  0
  -29.3525  -28.6914   22.9722 C   0  0  0  0  0  0  0  0  0  0  0  0
  -28.1342  -27.7691   20.9890 C   0  0  0  0  0  0  0  0  0  0  0  0
  -29.6536  -29.7287   20.7166 C   0  0  0  0  0  0  0  0  0  0  0  0
  -32.9902  -24.4656   17.8814 C   0  0  0  0  0  0  0  0  0  0  0  0
  -30.6450  -27.4384   21.1214 C   0  0  1  0  0  0  0  0  0  0  0  0
  -30.9179  -25.8470   17.6917 C   0  0  2  0  0  0  0  0  0  0  0  0
  -32.5298  -19.4167   26.1792 C   0  0  0  0  0  0  0  0  0  0  0  0
  -29.4648  -28.3907   21.4643 C   0  0  0  0  0  0  0  0  0  0  0  0
  -25.8841  -11.5543   20.3504 N   0  0  0  0  0  0  0  0  0  0  0  0
  -32.7410  -20.9162   24.2501 N   0  0  0  0  0  0  0  0  0  1  0  0
  -26.2510  -12.8271   20.1238 N   0  0  0  0  0  0  0  0  0  0  0  0
  -32.6819  -27.1945   22.5053 N   0  0  0  0  0  0  0  0  0  0  0  0
  -29.9706  -13.6686   20.3239 N   0  0  0  0  0  0  0  0  0  0  0  0
  -25.4597  -15.0590   20.1773 N   0  0  0  0  0  0  0  0  0  0  0  0
  -21.8790  -12.6518   21.5113 N   0  0  0  0  0  0  0  0  0  0  0  0
  -30.0437  -15.8321   21.2599 N   0  0  0  0  0  0  0  0  0  0  0  0
  -34.1492  -29.4543   24.8442 N   0  0  0  0  0  0  0  0  0  0  0  0
  -30.7920  -27.1578   19.6973 N   0  0  0  0  0  0  0  0  0  0  0  0
  -31.6423  -24.6133   17.2744 N   0  3  0  0  0  0  0  0  0  0  0  0
  -22.6390  -14.7699   21.0700 O   0  0  0  0  0  0  0  0  0  0  0  0
  -32.5211  -27.8058   25.0768 O   0  0  0  0  0  0  0  0  0  0  0  0
  -32.3764  -29.0596   21.1400 O   0  0  0  0  0  0  0  0  0  0  0  0
  -30.5805  -24.8550   19.8687 O   0  0  0  0  0  0  0  0  0  0  0  0
  -31.8482  -14.9927   20.0678 O   0  0  0  0  0  0  0  0  0  0  0  0
  -21.6562   -7.1132   22.0683 O   0  0  0  0  0  0  0  0  0  0  0  0
  -33.2683  -21.7160   25.2792 O   0  0  0  0  0  0  0  0  0  1  0  0
  -18.5909   -7.3000   26.6480 F   0  0  0  0  0  0  0  0  0  0  0  0
  -33.8935  -17.8507   23.2917 F   0  0  0  0  0  0  0  0  0  0  0  0
  -22.0932   -5.3367   24.1409 F   0  0  0  0  0  0  0  0  0  0  0  0
  1  2  1  0  0  0  0
  1  6  2  0  0  0  0
  2  7  2  0  0  0  0
  3 10  2  0  0  0  0
  3 18  1  0  0  0  0
  4 11  1  0  0  0  0
  4 18  2  0  0  0  0
  5  9  2  0  0  0  0
  5 19  1  0  0  0  0
  6 21  1  0  0  0  0
  7 23  1  0  0  0  0
  8 12  2  0  0  0  0
  8 22  1  0  0  0  0
  9 25  1  0  0  0  0
 10 26  1  0  0  0  0
 11 26  2  0  0  0  0
 12 27  1  0  0  0  0
 13 14  2  0  0  0  0
 13 28  1  0  0  0  0
 14 29  1  0  0  0  0
 15 24  1  0  0  0  0
 15 27  2  0  0  0  0
 16 25  2  0  0  0  0
 16 30  1  0  0  0  0
 17 29  2  0  0  0  0
 17 31  1  0  0  0  0
 18 32  1  0  0  0  0
 19 30  2  0  0  0  0
 19 34  1  0  0  0  0
 20 32  1  0  0  0  0
 20 33  2  0  0  0  0
 20 35  1  0  0  0  0
 21 23  2  0  0  0  0
 21 40  1  0  0  0  0
 22 24  2  0  0  0  0
 22 41  1  0  0  0  0
 23 49  1  0  0  0  0
 24 42  1  0  0  0  0
 25 71  1  0  0  0  0
 26 80  1  0  0  0  0
 27 81  1  0  0  0  0
 28 31  2  0  0  0  0
 28 80  1  0  0  0  0
 29 82  1  0  0  0  0
 30 83  1  0  0  0  0
 31 84  1  0  0  0  0
 32 64  2  0  0  0  0
 33 66  1  0  0  0  0
 33 69  1  0  0  0  0
 34 62  1  0  0  0  0
 34 65  2  0  0  0  0
 35 70  1  0  0  0  0
 35 75  2  0  0  0  0
 36 50  1  0  0  0  0
 36 72  1  0  0  0  0
 36 76  2  0  0  0  0
 37 60  1  0  0  0  0
 37 67  1  0  0  0  0
 37 77  2  0  0  0  0
 38 61  1  0  0  0  0
 38 73  1  0  0  0  0
 38 78  2  0  0  0  0
 39 68  1  0  0  0  0
 39 71  1  0  0  0  0
 39 79  2  0  0  0  0
 40 43  1  0  0  0  0
 41 50  1  0  0  0  0
 42 67  1  0  0  0  0
 43 45  1  0  0  0  0
 44 46  1  0  0  0  0
 44 47  1  0  0  0  0
 45 49  1  0  0  0  0
 46 51  1  0  0  0  0
 47 68  1  0  0  0  0
 48 51  1  0  0  0  0
 48 68  1  0  0  0  0
 49 72  1  0  0  0  0
 50 67  1  0  0  0  0
 51 66  1  0  0  0  0
 52 61  1  0  0  0  0
 53 62  1  0  0  0  0
 54 62  1  0  0  0  0
 55 62  1  0  0  0  0
 56 63  1  0  0  0  0
 57 63  1  0  0  0  0
 58 63  1  0  0  0  0
 59 74  1  0  0  0  0
 60 63  1  0  0  0  0
 60 73  1  0  0  0  0
 61 74  1  0  0  0  0
 64 66  1  0  0  0  0
 65 81  1  0  0  0  0
M  CHG  1  74   1
M  ISO  4  39 100  65 101  71 100  81 101
M  END
> <Batch ID>
0077

> <Smiles>
CNC(C)C(=O)NC(C(=O)N1Cc2cc([101O:1][101N:1]=C(c3ccc([100NH:0][100C:0](=O)N4CCCC(n5nc(-c6ccc(Oc7ccc(F)cc7F)cc6)c(C(N)=O)c5N)C4)cc3F)C(C)(C)C)ccc2CC1C(=O)NC1CCCc2ccccc21)C(C)(C)C

> <Shape>
0.218

> <Color>
0.205

> <Negative vol penalty>
0.000

$$$$

  -OEChem-04042323533D

 87 95  0     1  0  0  0  0  0999 V2000
  -31.2718  -23.6698   23.2440 C   0  0  0  0  0  0  0  0  0  0  0  0
  -30.8739  -24.6073   22.2976 C   0  0  0  0  0  0  0  0  0  0  0  0
  -26.3778  -12.4176   21.5275 C   0  0  0  0  0  0  0  0  0  0  0  0
  -25.9346  -13.1548   19.2699 C   0  0  0  0  0  0  0  0  0  0  0  0
  -27.8051  -23.1848   17.4399 C   0  0  0  0  0  0  0  0  0  0  0  0
  -30.3210  -23.0662   24.0642 C   0  0  0  0  0  0  0  0  0  0  0  0
  -29.5266  -24.9503   22.1792 C   0  0  0  0  0  0  0  0  0  0  0  0
  -28.4230  -28.6574   19.1389 C   0  0  0  0  0  0  0  0  0  0  0  0
  -28.3493  -22.2695   18.3407 C   0  0  0  0  0  0  0  0  0  0  0  0
  -25.1513  -11.7538   21.5516 C   0  0  0  0  0  0  0  0  0  0  0  0
  -24.7080  -12.4910   19.2939 C   0  0  0  0  0  0  0  0  0  0  0  0
  -28.4942  -28.5409   17.7514 C   0  0  0  0  0  0  0  0  0  0  0  0
  -23.8641   -8.8555   20.3784 C   0  0  0  0  0  0  0  0  0  0  0  0
  -23.8385   -7.5594   20.8931 C   0  0  0  0  0  0  0  0  0  0  0  0
  -27.6413  -21.4453   15.7713 C   0  0  0  0  0  0  0  0  0  0  0  0
  -26.0908  -28.3599   17.6493 C   0  0  0  0  0  0  0  0  0  0  0  0
  -22.2720   -8.2649   22.5918 C   0  0  0  0  0  0  0  0  0  0  0  0
  -26.7694  -13.1182   20.3867 C   0  0  0  0  0  0  0  0  0  0  0  0
  -27.4510  -22.7727   16.1552 C   0  0  0  0  0  0  0  0  0  0  0  0
  -29.2769  -13.2841   19.9477 C   0  0  0  0  0  0  0  0  0  0  0  0
  -28.9600  -23.3933   23.9466 C   0  0  0  0  0  0  0  0  0  0  0  0
  -27.1838  -28.6150   19.7941 C   0  0  0  0  0  0  0  0  0  0  0  0
  -28.5547  -24.3698   23.0141 C   0  0  0  0  0  0  0  0  0  0  0  0
  -26.0064  -28.4786   19.0450 C   0  0  0  0  0  0  0  0  0  0  0  0
  -28.5396  -20.9421   17.9569 C   0  0  0  0  0  0  0  0  0  0  0  0
  -24.3164  -11.7904   20.4348 C   0  0  0  0  0  0  0  0  0  0  0  0
  -27.3282  -28.3892   17.0066 C   0  0  0  0  0  0  0  0  0  0  0  0
  -23.0937   -9.8564   20.9704 C   0  0  0  0  0  0  0  0  0  0  0  0
  -23.0424   -7.2640   21.9998 C   0  0  0  0  0  0  0  0  0  0  0  0
  -28.1856  -20.5299   16.6721 C   0  0  0  0  0  0  0  0  0  0  0  0
  -22.2977   -9.5611   22.0771 C   0  0  0  0  0  0  0  0  0  0  0  0
  -28.0360  -13.8046   20.3615 C   0  0  0  0  0  0  0  0  0  0  0  0
  -30.1581  -14.3245   20.1135 C   0  0  0  0  0  0  0  0  0  0  0  0
  -26.8743  -23.7415   15.2004 C   0  0  0  0  0  0  0  0  0  0  0  0
  -29.6037  -11.9771   19.4572 C   0  0  0  0  0  0  0  0  0  0  0  0
  -25.8492  -26.6944   21.9467 C   0  0  0  0  0  0  0  0  0  0  0  0
  -23.4840  -28.9136   21.8869 C   0  0  0  0  0  0  0  0  0  0  0  0
  -21.8831  -31.3963   20.1781 C   0  0  0  0  0  0  0  0  0  0  0  0
  -27.2204  -25.8764   13.9686 C   0  0  0  0  0  0  0  0  0  0  0  0
  -29.4963  -20.2627   20.1861 C   0  0  0  0  0  0  0  0  0  0  0  0
  -27.9742  -22.7153   24.8651 C   0  0  0  0  0  0  0  0  0  0  0  0
  -27.1220  -28.7688   21.2890 C   0  0  0  0  0  0  0  0  0  0  0  0
  -24.6498  -28.4476   19.6985 C   0  0  0  0  0  0  0  0  0  0  0  0
  -26.5355  -22.8112   24.3681 C   0  0  0  0  0  0  0  0  0  0  0  0
  -30.8695  -18.2413   22.7757 C   0  0  0  0  0  0  0  0  0  0  0  0
  -26.2069  -24.2509   24.0022 C   0  0  0  0  0  0  0  0  0  0  0  0
  -30.4167  -16.8260   22.4094 C   0  0  0  0  0  0  0  0  0  0  0  0
  -29.7993  -19.2814   22.4489 C   0  0  0  0  0  0  0  0  0  0  0  0
  -28.8451  -17.8287   20.7031 C   0  0  0  0  0  0  0  0  0  0  0  0
  -27.0911  -24.7361   22.8465 C   0  0  1  0  0  0  0  0  0  0  0  0
  -25.8451  -28.1961   21.8963 C   0  0  1  0  0  0  0  0  0  0  0  0
  -29.9153  -16.7537   20.9538 C   0  0  2  0  0  0  0  0  0  0  0  0
  -19.9616  -32.9986   20.3721 C   0  0  0  0  0  0  0  0  0  0  0  0
  -27.7289  -28.0143   12.7819 C   0  0  0  0  0  0  0  0  0  0  0  0
  -29.5411  -26.3345   13.1669 C   0  0  0  0  0  0  0  0  0  0  0  0
  -21.5316  -26.6357   21.3308 C   0  0  0  0  0  0  0  0  0  0  0  0
  -19.8529  -28.3450   20.6038 C   0  0  0  0  0  0  0  0  0  0  0  0
  -20.7000  -28.3505   22.9501 C   0  0  0  0  0  0  0  0  0  0  0  0
  -23.6693  -33.7459   19.9594 C   0  0  0  0  0  0  0  0  0  0  0  0
  -28.5695  -27.6738   15.1084 C   0  0  0  0  0  0  0  0  0  1  0  0
  -22.2230  -29.1106   21.0807 C   0  0  1  0  0  0  0  0  0  0  0  0
  -21.4512  -32.7902   20.5962 C   0  0  2  0  0  0  0  0  0  0  0  0
  -28.2787  -26.9680   13.7690 C   0  0  0  0  0  0  0  0  0  0  0  0
  -21.1024  -28.1091   21.4789 C   0  0  0  0  0  0  0  0  0  0  0  0
  -28.1176  -15.0767   20.7603 N   0  0  0  0  0  0  0  0  0  0  0  0
  -29.4203  -15.3643   20.5980 N   0  0  0  0  0  0  0  0  0  0  0  0
  -24.6420  -28.5955   21.1633 N   0  0  0  0  0  0  0  0  0  0  0  0
  -29.3758  -19.1557   21.0527 N   0  0  0  0  0  0  0  0  0  0  0  0
  -31.4844  -14.4422   19.8908 N   0  0  0  0  0  0  0  0  0  0  0  0
  -28.5780  -11.0281   19.3495 N   0  0  0  0  0  0  0  0  0  0  0  0
  -29.0926  -20.0148   18.8746 N   0  0  0  0  0  0  0  0  0  0  0  0
  -27.6093  -24.8116   14.8685 N   0  0  0  0  0  0  0  0  0  0  0  0
  -26.8980  -26.1585   22.6693 N   0  0  0  0  0  0  0  0  0  0  0  0
  -21.8538  -30.5134   21.2368 N   0  0  0  0  0  0  0  0  0  0  0  0
  -25.6558  -23.4916   14.7223 N   0  3  0  0  0  0  0  0  0  0  0  0
  -22.1927  -33.8189   19.8133 N   0  3  0  0  0  0  0  0  0  0  0  0
  -30.7738  -11.6551   19.1398 O   0  0  0  0  0  0  0  0  0  0  0  0
  -24.9653  -26.0682   21.3736 O   0  0  0  0  0  0  0  0  0  0  0  0
  -23.4446  -29.0443   23.1129 O   0  0  0  0  0  0  0  0  0  0  0  0
  -22.2101  -31.1176   19.0266 O   0  0  0  0  0  0  0  0  0  0  0  0
  -26.1253  -25.8611   13.4218 O   0  0  0  0  0  0  0  0  0  0  0  0
  -29.9514  -21.3424   20.5721 O   0  0  0  0  0  0  0  0  0  0  0  0
  -23.1196  -11.1426   20.4578 O   0  0  0  0  0  0  0  0  0  0  0  0
  -27.3950  -28.2747   15.6523 O   0  0  0  0  0  0  0  0  0  1  0  0
  -23.0168   -6.0190   22.4930 F   0  0  0  0  0  0  0  0  0  0  0  0
  -28.3653  -19.2569   16.2920 F   0  0  0  0  0  0  0  0  0  0  0  0
  -21.5545  -10.5182   22.6494 F   0  0  0  0  0  0  0  0  0  0  0  0
  1  2  1  0  0  0  0
  1  6  2  0  0  0  0
  2  7  2  0  0  0  0
  3 10  2  0  0  0  0
  3 18  1  0  0  0  0
  4 11  1  0  0  0  0
  4 18  2  0  0  0  0
  5  9  2  0  0  0  0
  5 19  1  0  0  0  0
  6 21  1  0  0  0  0
  7 23  1  0  0  0  0
  8 12  2  0  0  0  0
  8 22  1  0  0  0  0
  9 25  1  0  0  0  0
 10 26  1  0  0  0  0
 11 26  2  0  0  0  0
 12 27  1  0  0  0  0
 13 14  2  0  0  0  0
 13 28  1  0  0  0  0
 14 29  1  0  0  0  0
 15 19  2  0  0  0  0
 15 30  1  0  0  0  0
 16 24  1  0  0  0  0
 16 27  2  0  0  0  0
 17 29  2  0  0  0  0
 17 31  1  0  0  0  0
 18 32  1  0  0  0  0
 19 34  1  0  0  0  0
 20 32  1  0  0  0  0
 20 33  2  0  0  0  0
 20 35  1  0  0  0  0
 21 23  2  0  0  0  0
 21 41  1  0  0  0  0
 22 24  2  0  0  0  0
 22 42  1  0  0  0  0
 23 50  1  0  0  0  0
 24 43  1  0  0  0  0
 25 30  2  0  0  0  0
 25 71  1  0  0  0  0
 26 83  1  0  0  0  0
 27 84  1  0  0  0  0
 28 31  2  0  0  0  0
 28 83  1  0  0  0  0
 29 85  1  0  0  0  0
 30 86  1  0  0  0  0
 31 87  1  0  0  0  0
 32 65  2  0  0  0  0
 33 66  1  0  0  0  0
 33 69  1  0  0  0  0
 34 72  1  0  0  0  0
 34 75  2  0  0  0  0
 35 70  1  0  0  0  0
 35 77  2  0  0  0  0
 36 51  1  0  0  0  0
 36 73  1  0  0  0  0
 36 78  2  0  0  0  0
 37 61  1  0  0  0  0
 37 67  1  0  0  0  0
 37 79  2  0  0  0  0
 38 62  1  0  0  0  0
 38 74  1  0  0  0  0
 38 80  2  0  0  0  0
 39 63  1  0  0  0  0
 39 72  1  0  0  0  0
 39 81  2  0  0  0  0
 40 68  1  0  0  0  0
 40 71  1  0  0  0  0
 40 82  2  0  0  0  0
 41 44  1  0  0  0  0
 42 51  1  0  0  0  0
 43 67  1  0  0  0  0
 44 46  1  0  0  0  0
 45 47  1  0  0  0  0
 45 48  1  0  0  0  0
 46 50  1  0  0  0  0
 47 52  1  0  0  0  0
 48 68  1  0  0  0  0
 49 52  1  0  0  0  0
 49 68  1  0  0  0  0
 50 73  1  0  0  0  0
 51 67  1  0  0  0  0
 52 66  1  0  0  0  0
 53 62  1  0  0  0  0
 54 63  1  0  0  0  0
 55 63  1  0  0  0  0
 56 64  1  0  0  0  0
 57 64  1  0  0  0  0
 58 64  1  0  0  0  0
 59 76  1  0  0  0  0
 60 63  1  0  0  0  0
 60 84  1  0  0  0  0
 61 64  1  0  0  0  0
 61 74  1  0  0  0  0
 62 76  1  0  0  0  0
 65 66  1  0  0  0  0
M  CHG  2  75   1  76   1
M  ISO  4  40 100  60 101  71 100  84 101
M  END
> <Batch ID>
0077

> <Smiles>
CNC(C)C(=O)NC(C(=O)N1Cc2cc([101O:1][101CH2:1]C(C)(C)C(=O)NC(=N)c3ccc([100NH:0][100C:0](=O)N4CCCC(n5nc(-c6ccc(Oc7ccc(F)cc7F)cc6)c(C(N)=O)c5N)C4)c(F)c3)ccc2CC1C(=O)NC1CCCc2ccccc21)C(C)(C)C

> <Shape>
0.226

> <Color>
0.080

> <Negative vol penalty>
0.000

$$$$

  -OEChem-04042323533D

 87 96  0     1  0  0  0  0  0999 V2000
  -28.1650  -37.0975   18.8000 C   0  0  0  0  0  0  0  0  0  0  0  0
  -28.2683  -35.7633   18.4195 C   0  0  0  0  0  0  0  0  0  0  0  0
  -24.3318   -8.8775   20.3564 C   0  0  0  0  0  0  0  0  0  0  0  0
  -23.0151  -10.7601   21.1042 C   0  0  0  0  0  0  0  0  0  0  0  0
  -27.9258  -37.4241   20.1342 C   0  0  0  0  0  0  0  0  0  0  0  0
  -28.1335  -34.7550   19.3731 C   0  0  0  0  0  0  0  0  0  0  0  0
  -25.6164  -29.2315   18.5601 C   0  0  0  0  0  0  0  0  0  0  0  0
  -29.5987  -20.4496   21.0708 C   0  0  0  0  0  0  0  0  0  0  0  0
  -29.6537  -19.0692   21.2628 C   0  0  0  0  0  0  0  0  0  0  0  0
  -23.3319   -8.0064   20.7889 C   0  0  0  0  0  0  0  0  0  0  0  0
  -22.0152   -9.8890   21.5367 C   0  0  0  0  0  0  0  0  0  0  0  0
  -26.1696  -27.9755   18.3148 C   0  0  0  0  0  0  0  0  0  0  0  0
  -19.4988   -8.1058   20.1554 C   0  0  0  0  0  0  0  0  0  0  0  0
  -18.1790   -8.4287   19.8400 C   0  0  0  0  0  0  0  0  0  0  0  0
  -28.2943  -18.7410   19.2927 C   0  0  0  0  0  0  0  0  0  0  0  0
  -26.0646  -27.4755   20.6724 C   0  0  0  0  0  0  0  0  0  0  0  0
  -17.6354   -8.5050   22.1928 C   0  0  0  0  0  0  0  0  0  0  0  0
  -24.1734  -10.2544   20.5141 C   0  0  0  0  0  0  0  0  0  0  0  0
  -28.2392  -20.1215   19.1008 C   0  0  0  0  0  0  0  0  0  0  0  0
  -25.3278  -11.7453   18.7959 C   0  0  0  0  0  0  0  0  0  0  0  0
  -27.7784  -36.4190   21.1031 C   0  0  0  0  0  0  0  0  0  0  0  0
  -25.2927  -29.6238   19.8669 C   0  0  0  0  0  0  0  0  0  0  0  0
  -27.8934  -35.0685   20.7218 C   0  0  0  0  0  0  0  0  0  0  0  0
  -25.5050  -28.7360   20.9313 C   0  0  0  0  0  0  0  0  0  0  0  0
  -28.8914  -20.9758   19.9898 C   0  0  0  0  0  0  0  0  0  0  0  0
  -29.0015  -18.2148   20.3738 C   0  0  0  0  0  0  0  0  0  0  0  0
  -22.1737   -8.5121   21.3791 C   0  0  0  0  0  0  0  0  0  0  0  0
  -26.3965  -27.0984   19.3714 C   0  0  0  0  0  0  0  0  0  0  0  0
  -19.8869   -7.9824   21.4895 C   0  0  0  0  0  0  0  0  0  0  0  0
  -17.2473   -8.6284   20.8586 C   0  0  0  0  0  0  0  0  0  0  0  0
  -18.9552   -8.1820   22.5082 C   0  0  0  0  0  0  0  0  0  0  0  0
  -25.2061  -11.1547   20.0680 C   0  0  0  0  0  0  0  0  0  0  0  0
  -26.4662  -12.5093   18.8795 C   0  0  0  0  0  0  0  0  0  0  0  0
  -29.3903  -23.3649   20.5296 C   0  0  0  0  0  0  0  0  0  0  0  0
  -27.4917  -20.6393   17.9614 C   0  0  0  0  0  0  0  0  0  0  0  0
  -24.4870  -11.6150   17.6419 C   0  0  0  0  0  0  0  0  0  0  0  0
  -26.2553  -31.9426   21.8163 C   0  0  0  0  0  0  0  0  0  0  0  0
  -23.8832  -30.8015   23.7119 C   0  0  0  0  0  0  0  0  0  0  0  0
  -21.8773  -28.1813   24.5823 C   0  0  0  0  0  0  0  0  0  0  0  0
  -29.7155  -16.1278   21.5908 C   0  0  0  0  0  0  0  0  0  0  0  0
  -27.5678  -36.8221   22.5410 C   0  0  0  0  0  0  0  0  0  0  0  0
  -24.6718  -30.9718   20.1116 C   0  0  0  0  0  0  0  0  0  0  0  0
  -25.1561  -29.1013   22.3502 C   0  0  0  0  0  0  0  0  0  0  0  0
  -27.0643  -35.6841   23.4252 C   0  0  0  0  0  0  0  0  0  0  0  0
  -30.0595  -12.6873   22.4402 C   0  0  0  0  0  0  0  0  0  0  0  0
  -27.8739  -34.4156   23.1752 C   0  0  0  0  0  0  0  0  0  0  0  0
  -28.8375  -12.0304   21.7941 C   0  0  0  0  0  0  0  0  0  0  0  0
  -29.7332  -14.0746   22.9904 C   0  0  0  0  0  0  0  0  0  0  0  0
  -27.8834  -14.3345   21.3841 C   0  0  0  0  0  0  0  0  0  0  0  0
  -28.2036  -23.1588   18.8010 C   0  0  0  0  0  0  0  0  0  0  0  0
  -27.7283  -33.9456   21.7228 C   0  0  1  0  0  0  0  0  0  0  0  0
  -24.8573  -31.4640   21.5436 C   0  0  1  0  0  0  0  0  0  0  0  0
  -28.1790  -12.9620   20.7577 C   0  0  2  0  0  0  0  0  0  0  0  0
  -28.7781  -24.4019   19.5444 C   0  0  2  0  0  0  0  0  0  0  0  0
  -29.8171  -25.1907   18.7549 C   0  0  0  0  0  0  0  0  0  0  0  0
  -20.0630  -27.5394   26.1928 C   0  0  0  0  0  0  0  0  0  0  0  0
  -25.9513  -30.5620   25.9425 C   0  0  0  0  0  0  0  0  0  0  0  0
  -24.3558  -29.0707   27.1667 C   0  0  0  0  0  0  0  0  0  0  0  0
  -23.7241  -31.4331   26.6740 C   0  0  0  0  0  0  0  0  0  0  0  0
  -19.9630  -27.6411   22.3908 C   0  0  0  0  0  0  0  0  0  0  0  0
  -27.7318  -25.3013   20.1735 C   0  0  0  0  0  0  0  0  0  1  0  0
  -23.7890  -29.7487   24.7898 C   0  0  1  0  0  0  0  0  0  0  0  0
  -20.3793  -28.0923   24.8119 C   0  0  2  0  0  0  0  0  0  0  0  0
  -24.4635  -30.1972   26.1169 C   0  0  0  0  0  0  0  0  0  0  0  0
  -26.1888  -11.5126   20.8988 N   0  0  0  0  0  0  0  0  0  0  0  0
  -26.9389  -12.3363   20.1471 N   0  0  0  0  0  0  0  0  0  0  0  0
  -28.8507  -22.3400   19.8200 N   0  0  0  0  0  0  0  0  0  0  0  0
  -24.5572  -30.4329   22.5391 N   0  0  0  0  0  0  0  0  0  0  0  0
  -29.1162  -14.9026   21.9518 N   0  0  0  0  0  0  0  0  0  0  0  0
  -27.0989  -13.3053   17.9917 N   0  0  0  0  0  0  0  0  0  0  0  0
  -26.1441  -20.9239   18.1507 N   0  0  0  0  0  0  0  0  0  0  0  0
  -23.3574  -10.7899   17.7279 N   0  0  0  0  0  0  0  0  0  0  0  0
  -29.0578  -16.8126   20.5694 N   0  0  0  0  0  0  0  0  0  0  0  0
  -26.4577  -33.2796   21.5320 N   0  0  0  0  0  0  0  0  0  0  0  0
  -22.3728  -29.4230   24.9196 N   0  0  0  0  0  0  0  0  0  0  0  0
  -19.7513  -27.2028   23.7944 N   0  3  0  0  0  0  0  0  0  0  0  0
  -30.0720  -23.4056   21.5285 O   0  0  0  0  0  0  0  0  0  0  0  0
  -28.0333  -20.8049   16.8563 O   0  0  0  0  0  0  0  0  0  0  0  0
  -24.7393  -12.1998   16.5611 O   0  0  0  0  0  0  0  0  0  0  0  0
  -27.0882  -31.1574   22.2538 O   0  0  0  0  0  0  0  0  0  0  0  0
  -23.3711  -31.9078   23.9008 O   0  0  0  0  0  0  0  0  0  0  0  0
  -22.5420  -27.2419   24.1507 O   0  0  0  0  0  0  0  0  0  0  0  0
  -30.7522  -16.5263   22.1278 O   0  0  0  0  0  0  0  0  0  0  0  0
  -21.1977   -7.6624   21.8010 O   0  0  0  0  0  0  0  0  0  0  0  0
  -26.9370  -25.8721   19.1348 O   0  0  0  0  0  0  0  0  0  1  0  0
  -15.9803   -8.9400   20.5556 F   0  0  0  0  0  0  0  0  0  0  0  0
  -19.3224   -8.0660   23.7917 F   0  0  0  0  0  0  0  0  0  0  0  0
  1  2  1  0  0  0  0
  1  5  2  0  0  0  0
  2  6  2  0  0  0  0
  3 10  2  0  0  0  0
  3 18  1  0  0  0  0
  4 11  1  0  0  0  0
  4 18  2  0  0  0  0
  5 21  1  0  0  0  0
  6 23  1  0  0  0  0
  7 12  2  0  0  0  0
  7 22  1  0  0  0  0
  8  9  2  0  0  0  0
  8 25  1  0  0  0  0
  9 26  1  0  0  0  0
 10 27  1  0  0  0  0
 11 27  2  0  0  0  0
 12 28  1  0  0  0  0
 13 14  2  0  0  0  0
 13 29  1  0  0  0  0
 14 30  1  0  0  0  0
 15 19  1  0  0  0  0
 15 26  2  0  0  0  0
 16 24  1  0  0  0  0
 16 28  2  0  0  0  0
 17 30  2  0  0  0  0
 17 31  1  0  0  0  0
 18 32  1  0  0  0  0
 19 25  2  0  0  0  0
 19 35  1  0  0  0  0
 20 32  1  0  0  0  0
 20 33  2  0  0  0  0
 20 36  1  0  0  0  0
 21 23  2  0  0  0  0
 21 41  1  0  0  0  0
 22 24  2  0  0  0  0
 22 42  1  0  0  0  0
 23 51  1  0  0  0  0
 24 43  1  0  0  0  0
 25 67  1  0  0  0  0
 26 73  1  0  0  0  0
 27 84  1  0  0  0  0
 28 85  1  0  0  0  0
 29 31  2  0  0  0  0
 29 84  1  0  0  0  0
 30 86  1  0  0  0  0
 31 87  1  0  0  0  0
 32 65  2  0  0  0  0
 33 66  1  0  0  0  0
 33 70  1  0  0  0  0
 34 54  1  0  0  0  0
 34 67  1  0  0  0  0
 34 77  2  0  0  0  0
 35 71  1  0  0  0  0
 35 78  2  0  0  0  0
 36 72  1  0  0  0  0
 36 79  2  0  0  0  0
 37 52  1  0  0  0  0
 37 74  1  0  0  0  0
 37 80  2  0  0  0  0
 38 62  1  0  0  0  0
 38 68  1  0  0  0  0
 38 81  2  0  0  0  0
 39 63  1  0  0  0  0
 39 75  1  0  0  0  0
 39 82  2  0  0  0  0
 40 69  1  0  0  0  0
 40 73  1  0  0  0  0
 40 83  2  0  0  0  0
 41 44  1  0  0  0  0
 42 52  1  0  0  0  0
 43 68  1  0  0  0  0
 44 46  1  0  0  0  0
 45 47  1  0  0  0  0
 45 48  1  0  0  0  0
 46 51  1  0  0  0  0
 47 53  1  0  0  0  0
 48 69  1  0  0  0  0
 49 53  1  0  0  0  0
 49 69  1  0  0  0  0
 50 54  1  0  0  0  0
 50 67  1  0  0  0  0
 51 74  1  0  0  0  0
 52 68  1  0  0  0  0
 53 66  1  0  0  0  0
 54 55  1  0  0  0  0
 54 61  1  0  0  0  0
 56 63  1  0  0  0  0
 57 64  1  0  0  0  0
 58 64  1  0  0  0  0
 59 64  1  0  0  0  0
 60 76  1  0  0  0  0
 61 85  1  0  0  0  0
 62 64  1  0  0  0  0
 62 75  1  0  0  0  0
 63 76  1  0  0  0  0
 65 66  1  0  0  0  0
M  CHG  1  76   1
M  ISO  4  40 100  61 101  73 100  85 101
M  END
> <Batch ID>
0077

> <Smiles>
CNC(C)C(=O)NC(C(=O)N1Cc2cc([101O:1][101CH2:1]C3(C)CN(c4ccc([100NH:0][100C:0](=O)N5CCCC(n6nc(-c7ccc(Oc8ccc(F)cc8F)cc7)c(C(N)=O)c6N)C5)cc4C(N)=O)C3=O)ccc2CC1C(=O)NC1CCCc2ccccc21)C(C)(C)C

> <Shape>
0.283

> <Color>
0.091

> <Negative vol penalty>
0.000

$$$$

  -OEChem-04042323533D

 89 97  0     1  0  0  0  0  0999 V2000
  -16.7451  -27.8733   20.6739 C   0  0  0  0  0  0  0  0  0  0  0  0
  -17.9618  -28.1351   20.0523 C   0  0  0  0  0  0  0  0  0  0  0  0
  -28.9028  -21.4287   15.4324 C   0  0  0  0  0  0  0  0  0  0  0  0
  -26.4991  -12.8263   21.4627 C   0  0  0  0  0  0  0  0  0  0  0  0
  -26.2733  -13.4874   19.1498 C   0  0  0  0  0  0  0  0  0  0  0  0
  -28.7974  -22.7848   15.7416 C   0  0  0  0  0  0  0  0  0  0  0  0
  -16.6432  -27.9454   22.0625 C   0  0  0  0  0  0  0  0  0  0  0  0
  -19.0772  -28.4704   20.8190 C   0  0  0  0  0  0  0  0  0  0  0  0
  -23.2552  -26.0159   19.3474 C   0  0  0  0  0  0  0  0  0  0  0  0
  -29.3065  -20.5197   16.4104 C   0  0  0  0  0  0  0  0  0  0  0  0
  -25.2224  -12.2655   21.4270 C   0  0  0  0  0  0  0  0  0  0  0  0
  -24.9966  -12.9265   19.1142 C   0  0  0  0  0  0  0  0  0  0  0  0
  -23.9045  -26.4903   18.2085 C   0  0  0  0  0  0  0  0  0  0  0  0
  -23.7794   -9.4274   20.2887 C   0  0  0  0  0  0  0  0  0  0  0  0
  -23.6104   -8.1639   20.8548 C   0  0  0  0  0  0  0  0  0  0  0  0
  -29.4995  -22.3229   18.0067 C   0  0  0  0  0  0  0  0  0  0  0  0
  -25.5103  -27.6266   19.6047 C   0  0  0  0  0  0  0  0  0  0  0  0
  -21.9970   -9.0744   22.4056 C   0  0  0  0  0  0  0  0  0  0  0  0
  -27.0245  -13.4373   20.3241 C   0  0  0  0  0  0  0  0  0  0  0  0
  -29.0958  -23.2319   17.0287 C   0  0  0  0  0  0  0  0  0  0  0  0
  -29.5610  -13.3791   20.0589 C   0  0  0  0  0  0  0  0  0  0  0  0
  -17.7603  -28.2723   22.8473 C   0  0  0  0  0  0  0  0  0  0  0  0
  -23.7230  -26.3528   20.6257 C   0  0  0  0  0  0  0  0  0  0  0  0
  -18.9899  -28.5482   22.2194 C   0  0  0  0  0  0  0  0  0  0  0  0
  -24.8667  -27.1531   20.7582 C   0  0  0  0  0  0  0  0  0  0  0  0
  -29.6049  -20.9668   17.6975 C   0  0  0  0  0  0  0  0  0  0  0  0
  -24.4712  -12.3156   20.2528 C   0  0  0  0  0  0  0  0  0  0  0  0
  -25.0305  -27.2982   18.3370 C   0  0  0  0  0  0  0  0  0  0  0  0
  -23.0572  -10.5145   20.7812 C   0  0  0  0  0  0  0  0  0  0  0  0
  -22.7192   -7.9873   21.9132 C   0  0  0  0  0  0  0  0  0  0  0  0
  -22.1660  -10.3380   21.8396 C   0  0  0  0  0  0  0  0  0  0  0  0
  -28.3430  -14.0173   20.3604 C   0  0  0  0  0  0  0  0  0  0  0  0
  -30.5131  -14.3518   20.2431 C   0  0  0  0  0  0  0  0  0  0  0  0
  -29.8096  -12.0279   19.6489 C   0  0  0  0  0  0  0  0  0  0  0  0
  -28.9831  -24.6747   17.3562 C   0  0  0  0  0  0  0  0  0  0  0  0
  -22.5229  -27.9328   23.1092 C   0  0  0  0  0  0  0  0  0  0  0  0
  -25.2533  -26.9484   24.5578 C   0  0  0  0  0  0  0  0  0  0  0  0
  -28.1108  -26.6592   16.0478 C   0  0  0  0  0  0  0  0  0  0  0  0
  -30.3064  -27.4475   16.9671 C   0  0  0  0  0  0  0  0  0  0  0  0
  -28.4885  -25.9091   24.2415 C   0  0  0  0  0  0  0  0  0  0  0  0
  -30.3479  -20.3206   20.0163 C   0  0  0  0  0  0  0  0  0  0  0  0
  -17.5899  -28.3842   24.3417 C   0  0  0  0  0  0  0  0  0  0  0  0
  -23.0271  -25.8111   21.8442 C   0  0  0  0  0  0  0  0  0  0  0  0
  -25.4210  -27.5269   22.1078 C   0  0  0  0  0  0  0  0  0  0  0  0
  -18.9105  -28.3797   25.1073 C   0  0  0  0  0  0  0  0  0  0  0  0
  -31.3681  -18.3222   22.7808 C   0  0  0  0  0  0  0  0  0  0  0  0
  -19.9100  -29.3285   24.4533 C   0  0  0  0  0  0  0  0  0  0  0  0
  -30.8242  -16.9320   22.4435 C   0  0  0  0  0  0  0  0  0  0  0  0
  -30.4135  -19.4282   22.3346 C   0  0  0  0  0  0  0  0  0  0  0  0
  -29.4615  -17.9748   20.5881 C   0  0  0  0  0  0  0  0  0  0  0  0
  -20.2285  -28.8909   23.0185 C   0  0  1  0  0  0  0  0  0  0  0  0
  -23.2873  -26.6392   23.0987 C   0  0  1  0  0  0  0  0  0  0  0  0
  -30.4183  -16.8303   20.9601 C   0  0  2  0  0  0  0  0  0  0  0  0
  -31.0854  -28.7234   17.0606 C   0  0  0  0  0  0  0  0  0  0  0  0
  -30.4767  -25.2143   25.6059 C   0  0  0  0  0  0  0  0  0  0  0  0
  -26.7820  -26.1420   13.9761 C   0  0  0  0  0  0  0  0  0  0  0  0
  -26.9860  -28.5141   14.6493 C   0  0  0  0  0  0  0  0  0  0  0  0
  -25.7733  -29.8666   25.2815 C   0  0  0  0  0  0  0  0  0  0  0  0
  -28.1493  -29.2488   25.7728 C   0  0  0  0  0  0  0  0  0  0  0  0
  -26.2980  -28.2314   27.0996 C   0  0  0  0  0  0  0  0  0  0  0  0
  -28.5383  -23.2179   23.0111 C   0  0  0  0  0  0  0  0  0  0  0  0
  -25.6082  -26.9485   16.0567 C   0  0  0  0  0  0  0  0  0  1  0  0
  -26.6481  -27.5074   24.7027 C   0  0  1  0  0  0  0  0  0  0  0  0
  -29.2371  -24.7431   24.8615 C   0  0  2  0  0  0  0  0  0  0  0  0
  -26.8948  -27.0751   15.2040 C   0  0  0  0  0  0  0  0  0  0  0  0
  -26.7058  -28.7083   25.6886 C   0  0  0  0  0  0  0  0  0  0  0  0
  -28.5037  -15.2964   20.7098 N   0  0  0  0  0  0  0  0  0  0  0  0
  -29.8339  -15.4698   20.6291 N   0  0  0  0  0  0  0  0  0  0  0  0
  -24.7018  -26.9777   23.2691 N   0  0  0  0  0  0  0  0  0  0  0  0
  -30.0766  -19.2700   20.9181 N   0  0  0  0  0  0  0  0  0  0  0  0
  -31.8566  -14.3513   20.1111 N   0  0  0  0  0  0  0  0  0  0  0  0
  -28.7176  -11.1607   19.5084 N   0  0  0  0  0  0  0  0  0  0  0  0
  -30.0147  -20.0433   18.6909 N   0  0  0  0  0  0  0  0  0  0  0  0
  -21.1526  -27.7772   23.0231 N   0  0  0  0  0  0  0  0  0  0  0  0
  -29.0736  -27.5795   16.2253 N   0  0  0  0  0  0  0  0  0  0  0  0
  -27.5008  -26.3847   25.0779 N   0  0  0  0  0  0  0  0  0  0  0  0
  -29.7297  -25.2241   18.2475 N   0  3  0  0  0  0  0  0  0  0  0  0
  -28.0407  -25.4050   16.5320 N   0  3  0  0  0  0  0  0  0  0  0  0
  -29.6604  -23.7794   23.8065 N   0  3  0  0  0  0  0  0  0  0  0  0
  -30.9674  -11.5977   19.4300 O   0  0  0  0  0  0  0  0  0  0  0  0
  -23.1312  -28.9934   23.1908 O   0  0  0  0  0  0  0  0  0  0  0  0
  -24.6771  -26.4957   25.5501 O   0  0  0  0  0  0  0  0  0  0  0  0
  -30.6134  -26.4143   17.5446 O   0  0  0  0  0  0  0  0  0  0  0  0
  -28.7557  -26.3558   23.1281 O   0  0  0  0  0  0  0  0  0  0  0  0
  -30.8647  -21.3775   20.3877 O   0  0  0  0  0  0  0  0  0  0  0  0
  -23.2255  -11.7682   20.2176 O   0  0  0  0  0  0  0  0  0  0  0  0
  -25.6700  -27.7662   17.2196 O   0  0  0  0  0  0  0  0  0  1  0  0
  -22.5559   -6.7736   22.4557 F   0  0  0  0  0  0  0  0  0  0  0  0
  -21.4686  -11.3784   22.3161 F   0  0  0  0  0  0  0  0  0  0  0  0
  1  2  1  0  0  0  0
  1  7  2  0  0  0  0
  2  8  2  0  0  0  0
  3  6  2  0  0  0  0
  3 10  1  0  0  0  0
  4 11  2  0  0  0  0
  4 19  1  0  0  0  0
  5 12  1  0  0  0  0
  5 19  2  0  0  0  0
  6 20  1  0  0  0  0
  7 22  1  0  0  0  0
  8 24  1  0  0  0  0
  9 13  2  0  0  0  0
  9 23  1  0  0  0  0
 10 26  2  0  0  0  0
 11 27  1  0  0  0  0
 12 27  2  0  0  0  0
 13 28  1  0  0  0  0
 14 15  2  0  0  0  0
 14 29  1  0  0  0  0
 15 30  1  0  0  0  0
 16 20  2  0  0  0  0
 16 26  1  0  0  0  0
 17 25  1  0  0  0  0
 17 28  2  0  0  0  0
 18 30  2  0  0  0  0
 18 31  1  0  0  0  0
 19 32  1  0  0  0  0
 20 35  1  0  0  0  0
 21 32  1  0  0  0  0
 21 33  2  0  0  0  0
 21 34  1  0  0  0  0
 22 24  2  0  0  0  0
 22 42  1  0  0  0  0
 23 25  2  0  0  0  0
 23 43  1  0  0  0  0
 24 51  1  0  0  0  0
 25 44  1  0  0  0  0
 26 73  1  0  0  0  0
 27 86  1  0  0  0  0
 28 87  1  0  0  0  0
 29 31  2  0  0  0  0
 29 86  1  0  0  0  0
 30 88  1  0  0  0  0
 31 89  1  0  0  0  0
 32 67  2  0  0  0  0
 33 68  1  0  0  0  0
 33 71  1  0  0  0  0
 34 72  1  0  0  0  0
 34 80  2  0  0  0  0
 35 77  2  0  0  0  0
 35 78  1  0  0  0  0
 36 52  1  0  0  0  0
 36 74  1  0  0  0  0
 36 81  2  0  0  0  0
 37 63  1  0  0  0  0
 37 69  1  0  0  0  0
 37 82  2  0  0  0  0
 38 65  1  0  0  0  0
 38 75  1  0  0  0  0
 38 78  2  0  0  0  0
 39 54  1  0  0  0  0
 39 75  1  0  0  0  0
 39 83  2  0  0  0  0
 40 64  1  0  0  0  0
 40 76  1  0  0  0  0
 40 84  2  0  0  0  0
 41 70  1  0  0  0  0
 41 73  1  0  0  0  0
 41 85  2  0  0  0  0
 42 45  1  0  0  0  0
 43 52  1  0  0  0  0
 44 69  1  0  0  0  0
 45 47  1  0  0  0  0
 46 48  1  0  0  0  0
 46 49  1  0  0  0  0
 47 51  1  0  0  0  0
 48 53  1  0  0  0  0
 49 70  1  0  0  0  0
 50 53  1  0  0  0  0
 50 70  1  0  0  0  0
 51 74  1  0  0  0  0
 52 69  1  0  0  0  0
 53 68  1  0  0  0  0
 55 64  1  0  0  0  0
 56 65  1  0  0  0  0
 57 65  1  0  0  0  0
 58 66  1  0  0  0  0
 59 66  1  0  0  0  0
 60 66  1  0  0  0  0
 61 79  1  0  0  0  0
 62 65  1  0  0  0  0
 62 87  1  0  0  0  0
 63 66  1  0  0  0  0
 63 76  1  0  0  0  0
 64 79  1  0  0  0  0
 67 68  1  0  0  0  0
M  CHG  3  77   1  78   1  79   1
M  ISO  4  41 100  62 101  73 100  87 101
M  END
> <Batch ID>
0077

> <Smiles>
CNC(C)C(=O)NC(C(=O)N1Cc2cc([101O:1][101CH2:1]C(C)(C)C(=NC(C)=O)NC(=N)c3cccc([100NH:0][100C:0](=O)N4CCCC(n5nc(-c6ccc(Oc7ccc(F)cc7F)cc6)c(C(N)=O)c5N)C4)c3)ccc2CC1C(=O)NC1CCCc2ccccc21)C(C)(C)C

> <Shape>
0.252

> <Color>
0.066

> <Negative vol penalty>
0.000

$$$$

  -OEChem-04042323533D

 86 95  0     1  0  0  0  0  0999 V2000
  -24.1161  -33.5824   18.5917 C   0  0  0  0  0  0  0  0  0  0  0  0
  -25.0954  -32.7666   18.0343 C   0  0  0  0  0  0  0  0  0  0  0  0
  -23.4372  -15.7797   20.9211 C   0  0  0  0  0  0  0  0  0  0  0  0
  -22.6734  -14.4336   19.0659 C   0  0  0  0  0  0  0  0  0  0  0  0
  -23.4794  -33.1988   19.7713 C   0  0  0  0  0  0  0  0  0  0  0  0
  -25.4394  -31.5671   18.6567 C   0  0  0  0  0  0  0  0  0  0  0  0
  -27.6310  -24.9179   17.1397 C   0  0  0  0  0  0  0  0  0  0  0  0
  -29.8585  -17.1757   23.0680 C   0  0  0  0  0  0  0  0  0  0  0  0
  -30.9565  -17.1952   20.9160 C   0  0  0  0  0  0  0  0  0  0  0  0
  -30.0929  -15.8048   23.1751 C   0  0  0  0  0  0  0  0  0  0  0  0
  -31.1910  -15.8244   21.0232 C   0  0  0  0  0  0  0  0  0  0  0  0
  -22.4898  -16.7533   20.6047 C   0  0  0  0  0  0  0  0  0  0  0  0
  -21.7260  -15.4072   18.7495 C   0  0  0  0  0  0  0  0  0  0  0  0
  -28.6339  -24.0108   17.4787 C   0  0  0  0  0  0  0  0  0  0  0  0
  -18.6913  -16.3845   19.8702 C   0  0  0  0  0  0  0  0  0  0  0  0
  -17.3968  -15.9558   19.5770 C   0  0  0  0  0  0  0  0  0  0  0  0
  -27.4112  -23.4122   19.4701 C   0  0  0  0  0  0  0  0  0  0  0  0
  -17.5679  -16.9432   17.3785 C   0  0  0  0  0  0  0  0  0  0  0  0
  -23.5290  -14.6198   20.1517 C   0  0  0  0  0  0  0  0  0  0  0  0
  -24.3424  -12.5155   21.3425 C   0  0  0  0  0  0  0  0  0  0  0  0
  -23.8089  -31.9894   20.4033 C   0  0  0  0  0  0  0  0  0  0  0  0
  -26.5139  -25.0872   17.9704 C   0  0  0  0  0  0  0  0  0  0  0  0
  -24.8075  -31.1677   19.8466 C   0  0  0  0  0  0  0  0  0  0  0  0
  -26.3942  -24.3203   19.1381 C   0  0  0  0  0  0  0  0  0  0  0  0
  -30.2903  -17.8709   21.9384 C   0  0  0  0  0  0  0  0  0  0  0  0
  -30.7591  -15.1292   22.1528 C   0  0  0  0  0  0  0  0  0  0  0  0
  -21.6342  -16.5671   19.5190 C   0  0  0  0  0  0  0  0  0  0  0  0
  -28.5256  -23.2599   18.6455 C   0  0  0  0  0  0  0  0  0  0  0  0
  -19.4241  -17.0926   18.9177 C   0  0  0  0  0  0  0  0  0  0  0  0
  -16.8351  -16.2352   18.3311 C   0  0  0  0  0  0  0  0  0  0  0  0
  -18.8624  -17.3719   17.6719 C   0  0  0  0  0  0  0  0  0  0  0  0
  -24.5079  -13.6139   20.4776 C   0  0  0  0  0  0  0  0  0  0  0  0
  -25.5538  -11.8689   21.3118 C   0  0  0  0  0  0  0  0  0  0  0  0
  -29.3630  -21.3946   22.2950 C   0  0  0  0  0  0  0  0  0  0  0  0
  -29.9709  -21.4006   21.1067 C   0  0  0  0  0  0  0  0  0  0  0  0
  -29.3984  -20.0068   22.7980 C   0  0  0  0  0  0  0  0  0  0  0  0
  -23.1962  -12.1154   22.1052 C   0  0  0  0  0  0  0  0  0  0  0  0
  -25.2975  -27.5119   19.6271 C   0  0  0  0  0  0  0  0  0  0  0  0
  -22.8787  -25.4194   20.1687 C   0  0  0  0  0  0  0  0  0  0  0  0
  -21.8428  -22.1728   20.3509 C   0  0  0  0  0  0  0  0  0  0  0  0
  -31.0722  -12.8881   21.1180 C   0  0  0  0  0  0  0  0  0  0  0  0
  -23.1269  -31.6398   21.7023 C   0  0  0  0  0  0  0  0  0  0  0  0
  -25.4278  -26.0505   17.5769 C   0  0  0  0  0  0  0  0  0  0  0  0
  -25.2052  -24.4499   20.0535 C   0  0  0  0  0  0  0  0  0  0  0  0
  -30.4611  -20.0522   20.7050 C   0  0  0  0  0  0  0  0  0  0  0  0
  -23.2842  -30.1738   22.0975 C   0  0  0  0  0  0  0  0  0  0  0  0
  -29.3817  -11.7658   18.1982 C   0  0  0  0  0  0  0  0  0  0  0  0
  -24.7352  -29.7308   21.9385 C   0  0  0  0  0  0  0  0  0  0  0  0
  -27.9235  -12.0312   18.5709 C   0  0  0  0  0  0  0  0  0  0  0  0
  -30.3093  -12.8781   18.6881 C   0  0  0  0  0  0  0  0  0  0  0  0
  -28.7278  -13.4350   20.5083 C   0  0  0  0  0  0  0  0  0  0  0  0
  -25.1907  -29.8473   20.4789 C   0  0  1  0  0  0  0  0  0  0  0  0
  -24.5832  -26.5143   18.7597 C   0  0  1  0  0  0  0  0  0  0  0  0
  -27.7798  -12.3045   20.0785 C   0  0  1  0  0  0  0  0  0  0  0  0
  -31.6476  -22.8228   19.9277 C   0  0  0  0  0  0  0  0  0  0  0  0
  -19.8192  -20.7759   20.8520 C   0  0  0  0  0  0  0  0  0  0  0  0
  -23.2505  -25.9545   23.1496 C   0  0  0  0  0  0  0  0  0  0  0  0
  -21.9134  -23.8898   23.6159 C   0  0  0  0  0  0  0  0  0  0  0  0
  -20.8674  -25.8041   22.4059 C   0  0  0  0  0  0  0  0  0  0  0  0
  -31.4167  -13.1703   23.5628 C   0  0  0  0  0  0  0  0  0  0  0  0
  -21.8451  -20.9887   17.6385 C   0  0  0  0  0  0  0  0  0  0  0  0
  -30.1744  -22.5847   20.2208 C   0  0  1  0  0  0  0  0  0  1  0  0
  -22.5829  -24.3758   21.2187 C   0  0  1  0  0  0  0  0  0  0  0  0
  -20.6312  -21.4678   19.7682 C   0  0  2  0  0  0  0  0  0  0  0  0
  -22.1770  -25.0048   22.5815 C   0  0  0  0  0  0  0  0  0  0  0  0
  -25.7282  -13.6655   19.9372 N   0  0  0  0  0  0  0  0  0  0  0  0
  -26.3406  -12.5914   20.4638 N   0  0  0  0  0  0  0  0  0  0  0  0
  -30.0565  -19.2364   21.8313 N   0  0  0  0  0  0  0  0  0  0  0  0
  -24.1726  -25.4096   19.6288 N   0  0  0  0  0  0  0  0  0  0  0  0
  -30.1078  -13.1310   20.1218 N   0  0  0  0  0  0  0  0  0  0  0  0
  -26.0121  -10.7586   21.9278 N   0  0  0  0  0  0  0  0  0  0  0  0
  -22.0331  -12.8928   22.0210 N   0  0  0  0  0  0  0  0  0  0  0  0
  -24.6743  -28.7432   19.6986 N   0  0  0  0  0  0  0  0  0  0  0  0
  -21.5737  -23.4930   20.6439 N   0  0  0  0  0  0  0  0  0  0  0  0
  -31.0020  -13.7100   22.2634 N   0  0  0  0  0  0  0  0  0  0  0  0
  -21.0568  -20.4431   18.7734 N   0  3  0  0  0  0  0  0  0  0  0  0
  -28.9242  -19.6586   23.8671 O   0  0  0  0  0  0  0  0  0  0  0  0
  -23.2086  -11.1079   22.8524 O   0  0  0  0  0  0  0  0  0  0  0  0
  -26.3362  -27.1881   20.1909 O   0  0  0  0  0  0  0  0  0  0  0  0
  -21.9922  -26.2094   19.8346 O   0  0  0  0  0  0  0  0  0  0  0  0
  -22.9191  -21.6077   20.5318 O   0  0  0  0  0  0  0  0  0  0  0  0
  -31.9144  -11.9893   21.0050 O   0  0  0  0  0  0  0  0  0  0  0  0
  -20.7095  -17.5168   19.2101 O   0  0  0  0  0  0  0  0  0  0  0  0
  -29.5034  -22.3742   18.9791 O   0  0  0  0  0  0  0  0  0  1  0  0
  -15.5925  -15.8221   18.0491 F   0  0  0  0  0  0  0  0  0  0  0  0
  -19.5620  -18.0507   16.7523 F   0  0  0  0  0  0  0  0  0  0  0  0
  1  2  1  0  0  0  0
  1  5  2  0  0  0  0
  2  6  2  0  0  0  0
  3 12  2  0  0  0  0
  3 19  1  0  0  0  0
  4 13  1  0  0  0  0
  4 19  2  0  0  0  0
  5 21  1  0  0  0  0
  6 23  1  0  0  0  0
  7 14  2  0  0  0  0
  7 22  1  0  0  0  0
  8 10  2  0  0  0  0
  8 25  1  0  0  0  0
  9 11  1  0  0  0  0
  9 25  2  0  0  0  0
 10 26  1  0  0  0  0
 11 26  2  0  0  0  0
 12 27  1  0  0  0  0
 13 27  2  0  0  0  0
 14 28  1  0  0  0  0
 15 16  2  0  0  0  0
 15 29  1  0  0  0  0
 16 30  1  0  0  0  0
 17 24  1  0  0  0  0
 17 28  2  0  0  0  0
 18 30  2  0  0  0  0
 18 31  1  0  0  0  0
 19 32  1  0  0  0  0
 20 32  1  0  0  0  0
 20 33  2  0  0  0  0
 20 37  1  0  0  0  0
 21 23  2  0  0  0  0
 21 42  1  0  0  0  0
 22 24  2  0  0  0  0
 22 43  1  0  0  0  0
 23 52  1  0  0  0  0
 24 44  1  0  0  0  0
 25 68  1  0  0  0  0
 26 75  1  0  0  0  0
 27 83  1  0  0  0  0
 28 84  1  0  0  0  0
 29 31  2  0  0  0  0
 29 83  1  0  0  0  0
 30 85  1  0  0  0  0
 31 86  1  0  0  0  0
 32 66  2  0  0  0  0
 33 67  1  0  0  0  0
 33 71  1  0  0  0  0
 34 35  2  0  0  0  0
 34 36  1  0  0  0  0
 35 45  1  0  0  0  0
 35 62  1  0  0  0  0
 36 68  1  0  0  0  0
 36 77  2  0  0  0  0
 37 72  1  0  0  0  0
 37 78  2  0  0  0  0
 38 53  1  0  0  0  0
 38 73  1  0  0  0  0
 38 79  2  0  0  0  0
 39 63  1  0  0  0  0
 39 69  1  0  0  0  0
 39 80  2  0  0  0  0
 40 64  1  0  0  0  0
 40 74  1  0  0  0  0
 40 81  2  0  0  0  0
 41 70  1  0  0  0  0
 41 75  1  0  0  0  0
 41 82  2  0  0  0  0
 42 46  1  0  0  0  0
 43 53  1  0  0  0  0
 44 69  1  0  0  0  0
 45 68  1  0  0  0  0
 46 48  1  0  0  0  0
 47 49  1  0  0  0  0
 47 50  1  0  0  0  0
 48 52  1  0  0  0  0
 49 54  1  0  0  0  0
 50 70  1  0  0  0  0
 51 54  1  0  0  0  0
 51 70  1  0  0  0  0
 52 73  1  0  0  0  0
 53 69  1  0  0  0  0
 54 67  1  0  0  0  0
 55 62  1  0  0  0  0
 56 64  1  0  0  0  0
 57 65  1  0  0  0  0
 58 65  1  0  0  0  0
 59 65  1  0  0  0  0
 60 75  1  0  0  0  0
 61 76  1  0  0  0  0
 62 84  1  0  0  0  0
 63 65  1  0  0  0  0
 63 74  1  0  0  0  0
 64 76  1  0  0  0  0
 66 67  1  0  0  0  0
M  CHG  1  76   1
M  ISO  4  41 100  62 101  75 100  84 101
M  END
> <Batch ID>
0077

> <Smiles>
CNC(C)C(=O)NC(C(=O)N1Cc2cc([101O:1][101C:1](C)=C3CC(=O)N(c4ccc([100N:0](C)[100C:0](=O)N5CCCC(n6nc(-c7ccc(Oc8ccc(F)cc8F)cc7)c(C(N)=O)c6N)C5)cc4)C3)ccc2CC1C(=O)NC1CCCc2ccccc21)C(C)(C)C

> <Shape>
0.220

> <Color>
0.079

> <Negative vol penalty>
0.000

$$$$

  -OEChem-04042323533D

 87 96  0     1  0  0  0  0  0999 V2000
  -28.9902  -32.8364   26.4485 C   0  0  0  0  0  0  0  0  0  0  0  0
  -28.8579  -31.6424   25.7469 C   0  0  0  0  0  0  0  0  0  0  0  0
  -24.5860   -9.2669   21.0313 C   0  0  0  0  0  0  0  0  0  0  0  0
  -25.0795  -10.1812   23.2125 C   0  0  0  0  0  0  0  0  0  0  0  0
  -27.8612  -33.5999   26.7420 C   0  0  0  0  0  0  0  0  0  0  0  0
  -27.5962  -31.2106   25.3393 C   0  0  0  0  0  0  0  0  0  0  0  0
  -27.5658  -29.5371   20.5599 C   0  0  0  0  0  0  0  0  0  0  0  0
  -30.7935  -18.9694   19.6014 C   0  0  0  0  0  0  0  0  0  0  0  0
  -30.2471  -20.2527   19.6096 C   0  0  0  0  0  0  0  0  0  0  0  0
  -24.4608   -7.9961   21.5923 C   0  0  0  0  0  0  0  0  0  0  0  0
  -24.9543   -8.9103   23.7736 C   0  0  0  0  0  0  0  0  0  0  0  0
  -28.0699  -28.2577   20.3300 C   0  0  0  0  0  0  0  0  0  0  0  0
  -22.1431   -6.2619   23.3398 C   0  0  0  0  0  0  0  0  0  0  0  0
  -21.0541   -5.4841   22.9465 C   0  0  0  0  0  0  0  0  0  0  0  0
  -25.8200  -27.3907   20.2575 C   0  0  0  0  0  0  0  0  0  0  0  0
  -31.2061  -20.6470   21.7918 C   0  0  0  0  0  0  0  0  0  0  0  0
  -22.5636   -3.7920   22.1128 C   0  0  0  0  0  0  0  0  0  0  0  0
  -24.8954  -10.3595   21.8414 C   0  0  0  0  0  0  0  0  0  0  0  0
  -24.0084  -12.6306   21.0912 C   0  0  0  0  0  0  0  0  0  0  0  0
  -26.5861  -33.1822   26.3294 C   0  0  0  0  0  0  0  0  0  0  0  0
  -26.1831  -29.7514   20.6513 C   0  0  0  0  0  0  0  0  0  0  0  0
  -26.4489  -31.9686   25.6287 C   0  0  0  0  0  0  0  0  0  0  0  0
  -25.3008  -28.6742   20.4860 C   0  0  0  0  0  0  0  0  0  0  0  0
  -31.5462  -18.5248   20.6884 C   0  0  0  0  0  0  0  0  0  0  0  0
  -30.4534  -21.0915   20.7048 C   0  0  0  0  0  0  0  0  0  0  0  0
  -31.7525  -19.3637   21.7836 C   0  0  0  0  0  0  0  0  0  0  0  0
  -24.6449   -7.8177   22.9634 C   0  0  0  0  0  0  0  0  0  0  0  0
  -27.1971  -27.1838   20.1817 C   0  0  0  0  0  0  0  0  0  0  0  0
  -23.4424   -5.8048   23.1195 C   0  0  0  0  0  0  0  0  0  0  0  0
  -21.2643   -4.2492   22.3330 C   0  0  0  0  0  0  0  0  0  0  0  0
  -23.6527   -4.5698   22.5060 C   0  0  0  0  0  0  0  0  0  0  0  0
  -25.0255  -11.6725   21.2624 C   0  0  0  0  0  0  0  0  0  0  0  0
  -24.6388  -13.6990   20.5017 C   0  0  0  0  0  0  0  0  0  0  0  0
  -29.0565  -24.1633   20.7828 C   0  0  0  0  0  0  0  0  0  0  0  0
  -29.9510  -23.3634   21.6204 C   0  0  0  0  0  0  0  0  0  0  0  0
  -28.5150  -25.3894   20.8986 C   0  0  0  0  0  0  0  0  0  1  0  0
  -22.6180  -12.5611   21.4344 C   0  0  0  0  0  0  0  0  0  0  0  0
  -24.2216  -30.8050   22.9199 C   0  0  0  0  0  0  0  0  0  0  0  0
  -22.0148  -30.6304   20.5488 C   0  0  0  0  0  0  0  0  0  0  0  0
  -21.0553  -29.2476   17.5800 C   0  0  0  0  0  0  0  0  0  0  0  0
  -30.2580  -15.5060   20.6217 C   0  0  0  0  0  0  0  0  0  0  0  0
  -25.3897  -34.0175   26.7110 C   0  0  0  0  0  0  0  0  0  0  0  0
  -25.6543  -31.1420   20.8730 C   0  0  0  0  0  0  0  0  0  0  0  0
  -23.8071  -28.8547   20.5553 C   0  0  0  0  0  0  0  0  0  0  0  0
  -29.0243  -23.0303   19.7828 C   0  0  0  0  0  0  0  0  0  0  0  0
  -24.1310  -33.6772   25.9172 C   0  0  0  0  0  0  0  0  0  0  0  0
  -28.3330  -14.7595   17.6494 C   0  0  0  0  0  0  0  0  0  0  0  0
  -23.9283  -32.1664   25.8597 C   0  0  0  0  0  0  0  0  0  0  0  0
  -27.1625  -13.9682   18.2359 C   0  0  0  0  0  0  0  0  0  0  0  0
  -29.6370  -14.4350   18.3723 C   0  0  0  0  0  0  0  0  0  0  0  0
  -28.4224  -13.8512   20.4357 C   0  0  0  0  0  0  0  0  0  0  0  0
  -25.1000  -31.4793   25.1480 C   0  0  1  0  0  0  0  0  0  0  0  0
  -24.2463  -31.1594   21.4599 C   0  0  1  0  0  0  0  0  0  0  0  0
  -27.0709  -14.1518   19.7624 C   0  0  2  0  0  0  0  0  0  0  0  0
  -33.5271  -17.1037   20.0420 C   0  0  0  0  0  0  0  0  0  0  0  0
  -19.1842  -29.2740   15.9080 C   0  0  0  0  0  0  0  0  0  0  0  0
  -20.3181  -28.9232   22.4243 C   0  0  0  0  0  0  0  0  0  0  0  0
  -18.9688  -28.2086   20.4401 C   0  0  0  0  0  0  0  0  0  0  0  0
  -19.0329  -30.6128   21.1022 C   0  0  0  0  0  0  0  0  0  0  0  0
  -32.2758  -19.3960   24.2230 C   0  0  0  0  0  0  0  0  0  0  0  0
  -22.8391  -30.2147   15.4255 C   0  0  0  0  0  0  0  0  0  0  0  0
  -32.1200  -17.1458   20.6528 C   0  0  2  0  0  0  0  0  0  0  0  0
  -21.0740  -29.5649   20.0403 C   0  0  1  0  0  0  0  0  0  0  0  0
  -20.5254  -29.8728   16.3022 C   0  0  2  0  0  0  0  0  0  0  0  0
  -19.8766  -29.3233   21.0023 C   0  0  0  0  0  0  0  0  0  0  0  0
  -26.2119  -12.0949   20.8175 N   0  0  0  0  0  0  0  0  0  0  0  0
  -25.9443  -13.3302   20.3608 N   0  0  0  0  0  0  0  0  0  0  0  0
  -29.9138  -22.3569   20.7125 N   0  0  0  0  0  0  0  0  0  0  0  0
  -23.3391  -30.2324   20.7801 N   0  0  0  0  0  0  0  0  0  0  0  0
  -29.4881  -14.6481   19.8188 N   0  0  0  0  0  0  0  0  0  0  0  0
  -24.1982  -14.9086   20.0952 N   0  0  0  0  0  0  0  0  0  0  0  0
  -22.1355  -11.3896   22.0337 N   0  0  0  0  0  0  0  0  0  0  0  0
  -32.5112  -18.9293   22.8929 N   0  0  0  0  0  0  0  0  0  0  0  0
  -24.9845  -31.6394   23.7143 N   0  0  0  0  0  0  0  0  0  0  0  0
  -20.6862  -29.9715   18.6940 N   0  0  0  0  0  0  0  0  0  0  0  0
  -31.2510  -16.2194   19.9617 N   0  0  0  0  0  0  0  0  0  0  0  0
  -21.4845  -29.6551   15.1825 N   0  3  0  0  0  0  0  0  0  0  0  0
  -30.4951  -23.5223   22.6934 O   0  0  0  0  0  0  0  0  0  0  0  0
  -21.8236  -13.5034   21.2011 O   0  0  0  0  0  0  0  0  0  0  0  0
  -23.5583  -29.8464   23.2978 O   0  0  0  0  0  0  0  0  0  0  0  0
  -21.5919  -31.7754   20.7273 O   0  0  0  0  0  0  0  0  0  0  0  0
  -21.7263  -28.2179   17.5893 O   0  0  0  0  0  0  0  0  0  0  0  0
  -30.0709  -15.6312   21.8368 O   0  0  0  0  0  0  0  0  0  0  0  0
  -24.5226   -6.5777   23.5112 O   0  0  0  0  0  0  0  0  0  0  0  0
  -27.6865  -25.9339   19.9579 O   0  0  0  0  0  0  0  0  0  1  0  0
  -20.2184   -3.5017   21.9568 F   0  0  0  0  0  0  0  0  0  0  0  0
  -24.8986   -4.1248   22.2928 F   0  0  0  0  0  0  0  0  0  0  0  0
  1  2  1  0  0  0  0
  1  5  2  0  0  0  0
  2  6  2  0  0  0  0
  3 10  2  0  0  0  0
  3 18  1  0  0  0  0
  4 11  1  0  0  0  0
  4 18  2  0  0  0  0
  5 20  1  0  0  0  0
  6 22  1  0  0  0  0
  7 12  2  0  0  0  0
  7 21  1  0  0  0  0
  8  9  2  0  0  0  0
  8 24  1  0  0  0  0
  9 25  1  0  0  0  0
 10 27  1  0  0  0  0
 11 27  2  0  0  0  0
 12 28  1  0  0  0  0
 13 14  2  0  0  0  0
 13 29  1  0  0  0  0
 14 30  1  0  0  0  0
 15 23  1  0  0  0  0
 15 28  2  0  0  0  0
 16 25  2  0  0  0  0
 16 26  1  0  0  0  0
 17 30  2  0  0  0  0
 17 31  1  0  0  0  0
 18 32  1  0  0  0  0
 19 32  1  0  0  0  0
 19 33  2  0  0  0  0
 19 37  1  0  0  0  0
 20 22  2  0  0  0  0
 20 42  1  0  0  0  0
 21 23  2  0  0  0  0
 21 43  1  0  0  0  0
 22 52  1  0  0  0  0
 23 44  1  0  0  0  0
 24 26  2  0  0  0  0
 24 62  1  0  0  0  0
 25 68  1  0  0  0  0
 26 73  1  0  0  0  0
 27 84  1  0  0  0  0
 28 85  1  0  0  0  0
 29 31  2  0  0  0  0
 29 84  1  0  0  0  0
 30 86  1  0  0  0  0
 31 87  1  0  0  0  0
 32 66  2  0  0  0  0
 33 67  1  0  0  0  0
 33 71  1  0  0  0  0
 34 35  1  0  0  0  0
 34 36  2  0  0  0  0
 34 45  1  0  0  0  0
 35 68  1  0  0  0  0
 35 78  2  0  0  0  0
 36 85  1  0  0  0  0
 37 72  1  0  0  0  0
 37 79  2  0  0  0  0
 38 53  1  0  0  0  0
 38 74  1  0  0  0  0
 38 80  2  0  0  0  0
 39 63  1  0  0  0  0
 39 69  1  0  0  0  0
 39 81  2  0  0  0  0
 40 64  1  0  0  0  0
 40 75  1  0  0  0  0
 40 82  2  0  0  0  0
 41 70  1  0  0  0  0
 41 76  1  0  0  0  0
 41 83  2  0  0  0  0
 42 46  1  0  0  0  0
 43 53  1  0  0  0  0
 44 69  1  0  0  0  0
 45 68  1  0  0  0  0
 46 48  1  0  0  0  0
 47 49  1  0  0  0  0
 47 50  1  0  0  0  0
 48 52  1  0  0  0  0
 49 54  1  0  0  0  0
 50 70  1  0  0  0  0
 51 54  1  0  0  0  0
 51 70  1  0  0  0  0
 52 74  1  0  0  0  0
 53 69  1  0  0  0  0
 54 67  1  0  0  0  0
 55 62  1  0  0  0  0
 56 64  1  0  0  0  0
 57 65  1  0  0  0  0
 58 65  1  0  0  0  0
 59 65  1  0  0  0  0
 60 73  1  0  0  0  0
 61 77  1  0  0  0  0
 62 76  1  0  0  0  0
 63 65  1  0  0  0  0
 63 75  1  0  0  0  0
 64 77  1  0  0  0  0
 66 67  1  0  0  0  0
M  CHG  1  77   1
M  ISO  4  36 101  41 100  76 100  85 101
M  END
> <Batch ID>
0077

> <Smiles>
CNc1cc(N2CC(=[101CH:1][101O:1]c3ccc4c(c3)CN(C(=O)C(NC(=O)C(C)NC)C(C)(C)C)C(C(=O)NC3CCCc5ccccc53)C4)C2=O)ccc1C(C)[100NH:0][100C:0](=O)N1CCCC(n2nc(-c3ccc(Oc4ccc(F)cc4F)cc3)c(C(N)=O)c2N)C1

> <Shape>
0.318

> <Color>
0.095

> <Negative vol penalty>
0.000

$$$$

  -OEChem-04042323533D

 88 97  0     1  0  0  0  0  0999 V2000
  -30.5507  -35.1112   19.5878 C   0  0  0  0  0  0  0  0  0  0  0  0
  -30.4073  -33.7367   19.4282 C   0  0  0  0  0  0  0  0  0  0  0  0
  -23.1940   -9.9528   21.5560 C   0  0  0  0  0  0  0  0  0  0  0  0
  -23.9254  -10.9769   23.6183 C   0  0  0  0  0  0  0  0  0  0  0  0
  -30.0496  -35.7353   20.7294 C   0  0  0  0  0  0  0  0  0  0  0  0
  -29.7635  -32.9852   20.4107 C   0  0  0  0  0  0  0  0  0  0  0  0
  -26.2315  -28.0565   19.5521 C   0  0  0  0  0  0  0  0  0  0  0  0
  -22.4864   -8.9952   22.2824 C   0  0  0  0  0  0  0  0  0  0  0  0
  -23.2178  -10.0193   24.3448 C   0  0  0  0  0  0  0  0  0  0  0  0
  -26.4885  -26.6897   19.6502 C   0  0  0  0  0  0  0  0  0  0  0  0
  -19.5493   -8.7995   23.9462 C   0  0  0  0  0  0  0  0  0  0  0  0
  -18.2506   -8.5017   23.5334 C   0  0  0  0  0  0  0  0  0  0  0  0
  -31.6275  -19.7585   21.6950 C   0  0  0  0  0  0  0  0  0  0  0  0
  -31.9170  -17.4747   20.9620 C   0  0  0  0  0  0  0  0  0  0  0  0
  -25.6209  -26.6942   21.9010 C   0  0  0  0  0  0  0  0  0  0  0  0
  -29.6987  -18.4161   21.1342 C   0  0  0  0  0  0  0  0  0  0  0  0
  -18.8914   -6.1993   23.1787 C   0  0  0  0  0  0  0  0  0  0  0  0
  -23.9136  -10.9437   22.2239 C   0  0  0  0  0  0  0  0  0  0  0  0
  -32.4635  -18.6834   21.3934 C   0  0  0  0  0  0  0  0  0  0  0  0
  -24.1716  -13.1796   21.0231 C   0  0  0  0  0  0  0  0  0  0  0  0
  -29.3909  -34.9926   21.7219 C   0  0  0  0  0  0  0  0  0  0  0  0
  -25.6764  -28.7557   20.6334 C   0  0  0  0  0  0  0  0  0  0  0  0
  -29.2544  -33.5998   21.5673 C   0  0  0  0  0  0  0  0  0  0  0  0
  -25.3554  -28.0693   21.8132 C   0  0  0  0  0  0  0  0  0  0  0  0
  -30.2451  -19.6248   21.5655 C   0  0  0  0  0  0  0  0  0  0  0  0
  -30.5346  -17.3410   20.8325 C   0  0  0  0  0  0  0  0  0  0  0  0
  -22.4982   -9.0284   23.6769 C   0  0  0  0  0  0  0  0  0  0  0  0
  -26.1859  -26.0089   20.8258 C   0  0  0  0  0  0  0  0  0  0  0  0
  -20.5190   -7.7972   23.9752 C   0  0  0  0  0  0  0  0  0  0  0  0
  -17.9216   -7.2016   23.1496 C   0  0  0  0  0  0  0  0  0  0  0  0
  -20.1900   -6.4971   23.5915 C   0  0  0  0  0  0  0  0  0  0  0  0
  -24.6452  -11.9329   21.4740 C   0  0  0  0  0  0  0  0  0  0  0  0
  -25.2423  -13.7369   20.3676 C   0  0  0  0  0  0  0  0  0  0  0  0
  -27.2496  -21.7578   22.5613 C   0  0  0  0  0  0  0  0  0  0  0  0
  -27.6235  -22.9580   22.1010 C   0  0  0  0  0  0  0  0  0  0  0  0
  -28.0791  -20.5362   22.3628 C   0  0  0  0  0  0  0  0  0  0  0  0
  -33.9047  -18.8228   21.5282 C   0  0  0  0  0  0  0  0  0  0  0  0
  -22.8795  -13.7802   21.1826 C   0  0  0  0  0  0  0  0  0  0  0  0
  -26.6342  -31.1595   22.4796 C   0  0  0  0  0  0  0  0  0  0  0  0
  -23.6253  -30.9308   23.6698 C   0  0  0  0  0  0  0  0  0  0  0  0
  -20.8550  -29.0076   24.1932 C   0  0  0  0  0  0  0  0  0  0  0  0
  -30.6677  -14.9490   20.0533 C   0  0  0  0  0  0  0  0  0  0  0  0
  -28.9078  -35.7044   22.9607 C   0  0  0  0  0  0  0  0  0  0  0  0
  -25.3804  -30.2246   20.5022 C   0  0  0  0  0  0  0  0  0  0  0  0
  -24.7395  -28.7699   22.9957 C   0  0  0  0  0  0  0  0  0  0  0  0
  -28.9436  -23.1515   21.4261 C   0  0  0  0  0  0  0  0  0  0  0  0
  -27.9079  -34.8918   23.7792 C   0  0  0  0  0  0  0  0  0  0  0  0
  -29.6638  -11.7110   18.9649 C   0  0  0  0  0  0  0  0  0  0  0  0
  -28.4006  -33.4589   23.9542 C   0  0  0  0  0  0  0  0  0  0  0  0
  -28.2297  -11.5826   19.4836 C   0  0  0  0  0  0  0  0  0  0  0  0
  -29.9502  -22.0898   21.8514 C   0  0  0  0  0  0  0  0  0  0  0  0
  -30.5561  -12.4689   19.9463 C   0  0  0  0  0  0  0  0  0  0  0  0
  -28.6093  -13.6507   20.8858 C   0  0  0  0  0  0  0  0  0  0  0  0
  -28.5403  -32.7542   22.5994 C   0  0  1  0  0  0  0  0  0  0  0  0
  -25.2891  -30.9383   21.8474 C   0  0  1  0  0  0  0  0  0  0  0  0
  -27.6572  -12.9511   19.9021 C   0  0  2  0  0  0  0  0  0  0  0  0
  -18.5693  -29.0855   25.2260 C   0  0  0  0  0  0  0  0  0  0  0  0
  -24.8743  -30.7080   26.4448 C   0  0  0  0  0  0  0  0  0  0  0  0
  -22.6784  -29.8507   27.2880 C   0  0  0  0  0  0  0  0  0  0  0  0
  -22.8338  -32.1495   26.3319 C   0  0  0  0  0  0  0  0  0  0  0  0
  -19.5377  -28.4589   21.6004 C   0  0  0  0  0  0  0  0  0  0  0  0
  -26.7441  -24.1661   22.2216 C   0  0  0  0  0  0  0  0  0  1  0  0
  -22.9740  -30.1526   24.7875 C   0  0  1  0  0  0  0  0  0  0  0  0
  -19.3806  -29.2790   23.9544 C   0  0  2  0  0  0  0  0  0  0  0  0
  -23.3535  -30.7021   26.1916 C   0  0  0  0  0  0  0  0  0  0  0  0
  -25.9175  -11.7108   21.1336 N   0  0  0  0  0  0  0  0  0  0  0  0
  -26.2525  -12.8255   20.4618 N   0  0  0  0  0  0  0  0  0  0  0  0
  -29.3803  -20.7370   21.8776 N   0  0  0  0  0  0  0  0  0  0  0  0
  -24.4749  -30.2076   22.8208 N   0  0  0  0  0  0  0  0  0  0  0  0
  -29.9522  -13.7570   20.2941 N   0  0  0  0  0  0  0  0  0  0  0  0
  -25.4086  -14.9127   19.7256 N   0  0  0  0  0  0  0  0  0  0  0  0
  -34.3989  -20.0496   21.9620 N   0  0  0  0  0  0  0  0  0  0  0  0
  -21.8948  -13.0706   21.8833 N   0  0  0  0  0  0  0  0  0  0  0  0
  -29.9797  -16.1132   20.3939 N   0  0  0  0  0  0  0  0  0  0  0  0
  -27.2429  -32.3429   22.1075 N   0  0  0  0  0  0  0  0  0  0  0  0
  -21.5418  -30.1606   24.5099 N   0  0  0  0  0  0  0  0  0  0  0  0
  -18.8467  -28.3580   22.9116 N   0  3  0  0  0  0  0  0  0  0  0  0
  -27.5673  -19.4580   22.6647 O   0  0  0  0  0  0  0  0  0  0  0  0
  -34.6754  -17.8871   21.2509 O   0  0  0  0  0  0  0  0  0  0  0  0
  -22.6013  -14.9055   20.7033 O   0  0  0  0  0  0  0  0  0  0  0  0
  -27.0856  -30.3194   23.2491 O   0  0  0  0  0  0  0  0  0  0  0  0
  -23.3834  -32.1345   23.5501 O   0  0  0  0  0  0  0  0  0  0  0  0
  -21.3475  -27.8846   24.1109 O   0  0  0  0  0  0  0  0  0  0  0  0
  -31.7960  -14.9392   19.5546 O   0  0  0  0  0  0  0  0  0  0  0  0
  -21.8076   -8.0943   24.3861 O   0  0  0  0  0  0  0  0  0  0  0  0
  -26.4364  -24.6750   20.9244 O   0  0  0  0  0  0  0  0  0  1  0  0
  -16.6741   -6.9154   22.7547 F   0  0  0  0  0  0  0  0  0  0  0  0
  -21.1170   -5.5298   23.6184 F   0  0  0  0  0  0  0  0  0  0  0  0
  1  2  1  0  0  0  0
  1  5  2  0  0  0  0
  2  6  2  0  0  0  0
  3  8  2  0  0  0  0
  3 18  1  0  0  0  0
  4  9  1  0  0  0  0
  4 18  2  0  0  0  0
  5 21  1  0  0  0  0
  6 23  1  0  0  0  0
  7 10  2  0  0  0  0
  7 22  1  0  0  0  0
  8 27  1  0  0  0  0
  9 27  2  0  0  0  0
 10 28  1  0  0  0  0
 11 12  2  0  0  0  0
 11 29  1  0  0  0  0
 12 30  1  0  0  0  0
 13 19  1  0  0  0  0
 13 25  2  0  0  0  0
 14 19  2  0  0  0  0
 14 26  1  0  0  0  0
 15 24  1  0  0  0  0
 15 28  2  0  0  0  0
 16 25  1  0  0  0  0
 16 26  2  0  0  0  0
 17 30  2  0  0  0  0
 17 31  1  0  0  0  0
 18 32  1  0  0  0  0
 19 37  1  0  0  0  0
 20 32  1  0  0  0  0
 20 33  2  0  0  0  0
 20 38  1  0  0  0  0
 21 23  2  0  0  0  0
 21 43  1  0  0  0  0
 22 24  2  0  0  0  0
 22 44  1  0  0  0  0
 23 54  1  0  0  0  0
 24 45  1  0  0  0  0
 25 68  1  0  0  0  0
 26 74  1  0  0  0  0
 27 85  1  0  0  0  0
 28 86  1  0  0  0  0
 29 31  2  0  0  0  0
 29 85  1  0  0  0  0
 30 87  1  0  0  0  0
 31 88  1  0  0  0  0
 32 66  2  0  0  0  0
 33 67  1  0  0  0  0
 33 71  1  0  0  0  0
 34 35  2  0  0  0  0
 34 36  1  0  0  0  0
 35 46  1  0  0  0  0
 35 62  1  0  0  0  0
 36 68  1  0  0  0  0
 36 78  2  0  0  0  0
 37 72  1  0  0  0  0
 37 79  2  0  0  0  0
 38 73  1  0  0  0  0
 38 80  2  0  0  0  0
 39 55  1  0  0  0  0
 39 75  1  0  0  0  0
 39 81  2  0  0  0  0
 40 63  1  0  0  0  0
 40 69  1  0  0  0  0
 40 82  2  0  0  0  0
 41 64  1  0  0  0  0
 41 76  1  0  0  0  0
 41 83  2  0  0  0  0
 42 70  1  0  0  0  0
 42 74  1  0  0  0  0
 42 84  2  0  0  0  0
 43 47  1  0  0  0  0
 44 55  1  0  0  0  0
 45 69  1  0  0  0  0
 46 51  1  0  0  0  0
 47 49  1  0  0  0  0
 48 50  1  0  0  0  0
 48 52  1  0  0  0  0
 49 54  1  0  0  0  0
 50 56  1  0  0  0  0
 51 68  1  0  0  0  0
 52 70  1  0  0  0  0
 53 56  1  0  0  0  0
 53 70  1  0  0  0  0
 54 75  1  0  0  0  0
 55 69  1  0  0  0  0
 56 67  1  0  0  0  0
 57 64  1  0  0  0  0
 58 65  1  0  0  0  0
 59 65  1  0  0  0  0
 60 65  1  0  0  0  0
 61 77  1  0  0  0  0
 62 86  1  0  0  0  0
 63 65  1  0  0  0  0
 63 76  1  0  0  0  0
 64 77  1  0  0  0  0
 66 67  1  0  0  0  0
M  CHG  1  77   1
M  ISO  4  42 100  62 101  74 100  86 101
M  END
> <Batch ID>
0077

> <Smiles>
CNC(C)C(=O)NC(C(=O)N1Cc2cc([101O:1][101CH2:1]C3=CC(=O)N(c4cc([100NH:0][100C:0](=O)N5CCCC(n6nc(-c7ccc(Oc8ccc(F)cc8F)cc7)c(C(N)=O)c6N)C5)cc(C(N)=O)c4)CC3)ccc2CC1C(=O)NC1CCCc2ccccc21)C(C)(C)C

> <Shape>
0.271

> <Color>
0.156

> <Negative vol penalty>
0.000

$$$$

  -OEChem-04042323533D

 82 90  0     1  0  0  0  0  0999 V2000
  -26.3159  -38.0838   20.8650 C   0  0  0  0  0  0  0  0  0  0  0  0
  -26.9632  -36.9189   20.4658 C   0  0  0  0  0  0  0  0  0  0  0  0
  -23.9986   -9.4531   22.1302 C   0  0  0  0  0  0  0  0  0  0  0  0
  -24.3466  -11.1334   23.8309 C   0  0  0  0  0  0  0  0  0  0  0  0
  -25.4886  -38.0707   21.9872 C   0  0  0  0  0  0  0  0  0  0  0  0
  -26.7845  -35.7403   21.1893 C   0  0  0  0  0  0  0  0  0  0  0  0
  -26.6104  -30.0403   18.9567 C   0  0  0  0  0  0  0  0  0  0  0  0
  -30.3228  -20.1436   19.3218 C   0  0  0  0  0  0  0  0  0  0  0  0
  -27.9226  -20.4165   19.3642 C   0  0  0  0  0  0  0  0  0  0  0  0
  -30.1641  -18.7606   19.2345 C   0  0  0  0  0  0  0  0  0  0  0  0
  -27.7639  -19.0334   19.2769 C   0  0  0  0  0  0  0  0  0  0  0  0
  -23.5822   -8.5496   23.1079 C   0  0  0  0  0  0  0  0  0  0  0  0
  -23.9301  -10.2299   24.8087 C   0  0  0  0  0  0  0  0  0  0  0  0
  -27.5719  -29.0337   18.8786 C   0  0  0  0  0  0  0  0  0  0  0  0
  -20.7876   -7.9454   24.9130 C   0  0  0  0  0  0  0  0  0  0  0  0
  -19.6432   -7.1915   24.6536 C   0  0  0  0  0  0  0  0  0  0  0  0
  -26.7167  -28.0670   20.9166 C   0  0  0  0  0  0  0  0  0  0  0  0
  -20.9357   -5.1602   24.8550 C   0  0  0  0  0  0  0  0  0  0  0  0
  -24.3809  -10.7450   22.4917 C   0  0  0  0  0  0  0  0  0  0  0  0
  -24.0073  -12.5785   20.7579 C   0  0  0  0  0  0  0  0  0  0  0  0
  -25.2920  -36.8891   22.7192 C   0  0  0  0  0  0  0  0  0  0  0  0
  -25.7003  -30.0740   20.0230 C   0  0  0  0  0  0  0  0  0  0  0  0
  -25.9549  -35.7117   22.3232 C   0  0  0  0  0  0  0  0  0  0  0  0
  -25.7430  -29.0736   21.0045 C   0  0  0  0  0  0  0  0  0  0  0  0
  -29.2021  -20.9716   19.3867 C   0  0  0  0  0  0  0  0  0  0  0  0
  -28.8846  -18.2055   19.2120 C   0  0  0  0  0  0  0  0  0  0  0  0
  -23.5479   -8.9380   24.4472 C   0  0  0  0  0  0  0  0  0  0  0  0
  -27.6270  -28.0485   19.8602 C   0  0  0  0  0  0  0  0  0  0  0  0
  -22.0062   -7.3069   25.1433 C   0  0  0  0  0  0  0  0  0  0  0  0
  -19.7172   -5.7989   24.6247 C   0  0  0  0  0  0  0  0  0  0  0  0
  -22.0802   -5.9143   25.1144 C   0  0  0  0  0  0  0  0  0  0  0  0
  -24.8117  -11.6785   21.4822 C   0  0  0  0  0  0  0  0  0  0  0  0
  -24.8856  -13.2350   19.9308 C   0  0  0  0  0  0  0  0  0  0  0  0
  -28.9423  -24.7077   19.6308 C   0  0  0  0  0  0  0  0  0  0  0  0
  -28.1349  -25.7704   19.7080 C   0  0  0  0  0  0  0  0  0  1  0  0
  -22.5926  -12.8013   20.8266 C   0  0  0  0  0  0  0  0  0  0  0  0
  -28.3620  -23.3355   19.5483 C   0  0  0  0  0  0  0  0  0  0  0  0
  -25.0658  -32.1255   22.3665 C   0  0  0  0  0  0  0  0  0  0  0  0
  -22.6181  -30.0828   22.9654 C   0  0  0  0  0  0  0  0  0  0  0  0
  -21.3417  -26.9300   22.6873 C   0  0  0  0  0  0  0  0  0  0  0  0
  -29.7288  -15.8374   19.0510 C   0  0  0  0  0  0  0  0  0  0  0  0
  -24.4258  -36.9350   23.9530 C   0  0  0  0  0  0  0  0  0  0  0  0
  -24.6520  -31.1513   20.0784 C   0  0  0  0  0  0  0  0  0  0  0  0
  -24.7756  -29.0533   22.1587 C   0  0  0  0  0  0  0  0  0  0  0  0
  -23.9938  -35.5563   24.4456 C   0  0  0  0  0  0  0  0  0  0  0  0
  -29.7402  -12.2821   18.8599 C   0  0  0  0  0  0  0  0  0  0  0  0
  -25.1835  -34.6021   24.4725 C   0  0  0  0  0  0  0  0  0  0  0  0
  -28.3928  -11.8821   19.4655 C   0  0  0  0  0  0  0  0  0  0  0  0
  -30.3474  -13.4882   19.5742 C   0  0  0  0  0  0  0  0  0  0  0  0
  -28.1172  -14.2571   20.2843 C   0  0  0  0  0  0  0  0  0  0  0  0
  -25.7667  -34.4077   23.0676 C   0  0  1  0  0  0  0  0  0  0  0  0
  -24.1047  -31.3807   21.4838 C   0  0  1  0  0  0  0  0  0  0  0  0
  -27.4359  -13.0870   19.5562 C   0  0  2  0  0  0  0  0  0  0  0  0
  -19.3362  -25.5550   23.3075 C   0  0  0  0  0  0  0  0  0  0  0  0
  -23.6197  -29.9244   25.8432 C   0  0  0  0  0  0  0  0  0  0  0  0
  -22.2154  -27.8739   26.1455 C   0  0  0  0  0  0  0  0  0  0  0  0
  -21.1333  -30.0567   25.6098 C   0  0  0  0  0  0  0  0  0  0  0  0
  -20.6979  -26.3791   19.8516 C   0  0  0  0  0  0  0  0  0  0  0  0
  -22.4401  -28.8475   23.8148 C   0  0  1  0  0  0  0  0  0  0  0  0
  -19.9787  -26.4307   22.2430 C   0  0  2  0  0  0  0  0  0  0  0  0
  -22.3717  -29.1768   25.3328 C   0  0  0  0  0  0  0  0  0  0  0  0
  -26.1018  -11.7535   21.1449 N   0  0  0  0  0  0  0  0  0  0  0  0
  -26.1148  -12.7085   20.1994 N   0  0  0  0  0  0  0  0  0  0  0  0
  -23.7732  -30.1315   22.1721 N   0  0  0  0  0  0  0  0  0  0  0  0
  -29.3857  -14.5919   19.6182 N   0  0  0  0  0  0  0  0  0  0  0  0
  -24.7187  -14.2054   19.0073 N   0  0  0  0  0  0  0  0  0  0  0  0
  -21.8395  -12.0405   21.7312 N   0  0  0  0  0  0  0  0  0  0  0  0
  -29.3631  -22.3762   19.4757 N   0  0  0  0  0  0  0  0  0  0  0  0
  -28.7230  -16.8006   19.1234 N   0  0  0  0  0  0  0  0  0  0  0  0
  -24.9418  -33.5002   22.2992 N   0  0  0  0  0  0  0  0  0  0  0  0
  -21.2596  -28.1636   23.2980 N   0  0  0  0  0  0  0  0  0  0  0  0
  -20.1022  -25.6334   20.9901 N   0  3  0  0  0  0  0  0  0  0  0  0
  -22.0111  -13.6384   20.0954 O   0  0  0  0  0  0  0  0  0  0  0  0
  -27.1496  -23.1576   19.5497 O   0  0  0  0  0  0  0  0  0  0  0  0
  -25.8599  -31.4995   23.0587 O   0  0  0  0  0  0  0  0  0  0  0  0
  -21.7604  -30.9687   22.9991 O   0  0  0  0  0  0  0  0  0  0  0  0
  -22.3753  -26.2882   22.5135 O   0  0  0  0  0  0  0  0  0  0  0  0
  -30.8235  -16.0267   18.5146 O   0  0  0  0  0  0  0  0  0  0  0  0
  -23.1414   -8.0568   25.4015 O   0  0  0  0  0  0  0  0  0  0  0  0
  -28.5650  -27.0653   19.7867 O   0  0  0  0  0  0  0  0  0  1  0  0
  -18.6178   -5.0749   24.3771 F   0  0  0  0  0  0  0  0  0  0  0  0
  -23.2478   -5.2951   25.3361 F   0  0  0  0  0  0  0  0  0  0  0  0
  1  2  1  0  0  0  0
  1  5  2  0  0  0  0
  2  6  2  0  0  0  0
  3 12  2  0  0  0  0
  3 19  1  0  0  0  0
  4 13  1  0  0  0  0
  4 19  2  0  0  0  0
  5 21  1  0  0  0  0
  6 23  1  0  0  0  0
  7 14  2  0  0  0  0
  7 22  1  0  0  0  0
  8 10  2  0  0  0  0
  8 25  1  0  0  0  0
  9 11  1  0  0  0  0
  9 25  2  0  0  0  0
 10 26  1  0  0  0  0
 11 26  2  0  0  0  0
 12 27  1  0  0  0  0
 13 27  2  0  0  0  0
 14 28  1  0  0  0  0
 15 16  2  0  0  0  0
 15 29  1  0  0  0  0
 16 30  1  0  0  0  0
 17 24  1  0  0  0  0
 17 28  2  0  0  0  0
 18 30  2  0  0  0  0
 18 31  1  0  0  0  0
 19 32  1  0  0  0  0
 20 32  1  0  0  0  0
 20 33  2  0  0  0  0
 20 36  1  0  0  0  0
 21 23  2  0  0  0  0
 21 42  1  0  0  0  0
 22 24  2  0  0  0  0
 22 43  1  0  0  0  0
 23 51  1  0  0  0  0
 24 44  1  0  0  0  0
 25 68  1  0  0  0  0
 26 69  1  0  0  0  0
 27 79  1  0  0  0  0
 28 80  1  0  0  0  0
 29 31  2  0  0  0  0
 29 79  1  0  0  0  0
 30 81  1  0  0  0  0
 31 82  1  0  0  0  0
 32 62  2  0  0  0  0
 33 63  1  0  0  0  0
 33 66  1  0  0  0  0
 34 35  2  0  0  0  0
 34 37  1  0  0  0  0
 35 80  1  0  0  0  0
 36 67  1  0  0  0  0
 36 73  2  0  0  0  0
 37 68  1  0  0  0  0
 37 74  2  0  0  0  0
 38 52  1  0  0  0  0
 38 70  1  0  0  0  0
 38 75  2  0  0  0  0
 39 59  1  0  0  0  0
 39 64  1  0  0  0  0
 39 76  2  0  0  0  0
 40 60  1  0  0  0  0
 40 71  1  0  0  0  0
 40 77  2  0  0  0  0
 41 65  1  0  0  0  0
 41 69  1  0  0  0  0
 41 78  2  0  0  0  0
 42 45  1  0  0  0  0
 43 52  1  0  0  0  0
 44 64  1  0  0  0  0
 45 47  1  0  0  0  0
 46 48  1  0  0  0  0
 46 49  1  0  0  0  0
 47 51  1  0  0  0  0
 48 53  1  0  0  0  0
 49 65  1  0  0  0  0
 50 53  1  0  0  0  0
 50 65  1  0  0  0  0
 51 70  1  0  0  0  0
 52 64  1  0  0  0  0
 53 63  1  0  0  0  0
 54 60  1  0  0  0  0
 55 61  1  0  0  0  0
 56 61  1  0  0  0  0
 57 61  1  0  0  0  0
 58 72  1  0  0  0  0
 59 61  1  0  0  0  0
 59 71  1  0  0  0  0
 60 72  1  0  0  0  0
 62 63  1  0  0  0  0
M  CHG  1  72   1
M  ISO  4  35 101  41 100  69 100  80 101
M  END
> <Batch ID>
0077

> <Smiles>
CNC(C)C(=O)NC(C(=O)N1Cc2cc([101O:1][101CH:1]=CC(=O)Nc3ccc([100NH:0][100C:0](=O)N4CCCC(n5nc(-c6ccc(Oc7ccc(F)cc7F)cc6)c(C(N)=O)c5N)C4)cc3)ccc2CC1C(=O)NC1CCCc2ccccc21)C(C)(C)C

> <Shape>
0.335

> <Color>
0.110

> <Negative vol penalty>
0.000

$$$$

  -OEChem-04042323533D

 85 93  0     1  0  0  0  0  0999 V2000
  -16.4984  -25.5562   21.8647 C   0  0  0  0  0  0  0  0  0  0  0  0
  -17.7741  -25.0035   21.8132 C   0  0  0  0  0  0  0  0  0  0  0  0
  -33.2483  -16.9708   23.0810 C   0  0  0  0  0  0  0  0  0  0  0  0
  -22.8703  -10.1897   20.1680 C   0  0  0  0  0  0  0  0  0  0  0  0
  -23.7401  -10.1593   22.4218 C   0  0  0  0  0  0  0  0  0  0  0  0
  -32.5683  -17.9156   23.8494 C   0  0  0  0  0  0  0  0  0  0  0  0
  -16.3361  -26.9038   22.1833 C   0  0  0  0  0  0  0  0  0  0  0  0
  -18.8884  -25.7985   22.0792 C   0  0  0  0  0  0  0  0  0  0  0  0
  -22.2203  -23.5143   25.1328 C   0  0  0  0  0  0  0  0  0  0  0  0
  -32.5403  -16.1307   22.2215 C   0  0  0  0  0  0  0  0  0  0  0  0
  -22.0399   -9.1116   20.4739 C   0  0  0  0  0  0  0  0  0  0  0  0
  -22.9097   -9.0812   22.7277 C   0  0  0  0  0  0  0  0  0  0  0  0
  -23.0521  -22.5522   24.5615 C   0  0  0  0  0  0  0  0  0  0  0  0
  -19.1077   -8.6029   22.0790 C   0  0  0  0  0  0  0  0  0  0  0  0
  -17.7795   -8.6677   21.6578 C   0  0  0  0  0  0  0  0  0  0  0  0
  -30.4723  -17.1801   22.8992 C   0  0  0  0  0  0  0  0  0  0  0  0
  -24.8343  -24.1735   24.4408 C   0  0  0  0  0  0  0  0  0  0  0  0
  -18.0979   -6.6645   20.3452 C   0  0  0  0  0  0  0  0  0  0  0  0
  -23.7205  -10.7135   21.1419 C   0  0  0  0  0  0  0  0  0  0  0  0
  -31.1804  -18.0203   23.7586 C   0  0  0  0  0  0  0  0  0  0  0  0
  -24.2797  -13.1959   20.9605 C   0  0  0  0  0  0  0  0  0  0  0  0
  -17.4483  -27.7134   22.4628 C   0  0  0  0  0  0  0  0  0  0  0  0
  -22.6867  -24.8183   25.3527 C   0  0  0  0  0  0  0  0  0  0  0  0
  -18.7409  -27.1586   22.4005 C   0  0  0  0  0  0  0  0  0  0  0  0
  -24.0072  -25.1496   25.0174 C   0  0  0  0  0  0  0  0  0  0  0  0
  -31.1523  -16.2353   22.1307 C   0  0  0  0  0  0  0  0  0  0  0  0
  -22.0595   -8.5573   21.7538 C   0  0  0  0  0  0  0  0  0  0  0  0
  -24.3584  -22.8826   24.2127 C   0  0  0  0  0  0  0  0  0  0  0  0
  -19.9310   -7.5689   21.6331 C   0  0  0  0  0  0  0  0  0  0  0  0
  -17.2746   -7.6986   20.7910 C   0  0  0  0  0  0  0  0  0  0  0  0
  -19.4261   -6.5997   20.7663 C   0  0  0  0  0  0  0  0  0  0  0  0
  -24.5790  -11.8269   20.8263 C   0  0  0  0  0  0  0  0  0  0  0  0
  -25.4150  -13.8392   20.5319 C   0  0  0  0  0  0  0  0  0  0  0  0
  -26.3276  -21.6242   24.3095 C   0  0  0  0  0  0  0  0  0  1  0  0
  -30.4577  -19.0268   24.5774 C   0  0  0  0  0  0  0  0  0  0  0  0
  -23.0824  -13.8294   21.4306 C   0  0  0  0  0  0  0  0  0  0  0  0
  -27.2001  -20.7182   23.8522 C   0  0  0  0  0  0  0  0  0  0  0  0
  -28.4359  -20.4400   24.6463 C   0  0  0  0  0  0  0  0  0  0  0  0
  -21.8632  -27.7024   24.3001 C   0  0  0  0  0  0  0  0  0  0  0  0
  -24.0757  -28.6929   26.4555 C   0  0  0  0  0  0  0  0  0  0  0  0
  -26.8628  -27.9694   28.2873 C   0  0  0  0  0  0  0  0  0  0  0  0
  -30.9545  -14.3915   20.4255 C   0  0  0  0  0  0  0  0  0  0  0  0
  -17.2262  -29.1760   22.7561 C   0  0  0  0  0  0  0  0  0  0  0  0
  -21.7853  -25.8372   25.9945 C   0  0  0  0  0  0  0  0  0  0  0  0
  -24.5625  -26.5299   25.2515 C   0  0  0  0  0  0  0  0  0  0  0  0
  -18.4339  -29.8601   23.3915 C   0  0  0  0  0  0  0  0  0  0  0  0
  -29.5139  -12.0558   18.1569 C   0  0  0  0  0  0  0  0  0  0  0  0
  -19.7110  -29.4922   22.6429 C   0  0  0  0  0  0  0  0  0  0  0  0
  -28.0769  -11.9007   18.6602 C   0  0  0  0  0  0  0  0  0  0  0  0
  -30.5039  -12.2177   19.3090 C   0  0  0  0  0  0  0  0  0  0  0  0
  -28.7397  -13.1292   20.7670 C   0  0  0  0  0  0  0  0  0  0  0  0
  -19.9726  -27.9826   22.7070 C   0  0  1  0  0  0  0  0  0  0  0  0
  -22.2031  -27.2746   25.6998 C   0  0  1  0  0  0  0  0  0  0  0  0
  -27.6983  -13.0282   19.6405 C   0  0  2  0  0  0  0  0  0  0  0  0
  -28.4612  -28.9921   29.9294 C   0  0  0  0  0  0  0  0  0  0  0  0
  -25.4014  -30.2505   24.1914 C   0  0  0  0  0  0  0  0  0  0  0  0
  -27.4466  -30.4523   25.6213 C   0  0  0  0  0  0  0  0  0  0  0  0
  -25.2960  -31.4682   26.3732 C   0  0  0  0  0  0  0  0  0  0  0  0
  -26.1794  -25.9793   30.3686 C   0  0  0  0  0  0  0  0  0  0  0  0
  -25.5620  -28.9544   26.4186 C   0  0  1  0  0  0  0  0  0  0  0  0
  -27.1865  -28.1812   29.7552 C   0  0  2  0  0  0  0  0  0  0  0  0
  -25.9157  -30.2558   25.6448 C   0  0  0  0  0  0  0  0  0  0  0  0
  -25.8081  -11.6121   20.3496 N   0  0  0  0  0  0  0  0  0  0  0  0
  -26.2911  -12.8547   20.1804 N   0  0  0  0  0  0  0  0  0  0  0  0
  -23.6403  -27.4928   25.8758 N   0  0  0  0  0  0  0  0  0  0  0  0
  -30.0831  -13.3063   20.1936 N   0  0  0  0  0  0  0  0  0  0  0  0
  -25.7394  -15.1453   20.4251 N   0  0  0  0  0  0  0  0  0  0  0  0
  -22.0114  -13.0195   21.8322 N   0  0  0  0  0  0  0  0  0  0  0  0
  -30.4334  -15.3819   21.2574 N   0  0  0  0  0  0  0  0  0  0  0  0
  -29.2484  -19.4776   24.0501 N   0  0  0  0  0  0  0  0  0  0  0  0
  -20.5176  -27.6185   23.9973 N   0  0  0  0  0  0  0  0  0  0  0  0
  -26.0132  -28.9428   27.8059 N   0  0  0  0  0  0  0  0  0  0  0  0
  -27.3661  -26.8701   30.4405 N   0  3  0  0  0  0  0  0  0  0  0  0
  -30.9609  -19.4158   25.6279 O   0  0  0  0  0  0  0  0  0  0  0  0
  -22.9599  -15.0770   21.4772 O   0  0  0  0  0  0  0  0  0  0  0  0
  -28.6740  -21.0139   25.7051 O   0  0  0  0  0  0  0  0  0  0  0  0
  -22.7555  -28.0819   23.5508 O   0  0  0  0  0  0  0  0  0  0  0  0
  -23.3292  -29.5195   26.9858 O   0  0  0  0  0  0  0  0  0  0  0  0
  -27.3210  -27.0359   27.6321 O   0  0  0  0  0  0  0  0  0  0  0  0
  -32.0697  -14.4517   19.9013 O   0  0  0  0  0  0  0  0  0  0  0  0
  -27.0071  -20.0267   22.6741 O   0  0  0  0  0  0  0  0  0  0  0  0
  -21.2492   -7.5054   22.0527 O   0  0  0  0  0  0  0  0  0  0  0  0
  -25.1722  -21.9456   23.6543 O   0  0  0  0  0  0  0  0  0  1  0  0
  -15.9987   -7.7601   20.3879 F   0  0  0  0  0  0  0  0  0  0  0  0
  -20.2119   -5.6033   20.3356 F   0  0  0  0  0  0  0  0  0  0  0  0
  1  2  1  0  0  0  0
  1  7  2  0  0  0  0
  2  8  2  0  0  0  0
  3  6  2  0  0  0  0
  3 10  1  0  0  0  0
  4 11  2  0  0  0  0
  4 19  1  0  0  0  0
  5 12  1  0  0  0  0
  5 19  2  0  0  0  0
  6 20  1  0  0  0  0
  7 22  1  0  0  0  0
  8 24  1  0  0  0  0
  9 13  2  0  0  0  0
  9 23  1  0  0  0  0
 10 26  2  0  0  0  0
 11 27  1  0  0  0  0
 12 27  2  0  0  0  0
 13 28  1  0  0  0  0
 14 15  2  0  0  0  0
 14 29  1  0  0  0  0
 15 30  1  0  0  0  0
 16 20  2  0  0  0  0
 16 26  1  0  0  0  0
 17 25  1  0  0  0  0
 17 28  2  0  0  0  0
 18 30  2  0  0  0  0
 18 31  1  0  0  0  0
 19 32  1  0  0  0  0
 20 35  1  0  0  0  0
 21 32  1  0  0  0  0
 21 33  2  0  0  0  0
 21 36  1  0  0  0  0
 22 24  2  0  0  0  0
 22 43  1  0  0  0  0
 23 25  2  0  0  0  0
 23 44  1  0  0  0  0
 24 52  1  0  0  0  0
 25 45  1  0  0  0  0
 26 69  1  0  0  0  0
 27 82  1  0  0  0  0
 28 83  1  0  0  0  0
 29 31  2  0  0  0  0
 29 82  1  0  0  0  0
 30 84  1  0  0  0  0
 31 85  1  0  0  0  0
 32 63  2  0  0  0  0
 33 64  1  0  0  0  0
 33 67  1  0  0  0  0
 34 37  2  0  0  0  0
 34 83  1  0  0  0  0
 35 70  1  0  0  0  0
 35 74  2  0  0  0  0
 36 68  1  0  0  0  0
 36 75  2  0  0  0  0
 37 38  1  0  0  0  0
 37 81  1  0  0  0  0
 38 70  1  0  0  0  0
 38 76  2  0  0  0  0
 39 53  1  0  0  0  0
 39 71  1  0  0  0  0
 39 77  2  0  0  0  0
 40 60  1  0  0  0  0
 40 65  1  0  0  0  0
 40 78  2  0  0  0  0
 41 61  1  0  0  0  0
 41 72  1  0  0  0  0
 41 79  2  0  0  0  0
 42 66  1  0  0  0  0
 42 69  1  0  0  0  0
 42 80  2  0  0  0  0
 43 46  1  0  0  0  0
 44 53  1  0  0  0  0
 45 65  1  0  0  0  0
 46 48  1  0  0  0  0
 47 49  1  0  0  0  0
 47 50  1  0  0  0  0
 48 52  1  0  0  0  0
 49 54  1  0  0  0  0
 50 66  1  0  0  0  0
 51 54  1  0  0  0  0
 51 66  1  0  0  0  0
 52 71  1  0  0  0  0
 53 65  1  0  0  0  0
 54 64  1  0  0  0  0
 55 61  1  0  0  0  0
 56 62  1  0  0  0  0
 57 62  1  0  0  0  0
 58 62  1  0  0  0  0
 59 73  1  0  0  0  0
 60 62  1  0  0  0  0
 60 72  1  0  0  0  0
 61 73  1  0  0  0  0
 63 64  1  0  0  0  0
M  CHG  1  73   1
M  ISO  4  34 101  42 100  69 100  83 101
M  END
> <Batch ID>
0077

> <Smiles>
CNC(C)C(=O)NC(C(=O)N1Cc2cc([101O:1][101CH2:1]C(=O)C(=O)NC(=O)c3cccc([100NH:0][100C:0](=O)N4CCCC(n5nc(-c6ccc(Oc7ccc(F)cc7F)cc6)c(C(N)=O)c5N)C4)c3)ccc2CC1C(=O)NC1CCCc2ccccc21)C(C)(C)C

> <Shape>
0.239

> <Color>
0.183

> <Negative vol penalty>
0.000

$$$$

  -OEChem-04042323533D

 88 97  0     1  0  0  0  0  0999 V2000
  -33.0961  -33.3552   24.6479 C   0  0  0  0  0  0  0  0  0  0  0  0
  -32.4736  -32.9816   25.8346 C   0  0  0  0  0  0  0  0  0  0  0  0
  -22.6676  -10.1961   20.1655 C   0  0  0  0  0  0  0  0  0  0  0  0
  -24.3245   -9.4113   21.7388 C   0  0  0  0  0  0  0  0  0  0  0  0
  -32.7464  -32.7298   23.4518 C   0  0  0  0  0  0  0  0  0  0  0  0
  -31.5001  -31.9832   25.8258 C   0  0  0  0  0  0  0  0  0  0  0  0
  -31.1428  -25.3102   29.8718 C   0  0  0  0  0  0  0  0  0  0  0  0
  -31.4352  -17.1019   24.4635 C   0  0  0  0  0  0  0  0  0  0  0  0
  -29.1594  -17.4830   23.7476 C   0  0  0  0  0  0  0  0  0  0  0  0
  -31.0785  -17.4288   25.7718 C   0  0  0  0  0  0  0  0  0  0  0  0
  -28.8026  -17.8098   25.0559 C   0  0  0  0  0  0  0  0  0  0  0  0
  -21.9340   -9.0248   20.3536 C   0  0  0  0  0  0  0  0  0  0  0  0
  -23.5910   -8.2399   21.9270 C   0  0  0  0  0  0  0  0  0  0  0  0
  -31.0459  -24.0281   30.4131 C   0  0  0  0  0  0  0  0  0  0  0  0
  -20.8485   -7.2696   23.6468 C   0  0  0  0  0  0  0  0  0  0  0  0
  -20.6674   -6.8234   24.9559 C   0  0  0  0  0  0  0  0  0  0  0  0
  -29.7161  -23.3186   28.5220 C   0  0  0  0  0  0  0  0  0  0  0  0
  -21.7902   -4.7559   24.4065 C   0  0  0  0  0  0  0  0  0  0  0  0
  -23.8629  -10.3894   20.8580 C   0  0  0  0  0  0  0  0  0  0  0  0
  -24.1955  -12.9181   20.9090 C   0  0  0  0  0  0  0  0  0  0  0  0
  -31.7751  -31.7166   23.4298 C   0  0  0  0  0  0  0  0  0  0  0  0
  -30.5389  -25.5975   28.6445 C   0  0  0  0  0  0  0  0  0  0  0  0
  -31.1362  -31.3447   24.6281 C   0  0  0  0  0  0  0  0  0  0  0  0
  -29.8202  -24.5976   27.9688 C   0  0  0  0  0  0  0  0  0  0  0  0
  -30.4757  -17.1291   23.4514 C   0  0  0  0  0  0  0  0  0  0  0  0
  -29.7622  -17.7827   26.0680 C   0  0  0  0  0  0  0  0  0  0  0  0
  -22.3957   -8.0467   21.2344 C   0  0  0  0  0  0  0  0  0  0  0  0
  -30.3341  -23.0349   29.7399 C   0  0  0  0  0  0  0  0  0  0  0  0
  -21.5003   -6.4589   22.7175 C   0  0  0  0  0  0  0  0  0  0  0  0
  -21.1383   -5.5666   25.3357 C   0  0  0  0  0  0  0  0  0  0  0  0
  -21.9712   -5.2021   23.0974 C   0  0  0  0  0  0  0  0  0  0  0  0
  -24.6214  -11.5989   20.6636 C   0  0  0  0  0  0  0  0  0  0  0  0
  -25.2748  -13.6963   20.5683 C   0  0  0  0  0  0  0  0  0  0  0  0
  -29.9348  -19.7351   29.1702 C   0  0  0  0  0  0  0  0  0  0  0  0
  -28.0913  -17.8783   27.9058 C   0  0  0  0  0  0  0  0  0  0  0  0
  -22.9369  -13.3972   21.4011 C   0  0  0  0  0  0  0  0  0  0  0  0
  -30.7423  -20.7398   29.5423 C   0  0  0  0  0  0  0  0  0  1  0  0
  -29.8659  -28.1475   25.9760 C   0  0  0  0  0  0  0  0  0  0  0  0
  -30.4530  -25.4968   24.5478 C   0  0  0  0  0  0  0  0  0  0  0  0
  -31.1470  -22.3403   22.9476 C   0  0  0  0  0  0  0  0  0  0  0  0
  -30.7595  -14.7228   20.6675 C   0  0  0  0  0  0  0  0  0  0  0  0
  -31.3965  -31.1025   22.1053 C   0  0  0  0  0  0  0  0  0  0  0  0
  -30.5653  -26.9810   28.0537 C   0  0  0  0  0  0  0  0  0  0  0  0
  -29.1577  -24.9616   26.6682 C   0  0  0  0  0  0  0  0  0  0  0  0
  -28.4788  -19.7287   29.5411 C   0  0  0  0  0  0  0  0  0  0  0  0
  -30.4355  -18.5683   28.3576 C   0  0  0  0  0  0  0  0  0  0  0  0
  -27.8792  -18.3458   29.3350 C   0  0  0  0  0  0  0  0  0  0  0  0
  -30.6236  -29.7930   22.2397 C   0  0  0  0  0  0  0  0  0  0  0  0
  -29.5567  -12.5101   18.1507 C   0  0  0  0  0  0  0  0  0  0  0  0
  -29.5153  -29.9315   23.2785 C   0  0  0  0  0  0  0  0  0  0  0  0
  -28.1334  -12.1801   18.6037 C   0  0  0  0  0  0  0  0  0  0  0  0
  -30.5086  -12.6485   19.3368 C   0  0  0  0  0  0  0  0  0  0  0  0
  -28.6473  -13.2704   20.8276 C   0  0  0  0  0  0  0  0  0  0  0  0
  -30.0933  -30.2487   24.6630 C   0  0  1  0  0  0  0  0  0  0  0  0
  -30.6374  -26.9794   26.5162 C   0  0  1  0  0  0  0  0  0  0  0  0
  -27.6389  -13.1763   19.6697 C   0  0  2  0  0  0  0  0  0  0  0  0
  -32.1969  -20.8015   29.2037 C   0  0  0  0  0  0  0  0  0  0  0  0
  -30.6204  -17.9309   21.0644 C   0  0  0  0  0  0  0  0  0  0  0  0
  -31.7857  -21.8180   20.5776 C   0  0  0  0  0  0  0  0  0  0  0  0
  -27.4593  -25.0783   24.1398 C   0  0  0  0  0  0  0  0  0  0  0  0
  -28.0054  -23.1527   22.6358 C   0  0  0  0  0  0  0  0  0  0  0  0
  -28.7569  -25.4542   22.0352 C   0  0  0  0  0  0  0  0  0  0  0  0
  -33.5818  -20.8903   23.8009 C   0  0  0  0  0  0  0  0  0  0  0  0
  -30.8573  -16.7797   22.0527 C   0  0  2  0  0  0  0  0  0  0  0  0
  -29.8919  -24.2370   23.9384 C   0  0  1  0  0  0  0  0  0  0  0  0
  -32.2897  -22.0354   21.9959 C   0  0  2  0  0  0  0  0  0  0  0  0
  -28.5379  -24.4811   23.2141 C   0  0  0  0  0  0  0  0  0  0  0  0
  -25.8735  -11.5386   20.2025 N   0  0  0  0  0  0  0  0  0  0  0  0
  -26.2436  -12.8297   20.1553 N   0  0  0  0  0  0  0  0  0  0  0  0
  -29.3935  -18.1199   27.4183 N   0  0  0  0  0  0  0  0  0  0  0  0
  -30.0622  -25.7934   25.8592 N   0  0  0  0  0  0  0  0  0  0  0  0
  -29.9823  -13.6087   20.3100 N   0  0  0  0  0  0  0  0  0  0  0  0
  -25.4800  -15.0305   20.5846 N   0  0  0  0  0  0  0  0  0  0  0  0
  -22.7719  -13.5417   22.7853 N   0  0  0  0  0  0  0  0  0  0  0  0
  -30.6358  -29.0524   25.2704 N   0  0  0  0  0  0  0  0  0  0  0  0
  -30.9402  -23.6972   23.0793 N   0  0  0  0  0  0  0  0  0  0  0  0
  -30.1836  -15.5864   21.5912 N   0  0  0  0  0  0  0  0  0  0  0  0
  -33.0126  -20.8070   22.4312 N   0  3  0  0  0  0  0  0  0  0  0  0
  -27.1821  -17.2950   27.3161 O   0  0  0  0  0  0  0  0  0  0  0  0
  -21.9812  -13.6729   20.6368 O   0  0  0  0  0  0  0  0  0  0  0  0
  -28.6603  -28.2226   26.1822 O   0  0  0  0  0  0  0  0  0  0  0  0
  -31.2128  -26.2035   23.8796 O   0  0  0  0  0  0  0  0  0  0  0  0
  -30.4999  -21.4624   23.5144 O   0  0  0  0  0  0  0  0  0  0  0  0
  -31.8811  -14.9351   20.1943 O   0  0  0  0  0  0  0  0  0  0  0  0
  -21.6800   -6.9037   21.4184 O   0  0  0  0  0  0  0  0  0  0  0  0
  -30.2474  -21.7842   30.2718 O   0  0  0  0  0  0  0  0  0  1  0  0
  -20.9657   -5.1388   26.5933 F   0  0  0  0  0  0  0  0  0  0  0  0
  -22.5993   -4.4193   22.2093 F   0  0  0  0  0  0  0  0  0  0  0  0
  1  2  1  0  0  0  0
  1  5  2  0  0  0  0
  2  6  2  0  0  0  0
  3 12  2  0  0  0  0
  3 19  1  0  0  0  0
  4 13  1  0  0  0  0
  4 19  2  0  0  0  0
  5 21  1  0  0  0  0
  6 23  1  0  0  0  0
  7 14  2  0  0  0  0
  7 22  1  0  0  0  0
  8 10  2  0  0  0  0
  8 25  1  0  0  0  0
  9 11  1  0  0  0  0
  9 25  2  0  0  0  0
 10 26  1  0  0  0  0
 11 26  2  0  0  0  0
 12 27  1  0  0  0  0
 13 27  2  0  0  0  0
 14 28  1  0  0  0  0
 15 16  2  0  0  0  0
 15 29  1  0  0  0  0
 16 30  1  0  0  0  0
 17 24  1  0  0  0  0
 17 28  2  0  0  0  0
 18 30  2  0  0  0  0
 18 31  1  0  0  0  0
 19 32  1  0  0  0  0
 20 32  1  0  0  0  0
 20 33  2  0  0  0  0
 20 36  1  0  0  0  0
 21 23  2  0  0  0  0
 21 42  1  0  0  0  0
 22 24  2  0  0  0  0
 22 43  1  0  0  0  0
 23 54  1  0  0  0  0
 24 44  1  0  0  0  0
 25 64  1  0  0  0  0
 26 70  1  0  0  0  0
 27 85  1  0  0  0  0
 28 86  1  0  0  0  0
 29 31  2  0  0  0  0
 29 85  1  0  0  0  0
 30 87  1  0  0  0  0
 31 88  1  0  0  0  0
 32 68  2  0  0  0  0
 33 69  1  0  0  0  0
 33 73  1  0  0  0  0
 34 37  2  0  0  0  0
 34 45  1  0  0  0  0
 34 46  1  0  0  0  0
 35 47  1  0  0  0  0
 35 70  1  0  0  0  0
 35 79  2  0  0  0  0
 36 74  1  0  0  0  0
 36 80  2  0  0  0  0
 37 57  1  0  0  0  0
 37 86  1  0  0  0  0
 38 55  1  0  0  0  0
 38 75  1  0  0  0  0
 38 81  2  0  0  0  0
 39 65  1  0  0  0  0
 39 71  1  0  0  0  0
 39 82  2  0  0  0  0
 40 66  1  0  0  0  0
 40 76  1  0  0  0  0
 40 83  2  0  0  0  0
 41 72  1  0  0  0  0
 41 77  1  0  0  0  0
 41 84  2  0  0  0  0
 42 48  1  0  0  0  0
 43 55  1  0  0  0  0
 44 71  1  0  0  0  0
 45 47  1  0  0  0  0
 46 70  1  0  0  0  0
 48 50  1  0  0  0  0
 49 51  1  0  0  0  0
 49 52  1  0  0  0  0
 50 54  1  0  0  0  0
 51 56  1  0  0  0  0
 52 72  1  0  0  0  0
 53 56  1  0  0  0  0
 53 72  1  0  0  0  0
 54 75  1  0  0  0  0
 55 71  1  0  0  0  0
 56 69  1  0  0  0  0
 58 64  1  0  0  0  0
 59 66  1  0  0  0  0
 60 67  1  0  0  0  0
 61 67  1  0  0  0  0
 62 67  1  0  0  0  0
 63 78  1  0  0  0  0
 64 77  1  0  0  0  0
 65 67  1  0  0  0  0
 65 76  1  0  0  0  0
 66 78  1  0  0  0  0
 68 69  1  0  0  0  0
M  CHG  1  78   1
M  ISO  4  37 101  41 100  77 100  86 101
M  END
> <Batch ID>
0077

> <Smiles>
CNC(C)C(=O)NC(C(=O)N1Cc2cc([101O:1][101C:1](C)=C3CCC(=O)N(c4ccc(C(C)[100NH:0][100C:0](=O)N5CCCC(n6nc(-c7ccc(Oc8ccc(F)cc8F)cc7)c(C(N)=O)c6N)C5)cc4)C3)ccc2CC1C(=O)NC1CCCc2ccccc21)C(C)(C)C

> <Shape>
0.191

> <Color>
0.179

> <Negative vol penalty>
0.000

$$$$

  -OEChem-04042323533D

 86 95  0     1  0  0  0  0  0999 V2000
  -26.7587  -35.2287   24.4239 C   0  0  0  0  0  0  0  0  0  0  0  0
  -27.1944  -34.0021   23.9330 C   0  0  0  0  0  0  0  0  0  0  0  0
  -24.5193   -9.6419   21.8558 C   0  0  0  0  0  0  0  0  0  0  0  0
  -24.5274  -10.8470   23.9498 C   0  0  0  0  0  0  0  0  0  0  0  0
  -25.5113  -35.3290   25.0385 C   0  0  0  0  0  0  0  0  0  0  0  0
  -26.3833  -32.8747   24.0574 C   0  0  0  0  0  0  0  0  0  0  0  0
  -26.1864  -30.1434   19.7975 C   0  0  0  0  0  0  0  0  0  0  0  0
  -29.1130  -21.5855   21.6579 C   0  0  0  0  0  0  0  0  0  0  0  0
  -28.6611  -20.6294   19.4856 C   0  0  0  0  0  0  0  0  0  0  0  0
  -29.2839  -20.3057   22.1857 C   0  0  0  0  0  0  0  0  0  0  0  0
  -28.8320  -19.3496   20.0134 C   0  0  0  0  0  0  0  0  0  0  0  0
  -24.0756   -8.4965   22.5167 C   0  0  0  0  0  0  0  0  0  0  0  0
  -24.0837   -9.7016   24.6107 C   0  0  0  0  0  0  0  0  0  0  0  0
  -27.2761  -29.3198   19.5183 C   0  0  0  0  0  0  0  0  0  0  0  0
  -22.5955   -5.3563   23.5955 C   0  0  0  0  0  0  0  0  0  0  0  0
  -21.5595   -4.6295   23.0091 C   0  0  0  0  0  0  0  0  0  0  0  0
  -26.0469  -27.4202   20.3551 C   0  0  0  0  0  0  0  0  0  0  0  0
  -20.1223   -6.5666   23.1471 C   0  0  0  0  0  0  0  0  0  0  0  0
  -24.7452  -10.8172   22.5724 C   0  0  0  0  0  0  0  0  0  0  0  0
  -24.4110  -13.0101   21.3127 C   0  0  0  0  0  0  0  0  0  0  0  0
  -24.6804  -34.2042   25.1618 C   0  0  0  0  0  0  0  0  0  0  0  0
  -25.0209  -29.6127   20.3686 C   0  0  0  0  0  0  0  0  0  0  0  0
  -25.1241  -32.9597   24.6754 C   0  0  0  0  0  0  0  0  0  0  0  0
  -24.9429  -28.2389   20.6382 C   0  0  0  0  0  0  0  0  0  0  0  0
  -28.8016  -21.7474   20.3079 C   0  0  0  0  0  0  0  0  0  0  0  0
  -29.1434  -19.1877   21.3634 C   0  0  0  0  0  0  0  0  0  0  0  0
  -23.8578   -8.5263   23.8941 C   0  0  0  0  0  0  0  0  0  0  0  0
  -27.2075  -27.9585   19.7998 C   0  0  0  0  0  0  0  0  0  0  0  0
  -22.3949   -6.6883   23.9579 C   0  0  0  0  0  0  0  0  0  0  0  0
  -20.3229   -5.2346   22.7848 C   0  0  0  0  0  0  0  0  0  0  0  0
  -21.1583   -7.2935   23.7336 C   0  0  0  0  0  0  0  0  0  0  0  0
  -25.2040  -12.0006   21.8904 C   0  0  0  0  0  0  0  0  0  0  0  0
  -25.3164  -13.9042   20.7956 C   0  0  0  0  0  0  0  0  0  0  0  0
  -28.2958  -24.8464   19.0698 C   0  0  0  0  0  0  0  0  0  0  0  0
  -28.7070  -24.2458   20.3394 C   0  0  0  0  0  0  0  0  0  0  0  0
  -28.0824  -18.2001   23.9269 C   0  0  0  0  0  0  0  0  0  0  0  0
  -29.0285  -17.5638   23.2328 C   0  0  0  0  0  0  0  0  0  0  0  0
  -22.9836  -13.1291   21.2492 C   0  0  0  0  0  0  0  0  0  0  0  0
  -28.0864  -26.1180   18.6547 C   0  0  0  0  0  0  0  0  0  1  0  0
  -23.4449  -30.0753   23.0901 C   0  0  0  0  0  0  0  0  0  0  0  0
  -21.2771  -28.0899   21.7187 C   0  0  0  0  0  0  0  0  0  0  0  0
  -20.6369  -25.6233   19.4486 C   0  0  0  0  0  0  0  0  0  0  0  0
  -29.9585  -16.8711   21.1160 C   0  0  0  0  0  0  0  0  0  0  0  0
  -23.3602  -34.3518   25.8761 C   0  0  0  0  0  0  0  0  0  0  0  0
  -23.8443  -30.5099   20.6390 C   0  0  0  0  0  0  0  0  0  0  0  0
  -23.7070  -27.6162   21.2325 C   0  0  0  0  0  0  0  0  0  0  0  0
  -28.2158  -23.4607   18.4715 C   0  0  0  0  0  0  0  0  0  0  0  0
  -22.4029  -33.1878   25.6333 C   0  0  0  0  0  0  0  0  0  0  0  0
  -30.3096  -13.5388   20.1356 C   0  0  0  0  0  0  0  0  0  0  0  0
  -23.1298  -31.8564   25.7938 C   0  0  0  0  0  0  0  0  0  0  0  0
  -28.9529  -12.9139   20.4595 C   0  0  0  0  0  0  0  0  0  0  0  0
  -30.7355  -14.5166   21.2247 C   0  0  0  0  0  0  0  0  0  0  0  0
  -28.3782  -14.9920   21.8083 C   0  0  0  0  0  0  0  0  0  0  0  0
  -24.2625  -31.7192   24.7693 C   0  0  1  0  0  0  0  0  0  0  0  0
  -22.8972  -29.9510   21.6964 C   0  0  1  0  0  0  0  0  0  0  0  0
  -27.8960  -13.9988   20.7319 C   0  0  2  0  0  0  0  0  0  0  0  0
  -27.6579  -26.4962   17.2724 C   0  0  0  0  0  0  0  0  0  0  0  0
  -18.7779  -24.1769   18.5831 C   0  0  0  0  0  0  0  0  0  0  0  0
  -21.4463  -26.3712   24.2342 C   0  0  0  0  0  0  0  0  0  0  0  0
  -20.3510  -24.5172   22.9570 C   0  0  0  0  0  0  0  0  0  0  0  0
  -19.1353  -26.6642   23.3245 C   0  0  0  0  0  0  0  0  0  0  0  0
  -20.9054  -26.7158   16.7112 C   0  0  0  0  0  0  0  0  0  0  0  0
  -21.0635  -26.5957   21.6907 C   0  0  1  0  0  0  0  0  0  0  0  0
  -19.5476  -25.4759   18.4017 C   0  0  2  0  0  0  0  0  0  0  0  0
  -20.5232  -26.0488   23.0422 C   0  0  0  0  0  0  0  0  0  0  0  0
  -26.5125  -12.2309   21.7533 N   0  0  0  0  0  0  0  0  0  0  0  0
  -26.5486  -13.3955   21.0835 N   0  0  0  0  0  0  0  0  0  0  0  0
  -28.6327  -23.0094   19.7874 N   0  0  0  0  0  0  0  0  0  0  0  0
  -22.5855  -28.5360   21.4847 N   0  0  0  0  0  0  0  0  0  0  0  0
  -29.7036  -15.5278   21.4570 N   0  0  0  0  0  0  0  0  0  0  0  0
  -25.1707  -15.0680   20.1272 N   0  0  0  0  0  0  0  0  0  0  0  0
  -22.2026  -12.1214   21.8313 N   0  0  0  0  0  0  0  0  0  0  0  0
  -23.7290  -31.3734   23.4693 N   0  0  0  0  0  0  0  0  0  0  0  0
  -20.1962  -26.3286   20.5484 N   0  0  0  0  0  0  0  0  0  0  0  0
  -29.3208  -17.8586   21.9111 N   0  0  0  0  0  0  0  0  0  0  0  0
  -20.1391  -25.4846   17.0339 N   0  3  0  0  0  0  0  0  0  0  0  0
  -28.9872  -24.6708   21.4409 O   0  0  0  0  0  0  0  0  0  0  0  0
  -22.4174  -14.0920   20.6784 O   0  0  0  0  0  0  0  0  0  0  0  0
  -23.5971  -29.0682   23.7714 O   0  0  0  0  0  0  0  0  0  0  0  0
  -20.3169  -28.8341   21.9329 O   0  0  0  0  0  0  0  0  0  0  0  0
  -21.7648  -25.1561   19.3067 O   0  0  0  0  0  0  0  0  0  0  0  0
  -30.7158  -17.1741   20.1849 O   0  0  0  0  0  0  0  0  0  0  0  0
  -23.4247   -7.4088   24.5393 O   0  0  0  0  0  0  0  0  0  0  0  0
  -28.2699  -27.1524   19.5289 O   0  0  0  0  0  0  0  0  0  1  0  0
  -19.3286   -4.5369   22.2202 F   0  0  0  0  0  0  0  0  0  0  0  0
  -20.9600   -8.5731   24.0785 F   0  0  0  0  0  0  0  0  0  0  0  0
  1  2  1  0  0  0  0
  1  5  2  0  0  0  0
  2  6  2  0  0  0  0
  3 12  2  0  0  0  0
  3 19  1  0  0  0  0
  4 13  1  0  0  0  0
  4 19  2  0  0  0  0
  5 21  1  0  0  0  0
  6 23  1  0  0  0  0
  7 14  2  0  0  0  0
  7 22  1  0  0  0  0
  8 10  2  0  0  0  0
  8 25  1  0  0  0  0
  9 11  1  0  0  0  0
  9 25  2  0  0  0  0
 10 26  1  0  0  0  0
 11 26  2  0  0  0  0
 12 27  1  0  0  0  0
 13 27  2  0  0  0  0
 14 28  1  0  0  0  0
 15 16  2  0  0  0  0
 15 29  1  0  0  0  0
 16 30  1  0  0  0  0
 17 24  1  0  0  0  0
 17 28  2  0  0  0  0
 18 30  2  0  0  0  0
 18 31  1  0  0  0  0
 19 32  1  0  0  0  0
 20 32  1  0  0  0  0
 20 33  2  0  0  0  0
 20 38  1  0  0  0  0
 21 23  2  0  0  0  0
 21 44  1  0  0  0  0
 22 24  2  0  0  0  0
 22 45  1  0  0  0  0
 23 54  1  0  0  0  0
 24 46  1  0  0  0  0
 25 68  1  0  0  0  0
 26 75  1  0  0  0  0
 27 83  1  0  0  0  0
 28 84  1  0  0  0  0
 29 31  2  0  0  0  0
 29 83  1  0  0  0  0
 30 85  1  0  0  0  0
 31 86  1  0  0  0  0
 32 66  2  0  0  0  0
 33 67  1  0  0  0  0
 33 71  1  0  0  0  0
 34 35  1  0  0  0  0
 34 39  2  0  0  0  0
 34 47  1  0  0  0  0
 35 68  1  0  0  0  0
 35 77  2  0  0  0  0
 36 37  2  0  0  0  0
 37 75  1  0  0  0  0
 38 72  1  0  0  0  0
 38 78  2  0  0  0  0
 39 57  1  0  0  0  0
 39 84  1  0  0  0  0
 40 55  1  0  0  0  0
 40 73  1  0  0  0  0
 40 79  2  0  0  0  0
 41 63  1  0  0  0  0
 41 69  1  0  0  0  0
 41 80  2  0  0  0  0
 42 64  1  0  0  0  0
 42 74  1  0  0  0  0
 42 81  2  0  0  0  0
 43 70  1  0  0  0  0
 43 75  1  0  0  0  0
 43 82  2  0  0  0  0
 44 48  1  0  0  0  0
 45 55  1  0  0  0  0
 46 69  1  0  0  0  0
 47 68  1  0  0  0  0
 48 50  1  0  0  0  0
 49 51  1  0  0  0  0
 49 52  1  0  0  0  0
 50 54  1  0  0  0  0
 51 56  1  0  0  0  0
 52 70  1  0  0  0  0
 53 56  1  0  0  0  0
 53 70  1  0  0  0  0
 54 73  1  0  0  0  0
 55 69  1  0  0  0  0
 56 67  1  0  0  0  0
 58 64  1  0  0  0  0
 59 65  1  0  0  0  0
 60 65  1  0  0  0  0
 61 65  1  0  0  0  0
 62 76  1  0  0  0  0
 63 65  1  0  0  0  0
 63 74  1  0  0  0  0
 64 76  1  0  0  0  0
 66 67  1  0  0  0  0
M  CHG  1  76   1
M  ISO  4  39 101  43 100  75 100  84 101
M  END
> <Batch ID>
0077

> <Smiles>
C=C[100N:0](c1ccc(N2CC(=[101C:1](C)[101O:1]c3ccc4c(c3)CN(C(=O)C(NC(=O)C(C)NC)C(C)(C)C)C(C(=O)NC3CCCc5ccccc53)C4)C2=O)cc1)[100C:0](=O)N1CCCC(n2nc(-c3ccc(Oc4ccc(F)cc4F)cc3)c(C(N)=O)c2N)C1

> <Shape>
0.353

> <Color>
0.150

> <Negative vol penalty>
0.000

$$$$

  -OEChem-04042323533D

 83 91  0     1  0  0  0  0  0999 V2000
  -17.9524  -24.1751   22.4117 C   0  0  0  0  0  0  0  0  0  0  0  0
  -19.3157  -23.9018   22.3664 C   0  0  0  0  0  0  0  0  0  0  0  0
  -23.0857   -9.9437   19.9413 C   0  0  0  0  0  0  0  0  0  0  0  0
  -23.4635  -10.0967   22.3227 C   0  0  0  0  0  0  0  0  0  0  0  0
  -17.5107  -25.4877   22.5724 C   0  0  0  0  0  0  0  0  0  0  0  0
  -20.2382  -24.9412   22.4808 C   0  0  0  0  0  0  0  0  0  0  0  0
  -24.0464  -23.8218   25.6255 C   0  0  0  0  0  0  0  0  0  0  0  0
  -22.2604   -8.8375   20.1433 C   0  0  0  0  0  0  0  0  0  0  0  0
  -22.6382   -8.9904   22.5247 C   0  0  0  0  0  0  0  0  0  0  0  0
  -25.0536  -22.9915   25.1356 C   0  0  0  0  0  0  0  0  0  0  0  0
  -22.8670   -5.6284   22.2507 C   0  0  0  0  0  0  0  0  0  0  0  0
  -23.3116   -4.6398   23.1285 C   0  0  0  0  0  0  0  0  0  0  0  0
  -26.4423  -24.9228   24.7346 C   0  0  0  0  0  0  0  0  0  0  0  0
  -21.3657   -4.9960   24.5154 C   0  0  0  0  0  0  0  0  0  0  0  0
  -23.6873  -10.5733   21.0310 C   0  0  0  0  0  0  0  0  0  0  0  0
  -24.1564  -13.0698   20.7971 C   0  0  0  0  0  0  0  0  0  0  0  0
  -18.4282  -26.5426   22.6984 C   0  0  0  0  0  0  0  0  0  0  0  0
  -24.2258  -25.2121   25.6635 C   0  0  0  0  0  0  0  0  0  0  0  0
  -19.8083  -26.2694   22.6420 C   0  0  0  0  0  0  0  0  0  0  0  0
  -25.4369  -25.7683   25.2278 C   0  0  0  0  0  0  0  0  0  0  0  0
  -22.0366   -8.3609   21.4350 C   0  0  0  0  0  0  0  0  0  0  0  0
  -26.2507  -23.5422   24.6873 C   0  0  0  0  0  0  0  0  0  0  0  0
  -21.6717   -6.3009   22.5053 C   0  0  0  0  0  0  0  0  0  0  0  0
  -22.5610   -4.3236   24.2608 C   0  0  0  0  0  0  0  0  0  0  0  0
  -20.9211   -5.9847   23.6376 C   0  0  0  0  0  0  0  0  0  0  0  0
  -24.5403  -11.7157   20.8229 C   0  0  0  0  0  0  0  0  0  0  0  0
  -25.3253  -13.7538   20.5685 C   0  0  0  0  0  0  0  0  0  0  0  0
  -27.3658  -18.2760   17.6764 C   0  0  0  0  0  0  0  0  0  0  0  0
  -29.3015  -17.4926   19.9908 C   0  0  0  0  0  0  0  0  0  0  0  0
  -27.8622  -17.1273   17.2121 C   0  0  0  0  0  0  0  0  0  0  0  0
  -29.4714  -16.4778   19.1379 C   0  0  0  0  0  0  0  0  0  0  0  0
  -27.6338  -18.9828   18.8983 C   0  0  0  0  0  0  0  0  0  0  0  0
  -28.4606  -18.6638   19.9042 C   0  0  0  0  0  0  0  0  0  0  0  0
  -28.8560  -16.2086   17.8174 C   0  0  0  0  0  0  0  0  0  0  0  0
  -27.8516  -21.1283   22.5767 C   0  0  0  0  0  0  0  0  0  0  0  0
  -26.9551  -21.9538   23.1216 C   0  0  0  0  0  0  0  0  0  1  0  0
  -22.8592  -13.6569   20.9647 C   0  0  0  0  0  0  0  0  0  0  0  0
  -27.4808  -20.3050   21.3935 C   0  0  0  0  0  0  0  0  0  0  0  0
  -22.7794  -27.6982   24.3104 C   0  0  0  0  0  0  0  0  0  0  0  0
  -24.7714  -29.4011   26.2221 C   0  0  0  0  0  0  0  0  0  0  0  0
  -27.6865  -29.5225   27.9925 C   0  0  0  0  0  0  0  0  0  0  0  0
  -30.0989  -14.2851   17.7036 C   0  0  0  0  0  0  0  0  0  0  0  0
  -17.9028  -27.9508   22.8230 C   0  0  0  0  0  0  0  0  0  0  0  0
  -23.1399  -26.0918   26.2198 C   0  0  0  0  0  0  0  0  0  0  0  0
  -25.6870  -27.2531   25.2665 C   0  0  0  0  0  0  0  0  0  0  0  0
  -18.9480  -28.9498   23.3126 C   0  0  0  0  0  0  0  0  0  0  0  0
  -30.1307  -12.2035   20.6555 C   0  0  0  0  0  0  0  0  0  0  0  0
  -20.2585  -28.7664   22.5538 C   0  0  0  0  0  0  0  0  0  0  0  0
  -28.6459  -11.9736   20.9349 C   0  0  0  0  0  0  0  0  0  0  0  0
  -30.4125  -12.2836   19.1585 C   0  0  0  0  0  0  0  0  0  0  0  0
  -28.1070  -13.0885   18.7238 C   0  0  0  0  0  0  0  0  0  0  0  0
  -20.8400  -27.3669   22.7873 C   0  0  1  0  0  0  0  0  0  0  0  0
  -23.2325  -27.5349   25.7337 C   0  0  1  0  0  0  0  0  0  0  0  0
  -27.7803  -13.0303   20.2261 C   0  0  1  0  0  0  0  0  0  0  0  0
  -29.0613  -31.0613   29.4207 C   0  0  0  0  0  0  0  0  0  0  0  0
  -25.6835  -30.8994   23.7254 C   0  0  0  0  0  0  0  0  0  0  0  0
  -27.6668  -31.7096   25.0210 C   0  0  0  0  0  0  0  0  0  0  0  0
  -25.3641  -32.3372   25.7465 C   0  0  0  0  0  0  0  0  0  0  0  0
  -27.4907  -27.7171   30.3294 C   0  0  0  0  0  0  0  0  0  0  0  0
  -26.1656  -29.9631   26.0828 C   0  0  1  0  0  0  0  0  0  0  0  0
  -27.9875  -29.9844   29.4069 C   0  0  2  0  0  0  0  0  0  0  0  0
  -26.2149  -31.1995   25.1413 C   0  0  0  0  0  0  0  0  0  0  0  0
  -25.8507  -11.5474   20.6263 N   0  0  0  0  0  0  0  0  0  0  0  0
  -29.1736  -15.1515   17.1523 N   0  0  0  0  0  0  0  0  0  0  0  0
  -26.3003  -12.8047   20.4747 N   0  0  0  0  0  0  0  0  0  0  0  0
  -24.5924  -28.0720   25.8132 N   0  0  0  0  0  0  0  0  0  0  0  0
  -29.5489  -13.2722   18.5111 N   0  0  0  0  0  0  0  0  0  0  0  0
  -25.6040  -15.0685   20.4405 N   0  0  0  0  0  0  0  0  0  0  0  0
  -21.7664  -12.8092   21.1918 N   0  0  0  0  0  0  0  0  0  0  0  0
  -28.5366  -19.5130   20.9697 N   0  0  0  0  0  0  0  0  0  0  0  0
  -21.4773  -27.2944   24.0847 N   0  0  0  0  0  0  0  0  0  0  0  0
  -26.6375  -30.2250   27.4382 N   0  0  0  0  0  0  0  0  0  0  0  0
  -28.4593  -28.8397   30.2363 N   0  3  0  0  0  0  0  0  0  0  0  0
  -22.6719  -14.8955   20.8983 O   0  0  0  0  0  0  0  0  0  0  0  0
  -26.3645  -20.3524   20.8860 O   0  0  0  0  0  0  0  0  0  0  0  0
  -23.5533  -28.1580   23.4790 O   0  0  0  0  0  0  0  0  0  0  0  0
  -23.8758  -30.1129   26.6836 O   0  0  0  0  0  0  0  0  0  0  0  0
  -28.3210  -28.6304   27.4339 O   0  0  0  0  0  0  0  0  0  0  0  0
  -31.3154  -14.3703   17.5182 O   0  0  0  0  0  0  0  0  0  0  0  0
  -21.2312   -7.2816   21.6325 O   0  0  0  0  0  0  0  0  0  0  0  0
  -27.2351  -22.7341   24.2081 O   0  0  0  0  0  0  0  0  0  1  0  0
  -22.9874   -3.3731   25.1029 F   0  0  0  0  0  0  0  0  0  0  0  0
  -19.7714   -6.6265   23.8869 F   0  0  0  0  0  0  0  0  0  0  0  0
  1  2  1  0  0  0  0
  1  5  2  0  0  0  0
  2  6  2  0  0  0  0
  3  8  2  0  0  0  0
  3 15  1  0  0  0  0
  4  9  1  0  0  0  0
  4 15  2  0  0  0  0
  5 17  1  0  0  0  0
  6 19  1  0  0  0  0
  7 10  2  0  0  0  0
  7 18  1  0  0  0  0
  8 21  1  0  0  0  0
  9 21  2  0  0  0  0
 10 22  1  0  0  0  0
 11 12  2  0  0  0  0
 11 23  1  0  0  0  0
 12 24  1  0  0  0  0
 13 20  1  0  0  0  0
 13 22  2  0  0  0  0
 14 24  2  0  0  0  0
 14 25  1  0  0  0  0
 15 26  1  0  0  0  0
 16 26  1  0  0  0  0
 16 27  2  0  0  0  0
 16 37  1  0  0  0  0
 17 19  2  0  0  0  0
 17 43  1  0  0  0  0
 18 20  2  0  0  0  0
 18 44  1  0  0  0  0
 19 52  1  0  0  0  0
 20 45  1  0  0  0  0
 21 80  1  0  0  0  0
 22 81  1  0  0  0  0
 23 25  2  0  0  0  0
 23 80  1  0  0  0  0
 24 82  1  0  0  0  0
 25 83  1  0  0  0  0
 26 63  2  0  0  0  0
 27 65  1  0  0  0  0
 27 68  1  0  0  0  0
 28 30  2  0  0  0  0
 28 32  1  0  0  0  0
 29 31  2  0  0  0  0
 29 33  1  0  0  0  0
 30 34  1  0  0  0  0
 31 34  1  0  0  0  0
 32 33  2  0  0  0  0
 33 70  1  0  0  0  0
 34 64  2  0  0  0  0
 35 36  2  0  0  0  0
 35 38  1  0  0  0  0
 36 81  1  0  0  0  0
 37 69  1  0  0  0  0
 37 74  2  0  0  0  0
 38 70  1  0  0  0  0
 38 75  2  0  0  0  0
 39 53  1  0  0  0  0
 39 71  1  0  0  0  0
 39 76  2  0  0  0  0
 40 60  1  0  0  0  0
 40 66  1  0  0  0  0
 40 77  2  0  0  0  0
 41 61  1  0  0  0  0
 41 72  1  0  0  0  0
 41 78  2  0  0  0  0
 42 64  1  0  0  0  0
 42 67  1  0  0  0  0
 42 79  2  0  0  0  0
 43 46  1  0  0  0  0
 44 53  1  0  0  0  0
 45 66  1  0  0  0  0
 46 48  1  0  0  0  0
 47 49  1  0  0  0  0
 47 50  1  0  0  0  0
 48 52  1  0  0  0  0
 49 54  1  0  0  0  0
 50 67  1  0  0  0  0
 51 54  1  0  0  0  0
 51 67  1  0  0  0  0
 52 71  1  0  0  0  0
 53 66  1  0  0  0  0
 54 65  1  0  0  0  0
 55 61  1  0  0  0  0
 56 62  1  0  0  0  0
 57 62  1  0  0  0  0
 58 62  1  0  0  0  0
 59 73  1  0  0  0  0
 60 62  1  0  0  0  0
 60 72  1  0  0  0  0
 61 73  1  0  0  0  0
 63 65  1  0  0  0  0
M  CHG  1  73   1
M  ISO  4  36 101  42 100  64 100  81 101
M  END
> <Batch ID>
0077

> <Smiles>
CNC(C)C(=O)NC(C(=O)N1Cc2cc([101O:1][101CH:1]=CC(=O)N=c3cccc([100NH:0][100C:0](=O)N4CCCC(n5nc(-c6ccc(Oc7ccc(F)cc7F)cc6)c(C(N)=O)c5N)C4)cc3)ccc2CC1C(=O)NC1CCCc2ccccc21)C(C)(C)C

> <Shape>
0.292

> <Color>
0.229

> <Negative vol penalty>
0.000

$$$$

  -OEChem-04042323533D

 82 90  0     1  0  0  0  0  0999 V2000
  -17.1062  -30.2538   22.5694 C   0  0  0  0  0  0  0  0  0  0  0  0
  -18.3735  -29.7273   22.3407 C   0  0  0  0  0  0  0  0  0  0  0  0
  -32.6474  -18.2978   21.8081 C   0  0  0  0  0  0  0  0  0  0  0  0
  -23.0696   -9.9124   21.4599 C   0  0  0  0  0  0  0  0  0  0  0  0
  -23.8459  -10.7726   23.5800 C   0  0  0  0  0  0  0  0  0  0  0  0
  -16.4125  -29.9181   23.7312 C   0  0  0  0  0  0  0  0  0  0  0  0
  -18.9482  -28.8658   23.2744 C   0  0  0  0  0  0  0  0  0  0  0  0
  -22.6124  -24.0971   22.1167 C   0  0  0  0  0  0  0  0  0  0  0  0
  -31.8524  -19.3801   22.1850 C   0  0  0  0  0  0  0  0  0  0  0  0
  -32.0556  -17.1404   21.3021 C   0  0  0  0  0  0  0  0  0  0  0  0
  -22.3309   -8.9352   22.1269 C   0  0  0  0  0  0  0  0  0  0  0  0
  -23.1072   -9.7953   24.2470 C   0  0  0  0  0  0  0  0  0  0  0  0
  -23.9982  -23.9486   22.1527 C   0  0  0  0  0  0  0  0  0  0  0  0
  -22.9150   -5.9635   23.6276 C   0  0  0  0  0  0  0  0  0  0  0  0
  -22.9781   -4.6585   23.1392 C   0  0  0  0  0  0  0  0  0  0  0  0
  -23.8380  -23.0508   24.3859 C   0  0  0  0  0  0  0  0  0  0  0  0
  -29.8737  -18.1477   21.5500 C   0  0  0  0  0  0  0  0  0  0  0  0
  -20.5906   -4.6814   22.7695 C   0  0  0  0  0  0  0  0  0  0  0  0
  -23.8272  -10.8311   22.1865 C   0  0  0  0  0  0  0  0  0  0  0  0
  -24.1608  -13.1302   21.1325 C   0  0  0  0  0  0  0  0  0  0  0  0
  -16.9750  -29.0444   24.6750 C   0  0  0  0  0  0  0  0  0  0  0  0
  -21.8287  -23.7331   23.2211 C   0  0  0  0  0  0  0  0  0  0  0  0
  -18.2619  -28.5192   24.4506 C   0  0  0  0  0  0  0  0  0  0  0  0
  -22.4422  -23.1933   24.3605 C   0  0  0  0  0  0  0  0  0  0  0  0
  -30.4655  -19.3051   22.0560 C   0  0  0  0  0  0  0  0  0  0  0  0
  -30.6687  -17.0654   21.1731 C   0  0  0  0  0  0  0  0  0  0  0  0
  -22.3497   -8.8766   23.5204 C   0  0  0  0  0  0  0  0  0  0  0  0
  -24.6115  -23.4281   23.2885 C   0  0  0  0  0  0  0  0  0  0  0  0
  -21.6897   -6.6274   23.6871 C   0  0  0  0  0  0  0  0  0  0  0  0
  -21.8160   -4.0174   22.7101 C   0  0  0  0  0  0  0  0  0  0  0  0
  -20.5275   -5.9864   23.2580 C   0  0  0  0  0  0  0  0  0  0  0  0
  -24.5909  -11.8405   21.4981 C   0  0  0  0  0  0  0  0  0  0  0  0
  -25.2481  -13.6906   20.5080 C   0  0  0  0  0  0  0  0  0  0  0  0
  -27.8037  -21.8214   22.8732 C   0  0  0  0  0  0  0  0  0  0  0  0
  -26.4965  -22.1013   22.8922 C   0  0  0  0  0  0  0  0  0  1  0  0
  -22.8919  -13.7648   21.3392 C   0  0  0  0  0  0  0  0  0  0  0  0
  -28.2746  -20.4957   22.3764 C   0  0  0  0  0  0  0  0  0  0  0  0
  -19.8811  -25.2831   25.1981 C   0  0  0  0  0  0  0  0  0  0  0  0
  -19.2839  -22.3002   26.3242 C   0  0  0  0  0  0  0  0  0  0  0  0
  -20.3490  -19.0804   26.7059 C   0  0  0  0  0  0  0  0  0  0  0  0
  -30.7124  -14.7263   20.2387 C   0  0  0  0  0  0  0  0  0  0  0  0
  -16.2065  -28.7481   25.9385 C   0  0  0  0  0  0  0  0  0  0  0  0
  -20.3326  -23.8747   23.1564 C   0  0  0  0  0  0  0  0  0  0  0  0
  -21.6440  -22.7683   25.5650 C   0  0  0  0  0  0  0  0  0  0  0  0
  -16.7305  -27.5329   26.6993 C   0  0  0  0  0  0  0  0  0  0  0  0
  -29.5881  -11.6044   18.9477 C   0  0  0  0  0  0  0  0  0  0  0  0
  -18.2506  -27.5888   26.8128 C   0  0  0  0  0  0  0  0  0  0  0  0
  -28.1524  -11.4936   19.4661 C   0  0  0  0  0  0  0  0  0  0  0  0
  -30.5111  -12.2640   19.9708 C   0  0  0  0  0  0  0  0  0  0  0  0
  -28.6120  -13.4505   20.9978 C   0  0  0  0  0  0  0  0  0  0  0  0
  -18.9086  -27.5617   25.4280 C   0  0  1  0  0  0  0  0  0  0  0  0
  -19.6795  -23.9509   24.5330 C   0  0  1  0  0  0  0  0  0  0  0  0
  -27.6313  -12.8513   19.9767 C   0  0  2  0  0  0  0  0  0  0  0  0
  -19.6599  -16.8826   27.7020 C   0  0  0  0  0  0  0  0  0  0  0  0
  -19.9720  -23.3481   29.1060 C   0  0  0  0  0  0  0  0  0  0  0  0
  -20.1957  -20.9740   29.8688 C   0  0  0  0  0  0  0  0  0  0  0  0
  -18.0011  -21.8106   29.0284 C   0  0  0  0  0  0  0  0  0  0  0  0
  -20.3871  -17.7405   24.0673 C   0  0  0  0  0  0  0  0  0  0  0  0
  -19.8877  -21.4196   27.3914 C   0  0  1  0  0  0  0  0  0  0  0  0
  -19.6552  -17.7536   26.4554 C   0  0  2  0  0  0  0  0  0  0  0  0
  -19.5296  -21.8978   28.8269 C   0  0  0  0  0  0  0  0  0  0  0  0
  -25.8530  -11.5959   21.1357 N   0  0  0  0  0  0  0  0  0  0  0  0
  -26.2253  -12.7395   20.5360 N   0  0  0  0  0  0  0  0  0  0  0  0
  -20.1850  -22.9323   25.4556 N   0  0  0  0  0  0  0  0  0  0  0  0
  -29.9554  -13.5474   20.4057 N   0  0  0  0  0  0  0  0  0  0  0  0
  -25.4542  -14.8992   19.9430 N   0  0  0  0  0  0  0  0  0  0  0  0
  -21.8850  -13.0465   21.9984 N   0  0  0  0  0  0  0  0  0  0  0  0
  -29.6588  -20.4049   22.4385 N   0  0  0  0  0  0  0  0  0  0  0  0
  -30.0682  -15.8895   20.6590 N   0  0  0  0  0  0  0  0  0  0  0  0
  -18.9084  -26.2164   24.8945 N   0  0  0  0  0  0  0  0  0  0  0  0
  -19.4565  -20.0588   27.0900 N   0  0  0  0  0  0  0  0  0  0  0  0
  -20.3395  -17.0100   25.3600 N   0  3  0  0  0  0  0  0  0  0  0  0
  -22.6524  -14.9283   20.9362 O   0  0  0  0  0  0  0  0  0  0  0  0
  -27.4831  -19.6478   21.9811 O   0  0  0  0  0  0  0  0  0  0  0  0
  -20.8468  -25.4513   25.9335 O   0  0  0  0  0  0  0  0  0  0  0  0
  -18.0577  -22.4171   26.2590 O   0  0  0  0  0  0  0  0  0  0  0  0
  -21.5618  -19.2327   26.5775 O   0  0  0  0  0  0  0  0  0  0  0  0
  -31.8376  -14.7089   19.7332 O   0  0  0  0  0  0  0  0  0  0  0  0
  -21.6288   -7.9233   24.1716 O   0  0  0  0  0  0  0  0  0  0  0  0
  -25.9640  -23.2826   23.3264 O   0  0  0  0  0  0  0  0  0  1  0  0
  -21.8769   -2.7648   22.2396 F   0  0  0  0  0  0  0  0  0  0  0  0
  -19.3477   -6.6195   23.3116 F   0  0  0  0  0  0  0  0  0  0  0  0
  1  2  1  0  0  0  0
  1  6  2  0  0  0  0
  2  7  2  0  0  0  0
  3  9  2  0  0  0  0
  3 10  1  0  0  0  0
  4 11  2  0  0  0  0
  4 19  1  0  0  0  0
  5 12  1  0  0  0  0
  5 19  2  0  0  0  0
  6 21  1  0  0  0  0
  7 23  1  0  0  0  0
  8 13  2  0  0  0  0
  8 22  1  0  0  0  0
  9 25  1  0  0  0  0
 10 26  2  0  0  0  0
 11 27  1  0  0  0  0
 12 27  2  0  0  0  0
 13 28  1  0  0  0  0
 14 15  2  0  0  0  0
 14 29  1  0  0  0  0
 15 30  1  0  0  0  0
 16 24  1  0  0  0  0
 16 28  2  0  0  0  0
 17 25  2  0  0  0  0
 17 26  1  0  0  0  0
 18 30  2  0  0  0  0
 18 31  1  0  0  0  0
 19 32  1  0  0  0  0
 20 32  1  0  0  0  0
 20 33  2  0  0  0  0
 20 36  1  0  0  0  0
 21 23  2  0  0  0  0
 21 42  1  0  0  0  0
 22 24  2  0  0  0  0
 22 43  1  0  0  0  0
 23 51  1  0  0  0  0
 24 44  1  0  0  0  0
 25 68  1  0  0  0  0
 26 69  1  0  0  0  0
 27 79  1  0  0  0  0
 28 80  1  0  0  0  0
 29 31  2  0  0  0  0
 29 79  1  0  0  0  0
 30 81  1  0  0  0  0
 31 82  1  0  0  0  0
 32 62  2  0  0  0  0
 33 63  1  0  0  0  0
 33 66  1  0  0  0  0
 34 35  2  0  0  0  0
 34 37  1  0  0  0  0
 35 80  1  0  0  0  0
 36 67  1  0  0  0  0
 36 73  2  0  0  0  0
 37 68  1  0  0  0  0
 37 74  2  0  0  0  0
 38 52  1  0  0  0  0
 38 70  1  0  0  0  0
 38 75  2  0  0  0  0
 39 59  1  0  0  0  0
 39 64  1  0  0  0  0
 39 76  2  0  0  0  0
 40 60  1  0  0  0  0
 40 71  1  0  0  0  0
 40 77  2  0  0  0  0
 41 65  1  0  0  0  0
 41 69  1  0  0  0  0
 41 78  2  0  0  0  0
 42 45  1  0  0  0  0
 43 52  1  0  0  0  0
 44 64  1  0  0  0  0
 45 47  1  0  0  0  0
 46 48  1  0  0  0  0
 46 49  1  0  0  0  0
 47 51  1  0  0  0  0
 48 53  1  0  0  0  0
 49 65  1  0  0  0  0
 50 53  1  0  0  0  0
 50 65  1  0  0  0  0
 51 70  1  0  0  0  0
 52 64  1  0  0  0  0
 53 63  1  0  0  0  0
 54 60  1  0  0  0  0
 55 61  1  0  0  0  0
 56 61  1  0  0  0  0
 57 61  1  0  0  0  0
 58 72  1  0  0  0  0
 59 61  1  0  0  0  0
 59 71  1  0  0  0  0
 60 72  1  0  0  0  0
 62 63  1  0  0  0  0
M  CHG  1  72   1
M  ISO  4  35 101  41 100  69 100  80 101
M  END
> <Batch ID>
0077

> <Smiles>
CNC(C)C(=O)NC(C(=O)N1Cc2cc([101O:1][101CH:1]=CC(=O)Nc3cccc([100NH:0][100C:0](=O)N4CCCC(n5nc(-c6ccc(Oc7ccc(F)cc7F)cc6)c(C(N)=O)c5N)C4)c3)ccc2CC1C(=O)NC1CCCc2ccccc21)C(C)(C)C

> <Shape>
0.193

> <Color>
0.175

> <Negative vol penalty>
0.000

$$$$

  -OEChem-04042323533D

 86 95  0     1  0  0  0  0  0999 V2000
  -30.7530  -32.7082   24.4676 C   0  0  0  0  0  0  0  0  0  0  0  0
  -30.3487  -31.5177   23.8721 C   0  0  0  0  0  0  0  0  0  0  0  0
  -24.2910   -9.3135   21.7081 C   0  0  0  0  0  0  0  0  0  0  0  0
  -23.1887  -10.6631   20.0346 C   0  0  0  0  0  0  0  0  0  0  0  0
  -29.8512  -33.4434   25.2358 C   0  0  0  0  0  0  0  0  0  0  0  0
  -29.0425  -31.0612   24.0453 C   0  0  0  0  0  0  0  0  0  0  0  0
  -26.9658  -29.4293   19.7246 C   0  0  0  0  0  0  0  0  0  0  0  0
  -23.0530   -8.9922   22.2645 C   0  0  0  0  0  0  0  0  0  0  0  0
  -21.9506  -10.3417   20.5909 C   0  0  0  0  0  0  0  0  0  0  0  0
  -27.3409  -28.1637   19.2760 C   0  0  0  0  0  0  0  0  0  0  0  0
  -20.7806  -10.4539   24.2953 C   0  0  0  0  0  0  0  0  0  0  0  0
  -20.6596  -10.5139   25.6836 C   0  0  0  0  0  0  0  0  0  0  0  0
  -25.2977  -27.2468   20.1725 C   0  0  0  0  0  0  0  0  0  0  0  0
  -26.3300  -20.0516   17.4942 C   0  0  0  0  0  0  0  0  0  0  0  0
  -27.8602  -18.8298   18.9092 C   0  0  0  0  0  0  0  0  0  0  0  0
  -26.4195  -17.6401   17.3775 C   0  0  0  0  0  0  0  0  0  0  0  0
  -20.0842   -8.1680   25.7348 C   0  0  0  0  0  0  0  0  0  0  0  0
  -24.3589  -10.1490   20.5931 C   0  0  0  0  0  0  0  0  0  0  0  0
  -26.3214   -9.7839   19.0048 C   0  0  0  0  0  0  0  0  0  0  0  0
  -28.5306  -33.0006   25.4106 C   0  0  0  0  0  0  0  0  0  0  0  0
  -25.7568  -29.6116   20.4112 C   0  0  0  0  0  0  0  0  0  0  0  0
  -28.1226  -31.7905   24.8177 C   0  0  0  0  0  0  0  0  0  0  0  0
  -24.9083  -28.5162   20.6265 C   0  0  0  0  0  0  0  0  0  0  0  0
  -27.3203  -20.0409   18.4764 C   0  0  0  0  0  0  0  0  0  0  0  0
  -25.8795  -18.8512   16.9448 C   0  0  0  0  0  0  0  0  0  0  0  0
  -27.4098  -17.6293   18.3597 C   0  0  0  0  0  0  0  0  0  0  0  0
  -21.8828   -9.5063   21.7059 C   0  0  0  0  0  0  0  0  0  0  0  0
  -26.5082  -27.0717   19.5025 C   0  0  0  0  0  0  0  0  0  0  0  0
  -20.5533   -9.2509   23.6267 C   0  0  0  0  0  0  0  0  0  0  0  0
  -20.3115   -9.3710   26.4034 C   0  0  0  0  0  0  0  0  0  0  0  0
  -20.2051   -8.1080   24.3465 C   0  0  0  0  0  0  0  0  0  0  0  0
  -25.6376  -10.4817   20.0182 C   0  0  0  0  0  0  0  0  0  0  0  0
  -27.4793  -10.4985   18.8171 C   0  0  0  0  0  0  0  0  0  0  0  0
  -26.9854  -22.3963   19.1618 C   0  0  0  0  0  0  0  0  0  0  0  0
  -27.3732  -23.5733   19.6888 C   0  0  0  0  0  0  0  0  0  0  0  0
  -28.7632  -23.7346   20.1200 C   0  0  0  0  0  0  0  0  0  0  0  0
  -29.2024  -24.7361   20.8993 C   0  0  0  0  0  0  0  0  0  0  0  0
  -25.9438   -8.5960   18.2963 C   0  0  0  0  0  0  0  0  0  0  0  0
  -24.9590  -30.6007   23.3248 C   0  0  0  0  0  0  0  0  0  0  0  0
  -21.9443  -30.3971   22.1449 C   0  0  0  0  0  0  0  0  0  0  0  0
  -19.8129  -29.0191   19.8634 C   0  0  0  0  0  0  0  0  0  0  0  0
  -28.9486  -16.2125   19.7637 C   0  0  0  0  0  0  0  0  0  0  0  0
  -27.6054  -33.8053   26.2887 C   0  0  0  0  0  0  0  0  0  0  0  0
  -25.3540  -30.9879   20.8652 C   0  0  0  0  0  0  0  0  0  0  0  0
  -23.5904  -28.6624   21.3408 C   0  0  0  0  0  0  0  0  0  0  0  0
  -29.7217  -22.6802   19.6079 C   0  0  0  0  0  0  0  0  0  0  0  0
  -26.1326  -33.4437   26.1144 C   0  0  0  0  0  0  0  0  0  0  0  0
  -30.5420  -13.3463   21.1504 C   0  0  0  0  0  0  0  0  0  0  0  0
  -25.9500  -31.9293   26.1239 C   0  0  0  0  0  0  0  0  0  0  0  0
  -29.5300  -12.2217   20.9197 C   0  0  0  0  0  0  0  0  0  0  0  0
  -29.1233  -21.2669   19.6411 C   0  0  0  0  0  0  0  0  0  0  0  0
  -29.8541  -14.6681   21.4870 C   0  0  0  0  0  0  0  0  0  0  0  0
  -27.8119  -13.9685   20.3001 C   0  0  0  0  0  0  0  0  0  0  0  0
  -26.7071  -31.2750   24.9619 C   0  0  1  0  0  0  0  0  0  0  0  0
  -24.3409  -30.9683   22.0056 C   0  0  1  0  0  0  0  0  0  0  0  0
  -28.4552  -12.6324   19.8942 C   0  0  2  0  0  0  0  0  0  0  0  0
  -17.4009  -29.0179   19.1707 C   0  0  0  0  0  0  0  0  0  0  0  0
  -21.2597  -28.6357   24.5405 C   0  0  0  0  0  0  0  0  0  0  0  0
  -19.1942  -27.9082   23.3270 C   0  0  0  0  0  0  0  0  0  0  0  0
  -19.4999  -30.3074   23.9380 C   0  0  0  0  0  0  0  0  0  0  0  0
  -20.4669  -30.0451   17.1655 C   0  0  0  0  0  0  0  0  0  0  0  0
  -26.4083  -24.7172   19.8220 C   0  0  0  0  0  0  0  0  0  1  0  0
  -20.8937  -29.3151   22.0767 C   0  0  1  0  0  0  0  0  0  0  0  0
  -18.7701  -29.6433   18.9538 C   0  0  2  0  0  0  0  0  0  0  0  0
  -20.2375  -29.0382   23.4588 C   0  0  0  0  0  0  0  0  0  0  0  0
  -26.3053  -11.5570   20.4447 N   0  0  0  0  0  0  0  0  0  0  0  0
  -27.4210  -11.5401   19.6956 N   0  0  0  0  0  0  0  0  0  0  0  0
  -27.7785  -21.2623   19.0357 N   0  0  0  0  0  0  0  0  0  0  0  0
  -23.2439  -30.0271   21.7710 N   0  0  0  0  0  0  0  0  0  0  0  0
  -28.8523  -14.9949   20.4699 N   0  0  0  0  0  0  0  0  0  0  0  0
  -24.8780  -18.8621   15.9518 N   0  0  0  0  0  0  0  0  0  0  0  0
  -28.5315  -10.3311   17.9881 N   0  0  0  0  0  0  0  0  0  0  0  0
  -24.7209   -7.9891   18.6135 N   0  0  0  0  0  0  0  0  0  0  0  0
  -27.9592  -16.3993   18.7989 N   0  0  0  0  0  0  0  0  0  0  0  0
  -25.9775  -31.4451   23.7237 N   0  0  0  0  0  0  0  0  0  0  0  0
  -19.9527  -29.7246   21.0398 N   0  0  0  0  0  0  0  0  0  0  0  0
  -19.1508  -29.4572   17.5251 N   0  3  0  0  0  0  0  0  0  0  0  0
  -26.6769   -8.0785   17.4197 O   0  0  0  0  0  0  0  0  0  0  0  0
  -24.5417  -29.6241   23.9363 O   0  0  0  0  0  0  0  0  0  0  0  0
  -21.6221  -31.5306   22.5095 O   0  0  0  0  0  0  0  0  0  0  0  0
  -20.4381  -28.0048   19.5621 O   0  0  0  0  0  0  0  0  0  0  0  0
  -29.8587  -17.0172   19.9786 O   0  0  0  0  0  0  0  0  0  0  0  0
  -20.6745   -9.1928   22.2485 O   0  0  0  0  0  0  0  0  0  0  0  0
  -26.8723  -25.8352   19.0663 O   0  0  0  0  0  0  0  0  0  1  0  0
  -20.1969   -9.4284   27.7367 F   0  0  0  0  0  0  0  0  0  0  0  0
  -19.9867   -6.9492   23.7099 F   0  0  0  0  0  0  0  0  0  0  0  0
  1  2  1  0  0  0  0
  1  5  2  0  0  0  0
  2  6  2  0  0  0  0
  3  8  2  0  0  0  0
  3 18  1  0  0  0  0
  4  9  1  0  0  0  0
  4 18  2  0  0  0  0
  5 20  1  0  0  0  0
  6 22  1  0  0  0  0
  7 10  2  0  0  0  0
  7 21  1  0  0  0  0
  8 27  1  0  0  0  0
  9 27  2  0  0  0  0
 10 28  1  0  0  0  0
 11 12  2  0  0  0  0
 11 29  1  0  0  0  0
 12 30  1  0  0  0  0
 13 23  1  0  0  0  0
 13 28  2  0  0  0  0
 14 24  1  0  0  0  0
 14 25  2  0  0  0  0
 15 24  2  0  0  0  0
 15 26  1  0  0  0  0
 16 25  1  0  0  0  0
 16 26  2  0  0  0  0
 17 30  2  0  0  0  0
 17 31  1  0  0  0  0
 18 32  1  0  0  0  0
 19 32  1  0  0  0  0
 19 33  2  0  0  0  0
 19 38  1  0  0  0  0
 20 22  2  0  0  0  0
 20 43  1  0  0  0  0
 21 23  2  0  0  0  0
 21 44  1  0  0  0  0
 22 54  1  0  0  0  0
 23 45  1  0  0  0  0
 24 68  1  0  0  0  0
 25 71  1  0  0  0  0
 26 74  1  0  0  0  0
 27 83  1  0  0  0  0
 28 84  1  0  0  0  0
 29 31  2  0  0  0  0
 29 83  1  0  0  0  0
 30 85  1  0  0  0  0
 31 86  1  0  0  0  0
 32 66  2  0  0  0  0
 33 67  1  0  0  0  0
 33 72  1  0  0  0  0
 34 35  2  0  0  0  0
 34 68  1  0  0  0  0
 35 36  1  0  0  0  0
 35 62  1  0  0  0  0
 36 37  2  0  0  0  0
 36 46  1  0  0  0  0
 38 73  1  0  0  0  0
 38 78  2  0  0  0  0
 39 55  1  0  0  0  0
 39 75  1  0  0  0  0
 39 79  2  0  0  0  0
 40 63  1  0  0  0  0
 40 69  1  0  0  0  0
 40 80  2  0  0  0  0
 41 64  1  0  0  0  0
 41 76  1  0  0  0  0
 41 81  2  0  0  0  0
 42 70  1  0  0  0  0
 42 74  1  0  0  0  0
 42 82  2  0  0  0  0
 43 47  1  0  0  0  0
 44 55  1  0  0  0  0
 45 69  1  0  0  0  0
 46 51  1  0  0  0  0
 47 49  1  0  0  0  0
 48 50  1  0  0  0  0
 48 52  1  0  0  0  0
 49 54  1  0  0  0  0
 50 56  1  0  0  0  0
 51 68  1  0  0  0  0
 52 70  1  0  0  0  0
 53 56  1  0  0  0  0
 53 70  1  0  0  0  0
 54 75  1  0  0  0  0
 55 69  1  0  0  0  0
 56 67  1  0  0  0  0
 57 64  1  0  0  0  0
 58 65  1  0  0  0  0
 59 65  1  0  0  0  0
 60 65  1  0  0  0  0
 61 77  1  0  0  0  0
 62 84  1  0  0  0  0
 63 65  1  0  0  0  0
 63 76  1  0  0  0  0
 64 77  1  0  0  0  0
 66 67  1  0  0  0  0
M  CHG  1  77   1
M  ISO  4  42 100  62 101  74 100  84 101
M  END
> <Batch ID>
0077

> <Smiles>
C=C1CCN(c2cc(N)cc([100NH:0][100C:0](=O)N3CCCC(n4nc(-c5ccc(Oc6ccc(F)cc6F)cc5)c(C(N)=O)c4N)C3)c2)C=C1[101CH2:1][101O:1]c1ccc2c(c1)CN(C(=O)C(NC(=O)C(C)NC)C(C)(C)C)C(C(=O)NC1CCCc3ccccc31)C2

> <Shape>
0.282

> <Color>
0.078

> <Negative vol penalty>
0.000

$$$$

  -OEChem-04042323533D

 87 96  0     1  0  0  0  0  0999 V2000
  -25.9812  -35.6506   22.5254 C   0  0  0  0  0  0  0  0  0  0  0  0
  -26.5470  -34.3828   22.4370 C   0  0  0  0  0  0  0  0  0  0  0  0
  -23.4132  -10.2176   21.5966 C   0  0  0  0  0  0  0  0  0  0  0  0
  -24.9476   -8.4141   22.0764 C   0  0  0  0  0  0  0  0  0  0  0  0
  -24.6650  -35.7965   22.9617 C   0  0  0  0  0  0  0  0  0  0  0  0
  -25.7972  -33.2600   22.7859 C   0  0  0  0  0  0  0  0  0  0  0  0
  -26.2821  -29.4853   19.4450 C   0  0  0  0  0  0  0  0  0  0  0  0
  -28.9343  -20.1760   19.4984 C   0  0  0  0  0  0  0  0  0  0  0  0
  -29.4105  -20.0059   21.8609 C   0  0  0  0  0  0  0  0  0  0  0  0
  -29.0202  -18.7887   19.3812 C   0  0  0  0  0  0  0  0  0  0  0  0
  -29.4964  -18.6186   21.7437 C   0  0  0  0  0  0  0  0  0  0  0  0
  -22.3791   -9.2953   21.4367 C   0  0  0  0  0  0  0  0  0  0  0  0
  -23.9135   -7.4918   21.9165 C   0  0  0  0  0  0  0  0  0  0  0  0
  -27.4457  -28.7204   19.5130 C   0  0  0  0  0  0  0  0  0  0  0  0
  -21.5988   -4.6891   21.9893 C   0  0  0  0  0  0  0  0  0  0  0  0
  -21.4833   -3.6724   22.9372 C   0  0  0  0  0  0  0  0  0  0  0  0
  -26.2432  -27.0086   20.7141 C   0  0  0  0  0  0  0  0  0  0  0  0
  -21.1823   -5.3254   24.6734 C   0  0  0  0  0  0  0  0  0  0  0  0
  -24.6974   -9.7770   21.9164 C   0  0  0  0  0  0  0  0  0  0  0  0
  -26.1536  -11.3750   23.2706 C   0  0  0  0  0  0  0  0  0  0  0  0
  -23.8956  -34.6742   23.3069 C   0  0  0  0  0  0  0  0  0  0  0  0
  -25.0909  -29.0216   20.0216 C   0  0  0  0  0  0  0  0  0  0  0  0
  -24.4700  -33.3911   23.2284 C   0  0  0  0  0  0  0  0  0  0  0  0
  -25.0652  -27.7684   20.6499 C   0  0  0  0  0  0  0  0  0  0  0  0
  -29.1294  -20.7846   20.7383 C   0  0  0  0  0  0  0  0  0  0  0  0
  -29.3013  -18.0101   20.5039 C   0  0  0  0  0  0  0  0  0  0  0  0
  -22.6292   -7.9324   21.5966 C   0  0  0  0  0  0  0  0  0  0  0  0
  -27.4271  -27.4832   20.1501 C   0  0  0  0  0  0  0  0  0  0  0  0
  -21.5062   -6.0239   22.3834 C   0  0  0  0  0  0  0  0  0  0  0  0
  -21.2750   -3.9905   24.2793 C   0  0  0  0  0  0  0  0  0  0  0  0
  -21.2979   -6.3421   23.7254 C   0  0  0  0  0  0  0  0  0  0  0  0
  -25.7662  -10.7292   22.0811 C   0  0  0  0  0  0  0  0  0  0  0  0
  -27.2084  -12.1728   22.9002 C   0  0  0  0  0  0  0  0  0  0  0  0
  -28.7793  -24.4080   20.3974 C   0  0  0  0  0  0  0  0  0  0  0  0
  -29.0619  -24.3162   21.8078 C   0  0  0  0  0  0  0  0  0  0  0  0
  -28.7675  -23.0464   19.7935 C   0  0  0  0  0  0  0  0  0  0  0  0
  -29.1586  -25.3065   22.7014 C   0  0  0  0  0  0  0  0  0  0  0  0
  -25.6086  -11.2635   24.5921 C   0  0  0  0  0  0  0  0  0  0  0  0
  -28.5483  -25.4925   19.6492 C   0  0  0  0  0  0  0  0  0  1  0  0
  -23.1734  -30.0471   22.3401 C   0  0  0  0  0  0  0  0  0  0  0  0
  -21.3118  -27.5778   21.3603 C   0  0  0  0  0  0  0  0  0  0  0  0
  -21.1017  -24.5473   19.8053 C   0  0  0  0  0  0  0  0  0  0  0  0
  -29.1978  -15.9294   19.1418 C   0  0  0  0  0  0  0  0  0  0  0  0
  -22.4925  -34.8854   23.8182 C   0  0  0  0  0  0  0  0  0  0  0  0
  -23.8377  -29.8468   19.9164 C   0  0  0  0  0  0  0  0  0  0  0  0
  -23.8070  -27.2163   21.2670 C   0  0  0  0  0  0  0  0  0  0  0  0
  -29.2382  -22.8624   22.1268 C   0  0  0  0  0  0  0  0  0  0  0  0
  -21.6444  -33.6162   23.8116 C   0  0  0  0  0  0  0  0  0  0  0  0
  -29.8882  -12.3425   18.6243 C   0  0  0  0  0  0  0  0  0  0  0  0
  -22.4266  -32.4482   24.4038 C   0  0  0  0  0  0  0  0  0  0  0  0
  -28.8607  -11.6640   19.5287 C   0  0  0  0  0  0  0  0  0  0  0  0
  -29.3869  -13.6871   18.1059 C   0  0  0  0  0  0  0  0  0  0  0  0
  -27.9264  -13.9441   20.0886 C   0  0  0  0  0  0  0  0  0  0  0  0
  -23.6807  -32.1471   23.5743 C   0  0  1  0  0  0  0  0  0  0  0  0
  -22.8061  -29.5059   20.9873 C   0  0  1  0  0  0  0  0  0  0  0  0
  -28.4196  -12.6068   20.6616 C   0  0  1  0  0  0  0  0  0  0  0  0
  -28.2658  -25.4412   18.1822 C   0  0  0  0  0  0  0  0  0  0  0  0
  -19.4524  -22.7583   19.1914 C   0  0  0  0  0  0  0  0  0  0  0  0
  -21.2817  -26.6155   24.2557 C   0  0  0  0  0  0  0  0  0  0  0  0
  -20.4635  -24.3957   23.4362 C   0  0  0  0  0  0  0  0  0  0  0  0
  -19.0834  -26.4422   23.0758 C   0  0  0  0  0  0  0  0  0  0  0  0
  -29.9238  -15.8082   21.5142 C   0  0  0  0  0  0  0  0  0  0  0  0
  -21.6306  -24.8897   16.9136 C   0  0  0  0  0  0  0  0  0  0  0  0
  -21.1949  -26.1173   21.7238 C   0  0  1  0  0  0  0  0  0  0  0  0
  -20.1574  -24.0267   18.7367 C   0  0  2  0  0  0  0  0  0  0  0  0
  -20.5302  -25.9037   23.1130 C   0  0  0  0  0  0  0  0  0  0  0  0
  -26.5140  -11.0861   21.0336 N   0  0  0  0  0  0  0  0  0  0  0  0
  -27.3818  -11.9648   21.5635 N   0  0  0  0  0  0  0  0  0  0  0  0
  -29.0441  -22.1683   20.8553 N   0  0  0  0  0  0  0  0  0  0  0  0
  -22.6092  -28.0634   21.1436 N   0  0  0  0  0  0  0  0  0  0  0  0
  -28.9313  -14.5466   19.1991 N   0  0  0  0  0  0  0  0  0  0  0  0
  -27.9953  -13.0251   23.5909 N   0  0  0  0  0  0  0  0  0  0  0  0
  -24.5257  -10.3978   24.7974 N   0  0  0  0  0  0  0  0  0  0  0  0
  -23.3298  -31.4196   22.3735 N   0  0  0  0  0  0  0  0  0  0  0  0
  -20.4894  -25.4769   20.6190 N   0  0  0  0  0  0  0  0  0  0  0  0
  -29.3903  -16.5740   20.3829 N   0  0  0  0  0  0  0  0  0  0  0  0
  -20.9078  -23.7244   17.4851 N   0  3  0  0  0  0  0  0  0  0  0  0
  -28.5583  -22.7843   18.6209 O   0  0  0  0  0  0  0  0  0  0  0  0
  -26.0579  -11.9248   25.5587 O   0  0  0  0  0  0  0  0  0  0  0  0
  -23.3037  -29.2766   23.2840 O   0  0  0  0  0  0  0  0  0  0  0  0
  -20.2892  -28.2610   21.2650 O   0  0  0  0  0  0  0  0  0  0  0  0
  -22.2649  -24.1645   19.9102 O   0  0  0  0  0  0  0  0  0  0  0  0
  -29.2862  -16.5327   18.0658 O   0  0  0  0  0  0  0  0  0  0  0  0
  -21.6203   -7.0321   21.4409 O   0  0  0  0  0  0  0  0  0  0  0  0
  -28.5617  -26.7348   20.2185 O   0  0  0  0  0  0  0  0  0  1  0  0
  -21.1625   -3.0141   25.1892 F   0  0  0  0  0  0  0  0  0  0  0  0
  -21.2069   -7.6226   24.1098 F   0  0  0  0  0  0  0  0  0  0  0  0
  1  2  1  0  0  0  0
  1  5  2  0  0  0  0
  2  6  2  0  0  0  0
  3 12  2  0  0  0  0
  3 19  1  0  0  0  0
  4 13  1  0  0  0  0
  4 19  2  0  0  0  0
  5 21  1  0  0  0  0
  6 23  1  0  0  0  0
  7 14  2  0  0  0  0
  7 22  1  0  0  0  0
  8 10  2  0  0  0  0
  8 25  1  0  0  0  0
  9 11  1  0  0  0  0
  9 25  2  0  0  0  0
 10 26  1  0  0  0  0
 11 26  2  0  0  0  0
 12 27  1  0  0  0  0
 13 27  2  0  0  0  0
 14 28  1  0  0  0  0
 15 16  2  0  0  0  0
 15 29  1  0  0  0  0
 16 30  1  0  0  0  0
 17 24  1  0  0  0  0
 17 28  2  0  0  0  0
 18 30  2  0  0  0  0
 18 31  1  0  0  0  0
 19 32  1  0  0  0  0
 20 32  1  0  0  0  0
 20 33  2  0  0  0  0
 20 38  1  0  0  0  0
 21 23  2  0  0  0  0
 21 44  1  0  0  0  0
 22 24  2  0  0  0  0
 22 45  1  0  0  0  0
 23 54  1  0  0  0  0
 24 46  1  0  0  0  0
 25 69  1  0  0  0  0
 26 76  1  0  0  0  0
 27 84  1  0  0  0  0
 28 85  1  0  0  0  0
 29 31  2  0  0  0  0
 29 84  1  0  0  0  0
 30 86  1  0  0  0  0
 31 87  1  0  0  0  0
 32 67  2  0  0  0  0
 33 68  1  0  0  0  0
 33 72  1  0  0  0  0
 34 35  1  0  0  0  0
 34 36  1  0  0  0  0
 34 39  2  0  0  0  0
 35 37  2  0  0  0  0
 35 47  1  0  0  0  0
 36 69  1  0  0  0  0
 36 78  2  0  0  0  0
 38 73  1  0  0  0  0
 38 79  2  0  0  0  0
 39 57  1  0  0  0  0
 39 85  1  0  0  0  0
 40 55  1  0  0  0  0
 40 74  1  0  0  0  0
 40 80  2  0  0  0  0
 41 64  1  0  0  0  0
 41 70  1  0  0  0  0
 41 81  2  0  0  0  0
 42 65  1  0  0  0  0
 42 75  1  0  0  0  0
 42 82  2  0  0  0  0
 43 71  1  0  0  0  0
 43 76  1  0  0  0  0
 43 83  2  0  0  0  0
 44 48  1  0  0  0  0
 45 55  1  0  0  0  0
 46 70  1  0  0  0  0
 47 69  1  0  0  0  0
 48 50  1  0  0  0  0
 49 51  1  0  0  0  0
 49 52  1  0  0  0  0
 50 54  1  0  0  0  0
 51 56  1  0  0  0  0
 52 71  1  0  0  0  0
 53 56  1  0  0  0  0
 53 71  1  0  0  0  0
 54 74  1  0  0  0  0
 55 70  1  0  0  0  0
 56 68  1  0  0  0  0
 58 65  1  0  0  0  0
 59 66  1  0  0  0  0
 60 66  1  0  0  0  0
 61 66  1  0  0  0  0
 62 76  1  0  0  0  0
 63 77  1  0  0  0  0
 64 66  1  0  0  0  0
 64 75  1  0  0  0  0
 65 77  1  0  0  0  0
 67 68  1  0  0  0  0
M  CHG  1  77   1
M  ISO  4  39 101  43 100  76 100  85 101
M  END
> <Batch ID>
0077

> <Smiles>
C=C1CN(c2ccc([100N:0](C)[100C:0](=O)N3CCCC(n4nc(-c5ccc(Oc6ccc(F)cc6F)cc5)c(C(N)=O)c4N)C3)cc2)C(=O)C1=[101C:1](C)[101O:1]c1ccc2c(c1)CN(C(=O)C(NC(=O)C(C)NC)C(C)(C)C)C(C(=O)NC1CCCc3ccccc31)C2

> <Shape>
0.349

> <Color>
0.147

> <Negative vol penalty>
0.000

$$$$

  -OEChem-04042323533D

 87 96  0     1  0  0  0  0  0999 V2000
  -27.8930  -29.6004   27.8661 C   0  0  0  0  0  0  0  0  0  0  0  0
  -27.2878  -28.7965   26.9055 C   0  0  0  0  0  0  0  0  0  0  0  0
  -22.8094  -11.1899   19.0767 C   0  0  0  0  0  0  0  0  0  0  0  0
  -23.1410   -9.8566   21.0640 C   0  0  0  0  0  0  0  0  0  0  0  0
  -29.4208  -19.5468   19.1927 C   0  0  0  0  0  0  0  0  0  0  0  0
  -27.4730  -30.9191   28.0350 C   0  0  0  0  0  0  0  0  0  0  0  0
  -26.2615  -29.3106   26.1138 C   0  0  0  0  0  0  0  0  0  0  0  0
  -26.7848  -28.0966   21.2253 C   0  0  0  0  0  0  0  0  0  0  0  0
  -28.5291  -20.6106   19.3296 C   0  0  0  0  0  0  0  0  0  0  0  0
  -21.8155  -10.3086   18.6512 C   0  0  0  0  0  0  0  0  0  0  0  0
  -22.1471   -8.9753   20.6386 C   0  0  0  0  0  0  0  0  0  0  0  0
  -26.4198  -26.8052   20.8473 C   0  0  0  0  0  0  0  0  0  0  0  0
  -21.8526   -6.4279   18.4353 C   0  0  0  0  0  0  0  0  0  0  0  0
  -22.1123   -5.0611   18.5353 C   0  0  0  0  0  0  0  0  0  0  0  0
  -24.3115  -27.6466   20.0310 C   0  0  0  0  0  0  0  0  0  0  0  0
  -27.6155  -19.5885   21.3191 C   0  0  0  0  0  0  0  0  0  0  0  0
  -20.2090   -4.8069   20.0016 C   0  0  0  0  0  0  0  0  0  0  0  0
  -23.4723  -10.9639   20.2831 C   0  0  0  0  0  0  0  0  0  0  0  0
  -29.4099  -18.5038   20.1188 C   0  0  0  0  0  0  0  0  0  0  0  0
  -24.3337  -13.0215   21.5207 C   0  0  0  0  0  0  0  0  0  0  0  0
  -26.4476  -31.4526   27.2384 C   0  0  0  0  0  0  0  0  0  0  0  0
  -25.9100  -29.1728   21.0185 C   0  0  0  0  0  0  0  0  0  0  0  0
  -25.8265  -30.6373   26.2730 C   0  0  0  0  0  0  0  0  0  0  0  0
  -24.6689  -28.9510   20.4049 C   0  0  0  0  0  0  0  0  0  0  0  0
  -27.6264  -20.6314   20.3929 C   0  0  0  0  0  0  0  0  0  0  0  0
  -28.5073  -18.5247   21.1821 C   0  0  0  0  0  0  0  0  0  0  0  0
  -21.4843   -9.2013   19.4322 C   0  0  0  0  0  0  0  0  0  0  0  0
  -25.1818  -26.5796   20.2527 C   0  0  0  0  0  0  0  0  0  0  0  0
  -20.7712   -6.9843   19.1185 C   0  0  0  0  0  0  0  0  0  0  0  0
  -21.2905   -4.2506   19.3184 C   0  0  0  0  0  0  0  0  0  0  0  0
  -19.9494   -6.1737   19.9016 C   0  0  0  0  0  0  0  0  0  0  0  0
  -24.4995  -11.8736   20.7228 C   0  0  0  0  0  0  0  0  0  0  0  0
  -25.6014  -13.5332   21.6536 C   0  0  0  0  0  0  0  0  0  0  0  0
  -25.5427  -23.2610   20.7614 C   0  0  0  0  0  0  0  0  0  0  0  0
  -26.5399  -22.8023   19.7937 C   0  0  0  0  0  0  0  0  0  0  0  0
  -30.3729  -17.3862   19.9444 C   0  0  0  0  0  0  0  0  0  0  0  0
  -23.1406  -13.5756   22.0909 C   0  0  0  0  0  0  0  0  0  0  0  0
  -24.7564  -24.3594   20.8533 C   0  0  0  0  0  0  0  0  0  1  0  0
  -24.4255  -31.2521   22.9097 C   0  0  0  0  0  0  0  0  0  0  0  0
  -23.5436  -32.5930   20.0907 C   0  0  0  0  0  0  0  0  0  0  0  0
  -22.9893  -32.2049   16.7457 C   0  0  0  0  0  0  0  0  0  0  0  0
  -30.5316  -14.9471   19.5580 C   0  0  0  0  0  0  0  0  0  0  0  0
  -25.9954  -32.8692   27.4898 C   0  0  0  0  0  0  0  0  0  0  0  0
  -26.3297  -30.5638   21.4075 C   0  0  0  0  0  0  0  0  0  0  0  0
  -23.7018  -30.0755   20.1423 C   0  0  0  0  0  0  0  0  0  0  0  0
  -25.7882  -22.0065   21.5681 C   0  0  0  0  0  0  0  0  0  0  0  0
  -25.1567  -33.4514   26.3550 C   0  0  0  0  0  0  0  0  0  0  0  0
  -30.1014  -11.5508   20.4393 C   0  0  0  0  0  0  0  0  0  0  0  0
  -24.0900  -32.4542   25.9138 C   0  0  0  0  0  0  0  0  0  0  0  0
  -28.5924  -11.4249   20.6660 C   0  0  0  0  0  0  0  0  0  0  0  0
  -30.4242  -12.4866   19.2753 C   0  0  0  0  0  0  0  0  0  0  0  0
  -28.2950  -13.6843   19.5748 C   0  0  0  0  0  0  0  0  0  0  0  0
  -24.7268  -31.1662   25.3780 C   0  0  1  0  0  0  0  0  0  0  0  0
  -25.1493  -31.5072   21.6179 C   0  0  1  0  0  0  0  0  0  0  0  0
  -27.9203  -12.8079   20.7809 C   0  0  1  0  0  0  0  0  0  0  0  0
  -23.7886  -24.6157   21.9646 C   0  0  0  0  0  0  0  0  0  0  0  0
  -22.2379  -33.4710   14.7135 C   0  0  0  0  0  0  0  0  0  0  0  0
  -20.6552  -32.4304   21.0604 C   0  0  0  0  0  0  0  0  0  0  0  0
  -19.9145  -32.7971   18.6971 C   0  0  0  0  0  0  0  0  0  0  0  0
  -21.2394  -34.5529   19.8738 C   0  0  0  0  0  0  0  0  0  0  0  0
  -25.5706  -31.7565   15.3692 C   0  0  0  0  0  0  0  0  0  0  0  0
  -22.3825  -32.4201   19.1415 C   0  0  1  0  0  0  0  0  0  0  0  0
  -23.4292  -33.0295   15.5494 C   0  0  2  0  0  0  0  0  0  0  0  0
  -21.0651  -33.0285   19.6998 C   0  0  0  0  0  0  0  0  0  0  0  0
  -25.7721  -11.6680   20.3731 N   0  0  0  0  0  0  0  0  0  0  0  0
  -26.4175  -12.6937   20.9541 N   0  0  0  0  0  0  0  0  0  0  0  0
  -26.7473  -21.6808   20.5273 N   0  0  0  0  0  0  0  0  0  0  0  0
  -24.1554  -31.4166   20.5464 N   0  0  0  0  0  0  0  0  0  0  0  0
  -29.7586  -13.7767   19.4645 N   0  0  0  0  0  0  0  0  0  0  0  0
  -28.4790  -17.4776   22.1299 N   0  0  0  0  0  0  0  0  0  0  0  0
  -26.0864  -14.6150   22.2992 N   0  0  0  0  0  0  0  0  0  0  0  0
  -21.9225  -12.9234   21.8558 N   0  0  0  0  0  0  0  0  0  0  0  0
  -29.8054  -16.1223   19.7809 N   0  0  0  0  0  0  0  0  0  0  0  0
  -25.2216  -31.3685   24.0331 N   0  0  0  0  0  0  0  0  0  0  0  0
  -22.8094  -32.9871   17.8669 N   0  0  0  0  0  0  0  0  0  0  0  0
  -24.3441  -32.2356   14.6813 N   0  3  0  0  0  0  0  0  0  0  0  0
  -27.0057  -23.2440   18.7639 O   0  0  0  0  0  0  0  0  0  0  0  0
  -31.5756  -17.6322   19.9144 O   0  0  0  0  0  0  0  0  0  0  0  0
  -23.1520  -14.6272   22.7747 O   0  0  0  0  0  0  0  0  0  0  0  0
  -23.2327  -30.9720   22.8888 O   0  0  0  0  0  0  0  0  0  0  0  0
  -23.8994  -33.7300   20.4102 O   0  0  0  0  0  0  0  0  0  0  0  0
  -22.8186  -30.9890   16.6901 O   0  0  0  0  0  0  0  0  0  0  0  0
  -31.7646  -14.9419   19.4874 O   0  0  0  0  0  0  0  0  0  0  0  0
  -20.5143   -8.3413   19.0175 O   0  0  0  0  0  0  0  0  0  0  0  0
  -24.8227  -25.3200   19.8834 O   0  0  0  0  0  0  0  0  0  1  0  0
  -21.5390   -2.9378   19.4131 F   0  0  0  0  0  0  0  0  0  0  0  0
  -18.9083   -6.7022   20.5593 F   0  0  0  0  0  0  0  0  0  0  0  0
  1  2  1  0  0  0  0
  1  6  2  0  0  0  0
  2  7  2  0  0  0  0
  3 10  2  0  0  0  0
  3 18  1  0  0  0  0
  4 11  1  0  0  0  0
  4 18  2  0  0  0  0
  5  9  2  0  0  0  0
  5 19  1  0  0  0  0
  6 21  1  0  0  0  0
  7 23  1  0  0  0  0
  8 12  2  0  0  0  0
  8 22  1  0  0  0  0
  9 25  1  0  0  0  0
 10 27  1  0  0  0  0
 11 27  2  0  0  0  0
 12 28  1  0  0  0  0
 13 14  2  0  0  0  0
 13 29  1  0  0  0  0
 14 30  1  0  0  0  0
 15 24  1  0  0  0  0
 15 28  2  0  0  0  0
 16 25  2  0  0  0  0
 16 26  1  0  0  0  0
 17 30  2  0  0  0  0
 17 31  1  0  0  0  0
 18 32  1  0  0  0  0
 19 26  2  0  0  0  0
 19 36  1  0  0  0  0
 20 32  1  0  0  0  0
 20 33  2  0  0  0  0
 20 37  1  0  0  0  0
 21 23  2  0  0  0  0
 21 43  1  0  0  0  0
 22 24  2  0  0  0  0
 22 44  1  0  0  0  0
 23 53  1  0  0  0  0
 24 45  1  0  0  0  0
 25 67  1  0  0  0  0
 26 70  1  0  0  0  0
 27 84  1  0  0  0  0
 28 85  1  0  0  0  0
 29 31  2  0  0  0  0
 29 84  1  0  0  0  0
 30 86  1  0  0  0  0
 31 87  1  0  0  0  0
 32 65  2  0  0  0  0
 33 66  1  0  0  0  0
 33 71  1  0  0  0  0
 34 35  1  0  0  0  0
 34 38  2  0  0  0  0
 34 46  1  0  0  0  0
 35 67  1  0  0  0  0
 35 77  2  0  0  0  0
 36 73  1  0  0  0  0
 36 78  2  0  0  0  0
 37 72  1  0  0  0  0
 37 79  2  0  0  0  0
 38 56  1  0  0  0  0
 38 85  1  0  0  0  0
 39 54  1  0  0  0  0
 39 74  1  0  0  0  0
 39 80  2  0  0  0  0
 40 62  1  0  0  0  0
 40 68  1  0  0  0  0
 40 81  2  0  0  0  0
 41 63  1  0  0  0  0
 41 75  1  0  0  0  0
 41 82  2  0  0  0  0
 42 69  1  0  0  0  0
 42 73  1  0  0  0  0
 42 83  2  0  0  0  0
 43 47  1  0  0  0  0
 44 54  1  0  0  0  0
 45 68  1  0  0  0  0
 46 67  1  0  0  0  0
 47 49  1  0  0  0  0
 48 50  1  0  0  0  0
 48 51  1  0  0  0  0
 49 53  1  0  0  0  0
 50 55  1  0  0  0  0
 51 69  1  0  0  0  0
 52 55  1  0  0  0  0
 52 69  1  0  0  0  0
 53 74  1  0  0  0  0
 54 68  1  0  0  0  0
 55 66  1  0  0  0  0
 57 63  1  0  0  0  0
 58 64  1  0  0  0  0
 59 64  1  0  0  0  0
 60 64  1  0  0  0  0
 61 76  1  0  0  0  0
 62 64  1  0  0  0  0
 62 75  1  0  0  0  0
 63 76  1  0  0  0  0
 65 66  1  0  0  0  0
M  CHG  1  76   1
M  ISO  4  38 101  42 100  73 100  85 101
M  END
> <Batch ID>
0077

> <Smiles>
CNC(C)C(=O)NC(C(=O)N1Cc2cc([101O:1][101C:1](C)=C3CN(c4ccc(C(=O)[100NH:0][100C:0](=O)N5CCCC(n6nc(-c7ccc(Oc8ccc(F)cc8F)cc7)c(C(N)=O)c6N)C5)c(N)c4)C3=O)ccc2CC1C(=O)NC1CCCc2ccccc21)C(C)(C)C

> <Shape>
0.257

> <Color>
0.115

> <Negative vol penalty>
0.000

$$$$

  -OEChem-04042323533D

 88 97  0     1  0  0  0  0  0999 V2000
  -27.0412  -33.6241   26.4385 C   0  0  0  0  0  0  0  0  0  0  0  0
  -27.3995  -32.4888   25.7187 C   0  0  0  0  0  0  0  0  0  0  0  0
  -23.8676  -11.0020   19.8312 C   0  0  0  0  0  0  0  0  0  0  0  0
  -25.2315  -11.6631   21.7126 C   0  0  0  0  0  0  0  0  0  0  0  0
  -25.7045  -33.8477   26.7655 C   0  0  0  0  0  0  0  0  0  0  0  0
  -26.4212  -31.5758   25.3264 C   0  0  0  0  0  0  0  0  0  0  0  0
  -30.4687  -19.4539   22.1180 C   0  0  0  0  0  0  0  0  0  0  0  0
  -30.4210  -20.9306   20.2064 C   0  0  0  0  0  0  0  0  0  0  0  0
  -26.9750  -30.0808   20.5198 C   0  0  0  0  0  0  0  0  0  0  0  0
  -29.9728  -18.4162   21.3289 C   0  0  0  0  0  0  0  0  0  0  0  0
  -29.9250  -19.8928   19.4172 C   0  0  0  0  0  0  0  0  0  0  0  0
  -23.9806   -9.6668   20.2184 C   0  0  0  0  0  0  0  0  0  0  0  0
  -25.3445  -10.3278   22.0998 C   0  0  0  0  0  0  0  0  0  0  0  0
  -27.9587  -29.1279   20.2587 C   0  0  0  0  0  0  0  0  0  0  0  0
  -22.5935   -7.6149   22.5203 C   0  0  0  0  0  0  0  0  0  0  0  0
  -21.4353   -6.8377   22.5135 C   0  0  0  0  0  0  0  0  0  0  0  0
  -26.2698  -27.4061   20.2115 C   0  0  0  0  0  0  0  0  0  0  0  0
  -22.4494   -5.3402   20.9116 C   0  0  0  0  0  0  0  0  0  0  0  0
  -24.4931  -12.0002   20.5782 C   0  0  0  0  0  0  0  0  0  0  0  0
  -23.3870  -14.2989   20.5735 C   0  0  0  0  0  0  0  0  0  0  0  0
  -30.6928  -20.7111   21.5568 C   0  0  0  0  0  0  0  0  0  0  0  0
  -24.7081  -32.9420   26.3686 C   0  0  0  0  0  0  0  0  0  0  0  0
  -25.6304  -29.7012   20.6398 C   0  0  0  0  0  0  0  0  0  0  0  0
  -25.0700  -31.7869   25.6495 C   0  0  0  0  0  0  0  0  0  0  0  0
  -25.2706  -28.3564   20.4716 C   0  0  0  0  0  0  0  0  0  0  0  0
  -29.7009  -18.6357   19.9785 C   0  0  0  0  0  0  0  0  0  0  0  0
  -24.7190   -9.3297   21.3527 C   0  0  0  0  0  0  0  0  0  0  0  0
  -27.6065  -27.7899   20.1074 C   0  0  0  0  0  0  0  0  0  0  0  0
  -23.6797   -7.2547   21.7226 C   0  0  0  0  0  0  0  0  0  0  0  0
  -21.3632   -5.7004   21.7092 C   0  0  0  0  0  0  0  0  0  0  0  0
  -23.6076   -6.1174   20.9183 C   0  0  0  0  0  0  0  0  0  0  0  0
  -24.3773  -13.3796   20.1784 C   0  0  0  0  0  0  0  0  0  0  0  0
  -23.7201  -15.4625   19.9242 C   0  0  0  0  0  0  0  0  0  0  0  0
  -28.7229  -25.8370   20.7479 C   0  0  0  0  0  0  0  0  0  1  0  0
  -22.2664  -14.1173   21.4491 C   0  0  0  0  0  0  0  0  0  0  0  0
  -29.6295  -24.8679   20.6016 C   0  0  0  0  0  0  0  0  0  0  0  0
  -29.6985  -23.8227   21.6388 C   0  0  0  0  0  0  0  0  0  0  0  0
  -23.4627  -29.8266   22.9612 C   0  0  0  0  0  0  0  0  0  0  0  0
  -21.4718  -28.7719   20.6276 C   0  0  0  0  0  0  0  0  0  0  0  0
  -21.1025  -27.1407   17.6527 C   0  0  0  0  0  0  0  0  0  0  0  0
  -28.8753  -17.6315   17.8206 C   0  0  0  0  0  0  0  0  0  0  0  0
  -23.2824  -33.2022   26.7862 C   0  0  0  0  0  0  0  0  0  0  0  0
  -24.5780  -30.7450   20.8951 C   0  0  0  0  0  0  0  0  0  0  0  0
  -23.8387  -27.9002   20.5709 C   0  0  0  0  0  0  0  0  0  0  0  0
  -22.2599  -32.3770   26.0093 C   0  0  0  0  0  0  0  0  0  0  0  0
  -25.8937  -17.0505   15.9633 C   0  0  0  0  0  0  0  0  0  0  0  0
  -33.2249  -23.2579   22.4421 C   0  0  0  0  0  0  0  0  0  0  0  0
  -22.7006  -30.9188   25.9291 C   0  0  0  0  0  0  0  0  0  0  0  0
  -25.0737  -16.1317   16.8720 C   0  0  0  0  0  0  0  0  0  0  0  0
  -32.7927  -21.8018   22.3470 C   0  0  0  0  0  0  0  0  0  0  0  0
  -32.1440  -23.9843   21.6684 C   0  0  0  0  0  0  0  0  0  0  0  0
  -27.3873  -16.7395   16.0415 C   0  0  0  0  0  0  0  0  0  0  0  0
  -27.1285  -15.8074   18.3072 C   0  0  0  0  0  0  0  0  0  0  0  0
  -24.0346  -30.7859   25.1846 C   0  0  1  0  0  0  0  0  0  0  0  0
  -23.3038  -30.1716   21.5075 C   0  0  1  0  0  0  0  0  0  0  0  0
  -25.6244  -16.1255   18.3116 C   0  0  2  0  0  0  0  0  0  0  0  0
  -31.2378  -21.8516   22.4243 C   0  0  2  0  0  0  0  0  0  0  0  0
  -30.8280  -21.7961   23.9149 C   0  0  0  0  0  0  0  0  0  0  0  0
  -19.3501  -26.4022   16.0153 C   0  0  0  0  0  0  0  0  0  0  0  0
  -20.6806  -26.4989   22.5031 C   0  0  0  0  0  0  0  0  0  0  0  0
  -19.7027  -25.3055   20.5314 C   0  0  0  0  0  0  0  0  0  0  0  0
  -18.7796  -27.5138   21.2340 C   0  0  0  0  0  0  0  0  0  0  0  0
  -22.2732  -28.7789   15.4838 C   0  0  0  0  0  0  0  0  0  0  0  0
  -21.0459  -27.4164   20.1175 C   0  0  1  0  0  0  0  0  0  0  0  0
  -20.3310  -27.5003   16.3958 C   0  0  2  0  0  0  0  0  0  0  0  0
  -20.0795  -26.6916   21.0965 C   0  0  0  0  0  0  0  0  0  0  0  0
  -25.2723  -13.9132   19.3427 N   0  0  0  0  0  0  0  0  0  0  0  0
  -24.8456  -15.1803   19.2073 N   0  0  0  0  0  0  0  0  0  0  0  0
  -30.9218  -23.2161   21.8881 N   0  0  0  0  0  0  0  0  0  0  0  0
  -22.8470  -28.9575   20.8280 N   0  0  0  0  0  0  0  0  0  0  0  0
  -27.8390  -16.7553   17.4346 N   0  0  0  0  0  0  0  0  0  0  0  0
  -23.1571  -16.6893   19.9022 N   0  0  0  0  0  0  0  0  0  0  0  0
  -22.0713  -12.8578   22.0322 N   0  0  0  0  0  0  0  0  0  0  0  0
  -29.1974  -17.5816   19.1765 N   0  0  0  0  0  0  0  0  0  0  0  0
  -23.8294  -30.8957   23.7563 N   0  0  0  0  0  0  0  0  0  0  0  0
  -20.4928  -27.6367   18.7856 N   0  0  0  0  0  0  0  0  0  0  0  0
  -21.2674  -27.7097   15.2554 N   0  3  0  0  0  0  0  0  0  0  0  0
  -21.4525  -15.0399   21.6940 O   0  0  0  0  0  0  0  0  0  0  0  0
  -28.6574  -23.5448   22.2383 O   0  0  0  0  0  0  0  0  0  0  0  0
  -23.2657  -28.6761   23.3343 O   0  0  0  0  0  0  0  0  0  0  0  0
  -20.6165  -29.6366   20.8335 O   0  0  0  0  0  0  0  0  0  0  0  0
  -22.1400  -26.4822   17.6320 O   0  0  0  0  0  0  0  0  0  0  0  0
  -29.4171  -18.3913   17.0136 O   0  0  0  0  0  0  0  0  0  0  0  0
  -30.4883  -24.8132   19.5296 O   0  0  0  0  0  0  0  0  0  0  0  0
  -24.8292   -8.0269   21.7310 O   0  0  0  0  0  0  0  0  0  0  0  0
  -28.5648  -26.8577   19.8531 O   0  0  0  0  0  0  0  0  0  1  0  0
  -20.2514   -4.9533   21.7040 F   0  0  0  0  0  0  0  0  0  0  0  0
  -24.6483   -5.7657   20.1508 F   0  0  0  0  0  0  0  0  0  0  0  0
  1  2  1  0  0  0  0
  1  5  2  0  0  0  0
  2  6  2  0  0  0  0
  3 12  2  0  0  0  0
  3 19  1  0  0  0  0
  4 13  1  0  0  0  0
  4 19  2  0  0  0  0
  5 22  1  0  0  0  0
  6 24  1  0  0  0  0
  7 10  2  0  0  0  0
  7 21  1  0  0  0  0
  8 11  1  0  0  0  0
  8 21  2  0  0  0  0
  9 14  2  0  0  0  0
  9 23  1  0  0  0  0
 10 26  1  0  0  0  0
 11 26  2  0  0  0  0
 12 27  1  0  0  0  0
 13 27  2  0  0  0  0
 14 28  1  0  0  0  0
 15 16  2  0  0  0  0
 15 29  1  0  0  0  0
 16 30  1  0  0  0  0
 17 25  1  0  0  0  0
 17 28  2  0  0  0  0
 18 30  2  0  0  0  0
 18 31  1  0  0  0  0
 19 32  1  0  0  0  0
 20 32  1  0  0  0  0
 20 33  2  0  0  0  0
 20 35  1  0  0  0  0
 21 57  1  0  0  0  0
 22 24  2  0  0  0  0
 22 42  1  0  0  0  0
 23 25  2  0  0  0  0
 23 43  1  0  0  0  0
 24 54  1  0  0  0  0
 25 44  1  0  0  0  0
 26 74  1  0  0  0  0
 27 85  1  0  0  0  0
 28 86  1  0  0  0  0
 29 31  2  0  0  0  0
 29 85  1  0  0  0  0
 30 87  1  0  0  0  0
 31 88  1  0  0  0  0
 32 67  2  0  0  0  0
 33 68  1  0  0  0  0
 33 72  1  0  0  0  0
 34 36  2  0  0  0  0
 34 86  1  0  0  0  0
 35 73  1  0  0  0  0
 35 78  2  0  0  0  0
 36 37  1  0  0  0  0
 36 84  1  0  0  0  0
 37 69  1  0  0  0  0
 37 79  2  0  0  0  0
 38 55  1  0  0  0  0
 38 75  1  0  0  0  0
 38 80  2  0  0  0  0
 39 64  1  0  0  0  0
 39 70  1  0  0  0  0
 39 81  2  0  0  0  0
 40 65  1  0  0  0  0
 40 76  1  0  0  0  0
 40 82  2  0  0  0  0
 41 71  1  0  0  0  0
 41 74  1  0  0  0  0
 41 83  2  0  0  0  0
 42 45  1  0  0  0  0
 43 55  1  0  0  0  0
 44 70  1  0  0  0  0
 45 48  1  0  0  0  0
 46 49  1  0  0  0  0
 46 52  1  0  0  0  0
 47 50  1  0  0  0  0
 47 51  1  0  0  0  0
 48 54  1  0  0  0  0
 49 56  1  0  0  0  0
 50 57  1  0  0  0  0
 51 69  1  0  0  0  0
 52 71  1  0  0  0  0
 53 56  1  0  0  0  0
 53 71  1  0  0  0  0
 54 75  1  0  0  0  0
 55 70  1  0  0  0  0
 56 68  1  0  0  0  0
 57 58  1  0  0  0  0
 57 69  1  0  0  0  0
 59 65  1  0  0  0  0
 60 66  1  0  0  0  0
 61 66  1  0  0  0  0
 62 66  1  0  0  0  0
 63 77  1  0  0  0  0
 64 66  1  0  0  0  0
 64 76  1  0  0  0  0
 65 77  1  0  0  0  0
 67 68  1  0  0  0  0
M  CHG  1  77   1
M  ISO  4  34 101  41 100  74 100  86 101
M  END
> <Batch ID>
0077

> <Smiles>
CNC(C)C(=O)NC(C(=O)N1Cc2cc([101O:1][101CH2:1]C(=O)C(=O)N3CCCC3(C)c3ccc([100NH:0][100C:0](=O)N4CCCC(n5nc(-c6ccc(Oc7ccc(F)cc7F)cc6)c(C(N)=O)c5N)C4)cc3)ccc2CC1C(=O)NC1CCCc2ccccc21)C(C)(C)C

> <Shape>
0.283

> <Color>
0.076

> <Negative vol penalty>
0.000

$$$$

  -OEChem-04042323533D

 86 95  0     1  0  0  0  0  0999 V2000
  -28.3104  -26.3261   14.1882 C   0  0  0  0  0  0  0  0  0  0  0  0
  -27.0496  -26.8777   14.3922 C   0  0  0  0  0  0  0  0  0  0  0  0
  -21.2073  -23.2483   23.6860 C   0  0  0  0  0  0  0  0  0  0  0  0
  -26.7335  -14.2896   21.1943 C   0  0  0  0  0  0  0  0  0  0  0  0
  -24.4612  -14.5527   20.4169 C   0  0  0  0  0  0  0  0  0  0  0  0
  -28.9797  -25.7100   15.2447 C   0  0  0  0  0  0  0  0  0  0  0  0
  -26.4570  -26.8126   15.6527 C   0  0  0  0  0  0  0  0  0  0  0  0
  -22.0978  -30.5104   19.9701 C   0  0  0  0  0  0  0  0  0  0  0  0
  -21.7403  -22.7372   22.5027 C   0  0  0  0  0  0  0  0  0  0  0  0
  -20.5975  -24.5028   23.6917 C   0  0  0  0  0  0  0  0  0  0  0  0
  -26.3685  -13.1234   21.8668 C   0  0  0  0  0  0  0  0  0  0  0  0
  -24.0961  -13.3865   21.0894 C   0  0  0  0  0  0  0  0  0  0  0  0
  -20.9323  -30.3497   20.7181 C   0  0  0  0  0  0  0  0  0  0  0  0
  -22.6442  -10.2827   22.3047 C   0  0  0  0  0  0  0  0  0  0  0  0
  -21.8412   -9.3661   21.6259 C   0  0  0  0  0  0  0  0  0  0  0  0
  -22.2160  -29.3309   22.4882 C   0  0  0  0  0  0  0  0  0  0  0  0
  -21.0540  -24.7353   21.3306 C   0  0  0  0  0  0  0  0  0  0  0  0
  -23.5437   -9.1323   19.9277 C   0  0  0  0  0  0  0  0  0  0  0  0
  -25.7799  -15.0043   20.4693 C   0  0  0  0  0  0  0  0  0  0  0  0
  -26.6216  -16.3173   18.4506 C   0  0  0  0  0  0  0  0  0  0  0  0
  -28.3991  -25.6458   16.5212 C   0  0  0  0  0  0  0  0  0  0  0  0
  -23.3317  -30.0720   20.4718 C   0  0  0  0  0  0  0  0  0  0  0  0
  -27.1186  -26.1939   16.7270 C   0  0  0  0  0  0  0  0  0  0  0  0
  -23.3961  -29.4896   21.7457 C   0  0  0  0  0  0  0  0  0  0  0  0
  -21.6637  -23.4807   21.3250 C   0  0  0  0  0  0  0  0  0  0  0  0
  -20.5209  -25.2463   22.5140 C   0  0  0  0  0  0  0  0  0  0  0  0
  -25.0498  -12.6718   21.8144 C   0  0  0  0  0  0  0  0  0  0  0  0
  -20.9908  -29.7572   21.9761 C   0  0  0  0  0  0  0  0  0  0  0  0
  -23.8969  -10.6242   21.7949 C   0  0  0  0  0  0  0  0  0  0  0  0
  -22.2910   -8.7909   20.4375 C   0  0  0  0  0  0  0  0  0  0  0  0
  -24.3467  -10.0490   20.6064 C   0  0  0  0  0  0  0  0  0  0  0  0
  -26.1563  -16.2093   19.7748 C   0  0  0  0  0  0  0  0  0  0  0  0
  -26.8378  -17.6617   18.2711 C   0  0  0  0  0  0  0  0  0  0  0  0
  -19.7098  -27.4008   21.5410 C   0  0  0  0  0  0  0  0  0  0  0  0
  -26.8389  -15.2938   17.4703 C   0  0  0  0  0  0  0  0  0  0  0  0
  -25.4916  -27.9275   19.5555 C   0  0  0  0  0  0  0  0  0  0  0  0
  -27.1973  -29.1679   22.0200 C   0  0  0  0  0  0  0  0  0  0  0  0
  -27.1918  -30.8315   24.9998 C   0  0  0  0  0  0  0  0  0  0  0  0
  -24.5457  -22.5430   20.8731 C   0  0  0  0  0  0  0  0  0  0  0  0
  -29.1409  -24.9280   17.6208 C   0  0  0  0  0  0  0  0  0  0  0  0
  -24.5837  -30.2770   19.6638 C   0  0  0  0  0  0  0  0  0  0  0  0
  -24.6989  -29.0204   22.3382 C   0  0  0  0  0  0  0  0  0  0  0  0
  -28.6036  -25.2317   19.0170 C   0  0  0  0  0  0  0  0  0  0  0  0
  -27.9814  -21.6264   20.6928 C   0  0  0  0  0  0  0  0  0  0  0  0
  -27.0812  -25.1374   19.0353 C   0  0  0  0  0  0  0  0  0  0  0  0
  -27.9452  -20.1439   20.3176 C   0  0  0  0  0  0  0  0  0  0  0  0
  -26.8389  -21.9980   21.6354 C   0  0  0  0  0  0  0  0  0  0  0  0
  -25.4584  -20.1441   20.7804 C   0  0  0  0  0  0  0  0  0  0  0  0
  -19.3698  -27.2745   23.6131 C   0  0  0  0  0  0  0  0  0  0  0  0
  -26.4533  -26.1650   18.0859 C   0  0  1  0  0  0  0  0  0  0  0  0
  -25.7107  -29.3269   20.0568 C   0  0  1  0  0  0  0  0  0  0  0  0
  -26.5585  -19.7335   19.7868 C   0  0  2  0  0  0  0  0  0  0  0  0
  -19.0843  -28.3825   22.5627 C   0  0  2  0  0  0  0  0  0  1  0  0
  -17.6227  -28.7122   22.3163 C   0  0  0  0  0  0  0  0  0  0  0  0
  -28.7364  -31.6651   26.7934 C   0  0  0  0  0  0  0  0  0  0  0  0
  -22.7643  -23.9904   19.0451 C   0  0  0  0  0  0  0  0  0  0  0  0
  -21.1680  -22.0945   19.2994 C   0  0  0  0  0  0  0  0  0  0  0  0
  -27.4992  -26.3224   23.0791 C   0  0  0  0  0  0  0  0  0  0  0  0
  -28.1880  -27.2902   25.2830 C   0  0  0  0  0  0  0  0  0  0  0  0
  -29.5643  -27.7229   23.2480 C   0  0  0  0  0  0  0  0  0  0  0  0
  -26.3821  -33.6427   24.5523 C   0  0  0  0  0  0  0  0  0  0  0  0
  -27.3219  -28.8646   23.4936 C   0  0  1  0  0  0  0  0  0  0  0  0
  -28.0139  -32.0059   25.4993 C   0  0  2  0  0  0  0  0  0  0  0  0
  -22.2337  -22.9339   20.0602 C   0  0  0  0  0  0  0  0  0  0  0  0
  -28.1184  -27.5570   23.7643 C   0  0  0  0  0  0  0  0  0  0  0  0
  -26.0812  -17.3910   20.3929 N   0  0  0  0  0  0  0  0  0  0  0  0
  -26.5022  -18.2542   19.4529 N   0  0  0  0  0  0  0  0  0  0  0  0
  -19.9192  -26.4828   22.5198 N   0  0  0  0  0  0  0  0  0  0  0  0
  -25.8944  -29.2371   21.5068 N   0  0  0  0  0  0  0  0  0  0  0  0
  -25.5516  -21.5831   21.0726 N   0  0  0  0  0  0  0  0  0  0  0  0
  -27.2804  -18.3830   17.2194 N   0  0  0  0  0  0  0  0  0  0  0  0
  -26.5660  -13.9644   17.8206 N   0  0  0  0  0  0  0  0  0  0  0  0
  -26.4683  -27.4822   18.6854 N   0  0  0  0  0  0  0  0  0  0  0  0
  -27.9005  -30.0547   24.1079 N   0  0  0  0  0  0  0  0  0  0  0  0
  -23.3589  -22.0667   20.3297 N   0  0  0  0  0  0  0  0  0  0  0  0
  -27.1360  -33.1844   25.7475 N   0  3  0  0  0  0  0  0  0  0  0  0
  -19.9456  -27.4097   20.3542 O   0  0  0  0  0  0  0  0  0  0  0  0
  -27.2782  -15.5486   16.3233 O   0  0  0  0  0  0  0  0  0  0  0  0
  -24.5098  -27.2978   19.9314 O   0  0  0  0  0  0  0  0  0  0  0  0
  -28.2183  -29.3442   21.3505 O   0  0  0  0  0  0  0  0  0  0  0  0
  -26.0378  -30.6220   25.3672 O   0  0  0  0  0  0  0  0  0  0  0  0
  -24.6963  -23.7371   21.1532 O   0  0  0  0  0  0  0  0  0  0  0  0
  -24.6932  -11.5338   22.4703 O   0  0  0  0  0  0  0  0  0  0  0  0
  -19.8546  -29.5985   22.7080 O   0  0  0  0  0  0  0  0  0  1  0  0
  -21.5205   -7.9095   19.7866 F   0  0  0  0  0  0  0  0  0  0  0  0
  -25.5497  -10.3722   20.1124 F   0  0  0  0  0  0  0  0  0  0  0  0
  1  2  1  0  0  0  0
  1  6  2  0  0  0  0
  2  7  2  0  0  0  0
  3  9  1  0  0  0  0
  3 10  2  0  0  0  0
  4 11  2  0  0  0  0
  4 19  1  0  0  0  0
  5 12  1  0  0  0  0
  5 19  2  0  0  0  0
  6 21  1  0  0  0  0
  7 23  1  0  0  0  0
  8 13  2  0  0  0  0
  8 22  1  0  0  0  0
  9 25  2  0  0  0  0
 10 26  1  0  0  0  0
 11 27  1  0  0  0  0
 12 27  2  0  0  0  0
 13 28  1  0  0  0  0
 14 15  2  0  0  0  0
 14 29  1  0  0  0  0
 15 30  1  0  0  0  0
 16 24  1  0  0  0  0
 16 28  2  0  0  0  0
 17 25  1  0  0  0  0
 17 26  2  0  0  0  0
 18 30  2  0  0  0  0
 18 31  1  0  0  0  0
 19 32  1  0  0  0  0
 20 32  1  0  0  0  0
 20 33  2  0  0  0  0
 20 35  1  0  0  0  0
 21 23  2  0  0  0  0
 21 40  1  0  0  0  0
 22 24  2  0  0  0  0
 22 41  1  0  0  0  0
 23 50  1  0  0  0  0
 24 42  1  0  0  0  0
 25 64  1  0  0  0  0
 26 68  1  0  0  0  0
 27 83  1  0  0  0  0
 28 84  1  0  0  0  0
 29 31  2  0  0  0  0
 29 83  1  0  0  0  0
 30 85  1  0  0  0  0
 31 86  1  0  0  0  0
 32 66  2  0  0  0  0
 33 67  1  0  0  0  0
 33 71  1  0  0  0  0
 34 53  1  0  0  0  0
 34 68  1  0  0  0  0
 34 77  2  0  0  0  0
 35 72  1  0  0  0  0
 35 78  2  0  0  0  0
 36 51  1  0  0  0  0
 36 73  1  0  0  0  0
 36 79  2  0  0  0  0
 37 62  1  0  0  0  0
 37 69  1  0  0  0  0
 37 80  2  0  0  0  0
 38 63  1  0  0  0  0
 38 74  1  0  0  0  0
 38 81  2  0  0  0  0
 39 70  1  0  0  0  0
 39 75  1  0  0  0  0
 39 82  2  0  0  0  0
 40 43  1  0  0  0  0
 41 51  1  0  0  0  0
 42 69  1  0  0  0  0
 43 45  1  0  0  0  0
 44 46  1  0  0  0  0
 44 47  1  0  0  0  0
 45 50  1  0  0  0  0
 46 52  1  0  0  0  0
 47 70  1  0  0  0  0
 48 52  1  0  0  0  0
 48 70  1  0  0  0  0
 49 53  1  0  0  0  0
 49 68  1  0  0  0  0
 50 73  1  0  0  0  0
 51 69  1  0  0  0  0
 52 67  1  0  0  0  0
 53 54  1  0  0  0  0
 53 84  1  0  0  0  0
 55 63  1  0  0  0  0
 56 64  1  0  0  0  0
 57 64  1  0  0  0  0
 58 65  1  0  0  0  0
 59 65  1  0  0  0  0
 60 65  1  0  0  0  0
 61 76  1  0  0  0  0
 62 65  1  0  0  0  0
 62 74  1  0  0  0  0
 63 76  1  0  0  0  0
 64 75  1  0  0  0  0
 66 67  1  0  0  0  0
M  CHG  1  76   1
M  ISO  4  39 100  53 101  75 100  84 101
M  END
> <Batch ID>
0077

> <Smiles>
CNC(C)C(=O)NC(C(=O)N1Cc2cc([101O:1][101C:1]3(C)CN(c4cccc(C(C)(C)[100NH:0][100C:0](=O)N5CCCC(n6nc(-c7ccc(Oc8ccc(F)cc8F)cc7)c(C(N)=O)c6N)C5)c4)C3=O)ccc2CC1C(=O)NC1CCCc2ccccc21)C(C)(C)C

> <Shape>
0.261

> <Color>
0.048

> <Negative vol penalty>
0.000

$$$$

  -OEChem-04042323533D

 90 98  0     1  0  0  0  0  0999 V2000
  -17.4063  -10.9955   23.0401 C   0  0  0  0  0  0  0  0  0  0  0  0
  -17.7588  -12.3182   22.7919 C   0  0  0  0  0  0  0  0  0  0  0  0
  -19.6827  -25.4681   24.8109 C   0  0  0  0  0  0  0  0  0  0  0  0
  -30.1857  -24.2698   20.2679 C   0  0  0  0  0  0  0  0  0  0  0  0
  -28.1903  -24.0419   18.9250 C   0  0  0  0  0  0  0  0  0  0  0  0
  -19.6604  -26.7934   24.3766 C   0  0  0  0  0  0  0  0  0  0  0  0
  -18.3740  -10.0850   23.4626 C   0  0  0  0  0  0  0  0  0  0  0  0
  -19.0790  -12.7314   22.9671 C   0  0  0  0  0  0  0  0  0  0  0  0
  -22.0954  -16.9171   19.6675 C   0  0  0  0  0  0  0  0  0  0  0  0
  -20.4896  -24.5345   24.1606 C   0  0  0  0  0  0  0  0  0  0  0  0
  -30.2599  -22.8825   20.3931 C   0  0  0  0  0  0  0  0  0  0  0  0
  -28.2645  -22.6546   19.0501 C   0  0  0  0  0  0  0  0  0  0  0  0
  -22.3694  -18.2661   19.8884 C   0  0  0  0  0  0  0  0  0  0  0  0
  -30.0233  -20.1213   17.6685 C   0  0  0  0  0  0  0  0  0  0  0  0
  -29.8273  -19.3569   16.5183 C   0  0  0  0  0  0  0  0  0  0  0  0
  -21.2519  -26.2515   22.6415 C   0  0  0  0  0  0  0  0  0  0  0  0
  -24.5319  -17.6748   20.7790 C   0  0  0  0  0  0  0  0  0  0  0  0
  -27.9369  -18.2724   17.5611 C   0  0  0  0  0  0  0  0  0  0  0  0
  -29.1509  -24.8495   19.5339 C   0  0  0  0  0  0  0  0  0  0  0  0
  -20.4450  -27.1851   23.2919 C   0  0  0  0  0  0  0  0  0  0  0  0
  -29.6576  -27.0783   18.4012 C   0  0  0  0  0  0  0  0  0  0  0  0
  -19.7086  -10.4850   23.6339 C   0  0  0  0  0  0  0  0  0  0  0  0
  -23.0348  -15.9343   20.0114 C   0  0  0  0  0  0  0  0  0  0  0  0
  -20.0651  -11.8257   23.3937 C   0  0  0  0  0  0  0  0  0  0  0  0
  -24.2684  -16.3142   20.5591 C   0  0  0  0  0  0  0  0  0  0  0  0
  -21.2742  -24.9262   23.0758 C   0  0  0  0  0  0  0  0  0  0  0  0
  -29.2993  -22.0750   19.7842 C   0  0  0  0  0  0  0  0  0  0  0  0
  -23.5867  -18.6449   20.4468 C   0  0  0  0  0  0  0  0  0  0  0  0
  -29.1761  -19.9611   18.7650 C   0  0  0  0  0  0  0  0  0  0  0  0
  -28.7841  -18.4325   16.4645 C   0  0  0  0  0  0  0  0  0  0  0  0
  -28.1330  -19.0367   18.7113 C   0  0  0  0  0  0  0  0  0  0  0  0
  -29.0734  -26.2824   19.4047 C   0  0  0  0  0  0  0  0  0  0  0  0
  -29.2921  -28.3621   18.7250 C   0  0  0  0  0  0  0  0  0  0  0  0
  -23.0284  -20.6583   21.4981 C   0  0  0  0  0  0  0  0  0  1  0  0
  -20.4208  -28.5671   22.8402 C   0  0  0  0  0  0  0  0  0  0  0  0
  -30.4590  -26.6918   17.2769 C   0  0  0  0  0  0  0  0  0  0  0  0
  -23.1995  -21.9551   21.7823 C   0  0  0  0  0  0  0  0  0  0  0  0
  -22.2351  -22.6296   22.7115 C   0  0  0  0  0  0  0  0  0  0  0  0
  -23.0749  -13.4775   22.0278 C   0  0  0  0  0  0  0  0  0  0  0  0
  -25.9344  -12.8719   20.6209 C   0  0  0  0  0  0  0  0  0  0  0  0
  -28.6245  -14.0669   18.8940 C   0  0  0  0  0  0  0  0  0  0  0  0
  -24.7039  -30.6356   21.8282 C   0  0  0  0  0  0  0  0  0  0  0  0
  -20.7099   -9.4759   24.1377 C   0  0  0  0  0  0  0  0  0  0  0  0
  -22.7347  -14.4853   19.7420 C   0  0  0  0  0  0  0  0  0  0  0  0
  -25.3189  -15.2994   20.9270 C   0  0  0  0  0  0  0  0  0  0  0  0
  -22.1610   -9.9061   23.9387 C   0  0  0  0  0  0  0  0  0  0  0  0
  -28.1722  -31.1013   22.4844 C   0  0  0  0  0  0  0  0  0  0  0  0
  -22.3548  -11.3523   24.3831 C   0  0  0  0  0  0  0  0  0  0  0  0
  -28.8492  -29.9909   21.6790 C   0  0  0  0  0  0  0  0  0  0  0  0
  -26.8432  -30.6385   23.0772 C   0  0  0  0  0  0  0  0  0  0  0  0
  -26.5729  -28.9560   21.2968 C   0  0  0  0  0  0  0  0  0  0  0  0
  -21.4917  -12.3063   23.5485 C   0  0  1  0  0  0  0  0  0  0  0  0
  -23.5573  -13.5342   20.6059 C   0  0  1  0  0  0  0  0  0  0  0  0
  -27.8899  -29.3926   20.6326 C   0  0  2  0  0  0  0  0  0  0  0  0
  -30.7863  -14.0103   17.6210 C   0  0  0  0  0  0  0  0  0  0  0  0
  -27.1592  -12.8311   23.4152 C   0  0  0  0  0  0  0  0  0  0  0  0
  -29.4153  -13.0581   22.3539 C   0  0  0  0  0  0  0  0  0  0  0  0
  -28.0106  -11.0526   21.8770 C   0  0  0  0  0  0  0  0  0  0  0  0
  -22.7051  -31.9920   20.0583 C   0  0  0  0  0  0  0  0  0  0  0  0
  -22.0808  -29.6932   19.3033 C   0  0  0  0  0  0  0  0  0  0  0  0
  -27.2304  -13.6460   16.3175 C   0  0  0  0  0  0  0  0  0  0  0  0
  -21.7064  -30.4003   21.7123 C   0  0  0  0  0  0  0  0  0  0  0  0
  -27.3629  -13.2846   20.8817 C   0  0  1  0  0  0  0  0  0  0  0  0
  -29.3368  -13.5515   17.6565 C   0  0  2  0  0  0  0  0  0  0  0  0
  -27.9666  -12.5758   22.1269 C   0  0  0  0  0  0  0  0  0  0  0  0
  -22.6236  -30.5170   20.4802 C   0  0  0  0  0  0  0  0  0  0  0  0
  -28.3889  -27.0005   20.2991 N   0  0  0  0  0  0  0  0  0  0  0  0
  -28.5408  -28.2611   19.8587 N   0  0  0  0  0  0  0  0  0  0  0  0
  -24.9758  -13.8947   20.6502 N   0  0  0  0  0  0  0  0  0  0  0  0
  -25.9791  -30.0833   22.0327 N   0  0  0  0  0  0  0  0  0  0  0  0
  -29.5435  -29.5562   18.1477 N   0  0  0  0  0  0  0  0  0  0  0  0
  -30.7393  -25.3310   17.0926 N   0  0  0  0  0  0  0  0  0  0  0  0
  -22.0934  -23.9785   22.4161 N   0  0  0  0  0  0  0  0  0  0  0  0
  -21.5682  -29.0457   22.1967 N   0  0  0  0  0  0  0  0  0  0  0  0
  -22.0945  -12.5298   22.2519 N   0  0  0  0  0  0  0  0  0  0  0  0
  -28.0917  -13.0384   19.6421 N   0  0  0  0  0  0  0  0  0  0  0  0
  -23.9522  -30.0546   20.8143 N   0  0  0  0  0  0  0  0  0  0  0  0
  -28.6576  -14.0443   16.4249 N   0  3  0  0  0  0  0  0  0  0  0  0
  -19.4230  -29.2811   23.0451 O   0  0  0  0  0  0  0  0  0  0  0  0
  -30.9267  -27.5298   16.4692 O   0  0  0  0  0  0  0  0  0  0  0  0
  -21.6752  -22.0011   23.6033 O   0  0  0  0  0  0  0  0  0  0  0  0
  -23.5577  -14.2362   22.8602 O   0  0  0  0  0  0  0  0  0  0  0  0
  -25.6794  -11.6868   20.3924 O   0  0  0  0  0  0  0  0  0  0  0  0
  -28.5514  -15.2619   19.1714 O   0  0  0  0  0  0  0  0  0  0  0  0
  -24.2696  -31.5803   22.4960 O   0  0  0  0  0  0  0  0  0  0  0  0
  -24.2335  -22.7006   21.2535 O   0  0  0  0  0  0  0  0  0  0  0  0
  -29.3715  -20.7213   19.9059 O   0  0  0  0  0  0  0  0  0  0  0  0
  -23.8565  -19.9610   20.6641 O   0  0  0  0  0  0  0  0  0  1  0  0
  -28.5951  -17.6997   15.3594 F   0  0  0  0  0  0  0  0  0  0  0  0
  -27.3151  -18.8793   19.7612 F   0  0  0  0  0  0  0  0  0  0  0  0
  1  2  1  0  0  0  0
  1  7  2  0  0  0  0
  2  8  2  0  0  0  0
  3  6  1  0  0  0  0
  3 10  2  0  0  0  0
  4 11  2  0  0  0  0
  4 19  1  0  0  0  0
  5 12  1  0  0  0  0
  5 19  2  0  0  0  0
  6 20  2  0  0  0  0
  7 22  1  0  0  0  0
  8 24  1  0  0  0  0
  9 13  2  0  0  0  0
  9 23  1  0  0  0  0
 10 26  1  0  0  0  0
 11 27  1  0  0  0  0
 12 27  2  0  0  0  0
 13 28  1  0  0  0  0
 14 15  2  0  0  0  0
 14 29  1  0  0  0  0
 15 30  1  0  0  0  0
 16 20  1  0  0  0  0
 16 26  2  0  0  0  0
 17 25  1  0  0  0  0
 17 28  2  0  0  0  0
 18 30  2  0  0  0  0
 18 31  1  0  0  0  0
 19 32  1  0  0  0  0
 20 35  1  0  0  0  0
 21 32  1  0  0  0  0
 21 33  2  0  0  0  0
 21 36  1  0  0  0  0
 22 24  2  0  0  0  0
 22 43  1  0  0  0  0
 23 25  2  0  0  0  0
 23 44  1  0  0  0  0
 24 52  1  0  0  0  0
 25 45  1  0  0  0  0
 26 73  1  0  0  0  0
 27 87  1  0  0  0  0
 28 88  1  0  0  0  0
 29 31  2  0  0  0  0
 29 87  1  0  0  0  0
 30 89  1  0  0  0  0
 31 90  1  0  0  0  0
 32 67  2  0  0  0  0
 33 68  1  0  0  0  0
 33 71  1  0  0  0  0
 34 37  2  0  0  0  0
 34 88  1  0  0  0  0
 35 74  1  0  0  0  0
 35 79  2  0  0  0  0
 36 72  1  0  0  0  0
 36 80  2  0  0  0  0
 37 38  1  0  0  0  0
 37 86  1  0  0  0  0
 38 73  1  0  0  0  0
 38 81  2  0  0  0  0
 39 53  1  0  0  0  0
 39 75  1  0  0  0  0
 39 82  2  0  0  0  0
 40 63  1  0  0  0  0
 40 69  1  0  0  0  0
 40 83  2  0  0  0  0
 41 64  1  0  0  0  0
 41 76  1  0  0  0  0
 41 84  2  0  0  0  0
 42 70  1  0  0  0  0
 42 77  1  0  0  0  0
 42 85  2  0  0  0  0
 43 46  1  0  0  0  0
 44 53  1  0  0  0  0
 45 69  1  0  0  0  0
 46 48  1  0  0  0  0
 47 49  1  0  0  0  0
 47 50  1  0  0  0  0
 48 52  1  0  0  0  0
 49 54  1  0  0  0  0
 50 70  1  0  0  0  0
 51 54  1  0  0  0  0
 51 70  1  0  0  0  0
 52 75  1  0  0  0  0
 53 69  1  0  0  0  0
 54 68  1  0  0  0  0
 55 64  1  0  0  0  0
 56 65  1  0  0  0  0
 57 65  1  0  0  0  0
 58 65  1  0  0  0  0
 59 66  1  0  0  0  0
 60 66  1  0  0  0  0
 61 78  1  0  0  0  0
 62 66  1  0  0  0  0
 62 74  1  0  0  0  0
 63 65  1  0  0  0  0
 63 76  1  0  0  0  0
 64 78  1  0  0  0  0
 66 77  1  0  0  0  0
 67 68  1  0  0  0  0
M  CHG  1  78   1
M  ISO  4  34 101  42 100  77 100  88 101
M  END
> <Batch ID>
0077

> <Smiles>
CNC(C)C(=O)NC(C(=O)N1Cc2cc([101O:1][101CH2:1]C(=O)C(=O)Nc3cccc(C(=O)NCC(C)(C)[100NH:0][100C:0](=O)N4CCCC(n5nc(-c6ccc(Oc7ccc(F)cc7F)cc6)c(C(N)=O)c5N)C4)c3)ccc2CC1C(=O)NC1CCCc2ccccc21)C(C)(C)C

> <Shape>
0.263

> <Color>
0.081

> <Negative vol penalty>
0.000

$$$$

  -OEChem-04042323533D

 86 95  0     1  0  0  0  0  0999 V2000
  -29.1158  -11.5827   20.6109 C   0  0  0  0  0  0  0  0  0  0  0  0
  -29.2148  -12.9084   20.2009 C   0  0  0  0  0  0  0  0  0  0  0  0
  -29.7930  -27.5132   23.4725 C   0  0  0  0  0  0  0  0  0  0  0  0
  -19.9836  -28.3901   23.4721 C   0  0  0  0  0  0  0  0  0  0  0  0
  -21.1469  -26.8601   22.0082 C   0  0  0  0  0  0  0  0  0  0  0  0
  -29.1735  -28.6523   22.9585 C   0  0  0  0  0  0  0  0  0  0  0  0
  -27.8616  -10.9937   20.7651 C   0  0  0  0  0  0  0  0  0  0  0  0
  -28.0594  -13.6456   19.9438 C   0  0  0  0  0  0  0  0  0  0  0  0
  -28.2335  -18.2926   21.9490 C   0  0  0  0  0  0  0  0  0  0  0  0
  -29.8683  -26.3526   22.7024 C   0  0  0  0  0  0  0  0  0  0  0  0
  -18.8014  -28.1667   22.7663 C   0  0  0  0  0  0  0  0  0  0  0  0
  -19.9647  -26.6366   21.3024 C   0  0  0  0  0  0  0  0  0  0  0  0
  -28.9868  -19.2505   21.2716 C   0  0  0  0  0  0  0  0  0  0  0  0
  -17.1718  -25.3870   19.3386 C   0  0  0  0  0  0  0  0  0  0  0  0
  -16.8475  -24.0693   19.0160 C   0  0  0  0  0  0  0  0  0  0  0  0
  -28.7044  -27.4702   20.9043 C   0  0  0  0  0  0  0  0  0  0  0  0
  -26.9667  -20.1455   20.3033 C   0  0  0  0  0  0  0  0  0  0  0  0
  -16.8138  -23.5027   21.3644 C   0  0  0  0  0  0  0  0  0  0  0  0
  -21.1563  -27.7369   23.0930 C   0  0  0  0  0  0  0  0  0  0  0  0
  -28.6292  -28.6308   21.6744 C   0  0  0  0  0  0  0  0  0  0  0  0
  -22.8484  -27.2546   24.9402 C   0  0  0  0  0  0  0  0  0  0  0  0
  -26.6900  -11.7270   20.5191 C   0  0  0  0  0  0  0  0  0  0  0  0
  -26.8399  -18.2470   21.7997 C   0  0  0  0  0  0  0  0  0  0  0  0
  -26.7883  -13.0655   20.0935 C   0  0  0  0  0  0  0  0  0  0  0  0
  -26.1978  -19.1876   20.9818 C   0  0  0  0  0  0  0  0  0  0  0  0
  -29.3239  -26.3311   21.4183 C   0  0  0  0  0  0  0  0  0  0  0  0
  -18.7919  -27.2899   21.6815 C   0  0  0  0  0  0  0  0  0  0  0  0
  -28.3537  -20.1753   20.4464 C   0  0  0  0  0  0  0  0  0  0  0  0
  -17.3172  -25.7626   20.6741 C   0  0  0  0  0  0  0  0  0  0  0  0
  -16.6685  -23.1272   20.0289 C   0  0  0  0  0  0  0  0  0  0  0  0
  -17.1382  -24.8204   21.6870 C   0  0  0  0  0  0  0  0  0  0  0  0
  -22.3780  -27.9678   23.8213 C   0  0  0  0  0  0  0  0  0  0  0  0
  -24.0411  -27.8583   25.2555 C   0  0  0  0  0  0  0  0  0  0  0  0
  -29.9376  -23.9513   20.9062 C   0  0  0  0  0  0  0  0  0  0  0  0
  -28.9590  -24.8897   19.3954 C   0  0  0  0  0  0  0  0  0  0  0  0
  -27.9836  -29.8192   21.1398 C   0  0  0  0  0  0  0  0  0  0  0  0
  -22.2599  -26.1455   25.6325 C   0  0  0  0  0  0  0  0  0  0  0  0
  -27.8874  -31.0669   21.9318 C   0  0  0  0  0  0  0  0  0  0  0  0
  -24.7719  -16.1040   20.6887 C   0  0  0  0  0  0  0  0  0  0  0  0
  -22.5788  -18.2349   21.7714 C   0  0  0  0  0  0  0  0  0  0  0  0
  -21.8395  -21.4604   22.6057 C   0  0  0  0  0  0  0  0  0  0  0  0
  -25.3577  -11.0332   20.6538 C   0  0  0  0  0  0  0  0  0  0  0  0
  -26.0391  -17.2243   22.5582 C   0  0  0  0  0  0  0  0  0  0  0  0
  -24.7023  -19.1940   20.8037 C   0  0  0  0  0  0  0  0  0  0  0  0
  -24.1743  -11.9950   20.7227 C   0  0  0  0  0  0  0  0  0  0  0  0
  -26.3111  -32.0523   24.9979 C   0  0  0  0  0  0  0  0  0  0  0  0
  -24.2904  -13.0627   19.6395 C   0  0  0  0  0  0  0  0  0  0  0  0
  -25.1431  -31.0747   25.1244 C   0  0  0  0  0  0  0  0  0  0  0  0
  -26.5878  -32.4058   23.5402 C   0  0  0  0  0  0  0  0  0  0  0  0
  -25.6579  -30.2331   22.7895 C   0  0  0  0  0  0  0  0  0  0  0  0
  -25.5576  -13.9053   19.8289 C   0  0  1  0  0  0  0  0  0  0  0  0
  -24.6772  -16.9459   21.9296 C   0  0  1  0  0  0  0  0  0  0  0  0
  -25.3663  -29.8311   24.2457 C   0  0  2  0  0  0  0  0  0  0  0  0
  -29.5118  -23.4478   19.5055 C   0  0  0  0  0  0  0  0  0  0  0  0
  -30.6662  -23.1334   18.5639 C   0  0  0  0  0  0  0  0  0  0  0  0
  -19.9539  -22.9014   23.4216 C   0  0  0  0  0  0  0  0  0  0  0  0
  -21.3350  -18.1805   18.9858 C   0  0  0  0  0  0  0  0  0  0  0  0
  -20.1049  -20.2814   19.5701 C   0  0  0  0  0  0  0  0  0  0  0  0
  -19.6849  -18.1911   20.8650 C   0  0  0  0  0  0  0  0  0  0  0  0
  -23.3147  -22.2011   25.0621 C   0  0  0  0  0  0  0  0  0  0  0  0
  -28.4538  -22.3616   19.5157 C   0  0  0  0  0  0  0  0  0  1  0  0
  -21.8666  -19.4286   21.1825 C   0  0  1  0  0  0  0  0  0  0  0  0
  -21.1516  -22.0540   23.8218 C   0  0  2  0  0  0  0  0  0  0  0  0
  -20.7763  -19.0193   20.1525 C   0  0  0  0  0  0  0  0  0  0  0  0
  -23.2043  -28.9496   23.4509 N   0  0  0  0  0  0  0  0  0  0  0  0
  -27.4547  -29.8724   19.9471 N   0  0  0  0  0  0  0  0  0  0  0  0
  -24.2060  -28.8577   24.3422 N   0  0  0  0  0  0  0  0  0  0  0  0
  -29.3985  -25.1871   20.6593 N   0  0  0  0  0  0  0  0  0  0  0  0
  -26.7588  -31.2029   22.7278 N   0  0  0  0  0  0  0  0  0  0  0  0
  -23.9636  -18.1704   21.5614 N   0  0  0  0  0  0  0  0  0  0  0  0
  -24.9543  -27.6266   26.2223 N   0  0  0  0  0  0  0  0  0  0  0  0
  -21.0312  -25.6490   25.1763 N   0  0  0  0  0  0  0  0  0  0  0  0
  -25.3673  -14.8731   20.8880 N   0  0  0  0  0  0  0  0  0  0  0  0
  -21.3613  -20.2008   22.3125 N   0  0  0  0  0  0  0  0  0  0  0  0
  -22.1004  -22.9123   24.5861 N   0  3  0  0  0  0  0  0  0  0  0  0
  -30.5127  -23.4843   21.8636 O   0  0  0  0  0  0  0  0  0  0  0  0
  -28.3718  -25.5376   18.5583 O   0  0  0  0  0  0  0  0  0  0  0  0
  -22.7994  -25.6212   26.6362 O   0  0  0  0  0  0  0  0  0  0  0  0
  -28.8192  -31.8494   21.7982 O   0  0  0  0  0  0  0  0  0  0  0  0
  -24.3356  -16.5384   19.6291 O   0  0  0  0  0  0  0  0  0  0  0  0
  -21.9315  -17.3944   22.4009 O   0  0  0  0  0  0  0  0  0  0  0  0
  -22.7109  -22.0563   21.9763 O   0  0  0  0  0  0  0  0  0  0  0  0
  -17.6385  -27.0714   20.9928 O   0  0  0  0  0  0  0  0  0  0  0  0
  -29.0866  -21.1110   19.7836 O   0  0  0  0  0  0  0  0  0  1  0  0
  -16.3555  -21.8622   19.7190 F   0  0  0  0  0  0  0  0  0  0  0  0
  -17.2755  -25.1755   22.9718 F   0  0  0  0  0  0  0  0  0  0  0  0
  1  2  1  0  0  0  0
  1  7  2  0  0  0  0
  2  8  2  0  0  0  0
  3  6  1  0  0  0  0
  3 10  2  0  0  0  0
  4 11  2  0  0  0  0
  4 19  1  0  0  0  0
  5 12  1  0  0  0  0
  5 19  2  0  0  0  0
  6 20  2  0  0  0  0
  7 22  1  0  0  0  0
  8 24  1  0  0  0  0
  9 13  2  0  0  0  0
  9 23  1  0  0  0  0
 10 26  1  0  0  0  0
 11 27  1  0  0  0  0
 12 27  2  0  0  0  0
 13 28  1  0  0  0  0
 14 15  2  0  0  0  0
 14 29  1  0  0  0  0
 15 30  1  0  0  0  0
 16 20  1  0  0  0  0
 16 26  2  0  0  0  0
 17 25  1  0  0  0  0
 17 28  2  0  0  0  0
 18 30  2  0  0  0  0
 18 31  1  0  0  0  0
 19 32  1  0  0  0  0
 20 36  1  0  0  0  0
 21 32  1  0  0  0  0
 21 33  2  0  0  0  0
 21 37  1  0  0  0  0
 22 24  2  0  0  0  0
 22 42  1  0  0  0  0
 23 25  2  0  0  0  0
 23 43  1  0  0  0  0
 24 51  1  0  0  0  0
 25 44  1  0  0  0  0
 26 68  1  0  0  0  0
 27 83  1  0  0  0  0
 28 84  1  0  0  0  0
 29 31  2  0  0  0  0
 29 83  1  0  0  0  0
 30 85  1  0  0  0  0
 31 86  1  0  0  0  0
 32 65  2  0  0  0  0
 33 67  1  0  0  0  0
 33 71  1  0  0  0  0
 34 54  1  0  0  0  0
 34 68  1  0  0  0  0
 34 76  2  0  0  0  0
 35 54  1  0  0  0  0
 35 68  1  0  0  0  0
 35 77  2  0  0  0  0
 36 38  1  0  0  0  0
 36 66  2  0  0  0  0
 37 72  1  0  0  0  0
 37 78  2  0  0  0  0
 38 69  1  0  0  0  0
 38 79  2  0  0  0  0
 39 52  1  0  0  0  0
 39 73  1  0  0  0  0
 39 80  2  0  0  0  0
 40 62  1  0  0  0  0
 40 70  1  0  0  0  0
 40 81  2  0  0  0  0
 41 63  1  0  0  0  0
 41 74  1  0  0  0  0
 41 82  2  0  0  0  0
 42 45  1  0  0  0  0
 43 52  1  0  0  0  0
 44 70  1  0  0  0  0
 45 47  1  0  0  0  0
 46 48  1  0  0  0  0
 46 49  1  0  0  0  0
 47 51  1  0  0  0  0
 48 53  1  0  0  0  0
 49 69  1  0  0  0  0
 50 53  1  0  0  0  0
 50 69  1  0  0  0  0
 51 73  1  0  0  0  0
 52 70  1  0  0  0  0
 53 67  1  0  0  0  0
 54 55  1  0  0  0  0
 54 61  1  0  0  0  0
 56 63  1  0  0  0  0
 57 64  1  0  0  0  0
 58 64  1  0  0  0  0
 59 64  1  0  0  0  0
 60 75  1  0  0  0  0
 61 84  1  0  0  0  0
 62 64  1  0  0  0  0
 62 74  1  0  0  0  0
 63 75  1  0  0  0  0
 65 67  1  0  0  0  0
M  CHG  1  75   1
M  ISO  4  36 100  38 100  61 101  84 101
M  END
> <Batch ID>
0077

> <Smiles>
CNC(C)C(=O)NC(C(=O)N1Cc2cc([101O:1][101CH2:1]C3(C)C(=O)N(c4cccc([100C:0](=N)[100C:0](=O)N5CCCC(n6nc(-c7ccc(Oc8ccc(F)cc8F)cc7)c(C(N)=O)c6N)C5)c4)C3=O)ccc2CC1C(=O)NC1CCCc2ccccc21)C(C)(C)C

> <Shape>
0.239

> <Color>
0.071

> <Negative vol penalty>
0.000

$$$$

  -OEChem-04042323533D

 89 98  0     1  0  0  0  0  0999 V2000
  -26.4907  -33.3562   27.0077 C   0  0  0  0  0  0  0  0  0  0  0  0
  -27.1959  -32.7058   26.0001 C   0  0  0  0  0  0  0  0  0  0  0  0
  -24.9872  -13.6959   21.4368 C   0  0  0  0  0  0  0  0  0  0  0  0
  -26.1405  -13.5356   19.3199 C   0  0  0  0  0  0  0  0  0  0  0  0
  -25.2951  -32.8166   27.4802 C   0  0  0  0  0  0  0  0  0  0  0  0
  -26.7064  -31.5147   25.4653 C   0  0  0  0  0  0  0  0  0  0  0  0
  -26.9727  -31.4011   20.4095 C   0  0  0  0  0  0  0  0  0  0  0  0
  -24.1760  -12.6200   21.0764 C   0  0  0  0  0  0  0  0  0  0  0  0
  -25.3293  -12.4597   18.9595 C   0  0  0  0  0  0  0  0  0  0  0  0
  -28.2187  -31.1348   19.8434 C   0  0  0  0  0  0  0  0  0  0  0  0
  -24.4182   -9.2497   20.9521 C   0  0  0  0  0  0  0  0  0  0  0  0
  -24.2014   -8.2538   21.9043 C   0  0  0  0  0  0  0  0  0  0  0  0
  -27.5616  -28.8406   19.4913 C   0  0  0  0  0  0  0  0  0  0  0  0
  -34.1158  -22.8665   19.5057 C   0  0  0  0  0  0  0  0  0  0  0  0
  -32.7817  -20.8582   19.6590 C   0  0  0  0  0  0  0  0  0  0  0  0
  -31.7047  -23.0115   19.4585 C   0  0  0  0  0  0  0  0  0  0  0  0
  -21.8260   -8.6861   21.8154 C   0  0  0  0  0  0  0  0  0  0  0  0
  -25.9694  -14.1538   20.5586 C   0  0  0  0  0  0  0  0  0  0  0  0
  -28.0410  -15.2116   21.6061 C   0  0  0  0  0  0  0  0  0  0  0  0
  -24.7858  -31.6233   26.9442 C   0  0  0  0  0  0  0  0  0  0  0  0
  -26.0142  -30.3847   20.5309 C   0  0  0  0  0  0  0  0  0  0  0  0
  -25.5035  -30.9579   25.9320 C   0  0  0  0  0  0  0  0  0  0  0  0
  -26.3034  -29.0972   20.0570 C   0  0  0  0  0  0  0  0  0  0  0  0
  -34.0301  -21.4793   19.6237 C   0  0  0  0  0  0  0  0  0  0  0  0
  -32.9531  -23.6326   19.4232 C   0  0  0  0  0  0  0  0  0  0  0  0
  -31.6189  -21.6243   19.5764 C   0  0  0  0  0  0  0  0  0  0  0  0
  -24.3471  -12.0018   19.8377 C   0  0  0  0  0  0  0  0  0  0  0  0
  -28.5144  -29.8537   19.3868 C   0  0  0  0  0  0  0  0  0  0  0  0
  -23.3390   -9.9639   20.4316 C   0  0  0  0  0  0  0  0  0  0  0  0
  -22.9052   -7.9719   22.3360 C   0  0  0  0  0  0  0  0  0  0  0  0
  -22.0429   -9.6820   20.8632 C   0  0  0  0  0  0  0  0  0  0  0  0
  -26.8073  -15.2655   20.9302 C   0  0  0  0  0  0  0  0  0  0  0  0
  -28.4292  -16.5243   21.7173 C   0  0  0  0  0  0  0  0  0  0  0  0
  -32.5191  -27.2491   19.1067 C   0  0  0  0  0  0  0  0  0  0  0  0
  -33.9581  -27.1721   19.1348 C   0  0  0  0  0  0  0  0  0  0  0  0
  -31.9364  -25.8826   19.2155 C   0  0  0  0  0  0  0  0  0  0  0  0
  -34.8446  -28.1707   19.0627 C   0  0  0  0  0  0  0  0  0  0  0  0
  -31.7309  -28.3248   19.0027 C   0  0  0  0  0  0  0  0  0  0  0  0
  -28.7707  -14.0763   22.0902 C   0  0  0  0  0  0  0  0  0  0  0  0
  -24.5271  -28.9832   22.9656 C   0  0  0  0  0  0  0  0  0  0  0  0
  -22.8622  -27.5181   20.5983 C   0  0  0  0  0  0  0  0  0  0  0  0
  -22.7444  -26.4939   17.3450 C   0  0  0  0  0  0  0  0  0  0  0  0
  -29.1000  -21.6063   19.5432 C   0  0  0  0  0  0  0  0  0  0  0  0
  -23.5135  -31.0537   27.5200 C   0  0  0  0  0  0  0  0  0  0  0  0
  -24.6652  -30.6947   21.1196 C   0  0  0  0  0  0  0  0  0  0  0  0
  -25.3016  -27.9760   20.1456 C   0  0  0  0  0  0  0  0  0  0  0  0
  -34.3180  -25.7228   19.2643 C   0  0  0  0  0  0  0  0  0  0  0  0
  -22.8716  -29.9846   26.6396 C   0  0  0  0  0  0  0  0  0  0  0  0
  -25.8756  -20.8019   20.8211 C   0  0  0  0  0  0  0  0  0  0  0  0
  -23.9209  -28.9859   26.1616 C   0  0  0  0  0  0  0  0  0  0  0  0
  -25.9320  -19.2854   21.0190 C   0  0  0  0  0  0  0  0  0  0  0  0
  -26.6424  -21.2401   19.5746 C   0  0  0  0  0  0  0  0  0  0  0  0
  -28.0860  -19.2476   19.6977 C   0  0  0  0  0  0  0  0  0  0  0  0
  -24.9923  -29.6769   25.3093 C   0  0  1  0  0  0  0  0  0  0  0  0
  -23.9520  -29.4599   21.6618 C   0  0  1  0  0  0  0  0  0  0  0  0
  -27.3822  -18.7651   20.9765 C   0  0  2  0  0  0  0  0  0  0  0  0
  -21.2690  -25.2893   15.7112 C   0  0  0  0  0  0  0  0  0  0  0  0
  -23.6032  -24.8572   21.8947 C   0  0  0  0  0  0  0  0  0  0  0  0
  -22.9457  -23.7163   19.7653 C   0  0  0  0  0  0  0  0  0  0  0  0
  -21.2464  -24.9950   21.0693 C   0  0  0  0  0  0  0  0  0  0  0  0
  -22.5730  -28.8611   15.5769 C   0  0  0  0  0  0  0  0  0  0  0  0
  -30.2394  -28.2666   18.9854 C   0  0  0  0  0  0  0  0  0  1  0  0
  -35.2738  -20.6606   19.7132 C   0  0  1  0  0  0  0  0  0  0  0  0
  -23.0343  -26.2505   19.7967 C   0  0  1  0  0  0  0  0  0  0  0  0
  -21.6717  -26.6405   16.2810 C   0  0  2  0  0  0  0  0  0  0  0  0
  -22.7272  -24.9752   20.6315 C   0  0  0  0  0  0  0  0  0  0  0  0
  -26.4363  -16.5137   20.6330 N   0  0  0  0  0  0  0  0  0  0  0  0
  -27.4428  -17.2563   21.1246 N   0  0  0  0  0  0  0  0  0  0  0  0
  -33.0392  -25.0162   19.3058 N   0  0  0  0  0  0  0  0  0  0  0  0
  -23.9990  -28.3273   20.7349 N   0  0  0  0  0  0  0  0  0  0  0  0
  -28.0088  -20.7140   19.6056 N   0  0  0  0  0  0  0  0  0  0  0  0
  -29.5148  -17.1124   22.2634 N   0  0  0  0  0  0  0  0  0  0  0  0
  -28.2282  -12.7993   21.8921 N   0  0  0  0  0  0  0  0  0  0  0  0
  -35.7721  -20.2676   18.3934 N   0  0  0  0  0  0  0  0  0  0  0  0
  -30.3507  -20.9935   19.6137 N   0  0  0  0  0  0  0  0  0  0  0  0
  -24.4924  -29.9269   23.9744 N   0  0  0  0  0  0  0  0  0  0  0  0
  -22.2010  -26.4022   18.6089 N   0  0  0  0  0  0  0  0  0  0  0  0
  -22.1642  -27.4941   15.1630 N   0  3  0  0  0  0  0  0  0  0  0  0
  -30.7479  -25.6087   19.2219 O   0  0  0  0  0  0  0  0  0  0  0  0
  -29.8634  -14.1920   22.6953 O   0  0  0  0  0  0  0  0  0  0  0  0
  -24.9681  -27.8430   23.0504 O   0  0  0  0  0  0  0  0  0  0  0  0
  -21.7578  -27.7842   21.0793 O   0  0  0  0  0  0  0  0  0  0  0  0
  -23.9443  -26.4600   17.0809 O   0  0  0  0  0  0  0  0  0  0  0  0
  -28.9368  -22.8265   19.4627 O   0  0  0  0  0  0  0  0  0  0  0  0
  -23.5559  -10.9517   19.4857 O   0  0  0  0  0  0  0  0  0  0  0  0
  -29.7300  -29.5910   18.8344 O   0  0  0  0  0  0  0  0  0  1  0  0
  -22.6970   -7.0145   23.2493 F   0  0  0  0  0  0  0  0  0  0  0  0
  -21.0020  -10.3639   20.3659 F   0  0  0  0  0  0  0  0  0  0  0  0
  -36.2960  -21.3099   20.3566 F   0  0  0  0  0  0  0  0  0  0  0  0
  1  2  1  0  0  0  0
  1  5  2  0  0  0  0
  2  6  2  0  0  0  0
  3  8  2  0  0  0  0
  3 18  1  0  0  0  0
  4  9  1  0  0  0  0
  4 18  2  0  0  0  0
  5 20  1  0  0  0  0
  6 22  1  0  0  0  0
  7 10  2  0  0  0  0
  7 21  1  0  0  0  0
  8 27  1  0  0  0  0
  9 27  2  0  0  0  0
 10 28  1  0  0  0  0
 11 12  2  0  0  0  0
 11 29  1  0  0  0  0
 12 30  1  0  0  0  0
 13 23  1  0  0  0  0
 13 28  2  0  0  0  0
 14 24  1  0  0  0  0
 14 25  2  0  0  0  0
 15 24  2  0  0  0  0
 15 26  1  0  0  0  0
 16 25  1  0  0  0  0
 16 26  2  0  0  0  0
 17 30  2  0  0  0  0
 17 31  1  0  0  0  0
 18 32  1  0  0  0  0
 19 32  1  0  0  0  0
 19 33  2  0  0  0  0
 19 39  1  0  0  0  0
 20 22  2  0  0  0  0
 20 44  1  0  0  0  0
 21 23  2  0  0  0  0
 21 45  1  0  0  0  0
 22 54  1  0  0  0  0
 23 46  1  0  0  0  0
 24 63  1  0  0  0  0
 25 69  1  0  0  0  0
 26 75  1  0  0  0  0
 27 85  1  0  0  0  0
 28 86  1  0  0  0  0
 29 31  2  0  0  0  0
 29 85  1  0  0  0  0
 30 87  1  0  0  0  0
 31 88  1  0  0  0  0
 32 67  2  0  0  0  0
 33 68  1  0  0  0  0
 33 72  1  0  0  0  0
 34 35  1  0  0  0  0
 34 36  1  0  0  0  0
 34 38  2  0  0  0  0
 35 37  2  0  0  0  0
 35 47  1  0  0  0  0
 36 69  1  0  0  0  0
 36 79  2  0  0  0  0
 38 62  1  0  0  0  0
 39 73  1  0  0  0  0
 39 80  2  0  0  0  0
 40 55  1  0  0  0  0
 40 76  1  0  0  0  0
 40 81  2  0  0  0  0
 41 64  1  0  0  0  0
 41 70  1  0  0  0  0
 41 82  2  0  0  0  0
 42 65  1  0  0  0  0
 42 77  1  0  0  0  0
 42 83  2  0  0  0  0
 43 71  1  0  0  0  0
 43 75  1  0  0  0  0
 43 84  2  0  0  0  0
 44 48  1  0  0  0  0
 45 55  1  0  0  0  0
 46 70  1  0  0  0  0
 47 69  1  0  0  0  0
 48 50  1  0  0  0  0
 49 51  1  0  0  0  0
 49 52  1  0  0  0  0
 50 54  1  0  0  0  0
 51 56  1  0  0  0  0
 52 71  1  0  0  0  0
 53 56  1  0  0  0  0
 53 71  1  0  0  0  0
 54 76  1  0  0  0  0
 55 70  1  0  0  0  0
 56 68  1  0  0  0  0
 57 65  1  0  0  0  0
 58 66  1  0  0  0  0
 59 66  1  0  0  0  0
 60 66  1  0  0  0  0
 61 78  1  0  0  0  0
 62 86  1  0  0  0  0
 63 74  1  0  0  0  0
 63 89  1  0  0  0  0
 64 66  1  0  0  0  0
 64 77  1  0  0  0  0
 65 78  1  0  0  0  0
 67 68  1  0  0  0  0
M  CHG  1  78   1
M  ISO  4  43 100  62 101  75 100  86 101
M  END
> <Batch ID>
0077

> <Smiles>
C=C1CN(c2cc([100NH:0][100C:0](=O)N3CCCC(n4nc(-c5ccc(Oc6ccc(F)cc6F)cc5)c(C(N)=O)c4N)C3)cc(C(N)F)c2)C(=O)C1=C[101CH2:1][101O:1]c1ccc2c(c1)CN(C(=O)C(NC(=O)C(C)NC)C(C)(C)C)C(C(=O)NC1CCCc3ccccc31)C2

> <Shape>
0.240

> <Color>
0.069

> <Negative vol penalty>
0.000

$$$$

  -OEChem-04042323533D

 85 94  0     1  0  0  0  0  0999 V2000
  -28.4807  -36.9570   25.7932 C   0  0  0  0  0  0  0  0  0  0  0  0
  -28.9511  -35.7869   25.2059 C   0  0  0  0  0  0  0  0  0  0  0  0
  -24.2656   -9.4542   21.5186 C   0  0  0  0  0  0  0  0  0  0  0  0
  -24.8363  -10.6878   23.5160 C   0  0  0  0  0  0  0  0  0  0  0  0
  -27.1595  -37.0331   26.2319 C   0  0  0  0  0  0  0  0  0  0  0  0
  -28.1007  -34.6917   25.0578 C   0  0  0  0  0  0  0  0  0  0  0  0
  -28.0713  -30.6490   20.4577 C   0  0  0  0  0  0  0  0  0  0  0  0
  -28.1403  -20.7655   20.9768 C   0  0  0  0  0  0  0  0  0  0  0  0
  -30.5144  -20.5128   20.6066 C   0  0  0  0  0  0  0  0  0  0  0  0
  -27.9385  -19.4417   20.5866 C   0  0  0  0  0  0  0  0  0  0  0  0
  -30.3126  -19.1889   20.2164 C   0  0  0  0  0  0  0  0  0  0  0  0
  -23.9346   -8.3457   22.2978 C   0  0  0  0  0  0  0  0  0  0  0  0
  -24.5053   -9.5793   24.2952 C   0  0  0  0  0  0  0  0  0  0  0  0
  -28.6132  -29.3709   20.3287 C   0  0  0  0  0  0  0  0  0  0  0  0
  -21.3366   -7.3306   24.2091 C   0  0  0  0  0  0  0  0  0  0  0  0
  -20.1525   -6.6573   23.9087 C   0  0  0  0  0  0  0  0  0  0  0  0
  -26.4858  -28.4135   20.9426 C   0  0  0  0  0  0  0  0  0  0  0  0
  -21.4085   -4.6373   23.4854 C   0  0  0  0  0  0  0  0  0  0  0  0
  -24.7165  -10.6253   22.1277 C   0  0  0  0  0  0  0  0  0  0  0  0
  -24.2040  -12.8147   20.9229 C   0  0  0  0  0  0  0  0  0  0  0  0
  -26.2898  -35.9417   26.0804 C   0  0  0  0  0  0  0  0  0  0  0  0
  -26.7333  -30.8194   20.8414 C   0  0  0  0  0  0  0  0  0  0  0  0
  -26.7670  -34.7529   25.4961 C   0  0  0  0  0  0  0  0  0  0  0  0
  -25.9286  -29.6948   21.0732 C   0  0  0  0  0  0  0  0  0  0  0  0
  -29.4283  -21.3011   20.9868 C   0  0  0  0  0  0  0  0  0  0  0  0
  -29.0246  -18.6533   20.2065 C   0  0  0  0  0  0  0  0  0  0  0  0
  -24.0544   -8.4082   23.6861 C   0  0  0  0  0  0  0  0  0  0  0  0
  -27.8212  -28.2530   20.5740 C   0  0  0  0  0  0  0  0  0  0  0  0
  -22.5567   -6.6572   24.1475 C   0  0  0  0  0  0  0  0  0  0  0  0
  -20.1884   -5.3107   23.5469 C   0  0  0  0  0  0  0  0  0  0  0  0
  -22.5926   -5.3105   23.7857 C   0  0  0  0  0  0  0  0  0  0  0  0
  -25.0591  -11.7706   21.3233 C   0  0  0  0  0  0  0  0  0  0  0  0
  -25.0041  -13.6483   20.1805 C   0  0  0  0  0  0  0  0  0  0  0  0
  -28.6859  -23.6507   21.1961 C   0  0  0  0  0  0  0  0  0  0  0  0
  -28.8393  -24.9374   21.5549 C   0  0  0  0  0  0  0  0  0  0  0  0
  -30.8982  -24.2169   22.7823 C   0  0  0  0  0  0  0  0  0  0  0  0
  -31.4616  -24.2374   24.0000 C   0  0  0  0  0  0  0  0  0  0  0  0
  -22.8109  -13.0134   21.1978 C   0  0  0  0  0  0  0  0  0  0  0  0
  -25.2632  -32.1834   23.3075 C   0  0  0  0  0  0  0  0  0  0  0  0
  -22.5943  -31.4936   21.5977 C   0  0  0  0  0  0  0  0  0  0  0  0
  -21.0982  -29.5599   19.2167 C   0  0  0  0  0  0  0  0  0  0  0  0
  -29.7875  -16.3906   19.4038 C   0  0  0  0  0  0  0  0  0  0  0  0
  -24.8832  -36.0549   26.6128 C   0  0  0  0  0  0  0  0  0  0  0  0
  -26.1565  -32.2043   20.9501 C   0  0  0  0  0  0  0  0  0  0  0  0
  -24.4808  -29.8234   21.4679 C   0  0  0  0  0  0  0  0  0  0  0  0
  -30.0990  -25.3860   22.2546 C   0  0  0  0  0  0  0  0  0  0  0  0
  -30.9813  -23.0040   21.8801 C   0  0  0  0  0  0  0  0  0  0  0  0
  -23.9414  -34.9787   26.0790 C   0  0  0  0  0  0  0  0  0  0  0  0
  -29.6900  -12.9799   18.3866 C   0  0  0  0  0  0  0  0  0  0  0  0
  -24.6009  -33.6055   26.1573 C   0  0  0  0  0  0  0  0  0  0  0  0
  -28.4061  -12.4471   19.0270 C   0  0  0  0  0  0  0  0  0  0  0  0
  -30.4003  -13.9850   19.2915 C   0  0  0  0  0  0  0  0  0  0  0  0
  -28.2794  -14.5626   20.4038 C   0  0  0  0  0  0  0  0  0  0  0  0
  -25.8681  -33.5521   25.2954 C   0  0  1  0  0  0  0  0  0  0  0  0
  -24.9237  -32.2694   21.8464 C   0  0  1  0  0  0  0  0  0  0  0  0
  -27.4947  -13.5956   19.5021 C   0  0  2  0  0  0  0  0  0  0  0  0
  -18.8983  -29.2075   18.0618 C   0  0  0  0  0  0  0  0  0  0  0  0
  -21.5189  -30.0846   24.0812 C   0  0  0  0  0  0  0  0  0  0  0  0
  -19.8149  -28.9691   22.6252 C   0  0  0  0  0  0  0  0  0  0  0  0
  -19.8302  -31.4539   22.8452 C   0  0  0  0  0  0  0  0  0  0  0  0
  -22.2553  -30.1950   16.5678 C   0  0  0  0  0  0  0  0  0  0  0  0
  -27.8021  -25.9831   21.2836 C   0  0  0  0  0  0  0  0  0  1  0  0
  -21.6533  -30.3162   21.5133 C   0  0  1  0  0  0  0  0  0  0  0  0
  -20.2400  -29.9221   18.0180 C   0  0  2  0  0  0  0  0  0  0  0  0
  -20.7321  -30.2032   22.7607 C   0  0  0  0  0  0  0  0  0  0  0  0
  -26.3069  -11.9244   20.8723 N   0  0  0  0  0  0  0  0  0  0  0  0
  -26.2417  -13.0750   20.1809 N   0  0  0  0  0  0  0  0  0  0  0  0
  -29.6338  -22.6503   21.3824 N   0  0  0  0  0  0  0  0  0  0  0  0
  -23.9647  -31.1986   21.5672 N   0  0  0  0  0  0  0  0  0  0  0  0
  -29.4766  -15.0462   19.6984 N   0  0  0  0  0  0  0  0  0  0  0  0
  -24.7629  -14.8085   19.5337 N   0  0  0  0  0  0  0  0  0  0  0  0
  -22.1410  -12.0603   21.9769 N   0  0  0  0  0  0  0  0  0  0  0  0
  -28.8195  -17.3085   19.8101 N   0  0  0  0  0  0  0  0  0  0  0  0
  -25.5228  -33.4057   23.8977 N   0  0  0  0  0  0  0  0  0  0  0  0
  -20.9354  -30.4571   20.2511 N   0  0  0  0  0  0  0  0  0  0  0  0
  -20.9320  -29.5456   16.7530 N   0  3  0  0  0  0  0  0  0  0  0  0
  -22.1749  -13.9983   20.7515 O   0  0  0  0  0  0  0  0  0  0  0  0
  -25.2864  -31.0894   23.8591 O   0  0  0  0  0  0  0  0  0  0  0  0
  -22.1306  -32.6337   21.6803 O   0  0  0  0  0  0  0  0  0  0  0  0
  -21.8360  -28.5772   19.2351 O   0  0  0  0  0  0  0  0  0  0  0  0
  -30.8224  -16.7020   18.8090 O   0  0  0  0  0  0  0  0  0  0  0  0
  -23.7313   -7.3268   24.4468 O   0  0  0  0  0  0  0  0  0  0  0  0
  -28.3478  -27.0043   20.4495 O   0  0  0  0  0  0  0  0  0  1  0  0
  -19.0511   -4.6639   23.2600 F   0  0  0  0  0  0  0  0  0  0  0  0
  -23.7615   -4.6580   23.7260 F   0  0  0  0  0  0  0  0  0  0  0  0
  1  2  1  0  0  0  0
  1  5  2  0  0  0  0
  2  6  2  0  0  0  0
  3 12  2  0  0  0  0
  3 19  1  0  0  0  0
  4 13  1  0  0  0  0
  4 19  2  0  0  0  0
  5 21  1  0  0  0  0
  6 23  1  0  0  0  0
  7 14  2  0  0  0  0
  7 22  1  0  0  0  0
  8 10  2  0  0  0  0
  8 25  1  0  0  0  0
  9 11  1  0  0  0  0
  9 25  2  0  0  0  0
 10 26  1  0  0  0  0
 11 26  2  0  0  0  0
 12 27  1  0  0  0  0
 13 27  2  0  0  0  0
 14 28  1  0  0  0  0
 15 16  2  0  0  0  0
 15 29  1  0  0  0  0
 16 30  1  0  0  0  0
 17 24  1  0  0  0  0
 17 28  2  0  0  0  0
 18 30  2  0  0  0  0
 18 31  1  0  0  0  0
 19 32  1  0  0  0  0
 20 32  1  0  0  0  0
 20 33  2  0  0  0  0
 20 38  1  0  0  0  0
 21 23  2  0  0  0  0
 21 43  1  0  0  0  0
 22 24  2  0  0  0  0
 22 44  1  0  0  0  0
 23 54  1  0  0  0  0
 24 45  1  0  0  0  0
 25 68  1  0  0  0  0
 26 73  1  0  0  0  0
 27 82  1  0  0  0  0
 28 83  1  0  0  0  0
 29 31  2  0  0  0  0
 29 82  1  0  0  0  0
 30 84  1  0  0  0  0
 31 85  1  0  0  0  0
 32 66  2  0  0  0  0
 33 67  1  0  0  0  0
 33 71  1  0  0  0  0
 34 35  2  0  0  0  0
 34 68  1  0  0  0  0
 35 46  1  0  0  0  0
 35 62  1  0  0  0  0
 36 37  2  0  0  0  0
 36 46  1  0  0  0  0
 36 47  1  0  0  0  0
 38 72  1  0  0  0  0
 38 77  2  0  0  0  0
 39 55  1  0  0  0  0
 39 74  1  0  0  0  0
 39 78  2  0  0  0  0
 40 63  1  0  0  0  0
 40 69  1  0  0  0  0
 40 79  2  0  0  0  0
 41 64  1  0  0  0  0
 41 75  1  0  0  0  0
 41 80  2  0  0  0  0
 42 70  1  0  0  0  0
 42 73  1  0  0  0  0
 42 81  2  0  0  0  0
 43 48  1  0  0  0  0
 44 55  1  0  0  0  0
 45 69  1  0  0  0  0
 47 68  1  0  0  0  0
 48 50  1  0  0  0  0
 49 51  1  0  0  0  0
 49 52  1  0  0  0  0
 50 54  1  0  0  0  0
 51 56  1  0  0  0  0
 52 70  1  0  0  0  0
 53 56  1  0  0  0  0
 53 70  1  0  0  0  0
 54 74  1  0  0  0  0
 55 69  1  0  0  0  0
 56 67  1  0  0  0  0
 57 64  1  0  0  0  0
 58 65  1  0  0  0  0
 59 65  1  0  0  0  0
 60 65  1  0  0  0  0
 61 76  1  0  0  0  0
 62 83  1  0  0  0  0
 63 65  1  0  0  0  0
 63 75  1  0  0  0  0
 64 76  1  0  0  0  0
 66 67  1  0  0  0  0
M  CHG  1  76   1
M  ISO  4  42 100  62 101  73 100  83 101
M  END
> <Batch ID>
0077

> <Smiles>
C=C1CC([101CH2:1][101O:1]c2ccc3c(c2)CN(C(=O)C(NC(=O)C(C)NC)C(C)(C)C)C(C(=O)NC2CCCc4ccccc42)C3)=CN(c2ccc([100NH:0][100C:0](=O)N3CCCC(n4nc(-c5ccc(Oc6ccc(F)cc6F)cc5)c(C(N)=O)c4N)C3)cc2)C1

> <Shape>
0.328

> <Color>
0.128

> <Negative vol penalty>
0.000

$$$$

  -OEChem-04042323533D

 92101  0     1  0  0  0  0  0999 V2000
  -32.7059  -30.6861   18.1160 C   0  0  0  0  0  0  0  0  0  0  0  0
  -31.9977  -29.4918   18.2029 C   0  0  0  0  0  0  0  0  0  0  0  0
  -23.2471   -9.0709   20.3559 C   0  0  0  0  0  0  0  0  0  0  0  0
  -23.6744  -10.6855   22.1015 C   0  0  0  0  0  0  0  0  0  0  0  0
  -32.5246  -31.6746   19.0824 C   0  0  0  0  0  0  0  0  0  0  0  0
  -31.1086  -29.2849   19.2570 C   0  0  0  0  0  0  0  0  0  0  0  0
  -26.6250  -27.2935   17.7000 C   0  0  0  0  0  0  0  0  0  0  0  0
  -22.3961   -8.3712   21.2113 C   0  0  0  0  0  0  0  0  0  0  0  0
  -22.8233   -9.9859   22.9570 C   0  0  0  0  0  0  0  0  0  0  0  0
  -26.5695  -25.9302   17.4134 C   0  0  0  0  0  0  0  0  0  0  0  0
  -22.6865   -6.1893   23.7763 C   0  0  0  0  0  0  0  0  0  0  0  0
  -22.8125   -4.8009   23.8215 C   0  0  0  0  0  0  0  0  0  0  0  0
  -28.0227  -18.4534   20.5401 C   0  0  0  0  0  0  0  0  0  0  0  0
  -25.6462  -25.5138   19.6026 C   0  0  0  0  0  0  0  0  0  0  0  0
  -30.4231  -18.2902   20.3201 C   0  0  0  0  0  0  0  0  0  0  0  0
  -20.5191   -4.5693   23.0977 C   0  0  0  0  0  0  0  0  0  0  0  0
  -23.8864  -10.2280   20.8010 C   0  0  0  0  0  0  0  0  0  0  0  0
  -28.1332  -19.8318   20.7234 C   0  0  0  0  0  0  0  0  0  0  0  0
  -24.4358  -11.5364   18.6811 C   0  0  0  0  0  0  0  0  0  0  0  0
  -31.6256  -31.4835   20.1435 C   0  0  0  0  0  0  0  0  0  0  0  0
  -26.2005  -27.7773   18.9460 C   0  0  0  0  0  0  0  0  0  0  0  0
  -30.9161  -30.2712   20.2392 C   0  0  0  0  0  0  0  0  0  0  0  0
  -25.6929  -26.8841   19.9006 C   0  0  0  0  0  0  0  0  0  0  0  0
  -29.3886  -20.4394   20.7049 C   0  0  0  0  0  0  0  0  0  0  0  0
  -29.1677  -17.6826   20.3386 C   0  0  0  0  0  0  0  0  0  0  0  0
  -22.1842   -8.8287   22.5118 C   0  0  0  0  0  0  0  0  0  0  0  0
  -26.0822  -25.0399   18.3656 C   0  0  0  0  0  0  0  0  0  0  0  0
  -21.4768   -6.7678   23.3919 C   0  0  0  0  0  0  0  0  0  0  0  0
  -21.7288   -3.9909   23.4822 C   0  0  0  0  0  0  0  0  0  0  0  0
  -30.5336  -19.6686   20.5033 C   0  0  0  0  0  0  0  0  0  0  0  0
  -20.3931   -5.9577   23.0526 C   0  0  0  0  0  0  0  0  0  0  0  0
  -24.7660  -10.9509   19.9180 C   0  0  0  0  0  0  0  0  0  0  0  0
  -25.6102  -12.0974   18.2423 C   0  0  0  0  0  0  0  0  0  0  0  0
  -29.8218  -24.6311   21.3292 C   0  0  0  0  0  0  0  0  0  0  0  0
  -29.2900  -23.7633   22.3716 C   0  0  0  0  0  0  0  0  0  0  0  0
  -30.4332  -25.7989   21.5799 C   0  0  0  0  0  0  0  0  0  0  0  0
  -28.4735  -24.2083   23.3402 C   0  0  0  0  0  0  0  0  0  0  0  0
  -26.8946  -20.6237   20.9376 C   0  0  0  0  0  0  0  0  0  0  0  0
  -23.1797  -11.5703   17.9906 C   0  0  0  0  0  0  0  0  0  0  0  0
  -27.5239  -29.3650   21.3901 C   0  0  0  0  0  0  0  0  0  0  0  0
  -24.3713  -29.3239   22.4451 C   0  0  0  0  0  0  0  0  0  0  0  0
  -25.1840  -31.6488   24.8060 C   0  0  0  0  0  0  0  0  0  0  0  0
  -30.0869  -15.3641   19.9391 C   0  0  0  0  0  0  0  0  0  0  0  0
  -31.4985  -32.5619   21.1902 C   0  0  0  0  0  0  0  0  0  0  0  0
  -26.2404  -29.2557   19.2240 C   0  0  0  0  0  0  0  0  0  0  0  0
  -25.2216  -27.3537   21.2504 C   0  0  0  0  0  0  0  0  0  0  0  0
  -29.6600  -24.0874   19.9351 C   0  0  0  0  0  0  0  0  0  0  0  0
  -29.6878  -22.3092   22.2670 C   0  0  0  0  0  0  0  0  0  0  0  0
  -30.2586  -32.4150   22.0685 C   0  0  0  0  0  0  0  0  0  0  0  0
  -30.2511  -11.6905   20.3086 C   0  0  0  0  0  0  0  0  0  0  0  0
  -30.1070  -30.9727   22.5412 C   0  0  0  0  0  0  0  0  0  0  0  0
  -28.8755  -11.1615   19.8999 C   0  0  0  0  0  0  0  0  0  0  0  0
  -30.1264  -22.6339   19.8256 C   0  0  0  0  0  0  0  0  0  0  0  0
  -30.6350  -12.9695   19.5773 C   0  0  0  0  0  0  0  0  0  0  0  0
  -28.2277  -13.6200   19.8068 C   0  0  0  0  0  0  0  0  0  0  0  0
  -29.9241  -30.0194   21.3540 C   0  0  1  0  0  0  0  0  0  0  0  0
  -26.2036  -29.5980   20.7120 C   0  0  1  0  0  0  0  0  0  0  0  0
  -28.0016  -12.2222   19.2098 C   0  0  2  0  0  0  0  0  0  0  0  0
  -24.1477  -33.1649   26.5163 C   0  0  0  0  0  0  0  0  0  0  0  0
  -24.5613  -21.8132   17.8137 C   0  0  0  0  0  0  0  0  0  0  0  0
  -23.4745  -31.2118   20.2232 C   0  0  0  0  0  0  0  0  0  0  0  0
  -23.3438  -33.0415   21.9271 C   0  0  0  0  0  0  0  0  0  0  0  0
  -21.8834  -31.0308   22.1442 C   0  0  0  0  0  0  0  0  0  0  0  0
  -26.6349  -30.3306   27.0232 C   0  0  0  0  0  0  0  0  0  0  0  0
  -25.4912  -22.4850   20.0881 C   0  0  0  0  0  0  0  0  0  0  0  0
  -24.3582  -30.8222   22.6176 C   0  0  1  0  0  0  0  0  0  0  0  0
  -24.7656  -31.7996   26.2574 C   0  0  2  0  0  0  0  0  0  0  0  0
  -24.9939  -22.9557   18.7232 C   0  0  1  0  0  0  0  0  0  1  0  0
  -23.2893  -31.5123   21.7240 C   0  0  0  0  0  0  0  0  0  0  0  0
  -26.0498  -11.1238   20.2439 N   0  0  0  0  0  0  0  0  0  0  0  0
  -26.5365  -11.8241   19.2053 N   0  0  0  0  0  0  0  0  0  0  0  0
  -29.5186  -21.8219   20.8878 N   0  0  1  0  0  0  0  0  0  0  0  0
  -25.2017  -28.8098   21.4409 N   0  0  0  0  0  0  0  0  0  0  0  0
  -29.6430  -14.0277   19.7886 N   0  0  0  0  0  0  0  0  0  0  0  0
  -25.9305  -12.7927   17.1304 N   0  0  0  0  0  0  0  0  0  0  0  0
  -22.3069  -12.6374   18.2433 N   0  0  0  0  0  0  0  0  0  0  0  0
  -29.0556  -16.2824   20.1520 N   0  0  0  0  0  0  0  0  0  0  0  0
  -26.6371  -21.6189   20.0032 N   0  0  0  0  0  0  0  0  0  0  0  0
  -28.5687  -30.0917   20.8519 N   0  0  0  0  0  0  0  0  0  0  0  0
  -24.1913  -31.0672   24.0460 N   0  0  0  0  0  0  0  0  0  0  0  0
  -25.9439  -31.6391   27.1556 N   0  3  0  0  0  0  0  0  0  0  0  0
  -26.1890  -20.3817   21.9133 O   0  0  0  0  0  0  0  0  0  0  0  0
  -22.8343  -10.6720   17.1861 O   0  0  0  0  0  0  0  0  0  0  0  0
  -27.5896  -28.5848   22.3328 O   0  0  0  0  0  0  0  0  0  0  0  0
  -23.6601  -28.6268   23.1741 O   0  0  0  0  0  0  0  0  0  0  0  0
  -26.2803  -32.0142   24.3874 O   0  0  0  0  0  0  0  0  0  0  0  0
  -31.2836  -15.6577   19.8967 O   0  0  0  0  0  0  0  0  0  0  0  0
  -21.3536   -8.1463   23.3467 O   0  0  0  0  0  0  0  0  0  0  0  0
  -26.0264  -23.7087   18.0883 O   0  0  0  0  0  0  0  0  0  1  0  0
  -21.8504   -2.6576   23.5242 F   0  0  0  0  0  0  0  0  0  0  0  0
  -31.7456  -20.2415   20.4834 F   0  0  0  0  0  0  0  0  0  0  0  0
  -19.2288   -6.5076   22.6813 F   0  0  0  0  0  0  0  0  0  0  0  0
  1  2  1  0  0  0  0
  1  5  2  0  0  0  0
  2  6  2  0  0  0  0
  3  8  2  0  0  0  0
  3 17  1  0  0  0  0
  4  9  1  0  0  0  0
  4 17  2  0  0  0  0
  5 20  1  0  0  0  0
  6 22  1  0  0  0  0
  7 10  2  0  0  0  0
  7 21  1  0  0  0  0
  8 26  1  0  0  0  0
  9 26  2  0  0  0  0
 10 27  1  0  0  0  0
 11 12  2  0  0  0  0
 11 28  1  0  0  0  0
 12 29  1  0  0  0  0
 13 18  1  0  0  0  0
 13 25  2  0  0  0  0
 14 23  1  0  0  0  0
 14 27  2  0  0  0  0
 15 25  1  0  0  0  0
 15 30  2  0  0  0  0
 16 29  2  0  0  0  0
 16 31  1  0  0  0  0
 17 32  1  0  0  0  0
 18 24  2  0  0  0  0
 18 38  1  0  0  0  0
 19 32  1  0  0  0  0
 19 33  2  0  0  0  0
 19 39  1  0  0  0  0
 20 22  2  0  0  0  0
 20 44  1  0  0  0  0
 21 23  2  0  0  0  0
 21 45  1  0  0  0  0
 22 56  1  0  0  0  0
 23 46  1  0  0  0  0
 24 30  1  0  0  0  0
 24 72  1  0  0  0  0
 25 77  1  0  0  0  0
 26 88  1  0  0  0  0
 27 89  1  0  0  0  0
 28 31  2  0  0  0  0
 28 88  1  0  0  0  0
 29 90  1  0  0  0  0
 30 91  1  0  0  0  0
 31 92  1  0  0  0  0
 32 70  2  0  0  0  0
 33 71  1  0  0  0  0
 33 75  1  0  0  0  0
 34 35  1  0  0  0  0
 34 36  2  0  0  0  0
 34 47  1  0  0  0  0
 35 37  2  0  0  0  0
 35 48  1  0  0  0  0
 38 78  1  0  0  0  0
 38 82  2  0  0  0  0
 39 76  1  0  0  0  0
 39 83  2  0  0  0  0
 40 57  1  0  0  0  0
 40 79  1  0  0  0  0
 40 84  2  0  0  0  0
 41 66  1  0  0  0  0
 41 73  1  0  0  0  0
 41 85  2  0  0  0  0
 42 67  1  0  0  0  0
 42 80  1  0  0  0  0
 42 86  2  0  0  0  0
 43 74  1  0  0  0  0
 43 77  1  0  0  0  0
 43 87  2  0  0  0  0
 44 49  1  0  0  0  0
 45 57  1  0  0  0  0
 46 73  1  0  0  0  0
 47 53  1  0  0  0  0
 48 72  1  0  0  0  0
 49 51  1  0  0  0  0
 50 52  1  0  0  0  0
 50 54  1  0  0  0  0
 51 56  1  0  0  0  0
 52 58  1  0  0  0  0
 53 72  1  0  0  0  0
 54 74  1  0  0  0  0
 55 58  1  0  0  0  0
 55 74  1  0  0  0  0
 56 79  1  0  0  0  0
 57 73  1  0  0  0  0
 58 71  1  0  0  0  0
 59 67  1  0  0  0  0
 60 68  1  0  0  0  0
 61 69  1  0  0  0  0
 62 69  1  0  0  0  0
 63 69  1  0  0  0  0
 64 81  1  0  0  0  0
 65 68  1  0  0  0  0
 65 78  1  0  0  0  0
 66 69  1  0  0  0  0
 66 80  1  0  0  0  0
 67 81  1  0  0  0  0
 68 89  1  0  0  0  0
 70 71  1  0  0  0  0
M  CHG  1  81   1
M  ISO  4  43 100  68 101  77 100  89 101
M  END
> <Batch ID>
0077

> <Smiles>
C=C1CCN(c2c(F)cc([100NH:0][100C:0](=O)N3CCCC(n4nc(-c5ccc(Oc6ccc(F)cc6F)cc5)c(C(N)=O)c4N)C3)cc2C(=O)NC[101CH:1](C)[101O:1]c2ccc3c(c2)CN(C(=O)C(NC(=O)C(C)NC)C(C)(C)C)C(C(=O)NC2CCCc4ccccc42)C3)CC1=C

> <Shape>
0.287

> <Color>
0.104

> <Negative vol penalty>
0.000

$$$$

  -OEChem-04042323533D

 87 96  0     1  0  0  0  0  0999 V2000
  -29.4532  -24.0393   19.6628 C   0  0  0  0  0  0  0  0  0  0  0  0
  -28.2435  -24.6301   20.0135 C   0  0  0  0  0  0  0  0  0  0  0  0
  -16.4805  -24.5728   20.6293 C   0  0  0  0  0  0  0  0  0  0  0  0
  -26.6116  -15.0241   21.8790 C   0  0  0  0  0  0  0  0  0  0  0  0
  -26.0977  -15.0963   19.5194 C   0  0  0  0  0  0  0  0  0  0  0  0
  -17.3729  -23.6490   20.0855 C   0  0  0  0  0  0  0  0  0  0  0  0
  -30.5892  -24.2660   20.4386 C   0  0  0  0  0  0  0  0  0  0  0  0
  -28.1689  -25.4472   21.1410 C   0  0  0  0  0  0  0  0  0  0  0  0
  -25.5752  -29.7110   20.2821 C   0  0  0  0  0  0  0  0  0  0  0  0
  -16.9562  -25.7687   21.1672 C   0  0  0  0  0  0  0  0  0  0  0  0
  -26.5358  -13.6315   21.8529 C   0  0  0  0  0  0  0  0  0  0  0  0
  -26.0219  -13.7037   19.4933 C   0  0  0  0  0  0  0  0  0  0  0  0
  -24.1842  -29.6179   20.2664 C   0  0  0  0  0  0  0  0  0  0  0  0
  -23.7949  -11.3132   20.3630 C   0  0  0  0  0  0  0  0  0  0  0  0
  -22.7209  -10.7352   19.6862 C   0  0  0  0  0  0  0  0  0  0  0  0
  -19.2167  -25.1167   20.6178 C   0  0  0  0  0  0  0  0  0  0  0  0
  -24.1082  -30.4641   22.5242 C   0  0  0  0  0  0  0  0  0  0  0  0
  -24.2610   -9.6077   18.2050 C   0  0  0  0  0  0  0  0  0  0  0  0
  -26.3925  -15.7565   20.7123 C   0  0  0  0  0  0  0  0  0  0  0  0
  -18.7410  -23.9209   20.0798 C   0  0  0  0  0  0  0  0  0  0  0  0
  -27.6107  -17.9891   20.5144 C   0  0  0  0  0  0  0  0  0  0  0  0
  -30.5307  -25.0941   21.5707 C   0  0  0  0  0  0  0  0  0  0  0  0
  -26.2449  -30.1718   21.4247 C   0  0  0  0  0  0  0  0  0  0  0  0
  -29.3049  -25.6842   21.9335 C   0  0  0  0  0  0  0  0  0  0  0  0
  -25.5076  -30.5645   22.5509 C   0  0  0  0  0  0  0  0  0  0  0  0
  -18.3242  -26.0406   21.1615 C   0  0  0  0  0  0  0  0  0  0  0  0
  -26.2410  -12.9714   20.6601 C   0  0  0  0  0  0  0  0  0  0  0  0
  -23.4506  -29.9918   21.3886 C   0  0  0  0  0  0  0  0  0  0  0  0
  -25.1020  -11.0385   19.9608 C   0  0  0  0  0  0  0  0  0  0  0  0
  -22.9539   -9.8825   18.6073 C   0  0  0  0  0  0  0  0  0  0  0  0
  -25.3350  -10.1858   18.8818 C   0  0  0  0  0  0  0  0  0  0  0  0
  -26.4701  -17.1950   20.7387 C   0  0  0  0  0  0  0  0  0  0  0  0
  -27.1624  -19.2802   20.6507 C   0  0  0  0  0  0  0  0  0  0  0  0
  -18.9290  -29.3174   22.7102 C   0  0  0  0  0  0  0  0  0  0  0  0
  -20.1697  -28.9262   22.3945 C   0  0  0  0  0  0  0  0  0  0  0  0
  -18.0089  -28.2368   22.2704 C   0  0  0  0  0  0  0  0  0  0  0  0
  -19.6872  -22.9428   19.5034 C   0  0  0  0  0  0  0  0  0  0  0  0
  -28.9552  -17.5949   20.2100 C   0  0  0  0  0  0  0  0  0  0  0  0
  -28.3605  -28.9225   23.4415 C   0  0  0  0  0  0  0  0  0  0  0  0
  -28.3929  -31.9294   24.6581 C   0  0  0  0  0  0  0  0  0  0  0  0
  -26.7744  -34.9054   25.0707 C   0  0  0  0  0  0  0  0  0  0  0  0
  -21.6459  -21.4722   19.9250 C   0  0  0  0  0  0  0  0  0  0  0  0
  -31.7743  -25.2715   22.4053 C   0  0  0  0  0  0  0  0  0  0  0  0
  -27.7442  -30.2916   21.4162 C   0  0  0  0  0  0  0  0  0  0  0  0
  -26.1775  -31.0849   23.7954 C   0  0  0  0  0  0  0  0  0  0  0  0
  -20.1980  -27.5884   21.7341 C   0  0  0  0  0  0  0  0  0  0  0  0
  -31.6965  -26.4511   23.3711 C   0  0  0  0  0  0  0  0  0  0  0  0
  -23.8633  -21.9009   22.8673 C   0  0  0  0  0  0  0  0  0  0  0  0
  -30.3628  -26.4478   24.1114 C   0  0  0  0  0  0  0  0  0  0  0  0
  -24.8398  -20.7487   22.6588 C   0  0  0  0  0  0  0  0  0  0  0  0
  -22.4662  -21.5768   22.3399 C   0  0  0  0  0  0  0  0  0  0  0  0
  -23.4442  -19.9835   20.7025 C   0  0  0  0  0  0  0  0  0  0  0  0
  -29.1896  -26.5967   23.1352 C   0  0  1  0  0  0  0  0  0  0  0  0
  -28.3519  -30.2884   22.8155 C   0  0  1  0  0  0  0  0  0  0  0  0
  -24.8619  -20.3255   21.1831 C   0  0  2  0  0  0  0  0  0  0  0  0
  -18.4211  -30.5466   23.3649 C   0  0  0  0  0  0  0  0  0  0  0  0
  -27.0376  -37.1588   26.1433 C   0  0  0  0  0  0  0  0  0  0  0  0
  -27.7992  -30.6976   27.3858 C   0  0  0  0  0  0  0  0  0  0  0  0
  -27.1417  -32.9744   28.1932 C   0  0  0  0  0  0  0  0  0  0  0  0
  -29.4761  -32.5527   27.4215 C   0  0  0  0  0  0  0  0  0  0  0  0
  -26.5979  -36.2956   22.4639 C   0  0  0  0  0  0  0  0  0  0  0  0
  -21.4474  -29.6479   22.6234 C   0  0  0  0  0  0  0  0  0  1  0  0
  -27.6089  -32.6613   25.7204 C   0  0  1  0  0  0  0  0  0  0  0  0
  -27.2366  -36.3385   24.8782 C   0  0  2  0  0  0  0  0  0  0  0  0
  -27.9936  -32.2099   27.1576 C   0  0  0  0  0  0  0  0  0  0  0  0
  -25.3793  -17.9209   20.9980 N   0  0  0  0  0  0  0  0  0  0  0  0
  -25.8325  -19.1847   20.9376 N   0  0  0  0  0  0  0  0  0  0  0  0
  -18.7972  -27.2320   21.6976 N   0  0  0  0  0  0  0  0  0  0  0  0
  -27.6458  -31.1775   23.7403 N   0  0  0  0  0  0  0  0  0  0  0  0
  -22.4994  -21.0760   20.9589 N   0  0  0  0  0  0  0  0  0  0  0  0
  -27.7801  -20.4765   20.5521 N   0  0  0  0  0  0  0  0  0  0  0  0
  -29.2432  -16.2272   20.1062 N   0  0  0  0  0  0  0  0  0  0  0  0
  -20.6358  -22.4359   20.3061 N   0  0  0  0  0  0  0  0  0  0  0  0
  -29.0544  -27.9746   22.7139 N   0  0  0  0  0  0  0  0  0  0  0  0
  -27.8086  -34.0842   25.4674 N   0  0  0  0  0  0  0  0  0  0  0  0
  -19.5419  -22.6289   18.2162 N   0  3  0  0  0  0  0  0  0  0  0  0
  -26.4730  -36.9852   23.7739 N   0  3  0  0  0  0  0  0  0  0  0  0
  -16.7960  -28.2680   22.4062 O   0  0  0  0  0  0  0  0  0  0  0  0
  -29.8775  -18.4302   20.0514 O   0  0  0  0  0  0  0  0  0  0  0  0
  -27.7818  -28.7423   24.5065 O   0  0  0  0  0  0  0  0  0  0  0  0
  -29.6225  -32.0270   24.6389 O   0  0  0  0  0  0  0  0  0  0  0  0
  -25.6115  -34.5508   24.8909 O   0  0  0  0  0  0  0  0  0  0  0  0
  -21.6770  -21.0517   18.7735 O   0  0  0  0  0  0  0  0  0  0  0  0
  -26.1672  -11.6125   20.6342 O   0  0  0  0  0  0  0  0  0  0  0  0
  -22.0929  -29.9013   21.3762 O   0  0  0  0  0  0  0  0  0  1  0  0
  -21.9225   -9.3263   17.9584 F   0  0  0  0  0  0  0  0  0  0  0  0
  -26.5885   -9.9172   18.4915 F   0  0  0  0  0  0  0  0  0  0  0  0
  1  2  1  0  0  0  0
  1  7  2  0  0  0  0
  2  8  2  0  0  0  0
  3  6  1  0  0  0  0
  3 10  2  0  0  0  0
  4 11  2  0  0  0  0
  4 19  1  0  0  0  0
  5 12  1  0  0  0  0
  5 19  2  0  0  0  0
  6 20  2  0  0  0  0
  7 22  1  0  0  0  0
  8 24  1  0  0  0  0
  9 13  2  0  0  0  0
  9 23  1  0  0  0  0
 10 26  1  0  0  0  0
 11 27  1  0  0  0  0
 12 27  2  0  0  0  0
 13 28  1  0  0  0  0
 14 15  2  0  0  0  0
 14 29  1  0  0  0  0
 15 30  1  0  0  0  0
 16 20  1  0  0  0  0
 16 26  2  0  0  0  0
 17 25  1  0  0  0  0
 17 28  2  0  0  0  0
 18 30  2  0  0  0  0
 18 31  1  0  0  0  0
 19 32  1  0  0  0  0
 20 37  1  0  0  0  0
 21 32  1  0  0  0  0
 21 33  2  0  0  0  0
 21 38  1  0  0  0  0
 22 24  2  0  0  0  0
 22 43  1  0  0  0  0
 23 25  2  0  0  0  0
 23 44  1  0  0  0  0
 24 53  1  0  0  0  0
 25 45  1  0  0  0  0
 26 68  1  0  0  0  0
 27 84  1  0  0  0  0
 28 85  1  0  0  0  0
 29 31  2  0  0  0  0
 29 84  1  0  0  0  0
 30 86  1  0  0  0  0
 31 87  1  0  0  0  0
 32 66  2  0  0  0  0
 33 67  1  0  0  0  0
 33 71  1  0  0  0  0
 34 35  2  0  0  0  0
 34 36  1  0  0  0  0
 34 56  1  0  0  0  0
 35 46  1  0  0  0  0
 35 62  1  0  0  0  0
 36 68  1  0  0  0  0
 36 78  2  0  0  0  0
 37 73  1  0  0  0  0
 37 76  2  0  0  0  0
 38 72  1  0  0  0  0
 38 79  2  0  0  0  0
 39 54  1  0  0  0  0
 39 74  1  0  0  0  0
 39 80  2  0  0  0  0
 40 63  1  0  0  0  0
 40 69  1  0  0  0  0
 40 81  2  0  0  0  0
 41 64  1  0  0  0  0
 41 75  1  0  0  0  0
 41 82  2  0  0  0  0
 42 70  1  0  0  0  0
 42 73  1  0  0  0  0
 42 83  2  0  0  0  0
 43 47  1  0  0  0  0
 44 54  1  0  0  0  0
 45 69  1  0  0  0  0
 46 68  1  0  0  0  0
 47 49  1  0  0  0  0
 48 50  1  0  0  0  0
 48 51  1  0  0  0  0
 49 53  1  0  0  0  0
 50 55  1  0  0  0  0
 51 70  1  0  0  0  0
 52 55  1  0  0  0  0
 52 70  1  0  0  0  0
 53 74  1  0  0  0  0
 54 69  1  0  0  0  0
 55 67  1  0  0  0  0
 57 64  1  0  0  0  0
 58 65  1  0  0  0  0
 59 65  1  0  0  0  0
 60 65  1  0  0  0  0
 61 77  1  0  0  0  0
 62 85  1  0  0  0  0
 63 65  1  0  0  0  0
 63 75  1  0  0  0  0
 64 77  1  0  0  0  0
 66 67  1  0  0  0  0
M  CHG  2  76   1  77   1
M  ISO  4  42 100  62 101  73 100  85 101
M  END
> <Batch ID>
0077

> <Smiles>
CNC(C)C(=O)NC(C(=O)N1Cc2cc([101O:1][101CH2:1]C3=C(C)C(=O)N(c4cccc(C(=N)[100NH:0][100C:0](=O)N5CCCC(n6nc(-c7ccc(Oc8ccc(F)cc8F)cc7)c(C(N)=O)c6N)C5)c4)C3)ccc2CC1C(=O)NC1CCCc2ccccc21)C(C)(C)C

> <Shape>
0.273

> <Color>
0.088

> <Negative vol penalty>
0.000

$$$$

  -OEChem-04042323533D

 86 95  0     1  0  0  0  0  0999 V2000
  -17.5445  -26.1986   23.0392 C   0  0  0  0  0  0  0  0  0  0  0  0
  -18.6381  -25.9451   22.2175 C   0  0  0  0  0  0  0  0  0  0  0  0
  -26.2221  -13.7972   20.4266 C   0  0  0  0  0  0  0  0  0  0  0  0
  -26.3343  -15.0830   18.3843 C   0  0  0  0  0  0  0  0  0  0  0  0
  -17.2289  -27.5097   23.3931 C   0  0  0  0  0  0  0  0  0  0  0  0
  -19.4162  -27.0029   21.7483 C   0  0  0  0  0  0  0  0  0  0  0  0
  -25.4625  -26.9767   20.7752 C   0  0  0  0  0  0  0  0  0  0  0  0
  -29.9522  -23.4287   17.3478 C   0  0  0  0  0  0  0  0  0  0  0  0
  -30.0683  -24.6985   19.3999 C   0  0  0  0  0  0  0  0  0  0  0  0
  -30.1660  -22.2512   18.0643 C   0  0  0  0  0  0  0  0  0  0  0  0
  -30.2821  -23.5210   20.1164 C   0  0  0  0  0  0  0  0  0  0  0  0
  -24.9243  -13.3998   20.1052 C   0  0  0  0  0  0  0  0  0  0  0  0
  -25.0365  -14.6855   18.0628 C   0  0  0  0  0  0  0  0  0  0  0  0
  -26.2261  -26.8086   19.6208 C   0  0  0  0  0  0  0  0  0  0  0  0
  -23.4426  -11.1410   18.0717 C   0  0  0  0  0  0  0  0  0  0  0  0
  -23.1170   -9.7948   18.2376 C   0  0  0  0  0  0  0  0  0  0  0  0
  -26.3815  -29.2041   19.3822 C   0  0  0  0  0  0  0  0  0  0  0  0
  -21.3888  -10.4068   19.8111 C   0  0  0  0  0  0  0  0  0  0  0  0
  -26.9271  -14.6389   19.5662 C   0  0  0  0  0  0  0  0  0  0  0  0
  -29.4667  -14.3983   19.5533 C   0  0  0  0  0  0  0  0  0  0  0  0
  -18.0093  -28.5833   22.9359 C   0  0  0  0  0  0  0  0  0  0  0  0
  -25.1430  -28.2618   21.2364 C   0  0  0  0  0  0  0  0  0  0  0  0
  -19.1100  -28.3297   22.0954 C   0  0  0  0  0  0  0  0  0  0  0  0
  -25.6159  -29.3857   20.5441 C   0  0  0  0  0  0  0  0  0  0  0  0
  -29.9034  -24.6524   18.0156 C   0  0  0  0  0  0  0  0  0  0  0  0
  -30.3309  -22.2973   19.4486 C   0  0  0  0  0  0  0  0  0  0  0  0
  -24.3315  -13.8439   18.9232 C   0  0  0  0  0  0  0  0  0  0  0  0
  -26.6833  -27.9224   18.9225 C   0  0  0  0  0  0  0  0  0  0  0  0
  -22.7413  -12.1200   18.7755 C   0  0  0  0  0  0  0  0  0  0  0  0
  -22.0901   -9.4278   19.1073 C   0  0  0  0  0  0  0  0  0  0  0  0
  -21.7144  -11.7530   19.6452 C   0  0  0  0  0  0  0  0  0  0  0  0
  -28.2675  -15.0502   19.8980 C   0  0  0  0  0  0  0  0  0  0  0  0
  -30.4531  -15.1823   20.1000 C   0  0  0  0  0  0  0  0  0  0  0  0
  -28.9498  -25.9359   16.1035 C   0  0  0  0  0  0  0  0  0  0  0  0
  -30.2016  -27.0997   17.6493 C   0  0  0  0  0  0  0  0  0  0  0  0
  -29.6707  -13.1921   18.8056 C   0  0  0  0  0  0  0  0  0  0  0  0
  -22.4420  -29.8748   21.6909 C   0  0  0  0  0  0  0  0  0  0  0  0
  -24.4350  -32.0823   22.9859 C   0  0  0  0  0  0  0  0  0  0  0  0
  -27.5825  -33.3882   23.1730 C   0  0  0  0  0  0  0  0  0  0  0  0
  -30.7308  -20.9716   21.5531 C   0  0  0  0  0  0  0  0  0  0  0  0
  -17.6011  -29.9871   23.3066 C   0  0  0  0  0  0  0  0  0  0  0  0
  -24.3409  -28.4263   22.4982 C   0  0  0  0  0  0  0  0  0  0  0  0
  -25.3176  -30.7869   21.0089 C   0  0  0  0  0  0  0  0  0  0  0  0
  -29.1004  -27.3280   15.5561 C   0  0  0  0  0  0  0  0  0  0  0  0
  -18.6982  -31.0224   23.0725 C   0  0  0  0  0  0  0  0  0  0  0  0
  -31.2557  -18.2026   23.7288 C   0  0  0  0  0  0  0  0  0  0  0  0
  -19.3316  -30.8276   21.6986 C   0  0  0  0  0  0  0  0  0  0  0  0
  -30.6636  -17.0196   22.9594 C   0  0  0  0  0  0  0  0  0  0  0  0
  -30.4434  -19.4792   23.5191 C   0  0  0  0  0  0  0  0  0  0  0  0
  -29.6196  -18.6612   21.3462 C   0  0  0  0  0  0  0  0  0  0  0  0
  -19.9928  -29.4485   21.5865 C   0  0  1  0  0  0  0  0  0  0  0  0
  -23.6421  -29.7792   22.5899 C   0  0  1  0  0  0  0  0  0  0  0  0
  -30.4408  -17.3678   21.4745 C   0  0  2  0  0  0  0  0  0  0  0  0
  -29.5677  -28.1495   16.7546 C   0  0  2  0  0  0  0  0  0  0  0  0
  -30.5761  -29.2210   16.3469 C   0  0  0  0  0  0  0  0  0  0  0  0
  -28.8950  -35.2128   24.2889 C   0  0  0  0  0  0  0  0  0  0  0  0
  -23.1968  -34.1285   21.0912 C   0  0  0  0  0  0  0  0  0  0  0  0
  -25.1407  -35.6352   21.5598 C   0  0  0  0  0  0  0  0  0  0  0  0
  -23.6068  -34.9688   23.4107 C   0  0  0  0  0  0  0  0  0  0  0  0
  -29.3734  -31.4444   24.5046 C   0  0  0  0  0  0  0  0  0  0  0  0
  -28.3830  -28.7787   17.4966 C   0  0  0  0  0  0  0  0  0  1  0  0
  -25.2109  -33.2638   22.4557 C   0  0  1  0  0  0  0  0  0  0  0  0
  -28.4494  -33.7606   24.3621 C   0  0  2  0  0  0  0  0  0  0  0  0
  -24.2929  -34.4728   22.1193 C   0  0  0  0  0  0  0  0  0  0  0  0
  -28.4712  -16.1625   20.6089 N   0  0  0  0  0  0  0  0  0  0  0  0
  -29.8099  -16.2156   20.7154 N   0  0  0  0  0  0  0  0  0  0  0  0
  -29.6843  -25.8615   17.2801 N   0  0  0  0  0  0  0  0  0  0  0  0
  -24.5244  -30.8957   22.2444 N   0  0  0  0  0  0  0  0  0  0  0  0
  -30.2766  -19.7481   22.0891 N   0  0  0  0  0  0  0  0  0  0  0  0
  -31.7993  -15.0816   20.1097 N   0  0  0  0  0  0  0  0  0  0  0  0
  -28.5476  -12.5113   18.3162 N   0  0  0  0  0  0  0  0  0  0  0  0
  -30.5481  -21.1013   20.1767 N   0  0  0  0  0  0  0  0  0  0  0  0
  -21.2664  -29.4413   22.2737 N   0  0  0  0  0  0  0  0  0  0  0  0
  -26.2413  -33.5535   23.4470 N   0  0  0  0  0  0  0  0  0  0  0  0
  -29.6639  -32.8981   24.4080 N   0  3  0  0  0  0  0  0  0  0  0  0
  -28.2772  -25.0824   15.5413 O   0  0  0  0  0  0  0  0  0  0  0  0
  -31.0211  -27.3685   18.5184 O   0  0  0  0  0  0  0  0  0  0  0  0
  -30.8143  -12.7228   18.5923 O   0  0  0  0  0  0  0  0  0  0  0  0
  -22.5725  -30.3109   20.5531 O   0  0  0  0  0  0  0  0  0  0  0  0
  -23.7797  -32.2056   24.0237 O   0  0  0  0  0  0  0  0  0  0  0  0
  -28.0486  -32.9938   22.1063 O   0  0  0  0  0  0  0  0  0  0  0  0
  -31.2688  -21.8292   22.2582 O   0  0  0  0  0  0  0  0  0  0  0  0
  -23.0652  -13.4561   18.6091 O   0  0  0  0  0  0  0  0  0  0  0  0
  -27.4282  -27.7612   17.7952 O   0  0  0  0  0  0  0  0  0  1  0  0
  -21.7765   -8.1351   19.2654 F   0  0  0  0  0  0  0  0  0  0  0  0
  -21.0364  -12.6891   20.3232 F   0  0  0  0  0  0  0  0  0  0  0  0
  1  2  1  0  0  0  0
  1  5  2  0  0  0  0
  2  6  2  0  0  0  0
  3 12  2  0  0  0  0
  3 19  1  0  0  0  0
  4 13  1  0  0  0  0
  4 19  2  0  0  0  0
  5 21  1  0  0  0  0
  6 23  1  0  0  0  0
  7 14  2  0  0  0  0
  7 22  1  0  0  0  0
  8 10  2  0  0  0  0
  8 25  1  0  0  0  0
  9 11  1  0  0  0  0
  9 25  2  0  0  0  0
 10 26  1  0  0  0  0
 11 26  2  0  0  0  0
 12 27  1  0  0  0  0
 13 27  2  0  0  0  0
 14 28  1  0  0  0  0
 15 16  2  0  0  0  0
 15 29  1  0  0  0  0
 16 30  1  0  0  0  0
 17 24  1  0  0  0  0
 17 28  2  0  0  0  0
 18 30  2  0  0  0  0
 18 31  1  0  0  0  0
 19 32  1  0  0  0  0
 20 32  1  0  0  0  0
 20 33  2  0  0  0  0
 20 36  1  0  0  0  0
 21 23  2  0  0  0  0
 21 41  1  0  0  0  0
 22 24  2  0  0  0  0
 22 42  1  0  0  0  0
 23 51  1  0  0  0  0
 24 43  1  0  0  0  0
 25 67  1  0  0  0  0
 26 72  1  0  0  0  0
 27 83  1  0  0  0  0
 28 84  1  0  0  0  0
 29 31  2  0  0  0  0
 29 83  1  0  0  0  0
 30 85  1  0  0  0  0
 31 86  1  0  0  0  0
 32 65  2  0  0  0  0
 33 66  1  0  0  0  0
 33 70  1  0  0  0  0
 34 44  1  0  0  0  0
 34 67  1  0  0  0  0
 34 76  2  0  0  0  0
 35 54  1  0  0  0  0
 35 67  1  0  0  0  0
 35 77  2  0  0  0  0
 36 71  1  0  0  0  0
 36 78  2  0  0  0  0
 37 52  1  0  0  0  0
 37 73  1  0  0  0  0
 37 79  2  0  0  0  0
 38 62  1  0  0  0  0
 38 68  1  0  0  0  0
 38 80  2  0  0  0  0
 39 63  1  0  0  0  0
 39 74  1  0  0  0  0
 39 81  2  0  0  0  0
 40 69  1  0  0  0  0
 40 72  1  0  0  0  0
 40 82  2  0  0  0  0
 41 45  1  0  0  0  0
 42 52  1  0  0  0  0
 43 68  1  0  0  0  0
 44 54  1  0  0  0  0
 45 47  1  0  0  0  0
 46 48  1  0  0  0  0
 46 49  1  0  0  0  0
 47 51  1  0  0  0  0
 48 53  1  0  0  0  0
 49 69  1  0  0  0  0
 50 53  1  0  0  0  0
 50 69  1  0  0  0  0
 51 73  1  0  0  0  0
 52 68  1  0  0  0  0
 53 66  1  0  0  0  0
 54 55  1  0  0  0  0
 54 61  1  0  0  0  0
 56 63  1  0  0  0  0
 57 64  1  0  0  0  0
 58 64  1  0  0  0  0
 59 64  1  0  0  0  0
 60 75  1  0  0  0  0
 61 84  1  0  0  0  0
 62 64  1  0  0  0  0
 62 74  1  0  0  0  0
 63 75  1  0  0  0  0
 65 66  1  0  0  0  0
M  CHG  1  75   1
M  ISO  4  40 100  61 101  72 100  84 101
M  END
> <Batch ID>
0077

> <Smiles>
CNC(C)C(=O)NC(C(=O)N1Cc2cc([101O:1][101CH2:1]C3(C)CC(=O)N(c4ccc([100NH:0][100C:0](=O)N5CCCC(n6nc(-c7ccc(Oc8ccc(F)cc8F)cc7)c(C(N)=O)c6N)C5)cc4)C3=O)ccc2CC1C(=O)NC1CCCc2ccccc21)C(C)(C)C

> <Shape>
0.307

> <Color>
0.094

> <Negative vol penalty>
0.000

$$$$

  -OEChem-04042323533D

 88 97  0     1  0  0  0  0  0999 V2000
  -22.5501  -30.9042   24.5884 C   0  0  0  0  0  0  0  0  0  0  0  0
  -22.1758  -29.5978   24.2903 C   0  0  0  0  0  0  0  0  0  0  0  0
  -29.5798  -16.6708   23.5370 C   0  0  0  0  0  0  0  0  0  0  0  0
  -31.4769  -18.1178   23.1572 C   0  0  0  0  0  0  0  0  0  0  0  0
  -23.3825  -31.6056   23.7172 C   0  0  0  0  0  0  0  0  0  0  0  0
  -22.6330  -28.9925   23.1202 C   0  0  0  0  0  0  0  0  0  0  0  0
  -24.0494  -23.0854   22.3420 C   0  0  0  0  0  0  0  0  0  0  0  0
  -25.4628  -16.2766   17.6076 C   0  0  0  0  0  0  0  0  0  0  0  0
  -26.4876  -15.5825   16.9646 C   0  0  0  0  0  0  0  0  0  0  0  0
  -30.1302  -16.2685   24.7539 C   0  0  0  0  0  0  0  0  0  0  0  0
  -32.0274  -17.7155   24.3741 C   0  0  0  0  0  0  0  0  0  0  0  0
  -23.3402  -22.0143   21.8003 C   0  0  0  0  0  0  0  0  0  0  0  0
  -30.3952  -17.4935   27.8943 C   0  0  0  0  0  0  0  0  0  0  0  0
  -29.5490  -17.4380   29.0017 C   0  0  0  0  0  0  0  0  0  0  0  0
  -24.4360  -22.3685   19.6807 C   0  0  0  0  0  0  0  0  0  0  0  0
  -26.5467  -13.9885   18.7792 C   0  0  0  0  0  0  0  0  0  0  0  0
  -30.0142  -15.0791   29.2390 C   0  0  0  0  0  0  0  0  0  0  0  0
  -30.2532  -17.5954   22.7386 C   0  0  0  0  0  0  0  0  0  0  0  0
  -28.8146  -19.0944   21.2584 C   0  0  0  0  0  0  0  0  0  0  0  0
  -23.8578  -31.0053   22.5406 C   0  0  0  0  0  0  0  0  0  0  0  0
  -24.9507  -23.8143   21.5527 C   0  0  0  0  0  0  0  0  0  0  0  0
  -23.4714  -29.6871   22.2318 C   0  0  0  0  0  0  0  0  0  0  0  0
  -25.1573  -23.4469   20.2154 C   0  0  0  0  0  0  0  0  0  0  0  0
  -24.9799  -15.8267   18.8365 C   0  0  0  0  0  0  0  0  0  0  0  0
  -27.0296  -14.4384   17.5503 C   0  0  0  0  0  0  0  0  0  0  0  0
  -31.3540  -16.7908   25.1725 C   0  0  0  0  0  0  0  0  0  0  0  0
  -23.5313  -21.6575   20.4687 C   0  0  0  0  0  0  0  0  0  0  0  0
  -31.0509  -16.3418   27.4591 C   0  0  0  0  0  0  0  0  0  0  0  0
  -29.3585  -16.2308   29.6741 C   0  0  0  0  0  0  0  0  0  0  0  0
  -25.5219  -14.6826   19.4222 C   0  0  0  0  0  0  0  0  0  0  0  0
  -30.8604  -15.1346   28.1315 C   0  0  0  0  0  0  0  0  0  0  0  0
  -29.6854  -18.0110   21.4813 C   0  0  0  0  0  0  0  0  0  0  0  0
  -28.5681  -19.0645   19.9075 C   0  0  0  0  0  0  0  0  0  0  0  0
  -22.9880  -15.9508   20.3298 C   0  0  0  0  0  0  0  0  0  0  0  0
  -23.7376  -17.9161   19.3883 C   0  0  0  0  0  0  0  0  0  0  0  0
  -28.2768  -20.0432   22.1892 C   0  0  0  0  0  0  0  0  0  0  0  0
  -25.1525  -26.8364   20.5886 C   0  0  0  0  0  0  0  0  0  0  0  0
  -28.0124  -25.8607   19.4089 C   0  0  0  0  0  0  0  0  0  0  0  0
  -29.9653  -23.2896   18.3033 C   0  0  0  0  0  0  0  0  0  0  0  0
  -29.0309  -14.3408   16.0415 C   0  0  0  0  0  0  0  0  0  0  0  0
  -24.7172  -31.8196   21.6062 C   0  0  0  0  0  0  0  0  0  0  0  0
  -25.7278  -24.9503   22.1594 C   0  0  0  0  0  0  0  0  0  0  0  0
  -26.1284  -24.1843   19.3314 C   0  0  0  0  0  0  0  0  0  0  0  0
  -22.1732  -17.0498   20.9530 C   0  0  0  0  0  0  0  0  0  0  0  0
  -25.4614  -30.9772   20.5735 C   0  0  0  0  0  0  0  0  0  0  0  0
  -30.5096  -17.7205   15.7516 C   0  0  0  0  0  0  0  0  0  0  0  0
  -24.5204  -29.9600   19.9360 C   0  0  0  0  0  0  0  0  0  0  0  0
  -30.4666  -18.2341   17.1895 C   0  0  0  0  0  0  0  0  0  0  0  0
  -30.6257  -16.2003   15.6964 C   0  0  0  0  0  0  0  0  0  0  0  0
  -29.5095  -16.0070   17.9005 C   0  0  0  0  0  0  0  0  0  0  0  0
  -23.9667  -28.9877   20.9846 C   0  0  1  0  0  0  0  0  0  0  0  0
  -26.2386  -25.9458   21.1223 C   0  0  1  0  0  0  0  0  0  0  0  0
  -29.3519  -17.5327   17.9830 C   0  0  1  0  0  0  0  0  0  0  0  0
  -22.4063  -18.2487   20.0377 C   0  0  2  0  0  0  0  0  0  0  0  0
  -21.3339  -18.3349   18.9457 C   0  0  0  0  0  0  0  0  0  0  0  0
  -32.0284  -22.1168   17.4875 C   0  0  0  0  0  0  0  0  0  0  0  0
  -27.1346  -26.9707   16.7056 C   0  0  0  0  0  0  0  0  0  0  0  0
  -28.9741  -25.6460   15.6428 C   0  0  0  0  0  0  0  0  0  0  0  0
  -29.5205  -27.4310   17.2974 C   0  0  0  0  0  0  0  0  0  0  0  0
  -28.0286  -12.2609   16.8788 C   0  0  0  0  0  0  0  0  0  0  0  0
  -30.8696  -22.7139   21.0619 C   0  0  0  0  0  0  0  0  0  0  0  0
  -22.4776  -19.5553   20.8243 C   0  0  0  0  0  0  0  0  0  1  0  0
  -28.4845  -25.2698   18.1024 C   0  0  1  0  0  0  0  0  0  0  0  0
  -31.3963  -22.9002   18.6274 C   0  0  2  0  0  0  0  0  0  0  0  0
  -28.5086  -26.3165   16.9529 C   0  0  0  0  0  0  0  0  0  0  0  0
  -29.9725  -17.3415   20.3617 N   0  0  0  0  0  0  0  0  0  0  0  0
  -29.2782  -18.0060   19.4224 N   0  0  0  0  0  0  0  0  0  0  0  0
  -23.9277  -16.5414   19.4945 N   0  0  0  0  0  0  0  0  0  0  0  0
  -26.8598  -25.2917   19.9689 N   0  0  0  0  0  0  0  0  0  0  0  0
  -29.5947  -15.5474   16.5046 N   0  0  0  0  0  0  0  0  0  0  0  0
  -27.8152  -19.8407   19.0993 N   0  0  0  0  0  0  0  0  0  0  0  0
  -28.6330  -19.9295   23.5400 N   0  0  0  0  0  0  0  0  0  0  0  0
  -24.9595  -27.9906   21.3234 N   0  0  0  0  0  0  0  0  0  0  0  0
  -29.7781  -24.6537   18.3768 N   0  0  0  0  0  0  0  0  0  0  0  0
  -28.0895  -13.7208   16.8851 N   0  0  0  0  0  0  0  0  0  0  0  0
  -31.4383  -22.0581   19.8563 N   0  3  0  0  0  0  0  0  0  0  0  0
  -22.7867  -14.7692   20.5753 O   0  0  0  0  0  0  0  0  0  0  0  0
  -24.4653  -18.7619   18.8843 O   0  0  0  0  0  0  0  0  0  0  0  0
  -27.4904  -20.9544   21.8362 O   0  0  0  0  0  0  0  0  0  0  0  0
  -24.5363  -26.5019   19.5835 O   0  0  0  0  0  0  0  0  0  0  0  0
  -28.6470  -26.7881   19.9175 O   0  0  0  0  0  0  0  0  0  0  0  0
  -29.1010  -22.4664   18.0103 O   0  0  0  0  0  0  0  0  0  0  0  0
  -29.3824  -13.8211   14.9752 O   0  0  0  0  0  0  0  0  0  0  0  0
  -31.8912  -16.3987   26.3599 O   0  0  0  0  0  0  0  0  0  0  0  0
  -22.8398  -20.6128   19.9373 O   0  0  0  0  0  0  0  0  0  1  0  0
  -28.5471  -16.1780   30.7385 F   0  0  0  0  0  0  0  0  0  0  0  0
  -25.0660  -14.2413   20.6035 F   0  0  0  0  0  0  0  0  0  0  0  0
  -31.4885  -14.0251   27.7188 F   0  0  0  0  0  0  0  0  0  0  0  0
  1  2  1  0  0  0  0
  1  5  2  0  0  0  0
  2  6  2  0  0  0  0
  3 10  2  0  0  0  0
  3 18  1  0  0  0  0
  4 11  1  0  0  0  0
  4 18  2  0  0  0  0
  5 20  1  0  0  0  0
  6 22  1  0  0  0  0
  7 12  2  0  0  0  0
  7 21  1  0  0  0  0
  8  9  2  0  0  0  0
  8 24  1  0  0  0  0
  9 25  1  0  0  0  0
 10 26  1  0  0  0  0
 11 26  2  0  0  0  0
 12 27  1  0  0  0  0
 13 14  2  0  0  0  0
 13 28  1  0  0  0  0
 14 29  1  0  0  0  0
 15 23  1  0  0  0  0
 15 27  2  0  0  0  0
 16 25  2  0  0  0  0
 16 30  1  0  0  0  0
 17 29  2  0  0  0  0
 17 31  1  0  0  0  0
 18 32  1  0  0  0  0
 19 32  1  0  0  0  0
 19 33  2  0  0  0  0
 19 36  1  0  0  0  0
 20 22  2  0  0  0  0
 20 41  1  0  0  0  0
 21 23  2  0  0  0  0
 21 42  1  0  0  0  0
 22 51  1  0  0  0  0
 23 43  1  0  0  0  0
 24 30  2  0  0  0  0
 24 68  1  0  0  0  0
 25 75  1  0  0  0  0
 26 84  1  0  0  0  0
 27 85  1  0  0  0  0
 28 31  2  0  0  0  0
 28 84  1  0  0  0  0
 29 86  1  0  0  0  0
 30 87  1  0  0  0  0
 31 88  1  0  0  0  0
 32 66  2  0  0  0  0
 33 67  1  0  0  0  0
 33 71  1  0  0  0  0
 34 44  1  0  0  0  0
 34 68  1  0  0  0  0
 34 77  2  0  0  0  0
 35 54  1  0  0  0  0
 35 68  1  0  0  0  0
 35 78  2  0  0  0  0
 36 72  1  0  0  0  0
 36 79  2  0  0  0  0
 37 52  1  0  0  0  0
 37 73  1  0  0  0  0
 37 80  2  0  0  0  0
 38 63  1  0  0  0  0
 38 69  1  0  0  0  0
 38 81  2  0  0  0  0
 39 64  1  0  0  0  0
 39 74  1  0  0  0  0
 39 82  2  0  0  0  0
 40 70  1  0  0  0  0
 40 75  1  0  0  0  0
 40 83  2  0  0  0  0
 41 45  1  0  0  0  0
 42 52  1  0  0  0  0
 43 69  1  0  0  0  0
 44 54  1  0  0  0  0
 45 47  1  0  0  0  0
 46 48  1  0  0  0  0
 46 49  1  0  0  0  0
 47 51  1  0  0  0  0
 48 53  1  0  0  0  0
 49 70  1  0  0  0  0
 50 53  1  0  0  0  0
 50 70  1  0  0  0  0
 51 73  1  0  0  0  0
 52 69  1  0  0  0  0
 53 67  1  0  0  0  0
 54 55  1  0  0  0  0
 54 62  1  0  0  0  0
 56 64  1  0  0  0  0
 57 65  1  0  0  0  0
 58 65  1  0  0  0  0
 59 65  1  0  0  0  0
 60 75  1  0  0  0  0
 61 76  1  0  0  0  0
 62 85  1  0  0  0  0
 63 65  1  0  0  0  0
 63 74  1  0  0  0  0
 64 76  1  0  0  0  0
 66 67  1  0  0  0  0
M  CHG  1  76   1
M  ISO  4  40 100  62 101  75 100  85 101
M  END
> <Batch ID>
0077

> <Smiles>
CNC(C)C(=O)NC(C(=O)N1Cc2cc([101O:1][101CH2:1]C3(C)CC(=O)N(c4ccc([100N:0](C)[100C:0](=O)N5CCCC(n6nc(-c7ccc(Oc8ccc(F)cc8F)cc7)c(C(N)=O)c6N)C5)cc4F)C3=O)ccc2CC1C(=O)NC1CCCc2ccccc21)C(C)(C)C

> <Shape>
0.176

> <Color>
0.067

> <Negative vol penalty>
0.000

$$$$

  -OEChem-04042323533D

 86 95  0     1  0  0  0  0  0999 V2000
  -30.2804  -21.0012   22.7590 C   0  0  0  0  0  0  0  0  0  0  0  0
  -28.9275  -21.1589   22.4759 C   0  0  0  0  0  0  0  0  0  0  0  0
  -29.6308  -26.5411   18.2213 C   0  0  0  0  0  0  0  0  0  0  0  0
  -29.5342  -25.6842   20.4781 C   0  0  0  0  0  0  0  0  0  0  0  0
  -30.9260  -19.8101   22.4298 C   0  0  0  0  0  0  0  0  0  0  0  0
  -28.2196  -20.1259   21.8625 C   0  0  0  0  0  0  0  0  0  0  0  0
  -23.7136  -19.3079   24.0238 C   0  0  0  0  0  0  0  0  0  0  0  0
  -30.9892  -26.2300   18.1612 C   0  0  0  0  0  0  0  0  0  0  0  0
  -30.8926  -25.3731   20.4181 C   0  0  0  0  0  0  0  0  0  0  0  0
  -22.6844  -20.1927   23.7050 C   0  0  0  0  0  0  0  0  0  0  0  0
  -34.2536  -24.0223   20.7305 C   0  0  0  0  0  0  0  0  0  0  0  0
  -34.6559  -22.7757   21.2098 C   0  0  0  0  0  0  0  0  0  0  0  0
  -21.8049  -18.5923   22.1288 C   0  0  0  0  0  0  0  0  0  0  0  0
  -20.0606  -27.0726   22.6761 C   0  0  0  0  0  0  0  0  0  0  0  0
  -17.7653  -27.7270   22.3024 C   0  0  0  0  0  0  0  0  0  0  0  0
  -19.5151  -29.3928   22.2811 C   0  0  0  0  0  0  0  0  0  0  0  0
  -33.2381  -21.6919   19.5812 C   0  0  0  0  0  0  0  0  0  0  0  0
  -28.9033  -26.2683   19.3797 C   0  0  0  0  0  0  0  0  0  0  0  0
  -26.4211  -25.7610   19.0818 C   0  0  0  0  0  0  0  0  0  0  0  0
  -30.2235  -18.7583   21.8208 C   0  0  0  0  0  0  0  0  0  0  0  0
  -23.8025  -18.0609   23.3885 C   0  0  0  0  0  0  0  0  0  0  0  0
  -28.8568  -18.9201   21.5237 C   0  0  0  0  0  0  0  0  0  0  0  0
  -22.8347  -17.6924   22.4432 C   0  0  0  0  0  0  0  0  0  0  0  0
  -18.7122  -26.7355   22.5587 C   0  0  0  0  0  0  0  0  0  0  0  0
  -20.4621  -28.4012   22.5374 C   0  0  0  0  0  0  0  0  0  0  0  0
  -31.6201  -25.6460   19.2597 C   0  0  0  0  0  0  0  0  0  0  0  0
  -21.7315  -19.8362   22.7553 C   0  0  0  0  0  0  0  0  0  0  0  0
  -33.3434  -24.1037   19.6766 C   0  0  0  0  0  0  0  0  0  0  0  0
  -34.1482  -21.6105   20.6352 C   0  0  0  0  0  0  0  0  0  0  0  0
  -18.1667  -29.0557   22.1636 C   0  0  0  0  0  0  0  0  0  0  0  0
  -32.8357  -22.9385   19.1019 C   0  0  0  0  0  0  0  0  0  0  0  0
  -27.5002  -26.5899   19.4425 C   0  0  0  0  0  0  0  0  0  0  0  0
  -25.3055  -26.5244   19.3249 C   0  0  0  0  0  0  0  0  0  0  0  0
  -16.9923  -23.5198   22.7992 C   0  0  0  0  0  0  0  0  0  0  0  0
  -18.3710  -23.1265   23.0224 C   0  0  0  0  0  0  0  0  0  0  0  0
  -15.9104  -22.7314   22.7746 C   0  0  0  0  0  0  0  0  0  0  0  0
  -18.8429  -21.8959   23.2503 C   0  0  0  0  0  0  0  0  0  0  0  0
  -26.4265  -24.4207   18.5727 C   0  0  0  0  0  0  0  0  0  0  0  0
  -25.9443  -16.6463   21.5136 C   0  0  0  0  0  0  0  0  0  0  0  0
  -23.9760  -14.0902   21.8519 C   0  0  0  0  0  0  0  0  0  0  0  0
  -20.8440  -12.9145   22.5266 C   0  0  0  0  0  0  0  0  0  0  0  0
  -22.3979  -30.0133   22.5463 C   0  0  0  0  0  0  0  0  0  0  0  0
  -30.9753  -17.5073   21.4407 C   0  0  0  0  0  0  0  0  0  0  0  0
  -24.9034  -17.1069   23.7631 C   0  0  0  0  0  0  0  0  0  0  0  0
  -22.8737  -16.3572   21.7474 C   0  0  0  0  0  0  0  0  0  0  0  0
  -16.9345  -25.0052   22.5862 C   0  0  0  0  0  0  0  0  0  0  0  0
  -19.2450  -24.3461   22.9599 C   0  0  0  0  0  0  0  0  0  0  0  0
  -30.0662  -16.3203   21.1328 C   0  0  0  0  0  0  0  0  0  0  0  0
  -24.8558  -31.4487   20.4072 C   0  0  0  0  0  0  0  0  0  0  0  0
  -28.9250  -16.7459   20.2145 C   0  0  0  0  0  0  0  0  0  0  0  0
  -25.6741  -30.2444   19.9359 C   0  0  0  0  0  0  0  0  0  0  0  0
  -24.4113  -31.2984   21.8610 C   0  0  0  0  0  0  0  0  0  0  0  0
  -24.5252  -28.8429   21.6974 C   0  0  0  0  0  0  0  0  0  0  0  0
  -28.0490  -17.8132   20.8815 C   0  0  1  0  0  0  0  0  0  0  0  0
  -25.1913  -16.0718   22.6800 C   0  0  1  0  0  0  0  0  0  0  0  0
  -24.9404  -28.9189   20.2190 C   0  0  2  0  0  0  0  0  0  0  0  0
  -19.5341  -10.7804   22.6911 C   0  0  0  0  0  0  0  0  0  0  0  0
  -23.8920  -13.9101   18.8072 C   0  0  0  0  0  0  0  0  0  0  0  0
  -21.8835  -12.4305   19.0197 C   0  0  0  0  0  0  0  0  0  0  0  0
  -24.0702  -11.7074   19.9780 C   0  0  0  0  0  0  0  0  0  0  0  0
  -20.2129  -13.3858   25.3794 C   0  0  0  0  0  0  0  0  0  0  0  0
  -20.2862  -21.5844   23.4701 C   0  0  0  0  0  0  0  0  0  1  0  0
  -22.7739  -13.5607   21.1080 C   0  0  1  0  0  0  0  0  0  0  0  0
  -20.3598  -11.8093   23.4477 C   0  0  2  0  0  0  0  0  0  0  0  0
  -23.1550  -12.9282   19.7397 C   0  0  0  0  0  0  0  0  0  0  0  0
  -27.1058  -27.7882   19.8812 N   0  0  0  0  0  0  0  0  0  0  0  0
  -25.7663  -27.7179   19.7976 N   0  0  0  0  0  0  0  0  0  0  0  0
  -18.3215  -25.4431   22.6941 N   0  0  3  0  0  0  0  0  0  0  0  0
  -23.9732  -15.4617   22.1432 N   0  0  0  0  0  0  0  0  0  0  0  0
  -23.7199  -30.0218   22.0533 N   0  0  0  0  0  0  0  0  0  0  0  0
  -23.9851  -26.2847   19.1781 N   0  0  0  0  0  0  0  0  0  0  0  0
  -27.6602  -23.7832   18.3827 N   0  0  0  0  0  0  0  0  0  0  0  0
  -21.8319  -28.7436   22.6565 N   0  0  0  0  0  0  0  0  0  0  0  0
  -27.1620  -17.2059   21.8505 N   0  0  0  0  0  0  0  0  0  0  0  0
  -22.0987  -12.6457   22.0219 N   0  0  0  0  0  0  0  0  0  0  0  0
  -19.5186  -12.3762   24.5395 N   0  3  0  0  0  0  0  0  0  0  0  0
  -25.3695  -23.8124   18.2791 O   0  0  0  0  0  0  0  0  0  0  0  0
  -25.4572  -16.5852   20.3907 O   0  0  0  0  0  0  0  0  0  0  0  0
  -24.8808  -13.3142   22.1693 O   0  0  0  0  0  0  0  0  0  0  0  0
  -20.1746  -13.9145   22.2768 O   0  0  0  0  0  0  0  0  0  0  0  0
  -21.8017  -31.0573   22.8227 O   0  0  0  0  0  0  0  0  0  0  0  0
  -32.9455  -25.3421   19.2014 O   0  0  0  0  0  0  0  0  0  0  0  0
  -20.7264  -20.6983   22.4417 O   0  0  0  0  0  0  0  0  0  1  0  0
  -34.5359  -20.4135   21.0945 F   0  0  0  0  0  0  0  0  0  0  0  0
  -17.2577  -30.0080   21.9162 F   0  0  0  0  0  0  0  0  0  0  0  0
  -31.9620  -23.0104   18.0884 F   0  0  0  0  0  0  0  0  0  0  0  0
  1  2  1  0  0  0  0
  1  5  2  0  0  0  0
  2  6  2  0  0  0  0
  3  8  2  0  0  0  0
  3 18  1  0  0  0  0
  4  9  1  0  0  0  0
  4 18  2  0  0  0  0
  5 20  1  0  0  0  0
  6 22  1  0  0  0  0
  7 10  2  0  0  0  0
  7 21  1  0  0  0  0
  8 26  1  0  0  0  0
  9 26  2  0  0  0  0
 10 27  1  0  0  0  0
 11 12  2  0  0  0  0
 11 28  1  0  0  0  0
 12 29  1  0  0  0  0
 13 23  1  0  0  0  0
 13 27  2  0  0  0  0
 14 24  2  0  0  0  0
 14 25  1  0  0  0  0
 15 24  1  0  0  0  0
 15 30  2  0  0  0  0
 16 25  2  0  0  0  0
 16 30  1  0  0  0  0
 17 29  2  0  0  0  0
 17 31  1  0  0  0  0
 18 32  1  0  0  0  0
 19 32  1  0  0  0  0
 19 33  2  0  0  0  0
 19 38  1  0  0  0  0
 20 22  2  0  0  0  0
 20 43  1  0  0  0  0
 21 23  2  0  0  0  0
 21 44  1  0  0  0  0
 22 54  1  0  0  0  0
 23 45  1  0  0  0  0
 24 68  1  0  0  0  0
 25 73  1  0  0  0  0
 26 82  1  0  0  0  0
 27 83  1  0  0  0  0
 28 31  2  0  0  0  0
 28 82  1  0  0  0  0
 29 84  1  0  0  0  0
 30 85  1  0  0  0  0
 31 86  1  0  0  0  0
 32 66  2  0  0  0  0
 33 67  1  0  0  0  0
 33 71  1  0  0  0  0
 34 35  1  0  0  0  0
 34 36  2  0  0  0  0
 34 46  1  0  0  0  0
 35 37  2  0  0  0  0
 35 47  1  0  0  0  0
 37 62  1  0  0  0  0
 38 72  1  0  0  0  0
 38 77  2  0  0  0  0
 39 55  1  0  0  0  0
 39 74  1  0  0  0  0
 39 78  2  0  0  0  0
 40 63  1  0  0  0  0
 40 69  1  0  0  0  0
 40 79  2  0  0  0  0
 41 64  1  0  0  0  0
 41 75  1  0  0  0  0
 41 80  2  0  0  0  0
 42 70  1  0  0  0  0
 42 73  1  0  0  0  0
 42 81  2  0  0  0  0
 43 48  1  0  0  0  0
 44 55  1  0  0  0  0
 45 69  1  0  0  0  0
 46 68  1  0  0  0  0
 47 68  1  0  0  0  0
 48 50  1  0  0  0  0
 49 51  1  0  0  0  0
 49 52  1  0  0  0  0
 50 54  1  0  0  0  0
 51 56  1  0  0  0  0
 52 70  1  0  0  0  0
 53 56  1  0  0  0  0
 53 70  1  0  0  0  0
 54 74  1  0  0  0  0
 55 69  1  0  0  0  0
 56 67  1  0  0  0  0
 57 64  1  0  0  0  0
 58 65  1  0  0  0  0
 59 65  1  0  0  0  0
 60 65  1  0  0  0  0
 61 76  1  0  0  0  0
 62 83  1  0  0  0  0
 63 65  1  0  0  0  0
 63 75  1  0  0  0  0
 64 76  1  0  0  0  0
 66 67  1  0  0  0  0
M  CHG  1  76   1
M  ISO  4  42 100  62 101  73 100  83 101
M  END
> <Batch ID>
0077

> <Smiles>
C=C1CN(c2cc(F)cc([100NH:0][100C:0](=O)N3CCCC(n4nc(-c5ccc(Oc6ccc(F)cc6F)cc5)c(C(N)=O)c4N)C3)c2)CC1=C[101CH2:1][101O:1]c1ccc2c(c1)CN(C(=O)C(NC(=O)C(C)NC)C(C)(C)C)C(C(=O)NC1CCCc3ccccc31)C2

> <Shape>
0.219

> <Color>
0.070

> <Negative vol penalty>
0.000

$$$$

  -OEChem-04042323533D

 87 96  0     1  0  0  0  0  0999 V2000
  -17.9838  -32.6392   25.0358 C   0  0  0  0  0  0  0  0  0  0  0  0
  -19.3447  -32.4113   25.2128 C   0  0  0  0  0  0  0  0  0  0  0  0
  -28.8367  -19.5204   16.6384 C   0  0  0  0  0  0  0  0  0  0  0  0
  -23.0900  -10.2840   20.6015 C   0  0  0  0  0  0  0  0  0  0  0  0
  -24.3561   -9.0743   22.2661 C   0  0  0  0  0  0  0  0  0  0  0  0
  -17.1967  -31.6862   24.3908 C   0  0  0  0  0  0  0  0  0  0  0  0
  -19.9191  -31.2296   24.7458 C   0  0  0  0  0  0  0  0  0  0  0  0
  -26.0352  -28.6964   22.0085 C   0  0  0  0  0  0  0  0  0  0  0  0
  -28.5372  -20.5708   17.5060 C   0  0  0  0  0  0  0  0  0  0  0  0
  -28.9825  -18.2253   17.1354 C   0  0  0  0  0  0  0  0  0  0  0  0
  -22.2086   -9.2087   20.4905 C   0  0  0  0  0  0  0  0  0  0  0  0
  -23.4746   -7.9990   22.1551 C   0  0  0  0  0  0  0  0  0  0  0  0
  -26.9650  -27.6773   22.2103 C   0  0  0  0  0  0  0  0  0  0  0  0
  -20.3879   -7.1858   23.2649 C   0  0  0  0  0  0  0  0  0  0  0  0
  -19.9376   -6.5945   24.4452 C   0  0  0  0  0  0  0  0  0  0  0  0
  -25.5224  -26.1378   21.0406 C   0  0  0  0  0  0  0  0  0  0  0  0
  -28.5293  -19.0308   19.3676 C   0  0  0  0  0  0  0  0  0  0  0  0
  -20.8987   -4.4876   23.7563 C   0  0  0  0  0  0  0  0  0  0  0  0
  -24.1639  -10.2168   21.4893 C   0  0  0  0  0  0  0  0  0  0  0  0
  -24.9722  -12.4242   22.4800 C   0  0  0  0  0  0  0  0  0  0  0  0
  -17.7635  -30.4965   23.9070 C   0  0  0  0  0  0  0  0  0  0  0  0
  -24.8352  -28.4409   21.3296 C   0  0  0  0  0  0  0  0  0  0  0  0
  -19.1386  -30.2591   24.0949 C   0  0  0  0  0  0  0  0  0  0  0  0
  -24.5803  -27.1560   20.8292 C   0  0  0  0  0  0  0  0  0  0  0  0
  -28.3835  -20.3260   18.8706 C   0  0  0  0  0  0  0  0  0  0  0  0
  -28.8288  -17.9805   18.5000 C   0  0  0  0  0  0  0  0  0  0  0  0
  -22.4008   -8.0662   21.2673 C   0  0  0  0  0  0  0  0  0  0  0  0
  -26.7074  -26.3971   21.7289 C   0  0  0  0  0  0  0  0  0  0  0  0
  -21.0936   -6.4281   22.3303 C   0  0  0  0  0  0  0  0  0  0  0  0
  -20.1929   -5.2454   24.6909 C   0  0  0  0  0  0  0  0  0  0  0  0
  -21.3490   -5.0790   22.5760 C   0  0  0  0  0  0  0  0  0  0  0  0
  -25.0751  -11.3270   21.6041 C   0  0  0  0  0  0  0  0  0  0  0  0
  -26.0759  -13.1920   22.1998 C   0  0  0  0  0  0  0  0  0  0  0  0
  -27.9809  -23.4748   20.6404 C   0  0  0  0  0  0  0  0  0  0  0  0
  -27.2510  -22.5722   21.5412 C   0  0  0  0  0  0  0  0  0  0  0  0
  -28.5054  -22.7023   19.4961 C   0  0  0  0  0  0  0  0  0  0  0  0
  -23.9686  -12.7226   23.4596 C   0  0  0  0  0  0  0  0  0  0  0  0
  -28.1457  -24.7894   20.8248 C   0  0  0  0  0  0  0  0  0  1  0  0
  -21.7525  -28.5839   22.0915 C   0  0  0  0  0  0  0  0  0  0  0  0
  -21.3438  -27.9248   18.9417 C   0  0  0  0  0  0  0  0  0  0  0  0
  -22.6195  -26.5894   16.0719 C   0  0  0  0  0  0  0  0  0  0  0  0
  -29.2826  -15.5569   18.1600 C   0  0  0  0  0  0  0  0  0  0  0  0
  -16.8635  -29.4749   23.2582 C   0  0  0  0  0  0  0  0  0  0  0  0
  -23.8546  -29.5574   21.0967 C   0  0  0  0  0  0  0  0  0  0  0  0
  -23.3161  -26.8347   20.0761 C   0  0  0  0  0  0  0  0  0  0  0  0
  -27.3029  -21.1849   20.9725 C   0  0  0  0  0  0  0  0  0  0  0  0
  -17.6200  -28.4158   22.4605 C   0  0  0  0  0  0  0  0  0  0  0  0
  -30.1742  -12.2062   19.4202 C   0  0  0  0  0  0  0  0  0  0  0  0
  -18.8009  -27.8833   23.2660 C   0  0  0  0  0  0  0  0  0  0  0  0
  -28.8913  -11.7507   20.1134 C   0  0  0  0  0  0  0  0  0  0  0  0
  -29.8858  -13.1564   18.2617 C   0  0  0  0  0  0  0  0  0  0  0  0
  -27.7786  -13.8833   19.3394 C   0  0  0  0  0  0  0  0  0  0  0  0
  -19.8030  -29.0006   23.5803 C   0  0  1  0  0  0  0  0  0  0  0  0
  -22.4346  -29.0619   20.8409 C   0  0  1  0  0  0  0  0  0  0  0  0
  -28.0386  -12.9587   20.5383 C   0  0  1  0  0  0  0  0  0  0  0  0
  -28.8976  -25.6701   19.8795 C   0  0  0  0  0  0  0  0  0  0  0  0
  -22.0366  -26.1631   13.6686 C   0  0  0  0  0  0  0  0  0  0  0  0
  -19.5686  -25.5921   19.7886 C   0  0  0  0  0  0  0  0  0  0  0  0
  -19.7993  -24.6669   17.4736 C   0  0  0  0  0  0  0  0  0  0  0  0
  -18.7211  -26.8887   17.8252 C   0  0  0  0  0  0  0  0  0  0  0  0
  -29.0564  -16.4512   20.4663 C   0  0  0  0  0  0  0  0  0  0  0  0
  -24.8502  -28.2800   15.1103 C   0  0  0  0  0  0  0  0  0  0  0  0
  -21.2220  -26.6641   18.1203 C   0  0  1  0  0  0  0  0  0  0  0  0
  -22.6831  -27.1252   14.6530 C   0  0  2  0  0  0  0  0  0  0  0  0
  -19.8508  -25.9582   18.3178 C   0  0  0  0  0  0  0  0  0  0  0  0
  -26.1586  -11.3886   20.8255 N   0  0  0  0  0  0  0  0  0  0  0  0
  -26.7466  -12.5339   21.2112 N   0  0  0  0  0  0  0  0  0  0  0  0
  -28.0839  -21.3754   19.7363 N   0  0  0  0  0  0  0  0  0  0  0  0
  -22.3856  -27.9585   19.8795 N   0  0  0  0  0  0  0  0  0  0  0  0
  -29.0361  -14.2712   18.6821 N   0  0  0  0  0  0  0  0  0  0  0  0
  -26.5285  -14.3593   22.7049 N   0  0  0  0  0  0  0  0  0  0  0  0
  -22.9025  -11.8267   23.6182 N   0  0  0  0  0  0  0  0  0  0  0  0
  -20.6133  -29.2946   22.4178 N   0  0  0  0  0  0  0  0  0  0  0  0
  -21.5040  -27.0468   16.7410 N   0  0  0  0  0  0  0  0  0  0  0  0
  -28.9798  -16.6396   19.0139 N   0  0  0  0  0  0  0  0  0  0  0  0
  -24.1000  -27.3363   14.2421 N   0  3  0  0  0  0  0  0  0  0  0  0
  -26.6965  -22.8957   22.5774 O   0  0  0  0  0  0  0  0  0  0  0  0
  -29.1558  -23.1494   18.5676 O   0  0  0  0  0  0  0  0  0  0  0  0
  -24.0071  -13.7615   24.1615 O   0  0  0  0  0  0  0  0  0  0  0  0
  -22.2240  -27.6391   22.7135 O   0  0  0  0  0  0  0  0  0  0  0  0
  -20.5484  -28.8486   18.7532 O   0  0  0  0  0  0  0  0  0  0  0  0
  -23.4719  -25.8371   16.5387 O   0  0  0  0  0  0  0  0  0  0  0  0
  -29.7629  -15.7221   17.0323 O   0  0  0  0  0  0  0  0  0  0  0  0
  -21.5407   -7.0168   21.1593 O   0  0  0  0  0  0  0  0  0  0  0  0
  -27.6129  -25.4004   21.9251 O   0  0  0  0  0  0  0  0  0  1  0  0
  -19.7618   -4.6780   25.8251 F   0  0  0  0  0  0  0  0  0  0  0  0
  -22.0274   -4.3462   21.6824 F   0  0  0  0  0  0  0  0  0  0  0  0
  1  2  1  0  0  0  0
  1  6  2  0  0  0  0
  2  7  2  0  0  0  0
  3  9  2  0  0  0  0
  3 10  1  0  0  0  0
  4 11  2  0  0  0  0
  4 19  1  0  0  0  0
  5 12  1  0  0  0  0
  5 19  2  0  0  0  0
  6 21  1  0  0  0  0
  7 23  1  0  0  0  0
  8 13  2  0  0  0  0
  8 22  1  0  0  0  0
  9 25  1  0  0  0  0
 10 26  2  0  0  0  0
 11 27  1  0  0  0  0
 12 27  2  0  0  0  0
 13 28  1  0  0  0  0
 14 15  2  0  0  0  0
 14 29  1  0  0  0  0
 15 30  1  0  0  0  0
 16 24  1  0  0  0  0
 16 28  2  0  0  0  0
 17 25  2  0  0  0  0
 17 26  1  0  0  0  0
 18 30  2  0  0  0  0
 18 31  1  0  0  0  0
 19 32  1  0  0  0  0
 20 32  1  0  0  0  0
 20 33  2  0  0  0  0
 20 37  1  0  0  0  0
 21 23  2  0  0  0  0
 21 43  1  0  0  0  0
 22 24  2  0  0  0  0
 22 44  1  0  0  0  0
 23 53  1  0  0  0  0
 24 45  1  0  0  0  0
 25 68  1  0  0  0  0
 26 75  1  0  0  0  0
 27 84  1  0  0  0  0
 28 85  1  0  0  0  0
 29 31  2  0  0  0  0
 29 84  1  0  0  0  0
 30 86  1  0  0  0  0
 31 87  1  0  0  0  0
 32 66  2  0  0  0  0
 33 67  1  0  0  0  0
 33 71  1  0  0  0  0
 34 35  1  0  0  0  0
 34 36  1  0  0  0  0
 34 38  2  0  0  0  0
 35 46  1  0  0  0  0
 35 77  2  0  0  0  0
 36 68  1  0  0  0  0
 36 78  2  0  0  0  0
 37 72  1  0  0  0  0
 37 79  2  0  0  0  0
 38 56  1  0  0  0  0
 38 85  1  0  0  0  0
 39 54  1  0  0  0  0
 39 73  1  0  0  0  0
 39 80  2  0  0  0  0
 40 63  1  0  0  0  0
 40 69  1  0  0  0  0
 40 81  2  0  0  0  0
 41 64  1  0  0  0  0
 41 74  1  0  0  0  0
 41 82  2  0  0  0  0
 42 70  1  0  0  0  0
 42 75  1  0  0  0  0
 42 83  2  0  0  0  0
 43 47  1  0  0  0  0
 44 54  1  0  0  0  0
 45 69  1  0  0  0  0
 46 68  1  0  0  0  0
 47 49  1  0  0  0  0
 48 50  1  0  0  0  0
 48 51  1  0  0  0  0
 49 53  1  0  0  0  0
 50 55  1  0  0  0  0
 51 70  1  0  0  0  0
 52 55  1  0  0  0  0
 52 70  1  0  0  0  0
 53 73  1  0  0  0  0
 54 69  1  0  0  0  0
 55 67  1  0  0  0  0
 57 64  1  0  0  0  0
 58 65  1  0  0  0  0
 59 65  1  0  0  0  0
 60 65  1  0  0  0  0
 61 75  1  0  0  0  0
 62 76  1  0  0  0  0
 63 65  1  0  0  0  0
 63 74  1  0  0  0  0
 64 76  1  0  0  0  0
 66 67  1  0  0  0  0
M  CHG  1  76   1
M  ISO  4  38 101  42 100  75 100  85 101
M  END
> <Batch ID>
0077

> <Smiles>
CNC(C)C(=O)NC(C(=O)N1Cc2cc([101O:1][101C:1](C)=C3C(=O)CN(c4cccc([100N:0](C)[100C:0](=O)N5CCCC(n6nc(-c7ccc(Oc8ccc(F)cc8F)cc7)c(C(N)=O)c6N)C5)c4)C3=O)ccc2CC1C(=O)NC1CCCc2ccccc21)C(C)(C)C

> <Shape>
0.281

> <Color>
0.127

> <Negative vol penalty>
0.000

$$$$

  -OEChem-04042323533D

 90 99  0     1  0  0  0  0  0999 V2000
  -23.3730  -36.6162   22.5786 C   0  0  0  0  0  0  0  0  0  0  0  0
  -24.3751  -35.7167   22.2289 C   0  0  0  0  0  0  0  0  0  0  0  0
  -24.1551   -8.8233   20.2863 C   0  0  0  0  0  0  0  0  0  0  0  0
  -22.9871  -10.5709   21.4774 C   0  0  0  0  0  0  0  0  0  0  0  0
  -22.2497  -36.1707   23.2741 C   0  0  0  0  0  0  0  0  0  0  0  0
  -24.2549  -34.3714   22.5755 C   0  0  0  0  0  0  0  0  0  0  0  0
  -26.2006  -29.5485   19.3414 C   0  0  0  0  0  0  0  0  0  0  0  0
  -29.6833  -20.1687   21.9574 C   0  0  0  0  0  0  0  0  0  0  0  0
  -29.7290  -18.7751   21.9206 C   0  0  0  0  0  0  0  0  0  0  0  0
  -23.2108   -7.8944   20.7230 C   0  0  0  0  0  0  0  0  0  0  0  0
  -22.0427   -9.6419   21.9142 C   0  0  0  0  0  0  0  0  0  0  0  0
  -27.3452  -28.7577   19.4330 C   0  0  0  0  0  0  0  0  0  0  0  0
  -22.5522   -6.1500   23.5422 C   0  0  0  0  0  0  0  0  0  0  0  0
  -23.0211   -4.9280   24.0243 C   0  0  0  0  0  0  0  0  0  0  0  0
  -26.1218  -27.1501   20.7514 C   0  0  0  0  0  0  0  0  0  0  0  0
  -28.0552  -20.1625   20.1724 C   0  0  0  0  0  0  0  0  0  0  0  0
  -21.7791   -3.7728   22.3038 C   0  0  0  0  0  0  0  0  0  0  0  0
  -24.0434  -10.1616   20.6635 C   0  0  0  0  0  0  0  0  0  0  0  0
  -24.9723  -11.8928   19.0363 C   0  0  0  0  0  0  0  0  0  0  0  0
  -22.1111  -34.8175   23.6209 C   0  0  0  0  0  0  0  0  0  0  0  0
  -25.0089  -29.1506   19.9643 C   0  0  0  0  0  0  0  0  0  0  0  0
  -23.1293  -33.9077   23.2775 C   0  0  0  0  0  0  0  0  0  0  0  0
  -24.9627  -27.9364   20.6640 C   0  0  0  0  0  0  0  0  0  0  0  0
  -28.1008  -18.7689   20.1356 C   0  0  0  0  0  0  0  0  0  0  0  0
  -28.8464  -20.8624   21.0833 C   0  0  0  0  0  0  0  0  0  0  0  0
  -28.9378  -18.0752   21.0097 C   0  0  0  0  0  0  0  0  0  0  0  0
  -22.1545   -8.3037   21.5370 C   0  0  0  0  0  0  0  0  0  0  0  0
  -27.3067  -27.5598   20.1405 C   0  0  0  0  0  0  0  0  0  0  0  0
  -21.6967   -6.1834   22.4410 C   0  0  0  0  0  0  0  0  0  0  0  0
  -22.6346   -3.7394   23.4051 C   0  0  0  0  0  0  0  0  0  0  0  0
  -21.3102   -4.9948   21.8218 C   0  0  0  0  0  0  0  0  0  0  0  0
  -25.0189  -11.1216   20.2131 C   0  0  0  0  0  0  0  0  0  0  0  0
  -26.1238  -12.6406   19.0701 C   0  0  0  0  0  0  0  0  0  0  0  0
  -28.5835  -24.4685   20.5407 C   0  0  0  0  0  0  0  0  0  0  0  0
  -28.8902  -24.4498   21.9489 C   0  0  0  0  0  0  0  0  0  0  0  0
  -28.5251  -23.0755   20.0164 C   0  0  0  0  0  0  0  0  0  0  0  0
  -29.0293  -25.4865   22.7822 C   0  0  0  0  0  0  0  0  0  0  0  0
  -23.9770  -11.9299   18.0050 C   0  0  0  0  0  0  0  0  0  0  0  0
  -28.3664  -25.5144   19.7355 C   0  0  0  0  0  0  0  0  0  1  0  0
  -23.1627  -30.3577   22.2530 C   0  0  0  0  0  0  0  0  0  0  0  0
  -21.2199  -27.8875   21.4494 C   0  0  0  0  0  0  0  0  0  0  0  0
  -20.9022  -24.7799   20.0751 C   0  0  0  0  0  0  0  0  0  0  0  0
  -29.7791  -15.8350   21.7973 C   0  0  0  0  0  0  0  0  0  0  0  0
  -20.9011  -34.3917   24.4141 C   0  0  0  0  0  0  0  0  0  0  0  0
  -23.7757  -30.0018   19.8336 C   0  0  0  0  0  0  0  0  0  0  0  0
  -23.7027  -27.4544   21.3336 C   0  0  0  0  0  0  0  0  0  0  0  0
  -29.0349  -23.0123   22.3479 C   0  0  0  0  0  0  0  0  0  0  0  0
  -20.6741  -32.8821   24.4155 C   0  0  0  0  0  0  0  0  0  0  0  0
  -30.1802  -12.3085   22.0796 C   0  0  0  0  0  0  0  0  0  0  0  0
  -21.9798  -32.1462   24.6993 C   0  0  0  0  0  0  0  0  0  0  0  0
  -28.8693  -11.7488   21.5224 C   0  0  0  0  0  0  0  0  0  0  0  0
  -29.9569  -13.5988   22.8663 C   0  0  0  0  0  0  0  0  0  0  0  0
  -27.9062  -14.0843   21.5904 C   0  0  0  0  0  0  0  0  0  0  0  0
  -23.0236  -32.4361   23.6139 C   0  0  1  0  0  0  0  0  0  0  0  0
  -22.7561  -29.7504   20.9402 C   0  0  1  0  0  0  0  0  0  0  0  0
  -28.0887  -12.8196   20.7354 C   0  0  2  0  0  0  0  0  0  0  0  0
  -28.0551  -25.3871   18.2790 C   0  0  0  0  0  0  0  0  0  0  0  0
  -19.1960  -23.0038   19.5939 C   0  0  0  0  0  0  0  0  0  0  0  0
  -21.2196  -27.0930   24.3954 C   0  0  0  0  0  0  0  0  0  0  0  0
  -20.3291  -24.8529   23.7193 C   0  0  0  0  0  0  0  0  0  0  0  0
  -18.9957  -26.9118   23.2658 C   0  0  0  0  0  0  0  0  0  0  0  0
  -21.3851  -24.9425   17.1598 C   0  0  0  0  0  0  0  0  0  0  0  0
  -21.0722  -26.4537   21.8982 C   0  0  1  0  0  0  0  0  0  0  0  0
  -19.9248  -24.2248   19.0548 C   0  0  2  0  0  0  0  0  0  0  0  0
  -27.2411  -18.0447   19.1511 C   0  0  0  0  0  0  0  0  0  0  0  0
  -20.4285  -26.3376   23.3088 C   0  0  0  0  0  0  0  0  0  0  0  0
  -26.1135  -11.3575   20.9412 N   0  0  0  0  0  0  0  0  0  0  0  0
  -26.7654  -12.2854   20.2200 N   0  0  0  0  0  0  0  0  0  0  0  0
  -28.7990  -22.2523   21.1220 N   0  0  0  0  0  0  0  0  0  0  0  0
  -22.5250  -28.3249   21.1826 N   0  0  0  0  0  0  0  0  0  0  0  0
  -29.2154  -14.5678   22.0564 N   0  0  0  0  0  0  0  0  0  0  0  0
  -26.6401  -13.5607   18.2279 N   0  0  0  0  0  0  0  0  0  0  0  0
  -22.8567  -11.0967   18.1273 N   0  0  0  0  0  0  0  0  0  0  0  0
  -28.9972  -16.6596   20.9891 N   0  0  0  0  0  0  0  0  0  0  0  0
  -22.7425  -31.6631   22.4231 N   0  0  0  0  0  0  0  0  0  0  0  0
  -20.3296  -25.7705   20.8445 N   0  0  0  0  0  0  0  0  0  0  0  0
  -20.6433  -23.8316   17.8098 N   0  3  0  0  0  0  0  0  0  0  0  0
  -28.2872  -22.7527   18.8646 O   0  0  0  0  0  0  0  0  0  0  0  0
  -24.0861  -12.6678   16.9964 O   0  0  0  0  0  0  0  0  0  0  0  0
  -23.8084  -29.6909   23.0530 O   0  0  0  0  0  0  0  0  0  0  0  0
  -20.2136  -28.5913   21.3327 O   0  0  0  0  0  0  0  0  0  0  0  0
  -22.0569  -24.3726   20.1816 O   0  0  0  0  0  0  0  0  0  0  0  0
  -30.8870  -16.1544   22.2361 O   0  0  0  0  0  0  0  0  0  0  0  0
  -21.2327   -7.3975   21.9632 O   0  0  0  0  0  0  0  0  0  0  0  0
  -28.4227  -26.7864   20.2321 O   0  0  0  0  0  0  0  0  0  1  0  0
  -23.0862   -2.5660   23.8671 F   0  0  0  0  0  0  0  0  0  0  0  0
  -20.4894   -5.0207   20.7628 F   0  0  0  0  0  0  0  0  0  0  0  0
  -26.4839  -18.8741   18.3755 F   0  0  0  0  0  0  0  0  0  0  0  0
  -27.9488  -17.2781   18.2713 F   0  0  0  0  0  0  0  0  0  0  0  0
  -26.3592  -17.1961   19.7529 F   0  0  0  0  0  0  0  0  0  0  0  0
  1  2  1  0  0  0  0
  1  5  2  0  0  0  0
  2  6  2  0  0  0  0
  3 10  2  0  0  0  0
  3 18  1  0  0  0  0
  4 11  1  0  0  0  0
  4 18  2  0  0  0  0
  5 20  1  0  0  0  0
  6 22  1  0  0  0  0
  7 12  2  0  0  0  0
  7 21  1  0  0  0  0
  8  9  2  0  0  0  0
  8 25  1  0  0  0  0
  9 26  1  0  0  0  0
 10 27  1  0  0  0  0
 11 27  2  0  0  0  0
 12 28  1  0  0  0  0
 13 14  2  0  0  0  0
 13 29  1  0  0  0  0
 14 30  1  0  0  0  0
 15 23  1  0  0  0  0
 15 28  2  0  0  0  0
 16 24  1  0  0  0  0
 16 25  2  0  0  0  0
 17 30  2  0  0  0  0
 17 31  1  0  0  0  0
 18 32  1  0  0  0  0
 19 32  1  0  0  0  0
 19 33  2  0  0  0  0
 19 38  1  0  0  0  0
 20 22  2  0  0  0  0
 20 44  1  0  0  0  0
 21 23  2  0  0  0  0
 21 45  1  0  0  0  0
 22 54  1  0  0  0  0
 23 46  1  0  0  0  0
 24 26  2  0  0  0  0
 24 65  1  0  0  0  0
 25 69  1  0  0  0  0
 26 74  1  0  0  0  0
 27 84  1  0  0  0  0
 28 85  1  0  0  0  0
 29 31  2  0  0  0  0
 29 84  1  0  0  0  0
 30 86  1  0  0  0  0
 31 87  1  0  0  0  0
 32 67  2  0  0  0  0
 33 68  1  0  0  0  0
 33 72  1  0  0  0  0
 34 35  1  0  0  0  0
 34 36  1  0  0  0  0
 34 39  2  0  0  0  0
 35 37  2  0  0  0  0
 35 47  1  0  0  0  0
 36 69  1  0  0  0  0
 36 78  2  0  0  0  0
 38 73  1  0  0  0  0
 38 79  2  0  0  0  0
 39 57  1  0  0  0  0
 39 85  1  0  0  0  0
 40 55  1  0  0  0  0
 40 75  1  0  0  0  0
 40 80  2  0  0  0  0
 41 63  1  0  0  0  0
 41 70  1  0  0  0  0
 41 81  2  0  0  0  0
 42 64  1  0  0  0  0
 42 76  1  0  0  0  0
 42 82  2  0  0  0  0
 43 71  1  0  0  0  0
 43 74  1  0  0  0  0
 43 83  2  0  0  0  0
 44 48  1  0  0  0  0
 45 55  1  0  0  0  0
 46 70  1  0  0  0  0
 47 69  1  0  0  0  0
 48 50  1  0  0  0  0
 49 51  1  0  0  0  0
 49 52  1  0  0  0  0
 50 54  1  0  0  0  0
 51 56  1  0  0  0  0
 52 71  1  0  0  0  0
 53 56  1  0  0  0  0
 53 71  1  0  0  0  0
 54 75  1  0  0  0  0
 55 70  1  0  0  0  0
 56 68  1  0  0  0  0
 58 64  1  0  0  0  0
 59 66  1  0  0  0  0
 60 66  1  0  0  0  0
 61 66  1  0  0  0  0
 62 77  1  0  0  0  0
 63 66  1  0  0  0  0
 63 76  1  0  0  0  0
 64 77  1  0  0  0  0
 65 88  1  0  0  0  0
 65 89  1  0  0  0  0
 65 90  1  0  0  0  0
 67 68  1  0  0  0  0
M  CHG  1  77   1
M  ISO  4  39 101  43 100  74 100  85 101
M  END
> <Batch ID>
0077

> <Smiles>
C=C1CN(c2ccc([100NH:0][100C:0](=O)N3CCCC(n4nc(-c5ccc(Oc6ccc(F)cc6F)cc5)c(C(N)=O)c4N)C3)c(C(F)(F)F)c2)C(=O)C1=[101C:1](C)[101O:1]c1ccc2c(c1)CN(C(=O)C(NC(=O)C(C)NC)C(C)(C)C)C(C(=O)NC1CCCc3ccccc31)C2

> <Shape>
0.314

> <Color>
0.117

> <Negative vol penalty>
0.000

$$$$

  -OEChem-04042323533D

 85 93  0     1  0  0  0  0  0999 V2000
  -18.3714  -18.4175   19.0283 C   0  0  0  0  0  0  0  0  0  0  0  0
  -19.2329  -18.8215   20.0432 C   0  0  0  0  0  0  0  0  0  0  0  0
  -32.6517  -17.4907   23.4565 C   0  0  0  0  0  0  0  0  0  0  0  0
  -23.0736   -9.8698   19.9414 C   0  0  0  0  0  0  0  0  0  0  0  0
  -23.8315   -9.8778   22.2354 C   0  0  0  0  0  0  0  0  0  0  0  0
  -31.8539  -18.3591   24.2015 C   0  0  0  0  0  0  0  0  0  0  0  0
  -17.1792  -19.1073   18.8117 C   0  0  0  0  0  0  0  0  0  0  0  0
  -18.9032  -19.9163   20.8414 C   0  0  0  0  0  0  0  0  0  0  0  0
  -19.7285  -19.0512   25.7623 C   0  0  0  0  0  0  0  0  0  0  0  0
  -32.0638  -16.6058   22.5526 C   0  0  0  0  0  0  0  0  0  0  0  0
  -22.3286   -8.7174   20.1915 C   0  0  0  0  0  0  0  0  0  0  0  0
  -23.0865   -8.7255   22.4856 C   0  0  0  0  0  0  0  0  0  0  0  0
  -21.0463  -19.1304   26.2105 C   0  0  0  0  0  0  0  0  0  0  0  0
  -19.3785   -7.9242   21.6408 C   0  0  0  0  0  0  0  0  0  0  0  0
  -18.0720   -7.8786   21.1544 C   0  0  0  0  0  0  0  0  0  0  0  0
  -29.8803  -17.4576   23.1389 C   0  0  0  0  0  0  0  0  0  0  0  0
  -20.6205  -21.3509   27.0514 C   0  0  0  0  0  0  0  0  0  0  0  0
  -18.6313   -5.9341   19.8341 C   0  0  0  0  0  0  0  0  0  0  0  0
  -23.8251  -10.4500   20.9633 C   0  0  0  0  0  0  0  0  0  0  0  0
  -30.4682  -18.3425   24.0427 C   0  0  0  0  0  0  0  0  0  0  0  0
  -24.1691  -12.9748   20.8417 C   0  0  0  0  0  0  0  0  0  0  0  0
  -16.8302  -20.2051   19.6140 C   0  0  0  0  0  0  0  0  0  0  0  0
  -18.8483  -20.1273   25.9460 C   0  0  0  0  0  0  0  0  0  0  0  0
  -17.7059  -20.6222   20.6345 C   0  0  0  0  0  0  0  0  0  0  0  0
  -19.2913  -21.2819   26.6070 C   0  0  0  0  0  0  0  0  0  0  0  0
  -30.6781  -16.5892   22.3939 C   0  0  0  0  0  0  0  0  0  0  0  0
  -22.3350   -8.1452   21.4636 C   0  0  0  0  0  0  0  0  0  0  0  0
  -21.4933  -20.2815   26.8526 C   0  0  0  0  0  0  0  0  0  0  0  0
  -20.3115   -6.9748   21.2238 C   0  0  0  0  0  0  0  0  0  0  0  0
  -17.6984   -6.8836   20.2511 C   0  0  0  0  0  0  0  0  0  0  0  0
  -19.9379   -5.9797   20.3204 C   0  0  0  0  0  0  0  0  0  0  0  0
  -24.5954  -11.6401   20.7054 C   0  0  0  0  0  0  0  0  0  0  0  0
  -25.2621  -13.7231   20.4789 C   0  0  0  0  0  0  0  0  0  0  0  0
  -29.6268  -19.2606   24.8299 C   0  0  0  0  0  0  0  0  0  0  0  0
  -28.3152  -19.0852   25.0517 C   0  0  0  0  0  0  0  0  0  0  0  0
  -22.8986  -13.4919   21.2591 C   0  0  0  0  0  0  0  0  0  0  0  0
  -27.4241  -19.9914   25.8576 C   0  0  0  0  0  0  0  0  0  0  0  0
  -17.2232  -22.0519   24.0073 C   0  0  0  0  0  0  0  0  0  0  0  0
  -15.9515  -23.1370   26.7872 C   0  0  0  0  0  0  0  0  0  0  0  0
  -25.0997  -20.3133   26.6550 C   0  0  0  0  0  0  0  0  0  0  0  0
  -16.2734  -23.5296   30.1620 C   0  0  0  0  0  0  0  0  0  0  0  0
  -30.7290  -14.7645   20.6576 C   0  0  0  0  0  0  0  0  0  0  0  0
  -15.5533  -20.9485   19.3114 C   0  0  0  0  0  0  0  0  0  0  0  0
  -17.4224  -20.0157   25.4805 C   0  0  0  0  0  0  0  0  0  0  0  0
  -18.3804  -22.4571   26.8469 C   0  0  0  0  0  0  0  0  0  0  0  0
  -15.1004  -21.8671   20.4434 C   0  0  0  0  0  0  0  0  0  0  0  0
  -29.6148  -12.3498   18.2902 C   0  0  0  0  0  0  0  0  0  0  0  0
  -16.2734  -22.6925   20.9627 C   0  0  0  0  0  0  0  0  0  0  0  0
  -28.1745  -12.0597   18.7187 C   0  0  0  0  0  0  0  0  0  0  0  0
  -30.5290  -12.5788   19.4925 C   0  0  0  0  0  0  0  0  0  0  0  0
  -28.6214  -13.3058   20.8715 C   0  0  0  0  0  0  0  0  0  0  0  0
  -17.3716  -21.7897   21.5375 C   0  0  1  0  0  0  0  0  0  0  0  0
  -16.7570  -21.3712   25.2632 C   0  0  1  0  0  0  0  0  0  0  0  0
  -27.6495  -13.1324   19.6929 C   0  0  2  0  0  0  0  0  0  0  0  0
  -15.0881  -24.4875   32.1557 C   0  0  0  0  0  0  0  0  0  0  0  0
  -16.7604  -25.9468   25.9151 C   0  0  0  0  0  0  0  0  0  0  0  0
  -16.4344  -26.6994   28.2806 C   0  0  0  0  0  0  0  0  0  0  0  0
  -14.5046  -25.7952   26.9841 C   0  0  0  0  0  0  0  0  0  0  0  0
  -16.1041  -20.8841   31.4779 C   0  0  0  0  0  0  0  0  0  0  0  0
  -23.7616  -19.6303   26.5580 C   0  0  0  0  0  0  0  0  0  1  0  0
  -16.3127  -24.2167   27.7785 C   0  0  1  0  0  0  0  0  0  0  0  0
  -15.3149  -23.2476   31.3049 C   0  0  2  0  0  0  0  0  0  0  0  0
  -16.0210  -25.6433   27.2335 C   0  0  0  0  0  0  0  0  0  0  0  0
  -25.8605  -11.5429   20.2883 N   0  0  0  0  0  0  0  0  0  0  0  0
  -26.2386  -12.8261   20.1593 N   0  0  0  0  0  0  0  0  0  0  0  0
  -16.9969  -22.3022   26.3677 N   0  0  0  0  0  0  0  0  0  0  0  0
  -29.9701  -13.6107   20.3686 N   0  0  0  0  0  0  0  0  0  0  0  0
  -25.4737  -15.0544   20.4051 N   0  0  0  0  0  0  0  0  0  0  0  0
  -21.8857  -12.5838   21.5962 N   0  0  0  0  0  0  0  0  0  0  0  0
  -30.0816  -15.6907   21.4748 N   0  0  0  0  0  0  0  0  0  0  0  0
  -26.1437  -19.6151   25.9431 N   0  0  0  0  0  0  0  0  0  0  0  0
  -17.0019  -21.3208   22.8558 N   0  0  0  0  0  0  0  0  0  0  0  0
  -15.6045  -23.8919   29.0120 N   0  0  0  0  0  0  0  0  0  0  0  0
  -27.9473  -21.0803   26.4119 N   0  3  0  0  0  0  0  0  0  0  0  0
  -15.8555  -22.1694   32.1802 N   0  3  0  0  0  0  0  0  0  0  0  0
  -22.6633  -14.7227   21.3154 O   0  0  0  0  0  0  0  0  0  0  0  0
  -17.7436  -23.1591   24.0777 O   0  0  0  0  0  0  0  0  0  0  0  0
  -14.7833  -23.0333   26.4048 O   0  0  0  0  0  0  0  0  0  0  0  0
  -25.3180  -21.3514   27.2628 O   0  0  0  0  0  0  0  0  0  0  0  0
  -17.4937  -23.4412   30.2788 O   0  0  0  0  0  0  0  0  0  0  0  0
  -31.8586  -14.9320   20.1909 O   0  0  0  0  0  0  0  0  0  0  0  0
  -21.6080   -7.0209   21.7081 O   0  0  0  0  0  0  0  0  0  0  0  0
  -22.7793  -20.3617   27.2904 O   0  0  0  0  0  0  0  0  0  1  0  0
  -16.4433   -6.8390   19.7853 F   0  0  0  0  0  0  0  0  0  0  0  0
  -20.8294   -5.0642   19.9171 F   0  0  0  0  0  0  0  0  0  0  0  0
  1  2  1  0  0  0  0
  1  7  2  0  0  0  0
  2  8  2  0  0  0  0
  3  6  2  0  0  0  0
  3 10  1  0  0  0  0
  4 11  2  0  0  0  0
  4 19  1  0  0  0  0
  5 12  1  0  0  0  0
  5 19  2  0  0  0  0
  6 20  1  0  0  0  0
  7 22  1  0  0  0  0
  8 24  1  0  0  0  0
  9 13  2  0  0  0  0
  9 23  1  0  0  0  0
 10 26  2  0  0  0  0
 11 27  1  0  0  0  0
 12 27  2  0  0  0  0
 13 28  1  0  0  0  0
 14 15  2  0  0  0  0
 14 29  1  0  0  0  0
 15 30  1  0  0  0  0
 16 20  2  0  0  0  0
 16 26  1  0  0  0  0
 17 25  1  0  0  0  0
 17 28  2  0  0  0  0
 18 30  2  0  0  0  0
 18 31  1  0  0  0  0
 19 32  1  0  0  0  0
 20 34  1  0  0  0  0
 21 32  1  0  0  0  0
 21 33  2  0  0  0  0
 21 36  1  0  0  0  0
 22 24  2  0  0  0  0
 22 43  1  0  0  0  0
 23 25  2  0  0  0  0
 23 44  1  0  0  0  0
 24 52  1  0  0  0  0
 25 45  1  0  0  0  0
 26 70  1  0  0  0  0
 27 82  1  0  0  0  0
 28 83  1  0  0  0  0
 29 31  2  0  0  0  0
 29 82  1  0  0  0  0
 30 84  1  0  0  0  0
 31 85  1  0  0  0  0
 32 64  2  0  0  0  0
 33 65  1  0  0  0  0
 33 68  1  0  0  0  0
 34 35  2  0  0  0  0
 35 37  1  0  0  0  0
 36 69  1  0  0  0  0
 36 76  2  0  0  0  0
 37 71  1  0  0  0  0
 37 74  2  0  0  0  0
 38 53  1  0  0  0  0
 38 72  1  0  0  0  0
 38 77  2  0  0  0  0
 39 61  1  0  0  0  0
 39 66  1  0  0  0  0
 39 78  2  0  0  0  0
 40 60  1  0  0  0  0
 40 71  1  0  0  0  0
 40 79  2  0  0  0  0
 41 62  1  0  0  0  0
 41 73  1  0  0  0  0
 41 80  2  0  0  0  0
 42 67  1  0  0  0  0
 42 70  1  0  0  0  0
 42 81  2  0  0  0  0
 43 46  1  0  0  0  0
 44 53  1  0  0  0  0
 45 66  1  0  0  0  0
 46 48  1  0  0  0  0
 47 49  1  0  0  0  0
 47 50  1  0  0  0  0
 48 52  1  0  0  0  0
 49 54  1  0  0  0  0
 50 67  1  0  0  0  0
 51 54  1  0  0  0  0
 51 67  1  0  0  0  0
 52 72  1  0  0  0  0
 53 66  1  0  0  0  0
 54 65  1  0  0  0  0
 55 62  1  0  0  0  0
 56 63  1  0  0  0  0
 57 63  1  0  0  0  0
 58 63  1  0  0  0  0
 59 75  1  0  0  0  0
 60 83  1  0  0  0  0
 61 63  1  0  0  0  0
 61 73  1  0  0  0  0
 62 75  1  0  0  0  0
 64 65  1  0  0  0  0
M  CHG  2  74   1  75   1
M  ISO  4  42 100  60 101  70 100  83 101
M  END
> <Batch ID>
0077

> <Smiles>
CNC(C)C(=O)NC(C(=O)N1Cc2cc([101O:1][101CH2:1]C(=O)NC(=N)C=Cc3cccc([100NH:0][100C:0](=O)N4CCCC(n5nc(-c6ccc(Oc7ccc(F)cc7F)cc6)c(C(N)=O)c5N)C4)c3)ccc2CC1C(=O)NC1CCCc2ccccc21)C(C)(C)C

> <Shape>
0.146

> <Color>
0.187

> <Negative vol penalty>
0.000

$$$$

  -OEChem-04042323533D

 89 98  0     1  0  0  0  0  0999 V2000
  -26.6784  -38.0644   22.3915 C   0  0  0  0  0  0  0  0  0  0  0  0
  -27.2589  -37.1166   21.5548 C   0  0  0  0  0  0  0  0  0  0  0  0
  -23.5776   -9.7287   20.9920 C   0  0  0  0  0  0  0  0  0  0  0  0
  -25.8017   -9.3741   21.8665 C   0  0  0  0  0  0  0  0  0  0  0  0
  -26.0311  -37.6594   23.5581 C   0  0  0  0  0  0  0  0  0  0  0  0
  -27.1934  -35.7634   21.8847 C   0  0  0  0  0  0  0  0  0  0  0  0
  -26.7464  -29.2915   18.8463 C   0  0  0  0  0  0  0  0  0  0  0  0
  -29.8165  -19.6778   21.3696 C   0  0  0  0  0  0  0  0  0  0  0  0
  -29.6936  -18.3483   20.9658 C   0  0  0  0  0  0  0  0  0  0  0  0
  -23.2688   -8.3903   21.2346 C   0  0  0  0  0  0  0  0  0  0  0  0
  -25.4929   -8.0357   22.1091 C   0  0  0  0  0  0  0  0  0  0  0  0
  -27.3791  -28.0493   18.8599 C   0  0  0  0  0  0  0  0  0  0  0  0
  -22.4083   -6.4730   23.8834 C   0  0  0  0  0  0  0  0  0  0  0  0
  -21.1808   -6.1891   24.4818 C   0  0  0  0  0  0  0  0  0  0  0  0
  -29.4388  -19.0681   18.6736 C   0  0  0  0  0  0  0  0  0  0  0  0
  -26.1662  -27.4600   20.8600 C   0  0  0  0  0  0  0  0  0  0  0  0
  -20.5484   -4.8703   22.5588 C   0  0  0  0  0  0  0  0  0  0  0  0
  -24.8441  -10.2206   21.3079 C   0  0  0  0  0  0  0  0  0  0  0  0
  -29.5616  -20.3976   19.0775 C   0  0  0  0  0  0  0  0  0  0  0  0
  -24.9914  -12.6886   21.9364 C   0  0  0  0  0  0  0  0  0  0  0  0
  -25.9492  -36.2998   23.8976 C   0  0  0  0  0  0  0  0  0  0  0  0
  -25.8253  -29.6321   19.8474 C   0  0  0  0  0  0  0  0  0  0  0  0
  -26.5456  -35.3400   23.0576 C   0  0  0  0  0  0  0  0  0  0  0  0
  -25.5212  -28.7062   20.8555 C   0  0  0  0  0  0  0  0  0  0  0  0
  -29.7504  -20.7024   20.4254 C   0  0  0  0  0  0  0  0  0  0  0  0
  -29.5048  -18.0435   19.6179 C   0  0  0  0  0  0  0  0  0  0  0  0
  -24.2265   -7.5437   21.7932 C   0  0  0  0  0  0  0  0  0  0  0  0
  -27.0913  -27.1344   19.8684 C   0  0  0  0  0  0  0  0  0  0  0  0
  -22.7059   -5.9556   22.6227 C   0  0  0  0  0  0  0  0  0  0  0  0
  -20.2508   -5.3878   23.8195 C   0  0  0  0  0  0  0  0  0  0  0  0
  -21.7760   -5.1543   21.9604 C   0  0  0  0  0  0  0  0  0  0  0  0
  -25.1639  -11.6029   21.0570 C   0  0  0  0  0  0  0  0  0  0  0  0
  -25.4432  -13.7770   21.2310 C   0  0  0  0  0  0  0  0  0  0  0  0
  -29.1312  -24.4267   21.1104 C   0  0  0  0  0  0  0  0  0  0  0  0
  -30.3894  -24.8164   21.3936 C   0  0  0  0  0  0  0  0  0  0  0  0
  -28.8586  -23.0097   20.6591 C   0  0  0  0  0  0  0  0  0  0  0  0
  -29.4882  -21.4447   18.0660 C   0  0  0  0  0  0  0  0  0  0  0  0
  -24.4695  -12.7111   23.2716 C   0  0  0  0  0  0  0  0  0  0  0  0
  -25.6773  -31.8818   22.0880 C   0  0  0  0  0  0  0  0  0  0  0  0
  -22.7140  -30.6547   22.5736 C   0  0  0  0  0  0  0  0  0  0  0  0
  -20.5998  -27.9905   22.2927 C   0  0  0  0  0  0  0  0  0  0  0  0
  -29.1885  -16.2175   17.9114 C   0  0  0  0  0  0  0  0  0  0  0  0
  -25.2802  -35.9140   25.1931 C   0  0  0  0  0  0  0  0  0  0  0  0
  -25.1313  -30.9658   19.8035 C   0  0  0  0  0  0  0  0  0  0  0  0
  -24.5248  -29.0153   21.9418 C   0  0  0  0  0  0  0  0  0  0  0  0
  -31.5251  -23.8357   21.3888 C   0  0  0  0  0  0  0  0  0  0  0  0
  -24.9295  -34.4308   25.2794 C   0  0  0  0  0  0  0  0  0  0  0  0
  -26.6630  -14.2589   16.3421 C   0  0  0  0  0  0  0  0  0  0  0  0
  -26.1106  -33.5760   24.8310 C   0  0  0  0  0  0  0  0  0  0  0  0
  -26.0336  -13.4826   17.5012 C   0  0  0  0  0  0  0  0  0  0  0  0
  -31.0409  -22.4267   21.6821 C   0  0  0  0  0  0  0  0  0  0  0  0
  -28.1707  -14.4252   16.5233 C   0  0  0  0  0  0  0  0  0  0  0  0
  -27.9522  -14.2253   18.9690 C   0  0  0  0  0  0  0  0  0  0  0  0
  -26.4740  -33.8607   23.3687 C   0  0  1  0  0  0  0  0  0  0  0  0
  -24.5942  -31.4049   21.1622 C   0  0  1  0  0  0  0  0  0  0  0  0
  -26.4245  -14.0886   18.8633 C   0  0  2  0  0  0  0  0  0  0  0  0
  -30.7998  -26.2258   21.7250 C   0  0  0  0  0  0  0  0  0  0  0  0
  -18.2507  -27.2766   22.8118 C   0  0  0  0  0  0  0  0  0  0  0  0
  -23.4610  -30.3445   25.5156 C   0  0  0  0  0  0  0  0  0  0  0  0
  -21.5096  -28.7978   25.7761 C   0  0  0  0  0  0  0  0  0  0  0  0
  -21.1363  -31.1730   25.1113 C   0  0  0  0  0  0  0  0  0  0  0  0
  -19.9875  -27.5211   19.4354 C   0  0  0  0  0  0  0  0  0  0  0  0
  -27.9193  -25.3170   21.1597 C   0  0  0  0  0  0  0  0  0  1  0  0
  -22.1387  -29.5613   23.4411 C   0  0  1  0  0  0  0  0  0  0  0  0
  -19.1784  -27.8833   21.7706 C   0  0  2  0  0  0  0  0  0  0  0  0
  -22.0817  -29.9638   24.9418 C   0  0  0  0  0  0  0  0  0  0  0  0
  -25.6845  -11.9685   19.8825 N   0  0  0  0  0  0  0  0  0  0  0  0
  -25.8429  -13.2960   20.0190 N   0  0  0  0  0  0  0  0  0  0  0  0
  -29.8803  -22.0698   20.8668 N   0  0  0  0  0  0  0  0  0  0  0  0
  -23.8773  -30.3350   21.8591 N   0  0  0  0  0  0  0  0  0  0  0  0
  -28.4653  -15.0084   17.8340 N   0  0  0  0  0  0  0  0  0  0  0  0
  -25.5334  -15.0891   21.5354 N   0  0  0  0  0  0  0  0  0  0  0  0
  -30.6761  -21.8422   17.4628 N   0  0  0  0  0  0  0  0  0  0  0  0
  -24.0504  -11.5031   23.8456 N   0  0  0  0  0  0  0  0  0  0  0  0
  -29.3799  -16.6927   19.2083 N   0  0  0  0  0  0  0  0  0  0  0  0
  -25.5430  -33.2004   22.4788 N   0  0  0  0  0  0  0  0  0  0  0  0
  -20.8425  -29.2218   22.8638 N   0  0  0  0  0  0  0  0  0  0  0  0
  -19.1379  -27.0288   20.5502 N   0  3  0  0  0  0  0  0  0  0  0  0
  -27.7529  -22.7619   20.1744 O   0  0  0  0  0  0  0  0  0  0  0  0
  -28.4068  -21.9757   17.7649 O   0  0  0  0  0  0  0  0  0  0  0  0
  -24.3622  -13.7734   23.9300 O   0  0  0  0  0  0  0  0  0  0  0  0
  -26.5680  -31.1102   22.4241 O   0  0  0  0  0  0  0  0  0  0  0  0
  -22.1481  -31.7497   22.5259 O   0  0  0  0  0  0  0  0  0  0  0  0
  -21.4122  -27.0724   22.2061 O   0  0  0  0  0  0  0  0  0  0  0  0
  -29.5836  -16.8032   16.9001 O   0  0  0  0  0  0  0  0  0  0  0  0
  -23.9254   -6.2377   22.0303 O   0  0  0  0  0  0  0  0  0  0  0  0
  -27.7080  -25.9214   19.8844 O   0  0  0  0  0  0  0  0  0  1  0  0
  -19.0726   -5.1140   24.3949 F   0  0  0  0  0  0  0  0  0  0  0  0
  -22.0567   -4.6534   20.7495 F   0  0  0  0  0  0  0  0  0  0  0  0
  1  2  1  0  0  0  0
  1  5  2  0  0  0  0
  2  6  2  0  0  0  0
  3 10  2  0  0  0  0
  3 18  1  0  0  0  0
  4 11  1  0  0  0  0
  4 18  2  0  0  0  0
  5 21  1  0  0  0  0
  6 23  1  0  0  0  0
  7 12  2  0  0  0  0
  7 22  1  0  0  0  0
  8  9  2  0  0  0  0
  8 25  1  0  0  0  0
  9 26  1  0  0  0  0
 10 27  1  0  0  0  0
 11 27  2  0  0  0  0
 12 28  1  0  0  0  0
 13 14  2  0  0  0  0
 13 29  1  0  0  0  0
 14 30  1  0  0  0  0
 15 19  1  0  0  0  0
 15 26  2  0  0  0  0
 16 24  1  0  0  0  0
 16 28  2  0  0  0  0
 17 30  2  0  0  0  0
 17 31  1  0  0  0  0
 18 32  1  0  0  0  0
 19 25  2  0  0  0  0
 19 37  1  0  0  0  0
 20 32  1  0  0  0  0
 20 33  2  0  0  0  0
 20 38  1  0  0  0  0
 21 23  2  0  0  0  0
 21 43  1  0  0  0  0
 22 24  2  0  0  0  0
 22 44  1  0  0  0  0
 23 54  1  0  0  0  0
 24 45  1  0  0  0  0
 25 69  1  0  0  0  0
 26 75  1  0  0  0  0
 27 86  1  0  0  0  0
 28 87  1  0  0  0  0
 29 31  2  0  0  0  0
 29 86  1  0  0  0  0
 30 88  1  0  0  0  0
 31 89  1  0  0  0  0
 32 67  2  0  0  0  0
 33 68  1  0  0  0  0
 33 72  1  0  0  0  0
 34 35  2  0  0  0  0
 34 36  1  0  0  0  0
 34 63  1  0  0  0  0
 35 46  1  0  0  0  0
 35 57  1  0  0  0  0
 36 69  1  0  0  0  0
 36 79  2  0  0  0  0
 37 73  1  0  0  0  0
 37 80  2  0  0  0  0
 38 74  1  0  0  0  0
 38 81  2  0  0  0  0
 39 55  1  0  0  0  0
 39 76  1  0  0  0  0
 39 82  2  0  0  0  0
 40 64  1  0  0  0  0
 40 70  1  0  0  0  0
 40 83  2  0  0  0  0
 41 65  1  0  0  0  0
 41 77  1  0  0  0  0
 41 84  2  0  0  0  0
 42 71  1  0  0  0  0
 42 75  1  0  0  0  0
 42 85  2  0  0  0  0
 43 47  1  0  0  0  0
 44 55  1  0  0  0  0
 45 70  1  0  0  0  0
 46 51  1  0  0  0  0
 47 49  1  0  0  0  0
 48 50  1  0  0  0  0
 48 52  1  0  0  0  0
 49 54  1  0  0  0  0
 50 56  1  0  0  0  0
 51 69  1  0  0  0  0
 52 71  1  0  0  0  0
 53 56  1  0  0  0  0
 53 71  1  0  0  0  0
 54 76  1  0  0  0  0
 55 70  1  0  0  0  0
 56 68  1  0  0  0  0
 58 65  1  0  0  0  0
 59 66  1  0  0  0  0
 60 66  1  0  0  0  0
 61 66  1  0  0  0  0
 62 78  1  0  0  0  0
 63 87  1  0  0  0  0
 64 66  1  0  0  0  0
 64 77  1  0  0  0  0
 65 78  1  0  0  0  0
 67 68  1  0  0  0  0
M  CHG  1  78   1
M  ISO  4  42 100  63 101  75 100  87 101
M  END
> <Batch ID>
0077

> <Smiles>
C=C1CCN(c2ccc([100NH:0][100C:0](=O)N3CCCC(n4nc(-c5ccc(Oc6ccc(F)cc6F)cc5)c(C(N)=O)c4N)C3)cc2C(N)=O)C(=O)C1[101CH2:1][101O:1]c1ccc2c(c1)CN(C(=O)C(NC(=O)C(C)NC)C(C)(C)C)C(C(=O)NC1CCCc3ccccc31)C2

> <Shape>
0.347

> <Color>
0.106

> <Negative vol penalty>
0.000

$$$$

  -OEChem-04042323533D

 88 97  0     1  0  0  0  0  0999 V2000
  -21.1189  -33.5356   19.8394 C   0  0  0  0  0  0  0  0  0  0  0  0
  -22.3349  -32.8631   19.9050 C   0  0  0  0  0  0  0  0  0  0  0  0
  -29.8727  -23.8147   17.8282 C   0  0  0  0  0  0  0  0  0  0  0  0
  -28.3416  -14.5281   20.2512 C   0  0  0  0  0  0  0  0  0  0  0  0
  -27.4488  -14.5215   22.4961 C   0  0  0  0  0  0  0  0  0  0  0  0
  -20.1150  -33.2503   20.7640 C   0  0  0  0  0  0  0  0  0  0  0  0
  -22.5483  -31.9056   20.8961 C   0  0  0  0  0  0  0  0  0  0  0  0
  -24.7240  -27.7007   19.0989 C   0  0  0  0  0  0  0  0  0  0  0  0
  -30.4673  -25.0066   18.2423 C   0  0  0  0  0  0  0  0  0  0  0  0
  -29.2975  -22.9590   18.7677 C   0  0  0  0  0  0  0  0  0  0  0  0
  -27.4254  -13.5426   19.8839 C   0  0  0  0  0  0  0  0  0  0  0  0
  -26.5325  -13.5360   22.1288 C   0  0  0  0  0  0  0  0  0  0  0  0
  -26.0964  -27.7469   18.8582 C   0  0  0  0  0  0  0  0  0  0  0  0
  -23.5887  -13.3652   20.4779 C   0  0  0  0  0  0  0  0  0  0  0  0
  -22.2665  -13.5249   20.8923 C   0  0  0  0  0  0  0  0  0  0  0  0
  -26.4954  -26.6152   20.9509 C   0  0  0  0  0  0  0  0  0  0  0  0
  -29.9118  -24.4870   20.5354 C   0  0  0  0  0  0  0  0  0  0  0  0
  -22.3940  -11.4382   22.1034 C   0  0  0  0  0  0  0  0  0  0  0  0
  -28.3534  -15.0175   21.5573 C   0  0  0  0  0  0  0  0  0  0  0  0
  -30.7044  -15.9491   21.8926 C   0  0  0  0  0  0  0  0  0  0  0  0
  -20.3127  -32.2820   21.7609 C   0  0  0  0  0  0  0  0  0  0  0  0
  -24.2266  -27.1201   20.2745 C   0  0  0  0  0  0  0  0  0  0  0  0
  -21.5466  -31.6081   21.8358 C   0  0  0  0  0  0  0  0  0  0  0  0
  -25.1161  -26.5606   21.2030 C   0  0  0  0  0  0  0  0  0  0  0  0
  -30.4869  -25.3427   19.5959 C   0  0  0  0  0  0  0  0  0  0  0  0
  -29.3171  -23.2951   20.1213 C   0  0  0  0  0  0  0  0  0  0  0  0
  -26.5208  -13.0466   20.8227 C   0  0  0  0  0  0  0  0  0  0  0  0
  -26.9826  -27.2067   19.7856 C   0  0  0  0  0  0  0  0  0  0  0  0
  -24.3136  -12.2419   20.8761 C   0  0  0  0  0  0  0  0  0  0  0  0
  -21.6691  -12.5615   21.7051 C   0  0  0  0  0  0  0  0  0  0  0  0
  -23.7162  -11.2785   21.6889 C   0  0  0  0  0  0  0  0  0  0  0  0
  -29.3000  -16.0351   21.9375 C   0  0  0  0  0  0  0  0  0  0  0  0
  -31.1379  -17.1680   22.3539 C   0  0  0  0  0  0  0  0  0  0  0  0
  -33.2003  -27.7808   20.4672 C   0  0  0  0  0  0  0  0  0  0  0  0
  -30.3937  -27.5761   20.7004 C   0  0  0  0  0  0  0  0  0  0  0  0
  -34.1865  -28.5281   19.9508 C   0  0  0  0  0  0  0  0  0  0  0  0
  -30.4147  -27.1474   23.7484 C   0  0  0  0  0  0  0  0  0  0  0  0
  -29.1100  -27.9129   20.4533 C   0  0  0  0  0  0  0  0  0  1  0  0
  -31.5422  -14.8644   21.4716 C   0  0  0  0  0  0  0  0  0  0  0  0
  -30.5541  -28.3152   23.1035 C   0  0  0  0  0  0  0  0  0  0  0  0
  -22.5444  -28.1720   22.7580 C   0  0  0  0  0  0  0  0  0  0  0  0
  -22.5450  -25.0366   23.5895 C   0  0  0  0  0  0  0  0  0  0  0  0
  -24.0411  -21.9780   23.3574 C   0  0  0  0  0  0  0  0  0  0  0  0
  -28.6675  -22.6078   22.4562 C   0  0  0  0  0  0  0  0  0  0  0  0
  -19.2153  -32.0417   22.7673 C   0  0  0  0  0  0  0  0  0  0  0  0
  -22.7420  -27.0544   20.5068 C   0  0  0  0  0  0  0  0  0  0  0  0
  -24.6320  -25.9079   22.4711 C   0  0  0  0  0  0  0  0  0  0  0  0
  -32.6494  -28.0033   21.8423 C   0  0  0  0  0  0  0  0  0  0  0  0
  -32.5346  -26.6744   19.6944 C   0  0  0  0  0  0  0  0  0  0  0  0
  -19.3851  -30.7457   23.5558 C   0  0  0  0  0  0  0  0  0  0  0  0
  -29.8426  -20.7498   25.2569 C   0  0  0  0  0  0  0  0  0  0  0  0
  -20.8204  -30.6076   24.0533 C   0  0  0  0  0  0  0  0  0  0  0  0
  -29.9704  -19.3232   24.7178 C   0  0  0  0  0  0  0  0  0  0  0  0
  -28.6333  -21.4729   24.6666 C   0  0  0  0  0  0  0  0  0  0  0  0
  -28.6914  -20.0440   22.6607 C   0  0  0  0  0  0  0  0  0  0  0  0
  -21.8070  -30.5452   22.8810 C   0  0  1  0  0  0  0  0  0  0  0  0
  -31.1697  -28.3987   21.7340 C   0  0  1  0  0  0  0  0  0  0  0  0
  -22.3738  -26.8985   21.9790 C   0  0  1  0  0  0  0  0  0  0  0  0
  -29.9323  -19.2975   23.1772 C   0  0  2  0  0  0  0  0  0  0  0  0
  -30.1055  -29.6129   23.7074 C   0  0  0  0  0  0  0  0  0  0  0  0
  -23.8328  -19.6158   24.1785 C   0  0  0  0  0  0  0  0  0  0  0  0
  -23.6469  -25.8859   26.3051 C   0  0  0  0  0  0  0  0  0  0  0  0
  -24.3004  -23.5028   26.7073 C   0  0  0  0  0  0  0  0  0  0  0  0
  -21.8981  -24.1007   26.4008 C   0  0  0  0  0  0  0  0  0  0  0  0
  -23.7089  -20.9294   20.6099 C   0  0  0  0  0  0  0  0  0  0  0  0
  -23.4511  -24.1473   24.4064 C   0  0  1  0  0  0  0  0  0  0  0  0
  -23.4745  -20.5984   23.0745 C   0  0  2  0  0  0  0  0  0  0  0  0
  -23.3337  -24.4231   25.9320 C   0  0  0  0  0  0  0  0  0  0  0  0
  -28.8699  -17.2153   22.3916 N   0  0  0  0  0  0  0  0  0  0  0  0
  -30.0108  -17.8820   22.6364 N   0  0  0  0  0  0  0  0  0  0  0  0
  -31.0954  -26.5636   20.0196 N   0  0  0  0  0  0  0  0  0  0  0  0
  -23.1718  -25.8740   22.6557 N   0  0  0  0  0  0  0  0  0  0  0  0
  -28.6666  -21.4112   23.2038 N   0  0  0  0  0  0  0  0  0  0  0  0
  -32.3696  -17.6879   22.5415 N   0  0  0  0  0  0  0  0  0  0  0  0
  -31.9425  -13.9198   22.4264 N   0  0  0  0  0  0  0  0  0  0  0  0
  -28.7338  -22.4249   21.0754 N   0  0  0  0  0  0  0  0  0  0  0  0
  -21.7942  -29.2291   22.2792 N   0  0  0  0  0  0  0  0  0  0  0  0
  -23.1336  -22.7766   24.0208 N   0  0  0  0  0  0  0  0  0  0  0  0
  -24.0089  -20.0732   21.7862 N   0  3  0  0  0  0  0  0  0  0  0  0
  -31.9379  -14.7458   20.2872 O   0  0  0  0  0  0  0  0  0  0  0  0
  -23.2995  -28.1936   23.7229 O   0  0  0  0  0  0  0  0  0  0  0  0
  -21.3256  -24.9847   23.7680 O   0  0  0  0  0  0  0  0  0  0  0  0
  -25.1765  -22.3124   23.0267 O   0  0  0  0  0  0  0  0  0  0  0  0
  -28.6409  -23.7139   23.0019 O   0  0  0  0  0  0  0  0  0  0  0  0
  -25.6265  -12.0851   20.4645 O   0  0  0  0  0  0  0  0  0  0  0  0
  -28.3227  -27.2510   19.5535 O   0  0  0  0  0  0  0  0  0  1  0  0
  -20.3999  -12.7158   22.1042 F   0  0  0  0  0  0  0  0  0  0  0  0
  -24.4079  -10.1978   22.0757 F   0  0  0  0  0  0  0  0  0  0  0  0
  1  2  1  0  0  0  0
  1  6  2  0  0  0  0
  2  7  2  0  0  0  0
  3  9  2  0  0  0  0
  3 10  1  0  0  0  0
  4 11  2  0  0  0  0
  4 19  1  0  0  0  0
  5 12  1  0  0  0  0
  5 19  2  0  0  0  0
  6 21  1  0  0  0  0
  7 23  1  0  0  0  0
  8 13  2  0  0  0  0
  8 22  1  0  0  0  0
  9 25  1  0  0  0  0
 10 26  2  0  0  0  0
 11 27  1  0  0  0  0
 12 27  2  0  0  0  0
 13 28  1  0  0  0  0
 14 15  2  0  0  0  0
 14 29  1  0  0  0  0
 15 30  1  0  0  0  0
 16 24  1  0  0  0  0
 16 28  2  0  0  0  0
 17 25  2  0  0  0  0
 17 26  1  0  0  0  0
 18 30  2  0  0  0  0
 18 31  1  0  0  0  0
 19 32  1  0  0  0  0
 20 32  1  0  0  0  0
 20 33  2  0  0  0  0
 20 39  1  0  0  0  0
 21 23  2  0  0  0  0
 21 45  1  0  0  0  0
 22 24  2  0  0  0  0
 22 46  1  0  0  0  0
 23 56  1  0  0  0  0
 24 47  1  0  0  0  0
 25 71  1  0  0  0  0
 26 76  1  0  0  0  0
 27 85  1  0  0  0  0
 28 86  1  0  0  0  0
 29 31  2  0  0  0  0
 29 85  1  0  0  0  0
 30 87  1  0  0  0  0
 31 88  1  0  0  0  0
 32 69  2  0  0  0  0
 33 70  1  0  0  0  0
 33 74  1  0  0  0  0
 34 36  2  0  0  0  0
 34 48  1  0  0  0  0
 34 49  1  0  0  0  0
 35 38  2  0  0  0  0
 35 57  1  0  0  0  0
 35 71  1  0  0  0  0
 37 40  2  0  0  0  0
 38 86  1  0  0  0  0
 39 75  1  0  0  0  0
 39 80  2  0  0  0  0
 40 57  1  0  0  0  0
 40 60  1  0  0  0  0
 41 58  1  0  0  0  0
 41 77  1  0  0  0  0
 41 81  2  0  0  0  0
 42 66  1  0  0  0  0
 42 72  1  0  0  0  0
 42 82  2  0  0  0  0
 43 67  1  0  0  0  0
 43 78  1  0  0  0  0
 43 83  2  0  0  0  0
 44 73  1  0  0  0  0
 44 76  1  0  0  0  0
 44 84  2  0  0  0  0
 45 50  1  0  0  0  0
 46 58  1  0  0  0  0
 47 72  1  0  0  0  0
 48 57  1  0  0  0  0
 49 71  1  0  0  0  0
 50 52  1  0  0  0  0
 51 53  1  0  0  0  0
 51 54  1  0  0  0  0
 52 56  1  0  0  0  0
 53 59  1  0  0  0  0
 54 73  1  0  0  0  0
 55 59  1  0  0  0  0
 55 73  1  0  0  0  0
 56 77  1  0  0  0  0
 58 72  1  0  0  0  0
 59 70  1  0  0  0  0
 61 67  1  0  0  0  0
 62 68  1  0  0  0  0
 63 68  1  0  0  0  0
 64 68  1  0  0  0  0
 65 79  1  0  0  0  0
 66 68  1  0  0  0  0
 66 78  1  0  0  0  0
 67 79  1  0  0  0  0
 69 70  1  0  0  0  0
M  CHG  1  79   1
M  ISO  4  38 101  44 100  76 100  86 101
M  END
> <Batch ID>
0077

> <Smiles>
C=C1CC(C(=C)C)C(=[101CH:1][101O:1]c2ccc3c(c2)CN(C(=O)C(NC(=O)C(C)NC)C(C)(C)C)C(C(=O)NC2CCCc4ccccc42)C3)N(c2cccc([100NH:0][100C:0](=O)N3CCCC(n4nc(-c5ccc(Oc6ccc(F)cc6F)cc5)c(C(N)=O)c4N)C3)c2)C1

> <Shape>
0.232

> <Color>
0.078

> <Negative vol penalty>
0.000

$$$$

  -OEChem-04042323533D

 87 96  0     1  0  0  0  0  0999 V2000
  -17.8655  -28.0441   17.8093 C   0  0  0  0  0  0  0  0  0  0  0  0
  -18.9278  -27.3408   18.3683 C   0  0  0  0  0  0  0  0  0  0  0  0
  -22.9561   -9.8653   20.0516 C   0  0  0  0  0  0  0  0  0  0  0  0
  -23.6339  -10.0416   22.3638 C   0  0  0  0  0  0  0  0  0  0  0  0
  -17.9157  -29.4353   17.7324 C   0  0  0  0  0  0  0  0  0  0  0  0
  -20.0413  -28.0283   18.8497 C   0  0  0  0  0  0  0  0  0  0  0  0
  -21.5775  -26.3205   23.3628 C   0  0  0  0  0  0  0  0  0  0  0  0
  -30.0063  -18.9909   20.9567 C   0  0  0  0  0  0  0  0  0  0  0  0
  -28.9673  -17.9259   22.8602 C   0  0  0  0  0  0  0  0  0  0  0  0
  -29.1268  -20.0667   21.0785 C   0  0  0  0  0  0  0  0  0  0  0  0
  -28.0878  -19.0017   22.9820 C   0  0  0  0  0  0  0  0  0  0  0  0
  -22.1625   -8.7629   20.3682 C   0  0  0  0  0  0  0  0  0  0  0  0
  -22.8402   -8.9391   22.6805 C   0  0  0  0  0  0  0  0  0  0  0  0
  -22.3113  -25.1352   23.3789 C   0  0  0  0  0  0  0  0  0  0  0  0
  -23.0300   -5.5740   22.4142 C   0  0  0  0  0  0  0  0  0  0  0  0
  -23.5820   -4.5934   23.2384 C   0  0  0  0  0  0  0  0  0  0  0  0
  -24.3508  -26.4077   23.5797 C   0  0  0  0  0  0  0  0  0  0  0  0
  -21.8285   -4.9675   24.8578 C   0  0  0  0  0  0  0  0  0  0  0  0
  -23.6919  -10.5047   21.0494 C   0  0  0  0  0  0  0  0  0  0  0  0
  -24.1292  -12.9978   20.7321 C   0  0  0  0  0  0  0  0  0  0  0  0
  -19.0262  -30.1409   18.2218 C   0  0  0  0  0  0  0  0  0  0  0  0
  -22.2267  -27.5608   23.4442 C   0  0  0  0  0  0  0  0  0  0  0  0
  -20.1069  -29.4302   18.7780 C   0  0  0  0  0  0  0  0  0  0  0  0
  -23.6227  -27.6072   23.5670 C   0  0  0  0  0  0  0  0  0  0  0  0
  -29.9265  -17.9205   21.8476 C   0  0  0  0  0  0  0  0  0  0  0  0
  -28.1676  -20.0721   22.0911 C   0  0  0  0  0  0  0  0  0  0  0  0
  -22.1045   -8.2998   21.6827 C   0  0  0  0  0  0  0  0  0  0  0  0
  -23.6984  -25.1787   23.4844 C   0  0  0  0  0  0  0  0  0  0  0  0
  -21.8773   -6.2514   22.8118 C   0  0  0  0  0  0  0  0  0  0  0  0
  -22.9813   -4.2902   24.4602 C   0  0  0  0  0  0  0  0  0  0  0  0
  -21.2765   -5.9482   24.0336 C   0  0  0  0  0  0  0  0  0  0  0  0
  -24.5123  -11.6432   20.7228 C   0  0  0  0  0  0  0  0  0  0  0  0
  -25.2600  -13.6771   20.3497 C   0  0  0  0  0  0  0  0  0  0  0  0
  -26.1116  -22.7273   22.4312 C   0  0  0  0  0  0  0  0  0  0  0  0
  -27.1523  -22.2805   21.5045 C   0  0  0  0  0  0  0  0  0  0  0  0
  -25.3451  -23.8297   22.5152 C   0  0  0  0  0  0  0  0  0  1  0  0
  -22.8642  -13.5892   21.0573 C   0  0  0  0  0  0  0  0  0  0  0  0
  -22.4679  -30.0955   21.5413 C   0  0  0  0  0  0  0  0  0  0  0  0
  -31.7759  -16.6046   22.9441 C   0  0  0  0  0  0  0  0  0  0  0  0
  -24.0111  -31.3759   24.0911 C   0  0  0  0  0  0  0  0  0  0  0  0
  -25.8013  -30.8630   26.9510 C   0  0  0  0  0  0  0  0  0  0  0  0
  -30.7670  -14.5260   20.6627 C   0  0  0  0  0  0  0  0  0  0  0  0
  -19.0556  -31.6415   18.0738 C   0  0  0  0  0  0  0  0  0  0  0  0
  -21.4187  -28.8294   23.4524 C   0  0  0  0  0  0  0  0  0  0  0  0
  -24.3661  -28.9125   23.6777 C   0  0  0  0  0  0  0  0  0  0  0  0
  -26.2914  -21.4438   23.2090 C   0  0  0  0  0  0  0  0  0  0  0  0
  -20.1083  -32.3192   18.9473 C   0  0  0  0  0  0  0  0  0  0  0  0
  -29.6290  -11.9867   18.4415 C   0  0  0  0  0  0  0  0  0  0  0  0
  -21.4428  -31.5883   18.8390 C   0  0  0  0  0  0  0  0  0  0  0  0
  -28.1674  -11.7786   18.8420 C   0  0  0  0  0  0  0  0  0  0  0  0
  -30.5103  -12.2780   19.6541 C   0  0  0  0  0  0  0  0  0  0  0  0
  -28.5884  -13.1868   20.9007 C   0  0  0  0  0  0  0  0  0  0  0  0
  -21.3214  -30.1419   19.3336 C   0  0  1  0  0  0  0  0  0  0  0  0
  -22.2227  -30.0527   23.0231 C   0  0  1  0  0  0  0  0  0  0  0  0
  -27.6509  -12.9453   19.7053 C   0  0  2  0  0  0  0  0  0  0  0  0
  -31.7172  -15.3324   23.7518 C   0  0  0  0  0  0  0  0  0  0  0  0
  -26.9575  -32.1039   28.8005 C   0  0  0  0  0  0  0  0  0  0  0  0
  -26.3227  -32.0241   22.2080 C   0  0  0  0  0  0  0  0  0  0  0  0
  -27.7734  -32.3674   24.2194 C   0  0  0  0  0  0  0  0  0  0  0  0
  -25.7828  -33.8262   23.8558 C   0  0  0  0  0  0  0  0  0  0  0  0
  -24.0414  -29.6689   29.0091 C   0  0  0  0  0  0  0  0  0  0  0  0
  -30.8669  -16.7703   21.7173 C   0  0  1  0  0  0  0  0  0  0  0  0
  -25.4453  -31.4216   24.5603 C   0  0  1  0  0  0  0  0  0  0  0  0
  -25.6630  -31.4487   28.3446 C   0  0  2  0  0  0  0  0  0  0  0  0
  -26.3175  -32.3851   23.7069 C   0  0  0  0  0  0  0  0  0  0  0  0
  -25.7869  -11.4704   20.3629 N   0  0  0  0  0  0  0  0  0  0  0  0
  -26.2145  -12.7252   20.1423 N   0  0  0  0  0  0  0  0  0  0  0  0
  -27.3003  -21.1330   22.2117 N   0  0  0  0  0  0  0  0  0  0  0  0
  -23.5320  -30.1257   23.6748 N   0  0  0  0  0  0  0  0  0  0  0  0
  -29.9664  -13.3957   20.4293 N   0  0  0  0  0  0  0  0  0  0  0  0
  -25.5211  -14.9899   20.1738 N   0  0  0  0  0  0  0  0  0  0  0  0
  -21.8086  -12.7460   21.4302 N   0  0  0  0  0  0  0  0  0  0  0  0
  -21.3146  -30.1013   20.7802 N   0  0  0  0  0  0  0  0  0  0  0  0
  -25.4000  -31.7556   25.9797 N   0  0  0  0  0  0  0  0  0  0  0  0
  -30.1724  -15.5423   21.4006 N   0  0  0  0  0  0  0  0  0  0  0  0
  -25.3068  -30.3815   29.3220 N   0  3  0  0  0  0  0  0  0  0  0  0
  -27.6810  -22.7455   20.5161 O   0  0  0  0  0  0  0  0  0  0  0  0
  -22.6709  -14.8274   21.0026 O   0  0  0  0  0  0  0  0  0  0  0  0
  -23.6182  -30.1227   21.1198 O   0  0  0  0  0  0  0  0  0  0  0  0
  -32.5743  -17.4943   23.2515 O   0  0  0  0  0  0  0  0  0  0  0  0
  -23.3384  -32.4098   24.1007 O   0  0  0  0  0  0  0  0  0  0  0  0
  -26.2267  -29.7285   26.7444 O   0  0  0  0  0  0  0  0  0  0  0  0
  -31.9239  -14.6246   20.2400 O   0  0  0  0  0  0  0  0  0  0  0  0
  -21.3300   -7.2242   21.9921 O   0  0  0  0  0  0  0  0  0  0  0  0
  -24.4172  -24.0233   23.4997 O   0  0  0  0  0  0  0  0  0  1  0  0
  -23.5106   -3.3474   25.2509 F   0  0  0  0  0  0  0  0  0  0  0  0
  -20.1683   -6.5947   24.4205 F   0  0  0  0  0  0  0  0  0  0  0  0
  1  2  1  0  0  0  0
  1  5  2  0  0  0  0
  2  6  2  0  0  0  0
  3 12  2  0  0  0  0
  3 19  1  0  0  0  0
  4 13  1  0  0  0  0
  4 19  2  0  0  0  0
  5 21  1  0  0  0  0
  6 23  1  0  0  0  0
  7 14  2  0  0  0  0
  7 22  1  0  0  0  0
  8 10  2  0  0  0  0
  8 25  1  0  0  0  0
  9 11  1  0  0  0  0
  9 25  2  0  0  0  0
 10 26  1  0  0  0  0
 11 26  2  0  0  0  0
 12 27  1  0  0  0  0
 13 27  2  0  0  0  0
 14 28  1  0  0  0  0
 15 16  2  0  0  0  0
 15 29  1  0  0  0  0
 16 30  1  0  0  0  0
 17 24  1  0  0  0  0
 17 28  2  0  0  0  0
 18 30  2  0  0  0  0
 18 31  1  0  0  0  0
 19 32  1  0  0  0  0
 20 32  1  0  0  0  0
 20 33  2  0  0  0  0
 20 37  1  0  0  0  0
 21 23  2  0  0  0  0
 21 43  1  0  0  0  0
 22 24  2  0  0  0  0
 22 44  1  0  0  0  0
 23 53  1  0  0  0  0
 24 45  1  0  0  0  0
 25 62  1  0  0  0  0
 26 68  1  0  0  0  0
 27 84  1  0  0  0  0
 28 85  1  0  0  0  0
 29 31  2  0  0  0  0
 29 84  1  0  0  0  0
 30 86  1  0  0  0  0
 31 87  1  0  0  0  0
 32 66  2  0  0  0  0
 33 67  1  0  0  0  0
 33 71  1  0  0  0  0
 34 35  1  0  0  0  0
 34 36  2  0  0  0  0
 34 46  1  0  0  0  0
 35 68  1  0  0  0  0
 35 77  2  0  0  0  0
 36 85  1  0  0  0  0
 37 72  1  0  0  0  0
 37 78  2  0  0  0  0
 38 54  1  0  0  0  0
 38 73  1  0  0  0  0
 38 79  2  0  0  0  0
 39 56  1  0  0  0  0
 39 62  1  0  0  0  0
 39 80  2  0  0  0  0
 40 63  1  0  0  0  0
 40 69  1  0  0  0  0
 40 81  2  0  0  0  0
 41 64  1  0  0  0  0
 41 74  1  0  0  0  0
 41 82  2  0  0  0  0
 42 70  1  0  0  0  0
 42 75  1  0  0  0  0
 42 83  2  0  0  0  0
 43 47  1  0  0  0  0
 44 54  1  0  0  0  0
 45 69  1  0  0  0  0
 46 68  1  0  0  0  0
 47 49  1  0  0  0  0
 48 50  1  0  0  0  0
 48 51  1  0  0  0  0
 49 53  1  0  0  0  0
 50 55  1  0  0  0  0
 51 70  1  0  0  0  0
 52 55  1  0  0  0  0
 52 70  1  0  0  0  0
 53 73  1  0  0  0  0
 54 69  1  0  0  0  0
 55 67  1  0  0  0  0
 57 64  1  0  0  0  0
 58 65  1  0  0  0  0
 59 65  1  0  0  0  0
 60 65  1  0  0  0  0
 61 76  1  0  0  0  0
 62 75  1  0  0  0  0
 63 65  1  0  0  0  0
 63 74  1  0  0  0  0
 64 76  1  0  0  0  0
 66 67  1  0  0  0  0
M  CHG  1  76   1
M  ISO  4  36 101  42 100  75 100  85 101
M  END
> <Batch ID>
0077

> <Smiles>
CNC(C)C(=O)NC(C(=O)N1Cc2cc([101O:1][101CH:1]=C3CN(c4ccc(C([100NH:0][100C:0](=O)N5CCCC(n6nc(-c7ccc(Oc8ccc(F)cc8F)cc7)c(C(N)=O)c6N)C5)C(C)=O)cc4)C3=O)ccc2CC1C(=O)NC1CCCc2ccccc21)C(C)(C)C

> <Shape>
0.322

> <Color>
0.209

> <Negative vol penalty>
0.000

$$$$

  -OEChem-04042323533D

 89 97  0     1  0  0  0  0  0999 V2000
  -24.3948  -30.0902   20.2121 C   0  0  0  0  0  0  0  0  0  0  0  0
  -25.0153  -29.1353   21.0112 C   0  0  0  0  0  0  0  0  0  0  0  0
  -23.1461   -9.6512   20.1104 C   0  0  0  0  0  0  0  0  0  0  0  0
  -23.6876  -10.0535   22.4303 C   0  0  0  0  0  0  0  0  0  0  0  0
  -32.1654  -18.1042   23.1696 C   0  0  0  0  0  0  0  0  0  0  0  0
  -24.3381  -31.4186   20.6318 C   0  0  0  0  0  0  0  0  0  0  0  0
  -25.5804  -29.5085   22.2302 C   0  0  0  0  0  0  0  0  0  0  0  0
  -24.4405  -26.2869   25.9674 C   0  0  0  0  0  0  0  0  0  0  0  0
  -31.6838  -17.0656   22.3729 C   0  0  0  0  0  0  0  0  0  0  0  0
  -22.4103   -8.5245   20.4774 C   0  0  0  0  0  0  0  0  0  0  0  0
  -22.9517   -8.9268   22.7974 C   0  0  0  0  0  0  0  0  0  0  0  0
  -25.1508  -25.0880   26.0133 C   0  0  0  0  0  0  0  0  0  0  0  0
  -23.3741   -5.5723   22.8148 C   0  0  0  0  0  0  0  0  0  0  0  0
  -23.9443   -4.6995   23.7414 C   0  0  0  0  0  0  0  0  0  0  0  0
  -29.9177  -18.9541   23.4202 C   0  0  0  0  0  0  0  0  0  0  0  0
  -26.5718  -26.0029   27.7346 C   0  0  0  0  0  0  0  0  0  0  0  0
  -22.0869   -5.0764   25.2397 C   0  0  0  0  0  0  0  0  0  0  0  0
  -23.7848  -10.4157   21.0868 C   0  0  0  0  0  0  0  0  0  0  0  0
  -31.2823  -19.0485   23.6934 C   0  0  0  0  0  0  0  0  0  0  0  0
  -24.0750  -12.9007   20.5891 C   0  0  0  0  0  0  0  0  0  0  0  0
  -24.8944  -31.8065   21.8610 C   0  0  0  0  0  0  0  0  0  0  0  0
  -24.7981  -27.3583   26.7984 C   0  0  0  0  0  0  0  0  0  0  0  0
  -25.5323  -30.8435   22.6661 C   0  0  0  0  0  0  0  0  0  0  0  0
  -25.8629  -27.2133   27.6991 C   0  0  0  0  0  0  0  0  0  0  0  0
  -30.3192  -16.9712   22.0997 C   0  0  0  0  0  0  0  0  0  0  0  0
  -22.3131   -8.1623   21.8209 C   0  0  0  0  0  0  0  0  0  0  0  0
  -26.2184  -24.9469   26.8950 C   0  0  0  0  0  0  0  0  0  0  0  0
  -22.1602   -6.1974   23.1007 C   0  0  0  0  0  0  0  0  0  0  0  0
  -23.3007   -4.4515   24.9538 C   0  0  0  0  0  0  0  0  0  0  0  0
  -29.4362  -17.9155   22.6234 C   0  0  0  0  0  0  0  0  0  0  0  0
  -21.5166   -5.9494   24.3132 C   0  0  0  0  0  0  0  0  0  0  0  0
  -24.5455  -11.5793   20.7082 C   0  0  0  0  0  0  0  0  0  0  0  0
  -25.1779  -13.6248   20.2070 C   0  0  0  0  0  0  0  0  0  0  0  0
  -33.1839  -21.5447   23.4171 C   0  0  0  0  0  0  0  0  0  0  0  0
  -31.7984  -20.1615   24.5469 C   0  0  0  0  0  0  0  0  0  0  0  0
  -22.7588  -13.4267   20.8046 C   0  0  0  0  0  0  0  0  0  0  0  0
  -25.8198  -30.3290   26.3138 C   0  0  0  0  0  0  0  0  0  0  0  0
  -25.4988  -30.5493   29.5342 C   0  0  0  0  0  0  0  0  0  0  0  0
  -25.3853  -28.9562   32.5501 C   0  0  0  0  0  0  0  0  0  0  0  0
  -31.4413  -21.8585   26.4334 C   0  0  0  0  0  0  0  0  0  0  0  0
  -29.0631  -22.7534   26.6302 C   0  0  0  0  0  0  0  0  0  0  0  0
  -30.5767  -14.8975   20.6926 C   0  0  0  0  0  0  0  0  0  0  0  0
  -24.8501  -33.2628   22.2505 C   0  0  0  0  0  0  0  0  0  0  0  0
  -24.0050  -28.6357   26.7557 C   0  0  0  0  0  0  0  0  0  0  0  0
  -26.2740  -28.3264   28.6268 C   0  0  0  0  0  0  0  0  0  0  0  0
  -25.1435  -33.5072   23.7285 C   0  0  0  0  0  0  0  0  0  0  0  0
  -29.7479  -12.0952   18.6586 C   0  0  0  0  0  0  0  0  0  0  0  0
  -26.3686  -32.7117   24.1682 C   0  0  0  0  0  0  0  0  0  0  0  0
  -28.2818  -11.8199   19.0007 C   0  0  0  0  0  0  0  0  0  0  0  0
  -30.5406  -12.5483   19.8833 C   0  0  0  0  0  0  0  0  0  0  0  0
  -28.4957  -13.4087   20.9543 C   0  0  0  0  0  0  0  0  0  0  0  0
  -26.1351  -31.2048   24.0063 C   0  0  1  0  0  0  0  0  0  0  0  0
  -24.7811  -29.8387   27.2826 C   0  0  1  0  0  0  0  0  0  0  0  0
  -27.6419  -13.0120   19.7389 C   0  0  2  0  0  0  0  0  0  0  0  0
  -34.5246  -22.0977   23.0524 C   0  0  0  0  0  0  0  0  0  0  0  0
  -32.8653  -22.0611   26.8776 C   0  0  0  0  0  0  0  0  0  0  0  0
  -25.1507  -29.4057   35.0078 C   0  0  0  0  0  0  0  0  0  0  0  0
  -28.3908  -31.5174   29.6306 C   0  0  0  0  0  0  0  0  0  0  0  0
  -28.3957  -31.0389   32.0881 C   0  0  0  0  0  0  0  0  0  0  0  0
  -26.8297  -32.7410   31.1538 C   0  0  0  0  0  0  0  0  0  0  0  0
  -22.8996  -27.3592   32.7230 C   0  0  0  0  0  0  0  0  0  0  0  0
  -28.2923  -23.8562   27.3016 C   0  0  0  0  0  0  0  0  0  1  0  0
  -26.3978  -30.2883   30.7185 C   0  0  1  0  0  0  0  0  0  0  0  0
  -24.4201  -29.0741   33.7159 C   0  0  2  0  0  0  0  0  0  0  0  0
  -27.4972  -31.3759   30.8791 C   0  0  0  0  0  0  0  0  0  0  0  0
  -25.8460  -11.4675   20.4246 N   0  0  0  0  0  0  0  0  0  0  0  0
  -33.0770  -20.5915   24.2851 N   0  0  0  0  0  0  0  0  0  0  0  0
  -26.2020  -12.7279   20.1234 N   0  0  0  0  0  0  0  0  0  0  0  0
  -25.4716  -29.5580   28.5430 N   0  0  0  0  0  0  0  0  0  0  0  0
  -29.8771  -13.6832   20.5287 N   0  0  0  0  0  0  0  0  0  0  0  0
  -25.3618  -14.9347   19.9377 N   0  0  0  0  0  0  0  0  0  0  0  0
  -21.7421  -12.5442   21.1941 N   0  0  0  0  0  0  0  0  0  0  0  0
  -29.8333  -15.9152   21.2894 N   0  0  0  0  0  0  0  0  0  0  0  0
  -25.3108  -30.7024   25.0845 N   0  0  0  0  0  0  0  0  0  0  0  0
  -25.5195  -30.1511   31.8753 N   0  0  0  0  0  0  0  0  0  0  0  0
  -31.0459  -20.6821   25.4544 N   0  3  0  0  0  0  0  0  0  0  0  0
  -30.6158  -22.7205   26.9140 N   0  3  0  0  0  0  0  0  0  0  0  0
  -23.6819  -27.7940   33.9087 N   0  3  0  0  0  0  0  0  0  0  0  0
  -22.4884  -14.6406   20.6402 O   0  0  0  0  0  0  0  0  0  0  0  0
  -26.9956  -30.3672   26.6567 O   0  0  0  0  0  0  0  0  0  0  0  0
  -24.8393  -31.5910   29.4935 O   0  0  0  0  0  0  0  0  0  0  0  0
  -25.9652  -27.9098   32.2687 O   0  0  0  0  0  0  0  0  0  0  0  0
  -28.5957  -21.8953   25.8991 O   0  0  0  0  0  0  0  0  0  0  0  0
  -31.7402  -15.0334   20.3056 O   0  0  0  0  0  0  0  0  0  0  0  0
  -21.5950   -7.0631   22.1795 O   0  0  0  0  0  0  0  0  0  0  0  0
  -26.9137  -23.7780   26.9414 O   0  0  0  0  0  0  0  0  0  1  0  0
  -23.8477   -3.6121   25.8428 F   0  0  0  0  0  0  0  0  0  0  0  0
  -28.1225  -17.8353   22.3671 F   0  0  0  0  0  0  0  0  0  0  0  0
  -20.3497   -6.5459   24.5929 F   0  0  0  0  0  0  0  0  0  0  0  0
  1  2  1  0  0  0  0
  1  6  2  0  0  0  0
  2  7  2  0  0  0  0
  3 10  2  0  0  0  0
  3 18  1  0  0  0  0
  4 11  1  0  0  0  0
  4 18  2  0  0  0  0
  5  9  2  0  0  0  0
  5 19  1  0  0  0  0
  6 21  1  0  0  0  0
  7 23  1  0  0  0  0
  8 12  2  0  0  0  0
  8 22  1  0  0  0  0
  9 25  1  0  0  0  0
 10 26  1  0  0  0  0
 11 26  2  0  0  0  0
 12 27  1  0  0  0  0
 13 14  2  0  0  0  0
 13 28  1  0  0  0  0
 14 29  1  0  0  0  0
 15 19  2  0  0  0  0
 15 30  1  0  0  0  0
 16 24  1  0  0  0  0
 16 27  2  0  0  0  0
 17 29  2  0  0  0  0
 17 31  1  0  0  0  0
 18 32  1  0  0  0  0
 19 35  1  0  0  0  0
 20 32  1  0  0  0  0
 20 33  2  0  0  0  0
 20 36  1  0  0  0  0
 21 23  2  0  0  0  0
 21 43  1  0  0  0  0
 22 24  2  0  0  0  0
 22 44  1  0  0  0  0
 23 52  1  0  0  0  0
 24 45  1  0  0  0  0
 25 30  2  0  0  0  0
 25 73  1  0  0  0  0
 26 85  1  0  0  0  0
 27 86  1  0  0  0  0
 28 31  2  0  0  0  0
 28 85  1  0  0  0  0
 29 87  1  0  0  0  0
 30 88  1  0  0  0  0
 31 89  1  0  0  0  0
 32 66  2  0  0  0  0
 33 68  1  0  0  0  0
 33 71  1  0  0  0  0
 34 55  1  0  0  0  0
 34 67  2  0  0  0  0
 35 67  1  0  0  0  0
 35 76  2  0  0  0  0
 36 72  1  0  0  0  0
 36 79  2  0  0  0  0
 37 53  1  0  0  0  0
 37 74  1  0  0  0  0
 37 80  2  0  0  0  0
 38 63  1  0  0  0  0
 38 69  1  0  0  0  0
 38 81  2  0  0  0  0
 39 64  1  0  0  0  0
 39 75  1  0  0  0  0
 39 82  2  0  0  0  0
 40 56  1  0  0  0  0
 40 76  1  0  0  0  0
 40 77  2  0  0  0  0
 41 62  1  0  0  0  0
 41 77  1  0  0  0  0
 41 83  2  0  0  0  0
 42 70  1  0  0  0  0
 42 73  1  0  0  0  0
 42 84  2  0  0  0  0
 43 46  1  0  0  0  0
 44 53  1  0  0  0  0
 45 69  1  0  0  0  0
 46 48  1  0  0  0  0
 47 49  1  0  0  0  0
 47 50  1  0  0  0  0
 48 52  1  0  0  0  0
 49 54  1  0  0  0  0
 50 70  1  0  0  0  0
 51 54  1  0  0  0  0
 51 70  1  0  0  0  0
 52 74  1  0  0  0  0
 53 69  1  0  0  0  0
 54 68  1  0  0  0  0
 57 64  1  0  0  0  0
 58 65  1  0  0  0  0
 59 65  1  0  0  0  0
 60 65  1  0  0  0  0
 61 78  1  0  0  0  0
 62 86  1  0  0  0  0
 63 65  1  0  0  0  0
 63 75  1  0  0  0  0
 64 78  1  0  0  0  0
 66 68  1  0  0  0  0
M  CHG  3  76   1  77   1  78   1
M  ISO  4  42 100  62 101  73 100  86 101
M  END
> <Batch ID>
0077

> <Smiles>
C=CN=C(NC(C)=NC(=O)[101CH2:1][101O:1]c1ccc2c(c1)CN(C(=O)C(NC(=O)C(C)NC)C(C)(C)C)C(C(=O)NC1CCCc3ccccc31)C2)c1ccc([100NH:0][100C:0](=O)N2CCCC(n3nc(-c4ccc(Oc5ccc(F)cc5F)cc4)c(C(N)=O)c3N)C2)c(F)c1

> <Shape>
0.247

> <Color>
0.179

> <Negative vol penalty>
0.000

$$$$

  -OEChem-04042323533D

 86 94  0     1  0  0  0  0  0999 V2000
  -17.0700  -30.1576   24.6040 C   0  0  0  0  0  0  0  0  0  0  0  0
  -18.3335  -30.4710   25.0947 C   0  0  0  0  0  0  0  0  0  0  0  0
  -23.5991  -13.7606   19.3524 C   0  0  0  0  0  0  0  0  0  0  0  0
  -24.7225  -14.3730   21.4017 C   0  0  0  0  0  0  0  0  0  0  0  0
  -25.1681  -24.5468   23.3367 C   0  0  0  0  0  0  0  0  0  0  0  0
  -16.9317  -29.2046   23.5958 C   0  0  0  0  0  0  0  0  0  0  0  0
  -19.4594  -29.8308   24.5781 C   0  0  0  0  0  0  0  0  0  0  0  0
  -26.3836  -30.9941   23.1576 C   0  0  0  0  0  0  0  0  0  0  0  0
  -24.2613  -23.7565   22.6306 C   0  0  0  0  0  0  0  0  0  0  0  0
  -24.6431  -12.8900   19.0402 C   0  0  0  0  0  0  0  0  0  0  0  0
  -25.7666  -13.5024   21.0895 C   0  0  0  0  0  0  0  0  0  0  0  0
  -27.6404  -30.4411   23.3994 C   0  0  0  0  0  0  0  0  0  0  0  0
  -28.8995  -11.7108   20.6593 C   0  0  0  0  0  0  0  0  0  0  0  0
  -30.2037  -12.1722   20.8376 C   0  0  0  0  0  0  0  0  0  0  0  0
  -25.4416  -22.7807   24.9625 C   0  0  0  0  0  0  0  0  0  0  0  0
  -27.2877  -28.8692   21.6040 C   0  0  0  0  0  0  0  0  0  0  0  0
  -29.7900  -13.9522   19.2572 C   0  0  0  0  0  0  0  0  0  0  0  0
  -23.6387  -14.5022   20.5331 C   0  0  0  0  0  0  0  0  0  0  0  0
  -25.7583  -24.0589   24.5026 C   0  0  0  0  0  0  0  0  0  0  0  0
  -21.3939  -15.1040   21.5849 C   0  0  0  0  0  0  0  0  0  0  0  0
  -18.0573  -28.5594   23.0598 C   0  0  0  0  0  0  0  0  0  0  0  0
  -25.5636  -30.4807   22.1425 C   0  0  0  0  0  0  0  0  0  0  0  0
  -19.3358  -28.8673   23.5626 C   0  0  0  0  0  0  0  0  0  0  0  0
  -26.0220  -29.4190   21.3496 C   0  0  0  0  0  0  0  0  0  0  0  0
  -23.9445  -22.4782   23.0904 C   0  0  0  0  0  0  0  0  0  0  0  0
  -25.7269  -12.7608   19.9087 C   0  0  0  0  0  0  0  0  0  0  0  0
  -28.0915  -29.3767   22.6245 C   0  0  0  0  0  0  0  0  0  0  0  0
  -28.0406  -12.3700   19.7799 C   0  0  0  0  0  0  0  0  0  0  0  0
  -30.6489  -13.2929   20.1366 C   0  0  0  0  0  0  0  0  0  0  0  0
  -24.5347  -21.9903   24.2564 C   0  0  0  0  0  0  0  0  0  0  0  0
  -28.4858  -13.4908   19.0789 C   0  0  0  0  0  0  0  0  0  0  0  0
  -22.5608  -15.4021   20.8559 C   0  0  0  0  0  0  0  0  0  0  0  0
  -20.6963  -16.2867   21.6149 C   0  0  0  0  0  0  0  0  0  0  0  0
  -26.7190  -24.8953   25.2511 C   0  0  0  0  0  0  0  0  0  0  0  0
  -20.9779  -13.8685   22.1817 C   0  0  0  0  0  0  0  0  0  0  0  0
  -22.7004  -29.1030   22.0537 C   0  0  0  0  0  0  0  0  0  0  0  0
  -23.1333  -29.3060   18.8453 C   0  0  0  0  0  0  0  0  0  0  0  0
  -28.8842  -26.1130   25.1811 C   0  0  0  0  0  0  0  0  0  0  0  0
  -25.3062  -29.5395   16.2241 C   0  0  0  0  0  0  0  0  0  0  0  0
  -22.3500  -22.0134   21.1963 C   0  0  0  0  0  0  0  0  0  0  0  0
  -17.8536  -27.5019   22.0039 C   0  0  0  0  0  0  0  0  0  0  0  0
  -24.2215  -31.1057   21.8768 C   0  0  0  0  0  0  0  0  0  0  0  0
  -25.1884  -28.8447   20.2344 C   0  0  0  0  0  0  0  0  0  0  0  0
  -19.1304  -27.1410   21.2491 C   0  0  0  0  0  0  0  0  0  0  0  0
  -20.0324  -20.3076   19.0997 C   0  0  0  0  0  0  0  0  0  0  0  0
  -20.2851  -26.9305   22.2234 C   0  0  0  0  0  0  0  0  0  0  0  0
  -20.3074  -18.8290   19.3830 C   0  0  0  0  0  0  0  0  0  0  0  0
  -21.3158  -21.1361   19.1141 C   0  0  0  0  0  0  0  0  0  0  0  0
  -22.4110  -19.5106   20.6065 C   0  0  0  0  0  0  0  0  0  0  0  0
  -20.5834  -28.2123   23.0105 C   0  0  1  0  0  0  0  0  0  0  0  0
  -23.2587  -30.1689   21.1538 C   0  0  1  0  0  0  0  0  0  0  0  0
  -21.1407  -18.6467   20.6667 C   0  0  2  0  0  0  0  0  0  0  0  0
  -25.3649  -29.6483   13.7177 C   0  0  0  0  0  0  0  0  0  0  0  0
  -22.5580  -26.3128   18.7043 C   0  0  0  0  0  0  0  0  0  0  0  0
  -23.5451  -26.3022   16.4035 C   0  0  0  0  0  0  0  0  0  0  0  0
  -21.5098  -27.6637   16.8792 C   0  0  0  0  0  0  0  0  0  0  0  0
  -26.5970  -32.2026   16.2542 C   0  0  0  0  0  0  0  0  0  0  0  0
  -30.0191  -26.3562   24.2137 C   0  0  0  0  0  0  0  0  0  0  0  0
  -30.7224  -27.6914   24.4329 C   0  0  0  0  0  0  0  0  0  0  0  0
  -29.8047  -28.8856   24.1992 C   0  0  0  0  0  0  0  0  0  1  0  0
  -23.7450  -28.4158   17.7906 C   0  0  1  0  0  0  0  0  0  0  0  0
  -25.3252  -30.4499   15.0094 C   0  0  2  0  0  0  0  0  0  0  0  0
  -22.8546  -27.1830   17.4666 C   0  0  0  0  0  0  0  0  0  0  0  0
  -22.6054  -16.6744   20.4518 N   0  0  0  0  0  0  0  0  0  0  0  0
  -21.4578  -17.1862   20.9285 N   0  0  0  0  0  0  0  0  0  0  0  0
  -23.8809  -29.4859   20.0178 N   0  0  0  0  0  0  0  0  0  0  0  0
  -22.0506  -20.9159   20.3616 N   0  0  0  0  0  0  0  0  0  0  0  0
  -19.5118  -16.6346   22.1611 N   0  0  0  0  0  0  0  0  0  0  0  0
  -21.8144  -12.7509   22.0563 N   0  0  0  0  0  0  0  0  0  0  0  0
  -23.0230  -21.6779   22.3706 N   0  0  0  0  0  0  0  0  0  0  0  0
  -27.8322  -25.2958   24.6213 N   0  0  0  0  0  0  0  0  0  0  0  0
  -21.3262  -29.1466   22.1922 N   0  0  0  0  0  0  0  0  0  0  0  0
  -24.0197  -29.2727   16.6423 N   0  0  0  0  0  0  0  0  0  0  0  0
  -26.4223  -25.2019   26.5136 N   0  3  0  0  0  0  0  0  0  0  0  0
  -26.5203  -31.3394   15.0475 N   0  3  0  0  0  0  0  0  0  0  0  0
  -19.8888  -13.7546   22.7935 O   0  0  0  0  0  0  0  0  0  0  0  0
  -23.4600  -28.2995   22.5820 O   0  0  0  0  0  0  0  0  0  0  0  0
  -22.0361  -29.8285   18.6336 O   0  0  0  0  0  0  0  0  0  0  0  0
  -28.8334  -26.5210   26.3323 O   0  0  0  0  0  0  0  0  0  0  0  0
  -26.3302  -29.1052   16.7471 O   0  0  0  0  0  0  0  0  0  0  0  0
  -22.0088  -23.1626   20.9047 O   0  0  0  0  0  0  0  0  0  0  0  0
  -26.7458  -11.9112   19.6045 O   0  0  0  0  0  0  0  0  0  0  0  0
  -29.3175  -28.8347   22.8589 O   0  0  0  0  0  0  0  0  0  1  0  0
  -31.9009  -13.7368   20.3091 F   0  0  0  0  0  0  0  0  0  0  0  0
  -24.2366  -20.7638   24.7083 F   0  0  0  0  0  0  0  0  0  0  0  0
  -27.6649  -14.1290   18.2336 F   0  0  0  0  0  0  0  0  0  0  0  0
  1  2  1  0  0  0  0
  1  6  2  0  0  0  0
  2  7  2  0  0  0  0
  3 10  2  0  0  0  0
  3 18  1  0  0  0  0
  4 11  1  0  0  0  0
  4 18  2  0  0  0  0
  5  9  2  0  0  0  0
  5 19  1  0  0  0  0
  6 21  1  0  0  0  0
  7 23  1  0  0  0  0
  8 12  2  0  0  0  0
  8 22  1  0  0  0  0
  9 25  1  0  0  0  0
 10 26  1  0  0  0  0
 11 26  2  0  0  0  0
 12 27  1  0  0  0  0
 13 14  2  0  0  0  0
 13 28  1  0  0  0  0
 14 29  1  0  0  0  0
 15 19  2  0  0  0  0
 15 30  1  0  0  0  0
 16 24  1  0  0  0  0
 16 27  2  0  0  0  0
 17 29  2  0  0  0  0
 17 31  1  0  0  0  0
 18 32  1  0  0  0  0
 19 34  1  0  0  0  0
 20 32  1  0  0  0  0
 20 33  2  0  0  0  0
 20 35  1  0  0  0  0
 21 23  2  0  0  0  0
 21 41  1  0  0  0  0
 22 24  2  0  0  0  0
 22 42  1  0  0  0  0
 23 50  1  0  0  0  0
 24 43  1  0  0  0  0
 25 30  2  0  0  0  0
 25 70  1  0  0  0  0
 26 82  1  0  0  0  0
 27 83  1  0  0  0  0
 28 31  2  0  0  0  0
 28 82  1  0  0  0  0
 29 84  1  0  0  0  0
 30 85  1  0  0  0  0
 31 86  1  0  0  0  0
 32 64  2  0  0  0  0
 33 65  1  0  0  0  0
 33 68  1  0  0  0  0
 34 71  1  0  0  0  0
 34 74  2  0  0  0  0
 35 69  1  0  0  0  0
 35 76  2  0  0  0  0
 36 51  1  0  0  0  0
 36 72  1  0  0  0  0
 36 77  2  0  0  0  0
 37 61  1  0  0  0  0
 37 66  1  0  0  0  0
 37 78  2  0  0  0  0
 38 58  1  0  0  0  0
 38 71  1  0  0  0  0
 38 79  2  0  0  0  0
 39 62  1  0  0  0  0
 39 73  1  0  0  0  0
 39 80  2  0  0  0  0
 40 67  1  0  0  0  0
 40 70  1  0  0  0  0
 40 81  2  0  0  0  0
 41 44  1  0  0  0  0
 42 51  1  0  0  0  0
 43 66  1  0  0  0  0
 44 46  1  0  0  0  0
 45 47  1  0  0  0  0
 45 48  1  0  0  0  0
 46 50  1  0  0  0  0
 47 52  1  0  0  0  0
 48 67  1  0  0  0  0
 49 52  1  0  0  0  0
 49 67  1  0  0  0  0
 50 72  1  0  0  0  0
 51 66  1  0  0  0  0
 52 65  1  0  0  0  0
 53 62  1  0  0  0  0
 54 63  1  0  0  0  0
 55 63  1  0  0  0  0
 56 63  1  0  0  0  0
 57 75  1  0  0  0  0
 58 59  1  0  0  0  0
 59 60  1  0  0  0  0
 60 83  1  0  0  0  0
 61 63  1  0  0  0  0
 61 73  1  0  0  0  0
 62 75  1  0  0  0  0
 64 65  1  0  0  0  0
M  CHG  2  74   1  75   1
M  ISO  4  40 100  60 101  70 100  83 101
M  END
> <Batch ID>
0077

> <Smiles>
CNC(C)C(=O)NC(C(=O)N1Cc2cc([101O:1][101CH2:1]CCC(=O)NC(=N)c3ccc([100NH:0][100C:0](=O)N4CCCC(n5nc(-c6ccc(Oc7ccc(F)cc7F)cc6)c(C(N)=O)c5N)C4)c(F)c3)ccc2CC1C(=O)NC1CCCc2ccccc21)C(C)(C)C

> <Shape>
0.213

> <Color>
0.117

> <Negative vol penalty>
0.000

$$$$

  -OEChem-04042323533D

 90 99  0     1  0  0  0  0  0999 V2000
  -16.7234  -29.5070   24.1438 C   0  0  0  0  0  0  0  0  0  0  0  0
  -17.8543  -30.0013   24.7858 C   0  0  0  0  0  0  0  0  0  0  0  0
  -33.0168  -25.5835   17.5977 C   0  0  0  0  0  0  0  0  0  0  0  0
  -27.6732  -15.2671   19.9680 C   0  0  0  0  0  0  0  0  0  0  0  0
  -26.5408  -15.9083   22.0036 C   0  0  0  0  0  0  0  0  0  0  0  0
  -16.8578  -28.5692   23.1209 C   0  0  0  0  0  0  0  0  0  0  0  0
  -19.1203  -29.5571   24.4060 C   0  0  0  0  0  0  0  0  0  0  0  0
  -25.8938  -31.8195   23.8422 C   0  0  0  0  0  0  0  0  0  0  0  0
  -33.2599  -26.3240   18.7545 C   0  0  0  0  0  0  0  0  0  0  0  0
  -31.9385  -24.6999   17.5490 C   0  0  0  0  0  0  0  0  0  0  0  0
  -26.9488  -14.0754   19.9404 C   0  0  0  0  0  0  0  0  0  0  0  0
  -25.8164  -14.7166   21.9760 C   0  0  0  0  0  0  0  0  0  0  0  0
  -27.1843  -31.4634   24.2317 C   0  0  0  0  0  0  0  0  0  0  0  0
  -26.3337  -11.4679   22.7564 C   0  0  0  0  0  0  0  0  0  0  0  0
  -26.2133  -10.7549   23.9491 C   0  0  0  0  0  0  0  0  0  0  0  0
  -27.2997  -29.9002   22.3980 C   0  0  0  0  0  0  0  0  0  0  0  0
  -31.3467  -25.2971   19.8139 C   0  0  0  0  0  0  0  0  0  0  0  0
  -23.8094  -10.9668   23.8332 C   0  0  0  0  0  0  0  0  0  0  0  0
  -27.4692  -16.1835   20.9997 C   0  0  0  0  0  0  0  0  0  0  0  0
  -29.6165  -17.5574   21.0970 C   0  0  0  0  0  0  0  0  0  0  0  0
  -18.1267  -28.1205   22.7219 C   0  0  0  0  0  0  0  0  0  0  0  0
  -25.2915  -31.2098   22.7324 C   0  0  0  0  0  0  0  0  0  0  0  0
  -19.2718  -28.6114   23.3777 C   0  0  0  0  0  0  0  0  0  0  0  0
  -26.0025  -30.2522   21.9950 C   0  0  0  0  0  0  0  0  0  0  0  0
  -32.4249  -26.1808   19.8626 C   0  0  0  0  0  0  0  0  0  0  0  0
  -31.1036  -24.5567   18.6571 C   0  0  0  0  0  0  0  0  0  0  0  0
  -26.0204  -13.8002   20.9443 C   0  0  0  0  0  0  0  0  0  0  0  0
  -27.8863  -30.5015   23.5113 C   0  0  0  0  0  0  0  0  0  0  0  0
  -25.1920  -11.9305   22.1020 C   0  0  0  0  0  0  0  0  0  0  0  0
  -24.9512  -10.5043   24.4875 C   0  0  0  0  0  0  0  0  0  0  0  0
  -23.9298  -11.6799   22.6404 C   0  0  0  0  0  0  0  0  0  0  0  0
  -28.2177  -17.4144   21.0291 C   0  0  0  0  0  0  0  0  0  0  0  0
  -29.8232  -18.9152   21.0989 C   0  0  0  0  0  0  0  0  0  0  0  0
  -33.4121  -27.8083   23.6736 C   0  0  0  0  0  0  0  0  0  0  0  0
  -32.0622  -28.0698   23.1529 C   0  0  0  0  0  0  0  0  0  0  0  0
  -34.4093  -27.2636   22.7407 C   0  0  0  0  0  0  0  0  0  0  0  0
  -31.6206  -27.3318   21.9114 C   0  0  0  0  0  0  0  0  0  0  0  0
  -33.7230  -28.0630   24.9607 C   0  0  0  0  0  0  0  0  0  0  0  0
  -35.5333  -26.6103   23.0802 C   0  0  0  0  0  0  0  0  0  0  0  0
  -31.1334  -21.8265   17.5532 C   0  0  0  0  0  0  0  0  0  0  0  0
  -31.1687  -28.9283   23.6729 C   0  0  0  0  0  0  0  0  0  0  0  0
  -30.0096  -22.4918   17.8294 C   0  0  0  0  0  0  0  0  0  0  0  0
  -30.6377  -16.5526   21.1533 C   0  0  0  0  0  0  0  0  0  0  0  0
  -22.7124  -29.4054   22.2893 C   0  0  0  0  0  0  0  0  0  0  0  0
  -23.4863  -29.7521   19.1583 C   0  0  0  0  0  0  0  0  0  0  0  0
  -25.8913  -30.3855   16.8213 C   0  0  0  0  0  0  0  0  0  0  0  0
  -28.7704  -24.0048   19.2438 C   0  0  0  0  0  0  0  0  0  0  0  0
  -18.2193  -27.0704   21.6432 C   0  0  0  0  0  0  0  0  0  0  0  0
  -23.9089  -31.6244   22.3093 C   0  0  0  0  0  0  0  0  0  0  0  0
  -25.4084  -29.5826   20.7838 C   0  0  0  0  0  0  0  0  0  0  0  0
  -34.0358  -27.4657   21.2916 C   0  0  0  0  0  0  0  0  0  0  0  0
  -19.6176  -26.9315   21.0468 C   0  0  0  0  0  0  0  0  0  0  0  0
  -26.5827  -22.7478   21.6568 C   0  0  0  0  0  0  0  0  0  0  0  0
  -20.6669  -26.8796   22.1528 C   0  0  0  0  0  0  0  0  0  0  0  0
  -26.9164  -21.2575   21.7169 C   0  0  0  0  0  0  0  0  0  0  0  0
  -26.6147  -23.2580   20.2207 C   0  0  0  0  0  0  0  0  0  0  0  0
  -28.2614  -21.5273   19.5754 C   0  0  0  0  0  0  0  0  0  0  0  0
  -20.6636  -28.1725   22.9774 C   0  0  1  0  0  0  0  0  0  0  0  0
  -23.1987  -30.5670   21.4697 C   0  0  1  0  0  0  0  0  0  0  0  0
  -28.2506  -20.9613   21.0096 C   0  0  2  0  0  0  0  0  0  0  0  0
  -26.2296  -30.5636   14.3411 C   0  0  0  0  0  0  0  0  0  0  0  0
  -23.4108  -26.7102   18.9319 C   0  0  0  0  0  0  0  0  0  0  0  0
  -24.6538  -26.9100   16.7678 C   0  0  0  0  0  0  0  0  0  0  0  0
  -22.3873  -27.9257   17.0008 C   0  0  0  0  0  0  0  0  0  0  0  0
  -26.7333  -33.2156   17.0224 C   0  0  0  0  0  0  0  0  0  0  0  0
  -29.8072  -29.1591   23.1061 C   0  0  0  0  0  0  0  0  0  1  0  0
  -24.3516  -28.9941   18.1806 C   0  0  1  0  0  0  0  0  0  0  0  0
  -25.9108  -31.3172   15.6230 C   0  0  2  0  0  0  0  0  0  0  0  0
  -23.7116  -27.6460   17.7442 C   0  0  0  0  0  0  0  0  0  0  0  0
  -27.5807  -18.5878   20.9908 N   0  0  0  0  0  0  0  0  0  0  0  0
  -28.5838  -19.4810   21.0349 N   0  0  0  0  0  0  0  0  0  0  0  0
  -32.6765  -26.9468   21.0575 N   0  0  0  0  0  0  0  0  0  0  0  0
  -24.0513  -30.0174   20.4137 N   0  0  0  0  0  0  0  0  0  0  0  0
  -27.8956  -22.9533   19.5823 N   0  0  0  0  0  0  0  0  0  0  0  0
  -30.9423  -19.6685   21.1492 N   0  0  0  0  0  0  0  0  0  0  0  0
  -31.0532  -16.0918   22.4100 N   0  0  0  0  0  0  0  0  0  0  0  0
  -21.3419  -29.2310   22.2604 N   0  0  0  0  0  0  0  0  0  0  0  0
  -24.6224  -29.9114   17.0789 N   0  0  0  0  0  0  0  0  0  0  0  0
  -29.9841  -23.6390   18.6058 N   0  0  0  0  0  0  0  0  0  0  0  0
  -26.9376  -32.3809   15.8106 N   0  3  0  0  0  0  0  0  0  0  0  0
  -30.4226  -27.1387   21.7079 O   0  0  0  0  0  0  0  0  0  0  0  0
  -31.1779  -16.0893   20.1202 O   0  0  0  0  0  0  0  0  0  0  0  0
  -23.5209  -28.7173   22.9013 O   0  0  0  0  0  0  0  0  0  0  0  0
  -22.3535  -30.1022   18.8180 O   0  0  0  0  0  0  0  0  0  0  0  0
  -26.9013  -30.1033   17.4622 O   0  0  0  0  0  0  0  0  0  0  0  0
  -28.4856  -25.1877   19.4720 O   0  0  0  0  0  0  0  0  0  0  0  0
  -25.3131  -12.6376   20.9175 O   0  0  0  0  0  0  0  0  0  0  0  0
  -29.1458  -30.1516   23.8896 O   0  0  0  0  0  0  0  0  0  1  0  0
  -24.8356   -9.8182   25.6321 F   0  0  0  0  0  0  0  0  0  0  0  0
  -22.8293  -12.1208   22.0157 F   0  0  0  0  0  0  0  0  0  0  0  0
  1  2  1  0  0  0  0
  1  6  2  0  0  0  0
  2  7  2  0  0  0  0
  3  9  1  0  0  0  0
  3 10  2  0  0  0  0
  4 11  2  0  0  0  0
  4 19  1  0  0  0  0
  5 12  1  0  0  0  0
  5 19  2  0  0  0  0
  6 21  1  0  0  0  0
  7 23  1  0  0  0  0
  8 13  2  0  0  0  0
  8 22  1  0  0  0  0
  9 25  2  0  0  0  0
 10 26  1  0  0  0  0
 11 27  1  0  0  0  0
 12 27  2  0  0  0  0
 13 28  1  0  0  0  0
 14 15  2  0  0  0  0
 14 29  1  0  0  0  0
 15 30  1  0  0  0  0
 16 24  1  0  0  0  0
 16 28  2  0  0  0  0
 17 25  1  0  0  0  0
 17 26  2  0  0  0  0
 18 30  2  0  0  0  0
 18 31  1  0  0  0  0
 19 32  1  0  0  0  0
 20 32  1  0  0  0  0
 20 33  2  0  0  0  0
 20 43  1  0  0  0  0
 21 23  2  0  0  0  0
 21 48  1  0  0  0  0
 22 24  2  0  0  0  0
 22 49  1  0  0  0  0
 23 58  1  0  0  0  0
 24 50  1  0  0  0  0
 25 72  1  0  0  0  0
 26 79  1  0  0  0  0
 27 87  1  0  0  0  0
 28 88  1  0  0  0  0
 29 31  2  0  0  0  0
 29 87  1  0  0  0  0
 30 89  1  0  0  0  0
 31 90  1  0  0  0  0
 32 70  2  0  0  0  0
 33 71  1  0  0  0  0
 33 75  1  0  0  0  0
 34 35  1  0  0  0  0
 34 36  1  0  0  0  0
 34 38  2  0  0  0  0
 35 37  1  0  0  0  0
 35 41  2  0  0  0  0
 36 39  2  0  0  0  0
 36 51  1  0  0  0  0
 37 72  1  0  0  0  0
 37 81  2  0  0  0  0
 40 42  2  0  0  0  0
 41 66  1  0  0  0  0
 42 79  1  0  0  0  0
 43 76  1  0  0  0  0
 43 82  2  0  0  0  0
 44 59  1  0  0  0  0
 44 77  1  0  0  0  0
 44 83  2  0  0  0  0
 45 67  1  0  0  0  0
 45 73  1  0  0  0  0
 45 84  2  0  0  0  0
 46 68  1  0  0  0  0
 46 78  1  0  0  0  0
 46 85  2  0  0  0  0
 47 74  1  0  0  0  0
 47 79  1  0  0  0  0
 47 86  2  0  0  0  0
 48 52  1  0  0  0  0
 49 59  1  0  0  0  0
 50 73  1  0  0  0  0
 51 72  1  0  0  0  0
 52 54  1  0  0  0  0
 53 55  1  0  0  0  0
 53 56  1  0  0  0  0
 54 58  1  0  0  0  0
 55 60  1  0  0  0  0
 56 74  1  0  0  0  0
 57 60  1  0  0  0  0
 57 74  1  0  0  0  0
 58 77  1  0  0  0  0
 59 73  1  0  0  0  0
 60 71  1  0  0  0  0
 61 68  1  0  0  0  0
 62 69  1  0  0  0  0
 63 69  1  0  0  0  0
 64 69  1  0  0  0  0
 65 80  1  0  0  0  0
 66 88  1  0  0  0  0
 67 69  1  0  0  0  0
 67 78  1  0  0  0  0
 68 80  1  0  0  0  0
 70 71  1  0  0  0  0
M  CHG  1  80   1
M  ISO  4  47 100  66 101  79 100  88 101
M  END
> <Batch ID>
0077

> <Smiles>
C=C[100N:0](c1cccc(N2CC(=C)C(=C)C(=C[101CH2:1][101O:1]c3ccc4c(c3)CN(C(=O)C(NC(=O)C(C)NC)C(C)(C)C)C(C(=O)NC3CCCc5ccccc53)C4)C2=O)c1)[100C:0](=O)N1CCCC(n2nc(-c3ccc(Oc4ccc(F)cc4F)cc3)c(C(N)=O)c2N)C1

> <Shape>
0.297

> <Color>
0.091

> <Negative vol penalty>
0.000

$$$$

  -OEChem-04042323533D

 87 95  0     1  0  0  0  0  0999 V2000
  -31.3127  -23.8930   23.2009 C   0  0  0  0  0  0  0  0  0  0  0  0
  -30.7626  -24.2454   21.9726 C   0  0  0  0  0  0  0  0  0  0  0  0
  -26.3805  -12.4111   21.5288 C   0  0  0  0  0  0  0  0  0  0  0  0
  -25.9350  -13.1529   19.2731 C   0  0  0  0  0  0  0  0  0  0  0  0
  -27.6452  -21.4416   15.7858 C   0  0  0  0  0  0  0  0  0  0  0  0
  -30.4983  -23.8071   24.3292 C   0  0  0  0  0  0  0  0  0  0  0  0
  -29.3974  -24.5110   21.8718 C   0  0  0  0  0  0  0  0  0  0  0  0
  -28.4222  -28.6614   19.1390 C   0  0  0  0  0  0  0  0  0  0  0  0
  -28.1902  -20.5272   16.6871 C   0  0  0  0  0  0  0  0  0  0  0  0
  -25.1535  -11.7482   21.5532 C   0  0  0  0  0  0  0  0  0  0  0  0
  -24.7080  -12.4900   19.2974 C   0  0  0  0  0  0  0  0  0  0  0  0
  -28.4940  -28.5418   17.7519 C   0  0  0  0  0  0  0  0  0  0  0  0
  -22.2984   -9.5602   22.0789 C   0  0  0  0  0  0  0  0  0  0  0  0
  -22.2714   -8.2645   22.5946 C   0  0  0  0  0  0  0  0  0  0  0  0
  -26.0908  -28.3592   17.6493 C   0  0  0  0  0  0  0  0  0  0  0  0
  -28.3542  -22.2682   18.3542 C   0  0  0  0  0  0  0  0  0  0  0  0
  -23.8351   -7.5555   20.8947 C   0  0  0  0  0  0  0  0  0  0  0  0
  -26.7712  -13.1135   20.3888 C   0  0  0  0  0  0  0  0  0  0  0  0
  -27.4548  -22.7693   16.1686 C   0  0  0  0  0  0  0  0  0  0  0  0
  -29.2783  -13.2782   19.9469 C   0  0  0  0  0  0  0  0  0  0  0  0
  -29.1241  -24.0812   24.2442 C   0  0  0  0  0  0  0  0  0  0  0  0
  -27.1829  -28.6198   19.7939 C   0  0  0  0  0  0  0  0  0  0  0  0
  -28.5636  -24.4273   22.9999 C   0  0  0  0  0  0  0  0  0  0  0  0
  -26.0058  -28.4811   19.0447 C   0  0  0  0  0  0  0  0  0  0  0  0
  -28.5447  -20.9405   17.9713 C   0  0  0  0  0  0  0  0  0  0  0  0
  -24.3172  -11.7876   20.4375 C   0  0  0  0  0  0  0  0  0  0  0  0
  -27.3284  -28.3877   17.0070 C   0  0  0  0  0  0  0  0  0  0  0  0
  -23.0936   -9.8536   20.9711 C   0  0  0  0  0  0  0  0  0  0  0  0
  -23.0398   -7.2621   22.0025 C   0  0  0  0  0  0  0  0  0  0  0  0
  -27.8092  -23.1826   17.4528 C   0  0  0  0  0  0  0  0  0  0  0  0
  -23.8620   -8.8512   20.3791 C   0  0  0  0  0  0  0  0  0  0  0  0
  -28.0384  -13.7989   20.3633 C   0  0  0  0  0  0  0  0  0  0  0  0
  -30.1605  -14.3176   20.1136 C   0  0  0  0  0  0  0  0  0  0  0  0
  -26.8778  -23.7356   15.2113 C   0  0  0  0  0  0  0  0  0  0  0  0
  -29.6034  -11.9719   19.4536 C   0  0  0  0  0  0  0  0  0  0  0  0
  -25.8486  -26.7034   21.9504 C   0  0  0  0  0  0  0  0  0  0  0  0
  -23.4822  -28.9211   21.8847 C   0  0  0  0  0  0  0  0  0  0  0  0
  -21.8804  -31.3989   20.1696 C   0  0  0  0  0  0  0  0  0  0  0  0
  -27.2232  -25.8679   13.9747 C   0  0  0  0  0  0  0  0  0  0  0  0
  -29.5036  -20.2561   20.1981 C   0  0  0  0  0  0  0  0  0  0  0  0
  -28.2756  -23.9291   25.4818 C   0  0  0  0  0  0  0  0  0  0  0  0
  -27.1205  -28.7771   21.2884 C   0  0  0  0  0  0  0  0  0  0  0  0
  -24.6490  -28.4507   19.6978 C   0  0  0  0  0  0  0  0  0  0  0  0
  -26.9051  -24.5913   25.3657 C   0  0  0  0  0  0  0  0  0  0  0  0
  -30.8784  -18.2289   22.7821 C   0  0  0  0  0  0  0  0  0  0  0  0
  -26.2523  -24.2375   24.0333 C   0  0  0  0  0  0  0  0  0  0  0  0
  -30.4241  -16.8146   22.4139 C   0  0  0  0  0  0  0  0  0  0  0  0
  -29.8087  -19.2705   22.4587 C   0  0  0  0  0  0  0  0  0  0  0  0
  -28.8511  -17.8217   20.7113 C   0  0  0  0  0  0  0  0  0  0  0  0
  -27.0915  -24.7471   22.8553 C   0  0  1  0  0  0  0  0  0  0  0  0
  -25.8437  -28.2050   21.8966 C   0  0  1  0  0  0  0  0  0  0  0  0
  -29.9207  -16.7454   20.9587 C   0  0  2  0  0  0  0  0  0  0  0  0
  -19.9579  -33.0005   20.3592 C   0  0  0  0  0  0  0  0  0  0  0  0
  -27.7308  -28.0033   12.7832 C   0  0  0  0  0  0  0  0  0  0  0  0
  -29.5438  -26.3254   13.1728 C   0  0  0  0  0  0  0  0  0  0  0  0
  -21.5313  -26.6407   21.3332 C   0  0  0  0  0  0  0  0  0  0  0  0
  -19.8519  -28.3473   20.6017 C   0  0  0  0  0  0  0  0  0  0  0  0
  -20.6981  -28.3588   22.9483 C   0  0  0  0  0  0  0  0  0  0  0  0
  -23.6653  -33.7490   19.9461 C   0  0  0  0  0  0  0  0  0  0  0  0
  -28.5707  -27.6686   15.1108 C   0  0  0  0  0  0  0  0  0  1  0  0
  -22.2213  -29.1155   21.0776 C   0  0  1  0  0  0  0  0  0  0  0  0
  -21.4476  -32.7935   20.5844 C   0  0  2  0  0  0  0  0  0  0  0  0
  -28.2809  -26.9596   13.7730 C   0  0  0  0  0  0  0  0  0  0  0  0
  -21.1012  -28.1142   21.4778 C   0  0  0  0  0  0  0  0  0  0  0  0
  -28.1215  -15.0702   20.7644 N   0  0  0  0  0  0  0  0  0  0  0  0
  -29.4242  -15.3571   20.6010 N   0  0  0  0  0  0  0  0  0  0  0  0
  -24.6406  -28.6020   21.1622 N   0  0  0  0  0  0  0  0  0  0  0  0
  -29.3833  -19.1476   21.0627 N   0  0  0  0  0  0  0  0  0  0  0  0
  -31.4866  -14.4346   19.8895 N   0  0  0  0  0  0  0  0  0  0  0  0
  -28.5768  -11.0239   19.3454 N   0  0  0  0  0  0  0  0  0  0  0  0
  -29.0981  -20.0111   18.8866 N   0  0  0  0  0  0  0  0  0  0  0  0
  -27.6123  -24.8054   14.8773 N   0  0  0  0  0  0  0  0  0  0  0  0
  -26.8975  -26.1698   22.6747 N   0  0  0  0  0  0  0  0  0  0  0  0
  -21.8512  -30.5184   21.2303 N   0  0  0  0  0  0  0  0  0  0  0  0
  -25.6597  -23.4838   14.7334 N   0  3  0  0  0  0  0  0  0  0  0  0
  -22.1887  -33.8208   19.7993 N   0  3  0  0  0  0  0  0  0  0  0  0
  -30.7728  -11.6495   19.1341 O   0  0  0  0  0  0  0  0  0  0  0  0
  -24.9653  -26.0754   21.3785 O   0  0  0  0  0  0  0  0  0  0  0  0
  -23.4423  -29.0546   23.1104 O   0  0  0  0  0  0  0  0  0  0  0  0
  -22.2079  -31.1177   19.0188 O   0  0  0  0  0  0  0  0  0  0  0  0
  -26.1282  -25.8506   13.4276 O   0  0  0  0  0  0  0  0  0  0  0  0
  -29.9600  -21.3348   20.5855 O   0  0  0  0  0  0  0  0  0  0  0  0
  -23.1199  -11.1407   20.4608 O   0  0  0  0  0  0  0  0  0  0  0  0
  -27.3957  -28.2701   15.6529 O   0  0  0  0  0  0  0  0  0  1  0  0
  -23.0150   -6.0182   22.4988 F   0  0  0  0  0  0  0  0  0  0  0  0
  -27.6318  -24.4568   17.8292 F   0  0  0  0  0  0  0  0  0  0  0  0
  -24.6288   -9.1273   19.3153 F   0  0  0  0  0  0  0  0  0  0  0  0
  1  2  1  0  0  0  0
  1  6  2  0  0  0  0
  2  7  2  0  0  0  0
  3 10  2  0  0  0  0
  3 18  1  0  0  0  0
  4 11  1  0  0  0  0
  4 18  2  0  0  0  0
  5  9  2  0  0  0  0
  5 19  1  0  0  0  0
  6 21  1  0  0  0  0
  7 23  1  0  0  0  0
  8 12  2  0  0  0  0
  8 22  1  0  0  0  0
  9 25  1  0  0  0  0
 10 26  1  0  0  0  0
 11 26  2  0  0  0  0
 12 27  1  0  0  0  0
 13 14  2  0  0  0  0
 13 28  1  0  0  0  0
 14 29  1  0  0  0  0
 15 24  1  0  0  0  0
 15 27  2  0  0  0  0
 16 25  2  0  0  0  0
 16 30  1  0  0  0  0
 17 29  2  0  0  0  0
 17 31  1  0  0  0  0
 18 32  1  0  0  0  0
 19 30  2  0  0  0  0
 19 34  1  0  0  0  0
 20 32  1  0  0  0  0
 20 33  2  0  0  0  0
 20 35  1  0  0  0  0
 21 23  2  0  0  0  0
 21 41  1  0  0  0  0
 22 24  2  0  0  0  0
 22 42  1  0  0  0  0
 23 50  1  0  0  0  0
 24 43  1  0  0  0  0
 25 71  1  0  0  0  0
 26 83  1  0  0  0  0
 27 84  1  0  0  0  0
 28 31  2  0  0  0  0
 28 83  1  0  0  0  0
 29 85  1  0  0  0  0
 30 86  1  0  0  0  0
 31 87  1  0  0  0  0
 32 65  2  0  0  0  0
 33 66  1  0  0  0  0
 33 69  1  0  0  0  0
 34 72  1  0  0  0  0
 34 75  2  0  0  0  0
 35 70  1  0  0  0  0
 35 77  2  0  0  0  0
 36 51  1  0  0  0  0
 36 73  1  0  0  0  0
 36 78  2  0  0  0  0
 37 61  1  0  0  0  0
 37 67  1  0  0  0  0
 37 79  2  0  0  0  0
 38 62  1  0  0  0  0
 38 74  1  0  0  0  0
 38 80  2  0  0  0  0
 39 63  1  0  0  0  0
 39 72  1  0  0  0  0
 39 81  2  0  0  0  0
 40 68  1  0  0  0  0
 40 71  1  0  0  0  0
 40 82  2  0  0  0  0
 41 44  1  0  0  0  0
 42 51  1  0  0  0  0
 43 67  1  0  0  0  0
 44 46  1  0  0  0  0
 45 47  1  0  0  0  0
 45 48  1  0  0  0  0
 46 50  1  0  0  0  0
 47 52  1  0  0  0  0
 48 68  1  0  0  0  0
 49 52  1  0  0  0  0
 49 68  1  0  0  0  0
 50 73  1  0  0  0  0
 51 67  1  0  0  0  0
 52 66  1  0  0  0  0
 53 62  1  0  0  0  0
 54 63  1  0  0  0  0
 55 63  1  0  0  0  0
 56 64  1  0  0  0  0
 57 64  1  0  0  0  0
 58 64  1  0  0  0  0
 59 76  1  0  0  0  0
 60 63  1  0  0  0  0
 60 84  1  0  0  0  0
 61 64  1  0  0  0  0
 61 74  1  0  0  0  0
 62 76  1  0  0  0  0
 65 66  1  0  0  0  0
M  CHG  2  75   1  76   1
M  ISO  4  40 100  60 101  71 100  84 101
M  END
> <Batch ID>
0077

> <Smiles>
CNC(C)C(=O)NC(C(=O)N1Cc2cc([101O:1][101CH2:1]C(C)(C)C(=O)NC(=N)c3ccc([100NH:0][100C:0](=O)N4CCCC(n5nc(-c6ccc(Oc7ccc(F)cc7F)cc6)c(C(N)=O)c5N)C4)cc3F)ccc2CC1C(=O)NC1CCCc2ccccc21)C(C)(C)C

> <Shape>
0.228

> <Color>
0.080

> <Negative vol penalty>
0.000

$$$$

  -OEChem-04042323533D

 83 91  0     1  0  0  0  0  0999 V2000
  -31.6167  -37.7496   19.2854 C   0  0  0  0  0  0  0  0  0  0  0  0
  -31.8137  -36.3725   19.2655 C   0  0  0  0  0  0  0  0  0  0  0  0
  -23.3157   -9.2592   20.5218 C   0  0  0  0  0  0  0  0  0  0  0  0
  -23.0955  -10.8820   22.2980 C   0  0  0  0  0  0  0  0  0  0  0  0
  -30.8324  -38.3261   20.2836 C   0  0  0  0  0  0  0  0  0  0  0  0
  -31.2272  -35.5713   20.2445 C   0  0  0  0  0  0  0  0  0  0  0  0
  -29.0653  -29.8850   19.5391 C   0  0  0  0  0  0  0  0  0  0  0  0
  -28.3299  -18.6491   19.6330 C   0  0  0  0  0  0  0  0  0  0  0  0
  -30.5613  -18.2330   20.4606 C   0  0  0  0  0  0  0  0  0  0  0  0
  -28.5131  -20.0181   19.8274 C   0  0  0  0  0  0  0  0  0  0  0  0
  -30.7445  -19.6020   20.6550 C   0  0  0  0  0  0  0  0  0  0  0  0
  -22.5252   -8.3636   21.2420 C   0  0  0  0  0  0  0  0  0  0  0  0
  -22.3050   -9.9864   23.0182 C   0  0  0  0  0  0  0  0  0  0  0  0
  -29.6104  -28.6327   19.8193 C   0  0  0  0  0  0  0  0  0  0  0  0
  -22.9085   -6.2363   23.8404 C   0  0  0  0  0  0  0  0  0  0  0  0
  -23.3372   -4.9112   23.9169 C   0  0  0  0  0  0  0  0  0  0  0  0
  -28.4591  -28.6124   21.9390 C   0  0  0  0  0  0  0  0  0  0  0  0
  -21.2934   -4.1884   22.8503 C   0  0  0  0  0  0  0  0  0  0  0  0
  -23.6008  -10.5184   21.0498 C   0  0  0  0  0  0  0  0  0  0  0  0
  -23.9812  -12.4046   19.3749 C   0  0  0  0  0  0  0  0  0  0  0  0
  -30.2281  -37.5304   21.2697 C   0  0  0  0  0  0  0  0  0  0  0  0
  -28.2202  -30.5162   20.4631 C   0  0  0  0  0  0  0  0  0  0  0  0
  -30.4352  -36.1378   21.2576 C   0  0  0  0  0  0  0  0  0  0  0  0
  -27.9024  -29.8715   21.6671 C   0  0  0  0  0  0  0  0  0  0  0  0
  -29.3540  -17.7565   19.9496 C   0  0  0  0  0  0  0  0  0  0  0  0
  -29.7204  -20.4946   20.3384 C   0  0  0  0  0  0  0  0  0  0  0  0
  -22.0199   -8.7272   22.4902 C   0  0  0  0  0  0  0  0  0  0  0  0
  -29.3097  -27.9975   21.0206 C   0  0  0  0  0  0  0  0  0  0  0  0
  -21.6722   -6.5375   23.2690 C   0  0  0  0  0  0  0  0  0  0  0  0
  -22.5297   -3.8872   23.4218 C   0  0  0  0  0  0  0  0  0  0  0  0
  -20.8647   -5.5135   22.7739 C   0  0  0  0  0  0  0  0  0  0  0  0
  -24.4178  -11.4438   20.3066 C   0  0  0  0  0  0  0  0  0  0  0  0
  -25.1331  -13.0229   18.9539 C   0  0  0  0  0  0  0  0  0  0  0  0
  -22.6531  -12.7108   18.9299 C   0  0  0  0  0  0  0  0  0  0  0  0
  -28.3383  -33.2222   22.1267 C   0  0  0  0  0  0  0  0  0  0  0  0
  -25.3246  -32.3752   22.9766 C   0  0  0  0  0  0  0  0  0  0  0  0
  -23.0197  -29.8920   23.3864 C   0  0  0  0  0  0  0  0  0  0  0  0
  -30.0814  -15.3454   20.0136 C   0  0  0  0  0  0  0  0  0  0  0  0
  -29.3109  -22.9226   19.7846 C   0  0  0  0  0  0  0  0  0  0  0  0
  -29.4276  -38.2040   22.3560 C   0  0  0  0  0  0  0  0  0  0  0  0
  -27.6189  -31.8552   20.1343 C   0  0  0  0  0  0  0  0  0  0  0  0
  -26.9843  -30.4977   22.6836 C   0  0  0  0  0  0  0  0  0  0  0  0
  -28.5347  -37.2446   23.1386 C   0  0  0  0  0  0  0  0  0  0  0  0
  -29.9885  -11.8002   19.6970 C   0  0  0  0  0  0  0  0  0  0  0  0
  -29.3114  -35.9912   23.5295 C   0  0  0  0  0  0  0  0  0  0  0  0
  -28.4950  -11.4705   19.7507 C   0  0  0  0  0  0  0  0  0  0  0  0
  -30.3486  -12.9535   20.6319 C   0  0  0  0  0  0  0  0  0  0  0  0
  -28.0540  -13.8414   20.5067 C   0  0  0  0  0  0  0  0  0  0  0  0
  -29.7955  -35.2326   22.2879 C   0  0  1  0  0  0  0  0  0  0  0  0
  -27.1807  -32.6334   21.3711 C   0  0  1  0  0  0  0  0  0  0  0  0
  -27.6319  -12.7288   19.5333 C   0  0  2  0  0  0  0  0  0  0  0  0
  -20.6551  -29.5024   24.1308 C   0  0  0  0  0  0  0  0  0  0  0  0
  -26.1916  -32.6865   25.8854 C   0  0  0  0  0  0  0  0  0  0  0  0
  -24.1529  -31.3984   26.5582 C   0  0  0  0  0  0  0  0  0  0  0  0
  -23.9128  -33.5811   25.3747 C   0  0  0  0  0  0  0  0  0  0  0  0
  -22.2371  -28.8329   20.7359 C   0  0  0  0  0  0  0  0  0  0  0  0
  -29.3963  -24.4651   21.7697 C   0  0  0  0  0  0  0  0  0  0  0  0
  -29.0704  -25.9042   22.1236 C   0  0  0  0  0  0  0  0  0  1  0  0
  -24.7181  -31.5573   24.0911 C   0  0  1  0  0  0  0  0  0  0  0  0
  -21.5704  -29.7806   22.9486 C   0  0  2  0  0  0  0  0  0  0  0  0
  -24.7627  -32.2946   25.4593 C   0  0  0  0  0  0  0  0  0  0  0  0
  -25.7436  -11.4475   20.4682 N   0  0  0  0  0  0  0  0  0  0  0  0
  -26.1501  -12.4182   19.6324 N   0  0  0  0  0  0  0  0  0  0  0  0
  -26.4265  -31.8104   22.3188 N   0  0  0  0  0  0  0  0  0  0  0  0
  -29.4933  -14.1120   20.3652 N   0  0  0  0  0  0  0  0  0  0  0  0
  -25.3652  -14.0194   18.0733 N   0  0  0  0  0  0  0  0  0  0  0  0
  -21.5839  -11.9793   19.4647 N   0  0  0  0  0  0  0  0  0  0  0  0
  -28.9663  -22.7714   18.4408 N   0  0  0  0  0  0  0  0  0  0  0  0
  -29.1679  -16.3659   19.7515 N   0  0  0  0  0  0  0  0  0  0  0  0
  -29.9080  -21.8995   20.5369 N   0  0  0  0  0  0  0  0  0  0  0  0
  -28.7074  -34.4828   21.6976 N   0  0  0  0  0  0  0  0  0  0  0  0
  -23.3748  -31.1981   23.6495 N   0  0  0  0  0  0  0  0  0  0  0  0
  -29.0873  -24.1808   20.3680 N   0  3  0  0  0  0  0  0  0  0  0  0
  -21.4110  -28.6763   21.9607 N   0  3  0  0  0  0  0  0  0  0  0  0
  -22.4229  -13.5955   18.0709 O   0  0  0  0  0  0  0  0  0  0  0  0
  -28.8572  -32.5810   23.0329 O   0  0  0  0  0  0  0  0  0  0  0  0
  -24.8342  -33.4715   22.6952 O   0  0  0  0  0  0  0  0  0  0  0  0
  -23.7614  -28.9173   23.4886 O   0  0  0  0  0  0  0  0  0  0  0  0
  -31.3045  -15.4788   19.9233 O   0  0  0  0  0  0  0  0  0  0  0  0
  -21.2483   -7.8536   23.1931 O   0  0  0  0  0  0  0  0  0  0  0  0
  -29.8409  -26.7755   21.2969 O   0  0  0  0  0  0  0  0  0  1  0  0
  -22.9423   -2.6149   23.4938 F   0  0  0  0  0  0  0  0  0  0  0  0
  -19.6765   -5.7968   22.2227 F   0  0  0  0  0  0  0  0  0  0  0  0
  1  2  1  0  0  0  0
  1  5  2  0  0  0  0
  2  6  2  0  0  0  0
  3 12  2  0  0  0  0
  3 19  1  0  0  0  0
  4 13  1  0  0  0  0
  4 19  2  0  0  0  0
  5 21  1  0  0  0  0
  6 23  1  0  0  0  0
  7 14  2  0  0  0  0
  7 22  1  0  0  0  0
  8 10  2  0  0  0  0
  8 25  1  0  0  0  0
  9 11  1  0  0  0  0
  9 25  2  0  0  0  0
 10 26  1  0  0  0  0
 11 26  2  0  0  0  0
 12 27  1  0  0  0  0
 13 27  2  0  0  0  0
 14 28  1  0  0  0  0
 15 16  2  0  0  0  0
 15 29  1  0  0  0  0
 16 30  1  0  0  0  0
 17 24  1  0  0  0  0
 17 28  2  0  0  0  0
 18 30  2  0  0  0  0
 18 31  1  0  0  0  0
 19 32  1  0  0  0  0
 20 32  1  0  0  0  0
 20 33  2  0  0  0  0
 20 34  1  0  0  0  0
 21 23  2  0  0  0  0
 21 40  1  0  0  0  0
 22 24  2  0  0  0  0
 22 41  1  0  0  0  0
 23 49  1  0  0  0  0
 24 42  1  0  0  0  0
 25 69  1  0  0  0  0
 26 70  1  0  0  0  0
 27 80  1  0  0  0  0
 28 81  1  0  0  0  0
 29 31  2  0  0  0  0
 29 80  1  0  0  0  0
 30 82  1  0  0  0  0
 31 83  1  0  0  0  0
 32 62  2  0  0  0  0
 33 63  1  0  0  0  0
 33 66  1  0  0  0  0
 34 67  1  0  0  0  0
 34 75  2  0  0  0  0
 35 50  1  0  0  0  0
 35 71  1  0  0  0  0
 35 76  2  0  0  0  0
 36 59  1  0  0  0  0
 36 64  1  0  0  0  0
 36 77  2  0  0  0  0
 37 60  1  0  0  0  0
 37 72  1  0  0  0  0
 37 78  2  0  0  0  0
 38 65  1  0  0  0  0
 38 69  1  0  0  0  0
 38 79  2  0  0  0  0
 39 68  1  0  0  0  0
 39 70  1  0  0  0  0
 39 73  2  0  0  0  0
 40 43  1  0  0  0  0
 41 50  1  0  0  0  0
 42 64  1  0  0  0  0
 43 45  1  0  0  0  0
 44 46  1  0  0  0  0
 44 47  1  0  0  0  0
 45 49  1  0  0  0  0
 46 51  1  0  0  0  0
 47 65  1  0  0  0  0
 48 51  1  0  0  0  0
 48 65  1  0  0  0  0
 49 71  1  0  0  0  0
 50 64  1  0  0  0  0
 51 63  1  0  0  0  0
 52 60  1  0  0  0  0
 53 61  1  0  0  0  0
 54 61  1  0  0  0  0
 55 61  1  0  0  0  0
 56 74  1  0  0  0  0
 57 58  1  0  0  0  0
 57 73  1  0  0  0  0
 58 81  1  0  0  0  0
 59 61  1  0  0  0  0
 59 72  1  0  0  0  0
 60 74  1  0  0  0  0
 62 63  1  0  0  0  0
M  CHG  2  73   1  74   1
M  ISO  4  38 100  58 101  69 100  81 101
M  END
> <Batch ID>
0077

> <Smiles>
CNC(C)C(=O)NC(C(=O)N1Cc2cc([101O:1][101CH2:1]CNC(=N)Nc3ccc([100NH:0][100C:0](=O)N4CCCC(n5nc(-c6ccc(Oc7ccc(F)cc7F)cc6)c(C(N)=O)c5N)C4)cc3)ccc2CC1C(=O)NC1CCCc2ccccc21)C(C)(C)C

> <Shape>
0.306

> <Color>
0.098

> <Negative vol penalty>
0.000

$$$$

  -OEChem-04042323533D

 86 95  0     1  0  0  0  0  0999 V2000
  -27.0665  -33.0921   25.9460 C   0  0  0  0  0  0  0  0  0  0  0  0
  -27.4213  -31.9688   25.2060 C   0  0  0  0  0  0  0  0  0  0  0  0
  -27.4984  -22.1123   26.3123 C   0  0  0  0  0  0  0  0  0  0  0  0
  -23.6363  -14.8063   22.3672 C   0  0  0  0  0  0  0  0  0  0  0  0
  -21.8444  -15.6542   20.9863 C   0  0  0  0  0  0  0  0  0  0  0  0
  -26.1280  -22.3623   26.2428 C   0  0  0  0  0  0  0  0  0  0  0  0
  -25.7713  -33.2147   26.4474 C   0  0  0  0  0  0  0  0  0  0  0  0
  -26.4813  -30.9667   24.9678 C   0  0  0  0  0  0  0  0  0  0  0  0
  -26.5130  -29.3764   20.1600 C   0  0  0  0  0  0  0  0  0  0  0  0
  -28.3221  -22.4369   25.2344 C   0  0  0  0  0  0  0  0  0  0  0  0
  -23.0701  -13.5325   22.3199 C   0  0  0  0  0  0  0  0  0  0  0  0
  -21.2782  -14.3803   20.9389 C   0  0  0  0  0  0  0  0  0  0  0  0
  -27.5310  -28.5004   19.7859 C   0  0  0  0  0  0  0  0  0  0  0  0
  -22.2913   -9.9821   22.2638 C   0  0  0  0  0  0  0  0  0  0  0  0
  -23.1422   -8.9026   22.0266 C   0  0  0  0  0  0  0  0  0  0  0  0
  -26.4047  -23.2616   24.0177 C   0  0  0  0  0  0  0  0  0  0  0  0
  -26.0050  -26.6446   20.0016 C   0  0  0  0  0  0  0  0  0  0  0  0
  -23.7767   -9.8691   19.9052 C   0  0  0  0  0  0  0  0  0  0  0  0
  -23.0234  -15.8672   21.7005 C   0  0  0  0  0  0  0  0  0  0  0  0
  -25.5811  -22.9370   25.0955 C   0  0  0  0  0  0  0  0  0  0  0  0
  -24.8875  -17.5627   21.3026 C   0  0  0  0  0  0  0  0  0  0  0  0
  -24.8122  -32.2182   26.2070 C   0  0  0  0  0  0  0  0  0  0  0  0
  -25.2341  -28.8911   20.4689 C   0  0  0  0  0  0  0  0  0  0  0  0
  -25.1724  -31.0755   25.4675 C   0  0  0  0  0  0  0  0  0  0  0  0
  -24.9719  -27.5168   20.3769 C   0  0  0  0  0  0  0  0  0  0  0  0
  -27.7752  -23.0115   24.0871 C   0  0  0  0  0  0  0  0  0  0  0  0
  -21.8911  -13.3194   21.6057 C   0  0  0  0  0  0  0  0  0  0  0  0
  -27.2779  -27.1339   19.7094 C   0  0  0  0  0  0  0  0  0  0  0  0
  -22.1830  -11.0050   21.3217 C   0  0  0  0  0  0  0  0  0  0  0  0
  -23.8849   -8.8461   20.8473 C   0  0  0  0  0  0  0  0  0  0  0  0
  -22.9258  -10.9485   20.1424 C   0  0  0  0  0  0  0  0  0  0  0  0
  -23.6075  -17.1835   21.7495 C   0  0  0  0  0  0  0  0  0  0  0  0
  -24.9599  -18.9080   21.5700 C   0  0  0  0  0  0  0  0  0  0  0  0
  -30.4180  -24.7058   22.2285 C   0  0  0  0  0  0  0  0  0  0  0  0
  -28.9681  -23.5859   20.5873 C   0  0  0  0  0  0  0  0  0  0  0  0
  -31.2459  -25.7001   22.5980 C   0  0  0  0  0  0  0  0  0  0  0  0
  -24.1379  -23.1991   25.0226 C   0  0  0  0  0  0  0  0  0  0  0  0
  -25.9187  -16.7699   20.6996 C   0  0  0  0  0  0  0  0  0  0  0  0
  -23.3939  -28.9083   23.0606 C   0  0  0  0  0  0  0  0  0  0  0  0
  -21.2065  -27.6222   21.0398 C   0  0  0  0  0  0  0  0  0  0  0  0
  -21.1847  -25.1580   18.4046 C   0  0  0  0  0  0  0  0  0  0  0  0
  -23.4382  -32.3727   26.8095 C   0  0  0  0  0  0  0  0  0  0  0  0
  -24.1397  -29.8520   20.8450 C   0  0  0  0  0  0  0  0  0  0  0  0
  -23.6105  -26.9473   20.6786 C   0  0  0  0  0  0  0  0  0  0  0  0
  -29.9849  -23.7029   23.2633 C   0  0  0  0  0  0  0  0  0  0  0  0
  -28.3526  -22.7571   21.6977 C   0  0  0  0  0  0  0  0  0  0  0  0
  -22.3955  -31.4426   26.1947 C   0  0  0  0  0  0  0  0  0  0  0  0
  -21.3858  -22.1952   22.9830 C   0  0  0  0  0  0  0  0  0  0  0  0
  -22.9451  -30.0240   26.0832 C   0  0  0  0  0  0  0  0  0  0  0  0
  -21.8124  -20.8235   22.4573 C   0  0  0  0  0  0  0  0  0  0  0  0
  -21.8706  -22.4269   24.4119 C   0  0  0  0  0  0  0  0  0  0  0  0
  -23.7539  -20.8626   24.0790 C   0  0  0  0  0  0  0  0  0  0  0  0
  -24.1739  -29.9788   25.1669 C   0  0  1  0  0  0  0  0  0  0  0  0
  -23.0129  -29.1944   21.6356 C   0  0  1  0  0  0  0  0  0  0  0  0
  -23.3287  -20.6095   22.6232 C   0  0  1  0  0  0  0  0  0  0  0  0
  -19.6767  -24.9112   16.4141 C   0  0  0  0  0  0  0  0  0  0  0  0
  -19.6133  -25.7463   22.8433 C   0  0  0  0  0  0  0  0  0  0  0  0
  -19.2192  -24.2801   20.8526 C   0  0  0  0  0  0  0  0  0  0  0  0
  -18.3498  -26.6182   20.8690 C   0  0  0  0  0  0  0  0  0  0  0  0
  -23.4718  -25.1575   16.5263 C   0  0  0  0  0  0  0  0  0  0  0  0
  -30.4497  -25.3992   19.8543 C   0  0  0  0  0  0  0  0  0  0  0  0
  -29.6060  -26.6493   19.6800 C   0  0  0  0  0  0  0  0  0  1  0  0
  -20.8341  -26.2213   20.6184 C   0  0  1  0  0  0  0  0  0  0  0  0
  -21.0188  -25.4183   16.9183 C   0  0  2  0  0  0  0  0  0  0  0  0
  -19.5305  -25.7230   21.3040 C   0  0  0  0  0  0  0  0  0  0  0  0
  -22.9167  -18.2052   22.2621 N   0  0  0  0  0  0  0  0  0  0  0  0
  -23.7656  -19.2397   22.1390 N   0  0  0  0  0  0  0  0  0  0  0  0
  -28.5998  -23.3360   23.0078 N   0  0  1  0  0  0  0  0  0  0  0  0
  -29.9361  -24.5400   20.9258 N   0  0  0  0  0  0  0  0  0  0  0  0
  -23.3109  -22.1949   24.5137 N   0  0  0  0  0  0  0  0  0  0  0  0
  -22.5751  -27.9266   21.0480 N   0  0  0  0  0  0  0  0  0  0  0  0
  -25.9281  -19.8276   21.3718 N   0  0  0  0  0  0  0  0  0  0  0  0
  -25.6789  -15.4039   20.4968 N   0  0  0  0  0  0  0  0  0  0  0  0
  -23.7706  -30.0277   23.7779 N   0  0  0  0  0  0  0  0  0  0  0  0
  -20.7747  -26.2357   19.1608 N   0  0  0  0  0  0  0  0  0  0  0  0
  -22.0979  -24.7363   16.1494 N   0  3  0  0  0  0  0  0  0  0  0  0
  -28.5911  -23.3717   19.4296 O   0  0  0  0  0  0  0  0  0  0  0  0
  -23.7662  -24.3056   25.4109 O   0  0  0  0  0  0  0  0  0  0  0  0
  -27.0264  -17.2549   20.3659 O   0  0  0  0  0  0  0  0  0  0  0  0
  -23.3481  -27.7573   23.4789 O   0  0  0  0  0  0  0  0  0  0  0  0
  -20.3155  -28.4194   21.3436 O   0  0  0  0  0  0  0  0  0  0  0  0
  -21.6297  -24.1026   18.8504 O   0  0  0  0  0  0  0  0  0  0  0  0
  -21.3384  -12.0764   21.5591 O   0  0  0  0  0  0  0  0  0  0  0  0
  -28.2699  -26.2766   19.3451 O   0  0  0  0  0  0  0  0  0  1  0  0
  -24.7032   -7.8102   20.6203 F   0  0  0  0  0  0  0  0  0  0  0  0
  -22.8269  -11.9289   19.2342 F   0  0  0  0  0  0  0  0  0  0  0  0
  1  2  1  0  0  0  0
  1  7  2  0  0  0  0
  2  8  2  0  0  0  0
  3  6  1  0  0  0  0
  3 10  2  0  0  0  0
  4 11  2  0  0  0  0
  4 19  1  0  0  0  0
  5 12  1  0  0  0  0
  5 19  2  0  0  0  0
  6 20  2  0  0  0  0
  7 22  1  0  0  0  0
  8 24  1  0  0  0  0
  9 13  2  0  0  0  0
  9 23  1  0  0  0  0
 10 26  1  0  0  0  0
 11 27  1  0  0  0  0
 12 27  2  0  0  0  0
 13 28  1  0  0  0  0
 14 15  2  0  0  0  0
 14 29  1  0  0  0  0
 15 30  1  0  0  0  0
 16 20  1  0  0  0  0
 16 26  2  0  0  0  0
 17 25  1  0  0  0  0
 17 28  2  0  0  0  0
 18 30  2  0  0  0  0
 18 31  1  0  0  0  0
 19 32  1  0  0  0  0
 20 37  1  0  0  0  0
 21 32  1  0  0  0  0
 21 33  2  0  0  0  0
 21 38  1  0  0  0  0
 22 24  2  0  0  0  0
 22 42  1  0  0  0  0
 23 25  2  0  0  0  0
 23 43  1  0  0  0  0
 24 53  1  0  0  0  0
 25 44  1  0  0  0  0
 26 68  1  0  0  0  0
 27 83  1  0  0  0  0
 28 84  1  0  0  0  0
 29 31  2  0  0  0  0
 29 83  1  0  0  0  0
 30 85  1  0  0  0  0
 31 86  1  0  0  0  0
 32 66  2  0  0  0  0
 33 67  1  0  0  0  0
 33 72  1  0  0  0  0
 34 36  2  0  0  0  0
 34 45  1  0  0  0  0
 34 69  1  0  0  0  0
 35 46  1  0  0  0  0
 35 69  1  0  0  0  0
 35 77  2  0  0  0  0
 37 70  1  0  0  0  0
 37 78  2  0  0  0  0
 38 73  1  0  0  0  0
 38 79  2  0  0  0  0
 39 54  1  0  0  0  0
 39 74  1  0  0  0  0
 39 80  2  0  0  0  0
 40 63  1  0  0  0  0
 40 71  1  0  0  0  0
 40 81  2  0  0  0  0
 41 64  1  0  0  0  0
 41 75  1  0  0  0  0
 41 82  2  0  0  0  0
 42 47  1  0  0  0  0
 43 54  1  0  0  0  0
 44 71  1  0  0  0  0
 45 68  1  0  0  0  0
 46 68  1  0  0  0  0
 47 49  1  0  0  0  0
 48 50  1  0  0  0  0
 48 51  1  0  0  0  0
 49 53  1  0  0  0  0
 50 55  1  0  0  0  0
 51 70  1  0  0  0  0
 52 55  1  0  0  0  0
 52 70  1  0  0  0  0
 53 74  1  0  0  0  0
 54 71  1  0  0  0  0
 55 67  1  0  0  0  0
 56 64  1  0  0  0  0
 57 65  1  0  0  0  0
 58 65  1  0  0  0  0
 59 65  1  0  0  0  0
 60 76  1  0  0  0  0
 61 62  1  0  0  0  0
 61 69  1  0  0  0  0
 62 84  1  0  0  0  0
 63 65  1  0  0  0  0
 63 75  1  0  0  0  0
 64 76  1  0  0  0  0
 66 67  1  0  0  0  0
M  CHG  1  76   1
M  ISO  4  20 100  37 100  62 101  84 101
M  END
> <Batch ID>
0077

> <Smiles>
C=C1CN(c2ccc[100c:0]([100C:0](=O)N3CCCC(n4nc(-c5ccc(Oc6ccc(F)cc6F)cc5)c(C(N)=O)c4N)C3)c2)CC(=O)N1C[101CH2:1][101O:1]c1ccc2c(c1)CN(C(=O)C(NC(=O)C(C)NC)C(C)(C)C)C(C(=O)NC1CCCc3ccccc31)C2

> <Shape>
0.214

> <Color>
0.074

> <Negative vol penalty>
0.000

$$$$

  -OEChem-04042323533D

 86 95  0     1  0  0  0  0  0999 V2000
  -19.7154  -25.2618   24.2302 C   0  0  0  0  0  0  0  0  0  0  0  0
  -20.7777  -25.2391   23.3322 C   0  0  0  0  0  0  0  0  0  0  0  0
  -23.8267   -8.7257   19.9773 C   0  0  0  0  0  0  0  0  0  0  0  0
  -23.1231  -10.4522   21.5138 C   0  0  0  0  0  0  0  0  0  0  0  0
  -18.8618  -26.3635   24.2706 C   0  0  0  0  0  0  0  0  0  0  0  0
  -20.9865  -26.3176   22.4734 C   0  0  0  0  0  0  0  0  0  0  0  0
  -25.8536  -27.6954   22.2324 C   0  0  0  0  0  0  0  0  0  0  0  0
  -27.7745  -19.9791   18.9570 C   0  0  0  0  0  0  0  0  0  0  0  0
  -29.8679  -19.9346   20.1623 C   0  0  0  0  0  0  0  0  0  0  0  0
  -27.7875  -18.5863   18.8830 C   0  0  0  0  0  0  0  0  0  0  0  0
  -29.8809  -18.5417   20.0883 C   0  0  0  0  0  0  0  0  0  0  0  0
  -23.0366   -7.7987   20.6570 C   0  0  0  0  0  0  0  0  0  0  0  0
  -22.3329   -9.5253   22.1936 C   0  0  0  0  0  0  0  0  0  0  0  0
  -26.6982  -26.9142   21.4450 C   0  0  0  0  0  0  0  0  0  0  0  0
  -23.2237   -5.9735   23.4956 C   0  0  0  0  0  0  0  0  0  0  0  0
  -23.7853   -4.7286   23.7791 C   0  0  0  0  0  0  0  0  0  0  0  0
  -26.5340  -28.5379   19.6686 C   0  0  0  0  0  0  0  0  0  0  0  0
  -22.0484   -3.6516   22.4904 C   0  0  0  0  0  0  0  0  0  0  0  0
  -23.8700  -10.0525   20.4057 C   0  0  0  0  0  0  0  0  0  0  0  0
  -24.3034  -11.8207   18.6187 C   0  0  0  0  0  0  0  0  0  0  0  0
  -19.0659  -27.4603   23.4185 C   0  0  0  0  0  0  0  0  0  0  0  0
  -25.3332  -28.9004   21.7389 C   0  0  0  0  0  0  0  0  0  0  0  0
  -20.1340  -27.4344   22.5016 C   0  0  0  0  0  0  0  0  0  0  0  0
  -25.6850  -29.3338   20.4527 C   0  0  0  0  0  0  0  0  0  0  0  0
  -28.8148  -20.6533   19.5967 C   0  0  0  0  0  0  0  0  0  0  0  0
  -28.8407  -17.8676   19.4487 C   0  0  0  0  0  0  0  0  0  0  0  0
  -22.2897   -8.1985   21.7651 C   0  0  0  0  0  0  0  0  0  0  0  0
  -27.0362  -27.3340   20.1618 C   0  0  0  0  0  0  0  0  0  0  0  0
  -22.0744   -6.0575   22.7096 C   0  0  0  0  0  0  0  0  0  0  0  0
  -23.1977   -3.5677   23.2765 C   0  0  0  0  0  0  0  0  0  0  0  0
  -21.4868   -4.8966   22.2070 C   0  0  0  0  0  0  0  0  0  0  0  0
  -24.6865  -11.0104   19.7043 C   0  0  0  0  0  0  0  0  0  0  0  0
  -25.4295  -12.5477   18.3188 C   0  0  0  0  0  0  0  0  0  0  0  0
  -28.2121  -24.2568   19.4586 C   0  0  0  0  0  0  0  0  0  0  0  0
  -29.4605  -24.2400   20.1790 C   0  0  0  0  0  0  0  0  0  0  0  0
  -27.7944  -22.8638   19.1365 C   0  0  0  0  0  0  0  0  0  0  0  0
  -30.1636  -25.2773   20.6461 C   0  0  0  0  0  0  0  0  0  0  0  0
  -23.0424  -11.9084   17.9420 C   0  0  0  0  0  0  0  0  0  0  0  0
  -27.4633  -25.3010   19.0869 C   0  0  0  0  0  0  0  0  0  1  0  0
  -22.4132  -30.0048   21.1407 C   0  0  0  0  0  0  0  0  0  0  0  0
  -24.0035  -32.7679   20.5422 C   0  0  0  0  0  0  0  0  0  0  0  0
  -26.9238  -34.2970   19.6587 C   0  0  0  0  0  0  0  0  0  0  0  0
  -29.8236  -15.5890   19.8825 C   0  0  0  0  0  0  0  0  0  0  0  0
  -18.0888  -28.6082   23.4660 C   0  0  0  0  0  0  0  0  0  0  0  0
  -24.4447  -29.7448   22.6108 C   0  0  0  0  0  0  0  0  0  0  0  0
  -25.1693  -30.6295   19.8837 C   0  0  0  0  0  0  0  0  0  0  0  0
  -29.8627  -22.8038   20.3275 C   0  0  0  0  0  0  0  0  0  0  0  0
  -18.6013  -29.8730   22.7821 C   0  0  0  0  0  0  0  0  0  0  0  0
  -30.2000  -12.0488   19.9358 C   0  0  0  0  0  0  0  0  0  0  0  0
  -19.2063  -29.5371   21.4227 C   0  0  0  0  0  0  0  0  0  0  0  0
  -28.7676  -11.5297   19.7911 C   0  0  0  0  0  0  0  0  0  0  0  0
  -30.2607  -13.3161   20.7868 C   0  0  0  0  0  0  0  0  0  0  0  0
  -27.9320  -13.8775   20.2114 C   0  0  0  0  0  0  0  0  0  0  0  0
  -20.4079  -28.5960   21.5710 C   0  0  1  0  0  0  0  0  0  0  0  0
  -23.5612  -30.7008   21.8154 C   0  0  1  0  0  0  0  0  0  0  0  0
  -27.8123  -12.6389   19.3086 C   0  0  2  0  0  0  0  0  0  0  0  0
  -26.1772  -25.1718   18.3362 C   0  0  0  0  0  0  0  0  0  0  0  0
  -27.9046  -36.5637   19.2146 C   0  0  0  0  0  0  0  0  0  0  0  0
  -22.6051  -32.8392   17.8313 C   0  0  0  0  0  0  0  0  0  0  0  0
  -24.2914  -34.5323   17.0841 C   0  0  0  0  0  0  0  0  0  0  0  0
  -22.7605  -35.0534   18.9834 C   0  0  0  0  0  0  0  0  0  0  0  0
  -28.8869  -34.0056   21.8542 C   0  0  0  0  0  0  0  0  0  0  0  0
  -24.6375  -33.3941   19.3237 C   0  0  1  0  0  0  0  0  0  0  0  0
  -27.6609  -35.4822   20.2556 C   0  0  2  0  0  0  0  0  0  0  0  0
  -23.5820  -33.9294   18.3153 C   0  0  0  0  0  0  0  0  0  0  0  0
  -25.9566  -11.2039   20.0693 N   0  0  0  0  0  0  0  0  0  0  0  0
  -26.3815  -12.1441   19.2081 N   0  0  0  0  0  0  0  0  0  0  0  0
  -28.8021  -22.0425   19.6703 N   0  0  0  0  0  0  0  0  0  0  0  0
  -24.2988  -31.4168   20.7726 N   0  0  0  0  0  0  0  0  0  0  0  0
  -29.3330  -14.3235   20.2678 N   0  0  0  0  0  0  0  0  0  0  0  0
  -25.6882  -13.4863   17.3837 N   0  0  0  0  0  0  0  0  0  0  0  0
  -21.9915  -11.0904   18.3787 N   0  0  0  0  0  0  0  0  0  0  0  0
  -28.8542  -16.4527   19.3736 N   0  0  0  0  0  0  0  0  0  0  0  0
  -21.5749  -29.3315   22.0088 N   0  0  0  0  0  0  0  0  0  0  0  0
  -25.5591  -34.4105   19.8198 N   0  0  0  0  0  0  0  0  0  0  0  0
  -28.9785  -35.0508   20.8024 N   0  3  0  0  0  0  0  0  0  0  0  0
  -26.7844  -22.5395   18.5347 O   0  0  0  0  0  0  0  0  0  0  0  0
  -22.8581  -12.6772   16.9681 O   0  0  0  0  0  0  0  0  0  0  0  0
  -22.2957  -30.0747   19.9230 O   0  0  0  0  0  0  0  0  0  0  0  0
  -23.2788  -33.4543   21.2671 O   0  0  0  0  0  0  0  0  0  0  0  0
  -27.5006  -33.3656   19.1017 O   0  0  0  0  0  0  0  0  0  0  0  0
  -31.0204  -15.8752   19.9701 O   0  0  0  0  0  0  0  0  0  0  0  0
  -21.5184   -7.2943   22.4285 O   0  0  0  0  0  0  0  0  0  0  0  0
  -27.8600  -26.5730   19.3909 O   0  0  0  0  0  0  0  0  0  1  0  0
  -23.7380   -2.3723   23.5475 F   0  0  0  0  0  0  0  0  0  0  0  0
  -20.3833   -4.9711   21.4504 F   0  0  0  0  0  0  0  0  0  0  0  0
  1  2  1  0  0  0  0
  1  5  2  0  0  0  0
  2  6  2  0  0  0  0
  3 12  2  0  0  0  0
  3 19  1  0  0  0  0
  4 13  1  0  0  0  0
  4 19  2  0  0  0  0
  5 21  1  0  0  0  0
  6 23  1  0  0  0  0
  7 14  2  0  0  0  0
  7 22  1  0  0  0  0
  8 10  2  0  0  0  0
  8 25  1  0  0  0  0
  9 11  1  0  0  0  0
  9 25  2  0  0  0  0
 10 26  1  0  0  0  0
 11 26  2  0  0  0  0
 12 27  1  0  0  0  0
 13 27  2  0  0  0  0
 14 28  1  0  0  0  0
 15 16  2  0  0  0  0
 15 29  1  0  0  0  0
 16 30  1  0  0  0  0
 17 24  1  0  0  0  0
 17 28  2  0  0  0  0
 18 30  2  0  0  0  0
 18 31  1  0  0  0  0
 19 32  1  0  0  0  0
 20 32  1  0  0  0  0
 20 33  2  0  0  0  0
 20 38  1  0  0  0  0
 21 23  2  0  0  0  0
 21 44  1  0  0  0  0
 22 24  2  0  0  0  0
 22 45  1  0  0  0  0
 23 54  1  0  0  0  0
 24 46  1  0  0  0  0
 25 68  1  0  0  0  0
 26 73  1  0  0  0  0
 27 83  1  0  0  0  0
 28 84  1  0  0  0  0
 29 31  2  0  0  0  0
 29 83  1  0  0  0  0
 30 85  1  0  0  0  0
 31 86  1  0  0  0  0
 32 66  2  0  0  0  0
 33 67  1  0  0  0  0
 33 71  1  0  0  0  0
 34 35  1  0  0  0  0
 34 36  1  0  0  0  0
 34 39  2  0  0  0  0
 35 37  2  0  0  0  0
 35 47  1  0  0  0  0
 36 68  1  0  0  0  0
 36 77  2  0  0  0  0
 38 72  1  0  0  0  0
 38 78  2  0  0  0  0
 39 57  1  0  0  0  0
 39 84  1  0  0  0  0
 40 55  1  0  0  0  0
 40 74  1  0  0  0  0
 40 79  2  0  0  0  0
 41 63  1  0  0  0  0
 41 69  1  0  0  0  0
 41 80  2  0  0  0  0
 42 64  1  0  0  0  0
 42 75  1  0  0  0  0
 42 81  2  0  0  0  0
 43 70  1  0  0  0  0
 43 73  1  0  0  0  0
 43 82  2  0  0  0  0
 44 48  1  0  0  0  0
 45 55  1  0  0  0  0
 46 69  1  0  0  0  0
 47 68  1  0  0  0  0
 48 50  1  0  0  0  0
 49 51  1  0  0  0  0
 49 52  1  0  0  0  0
 50 54  1  0  0  0  0
 51 56  1  0  0  0  0
 52 70  1  0  0  0  0
 53 56  1  0  0  0  0
 53 70  1  0  0  0  0
 54 74  1  0  0  0  0
 55 69  1  0  0  0  0
 56 67  1  0  0  0  0
 58 64  1  0  0  0  0
 59 65  1  0  0  0  0
 60 65  1  0  0  0  0
 61 65  1  0  0  0  0
 62 76  1  0  0  0  0
 63 65  1  0  0  0  0
 63 75  1  0  0  0  0
 64 76  1  0  0  0  0
 66 67  1  0  0  0  0
M  CHG  1  76   1
M  ISO  4  39 101  43 100  73 100  84 101
M  END
> <Batch ID>
0077

> <Smiles>
C=C1CN(c2ccc([100NH:0][100C:0](=O)N3CCCC(n4nc(-c5ccc(Oc6ccc(F)cc6F)cc5)c(C(N)=O)c4N)C3)cc2)C(=O)C1=[101C:1](C)[101O:1]c1ccc2c(c1)CN(C(=O)C(NC(=O)C(C)NC)C(C)(C)C)C(C(=O)NC1CCCc3ccccc31)C2

> <Shape>
0.295

> <Color>
0.129

> <Negative vol penalty>
0.000

$$$$

  -OEChem-04042323533D

 92100  0     1  0  0  0  0  0999 V2000
  -30.9208  -18.6684   26.4647 C   0  0  0  0  0  0  0  0  0  0  0  0
  -30.5783  -19.9932   26.7156 C   0  0  0  0  0  0  0  0  0  0  0  0
  -27.1746  -14.5521   21.8055 C   0  0  0  0  0  0  0  0  0  0  0  0
  -25.0244  -14.9411   20.7747 C   0  0  0  0  0  0  0  0  0  0  0  0
  -23.3568  -26.5535   23.9778 C   0  0  0  0  0  0  0  0  0  0  0  0
  -31.4562  -18.3103   25.2282 C   0  0  0  0  0  0  0  0  0  0  0  0
  -30.7721  -20.9609   25.7305 C   0  0  0  0  0  0  0  0  0  0  0  0
  -27.2619  -25.8596   24.6408 C   0  0  0  0  0  0  0  0  0  0  0  0
  -23.6123  -25.2241   24.3139 C   0  0  0  0  0  0  0  0  0  0  0  0
  -27.0826  -13.1974   21.4861 C   0  0  0  0  0  0  0  0  0  0  0  0
  -24.9324  -13.5864   20.4554 C   0  0  0  0  0  0  0  0  0  0  0  0
  -27.3811  -27.1993   25.0078 C   0  0  0  0  0  0  0  0  0  0  0  0
  -24.1547  -10.7012   22.0369 C   0  0  0  0  0  0  0  0  0  0  0  0
  -22.9412  -10.0586   22.2817 C   0  0  0  0  0  0  0  0  0  0  0  0
  -22.6081  -25.8564   21.7891 C   0  0  0  0  0  0  0  0  0  0  0  0
  -28.4045  -27.6854   22.8782 C   0  0  0  0  0  0  0  0  0  0  0  0
  -22.7507   -9.5238   19.9334 C   0  0  0  0  0  0  0  0  0  0  0  0
  -26.1455  -15.4240   21.4498 C   0  0  0  0  0  0  0  0  0  0  0  0
  -22.8546  -26.8697   22.7154 C   0  0  0  0  0  0  0  0  0  0  0  0
  -26.8017  -17.8464   20.9931 C   0  0  0  0  0  0  0  0  0  0  0  0
  -31.6477  -19.2724   24.2240 C   0  0  0  0  0  0  0  0  0  0  0  0
  -27.7238  -25.4199   23.3919 C   0  0  0  0  0  0  0  0  0  0  0  0
  -31.3119  -20.6155   24.4799 C   0  0  0  0  0  0  0  0  0  0  0  0
  -28.2877  -26.3400   22.4967 C   0  0  0  0  0  0  0  0  0  0  0  0
  -23.3658  -24.2108   23.3875 C   0  0  0  0  0  0  0  0  0  0  0  0
  -25.9616  -12.7146   20.8111 C   0  0  0  0  0  0  0  0  0  0  0  0
  -27.9551  -28.1119   24.1276 C   0  0  0  0  0  0  0  0  0  0  0  0
  -24.6663  -10.7551   20.7403 C   0  0  0  0  0  0  0  0  0  0  0  0
  -22.2391   -9.4698   21.2300 C   0  0  0  0  0  0  0  0  0  0  0  0
  -22.8637  -24.5270   22.1251 C   0  0  0  0  0  0  0  0  0  0  0  0
  -23.9642  -10.1664   19.6886 C   0  0  0  0  0  0  0  0  0  0  0  0
  -26.2396  -16.8233   21.7799 C   0  0  0  0  0  0  0  0  0  0  0  0
  -26.6454  -18.9842   21.7465 C   0  0  0  0  0  0  0  0  0  0  0  0
  -22.5835  -28.2776   22.3587 C   0  0  0  0  0  0  0  0  0  0  0  0
  -27.4105  -17.7748   19.6970 C   0  0  0  0  0  0  0  0  0  0  0  0
  -29.9369  -23.3564   22.4183 C   0  0  0  0  0  0  0  0  0  0  0  0
  -28.7022  -24.0113   19.4911 C   0  0  0  0  0  0  0  0  0  0  0  0
  -26.9926  -26.1813   17.4872 C   0  0  0  0  0  0  0  0  0  0  0  0
  -23.5442  -30.5546   22.0711 C   0  0  0  0  0  0  0  0  0  0  0  0
  -23.5613  -22.2858   25.0007 C   0  0  0  0  0  0  0  0  0  0  0  0
  -32.2737  -18.8458   22.9198 C   0  0  0  0  0  0  0  0  0  0  0  0
  -27.5636  -23.9764   23.0004 C   0  0  0  0  0  0  0  0  0  0  0  0
  -28.7807  -25.9226   21.1361 C   0  0  0  0  0  0  0  0  0  0  0  0
  -32.0986  -19.8659   21.7978 C   0  0  0  0  0  0  0  0  0  0  0  0
  -25.2433  -19.5709   26.5747 C   0  0  0  0  0  0  0  0  0  0  0  0
  -32.4291  -21.2693   22.2958 C   0  0  0  0  0  0  0  0  0  0  0  0
  -25.6987  -18.6982   25.4028 C   0  0  0  0  0  0  0  0  0  0  0  0
  -23.8758  -20.2005   26.3151 C   0  0  0  0  0  0  0  0  0  0  0  0
  -24.2176  -20.0662   23.8790 C   0  0  0  0  0  0  0  0  0  0  0  0
  -31.4840  -21.6897   23.4279 C   0  0  1  0  0  0  0  0  0  0  0  0
  -28.5359  -23.5422   21.9080 C   0  0  1  0  0  0  0  0  0  0  0  0
  -25.6190  -19.4625   24.0667 C   0  0  2  0  0  0  0  0  0  0  0  0
  -26.1709  -26.4572   15.1322 C   0  0  0  0  0  0  0  0  0  0  0  0
  -25.9098  -30.6853   21.2468 C   0  0  0  0  0  0  0  0  0  0  0  0
  -24.6907  -32.7836   21.9653 C   0  0  0  0  0  0  0  0  0  0  0  0
  -31.5376  -24.6781   18.5824 C   0  0  0  0  0  0  0  0  0  0  0  0
  -30.5534  -25.8273   16.5876 C   0  0  0  0  0  0  0  0  0  0  0  0
  -30.1878  -23.3826   16.9228 C   0  0  0  0  0  0  0  0  0  0  0  0
  -25.8295  -32.0331   26.0785 C   0  0  0  0  0  0  0  0  0  0  0  0
  -28.2161  -32.1886   25.3094 C   0  0  0  0  0  0  0  0  0  0  0  0
  -24.1689  -26.3094   18.3643 C   0  0  0  0  0  0  0  0  0  0  0  0
  -27.0886  -29.9421   25.3747 C   0  0  0  0  0  0  0  0  0  1  0  0
  -28.9855  -25.0317   18.4151 C   0  0  1  0  0  0  0  0  0  0  0  0
  -25.8320  -25.9690   16.5320 C   0  0  2  0  0  0  0  0  0  0  0  0
  -24.8734  -31.2859   22.1917 C   0  0  0  0  0  0  0  0  0  0  0  0
  -30.3087  -24.7377   17.6533 C   0  0  0  0  0  0  0  0  0  0  0  0
  -26.8885  -31.4456   25.1430 C   0  0  0  0  0  0  0  0  0  0  0  0
  -25.7621  -17.2715   22.9440 N   0  0  0  0  0  0  0  0  0  0  0  0
  -25.3340  -31.0836   23.5643 N   0  0  0  0  0  0  0  0  0  0  0  0
  -26.4241  -31.6496   23.7616 N   0  0  0  0  0  0  0  0  0  0  0  0
  -26.0238  -18.5887   22.8942 N   0  0  0  0  0  0  0  0  0  0  0  0
  -28.6077  -24.4992   20.8021 N   0  0  0  0  0  0  0  0  0  0  0  0
  -23.8766  -20.9110   25.0344 N   0  0  0  0  0  0  0  0  0  0  0  0
  -26.9806  -20.2743   21.5325 N   0  0  0  0  0  0  0  0  0  0  0  0
  -27.4891  -16.5269   19.0638 N   0  0  0  0  0  0  0  0  0  0  0  0
  -23.6264  -22.8614   23.7322 N   0  0  0  0  0  0  0  0  0  0  0  0
  -23.6068  -29.1427   22.3855 N   0  0  0  0  0  0  0  0  0  0  0  0
  -30.1989  -22.0853   22.8928 N   0  0  0  0  0  0  0  0  0  0  0  0
  -27.8012  -25.0670   17.5640 N   0  0  0  0  0  0  0  0  0  0  0  0
  -21.3334  -28.6051   22.0336 N   0  3  0  0  0  0  0  0  0  0  0  0
  -24.6277  -26.7065   17.0082 N   0  3  0  0  0  0  0  0  0  0  0  0
  -27.8860  -18.7847   19.1246 O   0  0  0  0  0  0  0  0  0  0  0  0
  -30.7225  -24.2962   22.3828 O   0  0  0  0  0  0  0  0  0  0  0  0
  -28.5625  -22.8262   19.1788 O   0  0  0  0  0  0  0  0  0  0  0  0
  -27.1668  -27.2319   18.1007 O   0  0  0  0  0  0  0  0  0  0  0  0
  -22.4875  -31.0771   21.7409 O   0  0  0  0  0  0  0  0  0  0  0  0
  -23.2825  -22.9130   26.0259 O   0  0  0  0  0  0  0  0  0  0  0  0
  -25.8716  -11.3928   20.4991 O   0  0  0  0  0  0  0  0  0  0  0  0
  -28.0733  -29.4200   24.4836 O   0  0  0  0  0  0  0  0  0  1  0  0
  -21.0745   -8.8515   21.4654 F   0  0  0  0  0  0  0  0  0  0  0  0
  -22.6244  -23.5613   21.2264 F   0  0  0  0  0  0  0  0  0  0  0  0
  -24.4512  -10.2140   18.4410 F   0  0  0  0  0  0  0  0  0  0  0  0
  1  2  1  0  0  0  0
  1  6  2  0  0  0  0
  2  7  2  0  0  0  0
  3 10  2  0  0  0  0
  3 18  1  0  0  0  0
  4 11  1  0  0  0  0
  4 18  2  0  0  0  0
  5  9  2  0  0  0  0
  5 19  1  0  0  0  0
  6 21  1  0  0  0  0
  7 23  1  0  0  0  0
  8 12  2  0  0  0  0
  8 22  1  0  0  0  0
  9 25  1  0  0  0  0
 10 26  1  0  0  0  0
 11 26  2  0  0  0  0
 12 27  1  0  0  0  0
 13 14  2  0  0  0  0
 13 28  1  0  0  0  0
 14 29  1  0  0  0  0
 15 19  2  0  0  0  0
 15 30  1  0  0  0  0
 16 24  1  0  0  0  0
 16 27  2  0  0  0  0
 17 29  2  0  0  0  0
 17 31  1  0  0  0  0
 18 32  1  0  0  0  0
 19 34  1  0  0  0  0
 20 32  1  0  0  0  0
 20 33  2  0  0  0  0
 20 35  1  0  0  0  0
 21 23  2  0  0  0  0
 21 41  1  0  0  0  0
 22 24  2  0  0  0  0
 22 42  1  0  0  0  0
 23 50  1  0  0  0  0
 24 43  1  0  0  0  0
 25 30  2  0  0  0  0
 25 76  1  0  0  0  0
 26 88  1  0  0  0  0
 27 89  1  0  0  0  0
 28 31  2  0  0  0  0
 28 88  1  0  0  0  0
 29 90  1  0  0  0  0
 30 91  1  0  0  0  0
 31 92  1  0  0  0  0
 32 68  2  0  0  0  0
 33 71  1  0  0  0  0
 33 74  1  0  0  0  0
 34 77  1  0  0  0  0
 34 80  2  0  0  0  0
 35 75  1  0  0  0  0
 35 82  2  0  0  0  0
 36 51  1  0  0  0  0
 36 78  1  0  0  0  0
 36 83  2  0  0  0  0
 37 63  1  0  0  0  0
 37 72  1  0  0  0  0
 37 84  2  0  0  0  0
 38 64  1  0  0  0  0
 38 79  1  0  0  0  0
 38 85  2  0  0  0  0
 39 65  1  0  0  0  0
 39 77  1  0  0  0  0
 39 86  2  0  0  0  0
 40 73  1  0  0  0  0
 40 76  1  0  0  0  0
 40 87  2  0  0  0  0
 41 44  1  0  0  0  0
 42 51  1  0  0  0  0
 43 72  1  0  0  0  0
 44 46  1  0  0  0  0
 45 47  1  0  0  0  0
 45 48  1  0  0  0  0
 46 50  1  0  0  0  0
 47 52  1  0  0  0  0
 48 73  1  0  0  0  0
 49 52  1  0  0  0  0
 49 73  1  0  0  0  0
 50 78  1  0  0  0  0
 51 72  1  0  0  0  0
 52 71  1  0  0  0  0
 53 64  1  0  0  0  0
 54 65  1  0  0  0  0
 55 65  1  0  0  0  0
 56 66  1  0  0  0  0
 57 66  1  0  0  0  0
 58 66  1  0  0  0  0
 59 67  1  0  0  0  0
 60 67  1  0  0  0  0
 61 81  1  0  0  0  0
 62 67  1  0  0  0  0
 62 89  1  0  0  0  0
 63 66  1  0  0  0  0
 63 79  1  0  0  0  0
 64 81  1  0  0  0  0
 65 69  1  0  0  0  0
 67 70  1  0  0  0  0
 68 71  1  0  0  0  0
 69 70  2  0  0  0  0
M  CHG  2  80   1  81   1
M  ISO  4  40 100  62 101  76 100  89 101
M  END
> <Batch ID>
0077

> <Smiles>
CNC(C)C(=O)NC(C(=O)N1Cc2cc([101O:1][101CH2:1]C(C)(C)N=NC(C)(C)C(=O)NC(=N)c3ccc([100NH:0][100C:0](=O)N4CCCC(n5nc(-c6ccc(Oc7ccc(F)cc7F)cc6)c(C(N)=O)c5N)C4)c(F)c3)ccc2CC1C(=O)NC1CCCc2ccccc21)C(C)(C)C

> <Shape>
0.210

> <Color>
0.060

> <Negative vol penalty>
0.000

$$$$

  -OEChem-04042323533D

 83 91  0     1  0  0  0  0  0999 V2000
  -24.6581  -37.1890   18.8042 C   0  0  0  0  0  0  0  0  0  0  0  0
  -25.3688  -36.0261   18.5251 C   0  0  0  0  0  0  0  0  0  0  0  0
  -23.8249   -8.9615   19.9923 C   0  0  0  0  0  0  0  0  0  0  0  0
  -23.1842  -10.7404   21.4963 C   0  0  0  0  0  0  0  0  0  0  0  0
  -24.1677  -37.4133   20.0899 C   0  0  0  0  0  0  0  0  0  0  0  0
  -25.5905  -35.0872   19.5320 C   0  0  0  0  0  0  0  0  0  0  0  0
  -25.8209  -28.9997   18.9036 C   0  0  0  0  0  0  0  0  0  0  0  0
  -30.4845  -19.8135   20.2249 C   0  0  0  0  0  0  0  0  0  0  0  0
  -28.4260  -19.9627   18.9689 C   0  0  0  0  0  0  0  0  0  0  0  0
  -30.4209  -18.4215   20.1638 C   0  0  0  0  0  0  0  0  0  0  0  0
  -28.3625  -18.5706   18.9077 C   0  0  0  0  0  0  0  0  0  0  0  0
  -22.9677   -8.0875   20.6608 C   0  0  0  0  0  0  0  0  0  0  0  0
  -22.3269   -9.8664   22.1648 C   0  0  0  0  0  0  0  0  0  0  0  0
  -26.8867  -28.1082   18.7892 C   0  0  0  0  0  0  0  0  0  0  0  0
  -19.6523   -7.4293   20.7464 C   0  0  0  0  0  0  0  0  0  0  0  0
  -18.8352   -6.6047   19.9731 C   0  0  0  0  0  0  0  0  0  0  0  0
  -26.7727  -27.6770   21.1599 C   0  0  0  0  0  0  0  0  0  0  0  0
  -19.8573   -4.6562   20.9709 C   0  0  0  0  0  0  0  0  0  0  0  0
  -23.9332  -10.2879   20.4101 C   0  0  0  0  0  0  0  0  0  0  0  0
  -24.5082  -12.0107   18.6187 C   0  0  0  0  0  0  0  0  0  0  0  0
  -24.3751  -36.4723   21.1107 C   0  0  0  0  0  0  0  0  0  0  0  0
  -25.2291  -29.2451   20.1510 C   0  0  0  0  0  0  0  0  0  0  0  0
  -25.1035  -35.2998   20.8330 C   0  0  0  0  0  0  0  0  0  0  0  0
  -25.6979  -28.5701   21.2870 C   0  0  0  0  0  0  0  0  0  0  0  0
  -29.4870  -20.5841   19.6275 C   0  0  0  0  0  0  0  0  0  0  0  0
  -29.3599  -17.8000   19.5052 C   0  0  0  0  0  0  0  0  0  0  0  0
  -22.2187   -8.5399   21.7470 C   0  0  0  0  0  0  0  0  0  0  0  0
  -27.3647  -27.4489   19.9178 C   0  0  0  0  0  0  0  0  0  0  0  0
  -20.5720   -6.8674   21.6319 C   0  0  0  0  0  0  0  0  0  0  0  0
  -18.9377   -5.2182   20.0854 C   0  0  0  0  0  0  0  0  0  0  0  0
  -20.6745   -5.4809   21.7441 C   0  0  0  0  0  0  0  0  0  0  0  0
  -24.8190  -11.1911   19.7203 C   0  0  0  0  0  0  0  0  0  0  0  0
  -25.6804  -12.6700   18.3398 C   0  0  0  0  0  0  0  0  0  0  0  0
  -28.1223  -25.2653   19.5589 C   0  0  0  0  0  0  0  0  0  1  0  0
  -23.2706  -12.1627   17.9110 C   0  0  0  0  0  0  0  0  0  0  0  0
  -29.0662  -24.3248   19.4329 C   0  0  0  0  0  0  0  0  0  0  0  0
  -28.6517  -22.9104   19.1572 C   0  0  0  0  0  0  0  0  0  0  0  0
  -24.8862  -31.8029   22.0067 C   0  0  0  0  0  0  0  0  0  0  0  0
  -23.0686  -29.7877   23.7835 C   0  0  0  0  0  0  0  0  0  0  0  0
  -22.3249  -26.5773   24.6708 C   0  0  0  0  0  0  0  0  0  0  0  0
  -30.2016  -15.4741   19.9825 C   0  0  0  0  0  0  0  0  0  0  0  0
  -23.8666  -36.7807   22.4967 C   0  0  0  0  0  0  0  0  0  0  0  0
  -24.0629  -30.1895   20.2532 C   0  0  0  0  0  0  0  0  0  0  0  0
  -25.0840  -28.7832   22.6458 C   0  0  0  0  0  0  0  0  0  0  0  0
  -23.8218  -35.5616   23.4143 C   0  0  0  0  0  0  0  0  0  0  0  0
  -30.3755  -11.9190   20.0759 C   0  0  0  0  0  0  0  0  0  0  0  0
  -25.1228  -34.7714   23.3161 C   0  0  0  0  0  0  0  0  0  0  0  0
  -28.9198  -11.4802   19.9011 C   0  0  0  0  0  0  0  0  0  0  0  0
  -30.4877  -13.1893   20.9170 C   0  0  0  0  0  0  0  0  0  0  0  0
  -28.2088  -13.8755   20.2806 C   0  0  0  0  0  0  0  0  0  0  0  0
  -25.3432  -34.2461   21.8924 C   0  0  1  0  0  0  0  0  0  0  0  0
  -23.8707  -30.7518   21.6583 C   0  0  1  0  0  0  0  0  0  0  0  0
  -28.0406  -12.6365   19.3860 C   0  0  2  0  0  0  0  0  0  0  0  0
  -20.8181  -25.2476   26.1738 C   0  0  0  0  0  0  0  0  0  0  0  0
  -24.7989  -30.5414   26.1810 C   0  0  0  0  0  0  0  0  0  0  0  0
  -23.8961  -28.5347   27.3752 C   0  0  0  0  0  0  0  0  0  0  0  0
  -22.3533  -30.3652   26.6737 C   0  0  0  0  0  0  0  0  0  0  0  0
  -21.0673  -25.1921   22.3776 C   0  0  0  0  0  0  0  0  0  0  0  0
  -23.3334  -28.8301   24.9201 C   0  0  1  0  0  0  0  0  0  0  0  0
  -20.9999  -25.8456   24.7874 C   0  0  2  0  0  0  0  0  0  0  0  0
  -23.6085  -29.5651   26.2624 C   0  0  0  0  0  0  0  0  0  0  0  0
  -26.0891  -11.3163   20.1141 N   0  0  0  0  0  0  0  0  0  0  0  0
  -26.5868  -12.2223   19.2553 N   0  0  0  0  0  0  0  0  0  0  0  0
  -23.9501  -29.7210   22.6953 N   0  0  0  0  0  0  0  0  0  0  0  0
  -29.6311  -14.2422   20.3670 N   0  0  0  0  0  0  0  0  0  0  0  0
  -26.0140  -13.5830   17.4030 N   0  0  0  0  0  0  0  0  0  0  0  0
  -22.1649  -11.4097   18.3293 N   0  0  0  0  0  0  0  0  0  0  0  0
  -29.5512  -21.9971   19.6898 N   0  0  0  0  0  0  0  0  0  0  0  0
  -29.2951  -16.3859   19.4429 N   0  0  0  0  0  0  0  0  0  0  0  0
  -24.5148  -33.0848   21.6483 N   0  0  0  0  0  0  0  0  0  0  0  0
  -22.1946  -27.9191   24.9602 N   0  0  0  0  0  0  0  0  0  0  0  0
  -20.9270  -24.7435   23.7869 N   0  3  0  0  0  0  0  0  0  0  0  0
  -23.1532  -12.9308   16.9262 O   0  0  0  0  0  0  0  0  0  0  0  0
  -27.6271  -22.6651   18.5296 O   0  0  0  0  0  0  0  0  0  0  0  0
  -25.9289  -31.4755   22.5611 O   0  0  0  0  0  0  0  0  0  0  0  0
  -22.1104  -30.5612   23.8553 O   0  0  0  0  0  0  0  0  0  0  0  0
  -23.3716  -26.0140   24.3581 O   0  0  0  0  0  0  0  0  0  0  0  0
  -31.4103  -15.6931   20.0966 O   0  0  0  0  0  0  0  0  0  0  0  0
  -30.4129  -24.6050   19.5455 O   0  0  0  0  0  0  0  0  0  0  0  0
  -21.3819   -7.6874   22.3995 O   0  0  0  0  0  0  0  0  0  0  0  0
  -28.4053  -26.5787   19.8090 O   0  0  0  0  0  0  0  0  0  1  0  0
  -18.1519   -4.4264   19.3438 F   0  0  0  0  0  0  0  0  0  0  0  0
  -21.5553   -4.9352   22.5939 F   0  0  0  0  0  0  0  0  0  0  0  0
  1  2  1  0  0  0  0
  1  5  2  0  0  0  0
  2  6  2  0  0  0  0
  3 12  2  0  0  0  0
  3 19  1  0  0  0  0
  4 13  1  0  0  0  0
  4 19  2  0  0  0  0
  5 21  1  0  0  0  0
  6 23  1  0  0  0  0
  7 14  2  0  0  0  0
  7 22  1  0  0  0  0
  8 10  2  0  0  0  0
  8 25  1  0  0  0  0
  9 11  1  0  0  0  0
  9 25  2  0  0  0  0
 10 26  1  0  0  0  0
 11 26  2  0  0  0  0
 12 27  1  0  0  0  0
 13 27  2  0  0  0  0
 14 28  1  0  0  0  0
 15 16  2  0  0  0  0
 15 29  1  0  0  0  0
 16 30  1  0  0  0  0
 17 24  1  0  0  0  0
 17 28  2  0  0  0  0
 18 30  2  0  0  0  0
 18 31  1  0  0  0  0
 19 32  1  0  0  0  0
 20 32  1  0  0  0  0
 20 33  2  0  0  0  0
 20 35  1  0  0  0  0
 21 23  2  0  0  0  0
 21 42  1  0  0  0  0
 22 24  2  0  0  0  0
 22 43  1  0  0  0  0
 23 51  1  0  0  0  0
 24 44  1  0  0  0  0
 25 68  1  0  0  0  0
 26 69  1  0  0  0  0
 27 80  1  0  0  0  0
 28 81  1  0  0  0  0
 29 31  2  0  0  0  0
 29 80  1  0  0  0  0
 30 82  1  0  0  0  0
 31 83  1  0  0  0  0
 32 62  2  0  0  0  0
 33 63  1  0  0  0  0
 33 66  1  0  0  0  0
 34 36  2  0  0  0  0
 34 81  1  0  0  0  0
 35 67  1  0  0  0  0
 35 73  2  0  0  0  0
 36 37  1  0  0  0  0
 36 79  1  0  0  0  0
 37 68  1  0  0  0  0
 37 74  2  0  0  0  0
 38 52  1  0  0  0  0
 38 70  1  0  0  0  0
 38 75  2  0  0  0  0
 39 59  1  0  0  0  0
 39 64  1  0  0  0  0
 39 76  2  0  0  0  0
 40 60  1  0  0  0  0
 40 71  1  0  0  0  0
 40 77  2  0  0  0  0
 41 65  1  0  0  0  0
 41 69  1  0  0  0  0
 41 78  2  0  0  0  0
 42 45  1  0  0  0  0
 43 52  1  0  0  0  0
 44 64  1  0  0  0  0
 45 47  1  0  0  0  0
 46 48  1  0  0  0  0
 46 49  1  0  0  0  0
 47 51  1  0  0  0  0
 48 53  1  0  0  0  0
 49 65  1  0  0  0  0
 50 53  1  0  0  0  0
 50 65  1  0  0  0  0
 51 70  1  0  0  0  0
 52 64  1  0  0  0  0
 53 63  1  0  0  0  0
 54 60  1  0  0  0  0
 55 61  1  0  0  0  0
 56 61  1  0  0  0  0
 57 61  1  0  0  0  0
 58 72  1  0  0  0  0
 59 61  1  0  0  0  0
 59 71  1  0  0  0  0
 60 72  1  0  0  0  0
 62 63  1  0  0  0  0
M  CHG  1  72   1
M  ISO  4  34 101  41 100  69 100  81 101
M  END
> <Batch ID>
0077

> <Smiles>
CNC(C)C(=O)NC(C(=O)N1Cc2cc([101O:1][101CH2:1]C(=O)C(=O)Nc3ccc([100NH:0][100C:0](=O)N4CCCC(n5nc(-c6ccc(Oc7ccc(F)cc7F)cc6)c(C(N)=O)c5N)C4)cc3)ccc2CC1C(=O)NC1CCCc2ccccc21)C(C)(C)C

> <Shape>
0.273

> <Color>
0.106

> <Negative vol penalty>
0.000

$$$$

  -OEChem-04042323533D

 87 96  0     1  0  0  0  0  0999 V2000
  -26.3791  -35.5291   20.6580 C   0  0  0  0  0  0  0  0  0  0  0  0
  -26.8865  -34.2359   20.7338 C   0  0  0  0  0  0  0  0  0  0  0  0
  -23.2242  -10.3877   20.8389 C   0  0  0  0  0  0  0  0  0  0  0  0
  -24.6439   -8.9753   22.1904 C   0  0  0  0  0  0  0  0  0  0  0  0
  -25.2257  -35.8667   21.3648 C   0  0  0  0  0  0  0  0  0  0  0  0
  -26.2413  -33.2799   21.5175 C   0  0  0  0  0  0  0  0  0  0  0  0
  -25.7855  -28.8214   19.1597 C   0  0  0  0  0  0  0  0  0  0  0  0
  -28.0242  -20.5834   19.0112 C   0  0  0  0  0  0  0  0  0  0  0  0
  -30.3571  -20.0509   18.6775 C   0  0  0  0  0  0  0  0  0  0  0  0
  -27.7276  -19.2238   19.1072 C   0  0  0  0  0  0  0  0  0  0  0  0
  -30.0605  -18.6913   18.7735 C   0  0  0  0  0  0  0  0  0  0  0  0
  -22.3175   -9.3376   20.6939 C   0  0  0  0  0  0  0  0  0  0  0  0
  -23.7372   -7.9253   22.0455 C   0  0  0  0  0  0  0  0  0  0  0  0
  -26.9168  -28.0080   19.1116 C   0  0  0  0  0  0  0  0  0  0  0  0
  -20.7771   -6.9903   23.3812 C   0  0  0  0  0  0  0  0  0  0  0  0
  -20.4486   -6.2577   24.5218 C   0  0  0  0  0  0  0  0  0  0  0  0
  -26.0516  -26.7062   20.9490 C   0  0  0  0  0  0  0  0  0  0  0  0
  -21.2922   -4.2502   23.4753 C   0  0  0  0  0  0  0  0  0  0  0  0
  -24.3874  -10.2065   21.5870 C   0  0  0  0  0  0  0  0  0  0  0  0
  -25.3371  -12.2702   22.7476 C   0  0  0  0  0  0  0  0  0  0  0  0
  -24.5606  -34.9117   22.1499 C   0  0  0  0  0  0  0  0  0  0  0  0
  -24.7822  -28.5896   20.1116 C   0  0  0  0  0  0  0  0  0  0  0  0
  -25.0787  -33.6054   22.2365 C   0  0  0  0  0  0  0  0  0  0  0  0
  -24.9074  -27.5166   21.0055 C   0  0  0  0  0  0  0  0  0  0  0  0
  -29.3390  -20.9969   18.7963 C   0  0  0  0  0  0  0  0  0  0  0  0
  -28.7457  -18.2778   18.9883 C   0  0  0  0  0  0  0  0  0  0  0  0
  -22.5740   -8.1065   21.2973 C   0  0  0  0  0  0  0  0  0  0  0  0
  -27.0514  -26.9520   20.0082 C   0  0  0  0  0  0  0  0  0  0  0  0
  -21.3631   -6.3528   22.2876 C   0  0  0  0  0  0  0  0  0  0  0  0
  -20.7062   -4.8877   24.5689 C   0  0  0  0  0  0  0  0  0  0  0  0
  -21.6207   -4.9828   22.3347 C   0  0  0  0  0  0  0  0  0  0  0  0
  -25.3247  -11.2906   21.7366 C   0  0  0  0  0  0  0  0  0  0  0  0
  -26.4166  -13.0633   22.4440 C   0  0  0  0  0  0  0  0  0  0  0  0
  -29.4623  -24.6660   18.6393 C   0  0  0  0  0  0  0  0  0  0  0  0
  -30.7471  -24.3370   18.4575 C   0  0  0  0  0  0  0  0  0  0  0  0
  -28.7085  -23.3959   18.8013 C   0  0  0  0  0  0  0  0  0  0  0  0
  -24.4521  -12.4473   23.8616 C   0  0  0  0  0  0  0  0  0  0  0  0
  -23.5539  -30.2522   22.5263 C   0  0  0  0  0  0  0  0  0  0  0  0
  -21.4707  -27.7696   22.6649 C   0  0  0  0  0  0  0  0  0  0  0  0
  -20.8228  -24.4895   21.9805 C   0  0  0  0  0  0  0  0  0  0  0  0
  -29.2018  -15.9033   18.3977 C   0  0  0  0  0  0  0  0  0  0  0  0
  -23.3439  -35.3362   22.9335 C   0  0  0  0  0  0  0  0  0  0  0  0
  -23.5555  -29.4597   20.1330 C   0  0  0  0  0  0  0  0  0  0  0  0
  -23.8491  -27.2130   22.0333 C   0  0  0  0  0  0  0  0  0  0  0  0
  -30.9693  -22.8616   18.4798 C   0  0  0  0  0  0  0  0  0  0  0  0
  -22.5085  -34.1647   23.4434 C   0  0  0  0  0  0  0  0  0  0  0  0
  -30.1684  -12.4184   19.1270 C   0  0  0  0  0  0  0  0  0  0  0  0
  -23.4048  -33.1067   24.0792 C   0  0  0  0  0  0  0  0  0  0  0  0
  -28.9615  -11.8842   19.8964 C   0  0  0  0  0  0  0  0  0  0  0  0
  -29.7712  -13.5068   18.1341 C   0  0  0  0  0  0  0  0  0  0  0  0
  -27.8075  -14.1006   19.5203 C   0  0  0  0  0  0  0  0  0  0  0  0
  -24.3931  -32.5338   23.0562 C   0  0  1  0  0  0  0  0  0  0  0  0
  -22.8376  -29.4473   21.4790 C   0  0  1  0  0  0  0  0  0  0  0  0
  -28.1813  -13.0326   20.5593 C   0  0  1  0  0  0  0  0  0  0  0  0
  -31.9105  -25.2429   18.2479 C   0  0  0  0  0  0  0  0  0  0  0  0
  -26.1082  -16.1781   19.5103 C   0  0  0  0  0  0  0  0  0  0  0  0
  -19.0486  -22.7348   22.2468 C   0  0  0  0  0  0  0  0  0  0  0  0
  -22.1910  -27.4928   25.6170 C   0  0  0  0  0  0  0  0  0  0  0  0
  -21.1595  -25.2118   25.5831 C   0  0  0  0  0  0  0  0  0  0  0  0
  -19.7580  -27.2197   25.1067 C   0  0  0  0  0  0  0  0  0  0  0  0
  -20.5772  -24.1282   19.0534 C   0  0  0  0  0  0  0  0  0  0  0  0
  -28.7804  -25.9844   18.6929 C   0  0  0  0  0  0  0  0  0  1  0  0
  -27.4780  -16.4336   20.1057 C   0  0  0  0  0  0  0  0  0  0  0  0
  -21.4359  -26.4420   23.3828 C   0  0  1  0  0  0  0  0  0  0  0  0
  -19.6247  -23.8117   21.3405 C   0  0  2  0  0  0  0  0  0  0  0  0
  -21.1571  -26.5982   24.9044 C   0  0  0  0  0  0  0  0  0  0  0  0
  -26.3173  -11.4453   20.8565 N   0  0  0  0  0  0  0  0  0  0  0  0
  -26.9636  -12.5315   21.3134 N   0  0  0  0  0  0  0  0  0  0  0  0
  -29.6346  -22.3513   18.7004 N   0  0  0  0  0  0  0  0  0  0  0  0
  -22.6713  -28.0962   22.0185 N   0  0  0  0  0  0  0  0  0  0  0  0
  -28.9919  -14.5633   18.7808 N   0  0  0  0  0  0  0  0  0  0  0  0
  -26.9417  -14.1568   23.0363 N   0  0  0  0  0  0  0  0  0  0  0  0
  -23.3946  -11.5422   24.0253 N   0  0  0  0  0  0  0  0  0  0  0  0
  -23.7302  -31.5812   22.1916 N   0  0  0  0  0  0  0  0  0  0  0  0
  -20.4571  -25.6219   22.6771 N   0  0  0  0  0  0  0  0  0  0  0  0
  -28.4390  -16.8703   19.0876 N   0  0  0  0  0  0  0  0  0  0  0  0
  -20.0160  -23.1792   20.0491 N   0  3  0  0  0  0  0  0  0  0  0  0
  -27.5035  -23.3296   18.9861 O   0  0  0  0  0  0  0  0  0  0  0  0
  -24.5851  -13.3903   24.6781 O   0  0  0  0  0  0  0  0  0  0  0  0
  -23.9184  -29.7080   23.5620 O   0  0  0  0  0  0  0  0  0  0  0  0
  -20.4673  -28.4870   22.6712 O   0  0  0  0  0  0  0  0  0  0  0  0
  -21.9679  -24.0556   21.8762 O   0  0  0  0  0  0  0  0  0  0  0  0
  -30.0268  -16.2121   17.5296 O   0  0  0  0  0  0  0  0  0  0  0  0
  -21.6894   -7.0817   21.1563 O   0  0  0  0  0  0  0  0  0  0  0  0
  -28.1549  -26.1569   19.9638 O   0  0  0  0  0  0  0  0  0  1  0  0
  -20.3921   -4.1846   25.6649 F   0  0  0  0  0  0  0  0  0  0  0  0
  -22.1846   -4.3650   21.2877 F   0  0  0  0  0  0  0  0  0  0  0  0
  1  2  1  0  0  0  0
  1  5  2  0  0  0  0
  2  6  2  0  0  0  0
  3 12  2  0  0  0  0
  3 19  1  0  0  0  0
  4 13  1  0  0  0  0
  4 19  2  0  0  0  0
  5 21  1  0  0  0  0
  6 23  1  0  0  0  0
  7 14  2  0  0  0  0
  7 22  1  0  0  0  0
  8 10  2  0  0  0  0
  8 25  1  0  0  0  0
  9 11  1  0  0  0  0
  9 25  2  0  0  0  0
 10 26  1  0  0  0  0
 11 26  2  0  0  0  0
 12 27  1  0  0  0  0
 13 27  2  0  0  0  0
 14 28  1  0  0  0  0
 15 16  2  0  0  0  0
 15 29  1  0  0  0  0
 16 30  1  0  0  0  0
 17 24  1  0  0  0  0
 17 28  2  0  0  0  0
 18 30  2  0  0  0  0
 18 31  1  0  0  0  0
 19 32  1  0  0  0  0
 20 32  1  0  0  0  0
 20 33  2  0  0  0  0
 20 37  1  0  0  0  0
 21 23  2  0  0  0  0
 21 42  1  0  0  0  0
 22 24  2  0  0  0  0
 22 43  1  0  0  0  0
 23 52  1  0  0  0  0
 24 44  1  0  0  0  0
 25 69  1  0  0  0  0
 26 76  1  0  0  0  0
 27 84  1  0  0  0  0
 28 85  1  0  0  0  0
 29 31  2  0  0  0  0
 29 84  1  0  0  0  0
 30 86  1  0  0  0  0
 31 87  1  0  0  0  0
 32 67  2  0  0  0  0
 33 68  1  0  0  0  0
 33 72  1  0  0  0  0
 34 35  2  0  0  0  0
 34 36  1  0  0  0  0
 34 62  1  0  0  0  0
 35 45  1  0  0  0  0
 35 55  1  0  0  0  0
 36 69  1  0  0  0  0
 36 78  2  0  0  0  0
 37 73  1  0  0  0  0
 37 79  2  0  0  0  0
 38 53  1  0  0  0  0
 38 74  1  0  0  0  0
 38 80  2  0  0  0  0
 39 64  1  0  0  0  0
 39 70  1  0  0  0  0
 39 81  2  0  0  0  0
 40 65  1  0  0  0  0
 40 75  1  0  0  0  0
 40 82  2  0  0  0  0
 41 71  1  0  0  0  0
 41 76  1  0  0  0  0
 41 83  2  0  0  0  0
 42 46  1  0  0  0  0
 43 53  1  0  0  0  0
 44 70  1  0  0  0  0
 45 69  1  0  0  0  0
 46 48  1  0  0  0  0
 47 49  1  0  0  0  0
 47 50  1  0  0  0  0
 48 52  1  0  0  0  0
 49 54  1  0  0  0  0
 50 71  1  0  0  0  0
 51 54  1  0  0  0  0
 51 71  1  0  0  0  0
 52 74  1  0  0  0  0
 53 70  1  0  0  0  0
 54 68  1  0  0  0  0
 56 63  1  0  0  0  0
 57 65  1  0  0  0  0
 58 66  1  0  0  0  0
 59 66  1  0  0  0  0
 60 66  1  0  0  0  0
 61 77  1  0  0  0  0
 62 85  1  0  0  0  0
 63 76  1  0  0  0  0
 64 66  1  0  0  0  0
 64 75  1  0  0  0  0
 65 77  1  0  0  0  0
 67 68  1  0  0  0  0
M  CHG  1  77   1
M  ISO  4  41 100  62 101  76 100  85 101
M  END
> <Batch ID>
0077

> <Smiles>
CC[100N:0](c1ccc(N2CC(C)=C([101CH2:1][101O:1]c3ccc4c(c3)CN(C(=O)C(NC(=O)C(C)NC)C(C)(C)C)C(C(=O)NC3CCCc5ccccc53)C4)C2=O)cc1)[100C:0](=O)N1CCCC(n2nc(-c3ccc(Oc4ccc(F)cc4F)cc3)c(C(N)=O)c2N)C1

> <Shape>
0.320

> <Color>
0.118

> <Negative vol penalty>
0.000

$$$$

  -OEChem-04042323533D

 89 99  0     1  0  0  0  0  0999 V2000
  -14.0897  -23.6873   21.9552 C   0  0  0  0  0  0  0  0  0  0  0  0
  -14.3299  -22.3425   21.6920 C   0  0  0  0  0  0  0  0  0  0  0  0
  -29.6298  -11.6859   19.5692 C   0  0  0  0  0  0  0  0  0  0  0  0
  -25.8450  -26.4519   19.0672 C   0  0  0  0  0  0  0  0  0  0  0  0
  -27.3429  -27.3471   20.7381 C   0  0  0  0  0  0  0  0  0  0  0  0
  -15.1501  -24.5923   21.9774 C   0  0  0  0  0  0  0  0  0  0  0  0
  -15.6306  -21.9021   21.4498 C   0  0  0  0  0  0  0  0  0  0  0  0
  -19.8699  -16.2103   22.4232 C   0  0  0  0  0  0  0  0  0  0  0  0
  -28.2796  -11.4841   19.8552 C   0  0  0  0  0  0  0  0  0  0  0  0
  -30.1189  -12.9797   19.3891 C   0  0  0  0  0  0  0  0  0  0  0  0
  -24.8765  -27.3858   19.4350 C   0  0  0  0  0  0  0  0  0  0  0  0
  -26.3744  -28.2811   21.1059 C   0  0  0  0  0  0  0  0  0  0  0  0
  -20.7131  -15.3605   21.7086 C   0  0  0  0  0  0  0  0  0  0  0  0
  -25.1888  -31.2257   19.9466 C   0  0  0  0  0  0  0  0  0  0  0  0
  -25.6008  -32.5452   20.1329 C   0  0  0  0  0  0  0  0  0  0  0  0
  -22.4764  -17.0005   21.8508 C   0  0  0  0  0  0  0  0  0  0  0  0
  -27.9074  -13.8702   19.7808 C   0  0  0  0  0  0  0  0  0  0  0  0
  -24.8438  -32.4578   22.4256 C   0  0  0  0  0  0  0  0  0  0  0  0
  -27.0782  -26.4325   19.7188 C   0  0  0  0  0  0  0  0  0  0  0  0
  -29.0795  -25.6203   18.3612 C   0  0  0  0  0  0  0  0  0  0  0  0
  -16.4656  -24.1612   21.7448 C   0  0  0  0  0  0  0  0  0  0  0  0
  -20.3209  -17.4681   22.8483 C   0  0  0  0  0  0  0  0  0  0  0  0
  -16.7094  -22.8025   21.4675 C   0  0  0  0  0  0  0  0  0  0  0  0
  -21.6378  -17.8633   22.5729 C   0  0  0  0  0  0  0  0  0  0  0  0
  -27.4183  -12.5763   19.9609 C   0  0  0  0  0  0  0  0  0  0  0  0
  -29.2576  -14.0719   19.4949 C   0  0  0  0  0  0  0  0  0  0  0  0
  -25.1412  -28.3004   20.4544 C   0  0  0  0  0  0  0  0  0  0  0  0
  -22.0156  -15.7567   21.4198 C   0  0  0  0  0  0  0  0  0  0  0  0
  -24.6042  -30.5222   20.9997 C   0  0  0  0  0  0  0  0  0  0  0  0
  -25.4284  -33.1613   21.3724 C   0  0  0  0  0  0  0  0  0  0  0  0
  -24.4318  -31.1383   22.2392 C   0  0  0  0  0  0  0  0  0  0  0  0
  -28.0789  -25.4676   19.3397 C   0  0  0  0  0  0  0  0  0  0  0  0
  -29.7663  -24.4310   18.3839 C   0  0  0  0  0  0  0  0  0  0  0  0
  -31.1586  -17.1995   19.2768 C   0  0  0  0  0  0  0  0  0  0  0  0
  -25.1050  -13.3309   20.3825 C   0  0  0  0  0  0  0  0  0  0  0  0
  -23.9072  -12.7977   20.6596 C   0  0  0  0  0  0  0  0  0  0  0  0
  -29.9632  -17.5623   18.8163 C   0  0  0  0  0  0  0  0  0  0  0  0
  -24.0557  -11.3515   20.7214 C   0  0  0  0  0  0  0  0  0  0  0  0
  -31.0552  -15.7636   19.6137 C   0  0  0  0  0  0  0  0  0  0  0  0
  -23.1067  -10.4440   20.9716 C   0  0  0  0  0  0  0  0  0  0  0  0
  -29.3628  -26.7372   17.5081 C   0  0  0  0  0  0  0  0  0  0  0  0
  -29.6691  -18.9396   18.3721 C   0  0  0  0  0  0  0  0  0  0  0  0
  -19.4648  -20.4731   22.2643 C   0  0  0  0  0  0  0  0  0  0  0  0
  -21.6644  -21.1342   24.5549 C   0  0  0  0  0  0  0  0  0  0  0  0
  -24.4586  -20.1609   26.2555 C   0  0  0  0  0  0  0  0  0  0  0  0
  -17.5735  -25.1845   21.7324 C   0  0  0  0  0  0  0  0  0  0  0  0
  -19.4075  -18.3621   23.6414 C   0  0  0  0  0  0  0  0  0  0  0  0
  -22.1770  -19.1952   23.0243 C   0  0  0  0  0  0  0  0  0  0  0  0
  -28.9671  -16.4665   18.7912 C   0  0  0  0  0  0  0  0  0  0  0  0
  -25.5164  -11.0345   20.4453 C   0  0  0  0  0  0  0  0  0  0  0  0
  -18.9685  -24.5733   21.8358 C   0  0  0  0  0  0  0  0  0  0  0  0
  -29.6141  -20.5876   21.6452 C   0  0  0  0  0  0  0  0  0  0  0  0
  -19.1070  -23.3941   20.8781 C   0  0  0  0  0  0  0  0  0  0  0  0
  -29.2423  -22.0141   21.2495 C   0  0  0  0  0  0  0  0  0  0  0  0
  -28.9462  -19.5514   20.7426 C   0  0  0  0  0  0  0  0  0  0  0  0
  -28.8327  -21.1980   18.8944 C   0  0  0  0  0  0  0  0  0  0  0  0
  -18.1095  -22.2821   21.2244 C   0  0  1  0  0  0  0  0  0  0  0  0
  -19.8088  -19.8326   23.5793 C   0  0  1  0  0  0  0  0  0  0  0  0
  -29.5310  -22.2586   19.7598 C   0  0  1  0  0  0  0  0  0  0  0  0
  -26.0441  -20.9284   28.0429 C   0  0  0  0  0  0  0  0  0  0  0  0
  -22.9734  -23.0461   22.5696 C   0  0  0  0  0  0  0  0  0  0  0  0
  -25.0153  -23.0418   24.0184 C   0  0  0  0  0  0  0  0  0  0  0  0
  -22.8526  -23.9011   24.9167 C   0  0  0  0  0  0  0  0  0  0  0  0
  -23.7971  -17.8584   27.9932 C   0  0  0  0  0  0  0  0  0  0  0  0
  -22.6301  -13.5259   20.8703 C   0  0  0  0  0  0  0  0  0  1  0  0
  -23.1477  -21.4151   24.5635 C   0  0  1  0  0  0  0  0  0  0  0  0
  -24.7789  -20.1410   27.7392 C   0  0  2  0  0  0  0  0  0  0  0  0
  -23.4867  -22.8267   24.0067 C   0  0  0  0  0  0  0  0  0  0  0  0
  -28.1226  -24.2753   19.9401 N   0  0  0  0  0  0  0  0  0  0  0  0
  -29.1588  -23.6679   19.3373 N   0  0  0  0  0  0  0  0  0  0  0  0
  -26.0904  -12.3776   20.2428 N   0  0  0  0  0  0  0  0  0  0  0  0
  -29.7471  -15.3658   19.3134 N   0  0  0  0  0  0  0  0  0  0  0  0
  -29.1881  -19.8400   19.3210 N   0  0  0  0  0  0  0  0  0  0  0  0
  -21.2433  -20.0364   23.7912 N   0  0  0  0  0  0  0  0  0  0  0  0
  -30.8244  -23.9741   17.6812 N   0  0  0  0  0  0  0  0  0  0  0  0
  -28.5590  -27.8804   17.6150 N   0  0  0  0  0  0  0  0  0  0  0  0
  -18.5738  -21.5243   22.3666 N   0  0  0  0  0  0  0  0  0  0  0  0
  -23.5981  -21.1888   25.9326 N   0  0  0  0  0  0  0  0  0  0  0  0
  -24.9734  -18.7399   28.2084 N   0  3  0  0  0  0  0  0  0  0  0  0
  -31.9772  -15.1042   20.0662 O   0  0  0  0  0  0  0  0  0  0  0  0
  -30.2906  -26.7159   16.6642 O   0  0  0  0  0  0  0  0  0  0  0  0
  -29.8631  -19.2079   17.1851 O   0  0  0  0  0  0  0  0  0  0  0  0
  -19.9714  -20.0461   21.2334 O   0  0  0  0  0  0  0  0  0  0  0  0
  -20.9081  -21.8578   25.2077 O   0  0  0  0  0  0  0  0  0  0  0  0
  -24.9280  -19.3485   25.4617 O   0  0  0  0  0  0  0  0  0  0  0  0
  -24.1964  -29.2120   20.8134 O   0  0  0  0  0  0  0  0  0  0  0  0
  -22.8405  -14.9295   20.7218 O   0  0  0  0  0  0  0  0  0  1  0  0
  -25.8255  -34.4279   21.5517 F   0  0  0  0  0  0  0  0  0  0  0  0
  -23.8719  -30.4672   23.2551 F   0  0  0  0  0  0  0  0  0  0  0  0
  1  2  1  0  0  0  0
  1  6  2  0  0  0  0
  2  7  2  0  0  0  0
  3  9  2  0  0  0  0
  3 10  1  0  0  0  0
  4 11  2  0  0  0  0
  4 19  1  0  0  0  0
  5 12  1  0  0  0  0
  5 19  2  0  0  0  0
  6 21  1  0  0  0  0
  7 23  1  0  0  0  0
  8 13  2  0  0  0  0
  8 22  1  0  0  0  0
  9 25  1  0  0  0  0
 10 26  2  0  0  0  0
 11 27  1  0  0  0  0
 12 27  2  0  0  0  0
 13 28  1  0  0  0  0
 14 15  2  0  0  0  0
 14 29  1  0  0  0  0
 15 30  1  0  0  0  0
 16 24  1  0  0  0  0
 16 28  2  0  0  0  0
 17 25  2  0  0  0  0
 17 26  1  0  0  0  0
 18 30  2  0  0  0  0
 18 31  1  0  0  0  0
 19 32  1  0  0  0  0
 20 32  1  0  0  0  0
 20 33  2  0  0  0  0
 20 41  1  0  0  0  0
 21 23  2  0  0  0  0
 21 46  1  0  0  0  0
 22 24  2  0  0  0  0
 22 47  1  0  0  0  0
 23 57  1  0  0  0  0
 24 48  1  0  0  0  0
 25 71  1  0  0  0  0
 26 72  1  0  0  0  0
 27 86  1  0  0  0  0
 28 87  1  0  0  0  0
 29 31  2  0  0  0  0
 29 86  1  0  0  0  0
 30 88  1  0  0  0  0
 31 89  1  0  0  0  0
 32 69  2  0  0  0  0
 33 70  1  0  0  0  0
 33 75  1  0  0  0  0
 34 37  2  0  0  0  0
 34 39  1  0  0  0  0
 35 36  2  0  0  0  0
 35 71  1  0  0  0  0
 36 38  1  0  0  0  0
 36 65  1  0  0  0  0
 37 42  1  0  0  0  0
 37 49  1  0  0  0  0
 38 40  2  0  0  0  0
 38 50  1  0  0  0  0
 39 72  1  0  0  0  0
 39 80  2  0  0  0  0
 41 76  1  0  0  0  0
 41 81  2  0  0  0  0
 42 73  1  0  0  0  0
 42 82  2  0  0  0  0
 43 58  1  0  0  0  0
 43 77  1  0  0  0  0
 43 83  2  0  0  0  0
 44 66  1  0  0  0  0
 44 74  1  0  0  0  0
 44 84  2  0  0  0  0
 45 67  1  0  0  0  0
 45 78  1  0  0  0  0
 45 85  2  0  0  0  0
 46 51  1  0  0  0  0
 47 58  1  0  0  0  0
 48 74  1  0  0  0  0
 49 72  1  0  0  0  0
 50 71  1  0  0  0  0
 51 53  1  0  0  0  0
 52 54  1  0  0  0  0
 52 55  1  0  0  0  0
 53 57  1  0  0  0  0
 54 59  1  0  0  0  0
 55 73  1  0  0  0  0
 56 59  1  0  0  0  0
 56 73  1  0  0  0  0
 57 77  1  0  0  0  0
 58 74  1  0  0  0  0
 59 70  1  0  0  0  0
 60 67  1  0  0  0  0
 61 68  1  0  0  0  0
 62 68  1  0  0  0  0
 63 68  1  0  0  0  0
 64 79  1  0  0  0  0
 65 87  1  0  0  0  0
 66 68  1  0  0  0  0
 66 78  1  0  0  0  0
 67 79  1  0  0  0  0
 69 70  1  0  0  0  0
M  CHG  1  79   1
M  ISO  4  37 100  42 100  65 101  87 101
M  END
> <Batch ID>
0077

> <Smiles>
C=C1CN(c2cccc(N3C[100C:0]([100C:0](=O)N4CCCC(n5nc(-c6ccc(Oc7ccc(F)cc7F)cc6)c(C(N)=O)c5N)C4)=CC3=O)c2)C=C1[101CH2:1][101O:1]c1ccc2c(c1)CN(C(=O)C(NC(=O)C(C)NC)C(C)(C)C)C(C(=O)NC1CCCc3ccccc31)C2

> <Shape>
0.232

> <Color>
0.071

> <Negative vol penalty>
0.000

$$$$

  -OEChem-04042323533D

 84 92  0     1  0  0  0  0  0999 V2000
  -25.4867  -25.3024   15.6083 C   0  0  0  0  0  0  0  0  0  0  0  0
  -24.4316  -25.9493   16.2436 C   0  0  0  0  0  0  0  0  0  0  0  0
  -26.3071  -17.4709   22.5686 C   0  0  0  0  0  0  0  0  0  0  0  0
  -24.8779  -18.7080   21.0639 C   0  0  0  0  0  0  0  0  0  0  0  0
  -21.5200  -27.8372   24.6445 C   0  0  0  0  0  0  0  0  0  0  0  0
  -21.5914  -27.1603   22.3264 C   0  0  0  0  0  0  0  0  0  0  0  0
  -26.6818  -25.0833   16.2922 C   0  0  0  0  0  0  0  0  0  0  0  0
  -24.5706  -26.3766   17.5636 C   0  0  0  0  0  0  0  0  0  0  0  0
  -22.8045  -31.0678   18.2833 C   0  0  0  0  0  0  0  0  0  0  0  0
  -22.6670  -27.0855   24.8994 C   0  0  0  0  0  0  0  0  0  0  0  0
  -22.7385  -26.4086   22.5812 C   0  0  0  0  0  0  0  0  0  0  0  0
  -25.5705  -16.3135   22.3166 C   0  0  0  0  0  0  0  0  0  0  0  0
  -24.1413  -17.5506   20.8119 C   0  0  0  0  0  0  0  0  0  0  0  0
  -21.4224  -31.2189   18.3875 C   0  0  0  0  0  0  0  0  0  0  0  0
  -24.2887  -12.9524   21.7921 C   0  0  0  0  0  0  0  0  0  0  0  0
  -24.9948  -11.7730   21.5556 C   0  0  0  0  0  0  0  0  0  0  0  0
  -21.6210  -31.3229   20.7893 C   0  0  0  0  0  0  0  0  0  0  0  0
  -26.0636  -12.7959   19.6456 C   0  0  0  0  0  0  0  0  0  0  0  0
  -25.9608  -18.6682   21.9423 C   0  0  0  0  0  0  0  0  0  0  0  0
  -20.9822  -27.8745   23.3580 C   0  0  0  0  0  0  0  0  0  0  0  0
  -27.8534  -20.3210   21.5021 C   0  0  0  0  0  0  0  0  0  0  0  0
  -26.8389  -25.5167   17.6181 C   0  0  0  0  0  0  0  0  0  0  0  0
  -23.6054  -31.0322   19.4338 C   0  0  0  0  0  0  0  0  0  0  0  0
  -25.7684  -26.1619   18.2664 C   0  0  0  0  0  0  0  0  0  0  0  0
  -23.0132  -31.1739   20.6969 C   0  0  0  0  0  0  0  0  0  0  0  0
  -23.2763  -26.3713   23.8677 C   0  0  0  0  0  0  0  0  0  0  0  0
  -24.4877  -16.3533   21.4383 C   0  0  0  0  0  0  0  0  0  0  0  0
  -20.8301  -31.3435   19.6408 C   0  0  0  0  0  0  0  0  0  0  0  0
  -24.4700  -14.0536   20.9553 C   0  0  0  0  0  0  0  0  0  0  0  0
  -25.8823  -11.6947   20.4824 C   0  0  0  0  0  0  0  0  0  0  0  0
  -25.3575  -13.9754   19.8821 C   0  0  0  0  0  0  0  0  0  0  0  0
  -26.7209  -19.8642   22.2026 C   0  0  0  0  0  0  0  0  0  0  0  0
  -28.1992  -21.4905   22.1339 C   0  0  0  0  0  0  0  0  0  0  0  0
  -19.7607  -28.6747   23.0867 C   0  0  0  0  0  0  0  0  0  0  0  0
  -28.5320  -19.7401   20.3807 C   0  0  0  0  0  0  0  0  0  0  0  0
  -25.5381  -28.8827   20.7558 C   0  0  0  0  0  0  0  0  0  0  0  0
  -26.2067  -31.3134   22.7971 C   0  0  0  0  0  0  0  0  0  0  0  0
  -24.3586  -33.8893   24.5195 C   0  0  0  0  0  0  0  0  0  0  0  0
  -18.5634  -29.9309   21.3292 C   0  0  0  0  0  0  0  0  0  0  0  0
  -25.1028  -25.4646   25.3470 C   0  0  0  0  0  0  0  0  0  0  0  0
  -28.1328  -25.2153   18.3319 C   0  0  0  0  0  0  0  0  0  0  0  0
  -25.0976  -30.8955   19.3030 C   0  0  0  0  0  0  0  0  0  0  0  0
  -23.8308  -31.1624   21.9618 C   0  0  0  0  0  0  0  0  0  0  0  0
  -28.3303  -26.0325   19.6061 C   0  0  0  0  0  0  0  0  0  0  0  0
  -27.9766  -23.6476   26.4038 C   0  0  0  0  0  0  0  0  0  0  0  0
  -27.0587  -26.0234   20.4485 C   0  0  0  0  0  0  0  0  0  0  0  0
  -28.0874  -22.5163   25.3790 C   0  0  0  0  0  0  0  0  0  0  0  0
  -26.5212  -23.9707   26.7368 C   0  0  0  0  0  0  0  0  0  0  0  0
  -25.7753  -23.1130   24.5511 C   0  0  0  0  0  0  0  0  0  0  0  0
  -25.8894  -26.6623   19.6894 C   0  0  1  0  0  0  0  0  0  0  0  0
  -25.7612  -30.3565   20.5666 C   0  0  1  0  0  0  0  0  0  0  0  0
  -27.2211  -22.7958   24.1353 C   0  0  2  0  0  0  0  0  0  0  0  0
  -25.0825  -36.1507   25.3317 C   0  0  0  0  0  0  0  0  0  0  0  0
  -17.3470  -30.5533   19.2235 C   0  0  0  0  0  0  0  0  0  0  0  0
  -26.7220  -29.8788   25.4403 C   0  0  0  0  0  0  0  0  0  0  0  0
  -25.8549  -31.9047   26.6287 C   0  0  0  0  0  0  0  0  0  0  0  0
  -27.8927  -32.0757   25.2001 C   0  0  0  0  0  0  0  0  0  0  0  0
  -22.2004  -35.2478   23.0177 C   0  0  0  0  0  0  0  0  0  0  0  0
  -25.6307  -31.8002   24.1049 C   0  0  1  0  0  0  0  0  0  0  0  0
  -24.3838  -35.3781   24.2237 C   0  0  2  0  0  0  0  0  0  0  0  0
  -18.7050  -30.2984   19.8582 C   0  0  1  0  0  0  0  0  0  1  0  0
  -26.5090  -31.4014   25.3243 C   0  0  0  0  0  0  0  0  0  0  0  0
  -26.3707  -20.6771   23.2028 N   0  0  0  0  0  0  0  0  0  0  0  0
  -27.2886  -21.6565   23.1356 N   0  0  0  0  0  0  0  0  0  0  0  0
  -25.2851  -31.0199   21.7821 N   0  0  0  0  0  0  0  0  0  0  0  0
  -25.7628  -24.2283   25.5107 N   0  0  0  0  0  0  0  0  0  0  0  0
  -29.1905  -22.3828   21.9249 N   0  0  0  0  0  0  0  0  0  0  0  0
  -28.0443  -18.5359   19.8550 N   0  0  0  0  0  0  0  0  0  0  0  0
  -24.4416  -25.6082   24.1276 N   0  0  0  0  0  0  0  0  0  0  0  0
  -19.6214  -29.1394   21.7800 N   0  0  0  0  0  0  0  0  0  0  0  0
  -26.0007  -28.1050   19.7114 N   0  0  0  0  0  0  0  0  0  0  0  0
  -25.4347  -33.2381   23.9545 N   0  0  0  0  0  0  0  0  0  0  0  0
  -22.9956  -35.9028   24.0881 N   0  3  0  0  0  0  0  0  0  0  0  0
  -18.9768  -28.8992   24.0049 O   0  0  0  0  0  0  0  0  0  0  0  0
  -29.5509  -20.2647   19.8704 O   0  0  0  0  0  0  0  0  0  0  0  0
  -24.9885  -28.4807   21.7746 O   0  0  0  0  0  0  0  0  0  0  0  0
  -27.4296  -31.2045   22.6782 O   0  0  0  0  0  0  0  0  0  0  0  0
  -23.4750  -33.3580   25.1883 O   0  0  0  0  0  0  0  0  0  0  0  0
  -17.6229  -30.3194   22.0182 O   0  0  0  0  0  0  0  0  0  0  0  0
  -25.1454  -26.3426   26.2126 O   0  0  0  0  0  0  0  0  0  0  0  0
  -23.7688  -15.2241   21.1920 O   0  0  0  0  0  0  0  0  0  0  0  0
  -19.4813  -31.4904   19.7454 O   0  0  0  0  0  0  0  0  0  1  0  0
  -26.5614  -10.5626   20.2563 F   0  0  0  0  0  0  0  0  0  0  0  0
  -25.5368  -15.0304   19.0755 F   0  0  0  0  0  0  0  0  0  0  0  0
  1  2  1  0  0  0  0
  1  7  2  0  0  0  0
  2  8  2  0  0  0  0
  3 12  2  0  0  0  0
  3 19  1  0  0  0  0
  4 13  1  0  0  0  0
  4 19  2  0  0  0  0
  5 10  2  0  0  0  0
  5 20  1  0  0  0  0
  6 11  1  0  0  0  0
  6 20  2  0  0  0  0
  7 22  1  0  0  0  0
  8 24  1  0  0  0  0
  9 14  2  0  0  0  0
  9 23  1  0  0  0  0
 10 26  1  0  0  0  0
 11 26  2  0  0  0  0
 12 27  1  0  0  0  0
 13 27  2  0  0  0  0
 14 28  1  0  0  0  0
 15 16  2  0  0  0  0
 15 29  1  0  0  0  0
 16 30  1  0  0  0  0
 17 25  1  0  0  0  0
 17 28  2  0  0  0  0
 18 30  2  0  0  0  0
 18 31  1  0  0  0  0
 19 32  1  0  0  0  0
 20 34  1  0  0  0  0
 21 32  1  0  0  0  0
 21 33  2  0  0  0  0
 21 35  1  0  0  0  0
 22 24  2  0  0  0  0
 22 41  1  0  0  0  0
 23 25  2  0  0  0  0
 23 42  1  0  0  0  0
 24 50  1  0  0  0  0
 25 43  1  0  0  0  0
 26 69  1  0  0  0  0
 27 81  1  0  0  0  0
 28 82  1  0  0  0  0
 29 31  2  0  0  0  0
 29 81  1  0  0  0  0
 30 83  1  0  0  0  0
 31 84  1  0  0  0  0
 32 63  2  0  0  0  0
 33 64  1  0  0  0  0
 33 67  1  0  0  0  0
 34 70  1  0  0  0  0
 34 74  2  0  0  0  0
 35 68  1  0  0  0  0
 35 75  2  0  0  0  0
 36 51  1  0  0  0  0
 36 71  1  0  0  0  0
 36 76  2  0  0  0  0
 37 59  1  0  0  0  0
 37 65  1  0  0  0  0
 37 77  2  0  0  0  0
 38 60  1  0  0  0  0
 38 72  1  0  0  0  0
 38 78  2  0  0  0  0
 39 61  1  0  0  0  0
 39 70  1  0  0  0  0
 39 79  2  0  0  0  0
 40 66  1  0  0  0  0
 40 69  1  0  0  0  0
 40 80  2  0  0  0  0
 41 44  1  0  0  0  0
 42 51  1  0  0  0  0
 43 65  1  0  0  0  0
 44 46  1  0  0  0  0
 45 47  1  0  0  0  0
 45 48  1  0  0  0  0
 46 50  1  0  0  0  0
 47 52  1  0  0  0  0
 48 66  1  0  0  0  0
 49 52  1  0  0  0  0
 49 66  1  0  0  0  0
 50 71  1  0  0  0  0
 51 65  1  0  0  0  0
 52 64  1  0  0  0  0
 53 60  1  0  0  0  0
 54 61  1  0  0  0  0
 55 62  1  0  0  0  0
 56 62  1  0  0  0  0
 57 62  1  0  0  0  0
 58 73  1  0  0  0  0
 59 62  1  0  0  0  0
 59 72  1  0  0  0  0
 60 73  1  0  0  0  0
 61 82  1  0  0  0  0
 63 64  1  0  0  0  0
M  CHG  1  73   1
M  ISO  4  40 100  61 101  69 100  82 101
M  END
> <Batch ID>
0077

> <Smiles>
CNC(C)C(=O)NC(C(=O)N1Cc2cc([101O:1][101CH:1](C)C(=O)NC(=O)c3ccc([100NH:0][100C:0](=O)N4CCCC(n5nc(-c6ccc(Oc7ccc(F)cc7F)cc6)c(C(N)=O)c5N)C4)cc3)ccc2CC1C(=O)NC1CCCc2ccccc21)C(C)(C)C

> <Shape>
0.244

> <Color>
0.075

> <Negative vol penalty>
0.000

$$$$

  -OEChem-04042323533D

 91100  0     1  0  0  0  0  0999 V2000
  -24.7511  -37.1293   16.1911 C   0  0  0  0  0  0  0  0  0  0  0  0
  -25.5171  -36.0419   16.5987 C   0  0  0  0  0  0  0  0  0  0  0  0
  -24.1592   -9.6305   22.2577 C   0  0  0  0  0  0  0  0  0  0  0  0
  -23.9805   -9.3272   19.8675 C   0  0  0  0  0  0  0  0  0  0  0  0
  -27.7246  -21.2954   20.2070 C   0  0  0  0  0  0  0  0  0  0  0  0
  -30.1328  -21.1014   20.2093 C   0  0  0  0  0  0  0  0  0  0  0  0
  -24.2905  -38.0482   17.1332 C   0  0  0  0  0  0  0  0  0  0  0  0
  -25.8240  -35.8733   17.9484 C   0  0  0  0  0  0  0  0  0  0  0  0
  -25.2037  -31.0927   19.4994 C   0  0  0  0  0  0  0  0  0  0  0  0
  -27.8344  -22.6561   19.9209 C   0  0  0  0  0  0  0  0  0  0  0  0
  -30.2427  -22.4621   19.9231 C   0  0  0  0  0  0  0  0  0  0  0  0
  -23.1197   -8.7207   22.4509 C   0  0  0  0  0  0  0  0  0  0  0  0
  -22.9409   -8.4174   20.0607 C   0  0  0  0  0  0  0  0  0  0  0  0
  -26.2035  -30.1802   19.1656 C   0  0  0  0  0  0  0  0  0  0  0  0
  -22.7159   -5.3637   22.4541 C   0  0  0  0  0  0  0  0  0  0  0  0
  -22.8770   -4.3963   23.4460 C   0  0  0  0  0  0  0  0  0  0  0  0
  -27.1271  -30.3898   21.3842 C   0  0  0  0  0  0  0  0  0  0  0  0
  -20.9170   -5.2353   24.5826 C   0  0  0  0  0  0  0  0  0  0  0  0
  -24.5896   -9.9338   20.9660 C   0  0  0  0  0  0  0  0  0  0  0  0
  -28.8738  -20.5180   20.3513 C   0  0  0  0  0  0  0  0  0  0  0  0
  -27.0402  -10.5900   20.6986 C   0  0  0  0  0  0  0  0  0  0  0  0
  -24.5837  -37.8856   18.4963 C   0  0  0  0  0  0  0  0  0  0  0  0
  -25.1644  -31.6698   20.7768 C   0  0  0  0  0  0  0  0  0  0  0  0
  -25.3680  -36.7916   18.9094 C   0  0  0  0  0  0  0  0  0  0  0  0
  -26.1243  -31.3074   21.7325 C   0  0  0  0  0  0  0  0  0  0  0  0
  -29.0935  -23.2395   19.7789 C   0  0  0  0  0  0  0  0  0  0  0  0
  -22.5106   -8.1142   21.3524 C   0  0  0  0  0  0  0  0  0  0  0  0
  -27.1672  -29.8308   20.1071 C   0  0  0  0  0  0  0  0  0  0  0  0
  -21.6554   -6.2669   22.5265 C   0  0  0  0  0  0  0  0  0  0  0  0
  -21.9775   -4.3321   24.5102 C   0  0  0  0  0  0  0  0  0  0  0  0
  -20.7559   -6.2027   23.5907 C   0  0  0  0  0  0  0  0  0  0  0  0
  -25.6630  -10.8739   20.7658 C   0  0  0  0  0  0  0  0  0  0  0  0
  -27.6334  -11.8125   20.4983 C   0  0  0  0  0  0  0  0  0  0  0  0
  -28.1826  -25.4892   19.3231 C   0  0  0  0  0  0  0  0  0  0  0  0
  -28.6338  -26.7228   19.0576 C   0  0  0  0  0  0  0  0  0  0  0  0
  -30.0882  -26.6823   19.0423 C   0  0  0  0  0  0  0  0  0  0  0  0
  -30.9301  -27.6958   18.8166 C   0  0  0  0  0  0  0  0  0  0  0  0
  -28.7591  -19.0991   20.6497 C   0  0  0  0  0  0  0  0  0  0  0  0
  -27.7223   -9.3336   20.8074 C   0  0  0  0  0  0  0  0  0  0  0  0
  -28.1601  -18.5625   21.7496 C   0  0  0  0  0  0  0  0  0  0  0  0
  -29.3251  -18.1214   19.6480 C   0  0  0  0  0  0  0  0  0  0  0  0
  -28.1206  -17.0959   21.9176 C   0  0  0  0  0  0  0  0  0  0  0  0
  -25.3869  -34.6322   21.9076 C   0  0  0  0  0  0  0  0  0  0  0  0
  -24.6708  -33.1937   24.7254 C   0  0  0  0  0  0  0  0  0  0  0  0
  -24.6678  -30.3459   26.6061 C   0  0  0  0  0  0  0  0  0  0  0  0
  -24.1035  -38.9307   19.4719 C   0  0  0  0  0  0  0  0  0  0  0  0
  -24.0636  -32.6322   21.1297 C   0  0  0  0  0  0  0  0  0  0  0  0
  -26.1144  -31.8832   23.1242 C   0  0  0  0  0  0  0  0  0  0  0  0
  -30.5041  -25.2500   19.3349 C   0  0  0  0  0  0  0  0  0  0  0  0
  -24.1573  -38.4753   20.9279 C   0  0  0  0  0  0  0  0  0  0  0  0
  -25.6476  -16.2991   19.3328 C   0  0  0  0  0  0  0  0  0  0  0  0
  -25.4972  -37.8120   21.2306 C   0  0  0  0  0  0  0  0  0  0  0  0
  -25.5141  -14.7889   19.5097 C   0  0  0  0  0  0  0  0  0  0  0  0
  -25.9001  -17.0103   20.6613 C   0  0  0  0  0  0  0  0  0  0  0  0
  -26.9361  -14.9599   21.5903 C   0  0  0  0  0  0  0  0  0  0  0  0
  -25.7009  -36.5610   20.3675 C   0  0  1  0  0  0  0  0  0  0  0  0
  -24.4218  -33.5480   22.2960 C   0  0  1  0  0  0  0  0  0  0  0  0
  -26.7285  -14.2193   20.2600 C   0  0  1  0  0  0  0  0  0  0  0  0
  -27.4909  -19.3077   22.8712 C   0  0  0  0  0  0  0  0  0  0  0  0
  -28.7387  -18.1666   18.2537 C   0  0  0  0  0  0  0  0  0  0  0  0
  -24.0547  -29.4903   28.8841 C   0  0  0  0  0  0  0  0  0  0  0  0
  -27.1628  -34.5145   25.8896 C   0  0  0  0  0  0  0  0  0  0  0  0
  -27.0309  -32.9118   27.8085 C   0  0  0  0  0  0  0  0  0  0  0  0
  -25.1723  -34.5257   27.4036 C   0  0  0  0  0  0  0  0  0  0  0  0
  -22.7059  -28.4334   25.4871 C   0  0  0  0  0  0  0  0  0  0  0  0
  -31.6029  -15.5385   19.4302 C   0  0  0  0  0  0  0  0  0  0  0  0
  -27.8196  -27.9417   18.8181 C   0  0  0  0  0  0  0  0  0  1  0  0
  -25.4729  -32.5632   25.8382 C   0  0  1  0  0  0  0  0  0  0  0  0
  -23.5864  -29.6988   27.4524 C   0  0  2  0  0  0  0  0  0  0  0  0
  -26.2113  -33.6193   26.7082 C   0  0  0  0  0  0  0  0  0  0  0  0
  -25.3969  -12.1747   20.6201 N   0  0  0  0  0  0  0  0  0  0  0  0
  -30.2407  -17.2733   20.0175 N   0  0  0  0  0  0  0  0  0  0  0  0
  -26.6151  -12.7191   20.4595 N   0  0  0  0  0  0  0  0  0  0  0  0
  -29.2017  -24.5779   19.4974 N   0  0  0  0  0  0  0  0  0  0  0  0
  -27.0295  -16.4099   21.3871 N   0  0  0  0  0  0  0  0  0  0  0  0
  -25.0216  -32.8247   23.4191 N   0  0  0  0  0  0  0  0  0  0  0  0
  -28.9214  -12.1898   20.3534 N   0  0  0  0  0  0  0  0  0  0  0  0
  -26.9603   -8.1753   21.0121 N   0  0  0  0  0  0  0  0  0  0  0  0
  -24.9322  -35.4534   20.8936 N   0  0  0  0  0  0  0  0  0  0  0  0
  -24.5447  -31.7191   26.5827 N   0  0  0  0  0  0  0  0  0  0  0  0
  -23.2073  -28.3742   26.8843 N   0  3  0  0  0  0  0  0  0  0  0  0
  -28.9717   -9.2430   20.7420 O   0  0  0  0  0  0  0  0  0  0  0  0
  -29.0553  -16.5675   22.5225 O   0  0  0  0  0  0  0  0  0  0  0  0
  -26.4638  -34.7182   22.4861 O   0  0  0  0  0  0  0  0  0  0  0  0
  -23.7616  -33.9790   25.0053 O   0  0  0  0  0  0  0  0  0  0  0  0
  -25.5372  -29.6983   26.0270 O   0  0  0  0  0  0  0  0  0  0  0  0
  -21.4963   -7.2262   21.5406 O   0  0  0  0  0  0  0  0  0  0  0  0
  -28.1446  -28.9409   19.7837 O   0  0  0  0  0  0  0  0  0  1  0  0
  -30.6066  -16.4325   18.9587 O   0  0  0  0  0  0  0  0  0  0  0  0
  -22.1315   -3.4021   25.4619 F   0  0  0  0  0  0  0  0  0  0  0  0
  -19.7345   -7.0669   23.6650 F   0  0  0  0  0  0  0  0  0  0  0  0
  1  2  1  0  0  0  0
  1  7  2  0  0  0  0
  2  8  2  0  0  0  0
  3 12  2  0  0  0  0
  3 19  1  0  0  0  0
  4 13  1  0  0  0  0
  4 19  2  0  0  0  0
  5 10  2  0  0  0  0
  5 20  1  0  0  0  0
  6 11  1  0  0  0  0
  6 20  2  0  0  0  0
  7 22  1  0  0  0  0
  8 24  1  0  0  0  0
  9 14  2  0  0  0  0
  9 23  1  0  0  0  0
 10 26  1  0  0  0  0
 11 26  2  0  0  0  0
 12 27  1  0  0  0  0
 13 27  2  0  0  0  0
 14 28  1  0  0  0  0
 15 16  2  0  0  0  0
 15 29  1  0  0  0  0
 16 30  1  0  0  0  0
 17 25  1  0  0  0  0
 17 28  2  0  0  0  0
 18 30  2  0  0  0  0
 18 31  1  0  0  0  0
 19 32  1  0  0  0  0
 20 38  1  0  0  0  0
 21 32  1  0  0  0  0
 21 33  2  0  0  0  0
 21 39  1  0  0  0  0
 22 24  2  0  0  0  0
 22 46  1  0  0  0  0
 23 25  2  0  0  0  0
 23 47  1  0  0  0  0
 24 56  1  0  0  0  0
 25 48  1  0  0  0  0
 26 74  1  0  0  0  0
 27 87  1  0  0  0  0
 28 88  1  0  0  0  0
 29 31  2  0  0  0  0
 29 87  1  0  0  0  0
 30 90  1  0  0  0  0
 31 91  1  0  0  0  0
 32 71  2  0  0  0  0
 33 73  1  0  0  0  0
 33 77  1  0  0  0  0
 34 35  2  0  0  0  0
 34 74  1  0  0  0  0
 35 36  1  0  0  0  0
 35 67  1  0  0  0  0
 36 37  2  0  0  0  0
 36 49  1  0  0  0  0
 38 40  2  0  0  0  0
 38 41  1  0  0  0  0
 39 78  1  0  0  0  0
 39 82  2  0  0  0  0
 40 42  1  0  0  0  0
 40 59  1  0  0  0  0
 41 60  1  0  0  0  0
 41 72  2  0  0  0  0
 42 75  1  0  0  0  0
 42 83  2  0  0  0  0
 43 57  1  0  0  0  0
 43 79  1  0  0  0  0
 43 84  2  0  0  0  0
 44 68  1  0  0  0  0
 44 76  1  0  0  0  0
 44 85  2  0  0  0  0
 45 69  1  0  0  0  0
 45 80  1  0  0  0  0
 45 86  2  0  0  0  0
 46 50  1  0  0  0  0
 47 57  1  0  0  0  0
 48 76  1  0  0  0  0
 49 74  1  0  0  0  0
 50 52  1  0  0  0  0
 51 53  1  0  0  0  0
 51 54  1  0  0  0  0
 52 56  1  0  0  0  0
 53 58  1  0  0  0  0
 54 75  1  0  0  0  0
 55 58  1  0  0  0  0
 55 75  1  0  0  0  0
 56 79  1  0  0  0  0
 57 76  1  0  0  0  0
 58 73  1  0  0  0  0
 61 69  1  0  0  0  0
 62 70  1  0  0  0  0
 63 70  1  0  0  0  0
 64 70  1  0  0  0  0
 65 81  1  0  0  0  0
 66 89  1  0  0  0  0
 67 88  1  0  0  0  0
 68 70  1  0  0  0  0
 68 80  1  0  0  0  0
 69 81  1  0  0  0  0
 71 73  1  0  0  0  0
 72 89  1  0  0  0  0
M  CHG  1  81   1
M  ISO  4  40 100  42 100  67 101  88 101
M  END
> <Batch ID>
0077

> <Smiles>
C=C1CN(c2ccc(C(C(C)=NOC)=[100C:0](C)[100C:0](=O)N3CCCC(n4nc(-c5ccc(Oc6ccc(F)cc6F)cc5)c(C(N)=O)c4N)C3)cc2)C=C1[101CH2:1][101O:1]c1ccc2c(c1)CN(C(=O)C(NC(=O)C(C)NC)C(C)(C)C)C(C(=O)NC1CCCc3ccccc31)C2

> <Shape>
0.308

> <Color>
0.102

> <Negative vol penalty>
0.000

$$$$

  -OEChem-04042323533D

 85 93  0     1  0  0  0  0  0999 V2000
  -25.0113  -36.6217   16.3774 C   0  0  0  0  0  0  0  0  0  0  0  0
  -25.3569  -35.2835   16.2190 C   0  0  0  0  0  0  0  0  0  0  0  0
  -21.3491  -13.2315   23.0499 C   0  0  0  0  0  0  0  0  0  0  0  0
  -21.2467  -14.5227   21.0105 C   0  0  0  0  0  0  0  0  0  0  0  0
  -27.6663  -20.1901   17.7781 C   0  0  0  0  0  0  0  0  0  0  0  0
  -29.1738  -21.0205   19.4737 C   0  0  0  0  0  0  0  0  0  0  0  0
  -25.1502  -37.2338   17.6224 C   0  0  0  0  0  0  0  0  0  0  0  0
  -25.8427  -34.5568   17.3054 C   0  0  0  0  0  0  0  0  0  0  0  0
  -24.8846  -28.6254   18.4916 C   0  0  0  0  0  0  0  0  0  0  0  0
  -27.5546  -18.9832   18.4684 C   0  0  0  0  0  0  0  0  0  0  0  0
  -29.0620  -19.8136   20.1640 C   0  0  0  0  0  0  0  0  0  0  0  0
  -20.0138  -13.5384   23.3113 C   0  0  0  0  0  0  0  0  0  0  0  0
  -19.9114  -14.8297   21.2718 C   0  0  0  0  0  0  0  0  0  0  0  0
  -25.6573  -27.4871   18.2663 C   0  0  0  0  0  0  0  0  0  0  0  0
  -16.9691  -12.4964   22.2735 C   0  0  0  0  0  0  0  0  0  0  0  0
  -16.1353  -11.4592   22.6914 C   0  0  0  0  0  0  0  0  0  0  0  0
  -26.4953  -27.6163   20.5246 C   0  0  0  0  0  0  0  0  0  0  0  0
  -15.6920  -12.6447   24.7493 C   0  0  0  0  0  0  0  0  0  0  0  0
  -21.9656  -13.7237   21.8995 C   0  0  0  0  0  0  0  0  0  0  0  0
  -28.4760  -21.2087   18.2807 C   0  0  0  0  0  0  0  0  0  0  0  0
  -23.8386  -12.3049   20.9062 C   0  0  0  0  0  0  0  0  0  0  0  0
  -25.6289  -36.5116   18.7269 C   0  0  0  0  0  0  0  0  0  0  0  0
  -24.9198  -29.2752   19.7337 C   0  0  0  0  0  0  0  0  0  0  0  0
  -25.9895  -35.1601   18.5661 C   0  0  0  0  0  0  0  0  0  0  0  0
  -25.7201  -28.7612   20.7640 C   0  0  0  0  0  0  0  0  0  0  0  0
  -28.2525  -18.7949   19.6614 C   0  0  0  0  0  0  0  0  0  0  0  0
  -19.2949  -14.3375   22.4222 C   0  0  0  0  0  0  0  0  0  0  0  0
  -26.4650  -26.9840   19.2819 C   0  0  0  0  0  0  0  0  0  0  0  0
  -17.1644  -13.6077   23.0935 C   0  0  0  0  0  0  0  0  0  0  0  0
  -15.4968  -11.5334   23.9293 C   0  0  0  0  0  0  0  0  0  0  0  0
  -16.5258  -13.6819   24.3314 C   0  0  0  0  0  0  0  0  0  0  0  0
  -23.3451  -13.4074   21.6292 C   0  0  0  0  0  0  0  0  0  0  0  0
  -25.2031  -12.4589   20.9342 C   0  0  0  0  0  0  0  0  0  0  0  0
  -28.5951  -22.4941   17.5454 C   0  0  0  0  0  0  0  0  0  0  0  0
  -23.1272  -11.2372   20.2663 C   0  0  0  0  0  0  0  0  0  0  0  0
  -25.7762  -32.1706   20.7272 C   0  0  0  0  0  0  0  0  0  0  0  0
  -30.0842  -25.7543   18.4756 C   0  0  0  0  0  0  0  0  0  0  0  0
  -24.6062  -31.1173   23.5634 C   0  0  0  0  0  0  0  0  0  0  0  0
  -23.8434  -28.4718   25.5798 C   0  0  0  0  0  0  0  0  0  0  0  0
  -28.7622  -17.2180   21.5587 C   0  0  0  0  0  0  0  0  0  0  0  0
  -25.8066  -37.2289   20.0416 C   0  0  0  0  0  0  0  0  0  0  0  0
  -24.0599  -30.4866   19.9693 C   0  0  0  0  0  0  0  0  0  0  0  0
  -25.7780  -29.4100   22.1220 C   0  0  0  0  0  0  0  0  0  0  0  0
  -25.9751  -36.2874   21.2313 C   0  0  0  0  0  0  0  0  0  0  0  0
  -28.7079  -14.3146   23.6189 C   0  0  0  0  0  0  0  0  0  0  0  0
  -26.9799  -35.1876   20.9036 C   0  0  0  0  0  0  0  0  0  0  0  0
  -27.3741  -13.6489   23.2722 C   0  0  0  0  0  0  0  0  0  0  0  0
  -28.5981  -15.8383   23.6189 C   0  0  0  0  0  0  0  0  0  0  0  0
  -26.7038  -15.7547   22.0461 C   0  0  0  0  0  0  0  0  0  0  0  0
  -26.4967  -34.3317   19.7265 C   0  0  1  0  0  0  0  0  0  0  0  0
  -24.5659  -31.3661   21.1086 C   0  0  1  0  0  0  0  0  0  0  0  0
  -26.7804  -14.2211   21.9700 C   0  0  2  0  0  0  0  0  0  0  0  0
  -30.4313  -27.1286   17.9608 C   0  0  0  0  0  0  0  0  0  0  0  0
  -22.9365  -27.9264   27.8552 C   0  0  0  0  0  0  0  0  0  0  0  0
  -27.2790  -31.8957   24.8125 C   0  0  0  0  0  0  0  0  0  0  0  0
  -26.6814  -30.4911   26.7970 C   0  0  0  0  0  0  0  0  0  0  0  0
  -25.2755  -32.4627   26.1978 C   0  0  0  0  0  0  0  0  0  0  0  0
  -21.5441  -26.9991   24.4380 C   0  0  0  0  0  0  0  0  0  0  0  0
  -27.6767  -25.6489   17.7310 C   0  0  0  0  0  0  0  0  0  1  0  0
  -29.0217  -24.9296   17.7509 C   0  0  2  0  0  0  0  0  0  0  0  0
  -25.1828  -30.3896   24.7537 C   0  0  1  0  0  0  0  0  0  0  0  0
  -22.6004  -28.1472   26.3886 C   0  0  2  0  0  0  0  0  0  0  0  0
  -26.1053  -31.2984   25.6141 C   0  0  0  0  0  0  0  0  0  0  0  0
  -24.3171  -14.2030   22.0836 N   0  0  0  0  0  0  0  0  0  0  0  0
  -25.4350  -13.5997   21.6450 N   0  0  0  0  0  0  0  0  0  0  0  0
  -24.9237  -30.5957   22.3013 N   0  0  0  0  0  0  0  0  0  0  0  0
  -28.0320  -16.3086   22.3528 N   0  0  0  0  0  0  0  0  0  0  0  0
  -26.2153  -11.7285   20.4201 N   0  0  0  0  0  0  0  0  0  0  0  0
  -21.7273  -11.2320   20.3342 N   0  0  0  0  0  0  0  0  0  0  0  0
  -28.1381  -17.5686   20.3619 N   0  0  0  0  0  0  0  0  0  0  0  0
  -28.8974  -23.6111   18.3139 N   0  0  0  0  0  0  0  0  0  0  0  0
  -25.4816  -33.3976   20.1640 N   0  0  0  0  0  0  0  0  0  0  0  0
  -24.0474  -29.8318   25.4804 N   0  0  0  0  0  0  0  0  0  0  0  0
  -21.9491  -26.9134   25.8648 N   0  3  0  0  0  0  0  0  0  0  0  0
  -28.4058  -22.5110   16.3319 O   0  0  0  0  0  0  0  0  0  0  0  0
  -23.7161  -10.3061   19.6666 O   0  0  0  0  0  0  0  0  0  0  0  0
  -26.8946  -31.7127   20.9302 O   0  0  0  0  0  0  0  0  0  0  0  0
  -30.6360  -25.3153   19.4882 O   0  0  0  0  0  0  0  0  0  0  0  0
  -23.8942  -32.1078   23.7469 O   0  0  0  0  0  0  0  0  0  0  0  0
  -24.5635  -27.6053   25.0887 O   0  0  0  0  0  0  0  0  0  0  0  0
  -29.8724  -17.6326   21.9013 O   0  0  0  0  0  0  0  0  0  0  0  0
  -17.9918  -14.6370   22.6768 O   0  0  0  0  0  0  0  0  0  0  0  0
  -27.2208  -25.8734   19.0645 O   0  0  0  0  0  0  0  0  0  1  0  0
  -14.6949  -10.5380   24.3298 F   0  0  0  0  0  0  0  0  0  0  0  0
  -16.7086  -14.7476   25.1230 F   0  0  0  0  0  0  0  0  0  0  0  0
  1  2  1  0  0  0  0
  1  7  2  0  0  0  0
  2  8  2  0  0  0  0
  3 12  2  0  0  0  0
  3 19  1  0  0  0  0
  4 13  1  0  0  0  0
  4 19  2  0  0  0  0
  5 10  2  0  0  0  0
  5 20  1  0  0  0  0
  6 11  1  0  0  0  0
  6 20  2  0  0  0  0
  7 22  1  0  0  0  0
  8 24  1  0  0  0  0
  9 14  2  0  0  0  0
  9 23  1  0  0  0  0
 10 26  1  0  0  0  0
 11 26  2  0  0  0  0
 12 27  1  0  0  0  0
 13 27  2  0  0  0  0
 14 28  1  0  0  0  0
 15 16  2  0  0  0  0
 15 29  1  0  0  0  0
 16 30  1  0  0  0  0
 17 25  1  0  0  0  0
 17 28  2  0  0  0  0
 18 30  2  0  0  0  0
 18 31  1  0  0  0  0
 19 32  1  0  0  0  0
 20 34  1  0  0  0  0
 21 32  1  0  0  0  0
 21 33  2  0  0  0  0
 21 35  1  0  0  0  0
 22 24  2  0  0  0  0
 22 41  1  0  0  0  0
 23 25  2  0  0  0  0
 23 42  1  0  0  0  0
 24 50  1  0  0  0  0
 25 43  1  0  0  0  0
 26 70  1  0  0  0  0
 27 82  1  0  0  0  0
 28 83  1  0  0  0  0
 29 31  2  0  0  0  0
 29 82  1  0  0  0  0
 30 84  1  0  0  0  0
 31 85  1  0  0  0  0
 32 64  2  0  0  0  0
 33 65  1  0  0  0  0
 33 68  1  0  0  0  0
 34 71  1  0  0  0  0
 34 75  2  0  0  0  0
 35 69  1  0  0  0  0
 35 76  2  0  0  0  0
 36 51  1  0  0  0  0
 36 72  1  0  0  0  0
 36 77  2  0  0  0  0
 37 53  1  0  0  0  0
 37 60  1  0  0  0  0
 37 78  2  0  0  0  0
 38 61  1  0  0  0  0
 38 66  1  0  0  0  0
 38 79  2  0  0  0  0
 39 62  1  0  0  0  0
 39 73  1  0  0  0  0
 39 80  2  0  0  0  0
 40 67  1  0  0  0  0
 40 70  1  0  0  0  0
 40 81  2  0  0  0  0
 41 44  1  0  0  0  0
 42 51  1  0  0  0  0
 43 66  1  0  0  0  0
 44 46  1  0  0  0  0
 45 47  1  0  0  0  0
 45 48  1  0  0  0  0
 46 50  1  0  0  0  0
 47 52  1  0  0  0  0
 48 67  1  0  0  0  0
 49 52  1  0  0  0  0
 49 67  1  0  0  0  0
 50 72  1  0  0  0  0
 51 66  1  0  0  0  0
 52 65  1  0  0  0  0
 54 62  1  0  0  0  0
 55 63  1  0  0  0  0
 56 63  1  0  0  0  0
 57 63  1  0  0  0  0
 58 74  1  0  0  0  0
 59 60  1  0  0  0  0
 59 83  1  0  0  0  0
 60 71  1  0  0  0  0
 61 63  1  0  0  0  0
 61 73  1  0  0  0  0
 62 74  1  0  0  0  0
 64 65  1  0  0  0  0
M  CHG  1  74   1
M  ISO  4  40 100  59 101  70 100  83 101
M  END
> <Batch ID>
0077

> <Smiles>
CNC(C)C(=O)NC(C(=O)N1Cc2cc([101O:1][101CH2:1]C(NC(=O)c3ccc([100NH:0][100C:0](=O)N4CCCC(n5nc(-c6ccc(Oc7ccc(F)cc7F)cc6)c(C(N)=O)c5N)C4)cc3)C(C)=O)ccc2CC1C(=O)NC1CCCc2ccccc21)C(C)(C)C

> <Shape>
0.235

> <Color>
0.102

> <Negative vol penalty>
0.000

$$$$

  -OEChem-04042323533D

 80 87  0     1  0  0  0  0  0999 V2000
  -18.9459  -33.8762   22.0726 C   0  0  0  0  0  0  0  0  0  0  0  0
  -20.2924  -33.6895   21.7767 C   0  0  0  0  0  0  0  0  0  0  0  0
  -27.5367  -14.0797   21.7042 C   0  0  0  0  0  0  0  0  0  0  0  0
  -27.3647  -14.2253   19.2987 C   0  0  0  0  0  0  0  0  0  0  0  0
  -18.2695  -32.9421   22.8561 C   0  0  0  0  0  0  0  0  0  0  0  0
  -20.9635  -32.5690   22.2650 C   0  0  0  0  0  0  0  0  0  0  0  0
  -25.4249  -29.4412   19.4688 C   0  0  0  0  0  0  0  0  0  0  0  0
  -26.6503  -13.0027   21.7024 C   0  0  0  0  0  0  0  0  0  0  0  0
  -26.4783  -13.1483   19.2969 C   0  0  0  0  0  0  0  0  0  0  0  0
  -26.8131  -29.4724   19.5943 C   0  0  0  0  0  0  0  0  0  0  0  0
  -23.3129  -12.5244   21.4635 C   0  0  0  0  0  0  0  0  0  0  0  0
  -22.2914  -12.5250   22.4134 C   0  0  0  0  0  0  0  0  0  0  0  0
  -26.7110  -27.6074   21.1210 C   0  0  0  0  0  0  0  0  0  0  0  0
  -23.1292  -10.4463   23.3157 C   0  0  0  0  0  0  0  0  0  0  0  0
  -27.8938  -14.6911   20.5023 C   0  0  0  0  0  0  0  0  0  0  0  0
  -30.2118  -15.7512   20.3999 C   0  0  0  0  0  0  0  0  0  0  0  0
  -18.9302  -31.8046   23.3462 C   0  0  0  0  0  0  0  0  0  0  0  0
  -24.6671  -28.4982   20.1781 C   0  0  0  0  0  0  0  0  0  0  0  0
  -20.2957  -31.6195   23.0569 C   0  0  0  0  0  0  0  0  0  0  0  0
  -25.3136  -27.5647   21.0007 C   0  0  0  0  0  0  0  0  0  0  0  0
  -26.1212  -12.5369   20.4987 C   0  0  0  0  0  0  0  0  0  0  0  0
  -27.4561  -28.5574   20.4227 C   0  0  0  0  0  0  0  0  0  0  0  0
  -24.2425  -11.4847   21.4397 C   0  0  0  0  0  0  0  0  0  0  0  0
  -22.1996  -11.4860   23.3395 C   0  0  0  0  0  0  0  0  0  0  0  0
  -24.1506  -10.4457   22.3658 C   0  0  0  0  0  0  0  0  0  0  0  0
  -28.8089  -15.8041   20.5036 C   0  0  0  0  0  0  0  0  0  0  0  0
  -30.6096  -17.0649   20.4501 C   0  0  0  0  0  0  0  0  0  0  0  0
  -31.0781  -14.6161   20.2697 C   0  0  0  0  0  0  0  0  0  0  0  0
  -22.4035  -28.6557   22.4040 C   0  0  0  0  0  0  0  0  0  0  0  0
  -22.2698  -25.4480   21.9406 C   0  0  0  0  0  0  0  0  0  0  0  0
  -29.7842  -25.5560   18.7031 C   0  0  0  0  0  0  0  0  0  0  0  0
  -23.8447  -22.6016   20.9089 C   0  0  0  0  0  0  0  0  0  0  0  0
  -27.8367  -22.0722   19.0032 C   0  0  0  0  0  0  0  0  0  0  0  0
  -29.5716  -27.5185   20.2105 C   0  0  0  0  0  0  0  0  0  1  0  0
  -18.1693  -30.8468   24.2284 C   0  0  0  0  0  0  0  0  0  0  0  0
  -23.1728  -28.4604   20.0111 C   0  0  0  0  0  0  0  0  0  0  0  0
  -24.5475  -26.5192   21.7679 C   0  0  0  0  0  0  0  0  0  0  0  0
  -18.8575  -29.4944   24.3950 C   0  0  0  0  0  0  0  0  0  0  0  0
  -29.2949  -21.3103   22.2266 C   0  0  0  0  0  0  0  0  0  0  0  0
  -20.3402  -29.6839   24.6992 C   0  0  0  0  0  0  0  0  0  0  0  0
  -29.4674  -19.7932   22.1315 C   0  0  0  0  0  0  0  0  0  0  0  0
  -28.0065  -21.7638   21.5466 C   0  0  0  0  0  0  0  0  0  0  0  0
  -28.0511  -19.8249   20.0260 C   0  0  0  0  0  0  0  0  0  0  0  0
  -21.0520  -30.4040   23.5476 C   0  0  1  0  0  0  0  0  0  0  0  0
  -22.4579  -27.7876   21.1788 C   0  0  1  0  0  0  0  0  0  0  0  0
  -29.3468  -19.3058   20.6754 C   0  0  2  0  0  0  0  0  0  0  0  0
  -28.8232  -25.8110   16.4384 C   0  0  0  0  0  0  0  0  0  0  0  0
  -23.4939  -20.1270   20.6844 C   0  0  0  0  0  0  0  0  0  0  0  0
  -22.6517  -25.1233   24.9503 C   0  0  0  0  0  0  0  0  0  0  0  0
  -23.2394  -22.7233   24.5465 C   0  0  0  0  0  0  0  0  0  0  0  0
  -20.9732  -23.5701   23.9382 C   0  0  0  0  0  0  0  0  0  0  0  0
  -31.2031  -28.2660   21.9055 C   0  0  0  0  0  0  0  0  0  0  0  0
  -24.2210  -22.6971   17.9749 C   0  0  0  0  0  0  0  0  0  0  0  0
  -27.6250  -24.3832   18.1248 C   0  0  0  0  0  0  0  0  0  0  0  0
  -22.9670  -24.2511   22.5408 C   0  0  1  0  0  0  0  0  0  0  0  0
  -28.9889  -24.8540   17.6156 C   0  0  2  0  0  0  0  0  0  0  0  0
  -23.3959  -21.4777   19.9925 C   0  0  2  0  0  0  0  0  0  0  0  0
  -22.4724  -23.9378   23.9812 C   0  0  0  0  0  0  0  0  0  0  0  0
  -28.3465  -17.0525   20.6117 N   0  0  0  0  0  0  0  0  0  0  0  0
  -29.4653  -17.7962   20.5763 N   0  0  0  0  0  0  0  0  0  0  0  0
  -23.0878  -26.5269   21.5765 N   0  0  0  0  0  0  0  0  0  0  0  0
  -27.9627  -21.2829   20.1584 N   0  0  0  0  0  0  0  0  0  0  0  0
  -31.8230  -17.6543   20.3983 N   0  0  0  0  0  0  0  0  0  0  0  0
  -30.5039  -13.3381   20.2341 N   0  0  0  0  0  0  0  0  0  0  0  0
  -21.3013  -29.4876   22.4556 N   0  0  0  0  0  0  0  0  0  0  0  0
  -29.1189  -26.7209   19.2371 N   0  0  0  0  0  0  0  0  0  0  0  0
  -22.7846  -23.1555   21.5948 N   0  0  0  0  0  0  0  0  0  0  0  0
  -27.7519  -23.4427   19.2158 N   0  0  0  0  0  0  0  0  0  0  0  0
  -30.7308  -27.3611   20.8541 N   0  3  0  0  0  0  0  0  0  0  0  0
  -24.2418  -21.4400   18.7662 N   0  3  0  0  0  0  0  0  0  0  0  0
  -32.3255  -14.7308   20.2038 O   0  0  0  0  0  0  0  0  0  0  0  0
  -23.2947  -28.5757   23.2413 O   0  0  0  0  0  0  0  0  0  0  0  0
  -21.0453  -25.4236   21.7934 O   0  0  0  0  0  0  0  0  0  0  0  0
  -30.8726  -25.1943   19.1276 O   0  0  0  0  0  0  0  0  0  0  0  0
  -25.0189  -22.9506   21.0091 O   0  0  0  0  0  0  0  0  0  0  0  0
  -27.8073  -21.5913   17.8652 O   0  0  0  0  0  0  0  0  0  0  0  0
  -25.2565  -11.4858   20.4966 O   0  0  0  0  0  0  0  0  0  0  0  0
  -28.8109  -28.5861   20.5476 O   0  0  0  0  0  0  0  0  0  1  0  0
  -21.2196  -11.4876   24.2525 F   0  0  0  0  0  0  0  0  0  0  0  0
  -25.0415   -9.4447   22.3486 F   0  0  0  0  0  0  0  0  0  0  0  0
  1  2  1  0  0  0  0
  1  5  2  0  0  0  0
  2  6  2  0  0  0  0
  3  8  2  0  0  0  0
  3 15  1  0  0  0  0
  4  9  1  0  0  0  0
  4 15  2  0  0  0  0
  5 17  1  0  0  0  0
  6 19  1  0  0  0  0
  7 10  2  0  0  0  0
  7 18  1  0  0  0  0
  8 21  1  0  0  0  0
  9 21  2  0  0  0  0
 10 22  1  0  0  0  0
 11 12  2  0  0  0  0
 11 23  1  0  0  0  0
 12 24  1  0  0  0  0
 13 20  1  0  0  0  0
 13 22  2  0  0  0  0
 14 24  2  0  0  0  0
 14 25  1  0  0  0  0
 15 26  1  0  0  0  0
 16 26  1  0  0  0  0
 16 27  2  0  0  0  0
 16 28  1  0  0  0  0
 17 19  2  0  0  0  0
 17 35  1  0  0  0  0
 18 20  2  0  0  0  0
 18 36  1  0  0  0  0
 19 44  1  0  0  0  0
 20 37  1  0  0  0  0
 21 77  1  0  0  0  0
 22 78  1  0  0  0  0
 23 25  2  0  0  0  0
 23 77  1  0  0  0  0
 24 79  1  0  0  0  0
 25 80  1  0  0  0  0
 26 59  2  0  0  0  0
 27 60  1  0  0  0  0
 27 63  1  0  0  0  0
 28 64  1  0  0  0  0
 28 71  2  0  0  0  0
 29 45  1  0  0  0  0
 29 65  1  0  0  0  0
 29 72  2  0  0  0  0
 30 55  1  0  0  0  0
 30 61  1  0  0  0  0
 30 73  2  0  0  0  0
 31 56  1  0  0  0  0
 31 66  1  0  0  0  0
 31 74  2  0  0  0  0
 32 57  1  0  0  0  0
 32 67  1  0  0  0  0
 32 75  2  0  0  0  0
 33 62  1  0  0  0  0
 33 68  1  0  0  0  0
 33 76  2  0  0  0  0
 34 66  1  0  0  0  0
 34 69  2  0  0  0  0
 34 78  1  0  0  0  0
 35 38  1  0  0  0  0
 36 45  1  0  0  0  0
 37 61  1  0  0  0  0
 38 40  1  0  0  0  0
 39 41  1  0  0  0  0
 39 42  1  0  0  0  0
 40 44  1  0  0  0  0
 41 46  1  0  0  0  0
 42 62  1  0  0  0  0
 43 46  1  0  0  0  0
 43 62  1  0  0  0  0
 44 65  1  0  0  0  0
 45 61  1  0  0  0  0
 46 60  1  0  0  0  0
 47 56  1  0  0  0  0
 48 57  1  0  0  0  0
 49 58  1  0  0  0  0
 50 58  1  0  0  0  0
 51 58  1  0  0  0  0
 52 69  1  0  0  0  0
 53 70  1  0  0  0  0
 54 56  1  0  0  0  0
 54 68  1  0  0  0  0
 55 58  1  0  0  0  0
 55 67  1  0  0  0  0
 57 70  1  0  0  0  0
 59 60  1  0  0  0  0
M  CHG  2  69   1  70   1
M  ISO  4  33 100  34 101  68 100  78 101
M  END
> <Batch ID>
0077

> <Smiles>
CNC(C)C(=O)NC(C(=O)N1Cc2cc([101O:1][101C:1](=NC(=O)C(C)C[100NH:0][100C:0](=O)N3CCCC(n4nc(-c5ccc(Oc6ccc(F)cc6F)cc5)c(C(N)=O)c4N)C3)NC)ccc2CC1C(=O)NC1CCCc2ccccc21)C(C)(C)C

> <Shape>
0.258

> <Color>
0.102

> <Negative vol penalty>
0.000

$$$$

  -OEChem-04042323533D

 87 96  0     1  0  0  0  0  0999 V2000
  -18.6590  -24.5899   24.4011 C   0  0  0  0  0  0  0  0  0  0  0  0
  -19.9041  -24.3774   23.8180 C   0  0  0  0  0  0  0  0  0  0  0  0
  -22.8295  -11.2237   20.9114 C   0  0  0  0  0  0  0  0  0  0  0  0
  -24.1887   -9.4398   21.8099 C   0  0  0  0  0  0  0  0  0  0  0  0
  -18.0159  -25.8166   24.2413 C   0  0  0  0  0  0  0  0  0  0  0  0
  -20.5064  -25.3913   23.0739 C   0  0  0  0  0  0  0  0  0  0  0  0
  -26.4946  -26.6166   22.6915 C   0  0  0  0  0  0  0  0  0  0  0  0
  -29.1726  -20.0964   18.6499 C   0  0  0  0  0  0  0  0  0  0  0  0
  -29.8805  -19.6832   16.3772 C   0  0  0  0  0  0  0  0  0  0  0  0
  -29.1128  -18.7221   18.8811 C   0  0  0  0  0  0  0  0  0  0  0  0
  -29.8207  -18.3090   16.6083 C   0  0  0  0  0  0  0  0  0  0  0  0
  -21.7020  -10.4070   20.9956 C   0  0  0  0  0  0  0  0  0  0  0  0
  -23.0611   -8.6231   21.8941 C   0  0  0  0  0  0  0  0  0  0  0  0
  -27.4600  -26.2897   21.7403 C   0  0  0  0  0  0  0  0  0  0  0  0
  -20.4099   -8.2448   23.9552 C   0  0  0  0  0  0  0  0  0  0  0  0
  -20.2270   -7.5141   25.1292 C   0  0  0  0  0  0  0  0  0  0  0  0
  -27.1389  -28.4355   20.6858 C   0  0  0  0  0  0  0  0  0  0  0  0
  -20.2952   -5.4590   23.8606 C   0  0  0  0  0  0  0  0  0  0  0  0
  -24.0730  -10.7401   21.3185 C   0  0  0  0  0  0  0  0  0  0  0  0
  -25.7316  -12.4563   22.2192 C   0  0  0  0  0  0  0  0  0  0  0  0
  -18.6150  -26.8493   23.5029 C   0  0  0  0  0  0  0  0  0  0  0  0
  -25.8351  -27.8531   22.6405 C   0  0  0  0  0  0  0  0  0  0  0  0
  -19.8702  -26.6325   22.9030 C   0  0  0  0  0  0  0  0  0  0  0  0
  -26.1673  -28.7766   21.6391 C   0  0  0  0  0  0  0  0  0  0  0  0
  -29.5565  -20.5770   17.3979 C   0  0  0  0  0  0  0  0  0  0  0  0
  -29.4368  -17.8284   17.8603 C   0  0  0  0  0  0  0  0  0  0  0  0
  -21.8177   -9.1067   21.4869 C   0  0  0  0  0  0  0  0  0  0  0  0
  -27.7802  -27.1980   20.7355 C   0  0  0  0  0  0  0  0  0  0  0  0
  -20.5353   -7.5827   22.7339 C   0  0  0  0  0  0  0  0  0  0  0  0
  -20.1697   -6.1212   25.0819 C   0  0  0  0  0  0  0  0  0  0  0  0
  -20.4780   -6.1898   22.6866 C   0  0  0  0  0  0  0  0  0  0  0  0
  -25.2382  -11.5831   21.2313 C   0  0  0  0  0  0  0  0  0  0  0  0
  -26.8483  -13.0204   21.6522 C   0  0  0  0  0  0  0  0  0  0  0  0
  -29.5172  -24.2329   17.4199 C   0  0  0  0  0  0  0  0  0  0  0  0
  -29.9407  -23.9960   16.0627 C   0  0  0  0  0  0  0  0  0  0  0  0
  -29.3116  -22.9344   18.1203 C   0  0  0  0  0  0  0  0  0  0  0  0
  -30.2277  -24.8937   15.1138 C   0  0  0  0  0  0  0  0  0  0  0  0
  -29.3107  -25.3935   18.0518 C   0  0  0  0  0  0  0  0  0  0  0  0
  -25.2259  -12.7328   23.5320 C   0  0  0  0  0  0  0  0  0  0  0  0
  -22.8152  -28.7708   22.2647 C   0  0  0  0  0  0  0  0  0  0  0  0
  -24.0436  -31.7130   22.8622 C   0  0  0  0  0  0  0  0  0  0  0  0
  -26.7622  -33.7759   22.8439 C   0  0  0  0  0  0  0  0  0  0  0  0
  -29.0735  -15.5000   17.0593 C   0  0  0  0  0  0  0  0  0  0  0  0
  -17.8602  -28.1419   23.3182 C   0  0  0  0  0  0  0  0  0  0  0  0
  -24.8153  -28.2012   23.6899 C   0  0  0  0  0  0  0  0  0  0  0  0
  -25.5029  -30.1255   21.5524 C   0  0  0  0  0  0  0  0  0  0  0  0
  -30.0113  -22.5104   15.8774 C   0  0  0  0  0  0  0  0  0  0  0  0
  -18.7346  -29.2933   22.8283 C   0  0  0  0  0  0  0  0  0  0  0  0
  -29.3765  -11.8434   17.4431 C   0  0  0  0  0  0  0  0  0  0  0  0
  -19.6175  -28.8379   21.6708 C   0  0  0  0  0  0  0  0  0  0  0  0
  -28.3184  -11.5228   18.4974 C   0  0  0  0  0  0  0  0  0  0  0  0
  -28.9963  -13.0648   16.6115 C   0  0  0  0  0  0  0  0  0  0  0  0
  -27.6415  -13.9574   18.4818 C   0  0  0  0  0  0  0  0  0  0  0  0
  -20.5669  -27.7163   22.1092 C   0  0  1  0  0  0  0  0  0  0  0  0
  -23.8387  -29.2828   23.2384 C   0  0  1  0  0  0  0  0  0  0  0  0
  -28.0163  -12.7573   19.3645 C   0  0  1  0  0  0  0  0  0  0  0  0
  -27.4477  -36.1359   23.3517 C   0  0  0  0  0  0  0  0  0  0  0  0
  -22.7353  -32.6484   20.2692 C   0  0  0  0  0  0  0  0  0  0  0  0
  -24.2054  -34.6737   20.3398 C   0  0  0  0  0  0  0  0  0  0  0  0
  -22.5592  -34.2653   22.1690 C   0  0  0  0  0  0  0  0  0  0  0  0
  -29.8679  -15.8893   19.3803 C   0  0  0  0  0  0  0  0  0  0  0  0
  -28.6755  -32.8956   24.9231 C   0  0  0  0  0  0  0  0  0  0  0  0
  -28.8682  -25.5012   19.4734 C   0  0  0  0  0  0  0  0  0  1  0  0
  -24.6276  -32.8194   22.0174 C   0  0  1  0  0  0  0  0  0  0  0  0
  -27.3164  -34.7213   23.8944 C   0  0  2  0  0  0  0  0  0  0  0  0
  -23.5432  -33.5756   21.1991 C   0  0  0  0  0  0  0  0  0  0  0  0
  -25.9805  -11.5887   20.1209 N   0  0  0  0  0  0  0  0  0  0  0  0
  -26.9516  -12.4724   20.4075 N   0  0  0  0  0  0  0  0  0  0  0  0
  -29.6159  -21.9476   17.1670 N   0  0  0  0  0  0  0  0  0  0  0  0
  -24.5078  -30.4167   22.5976 N   0  0  0  0  0  0  0  0  0  0  0  0
  -28.6700  -14.2108   17.4610 N   0  0  0  0  0  0  0  0  0  0  0  0
  -27.7419  -13.9268   22.1018 N   0  0  0  0  0  0  0  0  0  0  0  0
  -24.0686  -12.0657   23.9563 N   0  0  0  0  0  0  0  0  0  0  0  0
  -21.6781  -28.2596   22.8606 N   0  0  0  0  0  0  0  0  0  0  0  0
  -25.3901  -33.6682   22.9266 N   0  0  0  0  0  0  0  0  0  0  0  0
  -29.3749  -16.4058   18.0993 N   0  0  0  0  0  0  0  0  0  0  0  0
  -28.6613  -34.2640   24.3450 N   0  3  0  0  0  0  0  0  0  0  0  0
  -28.9541  -22.7932   19.2777 O   0  0  0  0  0  0  0  0  0  0  0  0
  -25.7744  -13.5594   24.2996 O   0  0  0  0  0  0  0  0  0  0  0  0
  -23.0398  -28.8362   21.0618 O   0  0  0  0  0  0  0  0  0  0  0  0
  -23.2116  -31.9896   23.7299 O   0  0  0  0  0  0  0  0  0  0  0  0
  -27.4749  -33.1942   22.0289 O   0  0  0  0  0  0  0  0  0  0  0  0
  -29.1843  -15.8068   15.8663 O   0  0  0  0  0  0  0  0  0  0  0  0
  -20.7176   -8.3096   21.5694 O   0  0  0  0  0  0  0  0  0  0  0  0
  -28.7217  -26.8813   19.8054 O   0  0  0  0  0  0  0  0  0  1  0  0
  -19.9956   -5.4195   26.2095 F   0  0  0  0  0  0  0  0  0  0  0  0
  -20.5990   -5.5481   21.5164 F   0  0  0  0  0  0  0  0  0  0  0  0
  1  2  1  0  0  0  0
  1  5  2  0  0  0  0
  2  6  2  0  0  0  0
  3 12  2  0  0  0  0
  3 19  1  0  0  0  0
  4 13  1  0  0  0  0
  4 19  2  0  0  0  0
  5 21  1  0  0  0  0
  6 23  1  0  0  0  0
  7 14  2  0  0  0  0
  7 22  1  0  0  0  0
  8 10  2  0  0  0  0
  8 25  1  0  0  0  0
  9 11  1  0  0  0  0
  9 25  2  0  0  0  0
 10 26  1  0  0  0  0
 11 26  2  0  0  0  0
 12 27  1  0  0  0  0
 13 27  2  0  0  0  0
 14 28  1  0  0  0  0
 15 16  2  0  0  0  0
 15 29  1  0  0  0  0
 16 30  1  0  0  0  0
 17 24  1  0  0  0  0
 17 28  2  0  0  0  0
 18 30  2  0  0  0  0
 18 31  1  0  0  0  0
 19 32  1  0  0  0  0
 20 32  1  0  0  0  0
 20 33  2  0  0  0  0
 20 39  1  0  0  0  0
 21 23  2  0  0  0  0
 21 44  1  0  0  0  0
 22 24  2  0  0  0  0
 22 45  1  0  0  0  0
 23 54  1  0  0  0  0
 24 46  1  0  0  0  0
 25 69  1  0  0  0  0
 26 76  1  0  0  0  0
 27 84  1  0  0  0  0
 28 85  1  0  0  0  0
 29 31  2  0  0  0  0
 29 84  1  0  0  0  0
 30 86  1  0  0  0  0
 31 87  1  0  0  0  0
 32 67  2  0  0  0  0
 33 68  1  0  0  0  0
 33 72  1  0  0  0  0
 34 35  1  0  0  0  0
 34 36  1  0  0  0  0
 34 38  2  0  0  0  0
 35 37  2  0  0  0  0
 35 47  1  0  0  0  0
 36 69  1  0  0  0  0
 36 78  2  0  0  0  0
 38 63  1  0  0  0  0
 39 73  1  0  0  0  0
 39 79  2  0  0  0  0
 40 55  1  0  0  0  0
 40 74  1  0  0  0  0
 40 80  2  0  0  0  0
 41 64  1  0  0  0  0
 41 70  1  0  0  0  0
 41 81  2  0  0  0  0
 42 65  1  0  0  0  0
 42 75  1  0  0  0  0
 42 82  2  0  0  0  0
 43 71  1  0  0  0  0
 43 76  1  0  0  0  0
 43 83  2  0  0  0  0
 44 48  1  0  0  0  0
 45 55  1  0  0  0  0
 46 70  1  0  0  0  0
 47 69  1  0  0  0  0
 48 50  1  0  0  0  0
 49 51  1  0  0  0  0
 49 52  1  0  0  0  0
 50 54  1  0  0  0  0
 51 56  1  0  0  0  0
 52 71  1  0  0  0  0
 53 56  1  0  0  0  0
 53 71  1  0  0  0  0
 54 74  1  0  0  0  0
 55 70  1  0  0  0  0
 56 68  1  0  0  0  0
 57 65  1  0  0  0  0
 58 66  1  0  0  0  0
 59 66  1  0  0  0  0
 60 66  1  0  0  0  0
 61 76  1  0  0  0  0
 62 77  1  0  0  0  0
 63 85  1  0  0  0  0
 64 66  1  0  0  0  0
 64 75  1  0  0  0  0
 65 77  1  0  0  0  0
 67 68  1  0  0  0  0
M  CHG  1  77   1
M  ISO  4  43 100  63 101  76 100  85 101
M  END
> <Batch ID>
0077

> <Smiles>
C=C1CN(c2ccc([100N:0](C)[100C:0](=O)N3CCCC(n4nc(-c5ccc(Oc6ccc(F)cc6F)cc5)c(C(N)=O)c4N)C3)cc2)C(=O)C1=C[101CH2:1][101O:1]c1ccc2c(c1)CN(C(=O)C(NC(=O)C(C)NC)C(C)(C)C)C(C(=O)NC1CCCc3ccccc31)C2

> <Shape>
0.299

> <Color>
0.115

> <Negative vol penalty>
0.000

$$$$

  -OEChem-04042323533D

 88 97  0     1  0  0  0  0  0999 V2000
  -20.3678  -31.3456   23.0191 C   0  0  0  0  0  0  0  0  0  0  0  0
  -21.5834  -30.7021   22.8106 C   0  0  0  0  0  0  0  0  0  0  0  0
  -22.6305  -13.1739   19.7683 C   0  0  0  0  0  0  0  0  0  0  0  0
  -23.5067  -14.5339   17.9740 C   0  0  0  0  0  0  0  0  0  0  0  0
  -19.1884  -30.6040   23.0752 C   0  0  0  0  0  0  0  0  0  0  0  0
  -21.6206  -29.3164   22.6592 C   0  0  0  0  0  0  0  0  0  0  0  0
  -24.5983  -27.8596   18.8309 C   0  0  0  0  0  0  0  0  0  0  0  0
  -21.3998  -13.1052   19.1153 C   0  0  0  0  0  0  0  0  0  0  0  0
  -22.2761  -14.4652   17.3210 C   0  0  0  0  0  0  0  0  0  0  0  0
  -25.9741  -27.8645   19.0569 C   0  0  0  0  0  0  0  0  0  0  0  0
  -18.6921  -15.0832   18.6909 C   0  0  0  0  0  0  0  0  0  0  0  0
  -17.5420  -15.2814   19.4548 C   0  0  0  0  0  0  0  0  0  0  0  0
  -25.9152  -25.4820   19.4304 C   0  0  0  0  0  0  0  0  0  0  0  0
  -30.9947  -20.7849   15.9492 C   0  0  0  0  0  0  0  0  0  0  0  0
  -30.3512  -20.6068   18.2710 C   0  0  0  0  0  0  0  0  0  0  0  0
  -30.1645  -18.6877   16.8152 C   0  0  0  0  0  0  0  0  0  0  0  0
  -16.7662  -13.0719   18.8600 C   0  0  0  0  0  0  0  0  0  0  0  0
  -23.6839  -13.8882   19.1977 C   0  0  0  0  0  0  0  0  0  0  0  0
  -25.7939  -12.8847   20.2217 C   0  0  0  0  0  0  0  0  0  0  0  0
  -19.2100  -29.2096   22.9148 C   0  0  0  0  0  0  0  0  0  0  0  0
  -23.8677  -26.6655   18.9139 C   0  0  0  0  0  0  0  0  0  0  0  0
  -20.4406  -28.5553   22.7146 C   0  0  0  0  0  0  0  0  0  0  0  0
  -24.5307  -25.4642   19.2025 C   0  0  0  0  0  0  0  0  0  0  0  0
  -30.8424  -21.3652   17.2084 C   0  0  0  0  0  0  0  0  0  0  0  0
  -30.6557  -19.4461   15.7526 C   0  0  0  0  0  0  0  0  0  0  0  0
  -30.0123  -19.2680   18.0745 C   0  0  0  0  0  0  0  0  0  0  0  0
  -21.2226  -13.7509   17.8917 C   0  0  0  0  0  0  0  0  0  0  0  0
  -26.6323  -26.6761   19.3595 C   0  0  0  0  0  0  0  0  0  0  0  0
  -18.8793  -13.8794   18.0114 C   0  0  0  0  0  0  0  0  0  0  0  0
  -16.5791  -14.2757   19.5394 C   0  0  0  0  0  0  0  0  0  0  0  0
  -17.9164  -12.8738   18.0960 C   0  0  0  0  0  0  0  0  0  0  0  0
  -24.9552  -13.9600   19.8720 C   0  0  0  0  0  0  0  0  0  0  0  0
  -26.8704  -13.4751   20.8374 C   0  0  0  0  0  0  0  0  0  0  0  0
  -31.0073  -24.9842   18.4306 C   0  0  0  0  0  0  0  0  0  0  0  0
  -32.3670  -25.3339   18.0313 C   0  0  0  0  0  0  0  0  0  0  0  0
  -30.5403  -23.5470   18.3711 C   0  0  0  0  0  0  0  0  0  0  0  0
  -32.9597  -26.5159   18.2723 C   0  0  0  0  0  0  0  0  0  0  0  0
  -30.0780  -25.8678   18.8358 C   0  0  0  0  0  0  0  0  0  0  0  0
  -25.6158  -11.4781   20.0090 C   0  0  0  0  0  0  0  0  0  0  0  0
  -21.4932  -25.6114   20.7453 C   0  0  0  0  0  0  0  0  0  0  0  0
  -21.5836  -23.0730   18.7277 C   0  0  0  0  0  0  0  0  0  0  0  0
  -24.1225  -21.0655   17.1334 C   0  0  0  0  0  0  0  0  0  0  0  0
  -29.3049  -18.9195   20.4670 C   0  0  0  0  0  0  0  0  0  0  0  0
  -17.9149  -28.4454   23.0303 C   0  0  0  0  0  0  0  0  0  0  0  0
  -22.3885  -26.6727   18.6411 C   0  0  0  0  0  0  0  0  0  0  0  0
  -23.7954  -24.1522   19.2834 C   0  0  0  0  0  0  0  0  0  0  0  0
  -33.1264  -24.2603   17.3043 C   0  0  0  0  0  0  0  0  0  0  0  0
  -17.9972  -27.0215   22.4864 C   0  0  0  0  0  0  0  0  0  0  0  0
  -28.0612  -17.3384   23.4048 C   0  0  0  0  0  0  0  0  0  0  0  0
  -19.2563  -26.3273   22.9961 C   0  0  0  0  0  0  0  0  0  0  0  0
  -27.2048  -16.1910   22.8642 C   0  0  0  0  0  0  0  0  0  0  0  0
  -32.1872  -23.3555   16.5182 C   0  0  0  0  0  0  0  0  0  0  0  0
  -27.9577  -18.5852   22.5282 C   0  0  0  0  0  0  0  0  0  0  0  0
  -27.3773  -17.2191   20.5619 C   0  0  0  0  0  0  0  0  0  0  0  0
  -20.5189  -27.0565   22.5211 C   0  0  1  0  0  0  0  0  0  0  0  0
  -21.6614  -25.4818   19.2579 C   0  0  1  0  0  0  0  0  0  0  0  0
  -27.4998  -15.9205   21.3757 C   0  0  2  0  0  0  0  0  0  0  0  0
  -24.0610  -19.7539   14.9949 C   0  0  0  0  0  0  0  0  0  0  0  0
  -20.8218  -20.7288   20.5260 C   0  0  0  0  0  0  0  0  0  0  0  0
  -22.2465  -19.2541   19.0894 C   0  0  0  0  0  0  0  0  0  0  0  0
  -20.2670  -20.4121   18.1081 C   0  0  0  0  0  0  0  0  0  0  0  0
  -26.4963  -22.4740   16.0657 C   0  0  0  0  0  0  0  0  0  0  0  0
  -28.6913  -25.4919   19.2408 C   0  0  0  0  0  0  0  0  0  1  0  0
  -22.3246  -21.7581   18.6963 C   0  0  1  0  0  0  0  0  0  0  0  0
  -24.4805  -21.0565   15.6582 C   0  0  2  0  0  0  0  0  0  0  0  0
  -21.4260  -20.5613   19.1175 C   0  0  0  0  0  0  0  0  0  0  0  0
  -25.4558  -15.1438   20.2355 N   0  0  0  0  0  0  0  0  0  0  0  0
  -26.6207  -14.8158   20.8201 N   0  0  0  0  0  0  0  0  0  0  0  0
  -31.1936  -22.7483   17.4127 N   0  0  0  0  0  0  0  0  0  0  0  0
  -22.3491  -24.2121   19.0149 N   0  0  0  0  0  0  0  0  0  0  0  0
  -28.2543  -18.2534   21.1329 N   0  0  0  0  0  0  0  0  0  0  0  0
  -30.8095  -18.8588   14.4796 N   0  0  0  0  0  0  0  0  0  0  0  0
  -27.9967  -12.9730   21.3867 N   0  0  0  0  0  0  0  0  0  0  0  0
  -26.1044  -10.9147   18.8223 N   0  0  0  0  0  0  0  0  0  0  0  0
  -29.5149  -18.4976   19.1546 N   0  0  0  0  0  0  0  0  0  0  0  0
  -20.7957  -26.7382   21.1367 N   0  0  0  0  0  0  0  0  0  0  0  0
  -22.8886  -21.6393   17.3560 N   0  0  0  0  0  0  0  0  0  0  0  0
  -25.9510  -21.2219   15.4811 N   0  3  0  0  0  0  0  0  0  0  0  0
  -29.6183  -23.1807   19.1000 O   0  0  0  0  0  0  0  0  0  0  0  0
  -25.0259  -10.7455   20.8390 O   0  0  0  0  0  0  0  0  0  0  0  0
  -21.9603  -24.7518   21.4833 O   0  0  0  0  0  0  0  0  0  0  0  0
  -20.3717  -23.0898   18.4985 O   0  0  0  0  0  0  0  0  0  0  0  0
  -24.8617  -20.6059   18.0011 O   0  0  0  0  0  0  0  0  0  0  0  0
  -29.9869  -19.7802   21.0291 O   0  0  0  0  0  0  0  0  0  0  0  0
  -20.0220  -13.6839   17.2541 O   0  0  0  0  0  0  0  0  0  0  0  0
  -27.9749  -26.6782   19.5812 O   0  0  0  0  0  0  0  0  0  1  0  0
  -15.4754  -14.4656   20.2743 F   0  0  0  0  0  0  0  0  0  0  0  0
  -18.0912  -11.7147   17.4465 F   0  0  0  0  0  0  0  0  0  0  0  0
  1  2  1  0  0  0  0
  1  5  2  0  0  0  0
  2  6  2  0  0  0  0
  3  8  2  0  0  0  0
  3 18  1  0  0  0  0
  4  9  1  0  0  0  0
  4 18  2  0  0  0  0
  5 20  1  0  0  0  0
  6 22  1  0  0  0  0
  7 10  2  0  0  0  0
  7 21  1  0  0  0  0
  8 27  1  0  0  0  0
  9 27  2  0  0  0  0
 10 28  1  0  0  0  0
 11 12  2  0  0  0  0
 11 29  1  0  0  0  0
 12 30  1  0  0  0  0
 13 23  1  0  0  0  0
 13 28  2  0  0  0  0
 14 24  1  0  0  0  0
 14 25  2  0  0  0  0
 15 24  2  0  0  0  0
 15 26  1  0  0  0  0
 16 25  1  0  0  0  0
 16 26  2  0  0  0  0
 17 30  2  0  0  0  0
 17 31  1  0  0  0  0
 18 32  1  0  0  0  0
 19 32  1  0  0  0  0
 19 33  2  0  0  0  0
 19 39  1  0  0  0  0
 20 22  2  0  0  0  0
 20 44  1  0  0  0  0
 21 23  2  0  0  0  0
 21 45  1  0  0  0  0
 22 55  1  0  0  0  0
 23 46  1  0  0  0  0
 24 69  1  0  0  0  0
 25 72  1  0  0  0  0
 26 75  1  0  0  0  0
 27 85  1  0  0  0  0
 28 86  1  0  0  0  0
 29 31  2  0  0  0  0
 29 85  1  0  0  0  0
 30 87  1  0  0  0  0
 31 88  1  0  0  0  0
 32 67  2  0  0  0  0
 33 68  1  0  0  0  0
 33 73  1  0  0  0  0
 34 35  1  0  0  0  0
 34 36  1  0  0  0  0
 34 38  2  0  0  0  0
 35 37  2  0  0  0  0
 35 47  1  0  0  0  0
 36 69  1  0  0  0  0
 36 79  2  0  0  0  0
 38 63  1  0  0  0  0
 39 74  1  0  0  0  0
 39 80  2  0  0  0  0
 40 56  1  0  0  0  0
 40 76  1  0  0  0  0
 40 81  2  0  0  0  0
 41 64  1  0  0  0  0
 41 70  1  0  0  0  0
 41 82  2  0  0  0  0
 42 65  1  0  0  0  0
 42 77  1  0  0  0  0
 42 83  2  0  0  0  0
 43 71  1  0  0  0  0
 43 75  1  0  0  0  0
 43 84  2  0  0  0  0
 44 48  1  0  0  0  0
 45 56  1  0  0  0  0
 46 70  1  0  0  0  0
 47 52  1  0  0  0  0
 48 50  1  0  0  0  0
 49 51  1  0  0  0  0
 49 53  1  0  0  0  0
 50 55  1  0  0  0  0
 51 57  1  0  0  0  0
 52 69  1  0  0  0  0
 53 71  1  0  0  0  0
 54 57  1  0  0  0  0
 54 71  1  0  0  0  0
 55 76  1  0  0  0  0
 56 70  1  0  0  0  0
 57 68  1  0  0  0  0
 58 65  1  0  0  0  0
 59 66  1  0  0  0  0
 60 66  1  0  0  0  0
 61 66  1  0  0  0  0
 62 78  1  0  0  0  0
 63 86  1  0  0  0  0
 64 66  1  0  0  0  0
 64 77  1  0  0  0  0
 65 78  1  0  0  0  0
 67 68  1  0  0  0  0
M  CHG  1  78   1
M  ISO  4  43 100  63 101  75 100  86 101
M  END
> <Batch ID>
0077

> <Smiles>
C=C1CCN(c2cc(N)cc([100NH:0][100C:0](=O)N3CCCC(n4nc(-c5ccc(Oc6ccc(F)cc6F)cc5)c(C(N)=O)c4N)C3)c2)C(=O)C1=C[101CH2:1][101O:1]c1ccc2c(c1)CN(C(=O)C(NC(=O)C(C)NC)C(C)(C)C)C(C(=O)NC1CCCc3ccccc31)C2

> <Shape>
0.195

> <Color>
0.067

> <Negative vol penalty>
0.000

$$$$

  -OEChem-04042323533D

 84 93  0     1  0  0  0  0  0999 V2000
  -17.0849  -26.8281   22.2890 C   0  0  0  0  0  0  0  0  0  0  0  0
  -18.3069  -26.2141   22.5439 C   0  0  0  0  0  0  0  0  0  0  0  0
  -24.1989   -9.5994   21.6073 C   0  0  0  0  0  0  0  0  0  0  0  0
  -24.6921  -10.8027   23.6435 C   0  0  0  0  0  0  0  0  0  0  0  0
  -17.0506  -28.0973   21.7128 C   0  0  0  0  0  0  0  0  0  0  0  0
  -19.4954  -26.8684   22.2218 C   0  0  0  0  0  0  0  0  0  0  0  0
  -24.7925  -26.6001   25.2836 C   0  0  0  0  0  0  0  0  0  0  0  0
  -28.4737  -20.7769   21.3744 C   0  0  0  0  0  0  0  0  0  0  0  0
  -30.8556  -20.4457   21.1416 C   0  0  0  0  0  0  0  0  0  0  0  0
  -28.2508  -19.4627   20.9636 C   0  0  0  0  0  0  0  0  0  0  0  0
  -30.6327  -19.1314   20.7309 C   0  0  0  0  0  0  0  0  0  0  0  0
  -23.7861   -8.4986   22.3578 C   0  0  0  0  0  0  0  0  0  0  0  0
  -24.2792   -9.7019   24.3940 C   0  0  0  0  0  0  0  0  0  0  0  0
  -25.9544  -25.8557   25.0844 C   0  0  0  0  0  0  0  0  0  0  0  0
  -21.0480   -7.5615   24.1064 C   0  0  0  0  0  0  0  0  0  0  0  0
  -19.8618   -6.9301   23.7325 C   0  0  0  0  0  0  0  0  0  0  0  0
  -26.9383  -27.7175   23.9077 C   0  0  0  0  0  0  0  0  0  0  0  0
  -21.0725   -4.8711   23.3689 C   0  0  0  0  0  0  0  0  0  0  0  0
  -24.6520  -10.7515   22.2501 C   0  0  0  0  0  0  0  0  0  0  0  0
  -24.2843  -12.9632   21.0332 C   0  0  0  0  0  0  0  0  0  0  0  0
  -18.2394  -28.7715   21.3923 C   0  0  0  0  0  0  0  0  0  0  0  0
  -24.6905  -27.9071   24.7860 C   0  0  0  0  0  0  0  0  0  0  0  0
  -19.4769  -28.1472   21.6395 C   0  0  0  0  0  0  0  0  0  0  0  0
  -25.7750  -28.4773   24.1041 C   0  0  0  0  0  0  0  0  0  0  0  0
  -29.7761  -21.2685   21.4633 C   0  0  0  0  0  0  0  0  0  0  0  0
  -29.3303  -18.6399   20.6419 C   0  0  0  0  0  0  0  0  0  0  0  0
  -23.8261   -8.5498   23.7512 C   0  0  0  0  0  0  0  0  0  0  0  0
  -27.0264  -26.4133   24.3938 C   0  0  0  0  0  0  0  0  0  0  0  0
  -22.2464   -6.8478   24.1116 C   0  0  0  0  0  0  0  0  0  0  0  0
  -19.8741   -5.5849   23.3637 C   0  0  0  0  0  0  0  0  0  0  0  0
  -22.2587   -5.5026   23.7429 C   0  0  0  0  0  0  0  0  0  0  0  0
  -25.0792  -11.8888   21.4754 C   0  0  0  0  0  0  0  0  0  0  0  0
  -25.1540  -13.7732   20.3448 C   0  0  0  0  0  0  0  0  0  0  0  0
  -30.9674  -24.5579   22.4571 C   0  0  0  0  0  0  0  0  0  0  0  0
  -29.6537  -24.7540   22.5894 C   0  0  0  0  0  0  0  0  0  0  0  0
  -28.9861  -23.4845   22.2169 C   0  0  0  0  0  0  0  0  0  0  0  0
  -22.8848  -13.2072   21.2274 C   0  0  0  0  0  0  0  0  0  0  0  0
  -22.8051  -29.3663   22.6837 C   0  0  0  0  0  0  0  0  0  0  0  0
  -24.3797  -32.0151   23.6970 C   0  0  0  0  0  0  0  0  0  0  0  0
  -27.1765  -33.3559   25.1207 C   0  0  0  0  0  0  0  0  0  0  0  0
  -30.0633  -16.3570   19.8692 C   0  0  0  0  0  0  0  0  0  0  0  0
  -18.1512  -30.1224   20.7273 C   0  0  0  0  0  0  0  0  0  0  0  0
  -23.4404  -28.7064   25.0325 C   0  0  0  0  0  0  0  0  0  0  0  0
  -25.7235  -29.8837   23.5676 C   0  0  0  0  0  0  0  0  0  0  0  0
  -31.3056  -23.1863   21.9984 C   0  0  0  0  0  0  0  0  0  0  0  0
  -19.4618  -30.9044   20.7606 C   0  0  0  0  0  0  0  0  0  0  0  0
  -29.9122  -12.9568   18.8235 C   0  0  0  0  0  0  0  0  0  0  0  0
  -20.6280  -30.0093   20.3537 C   0  0  0  0  0  0  0  0  0  0  0  0
  -28.5760  -12.4642   19.3838 C   0  0  0  0  0  0  0  0  0  0  0  0
  -30.6013  -13.9328   19.7756 C   0  0  0  0  0  0  0  0  0  0  0  0
  -28.4391  -14.5756   20.7660 C   0  0  0  0  0  0  0  0  0  0  0  0
  -20.7881  -28.8352   21.3270 C   0  0  1  0  0  0  0  0  0  0  0  0
  -23.2533  -29.8457   24.0353 C   0  0  1  0  0  0  0  0  0  0  0  0
  -27.6770  -13.6403   19.8130 C   0  0  2  0  0  0  0  0  0  0  0  0
  -28.1886  -35.5542   25.7841 C   0  0  0  0  0  0  0  0  0  0  0  0
  -25.0244  -32.5980   20.7722 C   0  0  0  0  0  0  0  0  0  0  0  0
  -26.7805  -34.2033   21.5516 C   0  0  0  0  0  0  0  0  0  0  0  0
  -24.3850  -34.6055   22.1196 C   0  0  0  0  0  0  0  0  0  0  0  0
  -27.2980  -32.5716   27.9719 C   0  0  0  0  0  0  0  0  0  0  0  0
  -28.9151  -25.9690   23.0185 C   0  0  0  0  0  0  0  0  0  1  0  0
  -25.6365  -32.7380   23.2765 C   0  0  1  0  0  0  0  0  0  0  0  0
  -27.3513  -34.3686   26.2380 C   0  0  2  0  0  0  0  0  0  0  0  0
  -25.4571  -33.5090   21.9383 C   0  0  0  0  0  0  0  0  0  0  0  0
  -26.3558  -12.0029   21.0993 N   0  0  0  0  0  0  0  0  0  0  0  0
  -26.3696  -13.1586   20.4135 N   0  0  0  0  0  0  0  0  0  0  0  0
  -29.9983  -22.5778   21.8721 N   0  0  0  0  0  0  0  0  0  0  0  0
  -24.4772  -30.6226   23.8286 N   0  0  0  0  0  0  0  0  0  0  0  0
  -29.6911  -15.0223   20.1353 N   0  0  0  0  0  0  0  0  0  0  0  0
  -24.9899  -14.9442   19.6934 N   0  0  0  0  0  0  0  0  0  0  0  0
  -22.1390  -12.2731   21.9592 N   0  0  0  0  0  0  0  0  0  0  0  0
  -29.1042  -17.3048   20.2247 N   0  0  0  0  0  0  0  0  0  0  0  0
  -21.4332  -29.2737   22.5460 N   0  0  0  0  0  0  0  0  0  0  0  0
  -26.0198  -33.5801   24.4045 N   0  0  0  0  0  0  0  0  0  0  0  0
  -28.0251  -33.7379   27.4081 N   0  3  0  0  0  0  0  0  0  0  0  0
  -27.7776  -23.3128   22.2256 O   0  0  0  0  0  0  0  0  0  0  0  0
  -22.3093  -14.2152   20.7518 O   0  0  0  0  0  0  0  0  0  0  0  0
  -23.6418  -29.1015   21.8285 O   0  0  0  0  0  0  0  0  0  0  0  0
  -23.3513  -32.6628   23.9080 O   0  0  0  0  0  0  0  0  0  0  0  0
  -27.9870  -32.4580   24.9027 O   0  0  0  0  0  0  0  0  0  0  0  0
  -31.1411  -16.6365   19.3381 O   0  0  0  0  0  0  0  0  0  0  0  0
  -23.4231   -7.4759   24.4839 O   0  0  0  0  0  0  0  0  0  0  0  0
  -28.1614  -25.6887   24.1974 O   0  0  0  0  0  0  0  0  0  1  0  0
  -18.7347   -4.9782   23.0061 F   0  0  0  0  0  0  0  0  0  0  0  0
  -23.4068   -4.8115   23.7470 F   0  0  0  0  0  0  0  0  0  0  0  0
  1  2  1  0  0  0  0
  1  5  2  0  0  0  0
  2  6  2  0  0  0  0
  3 12  2  0  0  0  0
  3 19  1  0  0  0  0
  4 13  1  0  0  0  0
  4 19  2  0  0  0  0
  5 21  1  0  0  0  0
  6 23  1  0  0  0  0
  7 14  2  0  0  0  0
  7 22  1  0  0  0  0
  8 10  2  0  0  0  0
  8 25  1  0  0  0  0
  9 11  1  0  0  0  0
  9 25  2  0  0  0  0
 10 26  1  0  0  0  0
 11 26  2  0  0  0  0
 12 27  1  0  0  0  0
 13 27  2  0  0  0  0
 14 28  1  0  0  0  0
 15 16  2  0  0  0  0
 15 29  1  0  0  0  0
 16 30  1  0  0  0  0
 17 24  1  0  0  0  0
 17 28  2  0  0  0  0
 18 30  2  0  0  0  0
 18 31  1  0  0  0  0
 19 32  1  0  0  0  0
 20 32  1  0  0  0  0
 20 33  2  0  0  0  0
 20 37  1  0  0  0  0
 21 23  2  0  0  0  0
 21 42  1  0  0  0  0
 22 24  2  0  0  0  0
 22 43  1  0  0  0  0
 23 52  1  0  0  0  0
 24 44  1  0  0  0  0
 25 66  1  0  0  0  0
 26 71  1  0  0  0  0
 27 81  1  0  0  0  0
 28 82  1  0  0  0  0
 29 31  2  0  0  0  0
 29 81  1  0  0  0  0
 30 83  1  0  0  0  0
 31 84  1  0  0  0  0
 32 64  2  0  0  0  0
 33 65  1  0  0  0  0
 33 69  1  0  0  0  0
 34 35  2  0  0  0  0
 34 45  1  0  0  0  0
 35 36  1  0  0  0  0
 35 60  1  0  0  0  0
 36 66  1  0  0  0  0
 36 75  2  0  0  0  0
 37 70  1  0  0  0  0
 37 76  2  0  0  0  0
 38 53  1  0  0  0  0
 38 72  1  0  0  0  0
 38 77  2  0  0  0  0
 39 61  1  0  0  0  0
 39 67  1  0  0  0  0
 39 78  2  0  0  0  0
 40 62  1  0  0  0  0
 40 73  1  0  0  0  0
 40 79  2  0  0  0  0
 41 68  1  0  0  0  0
 41 71  1  0  0  0  0
 41 80  2  0  0  0  0
 42 46  1  0  0  0  0
 43 53  1  0  0  0  0
 44 67  1  0  0  0  0
 45 66  1  0  0  0  0
 46 48  1  0  0  0  0
 47 49  1  0  0  0  0
 47 50  1  0  0  0  0
 48 52  1  0  0  0  0
 49 54  1  0  0  0  0
 50 68  1  0  0  0  0
 51 54  1  0  0  0  0
 51 68  1  0  0  0  0
 52 72  1  0  0  0  0
 53 67  1  0  0  0  0
 54 65  1  0  0  0  0
 55 62  1  0  0  0  0
 56 63  1  0  0  0  0
 57 63  1  0  0  0  0
 58 63  1  0  0  0  0
 59 74  1  0  0  0  0
 60 82  1  0  0  0  0
 61 63  1  0  0  0  0
 61 73  1  0  0  0  0
 62 74  1  0  0  0  0
 64 65  1  0  0  0  0
M  CHG  1  74   1
M  ISO  4  41 100  60 101  71 100  82 101
M  END
> <Batch ID>
0077

> <Smiles>
CNC(C)C(=O)NC(C(=O)N1Cc2cc([101O:1][101CH2:1]C3=CCN(c4ccc([100NH:0][100C:0](=O)N5CCCC(n6nc(-c7ccc(Oc8ccc(F)cc8F)cc7)c(C(N)=O)c6N)C5)cc4)C3=O)ccc2CC1C(=O)NC1CCCc2ccccc21)C(C)(C)C

> <Shape>
0.299

> <Color>
0.155

> <Negative vol penalty>
0.000

$$$$

  -OEChem-04042323533D

 86 94  0     1  0  0  0  0  0999 V2000
  -28.8392  -36.1360   25.2183 C   0  0  0  0  0  0  0  0  0  0  0  0
  -29.0823  -34.8516   24.7422 C   0  0  0  0  0  0  0  0  0  0  0  0
  -23.0416   -9.7576   20.0718 C   0  0  0  0  0  0  0  0  0  0  0  0
  -23.6577  -10.0441   22.3903 C   0  0  0  0  0  0  0  0  0  0  0  0
  -31.2859  -18.9941   20.1233 C   0  0  0  0  0  0  0  0  0  0  0  0
  -27.5530  -36.4992   25.6153 C   0  0  0  0  0  0  0  0  0  0  0  0
  -28.0394  -33.9292   24.6639 C   0  0  0  0  0  0  0  0  0  0  0  0
  -27.2788  -29.5839   20.4159 C   0  0  0  0  0  0  0  0  0  0  0  0
  -31.1078  -17.6191   20.2756 C   0  0  0  0  0  0  0  0  0  0  0  0
  -22.2768   -8.6422   20.4129 C   0  0  0  0  0  0  0  0  0  0  0  0
  -22.8928   -8.9287   22.7314 C   0  0  0  0  0  0  0  0  0  0  0  0
  -27.5673  -28.2199   20.4073 C   0  0  0  0  0  0  0  0  0  0  0  0
  -23.1979   -5.5640   22.6002 C   0  0  0  0  0  0  0  0  0  0  0  0
  -23.7615   -4.6344   23.4741 C   0  0  0  0  0  0  0  0  0  0  0  0
  -29.5500  -19.3996   21.7540 C   0  0  0  0  0  0  0  0  0  0  0  0
  -25.2905  -27.7406   21.0441 C   0  0  0  0  0  0  0  0  0  0  0  0
  -21.9585   -5.0112   25.0376 C   0  0  0  0  0  0  0  0  0  0  0  0
  -23.7322  -10.4586   21.0605 C   0  0  0  0  0  0  0  0  0  0  0  0
  -30.5070  -19.8844   20.8626 C   0  0  0  0  0  0  0  0  0  0  0  0
  -24.0959  -12.9510   20.6568 C   0  0  0  0  0  0  0  0  0  0  0  0
  -26.4919  -35.5838   25.5328 C   0  0  0  0  0  0  0  0  0  0  0  0
  -25.9948  -30.0378   20.7499 C   0  0  0  0  0  0  0  0  0  0  0  0
  -26.7381  -34.2801   25.0615 C   0  0  0  0  0  0  0  0  0  0  0  0
  -24.9876  -29.1107   21.0538 C   0  0  0  0  0  0  0  0  0  0  0  0
  -30.1508  -17.1343   21.1670 C   0  0  0  0  0  0  0  0  0  0  0  0
  -22.2024   -8.2277   21.7427 C   0  0  0  0  0  0  0  0  0  0  0  0
  -26.5738  -27.2981   20.7242 C   0  0  0  0  0  0  0  0  0  0  0  0
  -22.0146   -6.2173   22.9450 C   0  0  0  0  0  0  0  0  0  0  0  0
  -23.1418   -4.3580   24.6928 C   0  0  0  0  0  0  0  0  0  0  0  0
  -29.3719  -18.0245   21.9063 C   0  0  0  0  0  0  0  0  0  0  0  0
  -21.3949   -5.9409   24.1636 C   0  0  0  0  0  0  0  0  0  0  0  0
  -24.5229  -11.6106   20.7088 C   0  0  0  0  0  0  0  0  0  0  0  0
  -25.2130  -13.6526   20.2741 C   0  0  0  0  0  0  0  0  0  0  0  0
  -30.6950  -21.3402   20.7021 C   0  0  0  0  0  0  0  0  0  0  0  0
  -22.8050  -13.5119   20.9301 C   0  0  0  0  0  0  0  0  0  0  0  0
  -24.7905  -31.8638   23.0562 C   0  0  0  0  0  0  0  0  0  0  0  0
  -28.3369  -24.0746   20.4263 C   0  0  0  0  0  0  0  0  0  0  0  0
  -22.0546  -31.5484   21.3422 C   0  0  0  0  0  0  0  0  0  0  0  0
  -20.2378  -29.7358   19.0926 C   0  0  0  0  0  0  0  0  0  0  0  0
  -30.6640  -14.7203   20.6612 C   0  0  0  0  0  0  0  0  0  0  0  0
  -25.1282  -36.0076   26.0181 C   0  0  0  0  0  0  0  0  0  0  0  0
  -25.6927  -31.5111   20.7286 C   0  0  0  0  0  0  0  0  0  0  0  0
  -23.5876  -29.5455   21.3995 C   0  0  0  0  0  0  0  0  0  0  0  0
  -24.0027  -35.0878   25.5516 C   0  0  0  0  0  0  0  0  0  0  0  0
  -29.6843  -12.0351   18.5382 C   0  0  0  0  0  0  0  0  0  0  0  0
  -24.3865  -33.6263   25.7604 C   0  0  0  0  0  0  0  0  0  0  0  0
  -28.2190  -11.7956   18.9094 C   0  0  0  0  0  0  0  0  0  0  0  0
  -30.5244  -12.4096   19.7579 C   0  0  0  0  0  0  0  0  0  0  0  0
  -28.5398  -13.2933   20.9196 C   0  0  0  0  0  0  0  0  0  0  0  0
  -25.6279  -33.2591   24.9384 C   0  0  1  0  0  0  0  0  0  0  0  0
  -24.4870  -31.8863   21.5848 C   0  0  1  0  0  0  0  0  0  0  0  0
  -27.6409  -12.9768   19.7131 C   0  0  2  0  0  0  0  0  0  0  0  0
  -30.1212  -23.8208   18.6771 C   0  0  0  0  0  0  0  0  0  0  0  0
  -18.0218  -29.7092   17.9153 C   0  0  0  0  0  0  0  0  0  0  0  0
  -20.7068  -30.5890   23.9059 C   0  0  0  0  0  0  0  0  0  0  0  0
  -18.8341  -29.6959   22.5046 C   0  0  0  0  0  0  0  0  0  0  0  0
  -19.3227  -32.1421   22.5180 C   0  0  0  0  0  0  0  0  0  0  0  0
  -21.5192  -29.9086   16.4304 C   0  0  0  0  0  0  0  0  0  0  0  0
  -28.1844  -25.5834   20.3757 C   0  0  0  0  0  0  0  0  0  1  0  0
  -29.7135  -23.5265   20.1070 C   0  0  2  0  0  0  0  0  0  0  0  0
  -20.9065  -30.5683   21.3319 C   0  0  1  0  0  0  0  0  0  0  0  0
  -19.4758  -30.1495   17.8465 C   0  0  2  0  0  0  0  0  0  0  0  0
  -19.9693  -30.7404   22.5605 C   0  0  0  0  0  0  0  0  0  0  0  0
  -25.8107  -11.4667   20.3849 N   0  0  0  0  0  0  0  0  0  0  0  0
  -26.2025  -12.7258   20.1256 N   0  0  0  0  0  0  0  0  0  0  0  0
  -23.3434  -30.9970   21.3711 N   0  0  0  0  0  0  0  0  0  0  0  0
  -29.9182  -13.5384   20.4673 N   0  0  0  0  0  0  0  0  0  0  0  0
  -25.4355  -14.9657   20.0535 N   0  0  0  0  0  0  0  0  0  0  0  0
  -21.7687  -12.6488   21.3113 N   0  0  0  0  0  0  0  0  0  0  0  0
  -29.9726  -15.7369   21.3194 N   0  0  0  0  0  0  0  0  0  0  0  0
  -29.6558  -22.0790   20.2855 N   0  0  0  0  0  0  0  0  0  0  0  0
  -25.2738  -33.0608   23.5493 N   0  0  0  0  0  0  0  0  0  0  0  0
  -20.2403  -30.7334   20.0445 N   0  0  0  0  0  0  0  0  0  0  0  0
  -31.8943  -21.8530   20.9776 N   0  3  0  0  0  0  0  0  0  0  0  0
  -20.0945  -29.5408   16.6351 N   0  3  0  0  0  0  0  0  0  0  0  0
  -22.5730  -14.7400   20.8229 O   0  0  0  0  0  0  0  0  0  0  0  0
  -24.5988  -30.8370   23.6971 O   0  0  0  0  0  0  0  0  0  0  0  0
  -27.3894  -23.3421   20.7120 O   0  0  0  0  0  0  0  0  0  0  0  0
  -21.8169  -32.7586   21.3180 O   0  0  0  0  0  0  0  0  0  0  0  0
  -20.7738  -28.6362   19.2113 O   0  0  0  0  0  0  0  0  0  0  0  0
  -31.8209  -14.8328   20.2479 O   0  0  0  0  0  0  0  0  0  0  0  0
  -21.4559   -7.1394   22.0759 O   0  0  0  0  0  0  0  0  0  0  0  0
  -26.8528  -25.9662   20.7172 O   0  0  0  0  0  0  0  0  0  1  0  0
  -23.6823   -3.4641   25.5313 F   0  0  0  0  0  0  0  0  0  0  0  0
  -28.4482  -17.5697   22.7650 F   0  0  0  0  0  0  0  0  0  0  0  0
  -20.2574   -6.5644   24.4998 F   0  0  0  0  0  0  0  0  0  0  0  0
  1  2  1  0  0  0  0
  1  6  2  0  0  0  0
  2  7  2  0  0  0  0
  3 10  2  0  0  0  0
  3 18  1  0  0  0  0
  4 11  1  0  0  0  0
  4 18  2  0  0  0  0
  5  9  2  0  0  0  0
  5 19  1  0  0  0  0
  6 21  1  0  0  0  0
  7 23  1  0  0  0  0
  8 12  2  0  0  0  0
  8 22  1  0  0  0  0
  9 25  1  0  0  0  0
 10 26  1  0  0  0  0
 11 26  2  0  0  0  0
 12 27  1  0  0  0  0
 13 14  2  0  0  0  0
 13 28  1  0  0  0  0
 14 29  1  0  0  0  0
 15 19  2  0  0  0  0
 15 30  1  0  0  0  0
 16 24  1  0  0  0  0
 16 27  2  0  0  0  0
 17 29  2  0  0  0  0
 17 31  1  0  0  0  0
 18 32  1  0  0  0  0
 19 34  1  0  0  0  0
 20 32  1  0  0  0  0
 20 33  2  0  0  0  0
 20 35  1  0  0  0  0
 21 23  2  0  0  0  0
 21 41  1  0  0  0  0
 22 24  2  0  0  0  0
 22 42  1  0  0  0  0
 23 50  1  0  0  0  0
 24 43  1  0  0  0  0
 25 30  2  0  0  0  0
 25 70  1  0  0  0  0
 26 82  1  0  0  0  0
 27 83  1  0  0  0  0
 28 31  2  0  0  0  0
 28 82  1  0  0  0  0
 29 84  1  0  0  0  0
 30 85  1  0  0  0  0
 31 86  1  0  0  0  0
 32 64  2  0  0  0  0
 33 65  1  0  0  0  0
 33 68  1  0  0  0  0
 34 71  1  0  0  0  0
 34 74  2  0  0  0  0
 35 69  1  0  0  0  0
 35 76  2  0  0  0  0
 36 51  1  0  0  0  0
 36 72  1  0  0  0  0
 36 77  2  0  0  0  0
 37 59  1  0  0  0  0
 37 60  1  0  0  0  0
 37 78  2  0  0  0  0
 38 61  1  0  0  0  0
 38 66  1  0  0  0  0
 38 79  2  0  0  0  0
 39 62  1  0  0  0  0
 39 73  1  0  0  0  0
 39 80  2  0  0  0  0
 40 67  1  0  0  0  0
 40 70  1  0  0  0  0
 40 81  2  0  0  0  0
 41 44  1  0  0  0  0
 42 51  1  0  0  0  0
 43 66  1  0  0  0  0
 44 46  1  0  0  0  0
 45 47  1  0  0  0  0
 45 48  1  0  0  0  0
 46 50  1  0  0  0  0
 47 52  1  0  0  0  0
 48 67  1  0  0  0  0
 49 52  1  0  0  0  0
 49 67  1  0  0  0  0
 50 72  1  0  0  0  0
 51 66  1  0  0  0  0
 52 65  1  0  0  0  0
 53 60  1  0  0  0  0
 54 62  1  0  0  0  0
 55 63  1  0  0  0  0
 56 63  1  0  0  0  0
 57 63  1  0  0  0  0
 58 75  1  0  0  0  0
 59 83  1  0  0  0  0
 60 71  1  0  0  0  0
 61 63  1  0  0  0  0
 61 73  1  0  0  0  0
 62 75  1  0  0  0  0
 64 65  1  0  0  0  0
M  CHG  2  74   1  75   1
M  ISO  4  40 100  59 101  70 100  83 101
M  END
> <Batch ID>
0077

> <Smiles>
CNC(C)C(=O)NC(C(=O)N1Cc2cc([101O:1][101CH2:1]C(=O)C(C)NC(=N)c3ccc([100NH:0][100C:0](=O)N4CCCC(n5nc(-c6ccc(Oc7ccc(F)cc7F)cc6)c(C(N)=O)c5N)C4)c(F)c3)ccc2CC1C(=O)NC1CCCc2ccccc21)C(C)(C)C

> <Shape>
0.377

> <Color>
0.223

> <Negative vol penalty>
0.000

$$$$

  -OEChem-04042323533D

 87 97  0     1  0  0  0  0  0999 V2000
  -25.9092  -22.1130   16.1960 C   0  0  0  0  0  0  0  0  0  0  0  0
  -26.6979  -21.0992   16.7305 C   0  0  0  0  0  0  0  0  0  0  0  0
  -22.3858  -27.9205   19.6868 C   0  0  0  0  0  0  0  0  0  0  0  0
  -22.8814  -28.9448   21.8180 C   0  0  0  0  0  0  0  0  0  0  0  0
  -31.0447  -18.7022   20.9393 C   0  0  0  0  0  0  0  0  0  0  0  0
  -30.6547  -18.0093   18.6578 C   0  0  0  0  0  0  0  0  0  0  0  0
  -24.6672  -22.3996   16.7608 C   0  0  0  0  0  0  0  0  0  0  0  0
  -26.2454  -20.3722   17.8310 C   0  0  0  0  0  0  0  0  0  0  0  0
  -26.9878  -15.3903   17.3066 C   0  0  0  0  0  0  0  0  0  0  0  0
  -31.6781  -17.4872   21.2000 C   0  0  0  0  0  0  0  0  0  0  0  0
  -31.2882  -16.7943   18.9185 C   0  0  0  0  0  0  0  0  0  0  0  0
  -21.0800  -28.4056   19.7572 C   0  0  0  0  0  0  0  0  0  0  0  0
  -21.5755  -29.4300   21.8884 C   0  0  0  0  0  0  0  0  0  0  0  0
  -28.2781  -14.9118   17.5301 C   0  0  0  0  0  0  0  0  0  0  0  0
  -18.2701  -30.6346   22.8009 C   0  0  0  0  0  0  0  0  0  0  0  0
  -17.5936  -30.5019   24.0135 C   0  0  0  0  0  0  0  0  0  0  0  0
  -27.6268  -14.2073   19.7434 C   0  0  0  0  0  0  0  0  0  0  0  0
  -17.8345  -28.1013   23.8851 C   0  0  0  0  0  0  0  0  0  0  0  0
  -23.2866  -28.1900   20.7172 C   0  0  0  0  0  0  0  0  0  0  0  0
  -30.5329  -18.9633   19.6682 C   0  0  0  0  0  0  0  0  0  0  0  0
  -25.7519  -28.3309   20.0772 C   0  0  0  0  0  0  0  0  0  0  0  0
  -24.1950  -21.6692   17.8628 C   0  0  0  0  0  0  0  0  0  0  0  0
  -26.0087  -15.2905   18.3054 C   0  0  0  0  0  0  0  0  0  0  0  0
  -24.9964  -20.6502   18.4119 C   0  0  0  0  0  0  0  0  0  0  0  0
  -26.3242  -14.6829   19.5291 C   0  0  0  0  0  0  0  0  0  0  0  0
  -31.7999  -16.5332   20.1897 C   0  0  0  0  0  0  0  0  0  0  0  0
  -20.6748  -29.1604   20.8580 C   0  0  0  0  0  0  0  0  0  0  0  0
  -28.5986  -14.3228   18.7497 C   0  0  0  0  0  0  0  0  0  0  0  0
  -18.7287  -29.5007   22.1304 C   0  0  0  0  0  0  0  0  0  0  0  0
  -17.3759  -29.2353   24.5557 C   0  0  0  0  0  0  0  0  0  0  0  0
  -18.5109  -28.2341   22.6725 C   0  0  0  0  0  0  0  0  0  0  0  0
  -24.6355  -27.6886   20.6453 C   0  0  0  0  0  0  0  0  0  0  0  0
  -26.7872  -27.4474   20.2621 C   0  0  0  0  0  0  0  0  0  0  0  0
  -32.6112  -12.9025   20.3060 C   0  0  0  0  0  0  0  0  0  0  0  0
  -34.5679  -13.6526   19.2085 C   0  0  0  0  0  0  0  0  0  0  0  0
  -34.0486  -13.1673   20.3621 C   0  0  0  0  0  0  0  0  0  0  0  0
  -31.8292  -14.0143   20.3281 C   0  0  0  0  0  0  0  0  0  0  0  0
  -29.8724  -20.2302   19.3964 C   0  0  0  0  0  0  0  0  0  0  0  0
  -29.3540  -21.0590   20.3277 C   0  0  0  0  0  0  0  0  0  0  0  0
  -25.8450  -29.6117   19.4395 C   0  0  0  0  0  0  0  0  0  0  0  0
  -28.7211  -22.3202   19.8924 C   0  0  0  0  0  0  0  0  0  0  0  0
  -24.2791  -17.3762   19.9674 C   0  0  0  0  0  0  0  0  0  0  0  0
  -22.8264  -14.6962   21.0763 C   0  0  0  0  0  0  0  0  0  0  0  0
  -23.0037  -11.3410   21.6746 C   0  0  0  0  0  0  0  0  0  0  0  0
  -22.8665  -22.0469   18.4686 C   0  0  0  0  0  0  0  0  0  0  0  0
  -24.6142  -15.7874   18.0388 C   0  0  0  0  0  0  0  0  0  0  0  0
  -25.3037  -14.5333   20.6266 C   0  0  0  0  0  0  0  0  0  0  0  0
  -34.7154  -15.1548   19.3662 C   0  0  0  0  0  0  0  0  0  0  0  0
  -34.3508  -14.1567   21.4751 C   0  0  0  0  0  0  0  0  0  0  0  0
  -22.2966  -20.9804   19.4003 C   0  0  0  0  0  0  0  0  0  0  0  0
  -27.0956  -23.2515   23.0423 C   0  0  0  0  0  0  0  0  0  0  0  0
  -23.3731  -20.4762   20.3562 C   0  0  0  0  0  0  0  0  0  0  0  0
  -26.3617  -24.5244   22.6289 C   0  0  0  0  0  0  0  0  0  0  0  0
  -27.1553  -22.2313   21.9065 C   0  0  0  0  0  0  0  0  0  0  0  0
  -26.9996  -24.0506   20.2312 C   0  0  0  0  0  0  0  0  0  0  0  0
  -24.5294  -19.8227   19.5898 C   0  0  1  0  0  0  0  0  0  0  0  0
  -23.8364  -16.0976   19.3141 C   0  0  1  0  0  0  0  0  0  0  0  0
  -26.9687  -25.1098   21.3441 C   0  0  1  0  0  0  0  0  0  0  0  0
  -33.9369  -15.3997   20.6845 C   0  0  2  0  0  0  0  0  0  0  0  0
  -21.6737   -9.4363   22.6235 C   0  0  0  0  0  0  0  0  0  0  0  0
  -23.4058  -15.7008   23.8986 C   0  0  0  0  0  0  0  0  0  0  0  0
  -22.9378  -13.3904   24.7420 C   0  0  0  0  0  0  0  0  0  0  0  0
  -21.1399  -14.6863   23.5970 C   0  0  0  0  0  0  0  0  0  0  0  0
  -23.0320   -9.8853   19.0980 C   0  0  0  0  0  0  0  0  0  0  0  0
  -30.3326  -13.8806   20.3161 C   0  0  0  0  0  0  0  0  0  1  0  0
  -23.0568  -13.7570   22.2355 C   0  0  1  0  0  0  0  0  0  0  0  0
  -22.0385  -10.2105   21.3665 C   0  0  2  0  0  0  0  0  0  0  0  0
  -22.6551  -14.3881   23.5985 C   0  0  0  0  0  0  0  0  0  0  0  0
  -24.9333  -26.4896   21.1529 N   0  0  0  0  0  0  0  0  0  0  0  0
  -26.2488  -26.3714   20.9043 N   0  0  0  0  0  0  0  0  0  0  0  0
  -32.4421  -15.3015   20.4538 N   0  0  0  0  0  0  0  0  0  0  0  0
  -27.6847  -22.8304   20.6721 N   0  0  0  0  0  0  0  0  0  0  0  0
  -23.9559  -15.0404   20.3202 N   0  0  0  0  0  0  0  0  0  0  0  0
  -28.0964  -27.4937   19.9362 N   0  0  0  0  0  0  0  0  0  0  0  0
  -24.6850  -30.3912   19.3337 N   0  0  0  0  0  0  0  0  0  0  0  0
  -24.1616  -18.4909   19.1593 N   0  0  0  0  0  0  0  0  0  0  0  0
  -22.3418  -12.5270   21.9127 N   0  0  0  0  0  0  0  0  0  0  0  0
  -22.6461   -9.2624   20.3903 N   0  3  0  0  0  0  0  0  0  0  0  0
  -26.9213  -30.0448   18.9626 O   0  0  0  0  0  0  0  0  0  0  0  0
  -29.1461  -22.8431   18.8606 O   0  0  0  0  0  0  0  0  0  0  0  0
  -24.6949  -17.3534   21.1199 O   0  0  0  0  0  0  0  0  0  0  0  0
  -21.6852  -15.1036   20.8458 O   0  0  0  0  0  0  0  0  0  0  0  0
  -24.2226  -11.1865   21.7051 O   0  0  0  0  0  0  0  0  0  0  0  0
  -19.4007  -29.6342   20.9270 O   0  0  0  0  0  0  0  0  0  0  0  0
  -29.8574  -13.8556   18.9708 O   0  0  0  0  0  0  0  0  0  1  0  0
  -16.7277  -29.1081   25.7209 F   0  0  0  0  0  0  0  0  0  0  0  0
  -18.9502  -27.1411   22.0335 F   0  0  0  0  0  0  0  0  0  0  0  0
  1  2  1  0  0  0  0
  1  7  2  0  0  0  0
  2  8  2  0  0  0  0
  3 12  2  0  0  0  0
  3 19  1  0  0  0  0
  4 13  1  0  0  0  0
  4 19  2  0  0  0  0
  5 10  2  0  0  0  0
  5 20  1  0  0  0  0
  6 11  1  0  0  0  0
  6 20  2  0  0  0  0
  7 22  1  0  0  0  0
  8 24  1  0  0  0  0
  9 14  2  0  0  0  0
  9 23  1  0  0  0  0
 10 26  1  0  0  0  0
 11 26  2  0  0  0  0
 12 27  1  0  0  0  0
 13 27  2  0  0  0  0
 14 28  1  0  0  0  0
 15 16  2  0  0  0  0
 15 29  1  0  0  0  0
 16 30  1  0  0  0  0
 17 25  1  0  0  0  0
 17 28  2  0  0  0  0
 18 30  2  0  0  0  0
 18 31  1  0  0  0  0
 19 32  1  0  0  0  0
 20 38  1  0  0  0  0
 21 32  1  0  0  0  0
 21 33  2  0  0  0  0
 21 40  1  0  0  0  0
 22 24  2  0  0  0  0
 22 45  1  0  0  0  0
 23 25  2  0  0  0  0
 23 46  1  0  0  0  0
 24 56  1  0  0  0  0
 25 47  1  0  0  0  0
 26 71  1  0  0  0  0
 27 84  1  0  0  0  0
 28 85  1  0  0  0  0
 29 31  2  0  0  0  0
 29 84  1  0  0  0  0
 30 86  1  0  0  0  0
 31 87  1  0  0  0  0
 32 69  2  0  0  0  0
 33 70  1  0  0  0  0
 33 74  1  0  0  0  0
 34 36  1  0  0  0  0
 34 37  2  0  0  0  0
 35 36  2  0  0  0  0
 35 48  1  0  0  0  0
 36 49  1  0  0  0  0
 37 65  1  0  0  0  0
 37 71  1  0  0  0  0
 38 39  2  0  0  0  0
 39 41  1  0  0  0  0
 40 75  1  0  0  0  0
 40 79  2  0  0  0  0
 41 72  1  0  0  0  0
 41 80  2  0  0  0  0
 42 57  1  0  0  0  0
 42 76  1  0  0  0  0
 42 81  2  0  0  0  0
 43 66  1  0  0  0  0
 43 73  1  0  0  0  0
 43 82  2  0  0  0  0
 44 67  1  0  0  0  0
 44 77  1  0  0  0  0
 44 83  2  0  0  0  0
 45 50  1  0  0  0  0
 46 57  1  0  0  0  0
 47 73  1  0  0  0  0
 48 59  1  0  0  0  0
 49 59  1  0  0  0  0
 50 52  1  0  0  0  0
 51 53  1  0  0  0  0
 51 54  1  0  0  0  0
 52 56  1  0  0  0  0
 53 58  1  0  0  0  0
 54 72  1  0  0  0  0
 55 58  1  0  0  0  0
 55 72  1  0  0  0  0
 56 76  1  0  0  0  0
 57 73  1  0  0  0  0
 58 70  1  0  0  0  0
 59 71  1  0  0  0  0
 60 67  1  0  0  0  0
 61 68  1  0  0  0  0
 62 68  1  0  0  0  0
 63 68  1  0  0  0  0
 64 78  1  0  0  0  0
 65 85  1  0  0  0  0
 66 68  1  0  0  0  0
 66 77  1  0  0  0  0
 67 78  1  0  0  0  0
 69 70  1  0  0  0  0
M  CHG  1  78   1
M  ISO  4  39 100  41 100  65 101  85 101
M  END
> <Batch ID>
0077

> <Smiles>
CNC(C)C(=O)NC(C(=O)N1Cc2cc([101O:1][101CH2:1]C3=CC4=CCC(C4)N3c3ccc(C=[100CH:0][100C:0](=O)N4CCCC(n5nc(-c6ccc(Oc7ccc(F)cc7F)cc6)c(C(N)=O)c5N)C4)cc3)ccc2CC1C(=O)NC1CCCc2ccccc21)C(C)(C)C

> <Shape>
0.221

> <Color>
0.073

> <Negative vol penalty>
0.000

$$$$

  -OEChem-04042323533D

 87 96  0     1  0  0  0  0  0999 V2000
  -26.8129  -34.3532   25.0284 C   0  0  0  0  0  0  0  0  0  0  0  0
  -27.2066  -33.1212   24.5159 C   0  0  0  0  0  0  0  0  0  0  0  0
  -24.8007   -8.6506   20.8601 C   0  0  0  0  0  0  0  0  0  0  0  0
  -23.1135  -10.2288   20.1533 C   0  0  0  0  0  0  0  0  0  0  0  0
  -25.5017  -34.5385   25.4649 C   0  0  0  0  0  0  0  0  0  0  0  0
  -26.2896  -32.0734   24.4407 C   0  0  0  0  0  0  0  0  0  0  0  0
  -26.4872  -29.6334   20.0076 C   0  0  0  0  0  0  0  0  0  0  0  0
  -27.8450  -20.5753   16.8773 C   0  0  0  0  0  0  0  0  0  0  0  0
  -23.8026   -7.7502   21.2324 C   0  0  0  0  0  0  0  0  0  0  0  0
  -22.1153   -9.3283   20.5255 C   0  0  0  0  0  0  0  0  0  0  0  0
  -27.5292  -28.7250   19.8267 C   0  0  0  0  0  0  0  0  0  0  0  0
  -21.6760   -7.3212   23.8243 C   0  0  0  0  0  0  0  0  0  0  0  0
  -27.7497  -19.3148   16.2876 C   0  0  0  0  0  0  0  0  0  0  0  0
  -21.8097   -6.6792   25.0553 C   0  0  0  0  0  0  0  0  0  0  0  0
  -26.0264  -26.9087   20.3385 C   0  0  0  0  0  0  0  0  0  0  0  0
  -28.1300  -19.5411   19.0421 C   0  0  0  0  0  0  0  0  0  0  0  0
  -21.8267   -4.5378   23.9366 C   0  0  0  0  0  0  0  0  0  0  0  0
  -24.4562   -9.8899   20.3206 C   0  0  0  0  0  0  0  0  0  0  0  0
  -26.1116  -10.9259   18.6793 C   0  0  0  0  0  0  0  0  0  0  0  0
  -24.5656  -33.4953   25.3860 C   0  0  0  0  0  0  0  0  0  0  0  0
  -25.2075  -29.1865   20.3666 C   0  0  0  0  0  0  0  0  0  0  0  0
  -24.9651  -32.2445   24.8778 C   0  0  0  0  0  0  0  0  0  0  0  0
  -24.9693  -27.8133   20.5208 C   0  0  0  0  0  0  0  0  0  0  0  0
  -28.0352  -20.6885   18.2545 C   0  0  0  0  0  0  0  0  0  0  0  0
  -28.0347  -18.2806   18.4524 C   0  0  0  0  0  0  0  0  0  0  0  0
  -22.4599   -8.0890   21.0650 C   0  0  0  0  0  0  0  0  0  0  0  0
  -27.2996  -27.3626   19.9950 C   0  0  0  0  0  0  0  0  0  0  0  0
  -21.6176   -6.5716   22.6494 C   0  0  0  0  0  0  0  0  0  0  0  0
  -21.8850   -5.2875   25.1115 C   0  0  0  0  0  0  0  0  0  0  0  0
  -27.8445  -18.1675   17.0752 C   0  0  0  0  0  0  0  0  0  0  0  0
  -21.6929   -5.1799   22.7056 C   0  0  0  0  0  0  0  0  0  0  0  0
  -25.4868  -10.8207   19.9364 C   0  0  0  0  0  0  0  0  0  0  0  0
  -27.0101  -11.9542   18.8275 C   0  0  0  0  0  0  0  0  0  0  0  0
  -28.2029  -24.2203   19.1847 C   0  0  0  0  0  0  0  0  0  0  0  0
  -28.3730  -23.6127   20.4806 C   0  0  0  0  0  0  0  0  0  0  0  0
  -28.0484  -23.1638   18.1461 C   0  0  0  0  0  0  0  0  0  0  0  0
  -28.5413  -24.2132   21.6636 C   0  0  0  0  0  0  0  0  0  0  0  0
  -25.8988  -10.1626   17.4845 C   0  0  0  0  0  0  0  0  0  0  0  0
  -28.1727  -25.5163   18.8549 C   0  0  0  0  0  0  0  0  0  1  0  0
  -23.2918  -29.6384   22.8625 C   0  0  0  0  0  0  0  0  0  0  0  0
  -21.1849  -27.9605   21.0548 C   0  0  0  0  0  0  0  0  0  0  0  0
  -20.6737  -25.7083   18.5422 C   0  0  0  0  0  0  0  0  0  0  0  0
  -28.3206  -17.0551   20.6348 C   0  0  0  0  0  0  0  0  0  0  0  0
  -23.1723  -33.7288   25.9140 C   0  0  0  0  0  0  0  0  0  0  0  0
  -24.0877  -30.1771   20.5318 C   0  0  0  0  0  0  0  0  0  0  0  0
  -23.6087  -27.2805   20.8860 C   0  0  0  0  0  0  0  0  0  0  0  0
  -28.3286  -22.1281   20.2789 C   0  0  0  0  0  0  0  0  0  0  0  0
  -22.1626  -32.6809   25.4528 C   0  0  0  0  0  0  0  0  0  0  0  0
  -28.5747  -14.3886   22.9805 C   0  0  0  0  0  0  0  0  0  0  0  0
  -22.7371  -31.2774   25.6171 C   0  0  0  0  0  0  0  0  0  0  0  0
  -27.8454  -13.2313   22.2943 C   0  0  0  0  0  0  0  0  0  0  0  0
  -27.9030  -15.7308   22.6956 C   0  0  0  0  0  0  0  0  0  0  0  0
  -26.9614  -14.8720   20.5873 C   0  0  0  0  0  0  0  0  0  0  0  0
  -23.9928  -31.0911   24.7570 C   0  0  1  0  0  0  0  0  0  0  0  0
  -22.9484  -29.6517   21.3998 C   0  0  1  0  0  0  0  0  0  0  0  0
  -27.6388  -13.5071   20.7920 C   0  0  2  0  0  0  0  0  0  0  0  0
  -27.9872  -26.0105   17.4564 C   0  0  0  0  0  0  0  0  0  0  0  0
  -18.8435  -24.5054   17.3172 C   0  0  0  0  0  0  0  0  0  0  0  0
  -20.8261  -26.0866   23.4360 C   0  0  0  0  0  0  0  0  0  0  0  0
  -19.7732  -24.4285   21.8835 C   0  0  0  0  0  0  0  0  0  0  0  0
  -18.7108  -26.6586   22.2306 C   0  0  0  0  0  0  0  0  0  0  0  0
  -21.4414  -26.9304   15.9583 C   0  0  0  0  0  0  0  0  0  0  0  0
  -20.8467  -26.4988   20.8873 C   0  0  1  0  0  0  0  0  0  0  0  0
  -19.7433  -25.7311   17.3429 C   0  0  2  0  0  0  0  0  0  0  0  0
  -20.0654  -25.9280   22.1044 C   0  0  0  0  0  0  0  0  0  0  0  0
  -25.9493  -11.7109   20.8183 N   0  0  0  0  0  0  0  0  0  0  0  0
  -26.8744  -12.3852   20.1143 N   0  0  0  0  0  0  0  0  0  0  0  0
  -28.1301  -21.9458   18.8424 N   0  0  0  0  0  0  0  0  0  0  0  0
  -22.5478  -28.2893   21.0428 N   0  0  0  0  0  0  0  0  0  0  0  0
  -27.7442  -15.9251   21.2527 N   0  0  0  0  0  0  0  0  0  0  0  0
  -27.8952  -12.5225   17.9813 N   0  0  0  0  0  0  0  0  0  0  0  0
  -24.9374   -9.1430   17.5054 N   0  0  0  0  0  0  0  0  0  0  0  0
  -28.1317  -17.1166   19.2545 N   0  0  0  0  0  0  0  0  0  0  0  0
  -23.6299  -30.8774   23.3724 N   0  0  0  0  0  0  0  0  0  0  0  0
  -20.1385  -26.3866   19.6168 N   0  0  0  0  0  0  0  0  0  0  0  0
  -20.5299  -25.7633   16.0776 N   0  3  0  0  0  0  0  0  0  0  0  0
  -27.8867  -23.3511   16.9519 O   0  0  0  0  0  0  0  0  0  0  0  0
  -26.5537  -10.3674   16.4344 O   0  0  0  0  0  0  0  0  0  0  0  0
  -23.2515  -28.5824   23.4830 O   0  0  0  0  0  0  0  0  0  0  0  0
  -20.2731  -28.7811   21.1842 O   0  0  0  0  0  0  0  0  0  0  0  0
  -21.7644  -25.1420   18.5284 O   0  0  0  0  0  0  0  0  0  0  0  0
  -28.9597  -17.8914   21.2783 O   0  0  0  0  0  0  0  0  0  0  0  0
  -21.4856   -7.2106   21.4279 O   0  0  0  0  0  0  0  0  0  0  0  0
  -28.3150  -26.4738   19.8197 O   0  0  0  0  0  0  0  0  0  1  0  0
  -22.0150   -4.6711   26.2936 F   0  0  0  0  0  0  0  0  0  0  0  0
  -27.7512  -16.9614   16.4975 F   0  0  0  0  0  0  0  0  0  0  0  0
  -21.6386   -4.4545   21.5802 F   0  0  0  0  0  0  0  0  0  0  0  0
  1  2  1  0  0  0  0
  1  5  2  0  0  0  0
  2  6  2  0  0  0  0
  3  9  2  0  0  0  0
  3 18  1  0  0  0  0
  4 10  1  0  0  0  0
  4 18  2  0  0  0  0
  5 20  1  0  0  0  0
  6 22  1  0  0  0  0
  7 11  2  0  0  0  0
  7 21  1  0  0  0  0
  8 13  2  0  0  0  0
  8 24  1  0  0  0  0
  9 26  1  0  0  0  0
 10 26  2  0  0  0  0
 11 27  1  0  0  0  0
 12 14  2  0  0  0  0
 12 28  1  0  0  0  0
 13 30  1  0  0  0  0
 14 29  1  0  0  0  0
 15 23  1  0  0  0  0
 15 27  2  0  0  0  0
 16 24  2  0  0  0  0
 16 25  1  0  0  0  0
 17 29  2  0  0  0  0
 17 31  1  0  0  0  0
 18 32  1  0  0  0  0
 19 32  1  0  0  0  0
 19 33  2  0  0  0  0
 19 38  1  0  0  0  0
 20 22  2  0  0  0  0
 20 44  1  0  0  0  0
 21 23  2  0  0  0  0
 21 45  1  0  0  0  0
 22 54  1  0  0  0  0
 23 46  1  0  0  0  0
 24 68  1  0  0  0  0
 25 30  2  0  0  0  0
 25 73  1  0  0  0  0
 26 83  1  0  0  0  0
 27 84  1  0  0  0  0
 28 31  2  0  0  0  0
 28 83  1  0  0  0  0
 29 85  1  0  0  0  0
 30 86  1  0  0  0  0
 31 87  1  0  0  0  0
 32 66  2  0  0  0  0
 33 67  1  0  0  0  0
 33 71  1  0  0  0  0
 34 35  1  0  0  0  0
 34 36  1  0  0  0  0
 34 39  2  0  0  0  0
 35 37  2  0  0  0  0
 35 47  1  0  0  0  0
 36 68  1  0  0  0  0
 36 77  2  0  0  0  0
 38 72  1  0  0  0  0
 38 78  2  0  0  0  0
 39 57  1  0  0  0  0
 39 84  1  0  0  0  0
 40 55  1  0  0  0  0
 40 74  1  0  0  0  0
 40 79  2  0  0  0  0
 41 63  1  0  0  0  0
 41 69  1  0  0  0  0
 41 80  2  0  0  0  0
 42 64  1  0  0  0  0
 42 75  1  0  0  0  0
 42 81  2  0  0  0  0
 43 70  1  0  0  0  0
 43 73  1  0  0  0  0
 43 82  2  0  0  0  0
 44 48  1  0  0  0  0
 45 55  1  0  0  0  0
 46 69  1  0  0  0  0
 47 68  1  0  0  0  0
 48 50  1  0  0  0  0
 49 51  1  0  0  0  0
 49 52  1  0  0  0  0
 50 54  1  0  0  0  0
 51 56  1  0  0  0  0
 52 70  1  0  0  0  0
 53 56  1  0  0  0  0
 53 70  1  0  0  0  0
 54 74  1  0  0  0  0
 55 69  1  0  0  0  0
 56 67  1  0  0  0  0
 58 64  1  0  0  0  0
 59 65  1  0  0  0  0
 60 65  1  0  0  0  0
 61 65  1  0  0  0  0
 62 76  1  0  0  0  0
 63 65  1  0  0  0  0
 63 75  1  0  0  0  0
 64 76  1  0  0  0  0
 66 67  1  0  0  0  0
M  CHG  1  76   1
M  ISO  4  39 101  43 100  73 100  84 101
M  END
> <Batch ID>
0077

> <Smiles>
C=C1CN(c2ccc(F)c([100NH:0][100C:0](=O)N3CCCC(n4nc(-c5ccc(Oc6ccc(F)cc6F)cc5)c(C(N)=O)c4N)C3)c2)C(=O)C1=[101C:1](C)[101O:1]c1ccc2c(c1)CN(C(=O)C(NC(=O)C(C)NC)C(C)(C)C)C(C(=O)NC1CCCc3ccccc31)C2

> <Shape>
0.316

> <Color>
0.118

> <Negative vol penalty>
0.000

$$$$

  -OEChem-04042323533D

 85 93  0     1  0  0  0  0  0999 V2000
  -24.4310   -6.5486   23.7977 C   0  0  0  0  0  0  0  0  0  0  0  0
  -25.4107   -7.5343   23.8608 C   0  0  0  0  0  0  0  0  0  0  0  0
  -22.8774  -31.9496   21.7811 C   0  0  0  0  0  0  0  0  0  0  0  0
  -22.8832  -29.6370   22.4803 C   0  0  0  0  0  0  0  0  0  0  0  0
  -29.2023  -23.3207   20.4922 C   0  0  0  0  0  0  0  0  0  0  0  0
  -30.4898  -23.8231   18.5106 C   0  0  0  0  0  0  0  0  0  0  0  0
  -23.3694   -6.6786   22.9032 C   0  0  0  0  0  0  0  0  0  0  0  0
  -25.3300   -8.6501   23.0285 C   0  0  0  0  0  0  0  0  0  0  0  0
  -26.8984  -15.6386   22.8926 C   0  0  0  0  0  0  0  0  0  0  0  0
  -29.1038  -24.6832   20.7737 C   0  0  0  0  0  0  0  0  0  0  0  0
  -30.3913  -25.1857   18.7921 C   0  0  0  0  0  0  0  0  0  0  0  0
  -21.5068  -31.8715   21.5342 C   0  0  0  0  0  0  0  0  0  0  0  0
  -21.5126  -29.5589   22.2335 C   0  0  0  0  0  0  0  0  0  0  0  0
  -27.5700  -16.5767   22.1099 C   0  0  0  0  0  0  0  0  0  0  0  0
  -18.6496  -30.4829   23.7730 C   0  0  0  0  0  0  0  0  0  0  0  0
  -17.8541  -29.8592   24.7341 C   0  0  0  0  0  0  0  0  0  0  0  0
  -25.6486  -16.7334   20.6598 C   0  0  0  0  0  0  0  0  0  0  0  0
  -17.1514  -28.2294   23.0948 C   0  0  0  0  0  0  0  0  0  0  0  0
  -23.5657  -30.8322   22.2540 C   0  0  0  0  0  0  0  0  0  0  0  0
  -29.8953  -22.8906   19.3606 C   0  0  0  0  0  0  0  0  0  0  0  0
  -25.6092  -31.2780   23.7145 C   0  0  0  0  0  0  0  0  0  0  0  0
  -23.2705   -7.8014   22.0663 C   0  0  0  0  0  0  0  0  0  0  0  0
  -25.5987  -15.2321   22.5580 C   0  0  0  0  0  0  0  0  0  0  0  0
  -24.2669   -8.7947   22.1209 C   0  0  0  0  0  0  0  0  0  0  0  0
  -24.9617  -15.7919   21.4413 C   0  0  0  0  0  0  0  0  0  0  0  0
  -29.6983  -25.6158   19.9237 C   0  0  0  0  0  0  0  0  0  0  0  0
  -20.8244  -30.6762   21.7605 C   0  0  0  0  0  0  0  0  0  0  0  0
  -26.9463  -17.1221   20.9916 C   0  0  0  0  0  0  0  0  0  0  0  0
  -18.6960  -29.9799   22.4728 C   0  0  0  0  0  0  0  0  0  0  0  0
  -17.1050  -28.7324   24.3950 C   0  0  0  0  0  0  0  0  0  0  0  0
  -17.9470  -28.8532   22.1337 C   0  0  0  0  0  0  0  0  0  0  0  0
  -24.9816  -30.9120   22.5087 C   0  0  0  0  0  0  0  0  0  0  0  0
  -26.9527  -31.1976   23.4405 C   0  0  0  0  0  0  0  0  0  0  0  0
  -30.0007  -21.4347   19.0599 C   0  0  0  0  0  0  0  0  0  0  0  0
  -25.0296  -31.6566   24.9700 C   0  0  0  0  0  0  0  0  0  0  0  0
  -28.1492  -20.2590   19.7350 C   0  0  0  0  0  0  0  0  0  0  0  0
  -27.3873  -19.3375   20.6434 C   0  0  0  0  0  0  0  0  0  1  0  0
  -24.2519  -12.4703   21.7438 C   0  0  0  0  0  0  0  0  0  0  0  0
  -21.5146  -14.2028   21.9109 C   0  0  0  0  0  0  0  0  0  0  0  0
  -20.0094  -17.2625   21.7724 C   0  0  0  0  0  0  0  0  0  0  0  0
  -30.1287  -28.0564   19.4717 C   0  0  0  0  0  0  0  0  0  0  0  0
  -22.1301   -7.8750   21.0821 C   0  0  0  0  0  0  0  0  0  0  0  0
  -24.8778  -14.2391   23.4278 C   0  0  0  0  0  0  0  0  0  0  0  0
  -23.5597  -15.4041   21.0508 C   0  0  0  0  0  0  0  0  0  0  0  0
  -21.9174   -9.2698   20.4995 C   0  0  0  0  0  0  0  0  0  0  0  0
  -30.0678  -31.5988   19.8253 C   0  0  0  0  0  0  0  0  0  0  0  0
  -23.2478   -9.8737   20.0611 C   0  0  0  0  0  0  0  0  0  0  0  0
  -28.8170  -31.8576   20.6684 C   0  0  0  0  0  0  0  0  0  0  0  0
  -29.8619  -30.4460   18.8442 C   0  0  0  0  0  0  0  0  0  0  0  0
  -28.1311  -29.4548   20.2901 C   0  0  0  0  0  0  0  0  0  0  0  0
  -24.2010  -10.0319   21.2519 C   0  0  1  0  0  0  0  0  0  0  0  0
  -23.7495  -13.5152   22.6996 C   0  0  1  0  0  0  0  0  0  0  0  0
  -28.3117  -30.5648   21.3384 C   0  0  2  0  0  0  0  0  0  0  0  0
  -27.6542  -19.8546   17.3298 C   0  0  0  0  0  0  0  0  0  0  0  0
  -17.7550  -18.3568   21.9065 C   0  0  0  0  0  0  0  0  0  0  0  0
  -20.8860  -13.2492   19.0815 C   0  0  0  0  0  0  0  0  0  0  0  0
  -19.1786  -15.0733   18.9209 C   0  0  0  0  0  0  0  0  0  0  0  0
  -18.9247  -13.2768   20.6330 C   0  0  0  0  0  0  0  0  0  0  0  0
  -20.7920  -18.8491   24.1449 C   0  0  0  0  0  0  0  0  0  0  0  0
  -27.4162  -20.7643   18.5203 C   0  0  0  0  0  0  0  0  0  0  0  0
  -20.7153  -15.0355   20.9379 C   0  0  1  0  0  0  0  0  0  0  0  0
  -18.9907  -17.9261   22.6814 C   0  0  2  0  0  0  0  0  0  0  0  0
  -19.9533  -14.1648   19.8993 C   0  0  0  0  0  0  0  0  0  0  0  0
  -25.8546  -30.6210   21.5406 N   0  0  0  0  0  0  0  0  0  0  0  0
  -29.3864  -20.5830   19.9488 N   0  0  0  0  0  0  0  0  0  0  0  0
  -27.0445  -30.8041   22.1378 N   0  0  0  0  0  0  0  0  0  0  0  0
  -22.8989  -14.4248   21.9293 N   0  0  0  0  0  0  0  0  0  0  0  0
  -29.3871  -29.2542   19.5506 N   0  0  0  0  0  0  0  0  0  0  0  0
  -28.0526  -31.4260   24.1891 N   0  0  0  0  0  0  0  0  0  0  0  0
  -23.6326  -31.6869   25.0790 N   0  0  0  0  0  0  0  0  0  0  0  0
  -29.5975  -26.9997   20.2105 N   0  0  0  0  0  0  0  0  0  0  0  0
  -23.8346  -11.1873   22.0425 N   0  0  0  0  0  0  0  0  0  0  0  0
  -19.8543  -15.8927   21.7455 N   0  0  0  0  0  0  0  0  0  0  0  0
  -19.5821  -19.1304   23.3301 N   0  3  0  0  0  0  0  0  0  0  0  0
  -30.6309  -21.0630   18.0751 O   0  0  0  0  0  0  0  0  0  0  0  0
  -25.7297  -31.9750   25.9610 O   0  0  0  0  0  0  0  0  0  0  0  0
  -26.7264  -19.7605   21.5712 O   0  0  0  0  0  0  0  0  0  0  0  0
  -24.9642  -12.8037   20.8040 O   0  0  0  0  0  0  0  0  0  0  0  0
  -20.9314  -13.3906   22.6333 O   0  0  0  0  0  0  0  0  0  0  0  0
  -20.8556  -17.8964   21.1456 O   0  0  0  0  0  0  0  0  0  0  0  0
  -31.1737  -27.9819   18.8202 O   0  0  0  0  0  0  0  0  0  0  0  0
  -19.4869  -30.5998   21.5200 O   0  0  0  0  0  0  0  0  0  0  0  0
  -27.5998  -18.0375   20.2256 O   0  0  0  0  0  0  0  0  0  1  0  0
  -16.3423  -28.1326   25.3185 F   0  0  0  0  0  0  0  0  0  0  0  0
  -17.9884  -28.3647   20.8865 F   0  0  0  0  0  0  0  0  0  0  0  0
  1  2  1  0  0  0  0
  1  7  2  0  0  0  0
  2  8  2  0  0  0  0
  3 12  2  0  0  0  0
  3 19  1  0  0  0  0
  4 13  1  0  0  0  0
  4 19  2  0  0  0  0
  5 10  2  0  0  0  0
  5 20  1  0  0  0  0
  6 11  1  0  0  0  0
  6 20  2  0  0  0  0
  7 22  1  0  0  0  0
  8 24  1  0  0  0  0
  9 14  2  0  0  0  0
  9 23  1  0  0  0  0
 10 26  1  0  0  0  0
 11 26  2  0  0  0  0
 12 27  1  0  0  0  0
 13 27  2  0  0  0  0
 14 28  1  0  0  0  0
 15 16  2  0  0  0  0
 15 29  1  0  0  0  0
 16 30  1  0  0  0  0
 17 25  1  0  0  0  0
 17 28  2  0  0  0  0
 18 30  2  0  0  0  0
 18 31  1  0  0  0  0
 19 32  1  0  0  0  0
 20 34  1  0  0  0  0
 21 32  1  0  0  0  0
 21 33  2  0  0  0  0
 21 35  1  0  0  0  0
 22 24  2  0  0  0  0
 22 42  1  0  0  0  0
 23 25  2  0  0  0  0
 23 43  1  0  0  0  0
 24 51  1  0  0  0  0
 25 44  1  0  0  0  0
 26 71  1  0  0  0  0
 27 82  1  0  0  0  0
 28 83  1  0  0  0  0
 29 31  2  0  0  0  0
 29 82  1  0  0  0  0
 30 84  1  0  0  0  0
 31 85  1  0  0  0  0
 32 64  2  0  0  0  0
 33 66  1  0  0  0  0
 33 69  1  0  0  0  0
 34 65  1  0  0  0  0
 34 75  2  0  0  0  0
 35 70  1  0  0  0  0
 35 76  2  0  0  0  0
 36 37  1  0  0  0  0
 36 60  1  0  0  0  0
 36 65  2  0  0  0  0
 37 77  2  0  0  0  0
 37 83  1  0  0  0  0
 38 52  1  0  0  0  0
 38 72  1  0  0  0  0
 38 78  2  0  0  0  0
 39 61  1  0  0  0  0
 39 67  1  0  0  0  0
 39 79  2  0  0  0  0
 40 62  1  0  0  0  0
 40 73  1  0  0  0  0
 40 80  2  0  0  0  0
 41 68  1  0  0  0  0
 41 71  1  0  0  0  0
 41 81  2  0  0  0  0
 42 45  1  0  0  0  0
 43 52  1  0  0  0  0
 44 67  1  0  0  0  0
 45 47  1  0  0  0  0
 46 48  1  0  0  0  0
 46 49  1  0  0  0  0
 47 51  1  0  0  0  0
 48 53  1  0  0  0  0
 49 68  1  0  0  0  0
 50 53  1  0  0  0  0
 50 68  1  0  0  0  0
 51 72  1  0  0  0  0
 52 67  1  0  0  0  0
 53 66  1  0  0  0  0
 54 60  1  0  0  0  0
 55 62  1  0  0  0  0
 56 63  1  0  0  0  0
 57 63  1  0  0  0  0
 58 63  1  0  0  0  0
 59 74  1  0  0  0  0
 61 63  1  0  0  0  0
 61 73  1  0  0  0  0
 62 74  1  0  0  0  0
 64 66  1  0  0  0  0
M  CHG  1  74   1
M  ISO  4  37 101  41 100  71 100  83 101
M  END
> <Batch ID>
0077

> <Smiles>
C=CC(NC(=O)c1ccc([100NH:0][100C:0](=O)N2CCCC(n3nc(-c4ccc(Oc5ccc(F)cc5F)cc4)c(C(N)=O)c3N)C2)cc1)[101C:1](=O)[101O:1]c1ccc2c(c1)CN(C(=O)C(NC(=O)C(C)NC)C(C)(C)C)C(C(=O)NC1CCCc3ccccc31)C2

> <Shape>
0.283

> <Color>
0.055

> <Negative vol penalty>
0.000

$$$$

  -OEChem-04042323533D

 87 96  0     1  0  0  0  0  0999 V2000
  -27.1632  -33.4024   26.4038 C   0  0  0  0  0  0  0  0  0  0  0  0
  -27.5021  -32.2871   25.6444 C   0  0  0  0  0  0  0  0  0  0  0  0
  -25.8746  -12.3819   21.7052 C   0  0  0  0  0  0  0  0  0  0  0  0
  -25.8776  -13.6706   19.6616 C   0  0  0  0  0  0  0  0  0  0  0  0
  -25.8447  -33.5880   26.8175 C   0  0  0  0  0  0  0  0  0  0  0  0
  -26.5230  -31.3562   25.2992 C   0  0  0  0  0  0  0  0  0  0  0  0
  -26.8079  -29.9471   20.4434 C   0  0  0  0  0  0  0  0  0  0  0  0
  -31.3506  -22.4681   19.9820 C   0  0  0  0  0  0  0  0  0  0  0  0
  -31.4672  -21.2555   20.6613 C   0  0  0  0  0  0  0  0  0  0  0  0
  -24.4927  -12.2227   21.6028 C   0  0  0  0  0  0  0  0  0  0  0  0
  -24.4956  -13.5114   19.5592 C   0  0  0  0  0  0  0  0  0  0  0  0
  -27.7955  -29.0228   20.1056 C   0  0  0  0  0  0  0  0  0  0  0  0
  -22.3296  -10.2981   19.8564 C   0  0  0  0  0  0  0  0  0  0  0  0
  -21.8051   -9.0259   20.0840 C   0  0  0  0  0  0  0  0  0  0  0  0
  -26.1483  -27.2608   20.1360 C   0  0  0  0  0  0  0  0  0  0  0  0
  -30.6836  -21.2848   17.9840 C   0  0  0  0  0  0  0  0  0  0  0  0
  -20.4884   -9.8961   21.9133 C   0  0  0  0  0  0  0  0  0  0  0  0
  -26.5671  -13.1059   20.7346 C   0  0  0  0  0  0  0  0  0  0  0  0
  -28.9894  -12.4282   20.3096 C   0  0  0  0  0  0  0  0  0  0  0  0
  -24.8470  -32.6640   26.4690 C   0  0  0  0  0  0  0  0  0  0  0  0
  -25.4829  -29.5328   20.6411 C   0  0  0  0  0  0  0  0  0  0  0  0
  -25.1902  -31.5290   25.7097 C   0  0  0  0  0  0  0  0  0  0  0  0
  -25.1453  -28.1822   20.4738 C   0  0  0  0  0  0  0  0  0  0  0  0
  -30.9587  -22.4828   18.6434 C   0  0  0  0  0  0  0  0  0  0  0  0
  -31.1921  -20.0575   20.0020 C   0  0  0  0  0  0  0  0  0  0  0  0
  -23.8032  -12.7874   20.5298 C   0  0  0  0  0  0  0  0  0  0  0  0
  -27.4663  -27.6790   19.9546 C   0  0  0  0  0  0  0  0  0  0  0  0
  -21.9336  -11.3694   20.6572 C   0  0  0  0  0  0  0  0  0  0  0  0
  -20.8844   -8.8248   21.1124 C   0  0  0  0  0  0  0  0  0  0  0  0
  -30.8003  -20.0721   18.6633 C   0  0  0  0  0  0  0  0  0  0  0  0
  -21.0130  -11.1683   21.6857 C   0  0  0  0  0  0  0  0  0  0  0  0
  -27.9945  -13.2712   20.8401 C   0  0  0  0  0  0  0  0  0  0  0  0
  -30.1730  -13.0174   20.6819 C   0  0  0  0  0  0  0  0  0  0  0  0
  -30.1103  -26.1781   16.6744 C   0  0  0  0  0  0  0  0  0  0  0  0
  -30.0752  -26.1229   18.0098 C   0  0  0  0  0  0  0  0  0  0  0  0
  -30.6722  -25.1073   15.8964 C   0  0  0  0  0  0  0  0  0  0  0  0
  -31.0683  -23.8144   16.5489 C   0  0  0  0  0  0  0  0  0  0  0  0
  -30.8235  -25.2185   14.5673 C   0  0  0  0  0  0  0  0  0  0  0  0
  -28.8557  -11.2206   19.5484 C   0  0  0  0  0  0  0  0  0  0  0  0
  -23.4635  -29.5701   23.0956 C   0  0  0  0  0  0  0  0  0  0  0  0
  -21.3550  -28.5014   20.8742 C   0  0  0  0  0  0  0  0  0  0  0  0
  -20.8377  -26.9061   17.9020 C   0  0  0  0  0  0  0  0  0  0  0  0
  -31.6896  -18.6392   22.0237 C   0  0  0  0  0  0  0  0  0  0  0  0
  -23.4448  -32.8828   26.9793 C   0  0  0  0  0  0  0  0  0  0  0  0
  -24.4243  -30.5464   20.9790 C   0  0  0  0  0  0  0  0  0  0  0  0
  -23.7336  -27.6893   20.6550 C   0  0  0  0  0  0  0  0  0  0  0  0
  -30.6205  -24.9497   18.7642 C   0  0  0  0  0  0  0  0  0  0  0  0
  -22.3951  -32.0442   26.2545 C   0  0  0  0  0  0  0  0  0  0  0  0
  -32.0679  -15.7766   24.1069 C   0  0  0  0  0  0  0  0  0  0  0  0
  -22.8644  -30.5987   26.1229 C   0  0  0  0  0  0  0  0  0  0  0  0
  -31.1615  -14.7307   23.4538 C   0  0  0  0  0  0  0  0  0  0  0  0
  -31.4681  -17.1791   24.0222 C   0  0  0  0  0  0  0  0  0  0  0  0
  -30.1732  -16.5617   22.0194 C   0  0  0  0  0  0  0  0  0  0  0  0
  -24.1516  -30.5099   25.2943 C   0  0  1  0  0  0  0  0  0  0  0  0
  -23.2052  -29.9326   21.6605 C   0  0  1  0  0  0  0  0  0  0  0  0
  -30.7655  -15.1430   22.0224 C   0  0  2  0  0  0  0  0  0  0  0  0
  -19.0036  -26.1491   16.3656 C   0  0  0  0  0  0  0  0  0  0  0  0
  -20.7377  -26.1819   22.7580 C   0  0  0  0  0  0  0  0  0  0  0  0
  -19.6660  -24.9943   20.8321 C   0  0  0  0  0  0  0  0  0  0  0  0
  -18.7370  -27.1684   21.6274 C   0  0  0  0  0  0  0  0  0  0  0  0
  -21.8303  -28.6049   15.6911 C   0  0  0  0  0  0  0  0  0  0  0  0
  -29.5198  -27.2457   18.8360 C   0  0  0  0  0  0  0  0  0  1  0  0
  -20.9300  -27.1436   20.3697 C   0  0  1  0  0  0  0  0  0  0  0  0
  -19.9803  -27.2653   16.7018 C   0  0  2  0  0  0  0  0  0  0  0  0
  -20.0447  -26.3807   21.3952 C   0  0  0  0  0  0  0  0  0  0  0  0
  -28.5019  -14.3163   21.4993 N   0  0  0  0  0  0  0  0  0  0  0  0
  -29.8285  -14.1338   21.3856 N   0  0  0  0  0  0  0  0  0  0  0  0
  -30.8380  -23.7438   17.9365 N   0  0  0  0  0  0  0  0  0  0  0  0
  -22.7353  -28.7179   20.9912 N   0  0  0  0  0  0  0  0  0  0  0  0
  -31.1215  -17.5023   22.6365 N   0  0  0  0  0  0  0  0  0  0  0  0
  -31.4644  -12.6842   20.4728 N   0  0  0  0  0  0  0  0  0  0  0  0
  -27.5668  -10.7556   19.2542 N   0  0  0  0  0  0  0  0  0  0  0  0
  -31.3119  -18.8271   20.6945 N   0  0  0  0  0  0  0  0  0  0  0  0
  -23.8542  -30.6359   23.8835 N   0  0  0  0  0  0  0  0  0  0  0  0
  -20.2890  -27.3700   19.0788 N   0  0  0  0  0  0  0  0  0  0  0  0
  -20.8377  -27.5147   15.5087 N   0  3  0  0  0  0  0  0  0  0  0  0
  -31.5591  -22.9163   15.8640 O   0  0  0  0  0  0  0  0  0  0  0  0
  -29.8498  -10.5643   19.1552 O   0  0  0  0  0  0  0  0  0  0  0  0
  -23.3178  -28.4096   23.4613 O   0  0  0  0  0  0  0  0  0  0  0  0
  -20.4942  -29.3416   21.1475 O   0  0  0  0  0  0  0  0  0  0  0  0
  -21.8872  -26.2739   17.8055 O   0  0  0  0  0  0  0  0  0  0  0  0
  -32.4762  -19.3755   22.6247 O   0  0  0  0  0  0  0  0  0  0  0  0
  -22.4547  -12.6320   20.4295 O   0  0  0  0  0  0  0  0  0  0  0  0
  -28.4285  -26.7746   19.6256 O   0  0  0  0  0  0  0  0  0  1  0  0
  -20.3796   -7.6034   21.3299 F   0  0  0  0  0  0  0  0  0  0  0  0
  -30.5348  -18.9267   18.0190 F   0  0  0  0  0  0  0  0  0  0  0  0
  -20.6278  -12.1938   22.4576 F   0  0  0  0  0  0  0  0  0  0  0  0
  1  2  1  0  0  0  0
  1  5  2  0  0  0  0
  2  6  2  0  0  0  0
  3 10  2  0  0  0  0
  3 18  1  0  0  0  0
  4 11  1  0  0  0  0
  4 18  2  0  0  0  0
  5 20  1  0  0  0  0
  6 22  1  0  0  0  0
  7 12  2  0  0  0  0
  7 21  1  0  0  0  0
  8  9  2  0  0  0  0
  8 24  1  0  0  0  0
  9 25  1  0  0  0  0
 10 26  1  0  0  0  0
 11 26  2  0  0  0  0
 12 27  1  0  0  0  0
 13 14  2  0  0  0  0
 13 28  1  0  0  0  0
 14 29  1  0  0  0  0
 15 23  1  0  0  0  0
 15 27  2  0  0  0  0
 16 24  2  0  0  0  0
 16 30  1  0  0  0  0
 17 29  2  0  0  0  0
 17 31  1  0  0  0  0
 18 32  1  0  0  0  0
 19 32  1  0  0  0  0
 19 33  2  0  0  0  0
 19 39  1  0  0  0  0
 20 22  2  0  0  0  0
 20 44  1  0  0  0  0
 21 23  2  0  0  0  0
 21 45  1  0  0  0  0
 22 54  1  0  0  0  0
 23 46  1  0  0  0  0
 24 68  1  0  0  0  0
 25 30  2  0  0  0  0
 25 73  1  0  0  0  0
 26 83  1  0  0  0  0
 27 84  1  0  0  0  0
 28 31  2  0  0  0  0
 28 83  1  0  0  0  0
 29 85  1  0  0  0  0
 30 86  1  0  0  0  0
 31 87  1  0  0  0  0
 32 66  2  0  0  0  0
 33 67  1  0  0  0  0
 33 71  1  0  0  0  0
 34 35  2  0  0  0  0
 34 36  1  0  0  0  0
 35 47  1  0  0  0  0
 35 62  1  0  0  0  0
 36 37  1  0  0  0  0
 36 38  2  0  0  0  0
 37 68  1  0  0  0  0
 37 77  2  0  0  0  0
 39 72  1  0  0  0  0
 39 78  2  0  0  0  0
 40 55  1  0  0  0  0
 40 74  1  0  0  0  0
 40 79  2  0  0  0  0
 41 63  1  0  0  0  0
 41 69  1  0  0  0  0
 41 80  2  0  0  0  0
 42 64  1  0  0  0  0
 42 75  1  0  0  0  0
 42 81  2  0  0  0  0
 43 70  1  0  0  0  0
 43 73  1  0  0  0  0
 43 82  2  0  0  0  0
 44 48  1  0  0  0  0
 45 55  1  0  0  0  0
 46 69  1  0  0  0  0
 47 68  1  0  0  0  0
 48 50  1  0  0  0  0
 49 51  1  0  0  0  0
 49 52  1  0  0  0  0
 50 54  1  0  0  0  0
 51 56  1  0  0  0  0
 52 70  1  0  0  0  0
 53 56  1  0  0  0  0
 53 70  1  0  0  0  0
 54 74  1  0  0  0  0
 55 69  1  0  0  0  0
 56 67  1  0  0  0  0
 57 64  1  0  0  0  0
 58 65  1  0  0  0  0
 59 65  1  0  0  0  0
 60 65  1  0  0  0  0
 61 76  1  0  0  0  0
 62 84  1  0  0  0  0
 63 65  1  0  0  0  0
 63 75  1  0  0  0  0
 64 76  1  0  0  0  0
 66 67  1  0  0  0  0
M  CHG  1  76   1
M  ISO  4  43 100  62 101  73 100  84 101
M  END
> <Batch ID>
0077

> <Smiles>
C=C1C=C([101CH2:1][101O:1]c2ccc3c(c2)CN(C(=O)C(NC(=O)C(C)NC)C(C)(C)C)C(C(=O)NC2CCCc4ccccc42)C3)CN(c2ccc([100NH:0][100C:0](=O)N3CCCC(n4nc(-c5ccc(Oc6ccc(F)cc6F)cc5)c(C(N)=O)c4N)C3)c(F)c2)C1=O

> <Shape>
0.318

> <Color>
0.071

> <Negative vol penalty>
0.000

$$$$

  -OEChem-04042323533D

 88 97  0     1  0  0  0  0  0999 V2000
  -30.2962  -12.5674   19.6623 C   0  0  0  0  0  0  0  0  0  0  0  0
  -30.0545  -13.8279   20.1990 C   0  0  0  0  0  0  0  0  0  0  0  0
  -18.6038  -28.6561   23.2451 C   0  0  0  0  0  0  0  0  0  0  0  0
  -29.7938  -23.6892   20.5997 C   0  0  0  0  0  0  0  0  0  0  0  0
  -27.9688  -23.3248   19.0591 C   0  0  0  0  0  0  0  0  0  0  0  0
  -29.2820  -11.8943   18.9824 C   0  0  0  0  0  0  0  0  0  0  0  0
  -28.7986  -14.4165   20.0553 C   0  0  0  0  0  0  0  0  0  0  0  0
  -24.2467  -18.7648   23.4742 C   0  0  0  0  0  0  0  0  0  0  0  0
  -19.5297  -29.1273   22.3145 C   0  0  0  0  0  0  0  0  0  0  0  0
  -18.5419  -27.2940   23.5393 C   0  0  0  0  0  0  0  0  0  0  0  0
  -30.0662  -22.3212   20.6006 C   0  0  0  0  0  0  0  0  0  0  0  0
  -28.2411  -21.9568   19.0600 C   0  0  0  0  0  0  0  0  0  0  0  0
  -23.5065  -19.9279   23.2662 C   0  0  0  0  0  0  0  0  0  0  0  0
  -28.8132  -19.5336   22.0440 C   0  0  0  0  0  0  0  0  0  0  0  0
  -29.0521  -18.9220   23.2746 C   0  0  0  0  0  0  0  0  0  0  0  0
  -21.8070  -18.6379   22.1407 C   0  0  0  0  0  0  0  0  0  0  0  0
  -20.3320  -26.8742   21.9720 C   0  0  0  0  0  0  0  0  0  0  0  0
  -31.2525  -18.2669   22.5219 C   0  0  0  0  0  0  0  0  0  0  0  0
  -28.7451  -24.1910   19.8289 C   0  0  0  0  0  0  0  0  0  0  0  0
  -28.9983  -26.5772   18.9631 C   0  0  0  0  0  0  0  0  0  0  0  0
  -28.0102  -12.4709   18.8386 C   0  0  0  0  0  0  0  0  0  0  0  0
  -23.7769  -17.5291   23.0065 C   0  0  0  0  0  0  0  0  0  0  0  0
  -27.7668  -13.7511   19.3717 C   0  0  0  0  0  0  0  0  0  0  0  0
  -22.5418  -17.4603   22.3462 C   0  0  0  0  0  0  0  0  0  0  0  0
  -20.3939  -28.2364   21.6779 C   0  0  0  0  0  0  0  0  0  0  0  0
  -19.4061  -26.4031   22.9027 C   0  0  0  0  0  0  0  0  0  0  0  0
  -29.2899  -21.4550   19.8308 C   0  0  0  0  0  0  0  0  0  0  0  0
  -22.2879  -19.8650   22.5969 C   0  0  0  0  0  0  0  0  0  0  0  0
  -29.7939  -19.5118   21.0523 C   0  0  0  0  0  0  0  0  0  0  0  0
  -30.2717  -18.2887   23.5136 C   0  0  0  0  0  0  0  0  0  0  0  0
  -31.0135  -18.8785   21.2913 C   0  0  0  0  0  0  0  0  0  0  0  0
  -28.4628  -25.6040   19.8279 C   0  0  0  0  0  0  0  0  0  0  0  0
  -28.4188  -27.7541   19.3699 C   0  0  0  0  0  0  0  0  0  0  0  0
  -20.4395  -24.1656   23.1376 C   0  0  0  0  0  0  0  0  0  0  0  0
  -20.4302  -22.8481   23.4166 C   0  0  0  0  0  0  0  0  0  0  0  0
  -19.1609  -22.2040   23.7603 C   0  0  0  0  0  0  0  0  0  0  0  0
  -19.0565  -20.9872   24.3184 C   0  0  0  0  0  0  0  0  0  0  0  0
  -29.9356  -26.4305   17.8881 C   0  0  0  0  0  0  0  0  0  0  0  0
  -24.8312  -15.3706   20.9249 C   0  0  0  0  0  0  0  0  0  0  0  0
  -22.2997  -13.6580   22.0115 C   0  0  0  0  0  0  0  0  0  0  0  0
  -19.2224  -13.6553   23.4870 C   0  0  0  0  0  0  0  0  0  0  0  0
  -23.3080  -29.0090   22.2259 C   0  0  0  0  0  0  0  0  0  0  0  0
  -26.9595  -11.7252   18.0545 C   0  0  0  0  0  0  0  0  0  0  0  0
  -24.5745  -16.2798   23.2623 C   0  0  0  0  0  0  0  0  0  0  0  0
  -21.9836  -16.1553   21.8423 C   0  0  0  0  0  0  0  0  0  0  0  0
  -17.9214  -23.0067   23.4254 C   0  0  0  0  0  0  0  0  0  0  0  0
  -25.5455  -12.2584   18.2705 C   0  0  0  0  0  0  0  0  0  0  0  0
  -26.6032  -29.8899   23.2471 C   0  0  0  0  0  0  0  0  0  0  0  0
  -25.5284  -13.7806   18.1739 C   0  0  0  0  0  0  0  0  0  0  0  0
  -27.5017  -28.9792   22.4086 C   0  0  0  0  0  0  0  0  0  0  0  0
  -18.0749  -24.4996   23.7485 C   0  0  0  0  0  0  0  0  0  0  0  0
  -25.3162  -29.1825   23.6659 C   0  0  0  0  0  0  0  0  0  0  0  0
  -25.4452  -27.6782   21.7180 C   0  0  0  0  0  0  0  0  0  0  0  0
  -26.4102  -14.4121   19.2579 C   0  0  1  0  0  0  0  0  0  0  0  0
  -24.2447  -15.1508   22.2907 C   0  0  1  0  0  0  0  0  0  0  0  0
  -26.7299  -28.3657   21.2249 C   0  0  2  0  0  0  0  0  0  0  0  0
  -17.3853  -12.1058   24.2090 C   0  0  0  0  0  0  0  0  0  0  0  0
  -21.3653  -30.2779   20.4300 C   0  0  0  0  0  0  0  0  0  0  0  0
  -21.1558  -28.0682   19.2985 C   0  0  0  0  0  0  0  0  0  0  0  0
  -21.4201  -13.3508   19.1060 C   0  0  0  0  0  0  0  0  0  0  0  0
  -19.1626  -12.6558   19.9358 C   0  0  0  0  0  0  0  0  0  0  0  0
  -21.1710  -11.2862   20.4952 C   0  0  0  0  0  0  0  0  0  0  0  0
  -19.4921  -14.4684   26.3198 C   0  0  0  0  0  0  0  0  0  0  0  0
  -21.6934  -22.0366   23.3629 C   0  0  0  0  0  0  0  0  0  1  0  0
  -20.8482  -13.5286   21.6174 C   0  0  1  0  0  0  0  0  0  0  0  0
  -18.6535  -12.8326   24.6288 C   0  0  2  0  0  0  0  0  0  0  0  0
  -21.3832  -28.7405   20.6825 C   0  0  0  0  0  0  0  0  0  0  0  0
  -20.6616  -12.7304   20.2963 C   0  0  0  0  0  0  0  0  0  0  0  0
  -27.6089  -26.1180   20.7171 N   0  0  0  0  0  0  0  0  0  0  0  0
  -27.6035  -27.4271   20.4132 N   0  0  0  0  0  0  0  0  0  0  0  0
  -19.3434  -25.0171   23.2024 N   0  0  0  0  0  0  0  0  0  0  0  0
  -22.8036  -14.9625   22.1113 N   0  0  0  0  0  0  0  0  0  0  0  0
  -24.6316  -28.6247   22.4971 N   0  0  0  0  0  0  0  0  0  0  0  0
  -28.5322  -29.0265   18.9334 N   0  0  0  0  0  0  0  0  0  0  0  0
  -30.4317  -25.1508   17.6043 N   0  0  0  0  0  0  0  0  0  0  0  0
  -25.7303  -14.3962   20.5354 N   0  0  0  0  0  0  0  0  0  0  0  0
  -20.1630  -12.9489   22.7676 N   0  0  0  0  0  0  0  0  0  0  0  0
  -22.7356  -28.4385   21.0956 N   0  0  0  0  0  0  0  0  0  0  0  0
  -18.3300  -13.7104   25.7888 N   0  3  0  0  0  0  0  0  0  0  0  0
  -30.3343  -27.4078   17.2103 O   0  0  0  0  0  0  0  0  0  0  0  0
  -24.4921  -16.3507   20.2723 O   0  0  0  0  0  0  0  0  0  0  0  0
  -22.9601  -12.6392   22.2300 O   0  0  0  0  0  0  0  0  0  0  0  0
  -18.8652  -14.8080   23.2540 O   0  0  0  0  0  0  0  0  0  0  0  0
  -22.6846  -29.8057   22.9354 O   0  0  0  0  0  0  0  0  0  0  0  0
  -29.5555  -20.1201   19.8313 O   0  0  0  0  0  0  0  0  0  0  0  0
  -21.5637  -20.9988   22.3920 O   0  0  0  0  0  0  0  0  0  1  0  0
  -30.5016  -17.7027   24.6960 F   0  0  0  0  0  0  0  0  0  0  0  0
  -31.9600  -18.8553   20.3428 F   0  0  0  0  0  0  0  0  0  0  0  0
  1  2  1  0  0  0  0
  1  6  2  0  0  0  0
  2  7  2  0  0  0  0
  3  9  1  0  0  0  0
  3 10  2  0  0  0  0
  4 11  2  0  0  0  0
  4 19  1  0  0  0  0
  5 12  1  0  0  0  0
  5 19  2  0  0  0  0
  6 21  1  0  0  0  0
  7 23  1  0  0  0  0
  8 13  2  0  0  0  0
  8 22  1  0  0  0  0
  9 25  2  0  0  0  0
 10 26  1  0  0  0  0
 11 27  1  0  0  0  0
 12 27  2  0  0  0  0
 13 28  1  0  0  0  0
 14 15  2  0  0  0  0
 14 29  1  0  0  0  0
 15 30  1  0  0  0  0
 16 24  1  0  0  0  0
 16 28  2  0  0  0  0
 17 25  1  0  0  0  0
 17 26  2  0  0  0  0
 18 30  2  0  0  0  0
 18 31  1  0  0  0  0
 19 32  1  0  0  0  0
 20 32  1  0  0  0  0
 20 33  2  0  0  0  0
 20 38  1  0  0  0  0
 21 23  2  0  0  0  0
 21 43  1  0  0  0  0
 22 24  2  0  0  0  0
 22 44  1  0  0  0  0
 23 54  1  0  0  0  0
 24 45  1  0  0  0  0
 25 67  1  0  0  0  0
 26 71  1  0  0  0  0
 27 85  1  0  0  0  0
 28 86  1  0  0  0  0
 29 31  2  0  0  0  0
 29 85  1  0  0  0  0
 30 87  1  0  0  0  0
 31 88  1  0  0  0  0
 32 69  2  0  0  0  0
 33 70  1  0  0  0  0
 33 74  1  0  0  0  0
 34 35  2  0  0  0  0
 34 71  1  0  0  0  0
 35 36  1  0  0  0  0
 35 64  1  0  0  0  0
 36 37  2  0  0  0  0
 36 46  1  0  0  0  0
 38 75  1  0  0  0  0
 38 80  2  0  0  0  0
 39 55  1  0  0  0  0
 39 76  1  0  0  0  0
 39 81  2  0  0  0  0
 40 65  1  0  0  0  0
 40 72  1  0  0  0  0
 40 82  2  0  0  0  0
 41 66  1  0  0  0  0
 41 77  1  0  0  0  0
 41 83  2  0  0  0  0
 42 73  1  0  0  0  0
 42 78  1  0  0  0  0
 42 84  2  0  0  0  0
 43 47  1  0  0  0  0
 44 55  1  0  0  0  0
 45 72  1  0  0  0  0
 46 51  1  0  0  0  0
 47 49  1  0  0  0  0
 48 50  1  0  0  0  0
 48 52  1  0  0  0  0
 49 54  1  0  0  0  0
 50 56  1  0  0  0  0
 51 71  1  0  0  0  0
 52 73  1  0  0  0  0
 53 56  1  0  0  0  0
 53 73  1  0  0  0  0
 54 76  1  0  0  0  0
 55 72  1  0  0  0  0
 56 70  1  0  0  0  0
 57 66  1  0  0  0  0
 58 67  1  0  0  0  0
 59 67  1  0  0  0  0
 60 68  1  0  0  0  0
 61 68  1  0  0  0  0
 62 68  1  0  0  0  0
 63 79  1  0  0  0  0
 64 86  1  0  0  0  0
 65 68  1  0  0  0  0
 65 77  1  0  0  0  0
 66 79  1  0  0  0  0
 67 78  1  0  0  0  0
 69 70  1  0  0  0  0
M  CHG  1  79   1
M  ISO  4  42 100  64 101  78 100  86 101
M  END
> <Batch ID>
0077

> <Smiles>
C=C1CCN(c2cccc(C(C)(C)[100NH:0][100C:0](=O)N3CCCC(n4nc(-c5ccc(Oc6ccc(F)cc6F)cc5)c(C(N)=O)c4N)C3)c2)C=C1[101CH2:1][101O:1]c1ccc2c(c1)CN(C(=O)C(NC(=O)C(C)NC)C(C)(C)C)C(C(=O)NC1CCCc3ccccc31)C2

> <Shape>
0.239

> <Color>
0.071

> <Negative vol penalty>
0.000

$$$$

  -OEChem-04042323533D

 86 94  0     1  0  0  0  0  0999 V2000
  -21.1667  -28.1548   23.7423 C   0  0  0  0  0  0  0  0  0  0  0  0
  -21.8760  -27.3291   24.6087 C   0  0  0  0  0  0  0  0  0  0  0  0
  -23.2565   -9.7402   19.8437 C   0  0  0  0  0  0  0  0  0  0  0  0
  -23.7574   -9.8970   22.2020 C   0  0  0  0  0  0  0  0  0  0  0  0
  -31.9924  -18.0415   23.9586 C   0  0  0  0  0  0  0  0  0  0  0  0
  -21.5295  -28.2286   22.3982 C   0  0  0  0  0  0  0  0  0  0  0  0
  -22.9479  -26.5759   24.1311 C   0  0  0  0  0  0  0  0  0  0  0  0
  -28.0915  -25.1703   27.1433 C   0  0  0  0  0  0  0  0  0  0  0  0
  -31.5506  -17.0851   23.0445 C   0  0  0  0  0  0  0  0  0  0  0  0
  -22.5486   -8.5603   20.0725 C   0  0  0  0  0  0  0  0  0  0  0  0
  -23.0495   -8.7170   22.4308 C   0  0  0  0  0  0  0  0  0  0  0  0
  -28.4908  -24.0278   27.8354 C   0  0  0  0  0  0  0  0  0  0  0  0
  -23.5671   -5.3940   22.0836 C   0  0  0  0  0  0  0  0  0  0  0  0
  -24.1504   -4.4394   22.9166 C   0  0  0  0  0  0  0  0  0  0  0  0
  -29.7185  -18.7975   24.2668 C   0  0  0  0  0  0  0  0  0  0  0  0
  -29.6457  -23.2463   25.8670 C   0  0  0  0  0  0  0  0  0  0  0  0
  -22.2646   -4.5975   24.4185 C   0  0  0  0  0  0  0  0  0  0  0  0
  -23.8610  -10.4085   20.9085 C   0  0  0  0  0  0  0  0  0  0  0  0
  -31.0763  -18.8977   24.5699 C   0  0  0  0  0  0  0  0  0  0  0  0
  -24.0863  -12.9404   20.6933 C   0  0  0  0  0  0  0  0  0  0  0  0
  -22.6125  -27.4833   21.9059 C   0  0  0  0  0  0  0  0  0  0  0  0
  -28.4578  -25.3545   25.8023 C   0  0  0  0  0  0  0  0  0  0  0  0
  -23.3247  -26.6388   22.7788 C   0  0  0  0  0  0  0  0  0  0  0  0
  -29.2519  -24.3932   25.1608 C   0  0  0  0  0  0  0  0  0  0  0  0
  -30.1927  -16.9849   22.7415 C   0  0  0  0  0  0  0  0  0  0  0  0
  -22.4451   -8.0487   21.3660 C   0  0  0  0  0  0  0  0  0  0  0  0
  -29.2656  -23.0642   27.1964 C   0  0  0  0  0  0  0  0  0  0  0  0
  -22.3325   -5.9505   22.4181 C   0  0  0  0  0  0  0  0  0  0  0  0
  -23.4992   -4.0411   24.0840 C   0  0  0  0  0  0  0  0  0  0  0  0
  -29.2766  -17.8411   23.3526 C   0  0  0  0  0  0  0  0  0  0  0  0
  -21.6812   -5.5522   23.5855 C   0  0  0  0  0  0  0  0  0  0  0  0
  -24.5928  -11.6271   20.6728 C   0  0  0  0  0  0  0  0  0  0  0  0
  -25.1727  -13.7319   20.4108 C   0  0  0  0  0  0  0  0  0  0  0  0
  -31.5465  -19.9152   25.5422 C   0  0  0  0  0  0  0  0  0  0  0  0
  -22.7530  -13.4036   20.9452 C   0  0  0  0  0  0  0  0  0  0  0  0
  -26.8714  -25.6422   23.0629 C   0  0  0  0  0  0  0  0  0  0  0  0
  -29.8246  -26.2510   21.8671 C   0  0  0  0  0  0  0  0  0  0  0  0
  -33.2049  -25.8970   22.1758 C   0  0  0  0  0  0  0  0  0  0  0  0
  -30.5266  -15.0879   21.1178 C   0  0  0  0  0  0  0  0  0  0  0  0
  -22.9376  -27.5598   20.4351 C   0  0  0  0  0  0  0  0  0  0  0  0
  -28.0415  -26.6052   25.0777 C   0  0  0  0  0  0  0  0  0  0  0  0
  -29.6888  -24.5532   23.7284 C   0  0  0  0  0  0  0  0  0  0  0  0
  -24.3208  -27.0155   20.0879 C   0  0  0  0  0  0  0  0  0  0  0  0
  -29.8033  -12.5075   18.7736 C   0  0  0  0  0  0  0  0  0  0  0  0
  -24.5559  -25.6757   20.7782 C   0  0  0  0  0  0  0  0  0  0  0  0
  -28.3416  -12.1564   19.0604 C   0  0  0  0  0  0  0  0  0  0  0  0
  -30.5676  -12.8430   20.0531 C   0  0  0  0  0  0  0  0  0  0  0  0
  -28.4858  -13.5238   21.1809 C   0  0  0  0  0  0  0  0  0  0  0  0
  -24.5090  -25.8253   22.3036 C   0  0  1  0  0  0  0  0  0  0  0  0
  -28.0403  -26.4445   23.5606 C   0  0  1  0  0  0  0  0  0  0  0  0
  -27.6588  -13.2415   19.9160 C   0  0  2  0  0  0  0  0  0  0  0  0
  -35.3590  -26.4703   21.0233 C   0  0  0  0  0  0  0  0  0  0  0  0
  -29.3134  -24.0467   19.8203 C   0  0  0  0  0  0  0  0  0  0  0  0
  -31.7714  -24.0138   19.3452 C   0  0  0  0  0  0  0  0  0  0  0  0
  -30.4449  -26.0797   18.9033 C   0  0  0  0  0  0  0  0  0  0  0  0
  -31.7494  -21.7798   29.8600 C   0  0  0  0  0  0  0  0  0  0  0  0
  -32.8539  -19.9900   28.5140 C   0  0  0  0  0  0  0  0  0  0  0  0
  -30.5515  -19.6294   29.4390 C   0  0  0  0  0  0  0  0  0  0  0  0
  -34.1511  -27.4888   24.4844 C   0  0  0  0  0  0  0  0  0  0  0  0
  -30.9388  -25.4110   21.2909 C   0  0  1  0  0  0  0  0  0  0  0  0
  -34.3373  -26.9017   22.0638 C   0  0  2  0  0  0  0  0  0  0  0  0
  -30.8962  -21.3055   27.5238 C   0  0  1  0  0  0  0  0  0  1  0  0
  -30.6074  -24.8836   19.8663 C   0  0  0  0  0  0  0  0  0  0  0  0
  -31.5050  -20.6686   28.8165 C   0  0  0  0  0  0  0  0  0  0  0  0
  -25.8993  -11.5825   20.3987 N   0  0  0  0  0  0  0  0  0  0  0  0
  -26.2229  -12.8777   20.2444 N   0  0  0  0  0  0  0  0  0  0  0  0
  -29.2511  -25.7902   23.0606 N   0  0  0  0  0  0  0  0  0  0  0  0
  -29.8640  -13.8810   20.8097 N   0  0  0  0  0  0  0  0  0  0  0  0
  -25.3226  -15.0681   20.2909 N   0  0  0  0  0  0  0  0  0  0  0  0
  -21.7571  -12.4561   21.2190 N   0  0  0  0  0  0  0  0  0  0  0  0
  -29.7472  -16.0127   21.8119 N   0  0  0  0  0  0  0  0  0  0  0  0
  -30.6218  -20.3014   26.4988 N   0  0  0  0  0  0  0  0  0  0  0  0
  -25.7452  -26.3963   22.7937 N   0  0  0  0  0  0  0  0  0  0  0  0
  -32.1445  -26.2295   21.3596 N   0  0  0  0  0  0  0  0  0  0  0  0
  -35.0330  -27.0463   23.3738 N   0  3  0  0  0  0  0  0  0  0  0  0
  -32.6864  -20.3599   25.4405 O   0  0  0  0  0  0  0  0  0  0  0  0
  -22.4502  -14.6204   20.9120 O   0  0  0  0  0  0  0  0  0  0  0  0
  -26.9834  -24.4290   22.9313 O   0  0  0  0  0  0  0  0  0  0  0  0
  -29.4809  -27.2820   21.2836 O   0  0  0  0  0  0  0  0  0  0  0  0
  -33.2574  -24.9134   22.9109 O   0  0  0  0  0  0  0  0  0  0  0  0
  -31.6905  -15.2973   20.7662 O   0  0  0  0  0  0  0  0  0  0  0  0
  -21.7542   -6.8976   21.5896 O   0  0  0  0  0  0  0  0  0  0  0  0
  -29.6561  -21.9478   27.8694 O   0  0  0  0  0  0  0  0  0  1  0  0
  -24.0588   -3.1232   24.8831 F   0  0  0  0  0  0  0  0  0  0  0  0
  -27.9690  -17.7544   23.0687 F   0  0  0  0  0  0  0  0  0  0  0  0
  -20.4944   -6.0823   23.9114 F   0  0  0  0  0  0  0  0  0  0  0  0
  1  2  1  0  0  0  0
  1  6  2  0  0  0  0
  2  7  2  0  0  0  0
  3 10  2  0  0  0  0
  3 18  1  0  0  0  0
  4 11  1  0  0  0  0
  4 18  2  0  0  0  0
  5  9  2  0  0  0  0
  5 19  1  0  0  0  0
  6 21  1  0  0  0  0
  7 23  1  0  0  0  0
  8 12  2  0  0  0  0
  8 22  1  0  0  0  0
  9 25  1  0  0  0  0
 10 26  1  0  0  0  0
 11 26  2  0  0  0  0
 12 27  1  0  0  0  0
 13 14  2  0  0  0  0
 13 28  1  0  0  0  0
 14 29  1  0  0  0  0
 15 19  2  0  0  0  0
 15 30  1  0  0  0  0
 16 24  1  0  0  0  0
 16 27  2  0  0  0  0
 17 29  2  0  0  0  0
 17 31  1  0  0  0  0
 18 32  1  0  0  0  0
 19 34  1  0  0  0  0
 20 32  1  0  0  0  0
 20 33  2  0  0  0  0
 20 35  1  0  0  0  0
 21 23  2  0  0  0  0
 21 40  1  0  0  0  0
 22 24  2  0  0  0  0
 22 41  1  0  0  0  0
 23 49  1  0  0  0  0
 24 42  1  0  0  0  0
 25 30  2  0  0  0  0
 25 71  1  0  0  0  0
 26 82  1  0  0  0  0
 27 83  1  0  0  0  0
 28 31  2  0  0  0  0
 28 82  1  0  0  0  0
 29 84  1  0  0  0  0
 30 85  1  0  0  0  0
 31 86  1  0  0  0  0
 32 65  2  0  0  0  0
 33 66  1  0  0  0  0
 33 69  1  0  0  0  0
 34 72  1  0  0  0  0
 34 76  2  0  0  0  0
 35 70  1  0  0  0  0
 35 77  2  0  0  0  0
 36 50  1  0  0  0  0
 36 73  1  0  0  0  0
 36 78  2  0  0  0  0
 37 60  1  0  0  0  0
 37 67  1  0  0  0  0
 37 79  2  0  0  0  0
 38 61  1  0  0  0  0
 38 74  1  0  0  0  0
 38 80  2  0  0  0  0
 39 68  1  0  0  0  0
 39 71  1  0  0  0  0
 39 81  2  0  0  0  0
 40 43  1  0  0  0  0
 41 50  1  0  0  0  0
 42 67  1  0  0  0  0
 43 45  1  0  0  0  0
 44 46  1  0  0  0  0
 44 47  1  0  0  0  0
 45 49  1  0  0  0  0
 46 51  1  0  0  0  0
 47 68  1  0  0  0  0
 48 51  1  0  0  0  0
 48 68  1  0  0  0  0
 49 73  1  0  0  0  0
 50 67  1  0  0  0  0
 51 66  1  0  0  0  0
 52 61  1  0  0  0  0
 53 63  1  0  0  0  0
 54 63  1  0  0  0  0
 55 63  1  0  0  0  0
 56 64  1  0  0  0  0
 57 64  1  0  0  0  0
 58 64  1  0  0  0  0
 59 75  1  0  0  0  0
 60 63  1  0  0  0  0
 60 74  1  0  0  0  0
 61 75  1  0  0  0  0
 62 64  1  0  0  0  0
 62 72  1  0  0  0  0
 62 83  1  0  0  0  0
 65 66  1  0  0  0  0
M  CHG  1  75   1
M  ISO  4  39 100  62 101  71 100  83 101
M  END
> <Batch ID>
0077

> <Smiles>
CNC(C)C(=O)NC(C(=O)N1Cc2cc([101O:1][101CH:1](NC(=O)c3ccc([100NH:0][100C:0](=O)N4CCCC(n5nc(-c6ccc(Oc7ccc(F)cc7F)cc6)c(C(N)=O)c5N)C4)c(F)c3)C(C)(C)C)ccc2CC1C(=O)NC1CCCc2ccccc21)C(C)(C)C

> <Shape>
0.228

> <Color>
0.178

> <Negative vol penalty>
0.000

$$$$

  -OEChem-04042323533D

 86 94  0     1  0  0  0  0  0999 V2000
  -28.6769  -33.1315   26.1649 C   0  0  0  0  0  0  0  0  0  0  0  0
  -28.6917  -31.9495   25.4313 C   0  0  0  0  0  0  0  0  0  0  0  0
  -23.4939   -9.8383   21.3875 C   0  0  0  0  0  0  0  0  0  0  0  0
  -22.6865  -11.8282   20.2805 C   0  0  0  0  0  0  0  0  0  0  0  0
  -27.5189  -19.3429   18.2914 C   0  0  0  0  0  0  0  0  0  0  0  0
  -29.4822  -19.6299   19.6699 C   0  0  0  0  0  0  0  0  0  0  0  0
  -27.4669  -33.6513   26.6227 C   0  0  0  0  0  0  0  0  0  0  0  0
  -27.4965  -31.2861   25.1560 C   0  0  0  0  0  0  0  0  0  0  0  0
  -27.1976  -29.7381   20.3435 C   0  0  0  0  0  0  0  0  0  0  0  0
  -27.6741  -17.9583   18.3587 C   0  0  0  0  0  0  0  0  0  0  0  0
  -29.6374  -18.2453   19.7372 C   0  0  0  0  0  0  0  0  0  0  0  0
  -22.3139   -9.7716   22.1282 C   0  0  0  0  0  0  0  0  0  0  0  0
  -21.5064  -11.7614   21.0212 C   0  0  0  0  0  0  0  0  0  0  0  0
  -27.9068  -28.5882   19.9994 C   0  0  0  0  0  0  0  0  0  0  0  0
  -19.1254   -8.7543   21.6476 C   0  0  0  0  0  0  0  0  0  0  0  0
  -18.5049   -7.5108   21.7677 C   0  0  0  0  0  0  0  0  0  0  0  0
  -25.8752  -27.2965   20.1533 C   0  0  0  0  0  0  0  0  0  0  0  0
  -18.7402   -7.6255   24.1695 C   0  0  0  0  0  0  0  0  0  0  0  0
  -23.6803  -10.8667   20.4637 C   0  0  0  0  0  0  0  0  0  0  0  0
  -28.4230  -20.1787   18.9470 C   0  0  0  0  0  0  0  0  0  0  0  0
  -25.1527  -10.3435   18.4473 C   0  0  0  0  0  0  0  0  0  0  0  0
  -26.2553  -32.9991   26.3446 C   0  0  0  0  0  0  0  0  0  0  0  0
  -25.8216  -29.6739   20.6063 C   0  0  0  0  0  0  0  0  0  0  0  0
  -26.2692  -31.7970   25.6116 C   0  0  0  0  0  0  0  0  0  0  0  0
  -25.1504  -28.4476   20.4981 C   0  0  0  0  0  0  0  0  0  0  0  0
  -28.7333  -17.4095   19.0816 C   0  0  0  0  0  0  0  0  0  0  0  0
  -21.3202  -10.7331   21.9451 C   0  0  0  0  0  0  0  0  0  0  0  0
  -27.2462  -27.3666   19.9070 C   0  0  0  0  0  0  0  0  0  0  0  0
  -19.5533   -9.4333   22.7884 C   0  0  0  0  0  0  0  0  0  0  0  0
  -18.3123   -6.9464   23.0286 C   0  0  0  0  0  0  0  0  0  0  0  0
  -19.3607   -8.8689   24.0493 C   0  0  0  0  0  0  0  0  0  0  0  0
  -24.8992  -10.9365   19.6986 C   0  0  0  0  0  0  0  0  0  0  0  0
  -26.4446  -10.7043   18.1517 C   0  0  0  0  0  0  0  0  0  0  0  0
  -30.7787  -24.9794   17.2201 C   0  0  0  0  0  0  0  0  0  0  0  0
  -30.7057  -24.3195   18.3823 C   0  0  0  0  0  0  0  0  0  0  0  0
  -28.4870  -25.5014   20.5794 C   0  0  0  0  0  0  0  0  0  1  0  0
  -28.2579  -21.6534   18.8753 C   0  0  0  0  0  0  0  0  0  0  0  0
  -24.2968   -9.5385   17.6255 C   0  0  0  0  0  0  0  0  0  0  0  0
  -29.1922  -24.3722   20.3973 C   0  0  0  0  0  0  0  0  0  0  0  0
  -23.9903  -30.2733   23.1342 C   0  0  0  0  0  0  0  0  0  0  0  0
  -21.5821  -29.7161   21.0336 C   0  0  0  0  0  0  0  0  0  0  0  0
  -20.5473  -28.2328   18.1395 C   0  0  0  0  0  0  0  0  0  0  0  0
  -29.8849  -15.2952   19.8228 C   0  0  0  0  0  0  0  0  0  0  0  0
  -24.9769  -33.5742   26.9010 C   0  0  0  0  0  0  0  0  0  0  0  0
  -25.0660  -30.9281   20.9502 C   0  0  0  0  0  0  0  0  0  0  0  0
  -23.6703  -28.3287   20.7504 C   0  0  0  0  0  0  0  0  0  0  0  0
  -23.7191  -33.0089   26.2462 C   0  0  0  0  0  0  0  0  0  0  0  0
  -30.5932  -11.8334   20.2608 C   0  0  0  0  0  0  0  0  0  0  0  0
  -23.8064  -31.4893   26.1458 C   0  0  0  0  0  0  0  0  0  0  0  0
  -29.2377  -11.1561   20.0464 C   0  0  0  0  0  0  0  0  0  0  0  0
  -30.4504  -13.1718   20.9833 C   0  0  0  0  0  0  0  0  0  0  0  0
  -28.1439  -13.4317   20.1576 C   0  0  0  0  0  0  0  0  0  0  0  0
  -24.9912  -31.0614   25.2715 C   0  0  1  0  0  0  0  0  0  0  0  0
  -23.7649  -30.6556   21.6987 C   0  0  1  0  0  0  0  0  0  0  0  0
  -28.2304  -12.1107   19.3758 C   0  0  2  0  0  0  0  0  0  0  0  0
  -29.7744  -23.6003   21.5543 C   0  0  0  0  0  0  0  0  0  0  0  0
  -18.5138  -27.9243   16.7018 C   0  0  0  0  0  0  0  0  0  0  0  0
  -20.4929  -27.6698   23.0176 C   0  0  0  0  0  0  0  0  0  0  0  0
  -19.0715  -26.7443   21.1760 C   0  0  0  0  0  0  0  0  0  0  0  0
  -18.7518  -29.0998   21.9322 C   0  0  0  0  0  0  0  0  0  0  0  0
  -21.8297  -29.5767   15.8355 C   0  0  0  0  0  0  0  0  0  0  0  0
  -29.4172  -23.8438   18.9934 C   0  0  2  0  0  0  0  0  0  0  0  0
  -20.8092  -28.4968   20.5923 C   0  0  1  0  0  0  0  0  0  0  0  0
  -19.7524  -28.7675   16.9619 C   0  0  2  0  0  0  0  0  0  0  0  0
  -19.8096  -28.0042   21.6766 C   0  0  0  0  0  0  0  0  0  0  0  0
  -25.9461  -11.6219   20.1659 N   0  0  0  0  0  0  0  0  0  0  0  0
  -26.8699  -11.4617   19.2031 N   0  0  0  0  0  0  0  0  0  0  0  0
  -22.9767  -29.5822   21.0897 N   0  0  0  0  0  0  0  0  0  0  0  0
  -29.4838  -14.0253   20.2890 N   0  0  0  0  0  0  0  0  0  0  0  0
  -27.2468  -10.4443   17.0976 N   0  0  0  0  0  0  0  0  0  0  0  0
  -22.9997   -9.2639   18.0798 N   0  0  0  0  0  0  0  0  0  0  0  0
  -28.8899  -16.0029   19.1494 N   0  0  0  0  0  0  0  0  0  0  0  0
  -29.4177  -22.4007   19.0159 N   0  0  0  0  0  0  0  0  0  0  0  0
  -24.6702  -31.2251   23.8698 N   0  0  0  0  0  0  0  0  0  0  0  0
  -20.1863  -28.8466   19.3202 N   0  0  0  0  0  0  0  0  0  0  0  0
  -20.5892  -28.7662   15.7287 N   0  3  0  0  0  0  0  0  0  0  0  0
  -27.1342  -22.1245   18.7205 O   0  0  0  0  0  0  0  0  0  0  0  0
  -24.6768   -9.0628   16.5288 O   0  0  0  0  0  0  0  0  0  0  0  0
  -23.5766  -29.1952   23.5445 O   0  0  0  0  0  0  0  0  0  0  0  0
  -20.9716  -30.7514   21.3112 O   0  0  0  0  0  0  0  0  0  0  0  0
  -21.4003  -27.3555   18.0240 O   0  0  0  0  0  0  0  0  0  0  0  0
  -31.0349  -15.7120   19.9836 O   0  0  0  0  0  0  0  0  0  0  0  0
  -20.1685  -10.6681   22.6675 O   0  0  0  0  0  0  0  0  0  0  0  0
  -27.9361  -26.2425   19.5719 O   0  0  0  0  0  0  0  0  0  1  0  0
  -17.7150   -5.7530   23.1439 F   0  0  0  0  0  0  0  0  0  0  0  0
  -19.7686   -9.5171   25.1490 F   0  0  0  0  0  0  0  0  0  0  0  0
  1  2  1  0  0  0  0
  1  7  2  0  0  0  0
  2  8  2  0  0  0  0
  3 12  2  0  0  0  0
  3 19  1  0  0  0  0
  4 13  1  0  0  0  0
  4 19  2  0  0  0  0
  5 10  2  0  0  0  0
  5 20  1  0  0  0  0
  6 11  1  0  0  0  0
  6 20  2  0  0  0  0
  7 22  1  0  0  0  0
  8 24  1  0  0  0  0
  9 14  2  0  0  0  0
  9 23  1  0  0  0  0
 10 26  1  0  0  0  0
 11 26  2  0  0  0  0
 12 27  1  0  0  0  0
 13 27  2  0  0  0  0
 14 28  1  0  0  0  0
 15 16  2  0  0  0  0
 15 29  1  0  0  0  0
 16 30  1  0  0  0  0
 17 25  1  0  0  0  0
 17 28  2  0  0  0  0
 18 30  2  0  0  0  0
 18 31  1  0  0  0  0
 19 32  1  0  0  0  0
 20 37  1  0  0  0  0
 21 32  1  0  0  0  0
 21 33  2  0  0  0  0
 21 38  1  0  0  0  0
 22 24  2  0  0  0  0
 22 44  1  0  0  0  0
 23 25  2  0  0  0  0
 23 45  1  0  0  0  0
 24 53  1  0  0  0  0
 25 46  1  0  0  0  0
 26 72  1  0  0  0  0
 27 83  1  0  0  0  0
 28 84  1  0  0  0  0
 29 31  2  0  0  0  0
 29 83  1  0  0  0  0
 30 85  1  0  0  0  0
 31 86  1  0  0  0  0
 32 66  2  0  0  0  0
 33 67  1  0  0  0  0
 33 70  1  0  0  0  0
 34 35  2  0  0  0  0
 35 62  1  0  0  0  0
 36 39  2  0  0  0  0
 36 84  1  0  0  0  0
 37 73  1  0  0  0  0
 37 77  2  0  0  0  0
 38 71  1  0  0  0  0
 38 78  2  0  0  0  0
 39 56  1  0  0  0  0
 39 62  1  0  0  0  0
 40 54  1  0  0  0  0
 40 74  1  0  0  0  0
 40 79  2  0  0  0  0
 41 63  1  0  0  0  0
 41 68  1  0  0  0  0
 41 80  2  0  0  0  0
 42 64  1  0  0  0  0
 42 75  1  0  0  0  0
 42 81  2  0  0  0  0
 43 69  1  0  0  0  0
 43 72  1  0  0  0  0
 43 82  2  0  0  0  0
 44 47  1  0  0  0  0
 45 54  1  0  0  0  0
 46 68  1  0  0  0  0
 47 49  1  0  0  0  0
 48 50  1  0  0  0  0
 48 51  1  0  0  0  0
 49 53  1  0  0  0  0
 50 55  1  0  0  0  0
 51 69  1  0  0  0  0
 52 55  1  0  0  0  0
 52 69  1  0  0  0  0
 53 74  1  0  0  0  0
 54 68  1  0  0  0  0
 55 67  1  0  0  0  0
 57 64  1  0  0  0  0
 58 65  1  0  0  0  0
 59 65  1  0  0  0  0
 60 65  1  0  0  0  0
 61 76  1  0  0  0  0
 62 73  1  0  0  0  0
 63 65  1  0  0  0  0
 63 75  1  0  0  0  0
 64 76  1  0  0  0  0
 66 67  1  0  0  0  0
M  CHG  1  76   1
M  ISO  4  36 101  43 100  72 100  84 101
M  END
> <Batch ID>
0077

> <Smiles>
C=CC(NC(=O)c1ccc([100NH:0][100C:0](=O)N2CCCC(n3nc(-c4ccc(Oc5ccc(F)cc5F)cc4)c(C(N)=O)c3N)C2)cc1)C(C)=[101CH:1][101O:1]c1ccc2c(c1)CN(C(=O)C(NC(=O)C(C)NC)C(C)(C)C)C(C(=O)NC1CCCc3ccccc31)C2

> <Shape>
0.312

> <Color>
0.084

> <Negative vol penalty>
0.000

$$$$

  -OEChem-04042323533D

 86 95  0     1  0  0  0  0  0999 V2000
  -20.4960  -28.2068   14.7824 C   0  0  0  0  0  0  0  0  0  0  0  0
  -21.7628  -27.9468   15.2953 C   0  0  0  0  0  0  0  0  0  0  0  0
  -23.2544  -10.7941   21.1876 C   0  0  0  0  0  0  0  0  0  0  0  0
  -24.8246   -9.0204   21.6623 C   0  0  0  0  0  0  0  0  0  0  0  0
  -19.9258  -29.4689   14.9429 C   0  0  0  0  0  0  0  0  0  0  0  0
  -22.4605  -28.9491   15.9683 C   0  0  0  0  0  0  0  0  0  0  0  0
  -24.6180  -27.2843   20.2366 C   0  0  0  0  0  0  0  0  0  0  0  0
  -28.6472  -20.4739   20.0579 C   0  0  0  0  0  0  0  0  0  0  0  0
  -28.7180  -19.0809   20.0494 C   0  0  0  0  0  0  0  0  0  0  0  0
  -22.2073   -9.8728   21.2087 C   0  0  0  0  0  0  0  0  0  0  0  0
  -23.7775   -8.0991   21.6836 C   0  0  0  0  0  0  0  0  0  0  0  0
  -25.8002  -26.5561   20.1104 C   0  0  0  0  0  0  0  0  0  0  0  0
  -21.3533   -7.1351   23.8317 C   0  0  0  0  0  0  0  0  0  0  0  0
  -21.3318   -6.2046   24.8705 C   0  0  0  0  0  0  0  0  0  0  0  0
  -27.0685  -28.5287   20.6759 C   0  0  0  0  0  0  0  0  0  0  0  0
  -29.2573  -19.1225   17.6948 C   0  0  0  0  0  0  0  0  0  0  0  0
  -21.4542   -4.4060   23.2621 C   0  0  0  0  0  0  0  0  0  0  0  0
  -24.5631  -10.3679   21.4143 C   0  0  0  0  0  0  0  0  0  0  0  0
  -26.1507  -12.0572   22.4789 C   0  0  0  0  0  0  0  0  0  0  0  0
  -20.6128  -30.4844   15.6266 C   0  0  0  0  0  0  0  0  0  0  0  0
  -24.6528  -28.6451   20.5733 C   0  0  0  0  0  0  0  0  0  0  0  0
  -21.8994  -30.2264   16.1370 C   0  0  0  0  0  0  0  0  0  0  0  0
  -25.8852  -29.2712   20.8082 C   0  0  0  0  0  0  0  0  0  0  0  0
  -28.8815  -21.1913   18.8847 C   0  0  0  0  0  0  0  0  0  0  0  0
  -29.0230  -18.4052   18.8679 C   0  0  0  0  0  0  0  0  0  0  0  0
  -22.4688   -8.5253   21.4567 C   0  0  0  0  0  0  0  0  0  0  0  0
  -27.0258  -27.1790   20.3272 C   0  0  0  0  0  0  0  0  0  0  0  0
  -21.4252   -6.7010   22.5080 C   0  0  0  0  0  0  0  0  0  0  0  0
  -21.3822   -4.8400   24.5858 C   0  0  0  0  0  0  0  0  0  0  0  0
  -29.1866  -20.5156   17.7032 C   0  0  0  0  0  0  0  0  0  0  0  0
  -21.4757   -5.3365   22.2232 C   0  0  0  0  0  0  0  0  0  0  0  0
  -25.6452  -11.3190   21.3920 C   0  0  0  0  0  0  0  0  0  0  0  0
  -27.1653  -12.8101   21.9404 C   0  0  0  0  0  0  0  0  0  0  0  0
  -28.6095  -24.5555   18.9089 C   0  0  0  0  0  0  0  0  0  0  0  0
  -28.5411  -23.4607   19.8776 C   0  0  0  0  0  0  0  0  0  0  0  0
  -25.7399  -12.0618   23.8526 C   0  0  0  0  0  0  0  0  0  0  0  0
  -28.4593  -25.8983   18.9946 C   0  0  0  0  0  0  0  0  0  1  0  0
  -23.7385  -31.3334   19.1446 C   0  0  0  0  0  0  0  0  0  0  0  0
  -24.5710  -32.6657   21.9825 C   0  0  0  0  0  0  0  0  0  0  0  0
  -26.4193  -32.4681   24.8446 C   0  0  0  0  0  0  0  0  0  0  0  0
  -28.7794  -16.2197   17.7019 C   0  0  0  0  0  0  0  0  0  0  0  0
  -19.9753  -31.8470   15.7340 C   0  0  0  0  0  0  0  0  0  0  0  0
  -23.3673  -29.4100   20.7316 C   0  0  0  0  0  0  0  0  0  0  0  0
  -25.9758  -30.7249   21.1917 C   0  0  0  0  0  0  0  0  0  0  0  0
  -28.9070  -23.5431   17.8267 C   0  0  0  0  0  0  0  0  0  0  0  0
  -20.6249  -32.7422   16.7861 C   0  0  0  0  0  0  0  0  0  0  0  0
  -29.4062  -12.5950   17.4208 C   0  0  0  0  0  0  0  0  0  0  0  0
  -22.1444  -32.6988   16.6593 C   0  0  0  0  0  0  0  0  0  0  0  0
  -28.4722  -12.0052   18.4762 C   0  0  0  0  0  0  0  0  0  0  0  0
  -28.8589  -13.8972   16.8438 C   0  0  0  0  0  0  0  0  0  0  0  0
  -27.6039  -14.3338   18.9330 C   0  0  0  0  0  0  0  0  0  0  0  0
  -22.6774  -31.2804   16.8947 C   0  0  1  0  0  0  0  0  0  0  0  0
  -23.5457  -30.9170   20.5753 C   0  0  1  0  0  0  0  0  0  0  0  0
  -28.1484  -13.0435   19.5643 C   0  0  1  0  0  0  0  0  0  0  0  0
  -28.5780  -26.8378   17.8367 C   0  0  0  0  0  0  0  0  0  0  0  0
  -26.9182  -33.7256   26.9582 C   0  0  0  0  0  0  0  0  0  0  0  0
  -26.3479  -34.5889   20.4160 C   0  0  0  0  0  0  0  0  0  0  0  0
  -27.5085  -35.1538   22.5612 C   0  0  0  0  0  0  0  0  0  0  0  0
  -25.0762  -35.6397   22.2956 C   0  0  0  0  0  0  0  0  0  0  0  0
  -29.7378  -16.2883   19.9924 C   0  0  0  0  0  0  0  0  0  0  0  0
  -25.3797  -30.2718   26.5341 C   0  0  0  0  0  0  0  0  0  0  0  0
  -25.8399  -33.2442   22.5607 C   0  0  1  0  0  0  0  0  0  0  0  0
  -26.0441  -32.6683   26.3019 C   0  0  2  0  0  0  0  0  0  0  0  0
  -26.1919  -34.6297   21.9493 C   0  0  0  0  0  0  0  0  0  0  0  0
  -26.2858  -11.5795   20.2493 N   0  0  0  0  0  0  0  0  0  0  0  0
  -27.2042  -12.4899   20.6152 N   0  0  0  0  0  0  0  0  0  0  0  0
  -28.8110  -22.5650   18.8959 N   0  0  0  0  0  0  0  0  0  0  0  0
  -24.6915  -31.4317   21.3280 N   0  0  0  0  0  0  0  0  0  0  0  0
  -28.5166  -14.8495   17.9010 N   0  0  0  0  0  0  0  0  0  0  0  0
  -28.0191  -13.7083   22.4758 N   0  0  0  0  0  0  0  0  0  0  0  0
  -24.6807  -11.2278   24.2360 N   0  0  0  0  0  0  0  0  0  0  0  0
  -22.6972  -30.9761   18.3094 N   0  0  0  0  0  0  0  0  0  0  0  0
  -25.6595  -33.2583   24.0083 N   0  0  0  0  0  0  0  0  0  0  0  0
  -29.0961  -16.9632   18.8595 N   0  0  0  0  0  0  0  0  0  0  0  0
  -26.2016  -31.3933   27.0572 N   0  3  0  0  0  0  0  0  0  0  0  0
  -28.3203  -23.3783   21.0679 O   0  0  0  0  0  0  0  0  0  0  0  0
  -26.2848  -12.7962   24.7112 O   0  0  0  0  0  0  0  0  0  0  0  0
  -24.7561  -31.9355   18.8224 O   0  0  0  0  0  0  0  0  0  0  0  0
  -23.5108  -33.2824   22.1133 O   0  0  0  0  0  0  0  0  0  0  0  0
  -27.3011  -31.6913   24.4845 O   0  0  0  0  0  0  0  0  0  0  0  0
  -28.7616  -16.7306   16.5757 O   0  0  0  0  0  0  0  0  0  0  0  0
  -21.4473   -7.6261   21.4777 O   0  0  0  0  0  0  0  0  0  0  0  0
  -28.1813  -26.4707   20.2041 O   0  0  0  0  0  0  0  0  0  1  0  0
  -21.3631   -3.9466   25.5836 F   0  0  0  0  0  0  0  0  0  0  0  0
  -29.4130  -21.1947   16.5695 F   0  0  0  0  0  0  0  0  0  0  0  0
  -21.5460   -4.9135   20.9535 F   0  0  0  0  0  0  0  0  0  0  0  0
  1  2  1  0  0  0  0
  1  5  2  0  0  0  0
  2  6  2  0  0  0  0
  3 10  2  0  0  0  0
  3 18  1  0  0  0  0
  4 11  1  0  0  0  0
  4 18  2  0  0  0  0
  5 20  1  0  0  0  0
  6 22  1  0  0  0  0
  7 12  2  0  0  0  0
  7 21  1  0  0  0  0
  8  9  2  0  0  0  0
  8 24  1  0  0  0  0
  9 25  1  0  0  0  0
 10 26  1  0  0  0  0
 11 26  2  0  0  0  0
 12 27  1  0  0  0  0
 13 14  2  0  0  0  0
 13 28  1  0  0  0  0
 14 29  1  0  0  0  0
 15 23  1  0  0  0  0
 15 27  2  0  0  0  0
 16 25  2  0  0  0  0
 16 30  1  0  0  0  0
 17 29  2  0  0  0  0
 17 31  1  0  0  0  0
 18 32  1  0  0  0  0
 19 32  1  0  0  0  0
 19 33  2  0  0  0  0
 19 36  1  0  0  0  0
 20 22  2  0  0  0  0
 20 42  1  0  0  0  0
 21 23  2  0  0  0  0
 21 43  1  0  0  0  0
 22 52  1  0  0  0  0
 23 44  1  0  0  0  0
 24 30  2  0  0  0  0
 24 67  1  0  0  0  0
 25 74  1  0  0  0  0
 26 82  1  0  0  0  0
 27 83  1  0  0  0  0
 28 31  2  0  0  0  0
 28 82  1  0  0  0  0
 29 84  1  0  0  0  0
 30 85  1  0  0  0  0
 31 86  1  0  0  0  0
 32 65  2  0  0  0  0
 33 66  1  0  0  0  0
 33 70  1  0  0  0  0
 34 35  1  0  0  0  0
 34 37  2  0  0  0  0
 34 45  1  0  0  0  0
 35 67  1  0  0  0  0
 35 76  2  0  0  0  0
 36 71  1  0  0  0  0
 36 77  2  0  0  0  0
 37 55  1  0  0  0  0
 37 83  1  0  0  0  0
 38 53  1  0  0  0  0
 38 72  1  0  0  0  0
 38 78  2  0  0  0  0
 39 62  1  0  0  0  0
 39 68  1  0  0  0  0
 39 79  2  0  0  0  0
 40 63  1  0  0  0  0
 40 73  1  0  0  0  0
 40 80  2  0  0  0  0
 41 69  1  0  0  0  0
 41 74  1  0  0  0  0
 41 81  2  0  0  0  0
 42 46  1  0  0  0  0
 43 53  1  0  0  0  0
 44 68  1  0  0  0  0
 45 67  1  0  0  0  0
 46 48  1  0  0  0  0
 47 49  1  0  0  0  0
 47 50  1  0  0  0  0
 48 52  1  0  0  0  0
 49 54  1  0  0  0  0
 50 69  1  0  0  0  0
 51 54  1  0  0  0  0
 51 69  1  0  0  0  0
 52 72  1  0  0  0  0
 53 68  1  0  0  0  0
 54 66  1  0  0  0  0
 56 63  1  0  0  0  0
 57 64  1  0  0  0  0
 58 64  1  0  0  0  0
 59 64  1  0  0  0  0
 60 74  1  0  0  0  0
 61 75  1  0  0  0  0
 62 64  1  0  0  0  0
 62 73  1  0  0  0  0
 63 75  1  0  0  0  0
 65 66  1  0  0  0  0
M  CHG  1  75   1
M  ISO  4  37 101  41 100  74 100  83 101
M  END
> <Batch ID>
0077

> <Smiles>
CNC(C)C(=O)NC(C(=O)N1Cc2cc([101O:1][101C:1](C)=C3CN(c4ccc([100N:0](C)[100C:0](=O)N5CCCC(n6nc(-c7ccc(Oc8ccc(F)cc8F)cc7)c(C(N)=O)c6N)C5)cc4F)C3=O)ccc2CC1C(=O)NC1CCCc2ccccc21)C(C)(C)C

> <Shape>
0.331

> <Color>
0.128

> <Negative vol penalty>
0.000

$$$$

  -OEChem-04042323533D

 84 93  0     1  0  0  0  0  0999 V2000
  -17.0849  -26.8281   22.2890 C   0  0  0  0  0  0  0  0  0  0  0  0
  -18.3069  -26.2141   22.5439 C   0  0  0  0  0  0  0  0  0  0  0  0
  -24.1989   -9.5994   21.6073 C   0  0  0  0  0  0  0  0  0  0  0  0
  -24.6921  -10.8027   23.6435 C   0  0  0  0  0  0  0  0  0  0  0  0
  -17.0506  -28.0973   21.7128 C   0  0  0  0  0  0  0  0  0  0  0  0
  -19.4954  -26.8684   22.2218 C   0  0  0  0  0  0  0  0  0  0  0  0
  -24.7925  -26.6001   25.2836 C   0  0  0  0  0  0  0  0  0  0  0  0
  -28.4737  -20.7769   21.3744 C   0  0  0  0  0  0  0  0  0  0  0  0
  -30.8556  -20.4457   21.1416 C   0  0  0  0  0  0  0  0  0  0  0  0
  -28.2508  -19.4627   20.9636 C   0  0  0  0  0  0  0  0  0  0  0  0
  -30.6327  -19.1314   20.7309 C   0  0  0  0  0  0  0  0  0  0  0  0
  -23.7861   -8.4986   22.3578 C   0  0  0  0  0  0  0  0  0  0  0  0
  -24.2792   -9.7019   24.3940 C   0  0  0  0  0  0  0  0  0  0  0  0
  -25.9544  -25.8557   25.0844 C   0  0  0  0  0  0  0  0  0  0  0  0
  -21.0480   -7.5615   24.1064 C   0  0  0  0  0  0  0  0  0  0  0  0
  -19.8618   -6.9301   23.7325 C   0  0  0  0  0  0  0  0  0  0  0  0
  -26.9383  -27.7175   23.9077 C   0  0  0  0  0  0  0  0  0  0  0  0
  -21.0725   -4.8711   23.3689 C   0  0  0  0  0  0  0  0  0  0  0  0
  -24.6520  -10.7515   22.2501 C   0  0  0  0  0  0  0  0  0  0  0  0
  -24.2843  -12.9632   21.0332 C   0  0  0  0  0  0  0  0  0  0  0  0
  -18.2394  -28.7715   21.3923 C   0  0  0  0  0  0  0  0  0  0  0  0
  -24.6905  -27.9071   24.7860 C   0  0  0  0  0  0  0  0  0  0  0  0
  -19.4769  -28.1472   21.6395 C   0  0  0  0  0  0  0  0  0  0  0  0
  -25.7750  -28.4773   24.1041 C   0  0  0  0  0  0  0  0  0  0  0  0
  -29.7761  -21.2685   21.4633 C   0  0  0  0  0  0  0  0  0  0  0  0
  -29.3303  -18.6399   20.6419 C   0  0  0  0  0  0  0  0  0  0  0  0
  -23.8261   -8.5498   23.7512 C   0  0  0  0  0  0  0  0  0  0  0  0
  -27.0264  -26.4133   24.3938 C   0  0  0  0  0  0  0  0  0  0  0  0
  -22.2464   -6.8478   24.1116 C   0  0  0  0  0  0  0  0  0  0  0  0
  -19.8741   -5.5849   23.3637 C   0  0  0  0  0  0  0  0  0  0  0  0
  -22.2587   -5.5026   23.7429 C   0  0  0  0  0  0  0  0  0  0  0  0
  -25.0792  -11.8888   21.4754 C   0  0  0  0  0  0  0  0  0  0  0  0
  -25.1540  -13.7732   20.3448 C   0  0  0  0  0  0  0  0  0  0  0  0
  -30.9674  -24.5579   22.4571 C   0  0  0  0  0  0  0  0  0  0  0  0
  -29.6537  -24.7540   22.5894 C   0  0  0  0  0  0  0  0  0  0  0  0
  -28.9861  -23.4845   22.2169 C   0  0  0  0  0  0  0  0  0  0  0  0
  -22.8848  -13.2072   21.2274 C   0  0  0  0  0  0  0  0  0  0  0  0
  -22.8051  -29.3663   22.6837 C   0  0  0  0  0  0  0  0  0  0  0  0
  -24.3797  -32.0151   23.6970 C   0  0  0  0  0  0  0  0  0  0  0  0
  -27.1765  -33.3559   25.1207 C   0  0  0  0  0  0  0  0  0  0  0  0
  -30.0633  -16.3570   19.8692 C   0  0  0  0  0  0  0  0  0  0  0  0
  -18.1512  -30.1224   20.7273 C   0  0  0  0  0  0  0  0  0  0  0  0
  -23.4404  -28.7064   25.0325 C   0  0  0  0  0  0  0  0  0  0  0  0
  -25.7235  -29.8837   23.5676 C   0  0  0  0  0  0  0  0  0  0  0  0
  -31.3056  -23.1863   21.9984 C   0  0  0  0  0  0  0  0  0  0  0  0
  -19.4618  -30.9044   20.7606 C   0  0  0  0  0  0  0  0  0  0  0  0
  -29.9122  -12.9568   18.8235 C   0  0  0  0  0  0  0  0  0  0  0  0
  -20.6280  -30.0093   20.3537 C   0  0  0  0  0  0  0  0  0  0  0  0
  -28.5760  -12.4642   19.3838 C   0  0  0  0  0  0  0  0  0  0  0  0
  -30.6013  -13.9328   19.7756 C   0  0  0  0  0  0  0  0  0  0  0  0
  -28.4391  -14.5756   20.7660 C   0  0  0  0  0  0  0  0  0  0  0  0
  -20.7881  -28.8352   21.3270 C   0  0  1  0  0  0  0  0  0  0  0  0
  -23.2533  -29.8457   24.0353 C   0  0  1  0  0  0  0  0  0  0  0  0
  -27.6770  -13.6403   19.8130 C   0  0  2  0  0  0  0  0  0  0  0  0
  -28.1886  -35.5542   25.7841 C   0  0  0  0  0  0  0  0  0  0  0  0
  -25.0244  -32.5980   20.7722 C   0  0  0  0  0  0  0  0  0  0  0  0
  -26.7805  -34.2033   21.5516 C   0  0  0  0  0  0  0  0  0  0  0  0
  -24.3850  -34.6055   22.1196 C   0  0  0  0  0  0  0  0  0  0  0  0
  -27.2980  -32.5716   27.9719 C   0  0  0  0  0  0  0  0  0  0  0  0
  -28.9151  -25.9690   23.0185 C   0  0  0  0  0  0  0  0  0  1  0  0
  -25.6365  -32.7380   23.2765 C   0  0  1  0  0  0  0  0  0  0  0  0
  -27.3513  -34.3686   26.2380 C   0  0  2  0  0  0  0  0  0  0  0  0
  -25.4571  -33.5090   21.9383 C   0  0  0  0  0  0  0  0  0  0  0  0
  -26.3558  -12.0029   21.0993 N   0  0  0  0  0  0  0  0  0  0  0  0
  -26.3696  -13.1586   20.4135 N   0  0  0  0  0  0  0  0  0  0  0  0
  -29.9983  -22.5778   21.8721 N   0  0  0  0  0  0  0  0  0  0  0  0
  -24.4772  -30.6226   23.8286 N   0  0  0  0  0  0  0  0  0  0  0  0
  -29.6911  -15.0223   20.1353 N   0  0  0  0  0  0  0  0  0  0  0  0
  -24.9899  -14.9442   19.6934 N   0  0  0  0  0  0  0  0  0  0  0  0
  -22.1390  -12.2731   21.9592 N   0  0  0  0  0  0  0  0  0  0  0  0
  -29.1042  -17.3048   20.2247 N   0  0  0  0  0  0  0  0  0  0  0  0
  -21.4332  -29.2737   22.5460 N   0  0  0  0  0  0  0  0  0  0  0  0
  -26.0198  -33.5801   24.4045 N   0  0  0  0  0  0  0  0  0  0  0  0
  -28.0251  -33.7379   27.4081 N   0  3  0  0  0  0  0  0  0  0  0  0
  -27.7776  -23.3128   22.2256 O   0  0  0  0  0  0  0  0  0  0  0  0
  -22.3093  -14.2152   20.7518 O   0  0  0  0  0  0  0  0  0  0  0  0
  -23.6418  -29.1015   21.8285 O   0  0  0  0  0  0  0  0  0  0  0  0
  -23.3513  -32.6628   23.9080 O   0  0  0  0  0  0  0  0  0  0  0  0
  -27.9870  -32.4580   24.9027 O   0  0  0  0  0  0  0  0  0  0  0  0
  -31.1411  -16.6365   19.3381 O   0  0  0  0  0  0  0  0  0  0  0  0
  -23.4231   -7.4759   24.4839 O   0  0  0  0  0  0  0  0  0  0  0  0
  -28.1614  -25.6887   24.1974 O   0  0  0  0  0  0  0  0  0  1  0  0
  -18.7347   -4.9782   23.0061 F   0  0  0  0  0  0  0  0  0  0  0  0
  -23.4068   -4.8115   23.7470 F   0  0  0  0  0  0  0  0  0  0  0  0
  1  2  1  0  0  0  0
  1  5  2  0  0  0  0
  2  6  2  0  0  0  0
  3 12  2  0  0  0  0
  3 19  1  0  0  0  0
  4 13  1  0  0  0  0
  4 19  2  0  0  0  0
  5 21  1  0  0  0  0
  6 23  1  0  0  0  0
  7 14  2  0  0  0  0
  7 22  1  0  0  0  0
  8 10  2  0  0  0  0
  8 25  1  0  0  0  0
  9 11  1  0  0  0  0
  9 25  2  0  0  0  0
 10 26  1  0  0  0  0
 11 26  2  0  0  0  0
 12 27  1  0  0  0  0
 13 27  2  0  0  0  0
 14 28  1  0  0  0  0
 15 16  2  0  0  0  0
 15 29  1  0  0  0  0
 16 30  1  0  0  0  0
 17 24  1  0  0  0  0
 17 28  2  0  0  0  0
 18 30  2  0  0  0  0
 18 31  1  0  0  0  0
 19 32  1  0  0  0  0
 20 32  1  0  0  0  0
 20 33  2  0  0  0  0
 20 37  1  0  0  0  0
 21 23  2  0  0  0  0
 21 42  1  0  0  0  0
 22 24  2  0  0  0  0
 22 43  1  0  0  0  0
 23 52  1  0  0  0  0
 24 44  1  0  0  0  0
 25 66  1  0  0  0  0
 26 71  1  0  0  0  0
 27 81  1  0  0  0  0
 28 82  1  0  0  0  0
 29 31  2  0  0  0  0
 29 81  1  0  0  0  0
 30 83  1  0  0  0  0
 31 84  1  0  0  0  0
 32 64  2  0  0  0  0
 33 65  1  0  0  0  0
 33 69  1  0  0  0  0
 34 35  2  0  0  0  0
 34 45  1  0  0  0  0
 35 36  1  0  0  0  0
 35 60  1  0  0  0  0
 36 66  1  0  0  0  0
 36 75  2  0  0  0  0
 37 70  1  0  0  0  0
 37 76  2  0  0  0  0
 38 53  1  0  0  0  0
 38 72  1  0  0  0  0
 38 77  2  0  0  0  0
 39 61  1  0  0  0  0
 39 67  1  0  0  0  0
 39 78  2  0  0  0  0
 40 62  1  0  0  0  0
 40 73  1  0  0  0  0
 40 79  2  0  0  0  0
 41 68  1  0  0  0  0
 41 71  1  0  0  0  0
 41 80  2  0  0  0  0
 42 46  1  0  0  0  0
 43 53  1  0  0  0  0
 44 67  1  0  0  0  0
 45 66  1  0  0  0  0
 46 48  1  0  0  0  0
 47 49  1  0  0  0  0
 47 50  1  0  0  0  0
 48 52  1  0  0  0  0
 49 54  1  0  0  0  0
 50 68  1  0  0  0  0
 51 54  1  0  0  0  0
 51 68  1  0  0  0  0
 52 72  1  0  0  0  0
 53 67  1  0  0  0  0
 54 65  1  0  0  0  0
 55 62  1  0  0  0  0
 56 63  1  0  0  0  0
 57 63  1  0  0  0  0
 58 63  1  0  0  0  0
 59 74  1  0  0  0  0
 60 82  1  0  0  0  0
 61 63  1  0  0  0  0
 61 73  1  0  0  0  0
 62 74  1  0  0  0  0
 64 65  1  0  0  0  0
M  CHG  1  74   1
M  ISO  4  41 100  60 101  71 100  82 101
M  END
> <Batch ID>
0077

> <Smiles>
CNC(C)C(=O)NC(C(=O)N1Cc2cc([101O:1][101CH2:1]C3=CCN(c4ccc([100NH:0][100C:0](=O)N5CCCC(n6nc(-c7ccc(Oc8ccc(F)cc8F)cc7)c(C(N)=O)c6N)C5)cc4)C3=O)ccc2CC1C(=O)NC1CCCc2ccccc21)C(C)(C)C

> <Shape>
0.299

> <Color>
0.155

> <Negative vol penalty>
0.000

$$$$

  -OEChem-04042323533D

 86 95  0     1  0  0  0  0  0999 V2000
  -27.8174  -34.0452   24.9518 C   0  0  0  0  0  0  0  0  0  0  0  0
  -28.0289  -32.7780   24.4181 C   0  0  0  0  0  0  0  0  0  0  0  0
  -25.9454  -18.9909   16.6568 C   0  0  0  0  0  0  0  0  0  0  0  0
  -24.3562   -9.6058   21.7095 C   0  0  0  0  0  0  0  0  0  0  0  0
  -23.4233  -10.7772   19.8136 C   0  0  0  0  0  0  0  0  0  0  0  0
  -26.5571  -34.3960   25.4339 C   0  0  0  0  0  0  0  0  0  0  0  0
  -26.9802  -31.8603   24.3673 C   0  0  0  0  0  0  0  0  0  0  0  0
  -26.7095  -29.4643   19.9141 C   0  0  0  0  0  0  0  0  0  0  0  0
  -26.2190  -20.2499   17.1912 C   0  0  0  0  0  0  0  0  0  0  0  0
  -26.5018  -17.8509   17.2370 C   0  0  0  0  0  0  0  0  0  0  0  0
  -23.0752   -9.2136   22.0976 C   0  0  0  0  0  0  0  0  0  0  0  0
  -22.1422  -10.3849   20.2016 C   0  0  0  0  0  0  0  0  0  0  0  0
  -27.6166  -28.4291   19.6919 C   0  0  0  0  0  0  0  0  0  0  0  0
  -20.8068   -6.8734   21.1970 C   0  0  0  0  0  0  0  0  0  0  0  0
  -20.6232   -5.5439   21.5769 C   0  0  0  0  0  0  0  0  0  0  0  0
  -25.9060  -26.8199   20.2427 C   0  0  0  0  0  0  0  0  0  0  0  0
  -27.6056  -19.2291   18.8861 C   0  0  0  0  0  0  0  0  0  0  0  0
  -19.8976   -6.2692   23.7643 C   0  0  0  0  0  0  0  0  0  0  0  0
  -24.5303  -10.3877   20.5676 C   0  0  0  0  0  0  0  0  0  0  0  0
  -26.7307  -10.1040   19.3084 C   0  0  0  0  0  0  0  0  0  0  0  0
  -25.4900  -33.4854   25.3801 C   0  0  0  0  0  0  0  0  0  0  0  0
  -25.3947  -29.1849   20.3136 C   0  0  0  0  0  0  0  0  0  0  0  0
  -25.7048  -32.1987   24.8504 C   0  0  0  0  0  0  0  0  0  0  0  0
  -24.9834  -27.8532   20.4669 C   0  0  0  0  0  0  0  0  0  0  0  0
  -27.0492  -20.3690   18.3058 C   0  0  0  0  0  0  0  0  0  0  0  0
  -27.3319  -17.9701   18.3516 C   0  0  0  0  0  0  0  0  0  0  0  0
  -21.9682   -9.6031   21.3436 C   0  0  0  0  0  0  0  0  0  0  0  0
  -27.2158  -27.1068   19.8589 C   0  0  0  0  0  0  0  0  0  0  0  0
  -20.5359   -7.9008   22.1008 C   0  0  0  0  0  0  0  0  0  0  0  0
  -20.1685   -5.2418   22.8605 C   0  0  0  0  0  0  0  0  0  0  0  0
  -20.0813   -7.5987   23.3844 C   0  0  0  0  0  0  0  0  0  0  0  0
  -25.8533  -10.7937   20.1665 C   0  0  0  0  0  0  0  0  0  0  0  0
  -27.8487  -10.8996   19.2488 C   0  0  0  0  0  0  0  0  0  0  0  0
  -27.6714  -23.8824   18.9977 C   0  0  0  0  0  0  0  0  0  0  0  0
  -27.8244  -23.3182   20.3458 C   0  0  0  0  0  0  0  0  0  0  0  0
  -27.3513  -22.7970   18.0485 C   0  0  0  0  0  0  0  0  0  0  0  0
  -26.5511   -8.8558   18.6262 C   0  0  0  0  0  0  0  0  0  0  0  0
  -27.8008  -25.1747   18.6777 C   0  0  0  0  0  0  0  0  0  1  0  0
  -23.6383  -29.8566   22.8763 C   0  0  0  0  0  0  0  0  0  0  0  0
  -21.2708  -28.4892   21.1305 C   0  0  0  0  0  0  0  0  0  0  0  0
  -20.3858  -26.3512   18.6221 C   0  0  0  0  0  0  0  0  0  0  0  0
  -28.7407  -16.7535   20.0493 C   0  0  0  0  0  0  0  0  0  0  0  0
  -24.1576  -33.8937   25.9568 C   0  0  0  0  0  0  0  0  0  0  0  0
  -24.4208  -30.3118   20.5234 C   0  0  0  0  0  0  0  0  0  0  0  0
  -23.5774  -27.4994   20.8747 C   0  0  0  0  0  0  0  0  0  0  0  0
  -27.6007  -21.8366   20.2719 C   0  0  0  0  0  0  0  0  0  0  0  0
  -23.0044  -32.9922   25.5235 C   0  0  0  0  0  0  0  0  0  0  0  0
  -30.3109  -14.0977   21.8264 C   0  0  0  0  0  0  0  0  0  0  0  0
  -23.3946  -31.5238   25.6589 C   0  0  0  0  0  0  0  0  0  0  0  0
  -29.4293  -12.8850   21.5194 C   0  0  0  0  0  0  0  0  0  0  0  0
  -29.4862  -15.3747   21.9775 C   0  0  0  0  0  0  0  0  0  0  0  0
  -27.7019  -14.4544   20.5497 C   0  0  0  0  0  0  0  0  0  0  0  0
  -24.5860  -31.1840   24.7553 C   0  0  1  0  0  0  0  0  0  0  0  0
  -23.2516  -29.9309   21.4263 C   0  0  1  0  0  0  0  0  0  0  0  0
  -28.4941  -13.1562   20.3246 C   0  0  2  0  0  0  0  0  0  0  0  0
  -27.6359  -25.7042   17.2895 C   0  0  0  0  0  0  0  0  0  0  0  0
  -18.3741  -25.4119   17.4523 C   0  0  0  0  0  0  0  0  0  0  0  0
  -20.7477  -26.6525   23.5102 C   0  0  0  0  0  0  0  0  0  0  0  0
  -19.4355  -25.1637   21.9837 C   0  0  0  0  0  0  0  0  0  0  0  0
  -18.6873  -27.5099   22.3815 C   0  0  0  0  0  0  0  0  0  0  0  0
  -21.2218  -27.4904   16.0216 C   0  0  0  0  0  0  0  0  0  0  0  0
  -20.7383  -27.0863   20.9651 C   0  0  1  0  0  0  0  0  0  0  0  0
  -19.4274  -26.5088   17.4554 C   0  0  2  0  0  0  0  0  0  0  0  0
  -19.9293  -26.6095   22.2043 C   0  0  0  0  0  0  0  0  0  0  0  0
  -26.3696  -11.9392   20.6196 N   0  0  0  0  0  0  0  0  0  0  0  0
  -27.5835  -11.9754   20.0441 N   0  0  0  0  0  0  0  0  0  0  0  0
  -27.3216  -21.6266   18.8393 N   0  0  0  0  0  0  0  0  0  0  0  0
  -22.6640  -28.6367   21.0742 N   0  0  0  0  0  0  0  0  0  0  0  0
  -28.6278  -15.5686   20.8069 N   0  0  0  0  0  0  0  0  0  0  0  0
  -29.0230  -10.7768   18.5942 N   0  0  0  0  0  0  0  0  0  0  0  0
  -25.3417   -8.1686   18.7977 N   0  0  0  0  0  0  0  0  0  0  0  0
  -27.8968  -16.8117   18.9407 N   0  0  0  0  0  0  0  0  0  0  0  0
  -24.1528  -31.0349   23.3825 N   0  0  0  0  0  0  0  0  0  0  0  0
  -19.9800  -27.0819   19.7187 N   0  0  0  0  0  0  0  0  0  0  0  0
  -20.1694  -26.4516   16.1642 N   0  3  0  0  0  0  0  0  0  0  0  0
  -28.0891  -23.9480   21.3554 O   0  0  0  0  0  0  0  0  0  0  0  0
  -27.1616  -22.9248   16.8516 O   0  0  0  0  0  0  0  0  0  0  0  0
  -27.4432   -8.3564   17.8994 O   0  0  0  0  0  0  0  0  0  0  0  0
  -23.4801  -28.8082   23.4908 O   0  0  0  0  0  0  0  0  0  0  0  0
  -20.4795  -29.4208   21.2963 O   0  0  0  0  0  0  0  0  0  0  0  0
  -21.3916  -25.6470   18.5674 O   0  0  0  0  0  0  0  0  0  0  0  0
  -29.5473  -17.6388   20.3454 O   0  0  0  0  0  0  0  0  0  0  0  0
  -20.7180   -9.2203   21.7218 O   0  0  0  0  0  0  0  0  0  0  0  0
  -28.0993  -26.0945   19.6433 O   0  0  0  0  0  0  0  0  0  1  0  0
  -19.9908   -3.9651   23.2247 F   0  0  0  0  0  0  0  0  0  0  0  0
  -19.8182   -8.5815   24.2566 F   0  0  0  0  0  0  0  0  0  0  0  0
  1  2  1  0  0  0  0
  1  6  2  0  0  0  0
  2  7  2  0  0  0  0
  3  9  2  0  0  0  0
  3 10  1  0  0  0  0
  4 11  2  0  0  0  0
  4 19  1  0  0  0  0
  5 12  1  0  0  0  0
  5 19  2  0  0  0  0
  6 21  1  0  0  0  0
  7 23  1  0  0  0  0
  8 13  2  0  0  0  0
  8 22  1  0  0  0  0
  9 25  1  0  0  0  0
 10 26  2  0  0  0  0
 11 27  1  0  0  0  0
 12 27  2  0  0  0  0
 13 28  1  0  0  0  0
 14 15  2  0  0  0  0
 14 29  1  0  0  0  0
 15 30  1  0  0  0  0
 16 24  1  0  0  0  0
 16 28  2  0  0  0  0
 17 25  2  0  0  0  0
 17 26  1  0  0  0  0
 18 30  2  0  0  0  0
 18 31  1  0  0  0  0
 19 32  1  0  0  0  0
 20 32  1  0  0  0  0
 20 33  2  0  0  0  0
 20 37  1  0  0  0  0
 21 23  2  0  0  0  0
 21 43  1  0  0  0  0
 22 24  2  0  0  0  0
 22 44  1  0  0  0  0
 23 53  1  0  0  0  0
 24 45  1  0  0  0  0
 25 67  1  0  0  0  0
 26 72  1  0  0  0  0
 27 83  1  0  0  0  0
 28 84  1  0  0  0  0
 29 31  2  0  0  0  0
 29 83  1  0  0  0  0
 30 85  1  0  0  0  0
 31 86  1  0  0  0  0
 32 65  2  0  0  0  0
 33 66  1  0  0  0  0
 33 70  1  0  0  0  0
 34 35  1  0  0  0  0
 34 36  1  0  0  0  0
 34 38  2  0  0  0  0
 35 46  1  0  0  0  0
 35 76  2  0  0  0  0
 36 67  1  0  0  0  0
 36 77  2  0  0  0  0
 37 71  1  0  0  0  0
 37 78  2  0  0  0  0
 38 56  1  0  0  0  0
 38 84  1  0  0  0  0
 39 54  1  0  0  0  0
 39 73  1  0  0  0  0
 39 79  2  0  0  0  0
 40 62  1  0  0  0  0
 40 68  1  0  0  0  0
 40 80  2  0  0  0  0
 41 63  1  0  0  0  0
 41 74  1  0  0  0  0
 41 81  2  0  0  0  0
 42 69  1  0  0  0  0
 42 72  1  0  0  0  0
 42 82  2  0  0  0  0
 43 47  1  0  0  0  0
 44 54  1  0  0  0  0
 45 68  1  0  0  0  0
 46 67  1  0  0  0  0
 47 49  1  0  0  0  0
 48 50  1  0  0  0  0
 48 51  1  0  0  0  0
 49 53  1  0  0  0  0
 50 55  1  0  0  0  0
 51 69  1  0  0  0  0
 52 55  1  0  0  0  0
 52 69  1  0  0  0  0
 53 73  1  0  0  0  0
 54 68  1  0  0  0  0
 55 66  1  0  0  0  0
 57 63  1  0  0  0  0
 58 64  1  0  0  0  0
 59 64  1  0  0  0  0
 60 64  1  0  0  0  0
 61 75  1  0  0  0  0
 62 64  1  0  0  0  0
 62 74  1  0  0  0  0
 63 75  1  0  0  0  0
 65 66  1  0  0  0  0
M  CHG  1  75   1
M  ISO  4  38 101  42 100  72 100  84 101
M  END
> <Batch ID>
0077

> <Smiles>
CNC(C)C(=O)NC(C(=O)N1Cc2cc([101O:1][101C:1](C)=C3C(=O)CN(c4cccc([100NH:0][100C:0](=O)N5CCCC(n6nc(-c7ccc(Oc8ccc(F)cc8F)cc7)c(C(N)=O)c6N)C5)c4)C3=O)ccc2CC1C(=O)NC1CCCc2ccccc21)C(C)(C)C

> <Shape>
0.289

> <Color>
0.082

> <Negative vol penalty>
0.000

$$$$

  -OEChem-04042323533D

 85 94  0     1  0  0  0  0  0999 V2000
  -26.4768  -35.0756   23.4368 C   0  0  0  0  0  0  0  0  0  0  0  0
  -26.9386  -33.7900   23.1734 C   0  0  0  0  0  0  0  0  0  0  0  0
  -28.9895  -19.9592   23.6018 C   0  0  0  0  0  0  0  0  0  0  0  0
  -23.3140  -10.5120   21.9924 C   0  0  0  0  0  0  0  0  0  0  0  0
  -24.7550   -8.8342   21.0200 C   0  0  0  0  0  0  0  0  0  0  0  0
  -25.1808  -35.2652   23.9146 C   0  0  0  0  0  0  0  0  0  0  0  0
  -26.1050  -32.6932   23.3886 C   0  0  0  0  0  0  0  0  0  0  0  0
  -26.2543  -29.3620   19.5773 C   0  0  0  0  0  0  0  0  0  0  0  0
  -28.8843  -21.1533   22.8886 C   0  0  0  0  0  0  0  0  0  0  0  0
  -28.9052  -18.7378   22.9334 C   0  0  0  0  0  0  0  0  0  0  0  0
  -22.2458   -9.6158   21.9557 C   0  0  0  0  0  0  0  0  0  0  0  0
  -23.6868   -7.9380   20.9834 C   0  0  0  0  0  0  0  0  0  0  0  0
  -27.3537  -28.5064   19.5222 C   0  0  0  0  0  0  0  0  0  0  0  0
  -22.0536   -5.9220   23.1487 C   0  0  0  0  0  0  0  0  0  0  0  0
  -22.2895   -4.6168   23.5805 C   0  0  0  0  0  0  0  0  0  0  0  0
  -26.0299  -26.7511   20.5150 C   0  0  0  0  0  0  0  0  0  0  0  0
  -28.6102  -19.9046   20.8385 C   0  0  0  0  0  0  0  0  0  0  0  0
  -21.6648   -3.7828   21.4008 C   0  0  0  0  0  0  0  0  0  0  0  0
  -24.5686  -10.1212   21.5245 C   0  0  0  0  0  0  0  0  0  0  0  0
  -26.5934  -11.2297   22.6104 C   0  0  0  0  0  0  0  0  0  0  0  0
  -24.3275  -34.1708   24.1267 C   0  0  0  0  0  0  0  0  0  0  0  0
  -25.0354  -28.9211   20.1127 C   0  0  0  0  0  0  0  0  0  0  0  0
  -24.7968  -32.8682   23.8710 C   0  0  0  0  0  0  0  0  0  0  0  0
  -24.9158  -27.6022   20.5735 C   0  0  0  0  0  0  0  0  0  0  0  0
  -28.6946  -21.1260   21.5070 C   0  0  0  0  0  0  0  0  0  0  0  0
  -28.7155  -18.7105   21.5517 C   0  0  0  0  0  0  0  0  0  0  0  0
  -22.4322   -8.3288   21.4512 C   0  0  0  0  0  0  0  0  0  0  0  0
  -27.2425  -27.2016   19.9937 C   0  0  0  0  0  0  0  0  0  0  0  0
  -21.6232   -6.1576   21.8429 C   0  0  0  0  0  0  0  0  0  0  0  0
  -22.0952   -3.5472   22.7066 C   0  0  0  0  0  0  0  0  0  0  0  0
  -21.4288   -5.0879   20.9690 C   0  0  0  0  0  0  0  0  0  0  0  0
  -25.6724  -11.0467   21.5616 C   0  0  0  0  0  0  0  0  0  0  0  0
  -27.4370  -12.2149   22.1585 C   0  0  0  0  0  0  0  0  0  0  0  0
  -28.3469  -24.0246   19.8128 C   0  0  0  0  0  0  0  0  0  0  0  0
  -28.6362  -23.6049   21.1846 C   0  0  0  0  0  0  0  0  0  0  0  0
  -26.6789  -10.5682   23.8796 C   0  0  0  0  0  0  0  0  0  0  0  0
  -28.1960  -25.2124   19.2164 C   0  0  0  0  0  0  0  0  0  1  0  0
  -23.2286  -29.7806   22.5825 C   0  0  0  0  0  0  0  0  0  0  0  0
  -21.1663  -27.6135   21.3283 C   0  0  0  0  0  0  0  0  0  0  0  0
  -20.6996  -24.8382   19.3978 C   0  0  0  0  0  0  0  0  0  0  0  0
  -27.8590  -17.3041   19.6853 C   0  0  0  0  0  0  0  0  0  0  0  0
  -22.9508  -34.4220   24.6891 C   0  0  0  0  0  0  0  0  0  0  0  0
  -23.8513  -29.8481   20.1405 C   0  0  0  0  0  0  0  0  0  0  0  0
  -23.6236  -27.0739   21.1388 C   0  0  0  0  0  0  0  0  0  0  0  0
  -28.2981  -22.5694   19.4069 C   0  0  0  0  0  0  0  0  0  0  0  0
  -22.0039  -33.2346   24.5349 C   0  0  0  0  0  0  0  0  0  0  0  0
  -27.9651  -14.2766   17.5798 C   0  0  0  0  0  0  0  0  0  0  0  0
  -22.6961  -31.9418   24.9548 C   0  0  0  0  0  0  0  0  0  0  0  0
  -27.3905  -13.2013   18.5005 C   0  0  0  0  0  0  0  0  0  0  0  0
  -27.3948  -15.6563   17.8948 C   0  0  0  0  0  0  0  0  0  0  0  0
  -26.9816  -14.9859   20.2421 C   0  0  0  0  0  0  0  0  0  0  0  0
  -23.9140  -31.6550   24.0683 C   0  0  1  0  0  0  0  0  0  0  0  0
  -22.8062  -29.4514   21.1787 C   0  0  1  0  0  0  0  0  0  0  0  0
  -27.5692  -13.5913   19.9780 C   0  0  1  0  0  0  0  0  0  0  0  0
  -27.8962  -25.3757   17.7611 C   0  0  0  0  0  0  0  0  0  0  0  0
  -18.9068  -23.2791   18.5902 C   0  0  0  0  0  0  0  0  0  0  0  0
  -21.0874  -26.2857   24.0743 C   0  0  0  0  0  0  0  0  0  0  0  0
  -20.0866  -24.2629   22.9904 C   0  0  0  0  0  0  0  0  0  0  0  0
  -18.8710  -26.4403   22.9263 C   0  0  0  0  0  0  0  0  0  0  0  0
  -29.5430  -16.3690   21.2535 C   0  0  0  0  0  0  0  0  0  0  0  0
  -21.2262  -25.5139   16.5649 C   0  0  0  0  0  0  0  0  0  0  0  0
  -20.9366  -26.1315   21.5015 C   0  0  1  0  0  0  0  0  0  0  0  0
  -19.7065  -24.5372   18.2898 C   0  0  2  0  0  0  0  0  0  0  0  0
  -20.2705  -25.7904   22.8643 C   0  0  0  0  0  0  0  0  0  0  0  0
  -25.9083  -11.8513   20.5219 N   0  0  0  0  0  0  0  0  0  0  0  0
  -26.9872  -12.5494   20.9151 N   0  0  0  0  0  0  0  0  0  0  0  0
  -28.5914  -22.3040   20.8042 N   0  0  0  0  0  0  0  0  0  0  0  0
  -22.4961  -28.0206   21.1504 N   0  0  0  0  0  0  0  0  0  0  0  0
  -27.5365  -15.9833   19.3141 N   0  0  0  0  0  0  0  0  0  0  0  0
  -28.5122  -12.8192   22.7075 N   0  0  0  0  0  0  0  0  0  0  0  0
  -25.7323   -9.5802   24.1831 N   0  0  0  0  0  0  0  0  0  0  0  0
  -23.4945  -31.1205   22.7905 N   0  0  0  0  0  0  0  0  0  0  0  0
  -20.1715  -25.6982   20.3373 N   0  0  0  0  0  0  0  0  0  0  0  0
  -28.6284  -17.4459   20.8604 N   0  0  0  0  0  0  0  0  0  0  0  0
  -20.4181  -24.3438   16.9948 N   0  3  0  0  0  0  0  0  0  0  0  0
  -28.8256  -24.1779   22.2373 O   0  0  0  0  0  0  0  0  0  0  0  0
  -27.5585  -10.8565   24.7262 O   0  0  0  0  0  0  0  0  0  0  0  0
  -23.3060  -28.8853   23.4158 O   0  0  0  0  0  0  0  0  0  0  0  0
  -20.2006  -28.3809   21.3429 O   0  0  0  0  0  0  0  0  0  0  0  0
  -21.8295  -24.3555   19.4288 O   0  0  0  0  0  0  0  0  0  0  0  0
  -27.5121  -18.2764   19.0041 O   0  0  0  0  0  0  0  0  0  0  0  0
  -21.3901   -7.4540   21.4155 O   0  0  0  0  0  0  0  0  0  0  0  0
  -28.3142  -26.3647   19.9417 O   0  0  0  0  0  0  0  0  0  1  0  0
  -22.3232   -2.2940   23.1209 F   0  0  0  0  0  0  0  0  0  0  0  0
  -21.0166   -5.3081   19.7130 F   0  0  0  0  0  0  0  0  0  0  0  0
  1  2  1  0  0  0  0
  1  6  2  0  0  0  0
  2  7  2  0  0  0  0
  3  9  2  0  0  0  0
  3 10  1  0  0  0  0
  4 11  2  0  0  0  0
  4 19  1  0  0  0  0
  5 12  1  0  0  0  0
  5 19  2  0  0  0  0
  6 21  1  0  0  0  0
  7 23  1  0  0  0  0
  8 13  2  0  0  0  0
  8 22  1  0  0  0  0
  9 25  1  0  0  0  0
 10 26  2  0  0  0  0
 11 27  1  0  0  0  0
 12 27  2  0  0  0  0
 13 28  1  0  0  0  0
 14 15  2  0  0  0  0
 14 29  1  0  0  0  0
 15 30  1  0  0  0  0
 16 24  1  0  0  0  0
 16 28  2  0  0  0  0
 17 25  2  0  0  0  0
 17 26  1  0  0  0  0
 18 30  2  0  0  0  0
 18 31  1  0  0  0  0
 19 32  1  0  0  0  0
 20 32  1  0  0  0  0
 20 33  2  0  0  0  0
 20 36  1  0  0  0  0
 21 23  2  0  0  0  0
 21 42  1  0  0  0  0
 22 24  2  0  0  0  0
 22 43  1  0  0  0  0
 23 52  1  0  0  0  0
 24 44  1  0  0  0  0
 25 67  1  0  0  0  0
 26 74  1  0  0  0  0
 27 82  1  0  0  0  0
 28 83  1  0  0  0  0
 29 31  2  0  0  0  0
 29 82  1  0  0  0  0
 30 84  1  0  0  0  0
 31 85  1  0  0  0  0
 32 65  2  0  0  0  0
 33 66  1  0  0  0  0
 33 70  1  0  0  0  0
 34 35  1  0  0  0  0
 34 37  2  0  0  0  0
 34 45  1  0  0  0  0
 35 67  1  0  0  0  0
 35 76  2  0  0  0  0
 36 71  1  0  0  0  0
 36 77  2  0  0  0  0
 37 55  1  0  0  0  0
 37 83  1  0  0  0  0
 38 53  1  0  0  0  0
 38 72  1  0  0  0  0
 38 78  2  0  0  0  0
 39 62  1  0  0  0  0
 39 68  1  0  0  0  0
 39 79  2  0  0  0  0
 40 63  1  0  0  0  0
 40 73  1  0  0  0  0
 40 80  2  0  0  0  0
 41 69  1  0  0  0  0
 41 74  1  0  0  0  0
 41 81  2  0  0  0  0
 42 46  1  0  0  0  0
 43 53  1  0  0  0  0
 44 68  1  0  0  0  0
 45 67  1  0  0  0  0
 46 48  1  0  0  0  0
 47 49  1  0  0  0  0
 47 50  1  0  0  0  0
 48 52  1  0  0  0  0
 49 54  1  0  0  0  0
 50 69  1  0  0  0  0
 51 54  1  0  0  0  0
 51 69  1  0  0  0  0
 52 72  1  0  0  0  0
 53 68  1  0  0  0  0
 54 66  1  0  0  0  0
 56 63  1  0  0  0  0
 57 64  1  0  0  0  0
 58 64  1  0  0  0  0
 59 64  1  0  0  0  0
 60 74  1  0  0  0  0
 61 75  1  0  0  0  0
 62 64  1  0  0  0  0
 62 73  1  0  0  0  0
 63 75  1  0  0  0  0
 65 66  1  0  0  0  0
M  CHG  1  75   1
M  ISO  4  37 101  41 100  74 100  83 101
M  END
> <Batch ID>
0077

> <Smiles>
CNC(C)C(=O)NC(C(=O)N1Cc2cc([101O:1][101C:1](C)=C3CN(c4cccc([100N:0](C)[100C:0](=O)N5CCCC(n6nc(-c7ccc(Oc8ccc(F)cc8F)cc7)c(C(N)=O)c6N)C5)c4)C3=O)ccc2CC1C(=O)NC1CCCc2ccccc21)C(C)(C)C

> <Shape>
0.312

> <Color>
0.110

> <Negative vol penalty>
0.000

$$$$

  -OEChem-04042323533D

 86 95  0     1  0  0  0  0  0999 V2000
  -18.0832  -32.0870   24.7573 C   0  0  0  0  0  0  0  0  0  0  0  0
  -18.7902  -31.0262   25.3143 C   0  0  0  0  0  0  0  0  0  0  0  0
  -31.5142  -19.0699   22.9325 C   0  0  0  0  0  0  0  0  0  0  0  0
  -23.5291   -9.4866   20.3700 C   0  0  0  0  0  0  0  0  0  0  0  0
  -24.0569  -10.0395   22.6619 C   0  0  0  0  0  0  0  0  0  0  0  0
  -18.0941  -32.2820   23.3768 C   0  0  0  0  0  0  0  0  0  0  0  0
  -19.5077  -30.1592   24.4910 C   0  0  0  0  0  0  0  0  0  0  0  0
  -24.8088  -27.3848   25.7973 C   0  0  0  0  0  0  0  0  0  0  0  0
  -30.5311  -19.9196   23.4395 C   0  0  0  0  0  0  0  0  0  0  0  0
  -31.1503  -17.9509   22.1834 C   0  0  0  0  0  0  0  0  0  0  0  0
  -22.9401   -8.2951   20.7930 C   0  0  0  0  0  0  0  0  0  0  0  0
  -23.4679   -8.8479   23.0850 C   0  0  0  0  0  0  0  0  0  0  0  0
  -25.1090  -26.1001   26.2483 C   0  0  0  0  0  0  0  0  0  0  0  0
  -20.3472   -7.6661   23.6189 C   0  0  0  0  0  0  0  0  0  0  0  0
  -19.4955   -7.7219   24.7221 C   0  0  0  0  0  0  0  0  0  0  0  0
  -25.5137  -25.4031   23.9747 C   0  0  0  0  0  0  0  0  0  0  0  0
  -28.8201  -18.5314   22.4483 C   0  0  0  0  0  0  0  0  0  0  0  0
  -20.9290   -6.1794   25.9067 C   0  0  0  0  0  0  0  0  0  0  0  0
  -24.0875  -10.3588   21.3044 C   0  0  0  0  0  0  0  0  0  0  0  0
  -24.0688  -12.8398   20.7112 C   0  0  0  0  0  0  0  0  0  0  0  0
  -18.8200  -31.4226   22.5370 C   0  0  0  0  0  0  0  0  0  0  0  0
  -24.8483  -27.6859   24.4283 C   0  0  0  0  0  0  0  0  0  0  0  0
  -19.5272  -30.3421   23.0979 C   0  0  0  0  0  0  0  0  0  0  0  0
  -25.2161  -26.6930   23.5091 C   0  0  0  0  0  0  0  0  0  0  0  0
  -29.1841  -19.6504   23.1974 C   0  0  0  0  0  0  0  0  0  0  0  0
  -29.8032  -17.6817   21.9413 C   0  0  0  0  0  0  0  0  0  0  0  0
  -22.9095   -7.9757   22.1505 C   0  0  0  0  0  0  0  0  0  0  0  0
  -25.4587  -25.1083   25.3367 C   0  0  0  0  0  0  0  0  0  0  0  0
  -21.4897   -6.8669   23.6595 C   0  0  0  0  0  0  0  0  0  0  0  0
  -19.7864   -6.9786   25.8660 C   0  0  0  0  0  0  0  0  0  0  0  0
  -21.7806   -6.1236   24.8034 C   0  0  0  0  0  0  0  0  0  0  0  0
  -24.6965  -11.5895   20.8680 C   0  0  0  0  0  0  0  0  0  0  0  0
  -25.0702  -13.6751   20.2800 C   0  0  0  0  0  0  0  0  0  0  0  0
  -27.1169  -22.2211   24.7740 C   0  0  0  0  0  0  0  0  0  0  0  0
  -26.0885  -21.3997   24.1863 C   0  0  0  0  0  0  0  0  0  0  0  0
  -28.4581  -21.6503   24.4673 C   0  0  0  0  0  0  0  0  0  0  0  0
  -24.7628  -21.5702   24.2314 C   0  0  0  0  0  0  0  0  0  0  0  0
  -22.7026  -13.2128   20.9353 C   0  0  0  0  0  0  0  0  0  0  0  0
  -26.9948  -23.3528   25.5072 C   0  0  0  0  0  0  0  0  0  1  0  0
  -22.7141  -28.6589   22.2831 C   0  0  0  0  0  0  0  0  0  0  0  0
  -25.3179  -28.8597   20.3590 C   0  0  0  0  0  0  0  0  0  0  0  0
  -28.4973  -27.8288   19.6696 C   0  0  0  0  0  0  0  0  0  0  0  0
  -30.2844  -15.6010   20.6050 C   0  0  0  0  0  0  0  0  0  0  0  0
  -18.7633  -31.6455   21.0464 C   0  0  0  0  0  0  0  0  0  0  0  0
  -24.5478  -29.0834   23.9604 C   0  0  0  0  0  0  0  0  0  0  0  0
  -25.2930  -26.9702   22.0307 C   0  0  0  0  0  0  0  0  0  0  0  0
  -26.7774  -20.2698   23.4826 C   0  0  0  0  0  0  0  0  0  0  0  0
  -19.8536  -30.9034   20.2777 C   0  0  0  0  0  0  0  0  0  0  0  0
  -29.7643  -12.6438   18.6915 C   0  0  0  0  0  0  0  0  0  0  0  0
  -19.9551  -29.4586   20.7565 C   0  0  0  0  0  0  0  0  0  0  0  0
  -28.3478  -12.2088   19.0742 C   0  0  0  0  0  0  0  0  0  0  0  0
  -30.5172  -13.2350   19.8820 C   0  0  0  0  0  0  0  0  0  0  0  0
  -28.4019  -13.8856   20.9643 C   0  0  0  0  0  0  0  0  0  0  0  0
  -20.3376  -29.3947   22.2401 C   0  0  1  0  0  0  0  0  0  0  0  0
  -24.1197  -29.1446   22.4974 C   0  0  1  0  0  0  0  0  0  0  0  0
  -27.5818  -13.3434   19.7823 C   0  0  2  0  0  0  0  0  0  0  0  0
  -28.1466  -24.1245   26.0687 C   0  0  0  0  0  0  0  0  0  0  0  0
  -30.3529  -28.1408   18.0093 C   0  0  0  0  0  0  0  0  0  0  0  0
  -23.8197  -27.1087   18.3591 C   0  0  0  0  0  0  0  0  0  0  0  0
  -26.0011  -26.6773   17.2086 C   0  0  0  0  0  0  0  0  0  0  0  0
  -25.0987  -28.9993   17.3373 C   0  0  0  0  0  0  0  0  0  0  0  0
  -30.3359  -28.8646   21.7446 C   0  0  0  0  0  0  0  0  0  0  0  0
  -26.0303  -27.9143   19.4222 C   0  0  1  0  0  0  0  0  0  0  0  0
  -29.7564  -28.6053   19.3289 C   0  0  2  0  0  0  0  0  0  0  0  0
  -25.2342  -27.6689   18.1094 C   0  0  0  0  0  0  0  0  0  0  0  0
  -25.9960  -11.6230   20.5612 N   0  0  0  0  0  0  0  0  0  0  0  0
  -26.1930  -12.9044   20.2072 N   0  0  0  0  0  0  0  0  0  0  0  0
  -28.2040  -20.4987   23.7030 N   0  0  0  0  0  0  0  0  0  0  0  0
  -24.9840  -28.3504   21.6219 N   0  0  0  0  0  0  0  0  0  0  0  0
  -29.7330  -14.3065   20.4998 N   0  0  0  0  0  0  0  0  0  0  0  0
  -25.0909  -14.9864   19.9596 N   0  0  0  0  0  0  0  0  0  0  0  0
  -21.8059  -12.2308   21.3779 N   0  0  0  0  0  0  0  0  0  0  0  0
  -29.4342  -16.5449   21.1802 N   0  0  0  0  0  0  0  0  0  0  0  0
  -21.7532  -29.6441   22.4083 N   0  0  0  0  0  0  0  0  0  0  0  0
  -27.3636  -28.4702   19.2174 N   0  0  0  0  0  0  0  0  0  0  0  0
  -30.7805  -28.4260   20.3966 N   0  3  0  0  0  0  0  0  0  0  0  0
  -29.5307  -22.1107   24.8207 O   0  0  0  0  0  0  0  0  0  0  0  0
  -22.2857  -14.3784   20.7330 O   0  0  0  0  0  0  0  0  0  0  0  0
  -22.5160  -27.4781   22.0220 O   0  0  0  0  0  0  0  0  0  0  0  0
  -25.0731  -30.0099   19.9866 O   0  0  0  0  0  0  0  0  0  0  0  0
  -28.5177  -26.7583   20.2731 O   0  0  0  0  0  0  0  0  0  0  0  0
  -31.4165  -15.8600   20.1887 O   0  0  0  0  0  0  0  0  0  0  0  0
  -22.3347   -6.8132   22.5637 O   0  0  0  0  0  0  0  0  0  0  0  0
  -25.7515  -23.8534   25.7741 O   0  0  0  0  0  0  0  0  0  1  0  0
  -18.9693   -7.0335   26.9259 F   0  0  0  0  0  0  0  0  0  0  0  0
  -22.8774   -5.3550   24.8488 F   0  0  0  0  0  0  0  0  0  0  0  0
  1  2  1  0  0  0  0
  1  6  2  0  0  0  0
  2  7  2  0  0  0  0
  3  9  2  0  0  0  0
  3 10  1  0  0  0  0
  4 11  2  0  0  0  0
  4 19  1  0  0  0  0
  5 12  1  0  0  0  0
  5 19  2  0  0  0  0
  6 21  1  0  0  0  0
  7 23  1  0  0  0  0
  8 13  2  0  0  0  0
  8 22  1  0  0  0  0
  9 25  1  0  0  0  0
 10 26  2  0  0  0  0
 11 27  1  0  0  0  0
 12 27  2  0  0  0  0
 13 28  1  0  0  0  0
 14 15  2  0  0  0  0
 14 29  1  0  0  0  0
 15 30  1  0  0  0  0
 16 24  1  0  0  0  0
 16 28  2  0  0  0  0
 17 25  2  0  0  0  0
 17 26  1  0  0  0  0
 18 30  2  0  0  0  0
 18 31  1  0  0  0  0
 19 32  1  0  0  0  0
 20 32  1  0  0  0  0
 20 33  2  0  0  0  0
 20 38  1  0  0  0  0
 21 23  2  0  0  0  0
 21 44  1  0  0  0  0
 22 24  2  0  0  0  0
 22 45  1  0  0  0  0
 23 54  1  0  0  0  0
 24 46  1  0  0  0  0
 25 68  1  0  0  0  0
 26 73  1  0  0  0  0
 27 83  1  0  0  0  0
 28 84  1  0  0  0  0
 29 31  2  0  0  0  0
 29 83  1  0  0  0  0
 30 85  1  0  0  0  0
 31 86  1  0  0  0  0
 32 66  2  0  0  0  0
 33 67  1  0  0  0  0
 33 71  1  0  0  0  0
 34 35  1  0  0  0  0
 34 36  1  0  0  0  0
 34 39  2  0  0  0  0
 35 37  2  0  0  0  0
 35 47  1  0  0  0  0
 36 68  1  0  0  0  0
 36 77  2  0  0  0  0
 38 72  1  0  0  0  0
 38 78  2  0  0  0  0
 39 57  1  0  0  0  0
 39 84  1  0  0  0  0
 40 55  1  0  0  0  0
 40 74  1  0  0  0  0
 40 79  2  0  0  0  0
 41 63  1  0  0  0  0
 41 69  1  0  0  0  0
 41 80  2  0  0  0  0
 42 64  1  0  0  0  0
 42 75  1  0  0  0  0
 42 81  2  0  0  0  0
 43 70  1  0  0  0  0
 43 73  1  0  0  0  0
 43 82  2  0  0  0  0
 44 48  1  0  0  0  0
 45 55  1  0  0  0  0
 46 69  1  0  0  0  0
 47 68  1  0  0  0  0
 48 50  1  0  0  0  0
 49 51  1  0  0  0  0
 49 52  1  0  0  0  0
 50 54  1  0  0  0  0
 51 56  1  0  0  0  0
 52 70  1  0  0  0  0
 53 56  1  0  0  0  0
 53 70  1  0  0  0  0
 54 74  1  0  0  0  0
 55 69  1  0  0  0  0
 56 67  1  0  0  0  0
 58 64  1  0  0  0  0
 59 65  1  0  0  0  0
 60 65  1  0  0  0  0
 61 65  1  0  0  0  0
 62 76  1  0  0  0  0
 63 65  1  0  0  0  0
 63 75  1  0  0  0  0
 64 76  1  0  0  0  0
 66 67  1  0  0  0  0
M  CHG  1  76   1
M  ISO  4  39 101  43 100  73 100  84 101
M  END
> <Batch ID>
0077

> <Smiles>
C=C1CN(c2cccc([100NH:0][100C:0](=O)N3CCCC(n4nc(-c5ccc(Oc6ccc(F)cc6F)cc5)c(C(N)=O)c4N)C3)c2)C(=O)C1=[101C:1](C)[101O:1]c1ccc2c(c1)CN(C(=O)C(NC(=O)C(C)NC)C(C)(C)C)C(C(=O)NC1CCCc3ccccc31)C2

> <Shape>
0.268

> <Color>
0.176

> <Negative vol penalty>
0.000

$$$$

  -OEChem-04042323533D

 83 92  0     1  0  0  0  0  0999 V2000
  -23.4657  -10.0871   18.4977 C   0  0  0  0  0  0  0  0  0  0  0  0
  -22.7603  -11.2636   18.2657 C   0  0  0  0  0  0  0  0  0  0  0  0
  -26.5515  -24.7405   19.7773 C   0  0  0  0  0  0  0  0  0  0  0  0
  -28.4281  -26.0714   19.0396 C   0  0  0  0  0  0  0  0  0  0  0  0
  -24.5028  -10.0697   19.4293 C   0  0  0  0  0  0  0  0  0  0  0  0
  -23.0910  -12.4231   18.9661 C   0  0  0  0  0  0  0  0  0  0  0  0
  -23.2856  -19.5431   18.2018 C   0  0  0  0  0  0  0  0  0  0  0  0
  -26.8628  -23.7724   18.8226 C   0  0  0  0  0  0  0  0  0  0  0  0
  -28.7395  -25.1032   18.0850 C   0  0  0  0  0  0  0  0  0  0  0  0
  -22.8450  -20.7064   18.8314 C   0  0  0  0  0  0  0  0  0  0  0  0
  -29.8154  -23.1522   15.2134 C   0  0  0  0  0  0  0  0  0  0  0  0
  -30.1260  -23.5881   13.9254 C   0  0  0  0  0  0  0  0  0  0  0  0
  -18.4552  -27.8125   23.2356 C   0  0  0  0  0  0  0  0  0  0  0  0
  -18.6274  -26.4101   23.3185 C   0  0  0  0  0  0  0  0  0  0  0  0
  -24.7073  -20.5778   20.3592 C   0  0  0  0  0  0  0  0  0  0  0  0
  -27.9413  -24.6034   13.7421 C   0  0  0  0  0  0  0  0  0  0  0  0
  -27.3341  -25.8901   19.8857 C   0  0  0  0  0  0  0  0  0  0  0  0
  -27.4836  -26.9614   22.1960 C   0  0  0  0  0  0  0  0  0  0  0  0
  -24.8527  -11.2319   20.1345 C   0  0  0  0  0  0  0  0  0  0  0  0
  -24.4363  -18.8813   18.6539 C   0  0  0  0  0  0  0  0  0  0  0  0
  -24.1329  -12.4208   19.9090 C   0  0  0  0  0  0  0  0  0  0  0  0
  -25.1619  -19.4077   19.7321 C   0  0  0  0  0  0  0  0  0  0  0  0
  -27.9568  -23.9537   17.9765 C   0  0  0  0  0  0  0  0  0  0  0  0
  -23.5542  -21.2223   19.9121 C   0  0  0  0  0  0  0  0  0  0  0  0
  -28.5677  -23.4418   15.7658 C   0  0  0  0  0  0  0  0  0  0  0  0
  -29.1890  -24.3137   13.1897 C   0  0  0  0  0  0  0  0  0  0  0  0
  -27.6307  -24.1674   15.0302 C   0  0  0  0  0  0  0  0  0  0  0  0
  -27.0126  -26.8908   20.8713 C   0  0  0  0  0  0  0  0  0  0  0  0
  -19.6219  -28.3098   22.7033 C   0  0  0  0  0  0  0  0  0  0  0  0
  -26.8893  -28.0870   22.7122 C   0  0  0  0  0  0  0  0  0  0  0  0
  -19.8871  -26.1504   22.8307 C   0  0  0  0  0  0  0  0  0  0  0  0
  -21.3543  -23.4166   21.7253 C   0  0  0  0  0  0  0  0  0  0  0  0
  -21.8802  -22.3531   21.0910 C   0  0  0  0  0  0  0  0  0  1  0  0
  -28.3783  -26.0877   22.8973 C   0  0  0  0  0  0  0  0  0  0  0  0
  -20.0427  -29.6972   22.3793 C   0  0  0  0  0  0  0  0  0  0  0  0
  -25.0411  -16.0021   19.8574 C   0  0  0  0  0  0  0  0  0  0  0  0
  -28.1237  -16.9893   19.6445 C   0  0  0  0  0  0  0  0  0  0  0  0
  -30.3307  -19.5889   19.5116 C   0  0  0  0  0  0  0  0  0  0  0  0
  -21.8918  -31.0374   21.4264 C   0  0  0  0  0  0  0  0  0  0  0  0
  -25.9501  -11.1525   21.1660 C   0  0  0  0  0  0  0  0  0  0  0  0
  -24.9135  -17.6423   17.9470 C   0  0  0  0  0  0  0  0  0  0  0  0
  -26.4148  -18.7463   20.2431 C   0  0  0  0  0  0  0  0  0  0  0  0
  -20.0491  -23.6958   22.4200 C   0  0  0  0  0  0  0  0  0  0  0  0
  -21.8319  -24.8106   22.0294 C   0  0  0  0  0  0  0  0  0  0  0  0
  -26.4838  -12.5172   21.5939 C   0  0  0  0  0  0  0  0  0  0  0  0
  -25.1700  -32.3597   21.3836 C   0  0  0  0  0  0  0  0  0  0  0  0
  -25.3317  -13.4740   21.8838 C   0  0  0  0  0  0  0  0  0  0  0  0
  -26.0616  -31.1149   21.3839 C   0  0  0  0  0  0  0  0  0  0  0  0
  -23.9152  -32.1588   20.5351 C   0  0  0  0  0  0  0  0  0  0  0  0
  -24.0219  -29.7207   20.8549 C   0  0  0  0  0  0  0  0  0  0  0  0
  -24.4782  -13.7053   20.6310 C   0  0  1  0  0  0  0  0  0  0  0  0
  -25.8098  -16.7660   18.8166 C   0  0  1  0  0  0  0  0  0  0  0  0
  -25.2638  -29.8479   21.7520 C   0  0  1  0  0  0  0  0  0  0  0  0
  -32.5355  -20.7611   19.2624 C   0  0  0  0  0  0  0  0  0  0  0  0
  -28.4243  -16.2775   22.5963 C   0  0  0  0  0  0  0  0  0  0  0  0
  -30.5229  -17.6421   22.6399 C   0  0  0  0  0  0  0  0  0  0  0  0
  -30.3721  -15.6360   21.1649 C   0  0  0  0  0  0  0  0  0  0  0  0
  -30.0374  -19.7632   16.5718 C   0  0  0  0  0  0  0  0  0  0  0  0
  -29.0774  -17.7210   20.5578 C   0  0  1  0  0  0  0  0  0  0  0  0
  -31.5047  -19.8675   18.5904 C   0  0  2  0  0  0  0  0  0  0  0  0
  -29.5745  -16.8308   21.7316 C   0  0  0  0  0  0  0  0  0  0  0  0
  -26.1830  -27.8918   20.5649 N   0  0  0  0  0  0  0  0  0  0  0  0
  -26.1278  -28.6019   21.7046 N   0  0  0  0  0  0  0  0  0  0  0  0
  -20.5687  -25.0059   22.6764 N   0  0  0  0  0  0  0  0  0  0  0  0
  -26.8374  -17.5338   19.5227 N   0  0  0  0  0  0  0  0  0  0  0  0
  -23.2121  -30.9444   20.9526 N   0  0  0  0  0  0  0  0  0  0  0  0
  -26.9489  -28.6765   23.9252 N   0  0  0  0  0  0  0  0  0  0  0  0
  -28.8976  -24.9775   22.2176 N   0  0  0  0  0  0  0  0  0  0  0  0
  -21.3229  -29.8279   21.8405 N   0  0  0  0  0  0  0  0  0  0  0  0
  -25.1378  -14.6292   19.7335 N   0  0  0  0  0  0  0  0  0  0  0  0
  -30.1436  -18.2367   19.7059 N   0  0  0  0  0  0  0  0  0  0  0  0
  -31.0380  -20.5418   17.3460 N   0  3  0  0  0  0  0  0  0  0  0  0
  -28.6947  -26.2766   24.0964 O   0  0  0  0  0  0  0  0  0  0  0  0
  -19.2522  -30.6194   22.5598 O   0  0  0  0  0  0  0  0  0  0  0  0
  -24.4083  -16.6130   20.7107 O   0  0  0  0  0  0  0  0  0  0  0  0
  -28.5081  -15.9761   19.0553 O   0  0  0  0  0  0  0  0  0  0  0  0
  -29.6502  -20.4817   20.0120 O   0  0  0  0  0  0  0  0  0  0  0  0
  -21.2849  -32.1098   21.5097 O   0  0  0  0  0  0  0  0  0  0  0  0
  -20.4998  -27.3032   22.4535 O   0  0  0  0  0  0  0  0  0  0  0  0
  -28.2611  -23.0091   17.0450 O   0  0  0  0  0  0  0  0  0  0  0  0
  -23.1259  -22.3572   20.5288 O   0  0  0  0  0  0  0  0  0  1  0  0
  -29.4880  -24.7335   11.9534 F   0  0  0  0  0  0  0  0  0  0  0  0
  -26.4309  -24.4498   15.5560 F   0  0  0  0  0  0  0  0  0  0  0  0
  1  2  1  0  0  0  0
  1  5  2  0  0  0  0
  2  6  2  0  0  0  0
  3  8  2  0  0  0  0
  3 17  1  0  0  0  0
  4  9  1  0  0  0  0
  4 17  2  0  0  0  0
  5 19  1  0  0  0  0
  6 21  1  0  0  0  0
  7 10  2  0  0  0  0
  7 20  1  0  0  0  0
  8 23  1  0  0  0  0
  9 23  2  0  0  0  0
 10 24  1  0  0  0  0
 11 12  2  0  0  0  0
 11 25  1  0  0  0  0
 12 26  1  0  0  0  0
 13 14  1  0  0  0  0
 13 29  2  0  0  0  0
 14 31  2  0  0  0  0
 15 22  1  0  0  0  0
 15 24  2  0  0  0  0
 16 26  2  0  0  0  0
 16 27  1  0  0  0  0
 17 28  1  0  0  0  0
 18 28  1  0  0  0  0
 18 30  2  0  0  0  0
 18 34  1  0  0  0  0
 19 21  2  0  0  0  0
 19 40  1  0  0  0  0
 20 22  2  0  0  0  0
 20 41  1  0  0  0  0
 21 51  1  0  0  0  0
 22 42  1  0  0  0  0
 23 80  1  0  0  0  0
 24 81  1  0  0  0  0
 25 27  2  0  0  0  0
 25 80  1  0  0  0  0
 26 82  1  0  0  0  0
 27 83  1  0  0  0  0
 28 62  2  0  0  0  0
 29 35  1  0  0  0  0
 29 79  1  0  0  0  0
 30 63  1  0  0  0  0
 30 67  1  0  0  0  0
 31 64  1  0  0  0  0
 31 79  1  0  0  0  0
 32 33  2  0  0  0  0
 32 43  1  0  0  0  0
 32 44  1  0  0  0  0
 33 81  1  0  0  0  0
 34 68  1  0  0  0  0
 34 73  2  0  0  0  0
 35 69  1  0  0  0  0
 35 74  2  0  0  0  0
 36 52  1  0  0  0  0
 36 70  1  0  0  0  0
 36 75  2  0  0  0  0
 37 59  1  0  0  0  0
 37 65  1  0  0  0  0
 37 76  2  0  0  0  0
 38 60  1  0  0  0  0
 38 71  1  0  0  0  0
 38 77  2  0  0  0  0
 39 66  1  0  0  0  0
 39 69  1  0  0  0  0
 39 78  2  0  0  0  0
 40 45  1  0  0  0  0
 41 52  1  0  0  0  0
 42 65  1  0  0  0  0
 43 64  1  0  0  0  0
 44 64  1  0  0  0  0
 45 47  1  0  0  0  0
 46 48  1  0  0  0  0
 46 49  1  0  0  0  0
 47 51  1  0  0  0  0
 48 53  1  0  0  0  0
 49 66  1  0  0  0  0
 50 53  1  0  0  0  0
 50 66  1  0  0  0  0
 51 70  1  0  0  0  0
 52 65  1  0  0  0  0
 53 63  1  0  0  0  0
 54 60  1  0  0  0  0
 55 61  1  0  0  0  0
 56 61  1  0  0  0  0
 57 61  1  0  0  0  0
 58 72  1  0  0  0  0
 59 61  1  0  0  0  0
 59 71  1  0  0  0  0
 60 72  1  0  0  0  0
 62 63  1  0  0  0  0
M  CHG  1  72   1
M  ISO  4  33 101  39 100  69 100  81 101
M  END
> <Batch ID>
0077

> <Smiles>
CNC(C)C(=O)NC(C(=O)N1Cc2cc([101O:1][101CH:1]=C3CN(c4ccc(C(=O)[100NH:0][100C:0](=O)N5CCCC(n6nc(-c7ccc(Oc8ccc(F)cc8F)cc7)c(C(N)=O)c6N)C5)o4)C3)ccc2CC1C(=O)NC1CCCc2ccccc21)C(C)(C)C

> <Shape>
0.205

> <Color>
0.078

> <Negative vol penalty>
0.000

$$$$

  -OEChem-04042323533D

 84 93  0     1  0  0  0  0  0999 V2000
  -18.8556  -25.3347   19.5791 C   0  0  0  0  0  0  0  0  0  0  0  0
  -19.8681  -26.1747   19.1269 C   0  0  0  0  0  0  0  0  0  0  0  0
  -25.5357  -16.3280   21.5973 C   0  0  0  0  0  0  0  0  0  0  0  0
  -24.4565  -17.7025   19.9290 C   0  0  0  0  0  0  0  0  0  0  0  0
  -18.3424  -25.4932   20.8658 C   0  0  0  0  0  0  0  0  0  0  0  0
  -20.3673  -27.1747   19.9608 C   0  0  0  0  0  0  0  0  0  0  0  0
  -25.4251  -27.4165   19.8915 C   0  0  0  0  0  0  0  0  0  0  0  0
  -29.9991  -27.9891   19.0940 C   0  0  0  0  0  0  0  0  0  0  0  0
  -30.6652  -26.3252   17.4739 C   0  0  0  0  0  0  0  0  0  0  0  0
  -29.6623  -26.9781   19.9940 C   0  0  0  0  0  0  0  0  0  0  0  0
  -30.3285  -25.3141   18.3739 C   0  0  0  0  0  0  0  0  0  0  0  0
  -24.4556  -15.4459   21.5693 C   0  0  0  0  0  0  0  0  0  0  0  0
  -23.3764  -16.8203   19.9009 C   0  0  0  0  0  0  0  0  0  0  0  0
  -26.0176  -28.0440   18.7965 C   0  0  0  0  0  0  0  0  0  0  0  0
  -23.3315  -12.9466   19.5887 C   0  0  0  0  0  0  0  0  0  0  0  0
  -23.6111  -11.5808   19.5451 C   0  0  0  0  0  0  0  0  0  0  0  0
  -26.3087  -30.0468   20.1092 C   0  0  0  0  0  0  0  0  0  0  0  0
  -22.4263  -11.2718   21.6279 C   0  0  0  0  0  0  0  0  0  0  0  0
  -25.5361  -17.4564   20.7772 C   0  0  0  0  0  0  0  0  0  0  0  0
  -27.8125  -18.3167   20.0120 C   0  0  0  0  0  0  0  0  0  0  0  0
  -18.8423  -26.4894   21.7193 C   0  0  0  0  0  0  0  0  0  0  0  0
  -25.2598  -28.1043   21.1023 C   0  0  0  0  0  0  0  0  0  0  0  0
  -19.8594  -27.3476   21.2596 C   0  0  0  0  0  0  0  0  0  0  0  0
  -25.7162  -29.4250   21.2189 C   0  0  0  0  0  0  0  0  0  0  0  0
  -30.5005  -27.6627   17.8339 C   0  0  0  0  0  0  0  0  0  0  0  0
  -29.8270  -25.6406   19.6340 C   0  0  0  0  0  0  0  0  0  0  0  0
  -23.3760  -15.6920   20.7211 C   0  0  0  0  0  0  0  0  0  0  0  0
  -26.4569  -29.3602   18.9043 C   0  0  0  0  0  0  0  0  0  0  0  0
  -22.5994  -13.4751   20.6519 C   0  0  0  0  0  0  0  0  0  0  0  0
  -23.1585  -10.7434   20.5647 C   0  0  0  0  0  0  0  0  0  0  0  0
  -22.1468  -12.6377   21.6715 C   0  0  0  0  0  0  0  0  0  0  0  0
  -26.6513  -18.3684   20.8061 C   0  0  0  0  0  0  0  0  0  0  0  0
  -28.5559  -19.3971   20.4201 C   0  0  0  0  0  0  0  0  0  0  0  0
  -31.3405  -30.2461   15.8703 C   0  0  0  0  0  0  0  0  0  0  0  0
  -30.1414  -29.6333   16.3776 C   0  0  0  0  0  0  0  0  0  0  0  0
  -31.6397  -31.3097   15.1274 C   0  0  0  0  0  0  0  0  0  0  0  0
  -28.8448  -29.9526   16.3007 C   0  0  0  0  0  0  0  0  0  0  0  0
  -28.1859  -17.3761   18.9963 C   0  0  0  0  0  0  0  0  0  0  0  0
  -22.7615  -28.9794   22.8620 C   0  0  0  0  0  0  0  0  0  0  0  0
  -25.0570  -29.9150   24.9543 C   0  0  0  0  0  0  0  0  0  0  0  0
  -28.2859  -30.8945   25.4656 C   0  0  0  0  0  0  0  0  0  0  0  0
  -28.9750  -24.7655   21.8373 C   0  0  0  0  0  0  0  0  0  0  0  0
  -18.2233  -26.6529   23.0848 C   0  0  0  0  0  0  0  0  0  0  0  0
  -24.6430  -27.4046   22.2823 C   0  0  0  0  0  0  0  0  0  0  0  0
  -25.5804  -30.2006   22.5028 C   0  0  0  0  0  0  0  0  0  0  0  0
  -32.1182  -29.1718   16.5448 C   0  0  0  0  0  0  0  0  0  0  0  0
  -19.0664  -27.4952   24.0388 C   0  0  0  0  0  0  0  0  0  0  0  0
  -27.9714  -22.4894   24.3847 C   0  0  0  0  0  0  0  0  0  0  0  0
  -19.5517  -28.7636   23.3443 C   0  0  0  0  0  0  0  0  0  0  0  0
  -27.6340  -21.2101   23.6155 C   0  0  0  0  0  0  0  0  0  0  0  0
  -27.5654  -23.7413   23.6091 C   0  0  0  0  0  0  0  0  0  0  0  0
  -27.7451  -22.5370   21.4674 C   0  0  0  0  0  0  0  0  0  0  0  0
  -20.4442  -28.4280   22.1433 C   0  0  1  0  0  0  0  0  0  0  0  0
  -24.0591  -28.3687   23.3104 C   0  0  1  0  0  0  0  0  0  0  0  0
  -28.1945  -21.2511   22.1803 C   0  0  2  0  0  0  0  0  0  0  0  0
  -29.8581  -31.6290   27.2784 C   0  0  0  0  0  0  0  0  0  0  0  0
  -23.7290  -32.6619   24.9897 C   0  0  0  0  0  0  0  0  0  0  0  0
  -25.8186  -33.5818   26.0172 C   0  0  0  0  0  0  0  0  0  0  0  0
  -24.4965  -31.8454   27.2255 C   0  0  0  0  0  0  0  0  0  0  0  0
  -30.0942  -28.6011   24.9866 C   0  0  0  0  0  0  0  0  0  0  0  0
  -27.7502  -29.1482   16.9198 C   0  0  0  0  0  0  0  0  0  1  0  0
  -25.8381  -31.1858   25.1866 C   0  0  1  0  0  0  0  0  0  0  0  0
  -29.3248  -30.4501   26.4793 C   0  0  2  0  0  0  0  0  0  0  0  0
  -24.9715  -32.3050   25.8298 C   0  0  0  0  0  0  0  0  0  0  0  0
  -26.6523  -19.3999   21.6546 N   0  0  0  0  0  0  0  0  0  0  0  0
  -27.8234  -20.0064   21.3960 N   0  0  0  0  0  0  0  0  0  0  0  0
  -30.8333  -28.6666   16.9394 N   0  0  0  0  0  0  0  0  0  0  0  0
  -24.9650  -29.4749   23.6263 N   0  0  0  0  0  0  0  0  0  0  0  0
  -28.1362  -23.7129   22.2606 N   0  0  0  0  0  0  0  0  0  0  0  0
  -29.7582  -19.8759   20.0357 N   0  0  0  0  0  0  0  0  0  0  0  0
  -27.3054  -16.3261   18.7019 N   0  0  0  0  0  0  0  0  0  0  0  0
  -29.4849  -24.6136   20.5483 N   0  0  0  0  0  0  0  0  0  0  0  0
  -21.7705  -28.0564   22.5874 N   0  0  0  0  0  0  0  0  0  0  0  0
  -27.0070  -30.8084   25.9737 N   0  0  0  0  0  0  0  0  0  0  0  0
  -30.4712  -29.7915   25.7914 N   0  3  0  0  0  0  0  0  0  0  0  0
  -29.2755  -17.4548   18.3799 O   0  0  0  0  0  0  0  0  0  0  0  0
  -22.6661  -30.1979   22.7732 O   0  0  0  0  0  0  0  0  0  0  0  0
  -24.5532  -29.3305   25.9167 O   0  0  0  0  0  0  0  0  0  0  0  0
  -28.5798  -31.2830   24.3372 O   0  0  0  0  0  0  0  0  0  0  0  0
  -29.2446  -25.7171   22.5747 O   0  0  0  0  0  0  0  0  0  0  0  0
  -22.3220  -14.8312   20.6933 O   0  0  0  0  0  0  0  0  0  0  0  0
  -27.0350  -29.9752   17.8369 O   0  0  0  0  0  0  0  0  0  1  0  0
  -23.4257   -9.4315   20.5219 F   0  0  0  0  0  0  0  0  0  0  0  0
  -21.4419  -13.1395   22.6948 F   0  0  0  0  0  0  0  0  0  0  0  0
  1  2  1  0  0  0  0
  1  5  2  0  0  0  0
  2  6  2  0  0  0  0
  3 12  2  0  0  0  0
  3 19  1  0  0  0  0
  4 13  1  0  0  0  0
  4 19  2  0  0  0  0
  5 21  1  0  0  0  0
  6 23  1  0  0  0  0
  7 14  2  0  0  0  0
  7 22  1  0  0  0  0
  8 10  2  0  0  0  0
  8 25  1  0  0  0  0
  9 11  1  0  0  0  0
  9 25  2  0  0  0  0
 10 26  1  0  0  0  0
 11 26  2  0  0  0  0
 12 27  1  0  0  0  0
 13 27  2  0  0  0  0
 14 28  1  0  0  0  0
 15 16  2  0  0  0  0
 15 29  1  0  0  0  0
 16 30  1  0  0  0  0
 17 24  1  0  0  0  0
 17 28  2  0  0  0  0
 18 30  2  0  0  0  0
 18 31  1  0  0  0  0
 19 32  1  0  0  0  0
 20 32  1  0  0  0  0
 20 33  2  0  0  0  0
 20 38  1  0  0  0  0
 21 23  2  0  0  0  0
 21 43  1  0  0  0  0
 22 24  2  0  0  0  0
 22 44  1  0  0  0  0
 23 53  1  0  0  0  0
 24 45  1  0  0  0  0
 25 67  1  0  0  0  0
 26 72  1  0  0  0  0
 27 81  1  0  0  0  0
 28 82  1  0  0  0  0
 29 31  2  0  0  0  0
 29 81  1  0  0  0  0
 30 83  1  0  0  0  0
 31 84  1  0  0  0  0
 32 65  2  0  0  0  0
 33 66  1  0  0  0  0
 33 70  1  0  0  0  0
 34 35  1  0  0  0  0
 34 36  2  0  0  0  0
 34 46  1  0  0  0  0
 35 37  2  0  0  0  0
 35 67  1  0  0  0  0
 37 61  1  0  0  0  0
 38 71  1  0  0  0  0
 38 76  2  0  0  0  0
 39 54  1  0  0  0  0
 39 73  1  0  0  0  0
 39 77  2  0  0  0  0
 40 62  1  0  0  0  0
 40 68  1  0  0  0  0
 40 78  2  0  0  0  0
 41 63  1  0  0  0  0
 41 74  1  0  0  0  0
 41 79  2  0  0  0  0
 42 69  1  0  0  0  0
 42 72  1  0  0  0  0
 42 80  2  0  0  0  0
 43 47  1  0  0  0  0
 44 54  1  0  0  0  0
 45 68  1  0  0  0  0
 46 67  1  0  0  0  0
 47 49  1  0  0  0  0
 48 50  1  0  0  0  0
 48 51  1  0  0  0  0
 49 53  1  0  0  0  0
 50 55  1  0  0  0  0
 51 69  1  0  0  0  0
 52 55  1  0  0  0  0
 52 69  1  0  0  0  0
 53 73  1  0  0  0  0
 54 68  1  0  0  0  0
 55 66  1  0  0  0  0
 56 63  1  0  0  0  0
 57 64  1  0  0  0  0
 58 64  1  0  0  0  0
 59 64  1  0  0  0  0
 60 75  1  0  0  0  0
 61 82  1  0  0  0  0
 62 64  1  0  0  0  0
 62 74  1  0  0  0  0
 63 75  1  0  0  0  0
 65 66  1  0  0  0  0
M  CHG  1  75   1
M  ISO  4  42 100  61 101  72 100  82 101
M  END
> <Batch ID>
0077

> <Smiles>
C=C1CN(c2ccc([100NH:0][100C:0](=O)N3CCCC(n4nc(-c5ccc(Oc6ccc(F)cc6F)cc5)c(C(N)=O)c4N)C3)cc2)C1=C[101CH2:1][101O:1]c1ccc2c(c1)CN(C(=O)C(NC(=O)C(C)NC)C(C)(C)C)C(C(=O)NC1CCCc3ccccc31)C2

> <Shape>
0.267

> <Color>
0.070

> <Negative vol penalty>
0.000

$$$$

  -OEChem-04042323533D

 85 94  0     1  0  0  0  0  0999 V2000
  -17.8999  -29.5106   25.7358 C   0  0  0  0  0  0  0  0  0  0  0  0
  -19.0304  -28.7035   25.8135 C   0  0  0  0  0  0  0  0  0  0  0  0
  -23.1668   -9.7920   21.4714 C   0  0  0  0  0  0  0  0  0  0  0  0
  -23.8058  -10.7864   23.5784 C   0  0  0  0  0  0  0  0  0  0  0  0
  -17.5027  -30.0356   24.5067 C   0  0  0  0  0  0  0  0  0  0  0  0
  -19.7637  -28.4199   24.6618 C   0  0  0  0  0  0  0  0  0  0  0  0
  -25.8294  -27.6845   24.2477 C   0  0  0  0  0  0  0  0  0  0  0  0
  -32.1944  -18.7672   21.7999 C   0  0  0  0  0  0  0  0  0  0  0  0
  -31.6945  -17.5554   21.3235 C   0  0  0  0  0  0  0  0  0  0  0  0
  -22.4636   -8.7989   22.1532 C   0  0  0  0  0  0  0  0  0  0  0  0
  -23.1025   -9.7934   24.2604 C   0  0  0  0  0  0  0  0  0  0  0  0
  -26.6360  -26.5479   24.2093 C   0  0  0  0  0  0  0  0  0  0  0  0
  -23.1687   -5.9346   23.8033 C   0  0  0  0  0  0  0  0  0  0  0  0
  -23.3304   -4.6169   23.3752 C   0  0  0  0  0  0  0  0  0  0  0  0
  -26.6679  -26.6593   21.7998 C   0  0  0  0  0  0  0  0  0  0  0  0
  -29.4472  -18.4335   21.4481 C   0  0  0  0  0  0  0  0  0  0  0  0
  -20.9622   -4.4749   22.9182 C   0  0  0  0  0  0  0  0  0  0  0  0
  -23.8379  -10.7857   22.1840 C   0  0  0  0  0  0  0  0  0  0  0  0
  -24.0716  -13.0553   21.0429 C   0  0  0  0  0  0  0  0  0  0  0  0
  -18.2370  -29.7662   23.3410 C   0  0  0  0  0  0  0  0  0  0  0  0
  -25.4263  -28.3116   23.0600 C   0  0  0  0  0  0  0  0  0  0  0  0
  -19.3751  -28.9407   23.4158 C   0  0  0  0  0  0  0  0  0  0  0  0
  -25.8583  -27.8051   21.8259 C   0  0  0  0  0  0  0  0  0  0  0  0
  -31.3207  -19.8123   22.1005 C   0  0  0  0  0  0  0  0  0  0  0  0
  -29.9471  -19.6454   21.9246 C   0  0  0  0  0  0  0  0  0  0  0  0
  -30.3209  -17.3885   21.1475 C   0  0  0  0  0  0  0  0  0  0  0  0
  -22.4314   -8.7996   23.5477 C   0  0  0  0  0  0  0  0  0  0  0  0
  -27.0530  -26.0335   22.9851 C   0  0  0  0  0  0  0  0  0  0  0  0
  -21.9038   -6.5224   23.7889 C   0  0  0  0  0  0  0  0  0  0  0  0
  -22.2271   -3.8871   22.9327 C   0  0  0  0  0  0  0  0  0  0  0  0
  -20.8006   -5.7926   23.3463 C   0  0  0  0  0  0  0  0  0  0  0  0
  -24.5650  -11.8114   21.4802 C   0  0  0  0  0  0  0  0  0  0  0  0
  -25.1463  -13.6563   20.4344 C   0  0  0  0  0  0  0  0  0  0  0  0
  -29.0286  -21.9223   21.6590 C   0  0  0  0  0  0  0  0  0  0  0  0
  -28.0475  -22.6778   22.1713 C   0  0  0  0  0  0  0  0  0  0  0  0
  -27.3417  -21.8909   23.1713 C   0  0  0  0  0  0  0  0  0  0  0  0
  -26.2988  -22.2671   23.9182 C   0  0  0  0  0  0  0  0  0  0  0  0
  -22.7592  -13.6173   21.1752 C   0  0  0  0  0  0  0  0  0  0  0  0
  -22.6287  -28.8880   21.6654 C   0  0  0  0  0  0  0  0  0  0  0  0
  -24.4578  -30.5596   19.5719 C   0  0  0  0  0  0  0  0  0  0  0  0
  -27.5222  -31.0508   18.1524 C   0  0  0  0  0  0  0  0  0  0  0  0
  -30.5435  -15.0199   20.3189 C   0  0  0  0  0  0  0  0  0  0  0  0
  -17.7417  -30.3174   22.0275 C   0  0  0  0  0  0  0  0  0  0  0  0
  -24.5782  -29.5524   23.1194 C   0  0  0  0  0  0  0  0  0  0  0  0
  -25.4699  -28.4532   20.5229 C   0  0  0  0  0  0  0  0  0  0  0  0
  -28.0090  -20.5265   23.2270 C   0  0  0  0  0  0  0  0  0  0  0  0
  -18.7874  -30.2753   20.9162 C   0  0  0  0  0  0  0  0  0  0  0  0
  -29.6630  -11.7827   19.1262 C   0  0  0  0  0  0  0  0  0  0  0  0
  -19.4723  -28.9128   20.8790 C   0  0  0  0  0  0  0  0  0  0  0  0
  -28.2176  -11.6039   19.5963 C   0  0  0  0  0  0  0  0  0  0  0  0
  -30.5034  -12.5409   20.1522 C   0  0  0  0  0  0  0  0  0  0  0  0
  -28.4968  -13.6478   21.0564 C   0  0  0  0  0  0  0  0  0  0  0  0
  -20.2108  -28.6305   22.1929 C   0  0  1  0  0  0  0  0  0  0  0  0
  -23.8042  -29.8094   21.8301 C   0  0  1  0  0  0  0  0  0  0  0  0
  -27.5951  -12.9464   20.0275 C   0  0  2  0  0  0  0  0  0  0  0  0
  -31.8835  -21.0995   22.6089 C   0  0  0  0  0  0  0  0  0  0  0  0
  -28.6986  -32.4648   16.4452 C   0  0  0  0  0  0  0  0  0  0  0  0
  -23.1686  -28.9301   17.3375 C   0  0  0  0  0  0  0  0  0  0  0  0
  -25.0122  -29.6825   15.8198 C   0  0  0  0  0  0  0  0  0  0  0  0
  -23.4609  -31.3596   16.8216 C   0  0  0  0  0  0  0  0  0  0  0  0
  -29.3748  -32.1591   20.1769 C   0  0  0  0  0  0  0  0  0  0  0  0
  -27.7099  -24.0767   21.8039 C   0  0  0  0  0  0  0  0  0  1  0  0
  -25.1840  -30.2332   18.2893 C   0  0  1  0  0  0  0  0  0  0  0  0
  -28.3308  -32.3131   17.9130 C   0  0  2  0  0  0  0  0  0  0  0  0
  -24.2123  -30.0378   17.0913 C   0  0  0  0  0  0  0  0  0  0  0  0
  -25.8529  -11.6315   21.1751 N   0  0  0  0  0  0  0  0  0  0  0  0
  -26.1778  -12.7702   20.5396 N   0  0  0  0  0  0  0  0  0  0  0  0
  -29.0740  -20.6627   22.2163 N   0  0  0  0  0  0  0  0  0  0  0  0
  -24.6344  -29.6604   20.6331 N   0  0  0  0  0  0  0  0  0  0  0  0
  -29.8539  -13.8039   20.5099 N   0  0  0  0  0  0  0  0  0  0  0  0
  -25.3001  -14.8509   19.8247 N   0  0  0  0  0  0  0  0  0  0  0  0
  -21.7731  -12.8654   21.8283 N   0  0  0  0  0  0  0  0  0  0  0  0
  -29.8137  -16.1569   20.6640 N   0  0  0  0  0  0  0  0  0  0  0  0
  -21.4613  -29.3578   22.2361 N   0  0  0  0  0  0  0  0  0  0  0  0
  -26.1662  -31.2943   18.0950 N   0  0  0  0  0  0  0  0  0  0  0  0
  -29.5885  -32.2819   18.7119 N   0  3  0  0  0  0  0  0  0  0  0  0
  -22.4652  -14.7458   20.7130 O   0  0  0  0  0  0  0  0  0  0  0  0
  -22.7701  -27.8299   21.0636 O   0  0  0  0  0  0  0  0  0  0  0  0
  -23.7653  -31.5786   19.6323 O   0  0  0  0  0  0  0  0  0  0  0  0
  -28.0416  -29.9574   18.3650 O   0  0  0  0  0  0  0  0  0  0  0  0
  -31.6866  -15.0520   19.8559 O   0  0  0  0  0  0  0  0  0  0  0  0
  -21.7451   -7.8309   24.2135 O   0  0  0  0  0  0  0  0  0  0  0  0
  -27.8398  -24.9239   22.9448 O   0  0  0  0  0  0  0  0  0  1  0  0
  -22.3827   -2.6223   22.5202 F   0  0  0  0  0  0  0  0  0  0  0  0
  -19.5831   -6.3523   23.3291 F   0  0  0  0  0  0  0  0  0  0  0  0
  1  2  1  0  0  0  0
  1  5  2  0  0  0  0
  2  6  2  0  0  0  0
  3 10  2  0  0  0  0
  3 18  1  0  0  0  0
  4 11  1  0  0  0  0
  4 18  2  0  0  0  0
  5 20  1  0  0  0  0
  6 22  1  0  0  0  0
  7 12  2  0  0  0  0
  7 21  1  0  0  0  0
  8  9  2  0  0  0  0
  8 24  1  0  0  0  0
  9 26  1  0  0  0  0
 10 27  1  0  0  0  0
 11 27  2  0  0  0  0
 12 28  1  0  0  0  0
 13 14  2  0  0  0  0
 13 29  1  0  0  0  0
 14 30  1  0  0  0  0
 15 23  1  0  0  0  0
 15 28  2  0  0  0  0
 16 25  1  0  0  0  0
 16 26  2  0  0  0  0
 17 30  2  0  0  0  0
 17 31  1  0  0  0  0
 18 32  1  0  0  0  0
 19 32  1  0  0  0  0
 19 33  2  0  0  0  0
 19 38  1  0  0  0  0
 20 22  2  0  0  0  0
 20 43  1  0  0  0  0
 21 23  2  0  0  0  0
 21 44  1  0  0  0  0
 22 53  1  0  0  0  0
 23 45  1  0  0  0  0
 24 25  2  0  0  0  0
 24 56  1  0  0  0  0
 25 68  1  0  0  0  0
 26 73  1  0  0  0  0
 27 82  1  0  0  0  0
 28 83  1  0  0  0  0
 29 31  2  0  0  0  0
 29 82  1  0  0  0  0
 30 84  1  0  0  0  0
 31 85  1  0  0  0  0
 32 66  2  0  0  0  0
 33 67  1  0  0  0  0
 33 71  1  0  0  0  0
 34 35  2  0  0  0  0
 34 68  1  0  0  0  0
 35 36  1  0  0  0  0
 35 62  1  0  0  0  0
 36 37  2  0  0  0  0
 36 46  1  0  0  0  0
 38 72  1  0  0  0  0
 38 77  2  0  0  0  0
 39 54  1  0  0  0  0
 39 74  1  0  0  0  0
 39 78  2  0  0  0  0
 40 63  1  0  0  0  0
 40 69  1  0  0  0  0
 40 79  2  0  0  0  0
 41 64  1  0  0  0  0
 41 75  1  0  0  0  0
 41 80  2  0  0  0  0
 42 70  1  0  0  0  0
 42 73  1  0  0  0  0
 42 81  2  0  0  0  0
 43 47  1  0  0  0  0
 44 54  1  0  0  0  0
 45 69  1  0  0  0  0
 46 68  1  0  0  0  0
 47 49  1  0  0  0  0
 48 50  1  0  0  0  0
 48 51  1  0  0  0  0
 49 53  1  0  0  0  0
 50 55  1  0  0  0  0
 51 70  1  0  0  0  0
 52 55  1  0  0  0  0
 52 70  1  0  0  0  0
 53 74  1  0  0  0  0
 54 69  1  0  0  0  0
 55 67  1  0  0  0  0
 57 64  1  0  0  0  0
 58 65  1  0  0  0  0
 59 65  1  0  0  0  0
 60 65  1  0  0  0  0
 61 76  1  0  0  0  0
 62 83  1  0  0  0  0
 63 65  1  0  0  0  0
 63 75  1  0  0  0  0
 64 76  1  0  0  0  0
 66 67  1  0  0  0  0
M  CHG  1  76   1
M  ISO  4  42 100  62 101  73 100  83 101
M  END
> <Batch ID>
0077

> <Smiles>
C=C1CN(c2cc([100NH:0][100C:0](=O)N3CCCC(n4nc(-c5ccc(Oc6ccc(F)cc6F)cc5)c(C(N)=O)c4N)C3)ccc2C)C=C1[101CH2:1][101O:1]c1ccc2c(c1)CN(C(=O)C(NC(=O)C(C)NC)C(C)(C)C)C(C(=O)NC1CCCc3ccccc31)C2

> <Shape>
0.264

> <Color>
0.182

> <Negative vol penalty>
0.000

$$$$

  -OEChem-04042323533D

 85 93  0     1  0  0  0  0  0999 V2000
  -20.2164  -34.2515   22.6907 C   0  0  0  0  0  0  0  0  0  0  0  0
  -21.4776  -33.8071   22.3068 C   0  0  0  0  0  0  0  0  0  0  0  0
  -33.3876  -20.6478   22.7128 C   0  0  0  0  0  0  0  0  0  0  0  0
  -25.7705  -12.0907   20.8569 C   0  0  0  0  0  0  0  0  0  0  0  0
  -25.7260  -14.2837   19.8440 C   0  0  0  0  0  0  0  0  0  0  0  0
  -32.7557  -21.4498   21.7625 C   0  0  0  0  0  0  0  0  0  0  0  0
  -19.3681  -33.4060   23.4045 C   0  0  0  0  0  0  0  0  0  0  0  0
  -21.8916  -32.5173   22.6374 C   0  0  0  0  0  0  0  0  0  0  0  0
  -25.4554  -28.8246   19.2953 C   0  0  0  0  0  0  0  0  0  0  0  0
  -33.2954  -19.2587   22.6255 C   0  0  0  0  0  0  0  0  0  0  0  0
  -24.4077  -12.1921   21.1364 C   0  0  0  0  0  0  0  0  0  0  0  0
  -24.3632  -14.3851   20.1234 C   0  0  0  0  0  0  0  0  0  0  0  0
  -26.8177  -28.5335   19.3509 C   0  0  0  0  0  0  0  0  0  0  0  0
  -22.4133  -15.0868   22.7948 C   0  0  0  0  0  0  0  0  0  0  0  0
  -21.9497  -16.2870   23.3335 C   0  0  0  0  0  0  0  0  0  0  0  0
  -31.9391  -19.4736   20.6377 C   0  0  0  0  0  0  0  0  0  0  0  0
  -26.3388  -26.5738   20.6735 C   0  0  0  0  0  0  0  0  0  0  0  0
  -20.4865  -16.5749   21.4326 C   0  0  0  0  0  0  0  0  0  0  0  0
  -26.4297  -13.1365   20.2107 C   0  0  0  0  0  0  0  0  0  0  0  0
  -32.0314  -20.8627   20.7250 C   0  0  0  0  0  0  0  0  0  0  0  0
  -28.4303  -12.5073   18.7585 C   0  0  0  0  0  0  0  0  0  0  0  0
  -19.7682  -32.1018   23.7356 C   0  0  0  0  0  0  0  0  0  0  0  0
  -24.5239  -27.9972   19.9387 C   0  0  0  0  0  0  0  0  0  0  0  0
  -21.0483  -31.6540   23.3574 C   0  0  0  0  0  0  0  0  0  0  0  0
  -24.9650  -26.8552   20.6225 C   0  0  0  0  0  0  0  0  0  0  0  0
  -32.5711  -18.6716   21.5880 C   0  0  0  0  0  0  0  0  0  0  0  0
  -23.7040  -13.3393   20.7697 C   0  0  0  0  0  0  0  0  0  0  0  0
  -27.2598  -27.4095   20.0425 C   0  0  0  0  0  0  0  0  0  0  0  0
  -21.9135  -14.6306   21.5750 C   0  0  0  0  0  0  0  0  0  0  0  0
  -20.9863  -17.0311   22.6524 C   0  0  0  0  0  0  0  0  0  0  0  0
  -20.9501  -15.3747   20.8940 C   0  0  0  0  0  0  0  0  0  0  0  0
  -27.8375  -13.0326   19.9223 C   0  0  0  0  0  0  0  0  0  0  0  0
  -29.7809  -12.6349   18.9734 C   0  0  0  0  0  0  0  0  0  0  0  0
  -29.0125  -25.9294   19.5863 C   0  0  0  0  0  0  0  0  0  1  0  0
  -31.3591  -21.7179   19.7138 C   0  0  0  0  0  0  0  0  0  0  0  0
  -27.8152  -11.9535   17.5877 C   0  0  0  0  0  0  0  0  0  0  0  0
  -30.0800  -25.2536   20.0396 C   0  0  0  0  0  0  0  0  0  0  0  0
  -30.3838  -23.9527   19.3441 C   0  0  0  0  0  0  0  0  0  0  0  0
  -22.4149  -28.3933   22.2837 C   0  0  0  0  0  0  0  0  0  0  0  0
  -21.5486  -25.3700   21.4890 C   0  0  0  0  0  0  0  0  0  0  0  0
  -22.4125  -22.3844   20.0794 C   0  0  0  0  0  0  0  0  0  0  0  0
  -33.0451  -16.3207   22.3594 C   0  0  0  0  0  0  0  0  0  0  0  0
  -18.8348  -31.2407   24.5492 C   0  0  0  0  0  0  0  0  0  0  0  0
  -23.0556  -28.3103   19.8468 C   0  0  0  0  0  0  0  0  0  0  0  0
  -24.0038  -25.9236   21.3129 C   0  0  0  0  0  0  0  0  0  0  0  0
  -19.2045  -29.7597   24.5349 C   0  0  0  0  0  0  0  0  0  0  0  0
  -33.0154  -12.7632   22.5027 C   0  0  0  0  0  0  0  0  0  0  0  0
  -20.6993  -29.5802   24.7797 C   0  0  0  0  0  0  0  0  0  0  0  0
  -31.7413  -12.3806   21.7461 C   0  0  0  0  0  0  0  0  0  0  0  0
  -32.8274  -14.0396   23.3208 C   0  0  0  0  0  0  0  0  0  0  0  0
  -31.0391  -14.8074   21.8103 C   0  0  0  0  0  0  0  0  0  0  0  0
  -21.5239  -30.2531   23.6758 C   0  0  1  0  0  0  0  0  0  0  0  0
  -22.2391  -27.6820   20.9719 C   0  0  1  0  0  0  0  0  0  0  0  0
  -31.1992  -13.5639   20.9206 C   0  0  2  0  0  0  0  0  0  0  0  0
  -30.9294  -25.7421   21.1754 C   0  0  0  0  0  0  0  0  0  0  0  0
  -21.5066  -20.0915   19.6114 C   0  0  0  0  0  0  0  0  0  0  0  0
  -21.9284  -24.6236   24.4231 C   0  0  0  0  0  0  0  0  0  0  0  0
  -21.9485  -22.2162   23.7359 C   0  0  0  0  0  0  0  0  0  0  0  0
  -19.9161  -23.6075   23.3402 C   0  0  0  0  0  0  0  0  0  0  0  0
  -22.7214  -22.7324   17.1567 C   0  0  0  0  0  0  0  0  0  0  0  0
  -21.9738  -23.9874   21.9212 C   0  0  1  0  0  0  0  0  0  0  0  0
  -21.6972  -21.5010   19.0733 C   0  0  2  0  0  0  0  0  0  0  0  0
  -21.4602  -23.6271   23.3439 C   0  0  0  0  0  0  0  0  0  0  0  0
  -28.7377  -13.4619   20.8107 N   0  0  0  0  0  0  0  0  0  0  0  0
  -29.9099  -13.2064   20.2051 N   0  0  0  0  0  0  0  0  0  0  0  0
  -22.5788  -26.2760   21.1997 N   0  0  0  0  0  0  0  0  0  0  0  0
  -32.3158  -15.1181   22.4723 N   0  0  0  0  0  0  0  0  0  0  0  0
  -30.8588  -12.3129   18.2272 N   0  0  0  0  0  0  0  0  0  0  0  0
  -26.4159  -11.8981   17.5310 N   0  0  0  0  0  0  0  0  0  0  0  0
  -32.4778  -17.2605   21.4994 N   0  0  0  0  0  0  0  0  0  0  0  0
  -30.9945  -22.9925   20.1492 N   0  0  0  0  0  0  0  0  0  0  0  0
  -21.5306  -29.4366   22.4810 N   0  0  0  0  0  0  0  0  0  0  0  0
  -21.5236  -23.0761   20.8748 N   0  0  0  0  0  0  0  0  0  0  0  0
  -22.4795  -21.4191   17.8075 N   0  3  0  0  0  0  0  0  0  0  0  0
  -31.1923  -21.2797   18.5789 O   0  0  0  0  0  0  0  0  0  0  0  0
  -28.4867  -11.5056   16.6276 O   0  0  0  0  0  0  0  0  0  0  0  0
  -30.1002  -23.7780   18.1597 O   0  0  0  0  0  0  0  0  0  0  0  0
  -23.2873  -28.0220   23.0601 O   0  0  0  0  0  0  0  0  0  0  0  0
  -20.3467  -25.6341   21.4041 O   0  0  0  0  0  0  0  0  0  0  0  0
  -23.6374  -22.4512   20.1549 O   0  0  0  0  0  0  0  0  0  0  0  0
  -34.1096  -16.4929   22.9588 O   0  0  0  0  0  0  0  0  0  0  0  0
  -22.3742  -13.4384   21.0420 O   0  0  0  0  0  0  0  0  0  0  0  0
  -28.5891  -27.1234   20.0989 O   0  0  0  0  0  0  0  0  0  1  0  0
  -20.5402  -18.1829   23.1705 F   0  0  0  0  0  0  0  0  0  0  0  0
  -20.4654  -14.9410   19.7223 F   0  0  0  0  0  0  0  0  0  0  0  0
  1  2  1  0  0  0  0
  1  7  2  0  0  0  0
  2  8  2  0  0  0  0
  3  6  2  0  0  0  0
  3 10  1  0  0  0  0
  4 11  2  0  0  0  0
  4 19  1  0  0  0  0
  5 12  1  0  0  0  0
  5 19  2  0  0  0  0
  6 20  1  0  0  0  0
  7 22  1  0  0  0  0
  8 24  1  0  0  0  0
  9 13  2  0  0  0  0
  9 23  1  0  0  0  0
 10 26  2  0  0  0  0
 11 27  1  0  0  0  0
 12 27  2  0  0  0  0
 13 28  1  0  0  0  0
 14 15  2  0  0  0  0
 14 29  1  0  0  0  0
 15 30  1  0  0  0  0
 16 20  2  0  0  0  0
 16 26  1  0  0  0  0
 17 25  1  0  0  0  0
 17 28  2  0  0  0  0
 18 30  2  0  0  0  0
 18 31  1  0  0  0  0
 19 32  1  0  0  0  0
 20 35  1  0  0  0  0
 21 32  1  0  0  0  0
 21 33  2  0  0  0  0
 21 36  1  0  0  0  0
 22 24  2  0  0  0  0
 22 43  1  0  0  0  0
 23 25  2  0  0  0  0
 23 44  1  0  0  0  0
 24 52  1  0  0  0  0
 25 45  1  0  0  0  0
 26 70  1  0  0  0  0
 27 82  1  0  0  0  0
 28 83  1  0  0  0  0
 29 31  2  0  0  0  0
 29 82  1  0  0  0  0
 30 84  1  0  0  0  0
 31 85  1  0  0  0  0
 32 64  2  0  0  0  0
 33 65  1  0  0  0  0
 33 68  1  0  0  0  0
 34 37  2  0  0  0  0
 34 83  1  0  0  0  0
 35 71  1  0  0  0  0
 35 75  2  0  0  0  0
 36 69  1  0  0  0  0
 36 76  2  0  0  0  0
 37 38  1  0  0  0  0
 37 55  1  0  0  0  0
 38 71  1  0  0  0  0
 38 77  2  0  0  0  0
 39 53  1  0  0  0  0
 39 72  1  0  0  0  0
 39 78  2  0  0  0  0
 40 61  1  0  0  0  0
 40 66  1  0  0  0  0
 40 79  2  0  0  0  0
 41 62  1  0  0  0  0
 41 73  1  0  0  0  0
 41 80  2  0  0  0  0
 42 67  1  0  0  0  0
 42 70  1  0  0  0  0
 42 81  2  0  0  0  0
 43 46  1  0  0  0  0
 44 53  1  0  0  0  0
 45 66  1  0  0  0  0
 46 48  1  0  0  0  0
 47 49  1  0  0  0  0
 47 50  1  0  0  0  0
 48 52  1  0  0  0  0
 49 54  1  0  0  0  0
 50 67  1  0  0  0  0
 51 54  1  0  0  0  0
 51 67  1  0  0  0  0
 52 72  1  0  0  0  0
 53 66  1  0  0  0  0
 54 65  1  0  0  0  0
 56 62  1  0  0  0  0
 57 63  1  0  0  0  0
 58 63  1  0  0  0  0
 59 63  1  0  0  0  0
 60 74  1  0  0  0  0
 61 63  1  0  0  0  0
 61 73  1  0  0  0  0
 62 74  1  0  0  0  0
 64 65  1  0  0  0  0
M  CHG  1  74   1
M  ISO  4  34 101  42 100  70 100  83 101
M  END
> <Batch ID>
0077

> <Smiles>
CNC(C)C(=O)NC(C(=O)N1Cc2cc([101O:1][101CH:1]=C(C)C(=O)NC(=O)c3cccc([100NH:0][100C:0](=O)N4CCCC(n5nc(-c6ccc(Oc7ccc(F)cc7F)cc6)c(C(N)=O)c5N)C4)c3)ccc2CC1C(=O)NC1CCCc2ccccc21)C(C)(C)C

> <Shape>
0.216

> <Color>
0.093

> <Negative vol penalty>
0.000

$$$$

  -OEChem-04042323533D

 87 95  0     1  0  0  0  0  0999 V2000
  -25.5155  -34.7050   24.4200 C   0  0  0  0  0  0  0  0  0  0  0  0
  -26.1329  -33.5381   23.9813 C   0  0  0  0  0  0  0  0  0  0  0  0
  -20.8706  -11.5950   21.5773 C   0  0  0  0  0  0  0  0  0  0  0  0
  -23.2852  -11.6417   21.5119 C   0  0  0  0  0  0  0  0  0  0  0  0
  -27.3138  -21.1629   18.6458 C   0  0  0  0  0  0  0  0  0  0  0  0
  -24.2106  -34.6604   24.9091 C   0  0  0  0  0  0  0  0  0  0  0  0
  -25.4462  -32.3256   24.0325 C   0  0  0  0  0  0  0  0  0  0  0  0
  -25.9769  -29.6118   19.7900 C   0  0  0  0  0  0  0  0  0  0  0  0
  -26.1445  -20.4347   18.4268 C   0  0  0  0  0  0  0  0  0  0  0  0
  -20.8911  -10.2187   21.3516 C   0  0  0  0  0  0  0  0  0  0  0  0
  -23.3058  -10.2653   21.2863 C   0  0  0  0  0  0  0  0  0  0  0  0
  -27.1747  -28.9181   19.6236 C   0  0  0  0  0  0  0  0  0  0  0  0
  -21.4423   -7.4078   23.1483 C   0  0  0  0  0  0  0  0  0  0  0  0
  -20.6066   -6.6102   23.9300 C   0  0  0  0  0  0  0  0  0  0  0  0
  -28.4846  -19.1201   19.1875 C   0  0  0  0  0  0  0  0  0  0  0  0
  -26.0921  -26.8874   20.3473 C   0  0  0  0  0  0  0  0  0  0  0  0
  -19.4824   -5.8349   21.9369 C   0  0  0  0  0  0  0  0  0  0  0  0
  -22.0677  -12.3065   21.6574 C   0  0  0  0  0  0  0  0  0  0  0  0
  -28.4839  -20.5056   19.0261 C   0  0  0  0  0  0  0  0  0  0  0  0
  -22.0682  -14.3867   23.1341 C   0  0  0  0  0  0  0  0  0  0  0  0
  -23.5040  -33.4483   24.9572 C   0  0  0  0  0  0  0  0  0  0  0  0
  -24.8285  -28.9497   20.2475 C   0  0  0  0  0  0  0  0  0  0  0  0
  -24.1310  -32.2645   24.5239 C   0  0  0  0  0  0  0  0  0  0  0  0
  -24.8803  -27.5745   20.5163 C   0  0  0  0  0  0  0  0  0  0  0  0
  -26.1452  -19.0492   18.5881 C   0  0  0  0  0  0  0  0  0  0  0  0
  -22.1086   -9.5538   21.2061 C   0  0  0  0  0  0  0  0  0  0  0  0
  -27.2332  -27.5563   19.9050 C   0  0  0  0  0  0  0  0  0  0  0  0
  -21.2980   -7.4190   21.7609 C   0  0  0  0  0  0  0  0  0  0  0  0
  -19.6267   -5.8237   23.3243 C   0  0  0  0  0  0  0  0  0  0  0  0
  -27.3152  -18.3919   18.9685 C   0  0  0  0  0  0  0  0  0  0  0  0
  -20.3181   -6.6325   21.1553 C   0  0  0  0  0  0  0  0  0  0  0  0
  -22.0471  -13.7283   21.8899 C   0  0  0  0  0  0  0  0  0  0  0  0
  -22.0346  -15.7225   22.8164 C   0  0  0  0  0  0  0  0  0  0  0  0
  -29.7332  -21.2838   19.2604 C   0  0  0  0  0  0  0  0  0  0  0  0
  -22.1142  -13.8396   24.4586 C   0  0  0  0  0  0  0  0  0  0  0  0
  -29.8993  -23.4264   20.0762 C   0  0  0  0  0  0  0  0  0  0  0  0
  -29.7522  -24.8957   19.8001 C   0  0  0  0  0  0  0  0  0  0  0  0
  -22.9518  -29.2170   22.7990 C   0  0  0  0  0  0  0  0  0  0  0  0
  -21.1668  -27.0064   21.2340 C   0  0  0  0  0  0  0  0  0  0  0  0
  -21.0346  -24.4952   18.9268 C   0  0  0  0  0  0  0  0  0  0  0  0
  -23.7108  -18.8127   17.9846 C   0  0  0  0  0  0  0  0  0  0  0  0
  -22.1122  -33.4420   25.5381 C   0  0  0  0  0  0  0  0  0  0  0  0
  -23.5373  -29.7068   20.3963 C   0  0  0  0  0  0  0  0  0  0  0  0
  -23.6705  -26.8130   20.9905 C   0  0  0  0  0  0  0  0  0  0  0  0
  -21.3209  -32.1785   25.2097 C   0  0  0  0  0  0  0  0  0  0  0  0
  -20.4613  -18.7296   19.4376 C   0  0  0  0  0  0  0  0  0  0  0  0
  -22.1744  -30.9370   25.4485 C   0  0  0  0  0  0  0  0  0  0  0  0
  -20.5032  -17.5011   20.3492 C   0  0  0  0  0  0  0  0  0  0  0  0
  -21.2503  -18.5064   18.1486 C   0  0  0  0  0  0  0  0  0  0  0  0
  -22.6765  -16.8265   19.2499 C   0  0  0  0  0  0  0  0  0  0  0  0
  -23.4101  -30.9340   24.5405 C   0  0  1  0  0  0  0  0  0  0  0  0
  -22.5606  -29.0389   21.3592 C   0  0  1  0  0  0  0  0  0  0  0  0
  -21.9498  -17.0268   20.5898 C   0  0  2  0  0  0  0  0  0  0  0  0
  -31.8310  -22.9818   21.5845 C   0  0  0  0  0  0  0  0  0  0  0  0
  -19.4447  -22.8524   17.8922 C   0  0  0  0  0  0  0  0  0  0  0  0
  -21.2823  -25.3048   23.7640 C   0  0  0  0  0  0  0  0  0  0  0  0
  -20.5337  -23.3456   22.3969 C   0  0  0  0  0  0  0  0  0  0  0  0
  -19.0531  -25.3395   22.6310 C   0  0  0  0  0  0  0  0  0  0  0  0
  -21.4445  -25.6252   16.2224 C   0  0  0  0  0  0  0  0  0  0  0  0
  -30.3182  -23.0409   21.4735 C   0  0  0  0  0  0  0  0  0  0  0  0
  -28.3897  -25.4833   20.0510 C   0  0  0  0  0  0  0  0  0  1  0  0
  -21.1272  -25.4978   21.1941 C   0  0  1  0  0  0  0  0  0  0  0  0
  -20.0766  -24.2310   17.7793 C   0  0  2  0  0  0  0  0  0  0  0  0
  -20.5225  -24.8864   22.4894 C   0  0  0  0  0  0  0  0  0  0  0  0
  -22.0033  -14.5761   20.8587 N   0  0  0  0  0  0  0  0  0  0  0  0
  -29.6396  -22.6425   19.0783 N   0  0  0  0  0  0  0  0  0  0  0  0
  -21.9966  -15.7808   21.4543 N   0  0  0  0  0  0  0  0  0  0  0  0
  -22.4330  -27.5989   21.1265 N   0  0  0  0  0  0  0  0  0  0  0  0
  -22.6120  -18.0628   18.4547 N   0  0  0  0  0  0  0  0  0  0  0  0
  -22.0341  -16.8411   23.5720 N   0  0  0  0  0  0  0  0  0  0  0  0
  -22.1444  -12.4461   24.6052 N   0  0  0  0  0  0  0  0  0  0  0  0
  -24.9555  -18.3124   18.3654 N   0  0  0  0  0  0  0  0  0  0  0  0
  -23.0488  -30.5369   23.1965 N   0  0  0  0  0  0  0  0  0  0  0  0
  -20.4116  -25.1404   19.9741 N   0  0  0  0  0  0  0  0  0  0  0  0
  -20.7944  -24.3137   16.4758 N   0  3  0  0  0  0  0  0  0  0  0  0
  -30.7482  -20.7016   19.6290 O   0  0  0  0  0  0  0  0  0  0  0  0
  -22.1115  -14.5647   25.4822 O   0  0  0  0  0  0  0  0  0  0  0  0
  -30.7387  -25.5041   19.4154 O   0  0  0  0  0  0  0  0  0  0  0  0
  -23.1494  -28.2301   23.4980 O   0  0  0  0  0  0  0  0  0  0  0  0
  -20.1123  -27.6362   21.3489 O   0  0  0  0  0  0  0  0  0  0  0  0
  -22.2165  -24.1592   18.8986 O   0  0  0  0  0  0  0  0  0  0  0  0
  -23.5582  -19.8393   17.3178 O   0  0  0  0  0  0  0  0  0  0  0  0
  -22.1290   -8.2108   20.9862 O   0  0  0  0  0  0  0  0  0  0  0  0
  -28.4013  -26.8769   19.7441 O   0  0  0  0  0  0  0  0  0  1  0  0
  -18.8253   -5.0567   24.0750 F   0  0  0  0  0  0  0  0  0  0  0  0
  -27.3277  -17.0605   19.1272 F   0  0  0  0  0  0  0  0  0  0  0  0
  -20.1755   -6.6382   19.8228 F   0  0  0  0  0  0  0  0  0  0  0  0
  1  2  1  0  0  0  0
  1  6  2  0  0  0  0
  2  7  2  0  0  0  0
  3 10  2  0  0  0  0
  3 18  1  0  0  0  0
  4 11  1  0  0  0  0
  4 18  2  0  0  0  0
  5  9  2  0  0  0  0
  5 19  1  0  0  0  0
  6 21  1  0  0  0  0
  7 23  1  0  0  0  0
  8 12  2  0  0  0  0
  8 22  1  0  0  0  0
  9 25  1  0  0  0  0
 10 26  1  0  0  0  0
 11 26  2  0  0  0  0
 12 27  1  0  0  0  0
 13 14  2  0  0  0  0
 13 28  1  0  0  0  0
 14 29  1  0  0  0  0
 15 19  2  0  0  0  0
 15 30  1  0  0  0  0
 16 24  1  0  0  0  0
 16 27  2  0  0  0  0
 17 29  2  0  0  0  0
 17 31  1  0  0  0  0
 18 32  1  0  0  0  0
 19 34  1  0  0  0  0
 20 32  1  0  0  0  0
 20 33  2  0  0  0  0
 20 35  1  0  0  0  0
 21 23  2  0  0  0  0
 21 42  1  0  0  0  0
 22 24  2  0  0  0  0
 22 43  1  0  0  0  0
 23 51  1  0  0  0  0
 24 44  1  0  0  0  0
 25 30  2  0  0  0  0
 25 72  1  0  0  0  0
 26 83  1  0  0  0  0
 27 84  1  0  0  0  0
 28 31  2  0  0  0  0
 28 83  1  0  0  0  0
 29 85  1  0  0  0  0
 30 86  1  0  0  0  0
 31 87  1  0  0  0  0
 32 65  2  0  0  0  0
 33 67  1  0  0  0  0
 33 70  1  0  0  0  0
 34 66  1  0  0  0  0
 34 76  2  0  0  0  0
 35 71  1  0  0  0  0
 35 77  2  0  0  0  0
 36 37  1  0  0  0  0
 36 60  1  0  0  0  0
 36 66  2  0  0  0  0
 37 61  1  0  0  0  0
 37 78  2  0  0  0  0
 38 52  1  0  0  0  0
 38 73  1  0  0  0  0
 38 79  2  0  0  0  0
 39 62  1  0  0  0  0
 39 68  1  0  0  0  0
 39 80  2  0  0  0  0
 40 63  1  0  0  0  0
 40 74  1  0  0  0  0
 40 81  2  0  0  0  0
 41 69  1  0  0  0  0
 41 72  1  0  0  0  0
 41 82  2  0  0  0  0
 42 45  1  0  0  0  0
 43 52  1  0  0  0  0
 44 68  1  0  0  0  0
 45 47  1  0  0  0  0
 46 48  1  0  0  0  0
 46 49  1  0  0  0  0
 47 51  1  0  0  0  0
 48 53  1  0  0  0  0
 49 69  1  0  0  0  0
 50 53  1  0  0  0  0
 50 69  1  0  0  0  0
 51 73  1  0  0  0  0
 52 68  1  0  0  0  0
 53 67  1  0  0  0  0
 54 60  1  0  0  0  0
 55 63  1  0  0  0  0
 56 64  1  0  0  0  0
 57 64  1  0  0  0  0
 58 64  1  0  0  0  0
 59 75  1  0  0  0  0
 61 84  1  0  0  0  0
 62 64  1  0  0  0  0
 62 74  1  0  0  0  0
 63 75  1  0  0  0  0
 65 67  1  0  0  0  0
M  CHG  1  75   1
M  ISO  4  41 100  61 101  72 100  84 101
M  END
> <Batch ID>
0077

> <Smiles>
C=CC(NC(=O)c1ccc([100NH:0][100C:0](=O)N2CCCC(n3nc(-c4ccc(Oc5ccc(F)cc5F)cc4)c(C(N)=O)c3N)C2)c(F)c1)C(=O)[101CH2:1][101O:1]c1ccc2c(c1)CN(C(=O)C(NC(=O)C(C)NC)C(C)(C)C)C(C(=O)NC1CCCc3ccccc31)C2

> <Shape>
0.229

> <Color>
0.096

> <Negative vol penalty>
0.000

$$$$

  -OEChem-04042323533D

 86 95  0     1  0  0  0  0  0999 V2000
  -27.5758  -38.1157   21.2803 C   0  0  0  0  0  0  0  0  0  0  0  0
  -28.1408  -36.8839   20.9660 C   0  0  0  0  0  0  0  0  0  0  0  0
  -24.3410   -9.3997   20.6054 C   0  0  0  0  0  0  0  0  0  0  0  0
  -25.0567   -9.9907   22.8360 C   0  0  0  0  0  0  0  0  0  0  0  0
  -26.5473  -38.1905   22.2187 C   0  0  0  0  0  0  0  0  0  0  0  0
  -27.6784  -35.7262   21.5907 C   0  0  0  0  0  0  0  0  0  0  0  0
  -27.2491  -30.1350   19.1290 C   0  0  0  0  0  0  0  0  0  0  0  0
  -29.1264  -21.2446   20.6779 C   0  0  0  0  0  0  0  0  0  0  0  0
  -29.1254  -19.8742   20.4184 C   0  0  0  0  0  0  0  0  0  0  0  0
  -24.1015   -8.0924   21.0286 C   0  0  0  0  0  0  0  0  0  0  0  0
  -24.8171   -8.6834   23.2593 C   0  0  0  0  0  0  0  0  0  0  0  0
  -28.0755  -29.0141   19.1971 C   0  0  0  0  0  0  0  0  0  0  0  0
  -21.6999   -6.4243   22.7265 C   0  0  0  0  0  0  0  0  0  0  0  0
  -20.5083   -5.8208   22.3244 C   0  0  0  0  0  0  0  0  0  0  0  0
  -26.7207  -28.1315   20.9873 C   0  0  0  0  0  0  0  0  0  0  0  0
  -27.9906  -20.8487   22.7732 C   0  0  0  0  0  0  0  0  0  0  0  0
  -21.7643   -4.0861   21.2062 C   0  0  0  0  0  0  0  0  0  0  0  0
  -24.8186  -10.3489   21.5091 C   0  0  0  0  0  0  0  0  0  0  0  0
  -24.1589  -12.7752   21.0788 C   0  0  0  0  0  0  0  0  0  0  0  0
  -26.0654  -37.0319   22.8481 C   0  0  0  0  0  0  0  0  0  0  0  0
  -26.1569  -30.2679   19.9983 C   0  0  0  0  0  0  0  0  0  0  0  0
  -26.6433  -35.7857   22.5394 C   0  0  0  0  0  0  0  0  0  0  0  0
  -25.8805  -29.2538   20.9265 C   0  0  0  0  0  0  0  0  0  0  0  0
  -27.9896  -19.4782   22.5137 C   0  0  0  0  0  0  0  0  0  0  0  0
  -28.5590  -21.7319   21.8554 C   0  0  0  0  0  0  0  0  0  0  0  0
  -28.5570  -18.9909   21.3363 C   0  0  0  0  0  0  0  0  0  0  0  0
  -24.3395   -7.7342   22.3555 C   0  0  0  0  0  0  0  0  0  0  0  0
  -27.8130  -28.0136   20.1283 C   0  0  0  0  0  0  0  0  0  0  0  0
  -22.9236   -5.8587   22.3683 C   0  0  0  0  0  0  0  0  0  0  0  0
  -20.5406   -4.6517   21.5643 C   0  0  0  0  0  0  0  0  0  0  0  0
  -22.9559   -4.6896   21.6082 C   0  0  0  0  0  0  0  0  0  0  0  0
  -25.0668  -11.6994   21.0724 C   0  0  0  0  0  0  0  0  0  0  0  0
  -24.8746  -13.8315   20.5702 C   0  0  0  0  0  0  0  0  0  0  0  0
  -28.2331  -25.1437   23.1428 C   0  0  0  0  0  0  0  0  0  0  0  0
  -28.8622  -25.3574   21.9850 C   0  0  0  0  0  0  0  0  0  0  0  0
  -28.0208  -23.6875   23.2635 C   0  0  0  0  0  0  0  0  0  0  0  0
  -22.7910  -12.8162   21.5064 C   0  0  0  0  0  0  0  0  0  0  0  0
  -25.3282  -32.3442   22.2580 C   0  0  0  0  0  0  0  0  0  0  0  0
  -22.5776  -30.6248   22.2829 C   0  0  0  0  0  0  0  0  0  0  0  0
  -21.0030  -27.6684   21.6294 C   0  0  0  0  0  0  0  0  0  0  0  0
  -29.5154  -16.8975   20.3139 C   0  0  0  0  0  0  0  0  0  0  0  0
  -24.9841  -37.1684   23.8906 C   0  0  0  0  0  0  0  0  0  0  0  0
  -25.2594  -31.4704   19.8941 C   0  0  0  0  0  0  0  0  0  0  0  0
  -24.7085  -29.3390   21.8686 C   0  0  0  0  0  0  0  0  0  0  0  0
  -29.1267  -24.0983   21.2337 C   0  0  0  0  0  0  0  0  0  0  0  0
  -24.2964  -35.8489   24.2313 C   0  0  0  0  0  0  0  0  0  0  0  0
  -29.4006  -13.9585   18.3073 C   0  0  0  0  0  0  0  0  0  0  0  0
  -25.3304  -34.7487   24.4489 C   0  0  0  0  0  0  0  0  0  0  0  0
  -28.1882  -13.1972   18.8483 C   0  0  0  0  0  0  0  0  0  0  0  0
  -30.1656  -14.6716   19.4208 C   0  0  0  0  0  0  0  0  0  0  0  0
  -28.1373  -14.7842   20.8145 C   0  0  0  0  0  0  0  0  0  0  0  0
  -26.1520  -34.5044   23.1774 C   0  0  1  0  0  0  0  0  0  0  0  0
  -24.4769  -31.7447   21.1747 C   0  0  1  0  0  0  0  0  0  0  0  0
  -27.2978  -14.1030   19.7215 C   0  0  2  0  0  0  0  0  0  0  0  0
  -27.3757  -18.5547   23.5153 C   0  0  0  0  0  0  0  0  0  0  0  0
  -30.7837  -26.7328   21.1851 C   0  0  0  0  0  0  0  0  0  0  0  0
  -18.7605  -26.5535   21.7893 C   0  0  0  0  0  0  0  0  0  0  0  0
  -22.9615  -30.2896   25.2913 C   0  0  0  0  0  0  0  0  0  0  0  0
  -21.2832  -28.4328   25.2281 C   0  0  0  0  0  0  0  0  0  0  0  0
  -20.6063  -30.7458   24.5846 C   0  0  0  0  0  0  0  0  0  0  0  0
  -20.8713  -27.2533   18.7021 C   0  0  0  0  0  0  0  0  0  0  0  0
  -29.2848  -26.6798   21.4364 C   0  0  1  0  0  0  0  0  0  1  0  0
  -22.0838  -29.4086   23.0286 C   0  0  1  0  0  0  0  0  0  0  0  0
  -19.7042  -27.3569   20.9079 C   0  0  2  0  0  0  0  0  0  0  0  0
  -21.7570  -29.7182   24.5168 C   0  0  0  0  0  0  0  0  0  0  0  0
  -26.2675  -12.0407   20.5972 N   0  0  0  0  0  0  0  0  0  0  0  0
  -26.1190  -13.3430   20.3003 N   0  0  0  0  0  0  0  0  0  0  0  0
  -28.5624  -23.0970   22.1149 N   0  0  0  0  0  0  0  0  0  0  0  0
  -23.8640  -30.5373   21.7322 N   0  0  0  0  0  0  0  0  0  0  0  0
  -29.2589  -15.5144   20.2033 N   0  0  0  0  0  0  0  0  0  0  0  0
  -24.5545  -15.1211   20.3320 N   0  0  0  0  0  0  0  0  0  0  0  0
  -22.2107  -11.6411   22.0031 N   0  0  0  0  0  0  0  0  0  0  0  0
  -28.5675  -17.6022   21.0551 N   0  0  0  0  0  0  0  0  0  0  0  0
  -25.3904  -33.7242   22.2257 N   0  0  0  0  0  0  0  0  0  0  0  0
  -20.9541  -28.8917   22.2638 N   0  0  0  0  0  0  0  0  0  0  0  0
  -19.9744  -26.5716   19.6705 N   0  3  0  0  0  0  0  0  0  0  0  0
  -27.4684  -23.1572   24.2136 O   0  0  0  0  0  0  0  0  0  0  0  0
  -22.0987  -13.8598   21.4343 O   0  0  0  0  0  0  0  0  0  0  0  0
  -25.8860  -31.6091   23.0644 O   0  0  0  0  0  0  0  0  0  0  0  0
  -21.8461  -31.6133   22.1864 O   0  0  0  0  0  0  0  0  0  0  0  0
  -21.9634  -26.9015   21.6331 O   0  0  0  0  0  0  0  0  0  0  0  0
  -30.4884  -17.4228   19.7668 O   0  0  0  0  0  0  0  0  0  0  0  0
  -24.1057   -6.4587   22.7689 O   0  0  0  0  0  0  0  0  0  0  0  0
  -28.6184  -26.9188   20.1974 O   0  0  0  0  0  0  0  0  0  1  0  0
  -19.3962   -4.0714   21.1796 F   0  0  0  0  0  0  0  0  0  0  0  0
  -24.1285   -4.1410   21.2621 F   0  0  0  0  0  0  0  0  0  0  0  0
  1  2  1  0  0  0  0
  1  5  2  0  0  0  0
  2  6  2  0  0  0  0
  3 10  2  0  0  0  0
  3 18  1  0  0  0  0
  4 11  1  0  0  0  0
  4 18  2  0  0  0  0
  5 20  1  0  0  0  0
  6 22  1  0  0  0  0
  7 12  2  0  0  0  0
  7 21  1  0  0  0  0
  8  9  2  0  0  0  0
  8 25  1  0  0  0  0
  9 26  1  0  0  0  0
 10 27  1  0  0  0  0
 11 27  2  0  0  0  0
 12 28  1  0  0  0  0
 13 14  2  0  0  0  0
 13 29  1  0  0  0  0
 14 30  1  0  0  0  0
 15 23  1  0  0  0  0
 15 28  2  0  0  0  0
 16 24  1  0  0  0  0
 16 25  2  0  0  0  0
 17 30  2  0  0  0  0
 17 31  1  0  0  0  0
 18 32  1  0  0  0  0
 19 32  1  0  0  0  0
 19 33  2  0  0  0  0
 19 37  1  0  0  0  0
 20 22  2  0  0  0  0
 20 42  1  0  0  0  0
 21 23  2  0  0  0  0
 21 43  1  0  0  0  0
 22 52  1  0  0  0  0
 23 44  1  0  0  0  0
 24 26  2  0  0  0  0
 24 55  1  0  0  0  0
 25 68  1  0  0  0  0
 26 73  1  0  0  0  0
 27 83  1  0  0  0  0
 28 84  1  0  0  0  0
 29 31  2  0  0  0  0
 29 83  1  0  0  0  0
 30 85  1  0  0  0  0
 31 86  1  0  0  0  0
 32 66  2  0  0  0  0
 33 67  1  0  0  0  0
 33 71  1  0  0  0  0
 34 35  2  0  0  0  0
 34 36  1  0  0  0  0
 35 45  1  0  0  0  0
 35 62  1  0  0  0  0
 36 68  1  0  0  0  0
 36 77  2  0  0  0  0
 37 72  1  0  0  0  0
 37 78  2  0  0  0  0
 38 53  1  0  0  0  0
 38 74  1  0  0  0  0
 38 79  2  0  0  0  0
 39 63  1  0  0  0  0
 39 69  1  0  0  0  0
 39 80  2  0  0  0  0
 40 64  1  0  0  0  0
 40 75  1  0  0  0  0
 40 81  2  0  0  0  0
 41 70  1  0  0  0  0
 41 73  1  0  0  0  0
 41 82  2  0  0  0  0
 42 46  1  0  0  0  0
 43 53  1  0  0  0  0
 44 69  1  0  0  0  0
 45 68  1  0  0  0  0
 46 48  1  0  0  0  0
 47 49  1  0  0  0  0
 47 50  1  0  0  0  0
 48 52  1  0  0  0  0
 49 54  1  0  0  0  0
 50 70  1  0  0  0  0
 51 54  1  0  0  0  0
 51 70  1  0  0  0  0
 52 74  1  0  0  0  0
 53 69  1  0  0  0  0
 54 67  1  0  0  0  0
 56 62  1  0  0  0  0
 57 64  1  0  0  0  0
 58 65  1  0  0  0  0
 59 65  1  0  0  0  0
 60 65  1  0  0  0  0
 61 76  1  0  0  0  0
 62 84  1  0  0  0  0
 63 65  1  0  0  0  0
 63 75  1  0  0  0  0
 64 76  1  0  0  0  0
 66 67  1  0  0  0  0
M  CHG  1  76   1
M  ISO  4  41 100  62 101  73 100  84 101
M  END
> <Batch ID>
0077

> <Smiles>
CNC(C)C(=O)NC(C(=O)N1Cc2cc([101O:1][101C:1](C)=C3CC(=O)N(c4ccc([100NH:0][100C:0](=O)N5CCCC(n6nc(-c7ccc(Oc8ccc(F)cc8F)cc7)c(C(N)=O)c6N)C5)c(C)c4)C3)ccc2CC1C(=O)NC1CCCc2ccccc21)C(C)(C)C

> <Shape>
0.353

> <Color>
0.141

> <Negative vol penalty>
0.000

$$$$

  -OEChem-04042323533D

 96106  0     1  0  0  0  0  0999 V2000
  -21.2996  -34.7197   21.6142 C   0  0  0  0  0  0  0  0  0  0  0  0
  -22.3345  -33.9021   21.1716 C   0  0  0  0  0  0  0  0  0  0  0  0
  -23.0436  -10.6959   19.1618 C   0  0  0  0  0  0  0  0  0  0  0  0
  -23.1835   -9.7635   21.3862 C   0  0  0  0  0  0  0  0  0  0  0  0
  -20.4872  -34.3048   22.6686 C   0  0  0  0  0  0  0  0  0  0  0  0
  -22.5583  -32.6695   21.7841 C   0  0  0  0  0  0  0  0  0  0  0  0
  -24.5135  -27.5249   19.0977 C   0  0  0  0  0  0  0  0  0  0  0  0
  -22.1187   -9.7135   18.8081 C   0  0  0  0  0  0  0  0  0  0  0  0
  -22.2586   -8.7811   21.0326 C   0  0  0  0  0  0  0  0  0  0  0  0
  -25.7726  -26.9327   19.0099 C   0  0  0  0  0  0  0  0  0  0  0  0
  -18.8197   -9.1220   19.2542 C   0  0  0  0  0  0  0  0  0  0  0  0
  -17.6865   -9.5231   18.5468 C   0  0  0  0  0  0  0  0  0  0  0  0
  -29.6288  -19.5951   20.0100 C   0  0  0  0  0  0  0  0  0  0  0  0
  -28.1358  -18.0886   18.8532 C   0  0  0  0  0  0  0  0  0  0  0  0
  -25.2371  -25.5283   20.8967 C   0  0  0  0  0  0  0  0  0  0  0  0
  -18.3126   -8.0706   16.7204 C   0  0  0  0  0  0  0  0  0  0  0  0
  -23.5760  -10.7209   20.4508 C   0  0  0  0  0  0  0  0  0  0  0  0
  -29.3503  -18.3288   19.4958 C   0  0  0  0  0  0  0  0  0  0  0  0
  -24.2586  -13.0025   21.3652 C   0  0  0  0  0  0  0  0  0  0  0  0
  -20.6951  -33.0623   23.2879 C   0  0  0  0  0  0  0  0  0  0  0  0
  -23.6093  -27.1302   20.0942 C   0  0  0  0  0  0  0  0  0  0  0  0
  -21.7488  -32.2382   22.8487 C   0  0  0  0  0  0  0  0  0  0  0  0
  -23.9662  -26.1153   20.9935 C   0  0  0  0  0  0  0  0  0  0  0  0
  -27.4782  -20.3811   19.2392 C   0  0  0  0  0  0  0  0  0  0  0  0
  -28.6927  -20.6213   19.8817 C   0  0  0  0  0  0  0  0  0  0  0  0
  -27.1997  -19.1147   18.7249 C   0  0  0  0  0  0  0  0  0  0  0  0
  -21.7262   -8.7561   19.7435 C   0  0  0  0  0  0  0  0  0  0  0  0
  -26.1357  -25.9363   19.9112 C   0  0  0  0  0  0  0  0  0  0  0  0
  -19.6994   -8.1952   18.6948 C   0  0  0  0  0  0  0  0  0  0  0  0
  -17.4329   -8.9974   17.2799 C   0  0  0  0  0  0  0  0  0  0  0  0
  -19.4458   -7.6695   17.4280 C   0  0  0  0  0  0  0  0  0  0  0  0
  -24.5318  -11.7352   20.8166 C   0  0  0  0  0  0  0  0  0  0  0  0
  -25.4943  -13.5790   21.5300 C   0  0  0  0  0  0  0  0  0  0  0  0
  -23.7967  -18.2592   17.7030 C   0  0  0  0  0  0  0  0  0  0  0  0
  -24.3899  -18.6437   16.4359 C   0  0  0  0  0  0  0  0  0  0  0  0
  -29.0790  -23.1207   19.6976 C   0  0  0  0  0  0  0  0  0  0  0  0
  -22.5422  -17.8491   17.9280 C   0  0  0  0  0  0  0  0  0  0  0  0
  -23.8045  -18.6659   15.2320 C   0  0  0  0  0  0  0  0  0  0  0  0
  -30.3478  -17.2365   19.6328 C   0  0  0  0  0  0  0  0  0  0  0  0
  -23.0002  -13.6048   21.6962 C   0  0  0  0  0  0  0  0  0  0  0  0
  -22.1934  -28.5829   22.5414 C   0  0  0  0  0  0  0  0  0  0  0  0
  -20.6114  -25.7625   22.7960 C   0  0  0  0  0  0  0  0  0  0  0  0
  -20.5528  -22.4072   22.1755 C   0  0  0  0  0  0  0  0  0  0  0  0
  -30.5944  -14.7760   19.7262 C   0  0  0  0  0  0  0  0  0  0  0  0
  -19.8208  -32.6776   24.4551 C   0  0  0  0  0  0  0  0  0  0  0  0
  -22.2449  -27.7601   20.1589 C   0  0  0  0  0  0  0  0  0  0  0  0
  -23.0243  -25.6414   22.0690 C   0  0  0  0  0  0  0  0  0  0  0  0
  -24.8277  -18.3903   18.7870 C   0  0  0  0  0  0  0  0  0  0  0  0
  -25.8219  -19.0348   16.6636 C   0  0  0  0  0  0  0  0  0  0  0  0
  -19.8886  -31.1929   24.8036 C   0  0  0  0  0  0  0  0  0  0  0  0
  -30.1366  -11.5846   21.1763 C   0  0  0  0  0  0  0  0  0  0  0  0
  -21.3380  -30.7190   24.8409 C   0  0  0  0  0  0  0  0  0  0  0  0
  -28.6146  -11.4437   21.2659 C   0  0  0  0  0  0  0  0  0  0  0  0
  -29.8697  -23.4873   21.9160 C   0  0  0  0  0  0  0  0  0  0  0  0
  -30.5656  -12.3030   19.8977 C   0  0  0  0  0  0  0  0  0  0  0  0
  -29.2206  -22.1190   21.8340 C   0  0  0  0  0  0  0  0  0  0  0  0
  -28.3938  -13.4514   19.7479 C   0  0  0  0  0  0  0  0  0  0  0  0
  -22.0076  -30.8833   23.4712 C   0  0  1  0  0  0  0  0  0  0  0  0
  -21.5964  -27.6409   21.5346 C   0  0  1  0  0  0  0  0  0  0  0  0
  -27.9076  -12.7970   21.0512 C   0  0  1  0  0  0  0  0  0  0  0  0
  -29.2951  -24.2410   20.7139 C   0  0  1  0  0  0  0  0  0  0  0  0
  -26.4718  -21.4814   19.1030 C   0  0  0  0  0  0  0  0  0  0  0  0
  -30.2694  -25.2933   20.1901 C   0  0  0  0  0  0  0  0  0  0  0  0
  -19.1451  -20.3614   22.5367 C   0  0  0  0  0  0  0  0  0  0  0  0
  -28.0947  -26.0424   22.0153 C   0  0  0  0  0  0  0  0  0  0  0  0
  -21.4884  -25.6777   25.7173 C   0  0  0  0  0  0  0  0  0  0  0  0
  -20.8950  -23.2457   25.7523 C   0  0  0  0  0  0  0  0  0  0  0  0
  -19.1291  -24.9524   25.3149 C   0  0  0  0  0  0  0  0  0  0  0  0
  -20.2607  -21.9527   19.2657 C   0  0  0  0  0  0  0  0  0  0  0  0
  -20.8510  -24.4647   23.5290 C   0  0  1  0  0  0  0  0  0  0  0  0
  -19.4756  -21.5089   21.5949 C   0  0  2  0  0  0  0  0  0  0  0  0
  -27.9420  -24.8822   21.0435 C   0  0  1  0  0  0  0  0  0  1  0  0
  -20.6096  -24.5952   25.0594 C   0  0  0  0  0  0  0  0  0  0  0  0
  -25.8385  -11.5188   20.6442 N   0  0  0  0  0  0  0  0  0  0  0  0
  -26.3974  -12.6579   21.0870 N   0  0  0  0  0  0  0  0  0  0  0  0
  -28.9989  -21.9096   20.4158 N   0  0  0  0  0  0  0  0  0  0  0  0
  -25.9755  -18.8512   18.0720 N   0  0  0  0  0  0  0  0  0  0  0  0
  -21.7041  -26.2924   22.0953 N   0  0  0  0  0  0  0  0  0  0  0  0
  -29.8587  -13.5790   19.7735 N   0  0  0  0  0  0  0  0  0  0  0  0
  -25.8856  -14.7789   22.0091 N   0  0  0  0  0  0  0  0  0  0  0  0
  -21.8276  -12.8736   21.4627 N   0  0  0  0  0  0  0  0  0  0  0  0
  -29.8258  -15.9428   19.6503 N   0  0  0  0  0  0  0  0  0  0  0  0
  -21.5911  -29.8262   22.5749 N   0  0  0  0  0  0  0  0  0  0  0  0
  -20.0128  -23.4657   22.8749 N   0  0  0  0  0  0  0  0  0  0  0  0
  -19.9247  -20.9354   20.2948 N   0  3  0  0  0  0  0  0  0  0  0  0
  -28.9461  -23.3254   18.4990 O   0  0  0  0  0  0  0  0  0  0  0  0
  -31.5417  -17.5196   19.6814 O   0  0  0  0  0  0  0  0  0  0  0  0
  -22.9173  -14.7635   22.1694 O   0  0  0  0  0  0  0  0  0  0  0  0
  -23.1302  -28.2091   23.2374 O   0  0  0  0  0  0  0  0  0  0  0  0
  -19.4939  -26.2832   22.8377 O   0  0  0  0  0  0  0  0  0  0  0  0
  -21.7532  -22.1895   22.0268 O   0  0  0  0  0  0  0  0  0  0  0  0
  -31.8277  -14.8060   19.7851 O   0  0  0  0  0  0  0  0  0  0  0  0
  -20.8236   -7.7974   19.3988 O   0  0  0  0  0  0  0  0  0  0  0  0
  -27.3643  -25.3570   19.8281 O   0  0  0  0  0  0  0  0  0  1  0  0
  -16.3438   -9.3815   16.6012 F   0  0  0  0  0  0  0  0  0  0  0  0
  -20.2867   -6.7780   16.8858 F   0  0  0  0  0  0  0  0  0  0  0  0
  1  2  1  0  0  0  0
  1  5  2  0  0  0  0
  2  6  2  0  0  0  0
  3  8  2  0  0  0  0
  3 17  1  0  0  0  0
  4  9  1  0  0  0  0
  4 17  2  0  0  0  0
  5 20  1  0  0  0  0
  6 22  1  0  0  0  0
  7 10  2  0  0  0  0
  7 21  1  0  0  0  0
  8 27  1  0  0  0  0
  9 27  2  0  0  0  0
 10 28  1  0  0  0  0
 11 12  2  0  0  0  0
 11 29  1  0  0  0  0
 12 30  1  0  0  0  0
 13 18  1  0  0  0  0
 13 25  2  0  0  0  0
 14 18  2  0  0  0  0
 14 26  1  0  0  0  0
 15 23  1  0  0  0  0
 15 28  2  0  0  0  0
 16 30  2  0  0  0  0
 16 31  1  0  0  0  0
 17 32  1  0  0  0  0
 18 39  1  0  0  0  0
 19 32  1  0  0  0  0
 19 33  2  0  0  0  0
 19 40  1  0  0  0  0
 20 22  2  0  0  0  0
 20 45  1  0  0  0  0
 21 23  2  0  0  0  0
 21 46  1  0  0  0  0
 22 58  1  0  0  0  0
 23 47  1  0  0  0  0
 24 25  1  0  0  0  0
 24 26  2  0  0  0  0
 24 62  1  0  0  0  0
 25 76  1  0  0  0  0
 26 77  1  0  0  0  0
 27 93  1  0  0  0  0
 28 94  1  0  0  0  0
 29 31  2  0  0  0  0
 29 93  1  0  0  0  0
 30 95  1  0  0  0  0
 31 96  1  0  0  0  0
 32 74  2  0  0  0  0
 33 75  1  0  0  0  0
 33 80  1  0  0  0  0
 34 35  1  0  0  0  0
 34 37  2  0  0  0  0
 34 48  1  0  0  0  0
 35 38  2  0  0  0  0
 35 49  1  0  0  0  0
 36 61  1  0  0  0  0
 36 76  1  0  0  0  0
 36 86  2  0  0  0  0
 39 82  1  0  0  0  0
 39 87  2  0  0  0  0
 40 81  1  0  0  0  0
 40 88  2  0  0  0  0
 41 59  1  0  0  0  0
 41 83  1  0  0  0  0
 41 89  2  0  0  0  0
 42 70  1  0  0  0  0
 42 78  1  0  0  0  0
 42 90  2  0  0  0  0
 43 71  1  0  0  0  0
 43 84  1  0  0  0  0
 43 91  2  0  0  0  0
 44 79  1  0  0  0  0
 44 82  1  0  0  0  0
 44 92  2  0  0  0  0
 45 50  1  0  0  0  0
 46 59  1  0  0  0  0
 47 78  1  0  0  0  0
 48 77  1  0  0  0  0
 49 77  1  0  0  0  0
 50 52  1  0  0  0  0
 51 53  1  0  0  0  0
 51 55  1  0  0  0  0
 52 58  1  0  0  0  0
 53 60  1  0  0  0  0
 54 56  1  0  0  0  0
 54 61  1  0  0  0  0
 55 79  1  0  0  0  0
 56 76  1  0  0  0  0
 57 60  1  0  0  0  0
 57 79  1  0  0  0  0
 58 83  1  0  0  0  0
 59 78  1  0  0  0  0
 60 75  1  0  0  0  0
 61 63  1  0  0  0  0
 61 72  1  0  0  0  0
 64 71  1  0  0  0  0
 65 72  1  0  0  0  0
 66 73  1  0  0  0  0
 67 73  1  0  0  0  0
 68 73  1  0  0  0  0
 69 85  1  0  0  0  0
 70 73  1  0  0  0  0
 70 84  1  0  0  0  0
 71 85  1  0  0  0  0
 72 94  1  0  0  0  0
 74 75  1  0  0  0  0
M  CHG  1  85   1
M  ISO  4  44 100  72 101  82 100  94 101
M  END
> <Batch ID>
0077

> <Smiles>
C=C1CN(c2cc(C(=O)[100NH:0][100C:0](=O)N3CCCC(n4nc(-c5ccc(Oc6ccc(F)cc6F)cc5)c(C(N)=O)c4N)C3)cc(N3CCC(C)([101CH:1](C)[101O:1]c4ccc5c(c4)CN(C(=O)C(NC(=O)C(C)NC)C(C)(C)C)C(C(=O)NC4CCCc6ccccc64)C5)C3=O)c2C)CC1=C

> <Shape>
0.245

> <Color>
0.128

> <Negative vol penalty>
0.000

$$$$

  -OEChem-04042323533D

 90 99  0     1  0  0  0  0  0999 V2000
  -24.0168  -31.6828   29.1351 C   0  0  0  0  0  0  0  0  0  0  0  0
  -24.9818  -31.1412   28.2920 C   0  0  0  0  0  0  0  0  0  0  0  0
  -31.7671  -19.6519   18.9066 C   0  0  0  0  0  0  0  0  0  0  0  0
  -23.4001   -9.3406   21.9364 C   0  0  0  0  0  0  0  0  0  0  0  0
  -23.4299  -10.5147   24.0477 C   0  0  0  0  0  0  0  0  0  0  0  0
  -30.8419  -18.8246   19.5433 C   0  0  0  0  0  0  0  0  0  0  0  0
  -22.6639  -31.4966   28.8545 C   0  0  0  0  0  0  0  0  0  0  0  0
  -24.5944  -30.4120   27.1683 C   0  0  0  0  0  0  0  0  0  0  0  0
  -27.4358  -30.2170   21.7466 C   0  0  0  0  0  0  0  0  0  0  0  0
  -31.5485  -21.0284   18.8495 C   0  0  0  0  0  0  0  0  0  0  0  0
  -23.4319   -8.1217   22.6138 C   0  0  0  0  0  0  0  0  0  0  0  0
  -23.4616   -9.2958   24.7251 C   0  0  0  0  0  0  0  0  0  0  0  0
  -28.3216  -29.2989   21.1844 C   0  0  0  0  0  0  0  0  0  0  0  0
  -21.2527   -6.1315   24.2639 C   0  0  0  0  0  0  0  0  0  0  0  0
  -20.3822   -5.1292   23.8359 C   0  0  0  0  0  0  0  0  0  0  0  0
  -29.4795  -20.7503   20.0656 C   0  0  0  0  0  0  0  0  0  0  0  0
  -26.4812  -28.2246   20.0539 C   0  0  0  0  0  0  0  0  0  0  0  0
  -22.2671   -3.6923   23.3672 C   0  0  0  0  0  0  0  0  0  0  0  0
  -23.3992  -10.5372   22.6534 C   0  0  0  0  0  0  0  0  0  0  0  0
  -29.6981  -19.3738   20.1227 C   0  0  0  0  0  0  0  0  0  0  0  0
  -22.2262  -12.5244   21.5658 C   0  0  0  0  0  0  0  0  0  0  0  0
  -22.2596  -30.7730   27.7215 C   0  0  0  0  0  0  0  0  0  0  0  0
  -26.0623  -30.1390   21.4749 C   0  0  0  0  0  0  0  0  0  0  0  0
  -23.2347  -30.2149   26.8730 C   0  0  0  0  0  0  0  0  0  0  0  0
  -25.5804  -29.1444   20.6119 C   0  0  0  0  0  0  0  0  0  0  0  0
  -30.4047  -21.5776   19.4290 C   0  0  0  0  0  0  0  0  0  0  0  0
  -23.4626   -8.0993   24.0081 C   0  0  0  0  0  0  0  0  0  0  0  0
  -27.8441  -28.3007   20.3402 C   0  0  0  0  0  0  0  0  0  0  0  0
  -22.6304   -5.9143   24.2435 C   0  0  0  0  0  0  0  0  0  0  0  0
  -20.8894   -3.9096   23.3876 C   0  0  0  0  0  0  0  0  0  0  0  0
  -23.1376   -4.6947   23.7951 C   0  0  0  0  0  0  0  0  0  0  0  0
  -23.3670  -11.7966   21.9542 C   0  0  0  0  0  0  0  0  0  0  0  0
  -22.7271  -13.6395   20.9396 C   0  0  0  0  0  0  0  0  0  0  0  0
  -29.3058  -25.1114   19.5863 C   0  0  0  0  0  0  0  0  0  0  0  0
  -29.0840  -23.6752   19.9052 C   0  0  0  0  0  0  0  0  0  0  0  0
  -28.5210  -26.0782   20.0705 C   0  0  0  0  0  0  0  0  0  1  0  0
  -26.1983  -19.3196   20.6992 C   0  0  0  0  0  0  0  0  0  0  0  0
  -28.7131  -18.4909   20.8009 C   0  0  0  0  0  0  0  0  0  0  0  0
  -20.8379  -12.2197   21.7543 C   0  0  0  0  0  0  0  0  0  0  0  0
  -27.4886  -19.1124   21.4168 C   0  0  0  0  0  0  0  0  0  0  0  0
  -23.4528  -29.6617   23.2262 C   0  0  0  0  0  0  0  0  0  0  0  0
  -21.9342  -30.2846   20.4283 C   0  0  0  0  0  0  0  0  0  0  0  0
  -22.0529  -30.3441   17.0181 C   0  0  0  0  0  0  0  0  0  0  0  0
  -27.9745  -16.4178   21.5101 C   0  0  0  0  0  0  0  0  0  0  0  0
  -20.7856  -30.5580   27.4853 C   0  0  0  0  0  0  0  0  0  0  0  0
  -25.1232  -31.1533   22.0681 C   0  0  0  0  0  0  0  0  0  0  0  0
  -24.1175  -29.0299   20.2723 C   0  0  0  0  0  0  0  0  0  0  0  0
  -20.4574  -30.0910   26.0695 C   0  0  0  0  0  0  0  0  0  0  0  0
  -26.4970  -15.1625   18.4310 C   0  0  0  0  0  0  0  0  0  0  0  0
  -21.3957  -28.9648   25.6479 C   0  0  0  0  0  0  0  0  0  0  0  0
  -25.4413  -14.1928   18.9614 C   0  0  0  0  0  0  0  0  0  0  0  0
  -27.7410  -15.1759   19.3145 C   0  0  0  0  0  0  0  0  0  0  0  0
  -31.1614  -23.8920   18.7862 C   0  0  0  0  0  0  0  0  0  0  0  0
  -26.3959  -14.5028   21.2867 C   0  0  0  0  0  0  0  0  0  0  0  0
  -22.8539  -29.4389   25.6308 C   0  0  1  0  0  0  0  0  0  0  0  0
  -30.5068  -25.2708   18.7083 C   0  0  1  0  0  0  0  0  0  0  0  0
  -23.6791  -30.6654   22.1311 C   0  0  1  0  0  0  0  0  0  0  0  0
  -25.1146  -14.4845   20.4369 C   0  0  2  0  0  0  0  0  0  0  0  0
  -30.1240  -25.6378   17.2769 C   0  0  0  0  0  0  0  0  0  0  0  0
  -20.6447  -30.8626   15.0068 C   0  0  0  0  0  0  0  0  0  0  0  0
  -20.4454  -27.6464   20.7936 C   0  0  0  0  0  0  0  0  0  0  0  0
  -19.8025  -27.7548   18.3763 C   0  0  0  0  0  0  0  0  0  0  0  0
  -19.0354  -29.5318   19.9500 C   0  0  0  0  0  0  0  0  0  0  0  0
  -23.8934  -32.4880   16.1379 C   0  0  0  0  0  0  0  0  0  0  0  0
  -21.4659  -29.4538   19.2580 C   0  0  1  0  0  0  0  0  0  0  0  0
  -21.6449  -31.4074   16.0144 C   0  0  2  0  0  0  0  0  0  0  0  0
  -20.2147  -28.5974   19.6022 C   0  0  0  0  0  0  0  0  0  0  0  0
  -24.5066  -12.3987   21.6040 N   0  0  0  0  0  0  0  0  0  0  0  0
  -26.0878  -18.9523   19.4732 N   0  0  0  0  0  0  0  0  0  0  0  0
  -28.9096  -17.2090   20.8778 N   0  0  0  0  0  0  0  0  0  0  0  0
  -24.0845  -13.5165   20.9888 N   0  0  0  0  0  0  0  0  0  0  0  0
  -30.1810  -22.9886   19.3706 N   0  0  0  0  0  0  0  0  0  0  0  0
  -23.2383  -30.0412   20.8820 N   0  0  0  0  0  0  0  0  0  0  0  0
  -27.3867  -15.4184   20.7170 N   0  0  0  0  0  0  0  0  0  0  0  0
  -22.1344  -14.7034   20.3572 N   0  0  0  0  0  0  0  0  0  0  0  0
  -20.4985  -11.0329   22.4182 N   0  0  0  0  0  0  0  0  0  0  0  0
  -23.1166  -30.2231   24.4432 N   0  0  0  0  0  0  0  0  0  0  0  0
  -21.2678  -30.3831   18.1510 N   0  0  0  0  0  0  0  0  0  0  0  0
  -22.8379  -31.9032   15.2714 N   0  3  0  0  0  0  0  0  0  0  0  0
  -28.1142  -23.2688   20.5238 O   0  0  0  0  0  0  0  0  0  0  0  0
  -19.9253  -12.9693   21.3316 O   0  0  0  0  0  0  0  0  0  0  0  0
  -27.5558  -19.4755   22.5816 O   0  0  0  0  0  0  0  0  0  0  0  0
  -23.5729  -28.4664   22.9844 O   0  0  0  0  0  0  0  0  0  0  0  0
  -21.1735  -31.1237   20.9171 O   0  0  0  0  0  0  0  0  0  0  0  0
  -22.9733  -29.5552   16.8157 O   0  0  0  0  0  0  0  0  0  0  0  0
  -27.6560  -16.5981   22.6868 O   0  0  0  0  0  0  0  0  0  0  0  0
  -23.4933   -6.9100   24.6694 O   0  0  0  0  0  0  0  0  0  0  0  0
  -28.7065  -27.4029   19.7906 O   0  0  0  0  0  0  0  0  0  1  0  0
  -20.0532   -2.9466   22.9780 F   0  0  0  0  0  0  0  0  0  0  0  0
  -24.4602   -4.4797   23.7743 F   0  0  0  0  0  0  0  0  0  0  0  0
  1  2  1  0  0  0  0
  1  7  2  0  0  0  0
  2  8  2  0  0  0  0
  3  6  1  0  0  0  0
  3 10  2  0  0  0  0
  4 11  2  0  0  0  0
  4 19  1  0  0  0  0
  5 12  1  0  0  0  0
  5 19  2  0  0  0  0
  6 20  2  0  0  0  0
  7 22  1  0  0  0  0
  8 24  1  0  0  0  0
  9 13  2  0  0  0  0
  9 23  1  0  0  0  0
 10 26  1  0  0  0  0
 11 27  1  0  0  0  0
 12 27  2  0  0  0  0
 13 28  1  0  0  0  0
 14 15  2  0  0  0  0
 14 29  1  0  0  0  0
 15 30  1  0  0  0  0
 16 20  1  0  0  0  0
 16 26  2  0  0  0  0
 17 25  1  0  0  0  0
 17 28  2  0  0  0  0
 18 30  2  0  0  0  0
 18 31  1  0  0  0  0
 19 32  1  0  0  0  0
 20 38  1  0  0  0  0
 21 32  1  0  0  0  0
 21 33  2  0  0  0  0
 21 39  1  0  0  0  0
 22 24  2  0  0  0  0
 22 45  1  0  0  0  0
 23 25  2  0  0  0  0
 23 46  1  0  0  0  0
 24 55  1  0  0  0  0
 25 47  1  0  0  0  0
 26 72  1  0  0  0  0
 27 87  1  0  0  0  0
 28 88  1  0  0  0  0
 29 31  2  0  0  0  0
 29 87  1  0  0  0  0
 30 89  1  0  0  0  0
 31 90  1  0  0  0  0
 32 68  2  0  0  0  0
 33 71  1  0  0  0  0
 33 75  1  0  0  0  0
 34 35  1  0  0  0  0
 34 36  2  0  0  0  0
 34 56  1  0  0  0  0
 35 72  1  0  0  0  0
 35 80  2  0  0  0  0
 36 88  1  0  0  0  0
 37 40  1  0  0  0  0
 37 69  2  0  0  0  0
 38 40  1  0  0  0  0
 38 70  2  0  0  0  0
 39 76  1  0  0  0  0
 39 81  2  0  0  0  0
 40 82  2  0  0  0  0
 41 57  1  0  0  0  0
 41 77  1  0  0  0  0
 41 83  2  0  0  0  0
 42 65  1  0  0  0  0
 42 73  1  0  0  0  0
 42 84  2  0  0  0  0
 43 66  1  0  0  0  0
 43 78  1  0  0  0  0
 43 85  2  0  0  0  0
 44 70  1  0  0  0  0
 44 74  1  0  0  0  0
 44 86  2  0  0  0  0
 45 48  1  0  0  0  0
 46 57  1  0  0  0  0
 47 73  1  0  0  0  0
 48 50  1  0  0  0  0
 49 51  1  0  0  0  0
 49 52  1  0  0  0  0
 50 55  1  0  0  0  0
 51 58  1  0  0  0  0
 52 74  1  0  0  0  0
 53 56  1  0  0  0  0
 53 72  1  0  0  0  0
 54 58  1  0  0  0  0
 54 74  1  0  0  0  0
 55 77  1  0  0  0  0
 56 59  1  0  0  0  0
 57 73  1  0  0  0  0
 58 71  1  0  0  0  0
 60 66  1  0  0  0  0
 61 67  1  0  0  0  0
 62 67  1  0  0  0  0
 63 67  1  0  0  0  0
 64 79  1  0  0  0  0
 65 67  1  0  0  0  0
 65 78  1  0  0  0  0
 66 79  1  0  0  0  0
 68 71  1  0  0  0  0
M  CHG  1  79   1
M  ISO  4  36 101  44 100  70 100  88 101
M  END
> <Batch ID>
0077

> <Smiles>
C=C1CN(c2cccc(C([100NH:0][100C:0](=O)N3CCCC(n4nc(-c5ccc(Oc6ccc(F)cc6F)cc5)c(C(N)=O)c4N)C3)C(=O)C=N)c2)C(=O)C1=[101CH:1][101O:1]c1ccc2c(c1)CN(C(=O)C(NC(=O)C(C)NC)C(C)(C)C)C(C(=O)NC1CCCc3ccccc31)C2

> <Shape>
0.268

> <Color>
0.075

> <Negative vol penalty>
0.000

$$$$

  -OEChem-04042323533D

 89 98  0     1  0  0  0  0  0999 V2000
  -22.2588  -34.2220   22.4197 C   0  0  0  0  0  0  0  0  0  0  0  0
  -23.3204  -33.3273   22.5083 C   0  0  0  0  0  0  0  0  0  0  0  0
  -30.4343  -21.3508   15.6084 C   0  0  0  0  0  0  0  0  0  0  0  0
  -25.3140  -13.8223   21.7172 C   0  0  0  0  0  0  0  0  0  0  0  0
  -26.2149  -13.9013   19.4769 C   0  0  0  0  0  0  0  0  0  0  0  0
  -20.9519  -33.7712   22.6004 C   0  0  0  0  0  0  0  0  0  0  0  0
  -23.0758  -31.9814   22.7789 C   0  0  0  0  0  0  0  0  0  0  0  0
  -25.7578  -28.8831   19.8036 C   0  0  0  0  0  0  0  0  0  0  0  0
  -31.0527  -22.5749   15.8631 C   0  0  0  0  0  0  0  0  0  0  0  0
  -29.4337  -20.8841   16.4610 C   0  0  0  0  0  0  0  0  0  0  0  0
  -24.4183  -12.8288   21.3220 C   0  0  0  0  0  0  0  0  0  0  0  0
  -25.3192  -12.9078   19.0817 C   0  0  0  0  0  0  0  0  0  0  0  0
  -27.1013  -28.6962   20.1256 C   0  0  0  0  0  0  0  0  0  0  0  0
  -24.4875   -9.4972   20.7492 C   0  0  0  0  0  0  0  0  0  0  0  0
  -24.3321   -8.3936   21.5880 C   0  0  0  0  0  0  0  0  0  0  0  0
  -26.5497  -26.5999   21.1842 C   0  0  0  0  0  0  0  0  0  0  0  0
  -29.6701  -22.8655   17.8230 C   0  0  0  0  0  0  0  0  0  0  0  0
  -21.9844   -8.9096   21.8318 C   0  0  0  0  0  0  0  0  0  0  0  0
  -26.2123  -14.3587   20.7946 C   0  0  0  0  0  0  0  0  0  0  0  0
  -28.4350  -15.2047   21.7174 C   0  0  0  0  0  0  0  0  0  0  0  0
  -20.6904  -32.4174   22.8637 C   0  0  0  0  0  0  0  0  0  0  0  0
  -24.7969  -27.9335   20.1796 C   0  0  0  0  0  0  0  0  0  0  0  0
  -21.7643  -31.5124   22.9646 C   0  0  0  0  0  0  0  0  0  0  0  0
  -25.1950  -26.7759   20.8635 C   0  0  0  0  0  0  0  0  0  0  0  0
  -30.6706  -23.3322   16.9704 C   0  0  0  0  0  0  0  0  0  0  0  0
  -29.0517  -21.6414   17.5683 C   0  0  0  0  0  0  0  0  0  0  0  0
  -24.4209  -12.3715   20.0043 C   0  0  0  0  0  0  0  0  0  0  0  0
  -27.4971  -27.5559   20.8185 C   0  0  0  0  0  0  0  0  0  0  0  0
  -23.3914  -10.3070   20.4518 C   0  0  0  0  0  0  0  0  0  0  0  0
  -23.0805   -8.0997   22.1293 C   0  0  0  0  0  0  0  0  0  0  0  0
  -22.1399  -10.0132   20.9931 C   0  0  0  0  0  0  0  0  0  0  0  0
  -27.1374  -15.3854   21.2021 C   0  0  0  0  0  0  0  0  0  0  0  0
  -28.8941  -16.4788   21.9460 C   0  0  0  0  0  0  0  0  0  0  0  0
  -31.8891  -26.5681   18.1587 C   0  0  0  0  0  0  0  0  0  0  0  0
  -32.7183  -26.4026   16.9914 C   0  0  0  0  0  0  0  0  0  0  0  0
  -30.9823  -25.3956   18.3064 C   0  0  0  0  0  0  0  0  0  0  0  0
  -33.6568  -27.2281   16.5159 C   0  0  0  0  0  0  0  0  0  0  0  0
  -31.8573  -27.5760   19.0394 C   0  0  0  0  0  0  0  0  0  0  0  0
  -29.7133  -27.3085   20.1131 C   0  0  0  0  0  0  0  0  0  1  0  0
  -29.1605  -13.9935   21.9669 C   0  0  0  0  0  0  0  0  0  0  0  0
  -30.9963  -27.6992   20.2109 C   0  0  0  0  0  0  0  0  0  0  0  0
  -22.2258  -27.9627   22.0484 C   0  0  0  0  0  0  0  0  0  0  0  0
  -21.8295  -24.9589   20.8897 C   0  0  0  0  0  0  0  0  0  0  0  0
  -23.2411  -22.1806   19.4985 C   0  0  0  0  0  0  0  0  0  0  0  0
  -27.5374  -21.7936   19.5758 C   0  0  0  0  0  0  0  0  0  0  0  0
  -19.2645  -31.9857   23.0986 C   0  0  0  0  0  0  0  0  0  0  0  0
  -23.3554  -28.1370   19.8013 C   0  0  0  0  0  0  0  0  0  0  0  0
  -24.2055  -25.7166   21.2722 C   0  0  0  0  0  0  0  0  0  0  0  0
  -32.3411  -25.0935   16.3667 C   0  0  0  0  0  0  0  0  0  0  0  0
  -19.0630  -30.4751   23.0106 C   0  0  0  0  0  0  0  0  0  0  0  0
  -27.3442  -20.8828   23.0124 C   0  0  0  0  0  0  0  0  0  0  0  0
  -20.1444  -29.7454   23.8011 C   0  0  0  0  0  0  0  0  0  0  0  0
  -27.3935  -19.3534   22.9855 C   0  0  0  0  0  0  0  0  0  0  0  0
  -26.5550  -21.4457   21.8317 C   0  0  0  0  0  0  0  0  0  0  0  0
  -27.0375  -19.4400   20.4849 C   0  0  0  0  0  0  0  0  0  0  0  0
  -21.5375  -30.0402   23.2320 C   0  0  1  0  0  0  0  0  0  0  0  0
  -22.3895  -27.3535   20.6847 C   0  0  1  0  0  0  0  0  0  0  0  0
  -27.8767  -18.8291   21.6190 C   0  0  2  0  0  0  0  0  0  0  0  0
  -31.4068  -29.7435   21.6382 C   0  0  0  0  0  0  0  0  0  0  0  0
  -22.6705  -19.8715   18.6985 C   0  0  0  0  0  0  0  0  0  0  0  0
  -21.6711  -23.9988   23.7816 C   0  0  0  0  0  0  0  0  0  0  0  0
  -22.0583  -21.6673   22.9555 C   0  0  0  0  0  0  0  0  0  0  0  0
  -20.0274  -22.9232   22.2337 C   0  0  0  0  0  0  0  0  0  0  0  0
  -24.1059  -22.7982   16.7363 C   0  0  0  0  0  0  0  0  0  0  0  0
  -31.5587  -28.2326   21.5121 C   0  0  0  0  0  0  0  0  0  0  0  0
  -22.2862  -23.5824   21.3089 C   0  0  1  0  0  0  0  0  0  0  0  0
  -22.8329  -21.3322   18.3077 C   0  0  2  0  0  0  0  0  0  0  0  0
  -21.5294  -23.0637   22.5641 C   0  0  0  0  0  0  0  0  0  0  0  0
  -26.7943  -16.6729   21.1090 N   0  0  0  0  0  0  0  0  0  0  0  0
  -27.8829  -17.3127   21.5689 N   0  0  0  0  0  0  0  0  0  0  0  0
  -31.2875  -24.5533   17.2236 N   0  0  0  0  0  0  0  0  0  0  0  0
  -22.8068  -25.9642   20.8849 N   0  0  0  0  0  0  0  0  0  0  0  0
  -27.0715  -20.9085   20.5709 N   0  0  0  0  0  0  0  0  0  0  0  0
  -30.0601  -16.9560   22.4309 N   0  0  0  0  0  0  0  0  0  0  0  0
  -28.5402  -12.7710   21.6752 N   0  0  0  0  0  0  0  0  0  0  0  0
  -28.0352  -21.1668   18.4339 N   0  0  0  0  0  0  0  0  0  0  0  0
  -21.7671  -29.2660   22.0310 N   0  0  0  0  0  0  0  0  0  0  0  0
  -22.1472  -22.7304   20.1328 N   0  0  0  0  0  0  0  0  0  0  0  0
  -23.8613  -21.4195   17.2326 N   0  3  0  0  0  0  0  0  0  0  0  0
  -30.1600  -25.2326   19.1922 O   0  0  0  0  0  0  0  0  0  0  0  0
  -30.3181  -13.9946   22.4501 O   0  0  0  0  0  0  0  0  0  0  0  0
  -22.4944  -27.2989   23.0428 O   0  0  0  0  0  0  0  0  0  0  0  0
  -20.6508  -25.1341   20.5711 O   0  0  0  0  0  0  0  0  0  0  0  0
  -24.4129  -22.3367   19.8348 O   0  0  0  0  0  0  0  0  0  0  0  0
  -27.5228  -23.0166   19.7367 O   0  0  0  0  0  0  0  0  0  0  0  0
  -23.5472  -11.4019   19.6183 O   0  0  0  0  0  0  0  0  0  0  0  0
  -28.8077  -27.3713   21.1347 O   0  0  0  0  0  0  0  0  0  1  0  0
  -22.9311   -7.0390   22.9335 F   0  0  0  0  0  0  0  0  0  0  0  0
  -21.0829  -10.7869   20.7101 F   0  0  0  0  0  0  0  0  0  0  0  0
  1  2  1  0  0  0  0
  1  6  2  0  0  0  0
  2  7  2  0  0  0  0
  3  9  2  0  0  0  0
  3 10  1  0  0  0  0
  4 11  2  0  0  0  0
  4 19  1  0  0  0  0
  5 12  1  0  0  0  0
  5 19  2  0  0  0  0
  6 21  1  0  0  0  0
  7 23  1  0  0  0  0
  8 13  2  0  0  0  0
  8 22  1  0  0  0  0
  9 25  1  0  0  0  0
 10 26  2  0  0  0  0
 11 27  1  0  0  0  0
 12 27  2  0  0  0  0
 13 28  1  0  0  0  0
 14 15  2  0  0  0  0
 14 29  1  0  0  0  0
 15 30  1  0  0  0  0
 16 24  1  0  0  0  0
 16 28  2  0  0  0  0
 17 25  2  0  0  0  0
 17 26  1  0  0  0  0
 18 30  2  0  0  0  0
 18 31  1  0  0  0  0
 19 32  1  0  0  0  0
 20 32  1  0  0  0  0
 20 33  2  0  0  0  0
 20 40  1  0  0  0  0
 21 23  2  0  0  0  0
 21 46  1  0  0  0  0
 22 24  2  0  0  0  0
 22 47  1  0  0  0  0
 23 56  1  0  0  0  0
 24 48  1  0  0  0  0
 25 71  1  0  0  0  0
 26 76  1  0  0  0  0
 27 86  1  0  0  0  0
 28 87  1  0  0  0  0
 29 31  2  0  0  0  0
 29 86  1  0  0  0  0
 30 88  1  0  0  0  0
 31 89  1  0  0  0  0
 32 69  2  0  0  0  0
 33 70  1  0  0  0  0
 33 74  1  0  0  0  0
 34 35  1  0  0  0  0
 34 36  1  0  0  0  0
 34 38  2  0  0  0  0
 35 37  2  0  0  0  0
 35 49  1  0  0  0  0
 36 71  1  0  0  0  0
 36 80  2  0  0  0  0
 38 41  1  0  0  0  0
 39 41  2  0  0  0  0
 39 87  1  0  0  0  0
 40 75  1  0  0  0  0
 40 81  2  0  0  0  0
 41 65  1  0  0  0  0
 42 57  1  0  0  0  0
 42 77  1  0  0  0  0
 42 82  2  0  0  0  0
 43 66  1  0  0  0  0
 43 72  1  0  0  0  0
 43 83  2  0  0  0  0
 44 67  1  0  0  0  0
 44 78  1  0  0  0  0
 44 84  2  0  0  0  0
 45 73  1  0  0  0  0
 45 76  1  0  0  0  0
 45 85  2  0  0  0  0
 46 50  1  0  0  0  0
 47 57  1  0  0  0  0
 48 72  1  0  0  0  0
 49 71  1  0  0  0  0
 50 52  1  0  0  0  0
 51 53  1  0  0  0  0
 51 54  1  0  0  0  0
 52 56  1  0  0  0  0
 53 58  1  0  0  0  0
 54 73  1  0  0  0  0
 55 58  1  0  0  0  0
 55 73  1  0  0  0  0
 56 77  1  0  0  0  0
 57 72  1  0  0  0  0
 58 70  1  0  0  0  0
 59 65  1  0  0  0  0
 60 67  1  0  0  0  0
 61 68  1  0  0  0  0
 62 68  1  0  0  0  0
 63 68  1  0  0  0  0
 64 79  1  0  0  0  0
 66 68  1  0  0  0  0
 66 78  1  0  0  0  0
 67 79  1  0  0  0  0
 69 70  1  0  0  0  0
M  CHG  1  79   1
M  ISO  4  39 101  45 100  76 100  87 101
M  END
> <Batch ID>
0077

> <Smiles>
C=C1CN(c2cccc([100NH:0][100C:0](=O)N3CCCC(n4nc(-c5ccc(Oc6ccc(F)cc6F)cc5)c(C(N)=O)c4N)C3)c2)C(=O)C1=CC(CC)=[101CH:1][101O:1]c1ccc2c(c1)CN(C(=O)C(NC(=O)C(C)NC)C(C)(C)C)C(C(=O)NC1CCCc3ccccc31)C2

> <Shape>
0.238

> <Color>
0.073

> <Negative vol penalty>
0.000

$$$$

  -OEChem-04042323533D

 83 91  0     1  0  0  0  0  0999 V2000
  -24.1898  -32.7161   32.3416 C   0  0  0  0  0  0  0  0  0  0  0  0
  -24.6397  -31.4620   31.9412 C   0  0  0  0  0  0  0  0  0  0  0  0
  -30.9822  -19.3849   20.6894 C   0  0  0  0  0  0  0  0  0  0  0  0
  -23.1851   -9.7992   19.9133 C   0  0  0  0  0  0  0  0  0  0  0  0
  -23.8732   -9.8704   22.2281 C   0  0  0  0  0  0  0  0  0  0  0  0
  -23.2325  -33.3872   31.5820 C   0  0  0  0  0  0  0  0  0  0  0  0
  -24.1316  -30.8779   30.7814 C   0  0  0  0  0  0  0  0  0  0  0  0
  -27.1552  -27.3093   26.8280 C   0  0  0  0  0  0  0  0  0  0  0  0
  -30.1904  -20.1518   21.5441 C   0  0  0  0  0  0  0  0  0  0  0  0
  -30.8746  -17.9942   20.6993 C   0  0  0  0  0  0  0  0  0  0  0  0
  -22.4869   -8.6166   20.1572 C   0  0  0  0  0  0  0  0  0  0  0  0
  -23.1749   -8.6878   22.4720 C   0  0  0  0  0  0  0  0  0  0  0  0
  -27.2174  -25.9252   26.6719 C   0  0  0  0  0  0  0  0  0  0  0  0
  -19.9692   -7.7513   22.9886 C   0  0  0  0  0  0  0  0  0  0  0  0
  -19.1792   -7.6919   24.1366 C   0  0  0  0  0  0  0  0  0  0  0  0
  -25.5075  -26.0460   24.9746 C   0  0  0  0  0  0  0  0  0  0  0  0
  -20.4838   -5.8228   24.9376 C   0  0  0  0  0  0  0  0  0  0  0  0
  -23.8783  -10.4261   20.9487 C   0  0  0  0  0  0  0  0  0  0  0  0
  -24.1091  -12.9625   20.8030 C   0  0  0  0  0  0  0  0  0  0  0  0
  -22.7195  -32.8152   30.4071 C   0  0  0  0  0  0  0  0  0  0  0  0
  -26.2594  -28.0721   26.0651 C   0  0  0  0  0  0  0  0  0  0  0  0
  -23.1656  -31.5414   30.0061 C   0  0  0  0  0  0  0  0  0  0  0  0
  -25.4376  -27.4398   25.1211 C   0  0  0  0  0  0  0  0  0  0  0  0
  -29.2911  -19.5280   22.4089 C   0  0  0  0  0  0  0  0  0  0  0  0
  -29.9753  -17.3704   21.5641 C   0  0  0  0  0  0  0  0  0  0  0  0
  -22.4817   -8.0609   21.4365 C   0  0  0  0  0  0  0  0  0  0  0  0
  -26.3914  -25.2930   25.7471 C   0  0  0  0  0  0  0  0  0  0  0  0
  -21.0164   -6.8464   22.8150 C   0  0  0  0  0  0  0  0  0  0  0  0
  -19.4366   -6.7277   25.1112 C   0  0  0  0  0  0  0  0  0  0  0  0
  -21.2738   -5.8822   23.7895 C   0  0  0  0  0  0  0  0  0  0  0  0
  -29.1836  -18.1373   22.4189 C   0  0  0  0  0  0  0  0  0  0  0  0
  -24.6003  -11.6474   20.6973 C   0  0  0  0  0  0  0  0  0  0  0  0
  -25.1769  -13.7563   20.4621 C   0  0  0  0  0  0  0  0  0  0  0  0
  -27.4861  -22.1343   24.4174 C   0  0  0  0  0  0  0  0  0  0  0  0
  -27.3243  -23.4366   24.6728 C   0  0  0  0  0  0  0  0  0  1  0  0
  -22.8043  -13.4251   21.1762 C   0  0  0  0  0  0  0  0  0  0  0  0
  -28.4730  -21.6938   23.3886 C   0  0  0  0  0  0  0  0  0  0  0  0
  -23.7828  -29.9510   26.7285 C   0  0  0  0  0  0  0  0  0  0  0  0
  -23.8932  -30.5637   23.5450 C   0  0  0  0  0  0  0  0  0  0  0  0
  -24.8258  -29.5355   20.4274 C   0  0  0  0  0  0  0  0  0  0  0  0
  -30.5822  -15.0525   20.7861 C   0  0  0  0  0  0  0  0  0  0  0  0
  -21.6513  -33.5581   29.6444 C   0  0  0  0  0  0  0  0  0  0  0  0
  -26.2234  -29.5671   26.2264 C   0  0  0  0  0  0  0  0  0  0  0  0
  -24.4731  -28.2156   24.2631 C   0  0  0  0  0  0  0  0  0  0  0  0
  -21.4389  -33.0337   28.2266 C   0  0  0  0  0  0  0  0  0  0  0  0
  -29.6514  -12.5600   18.4201 C   0  0  0  0  0  0  0  0  0  0  0  0
  -21.3536  -31.5107   28.2280 C   0  0  0  0  0  0  0  0  0  0  0  0
  -28.2139  -12.2086   18.8103 C   0  0  0  0  0  0  0  0  0  0  0  0
  -30.5179  -12.8458   19.6453 C   0  0  0  0  0  0  0  0  0  0  0  0
  -28.5386  -13.5002   20.9582 C   0  0  0  0  0  0  0  0  0  0  0  0
  -22.6567  -30.8857   28.7407 C   0  0  1  0  0  0  0  0  0  0  0  0
  -24.9090  -30.1868   25.7621 C   0  0  1  0  0  0  0  0  0  0  0  0
  -27.6112  -13.2675   19.7542 C   0  0  2  0  0  0  0  0  0  0  0  0
  -24.7471  -30.2321   18.0178 C   0  0  0  0  0  0  0  0  0  0  0  0
  -20.9426  -29.7963   23.4221 C   0  0  0  0  0  0  0  0  0  0  0  0
  -21.1720  -29.5883   20.9377 C   0  0  0  0  0  0  0  0  0  0  0  0
  -21.5603  -31.7899   22.0443 C   0  0  0  0  0  0  0  0  0  0  0  0
  -27.7780  -29.5779   20.2228 C   0  0  0  0  0  0  0  0  0  0  0  0
  -23.2704  -29.9477   22.3155 C   0  0  1  0  0  0  0  0  0  0  0  0
  -25.5550  -30.2535   19.3061 C   0  0  2  0  0  0  0  0  0  0  0  0
  -21.7530  -30.2654   22.1973 C   0  0  0  0  0  0  0  0  0  0  0  0
  -25.8804  -11.6040   20.3186 N   0  0  0  0  0  0  0  0  0  0  0  0
  -26.2027  -12.9017   20.1834 N   0  0  0  0  0  0  0  0  0  0  0  0
  -24.4705  -29.6743   24.4624 N   0  0  0  0  0  0  0  0  0  0  0  0
  -29.8862  -13.8612   20.4907 N   0  0  0  0  0  0  0  0  0  0  0  0
  -25.3290  -15.0949   20.3765 N   0  0  0  0  0  0  0  0  0  0  0  0
  -21.8247  -12.4751   21.4958 N   0  0  0  0  0  0  0  0  0  0  0  0
  -28.4885  -20.3100   23.2754 N   0  0  0  0  0  0  0  0  0  0  0  0
  -29.8689  -15.9575   21.5714 N   0  0  0  0  0  0  0  0  0  0  0  0
  -23.6722  -30.9173   27.7101 N   0  0  0  0  0  0  0  0  0  0  0  0
  -24.0667  -30.4049   21.1819 N   0  0  0  0  0  0  0  0  0  0  0  0
  -26.8716  -29.6056   19.0461 N   0  3  0  0  0  0  0  0  0  0  0  0
  -22.5110  -14.6443   21.2088 O   0  0  0  0  0  0  0  0  0  0  0  0
  -29.1460  -22.5062   22.7652 O   0  0  0  0  0  0  0  0  0  0  0  0
  -23.0664  -28.9661   26.5928 O   0  0  0  0  0  0  0  0  0  0  0  0
  -23.8746  -31.7894   23.6829 O   0  0  0  0  0  0  0  0  0  0  0  0
  -24.9173  -28.3240   20.6129 O   0  0  0  0  0  0  0  0  0  0  0  0
  -31.7164  -15.2665   20.3503 O   0  0  0  0  0  0  0  0  0  0  0  0
  -21.8002   -6.9071   21.6750 O   0  0  0  0  0  0  0  0  0  0  0  0
  -26.4496  -23.9422   25.5932 O   0  0  0  0  0  0  0  0  0  1  0  0
  -18.6789   -6.6718   26.2143 F   0  0  0  0  0  0  0  0  0  0  0  0
  -22.2792   -5.0109   23.6288 F   0  0  0  0  0  0  0  0  0  0  0  0
  -28.3190  -17.5373   23.2516 F   0  0  0  0  0  0  0  0  0  0  0  0
  1  2  1  0  0  0  0
  1  6  2  0  0  0  0
  2  7  2  0  0  0  0
  3  9  2  0  0  0  0
  3 10  1  0  0  0  0
  4 11  2  0  0  0  0
  4 18  1  0  0  0  0
  5 12  1  0  0  0  0
  5 18  2  0  0  0  0
  6 20  1  0  0  0  0
  7 22  1  0  0  0  0
  8 13  2  0  0  0  0
  8 21  1  0  0  0  0
  9 24  1  0  0  0  0
 10 25  2  0  0  0  0
 11 26  1  0  0  0  0
 12 26  2  0  0  0  0
 13 27  1  0  0  0  0
 14 15  2  0  0  0  0
 14 28  1  0  0  0  0
 15 29  1  0  0  0  0
 16 23  1  0  0  0  0
 16 27  2  0  0  0  0
 17 29  2  0  0  0  0
 17 30  1  0  0  0  0
 18 32  1  0  0  0  0
 19 32  1  0  0  0  0
 19 33  2  0  0  0  0
 19 36  1  0  0  0  0
 20 22  2  0  0  0  0
 20 42  1  0  0  0  0
 21 23  2  0  0  0  0
 21 43  1  0  0  0  0
 22 51  1  0  0  0  0
 23 44  1  0  0  0  0
 24 31  2  0  0  0  0
 24 68  1  0  0  0  0
 25 31  1  0  0  0  0
 25 69  1  0  0  0  0
 26 79  1  0  0  0  0
 27 80  1  0  0  0  0
 28 30  2  0  0  0  0
 28 79  1  0  0  0  0
 29 81  1  0  0  0  0
 30 82  1  0  0  0  0
 31 83  1  0  0  0  0
 32 62  2  0  0  0  0
 33 63  1  0  0  0  0
 33 66  1  0  0  0  0
 34 35  2  0  0  0  0
 34 37  1  0  0  0  0
 35 80  1  0  0  0  0
 36 67  1  0  0  0  0
 36 73  2  0  0  0  0
 37 68  1  0  0  0  0
 37 74  2  0  0  0  0
 38 52  1  0  0  0  0
 38 70  1  0  0  0  0
 38 75  2  0  0  0  0
 39 59  1  0  0  0  0
 39 64  1  0  0  0  0
 39 76  2  0  0  0  0
 40 60  1  0  0  0  0
 40 71  1  0  0  0  0
 40 77  2  0  0  0  0
 41 65  1  0  0  0  0
 41 69  1  0  0  0  0
 41 78  2  0  0  0  0
 42 45  1  0  0  0  0
 43 52  1  0  0  0  0
 44 64  1  0  0  0  0
 45 47  1  0  0  0  0
 46 48  1  0  0  0  0
 46 49  1  0  0  0  0
 47 51  1  0  0  0  0
 48 53  1  0  0  0  0
 49 65  1  0  0  0  0
 50 53  1  0  0  0  0
 50 65  1  0  0  0  0
 51 70  1  0  0  0  0
 52 64  1  0  0  0  0
 53 63  1  0  0  0  0
 54 60  1  0  0  0  0
 55 61  1  0  0  0  0
 56 61  1  0  0  0  0
 57 61  1  0  0  0  0
 58 72  1  0  0  0  0
 59 61  1  0  0  0  0
 59 71  1  0  0  0  0
 60 72  1  0  0  0  0
 62 63  1  0  0  0  0
M  CHG  1  72   1
M  ISO  4  35 101  41 100  69 100  80 101
M  END
> <Batch ID>
0077

> <Smiles>
CNC(C)C(=O)NC(C(=O)N1Cc2cc([101O:1][101CH:1]=CC(=O)Nc3cccc([100NH:0][100C:0](=O)N4CCCC(n5nc(-c6ccc(Oc7ccc(F)cc7F)cc6)c(C(N)=O)c5N)C4)c3F)ccc2CC1C(=O)NC1CCCc2ccccc21)C(C)(C)C

> <Shape>
0.267

> <Color>
0.205

> <Negative vol penalty>
0.000

$$$$
