
  -OEChem-04042323563D

 88 97  0     1  0  0  0  0  0999 V2000
  -27.8254  -37.4426   25.7877 C   0  0  0  0  0  0  0  0  0  0  0  0
  -28.3794  -36.6220   24.8104 C   0  0  0  0  0  0  0  0  0  0  0  0
  -24.4006   -8.7847   21.4495 C   0  0  0  0  0  0  0  0  0  0  0  0
  -24.3474  -10.3419   23.2959 C   0  0  0  0  0  0  0  0  0  0  0  0
  -26.8116  -36.9562   26.6120 C   0  0  0  0  0  0  0  0  0  0  0  0
  -27.9207  -35.3141   24.6576 C   0  0  0  0  0  0  0  0  0  0  0  0
  -26.8529  -30.3240   19.6302 C   0  0  0  0  0  0  0  0  0  0  0  0
  -24.0326   -7.7510   22.3107 C   0  0  0  0  0  0  0  0  0  0  0  0
  -23.9794   -9.3083   24.1571 C   0  0  0  0  0  0  0  0  0  0  0  0
  -27.1583  -28.9923   19.3525 C   0  0  0  0  0  0  0  0  0  0  0  0
  -21.2035   -6.6154   23.7733 C   0  0  0  0  0  0  0  0  0  0  0  0
  -20.2080   -5.7375   23.3442 C   0  0  0  0  0  0  0  0  0  0  0  0
  -26.9688  -20.4021   19.9169 C   0  0  0  0  0  0  0  0  0  0  0  0
  -25.3475  -28.2854   20.7810 C   0  0  0  0  0  0  0  0  0  0  0  0
  -29.4052  -19.0436   19.8857 C   0  0  0  0  0  0  0  0  0  0  0  0
  -21.7570   -3.8923   23.5257 C   0  0  0  0  0  0  0  0  0  0  0  0
  -24.5580  -10.0802   21.9421 C   0  0  0  0  0  0  0  0  0  0  0  0
  -26.9957  -19.0229   19.7105 C   0  0  0  0  0  0  0  0  0  0  0  0
  -24.0813  -11.9896   20.3190 C   0  0  0  0  0  0  0  0  0  0  0  0
  -26.3335  -35.6448   26.4629 C   0  0  0  0  0  0  0  0  0  0  0  0
  -25.7977  -30.6467   20.4955 C   0  0  0  0  0  0  0  0  0  0  0  0
  -26.9004  -34.8093   25.4816 C   0  0  0  0  0  0  0  0  0  0  0  0
  -25.0292  -29.6220   21.0661 C   0  0  0  0  0  0  0  0  0  0  0  0
  -28.1602  -21.1021   20.1077 C   0  0  0  0  0  0  0  0  0  0  0  0
  -28.2138  -18.3436   19.6949 C   0  0  0  0  0  0  0  0  0  0  0  0
  -23.8220   -8.0128   23.6645 C   0  0  0  0  0  0  0  0  0  0  0  0
  -26.4074  -27.9727   19.9302 C   0  0  0  0  0  0  0  0  0  0  0  0
  -22.4757   -6.1317   24.0785 C   0  0  0  0  0  0  0  0  0  0  0  0
  -20.4848   -4.3760   23.2205 C   0  0  0  0  0  0  0  0  0  0  0  0
  -29.3783  -20.4229   20.0922 C   0  0  0  0  0  0  0  0  0  0  0  0
  -22.7525   -4.7702   23.9548 C   0  0  0  0  0  0  0  0  0  0  0  0
  -24.9387  -11.1483   21.0531 C   0  0  0  0  0  0  0  0  0  0  0  0
  -24.9265  -12.8296   19.6360 C   0  0  0  0  0  0  0  0  0  0  0  0
  -27.0277  -23.2826   20.3560 C   0  0  0  0  0  0  0  0  0  0  0  0
  -27.3501  -24.5652   20.5723 C   0  0  0  0  0  0  0  0  0  0  0  0
  -28.7975  -24.6576   20.6890 C   0  0  0  0  0  0  0  0  0  0  0  0
  -29.5300  -25.7544   20.9064 C   0  0  0  0  0  0  0  0  0  0  0  0
  -25.7333  -18.3211   19.5142 C   0  0  0  0  0  0  0  0  0  0  0  0
  -22.6489  -12.0101   20.2599 C   0  0  0  0  0  0  0  0  0  0  0  0
  -25.5640  -32.1582   23.2820 C   0  0  0  0  0  0  0  0  0  0  0  0
  -22.3816  -31.7936   22.7699 C   0  0  0  0  0  0  0  0  0  0  0  0
  -19.8739  -30.0610   21.2349 C   0  0  0  0  0  0  0  0  0  0  0  0
  -29.4023  -16.1363   19.4465 C   0  0  0  0  0  0  0  0  0  0  0  0
  -25.2688  -35.1483   27.4087 C   0  0  0  0  0  0  0  0  0  0  0  0
  -25.4641  -32.0886   20.7638 C   0  0  0  0  0  0  0  0  0  0  0  0
  -23.8732  -29.9159   21.9858 C   0  0  0  0  0  0  0  0  0  0  0  0
  -29.3558  -23.2544   20.5168 C   0  0  0  0  0  0  0  0  0  0  0  0
  -24.5797  -33.8715   26.9341 C   0  0  0  0  0  0  0  0  0  0  0  0
  -29.9444  -12.6463   18.9963 C   0  0  0  0  0  0  0  0  0  0  0  0
  -25.6113  -32.8529   26.4596 C   0  0  0  0  0  0  0  0  0  0  0  0
  -28.6199  -12.0146   19.4309 C   0  0  0  0  0  0  0  0  0  0  0  0
  -30.3041  -13.8572   19.8554 C   0  0  0  0  0  0  0  0  0  0  0  0
  -27.9314  -14.2491   20.3901 C   0  0  0  0  0  0  0  0  0  0  0  0
  -26.4124  -33.3928   25.2686 C   0  0  1  0  0  0  0  0  0  0  0  0
  -24.6934  -32.2916   22.0646 C   0  0  1  0  0  0  0  0  0  0  0  0
  -27.4947  -13.0648   19.5124 C   0  0  2  0  0  0  0  0  0  0  0  0
  -24.5180  -18.8854   20.1875 C   0  0  0  0  0  0  0  0  0  0  0  0
  -17.3737  -29.9737   21.0384 C   0  0  0  0  0  0  0  0  0  0  0  0
  -22.2121  -30.5048   25.5304 C   0  0  0  0  0  0  0  0  0  0  0  0
  -19.9644  -29.6037   24.8950 C   0  0  0  0  0  0  0  0  0  0  0  0
  -20.3361  -32.0685   24.9922 C   0  0  0  0  0  0  0  0  0  0  0  0
  -19.9690  -30.5726   18.3214 C   0  0  0  0  0  0  0  0  0  0  0  0
  -26.4181  -25.7165   20.6819 C   0  0  0  0  0  0  0  0  0  1  0  0
  -21.3595  -30.7342   23.1042 C   0  0  1  0  0  0  0  0  0  0  0  0
  -18.6617  -30.5276   20.4492 C   0  0  2  0  0  0  0  0  0  0  0  0
  -20.9910  -30.7219   24.6147 C   0  0  0  0  0  0  0  0  0  0  0  0
  -26.2296  -11.4281   20.8549 N   0  0  0  0  0  0  0  0  0  0  0  0
  -26.1896  -12.4547   19.9885 N   0  0  0  0  0  0  0  0  0  0  0  0
  -28.1315  -22.4588   20.3105 N   0  0  0  0  0  0  0  0  0  0  0  0
  -23.5905  -31.3413   22.2222 N   0  0  0  0  0  0  0  0  0  0  0  0
  -29.1930  -14.8109   19.8827 N   0  0  0  0  0  0  0  0  0  0  0  0
  -24.7051  -13.8449   18.7743 N   0  0  0  0  0  0  0  0  0  0  0  0
  -21.9352  -11.0775   21.0249 N   0  0  0  0  0  0  0  0  0  0  0  0
  -28.2655  -16.9430   19.4871 N   0  0  0  0  0  0  0  0  0  0  0  0
  -25.6327  -33.3030   24.0527 N   0  0  0  0  0  0  0  0  0  0  0  0
  -20.2265  -30.9650   22.2146 N   0  0  0  0  0  0  0  0  0  0  0  0
  -18.7601  -30.0806   19.0310 N   0  3  0  0  0  0  0  0  0  0  0  0
  -25.5939  -17.2994   18.8419 O   0  0  0  0  0  0  0  0  0  0  0  0
  -22.0208  -12.8204   19.5371 O   0  0  0  0  0  0  0  0  0  0  0  0
  -26.1302  -31.0948   23.5062 O   0  0  0  0  0  0  0  0  0  0  0  0
  -22.1145  -32.9794   22.9801 O   0  0  0  0  0  0  0  0  0  0  0  0
  -20.4483  -28.9990   21.0050 O   0  0  0  0  0  0  0  0  0  0  0  0
  -30.5021  -16.5196   19.0395 O   0  0  0  0  0  0  0  0  0  0  0  0
  -23.4627   -7.0044   24.5051 O   0  0  0  0  0  0  0  0  0  0  0  0
  -26.7037  -26.6720   19.6613 O   0  0  0  0  0  0  0  0  0  1  0  0
  -19.5283   -3.5329   22.8099 F   0  0  0  0  0  0  0  0  0  0  0  0
  -30.5293  -21.0857   20.2745 F   0  0  0  0  0  0  0  0  0  0  0  0
  -23.9725   -4.2995   24.2477 F   0  0  0  0  0  0  0  0  0  0  0  0
  1  2  1  0  0  0  0
  1  5  2  0  0  0  0
  2  6  2  0  0  0  0
  3  8  2  0  0  0  0
  3 17  1  0  0  0  0
  4  9  1  0  0  0  0
  4 17  2  0  0  0  0
  5 20  1  0  0  0  0
  6 22  1  0  0  0  0
  7 10  2  0  0  0  0
  7 21  1  0  0  0  0
  8 26  1  0  0  0  0
  9 26  2  0  0  0  0
 10 27  1  0  0  0  0
 11 12  2  0  0  0  0
 11 28  1  0  0  0  0
 12 29  1  0  0  0  0
 13 18  2  0  0  0  0
 13 24  1  0  0  0  0
 14 23  1  0  0  0  0
 14 27  2  0  0  0  0
 15 25  2  0  0  0  0
 15 30  1  0  0  0  0
 16 29  2  0  0  0  0
 16 31  1  0  0  0  0
 17 32  1  0  0  0  0
 18 25  1  0  0  0  0
 18 38  1  0  0  0  0
 19 32  1  0  0  0  0
 19 33  2  0  0  0  0
 19 39  1  0  0  0  0
 20 22  2  0  0  0  0
 20 44  1  0  0  0  0
 21 23  2  0  0  0  0
 21 45  1  0  0  0  0
 22 54  1  0  0  0  0
 23 46  1  0  0  0  0
 24 30  2  0  0  0  0
 24 69  1  0  0  0  0
 25 74  1  0  0  0  0
 26 84  1  0  0  0  0
 27 85  1  0  0  0  0
 28 31  2  0  0  0  0
 28 84  1  0  0  0  0
 29 86  1  0  0  0  0
 30 87  1  0  0  0  0
 31 88  1  0  0  0  0
 32 67  2  0  0  0  0
 33 68  1  0  0  0  0
 33 72  1  0  0  0  0
 34 35  2  0  0  0  0
 34 69  1  0  0  0  0
 35 36  1  0  0  0  0
 35 63  1  0  0  0  0
 36 37  2  0  0  0  0
 36 47  1  0  0  0  0
 38 57  1  0  0  0  0
 38 78  2  0  0  0  0
 39 73  1  0  0  0  0
 39 79  2  0  0  0  0
 40 55  1  0  0  0  0
 40 75  1  0  0  0  0
 40 80  2  0  0  0  0
 41 64  1  0  0  0  0
 41 70  1  0  0  0  0
 41 81  2  0  0  0  0
 42 65  1  0  0  0  0
 42 76  1  0  0  0  0
 42 82  2  0  0  0  0
 43 71  1  0  0  0  0
 43 74  1  0  0  0  0
 43 83  2  0  0  0  0
 44 48  1  0  0  0  0
 45 55  1  0  0  0  0
 46 70  1  0  0  0  0
 47 69  1  0  0  0  0
 48 50  1  0  0  0  0
 49 51  1  0  0  0  0
 49 52  1  0  0  0  0
 50 54  1  0  0  0  0
 51 56  1  0  0  0  0
 52 71  1  0  0  0  0
 53 56  1  0  0  0  0
 53 71  1  0  0  0  0
 54 75  1  0  0  0  0
 55 70  1  0  0  0  0
 56 68  1  0  0  0  0
 58 65  1  0  0  0  0
 59 66  1  0  0  0  0
 60 66  1  0  0  0  0
 61 66  1  0  0  0  0
 62 77  1  0  0  0  0
 63 85  1  0  0  0  0
 64 66  1  0  0  0  0
 64 76  1  0  0  0  0
 65 77  1  0  0  0  0
 67 68  1  0  0  0  0
M  CHG  1  77   1
M  ISO  4  43 100  63 101  74 100  85 101
M  END
> <Batch ID>
0078

> <Smiles>
C=C1CN(c2cc(C(C)=O)c([100NH:0][100C:0](=O)N3CCCC(n4nc(-c5ccc(Oc6ccc(F)cc6F)cc5)c(C(N)=O)c4N)C3)cc2F)C=C1[101CH2:1][101O:1]c1ccc2c(c1)CN(C(=O)C(NC(=O)C(C)NC)C(C)(C)C)C(C(=O)NC1CCCc3ccccc31)C2

> <Shape>
0.323

> <Color>
0.092

> <Negative vol penalty>
0.000

$$$$

  -OEChem-04042323563D

 88 96  0     1  0  0  0  0  0999 V2000
  -32.0366  -13.9106   19.9210 C   0  0  0  0  0  0  0  0  0  0  0  0
  -31.6940  -15.2414   20.1373 C   0  0  0  0  0  0  0  0  0  0  0  0
  -29.6321  -28.4750   20.5212 C   0  0  0  0  0  0  0  0  0  0  0  0
  -27.9303  -27.3496   19.2271 C   0  0  0  0  0  0  0  0  0  0  0  0
  -31.0371  -12.9512   19.7647 C   0  0  0  0  0  0  0  0  0  0  0  0
  -30.3516  -15.6139   20.1963 C   0  0  0  0  0  0  0  0  0  0  0  0
  -25.9924  -20.2905   23.4279 C   0  0  0  0  0  0  0  0  0  0  0  0
  -20.0668  -27.7380   21.2709 C   0  0  0  0  0  0  0  0  0  0  0  0
  -19.5602  -28.0766   23.6088 C   0  0  0  0  0  0  0  0  0  0  0  0
  -30.5040  -27.4086   20.3020 C   0  0  0  0  0  0  0  0  0  0  0  0
  -28.8023  -26.2832   19.0079 C   0  0  0  0  0  0  0  0  0  0  0  0
  -25.0181  -21.2409   23.1258 C   0  0  0  0  0  0  0  0  0  0  0  0
  -29.9208  -23.5881   20.7156 C   0  0  0  0  0  0  0  0  0  0  0  0
  -29.4174  -22.2967   20.8723 C   0  0  0  0  0  0  0  0  0  0  0  0
  -18.9979  -26.8477   21.1682 C   0  0  0  0  0  0  0  0  0  0  0  0
  -18.4913  -27.1863   23.5061 C   0  0  0  0  0  0  0  0  0  0  0  0
  -23.3770  -19.4848   22.9210 C   0  0  0  0  0  0  0  0  0  0  0  0
  -29.9522  -21.8086   18.5673 C   0  0  0  0  0  0  0  0  0  0  0  0
  -28.3452  -28.4455   19.9838 C   0  0  0  0  0  0  0  0  0  0  0  0
  -27.2893  -30.6965   19.4132 C   0  0  0  0  0  0  0  0  0  0  0  0
  -29.6817  -13.3105   19.8315 C   0  0  0  0  0  0  0  0  0  0  0  0
  -25.6681  -18.9268   23.4682 C   0  0  0  0  0  0  0  0  0  0  0  0
  -29.3330  -14.6586   20.0395 C   0  0  0  0  0  0  0  0  0  0  0  0
  -24.3485  -18.5192   23.2264 C   0  0  0  0  0  0  0  0  0  0  0  0
  -20.3480  -28.3523   22.4913 C   0  0  0  0  0  0  0  0  0  0  0  0
  -30.0892  -26.3127   19.5453 C   0  0  0  0  0  0  0  0  0  0  0  0
  -23.7108  -20.8379   22.8695 C   0  0  0  0  0  0  0  0  0  0  0  0
  -30.4397  -23.9898   19.4848 C   0  0  0  0  0  0  0  0  0  0  0  0
  -29.4331  -21.4070   19.7982 C   0  0  0  0  0  0  0  0  0  0  0  0
  -30.4555  -23.1001   18.4107 C   0  0  0  0  0  0  0  0  0  0  0  0
  -18.2101  -26.5719   22.2858 C   0  0  0  0  0  0  0  0  0  0  0  0
  -27.4439  -29.5466   20.2104 C   0  0  0  0  0  0  0  0  0  0  0  0
  -26.3184  -31.4289   20.0515 C   0  0  0  0  0  0  0  0  0  0  0  0
  -27.9631  -31.0694   18.2037 C   0  0  0  0  0  0  0  0  0  0  0  0
  -26.5925  -16.3526   21.8488 C   0  0  0  0  0  0  0  0  0  0  0  0
  -18.8285  -21.2412   20.5178 C   0  0  0  0  0  0  0  0  0  0  0  0
  -20.4917  -22.4309   22.0390 C   0  0  0  0  0  0  0  0  0  0  0  0
  -24.7573  -14.8019   24.0282 C   0  0  0  0  0  0  0  0  0  0  0  0
  -22.1699  -14.9263   26.2501 C   0  0  0  0  0  0  0  0  0  0  0  0
  -21.8485  -29.9513   23.7314 C   0  0  0  0  0  0  0  0  0  0  0  0
  -17.7291  -23.9814   22.5565 C   0  0  0  0  0  0  0  0  0  0  0  0
  -28.6367  -12.2459   19.6096 C   0  0  0  0  0  0  0  0  0  0  0  0
  -26.7247  -17.9164   23.8218 C   0  0  0  0  0  0  0  0  0  0  0  0
  -23.9444  -17.0692   23.2771 C   0  0  0  0  0  0  0  0  0  0  0  0
  -27.2384  -12.6618   20.0592 C   0  0  0  0  0  0  0  0  0  0  0  0
  -24.4933  -32.2381   24.4045 C   0  0  0  0  0  0  0  0  0  0  0  0
  -26.9119  -14.0650   19.5581 C   0  0  0  0  0  0  0  0  0  0  0  0
  -25.5334  -31.9162   23.3290 C   0  0  0  0  0  0  0  0  0  0  0  0
  -23.7840  -30.9800   24.9022 C   0  0  0  0  0  0  0  0  0  0  0  0
  -24.2325  -29.8215   22.7748 C   0  0  0  0  0  0  0  0  0  0  0  0
  -27.8879  -15.0977   20.1346 C   0  0  1  0  0  0  0  0  0  0  0  0
  -26.3954  -16.5104   23.3300 C   0  0  1  0  0  0  0  0  0  0  0  0
  -24.9275  -31.0648   22.1960 C   0  0  2  0  0  0  0  0  0  0  0  0
  -17.6133  -20.3494   20.4953 C   0  0  0  0  0  0  0  0  0  0  0  0
  -20.8804  -13.4909   27.8545 C   0  0  0  0  0  0  0  0  0  0  0  0
  -23.2946  -13.5029   21.6866 C   0  0  0  0  0  0  0  0  0  0  0  0
  -21.4680  -12.8612   23.2741 C   0  0  0  0  0  0  0  0  0  0  0  0
  -23.7732  -11.9653   23.6000 C   0  0  0  0  0  0  0  0  0  0  0  0
  -22.9385  -16.6128   28.5574 C   0  0  0  0  0  0  0  0  0  0  0  0
  -21.4392  -21.2803   22.3220 C   0  0  0  0  0  0  0  0  0  1  0  0
  -19.0528  -22.0558   21.7686 C   0  0  1  0  0  0  0  0  0  0  0  0
  -23.3052  -14.3972   24.1086 C   0  0  1  0  0  0  0  0  0  0  0  0
  -22.0509  -14.4470   27.6855 C   0  0  2  0  0  0  0  0  0  0  0  0
  -22.9679  -13.2089   23.1644 C   0  0  0  0  0  0  0  0  0  0  0  0
  -26.6360  -29.5441   21.2740 N   0  0  0  0  0  0  0  0  0  0  0  0
  -25.9645  -30.7016   21.1497 N   0  0  0  0  0  0  0  0  0  0  0  0
  -25.0148  -16.1187   23.6211 N   0  0  0  0  0  0  0  0  0  0  0  0
  -23.2317  -30.2263   23.7745 N   0  0  0  0  0  0  0  0  0  0  0  0
  -25.7415  -32.6176   19.7750 N   0  0  0  0  0  0  0  0  0  0  0  0
  -28.9331  -30.2012   17.6845 N   0  0  0  0  0  0  0  0  0  0  0  0
  -21.4338  -29.2568   22.5956 N   0  0  0  0  0  0  0  0  0  0  0  0
  -27.5424  -15.4097   21.5049 N   0  0  0  0  0  0  0  0  0  0  0  0
  -23.0314  -14.1371   25.5178 N   0  0  0  0  0  0  0  0  0  0  0  0
  -18.3011  -23.2854   21.5665 N   0  0  0  0  0  0  0  0  0  0  0  0
  -17.7785  -23.6345   23.8383 N   0  3  0  0  0  0  0  0  0  0  0  0
  -21.8490  -15.6040   28.6029 N   0  3  0  0  0  0  0  0  0  0  0  0
  -27.7240  -32.1483   17.6103 O   0  0  0  0  0  0  0  0  0  0  0  0
  -25.9308  -17.0346   21.0751 O   0  0  0  0  0  0  0  0  0  0  0  0
  -19.5852  -21.3042   19.5489 O   0  0  0  0  0  0  0  0  0  0  0  0
  -20.8802  -23.5987   22.0278 O   0  0  0  0  0  0  0  0  0  0  0  0
  -25.6307  -13.9822   24.3228 O   0  0  0  0  0  0  0  0  0  0  0  0
  -21.5568  -15.9010   25.8203 O   0  0  0  0  0  0  0  0  0  0  0  0
  -21.0836  -30.3297   24.6224 O   0  0  0  0  0  0  0  0  0  0  0  0
  -30.9398  -25.2720   19.3311 O   0  0  0  0  0  0  0  0  0  0  0  0
  -22.7581  -21.7634   22.5737 O   0  0  0  0  0  0  0  0  0  1  0  0
  -28.9512  -20.1664   19.9492 F   0  0  0  0  0  0  0  0  0  0  0  0
  -30.9539  -23.4799   17.2261 F   0  0  0  0  0  0  0  0  0  0  0  0
  -16.8410  -25.4316   22.1540 S   0  0  0  0  0  0  0  0  0  0  0  0
  1  2  1  0  0  0  0
  1  5  2  0  0  0  0
  2  6  2  0  0  0  0
  3 10  2  0  0  0  0
  3 19  1  0  0  0  0
  4 11  1  0  0  0  0
  4 19  2  0  0  0  0
  5 21  1  0  0  0  0
  6 23  1  0  0  0  0
  7 12  2  0  0  0  0
  7 22  1  0  0  0  0
  8 15  2  0  0  0  0
  8 25  1  0  0  0  0
  9 16  1  0  0  0  0
  9 25  2  0  0  0  0
 10 26  1  0  0  0  0
 11 26  2  0  0  0  0
 12 27  1  0  0  0  0
 13 14  2  0  0  0  0
 13 28  1  0  0  0  0
 14 29  1  0  0  0  0
 15 31  1  0  0  0  0
 16 31  2  0  0  0  0
 17 24  1  0  0  0  0
 17 27  2  0  0  0  0
 18 29  2  0  0  0  0
 18 30  1  0  0  0  0
 19 32  1  0  0  0  0
 20 32  1  0  0  0  0
 20 33  2  0  0  0  0
 20 34  1  0  0  0  0
 21 23  2  0  0  0  0
 21 42  1  0  0  0  0
 22 24  2  0  0  0  0
 22 43  1  0  0  0  0
 23 51  1  0  0  0  0
 24 44  1  0  0  0  0
 25 71  1  0  0  0  0
 26 84  1  0  0  0  0
 27 85  1  0  0  0  0
 28 30  2  0  0  0  0
 28 84  1  0  0  0  0
 29 86  1  0  0  0  0
 30 87  1  0  0  0  0
 31 88  1  0  0  0  0
 32 65  2  0  0  0  0
 33 66  1  0  0  0  0
 33 69  1  0  0  0  0
 34 70  1  0  0  0  0
 34 77  2  0  0  0  0
 35 52  1  0  0  0  0
 35 72  1  0  0  0  0
 35 78  2  0  0  0  0
 36 54  1  0  0  0  0
 36 61  1  0  0  0  0
 36 79  2  0  0  0  0
 37 60  1  0  0  0  0
 37 61  1  0  0  0  0
 37 80  2  0  0  0  0
 38 62  1  0  0  0  0
 38 67  1  0  0  0  0
 38 81  2  0  0  0  0
 39 63  1  0  0  0  0
 39 73  1  0  0  0  0
 39 82  2  0  0  0  0
 40 68  1  0  0  0  0
 40 71  1  0  0  0  0
 40 83  2  0  0  0  0
 41 74  1  0  0  0  0
 41 75  2  0  0  0  0
 41 88  1  0  0  0  0
 42 45  1  0  0  0  0
 43 52  1  0  0  0  0
 44 67  1  0  0  0  0
 45 47  1  0  0  0  0
 46 48  1  0  0  0  0
 46 49  1  0  0  0  0
 47 51  1  0  0  0  0
 48 53  1  0  0  0  0
 49 68  1  0  0  0  0
 50 53  1  0  0  0  0
 50 68  1  0  0  0  0
 51 72  1  0  0  0  0
 52 67  1  0  0  0  0
 53 66  1  0  0  0  0
 55 63  1  0  0  0  0
 56 64  1  0  0  0  0
 57 64  1  0  0  0  0
 58 64  1  0  0  0  0
 59 76  1  0  0  0  0
 60 85  1  0  0  0  0
 61 74  1  0  0  0  0
 62 64  1  0  0  0  0
 62 73  1  0  0  0  0
 63 76  1  0  0  0  0
 65 66  1  0  0  0  0
M  CHG  2  75   1  76   1
M  ISO  4  40 100  60 101  71 100  85 101
M  END
> <Batch ID>
0078

> <Smiles>
CNC(C)C(=O)NC(C(=O)N1Cc2cc([101O:1][101CH2:1]C(=O)C(NC(=N)Sc3ccc([100NH:0][100C:0](=O)N4CCCC(n5nc(-c6ccc(Oc7ccc(F)cc7F)cc6)c(C(N)=O)c5N)C4)cc3)C(C)=O)ccc2CC1C(=O)NC1CCCc2ccccc21)C(C)(C)C

> <Shape>
0.243

> <Color>
0.055

> <Negative vol penalty>
0.000

$$$$

  -OEChem-04042323563D

 91100  0     1  0  0  0  0  0999 V2000
  -29.5085  -34.6071   25.1170 C   0  0  0  0  0  0  0  0  0  0  0  0
  -29.3823  -33.2973   24.6655 C   0  0  0  0  0  0  0  0  0  0  0  0
  -24.5967   -8.8723   21.1975 C   0  0  0  0  0  0  0  0  0  0  0  0
  -23.0948  -10.6197   20.4708 C   0  0  0  0  0  0  0  0  0  0  0  0
  -28.3731  -35.3312   25.4782 C   0  0  0  0  0  0  0  0  0  0  0  0
  -28.1206  -32.7104   24.5760 C   0  0  0  0  0  0  0  0  0  0  0  0
  -27.4582  -30.1801   20.2396 C   0  0  0  0  0  0  0  0  0  0  0  0
  -23.5257   -8.1933   21.7785 C   0  0  0  0  0  0  0  0  0  0  0  0
  -22.0238   -9.9407   21.0518 C   0  0  0  0  0  0  0  0  0  0  0  0
  -28.0440  -28.9187   20.1426 C   0  0  0  0  0  0  0  0  0  0  0  0
  -20.9873   -6.2065   20.7576 C   0  0  0  0  0  0  0  0  0  0  0  0
  -20.8961   -4.8319   20.5392 C   0  0  0  0  0  0  0  0  0  0  0  0
  -29.2420  -21.9046   19.3037 C   0  0  0  0  0  0  0  0  0  0  0  0
  -25.9137  -27.8985   20.6330 C   0  0  0  0  0  0  0  0  0  0  0  0
  -30.2825  -22.6495   17.2226 C   0  0  0  0  0  0  0  0  0  0  0  0
  -21.0384   -4.4443   22.9197 C   0  0  0  0  0  0  0  0  0  0  0  0
  -24.3813  -10.0855   20.5437 C   0  0  0  0  0  0  0  0  0  0  0  0
  -29.1500  -20.6503   18.7365 C   0  0  0  0  0  0  0  0  0  0  0  0
  -29.6064  -20.3903   17.4526 C   0  0  0  0  0  0  0  0  0  0  0  0
  -25.9666  -10.6523   18.6271 C   0  0  0  0  0  0  0  0  0  0  0  0
  -27.0960  -34.7561   25.3839 C   0  0  0  0  0  0  0  0  0  0  0  0
  -26.0959  -30.3107   20.5453 C   0  0  0  0  0  0  0  0  0  0  0  0
  -26.9672  -33.4269   24.9375 C   0  0  0  0  0  0  0  0  0  0  0  0
  -25.3126  -29.1626   20.7308 C   0  0  0  0  0  0  0  0  0  0  0  0
  -29.8186  -22.9140   18.5274 C   0  0  0  0  0  0  0  0  0  0  0  0
  -22.2392   -8.7275   21.7056 C   0  0  0  0  0  0  0  0  0  0  0  0
  -27.2724  -27.7777   20.3422 C   0  0  0  0  0  0  0  0  0  0  0  0
  -21.1042   -6.7001   22.0570 C   0  0  0  0  0  0  0  0  0  0  0  0
  -30.1787  -21.3705   16.6684 C   0  0  0  0  0  0  0  0  0  0  0  0
  -20.9216   -3.9508   21.6203 C   0  0  0  0  0  0  0  0  0  0  0  0
  -21.1296   -5.8190   23.1380 C   0  0  0  0  0  0  0  0  0  0  0  0
  -25.4873  -10.7877   19.9439 C   0  0  0  0  0  0  0  0  0  0  0  0
  -27.0211  -11.5293   18.5537 C   0  0  0  0  0  0  0  0  0  0  0  0
  -28.6072  -19.4079   19.2856 C   0  0  0  0  0  0  0  0  0  0  0  0
  -29.3619  -18.9780   17.1625 C   0  0  0  0  0  0  0  0  0  0  0  0
  -28.9377  -25.0006   18.8369 C   0  0  0  0  0  0  0  0  0  0  0  0
  -25.5002   -9.8093   17.5653 C   0  0  0  0  0  0  0  0  0  0  0  0
  -24.4465  -31.6278   22.9220 C   0  0  0  0  0  0  0  0  0  0  0  0
  -26.8471  -16.9807   18.7065 C   0  0  0  0  0  0  0  0  0  0  0  0
  -21.9022  -30.8622   21.0612 C   0  0  0  0  0  0  0  0  0  0  0  0
  -29.1692  -16.5856   19.6068 C   0  0  0  0  0  0  0  0  0  0  0  0
  -20.6033  -28.8885   18.5986 C   0  0  0  0  0  0  0  0  0  0  0  0
  -25.9021  -35.5621   25.8306 C   0  0  0  0  0  0  0  0  0  0  0  0
  -25.4733  -31.6779   20.6200 C   0  0  0  0  0  0  0  0  0  0  0  0
  -23.8412  -29.2482   21.0412 C   0  0  0  0  0  0  0  0  0  0  0  0
  -24.5692  -34.9933   25.3510 C   0  0  0  0  0  0  0  0  0  0  0  0
  -29.4376  -14.0963   22.1702 C   0  0  0  0  0  0  0  0  0  0  0  0
  -24.5143  -33.4877   25.5900 C   0  0  0  0  0  0  0  0  0  0  0  0
  -28.4510  -13.0167   21.7270 C   0  0  0  0  0  0  0  0  0  0  0  0
  -28.9363  -15.4918   21.8122 C   0  0  0  0  0  0  0  0  0  0  0  0
  -27.6241  -14.5889   19.9189 C   0  0  0  0  0  0  0  0  0  0  0  0
  -25.6135  -32.7639   24.8030 C   0  0  1  0  0  0  0  0  0  0  0  0
  -24.1895  -31.7057   21.4436 C   0  0  1  0  0  0  0  0  0  0  0  0
  -28.1066  -13.1620   20.2341 C   0  0  2  0  0  0  0  0  0  0  0  0
  -25.9063  -16.7618   17.5478 C   0  0  0  0  0  0  0  0  0  0  0  0
  -18.4851  -28.4731   17.3188 C   0  0  0  0  0  0  0  0  0  0  0  0
  -28.6954  -16.2863   17.1861 C   0  0  0  0  0  0  0  0  0  0  0  0
  -20.7271  -29.4189   23.4791 C   0  0  0  0  0  0  0  0  0  0  0  0
  -19.1434  -28.2558   21.9276 C   0  0  0  0  0  0  0  0  0  0  0  0
  -19.0730  -30.7397   22.1472 C   0  0  0  0  0  0  0  0  0  0  0  0
  -21.8922  -29.5607   16.0207 C   0  0  0  0  0  0  0  0  0  0  0  0
  -31.2016  -22.2183   14.6959 C   0  0  0  0  0  0  0  0  0  0  0  0
  -28.9479  -26.4066   19.3579 C   0  0  0  0  0  0  0  0  0  1  0  0
  -21.0026  -29.6577   20.9231 C   0  0  1  0  0  0  0  0  0  0  0  0
  -19.8055  -29.2269   17.3523 C   0  0  2  0  0  0  0  0  0  0  0  0
  -28.3501  -17.0821   18.4420 C   0  0  1  0  0  0  0  0  0  0  0  0
  -20.0147  -29.5161   22.1153 C   0  0  0  0  0  0  0  0  0  0  0  0
  -26.1806  -11.6802   20.6557 N   0  0  0  0  0  0  0  0  0  0  0  0
  -29.9385  -24.2113   19.0539 N   0  0  0  0  0  0  0  0  0  0  0  0
  -27.1062  -12.1136   19.7831 N   0  0  0  0  0  0  0  0  0  0  0  0
  -28.7657  -18.4628   18.2945 N   0  0  0  0  0  0  0  0  0  0  0  0
  -23.2801  -30.6075   21.1099 N   0  0  0  0  0  0  0  0  0  0  0  0
  -28.5987  -15.5825   20.3905 N   0  0  0  0  0  0  0  0  0  0  0  0
  -27.8746  -11.8498   17.5581 N   0  0  0  0  0  0  0  0  0  0  0  0
  -24.4054   -8.9693   17.8108 N   0  0  0  0  0  0  0  0  0  0  0  0
  -25.2432  -32.6464   23.4089 N   0  0  0  0  0  0  0  0  0  0  0  0
  -20.3549  -29.7791   19.6215 N   0  0  0  0  0  0  0  0  0  0  0  0
  -20.5801  -28.8726   16.1294 N   0  3  0  0  0  0  0  0  0  0  0  0
  -28.1291  -19.3040   20.3998 O   0  0  0  0  0  0  0  0  0  0  0  0
  -29.6504  -18.4330   16.1132 O   0  0  0  0  0  0  0  0  0  0  0  0
  -26.0487   -9.7891   16.4373 O   0  0  0  0  0  0  0  0  0  0  0  0
  -23.9570  -30.7122   23.5729 O   0  0  0  0  0  0  0  0  0  0  0  0
  -26.4047  -17.0492   19.8567 O   0  0  0  0  0  0  0  0  0  0  0  0
  -21.4011  -31.9880   21.1164 O   0  0  0  0  0  0  0  0  0  0  0  0
  -30.2838  -17.0738   19.8106 O   0  0  0  0  0  0  0  0  0  0  0  0
  -21.3675  -27.9278   18.6600 O   0  0  0  0  0  0  0  0  0  0  0  0
  -21.1939   -8.0651   22.2722 O   0  0  0  0  0  0  0  0  0  0  0  0
  -30.6269  -21.1238   15.4137 O   0  0  0  0  0  0  0  0  0  0  0  0
  -27.8417  -26.5452   20.2487 O   0  0  0  0  0  0  0  0  0  1  0  0
  -20.8324   -2.6309   21.4105 F   0  0  0  0  0  0  0  0  0  0  0  0
  -21.2405   -6.2873   24.3887 F   0  0  0  0  0  0  0  0  0  0  0  0
  1  2  1  0  0  0  0
  1  5  2  0  0  0  0
  2  6  2  0  0  0  0
  3  8  2  0  0  0  0
  3 17  1  0  0  0  0
  4  9  1  0  0  0  0
  4 17  2  0  0  0  0
  5 21  1  0  0  0  0
  6 23  1  0  0  0  0
  7 10  2  0  0  0  0
  7 22  1  0  0  0  0
  8 26  1  0  0  0  0
  9 26  2  0  0  0  0
 10 27  1  0  0  0  0
 11 12  2  0  0  0  0
 11 28  1  0  0  0  0
 12 30  1  0  0  0  0
 13 18  1  0  0  0  0
 13 25  2  0  0  0  0
 14 24  1  0  0  0  0
 14 27  2  0  0  0  0
 15 25  1  0  0  0  0
 15 29  2  0  0  0  0
 16 30  2  0  0  0  0
 16 31  1  0  0  0  0
 17 32  1  0  0  0  0
 18 19  2  0  0  0  0
 18 34  1  0  0  0  0
 19 29  1  0  0  0  0
 19 35  1  0  0  0  0
 20 32  1  0  0  0  0
 20 33  2  0  0  0  0
 20 37  1  0  0  0  0
 21 23  2  0  0  0  0
 21 43  1  0  0  0  0
 22 24  2  0  0  0  0
 22 44  1  0  0  0  0
 23 52  1  0  0  0  0
 24 45  1  0  0  0  0
 25 69  1  0  0  0  0
 26 87  1  0  0  0  0
 27 89  1  0  0  0  0
 28 31  2  0  0  0  0
 28 87  1  0  0  0  0
 29 88  1  0  0  0  0
 30 90  1  0  0  0  0
 31 91  1  0  0  0  0
 32 68  2  0  0  0  0
 33 70  1  0  0  0  0
 33 74  1  0  0  0  0
 34 71  1  0  0  0  0
 34 79  2  0  0  0  0
 35 71  1  0  0  0  0
 35 80  2  0  0  0  0
 36 63  1  0  0  0  0
 36 69  2  0  0  0  0
 37 75  1  0  0  0  0
 37 81  2  0  0  0  0
 38 53  1  0  0  0  0
 38 76  1  0  0  0  0
 38 82  2  0  0  0  0
 39 55  1  0  0  0  0
 39 66  1  0  0  0  0
 39 83  2  0  0  0  0
 40 64  1  0  0  0  0
 40 72  1  0  0  0  0
 40 84  2  0  0  0  0
 41 66  1  0  0  0  0
 41 73  1  0  0  0  0
 41 85  2  0  0  0  0
 42 65  1  0  0  0  0
 42 77  1  0  0  0  0
 42 86  2  0  0  0  0
 43 46  1  0  0  0  0
 44 53  1  0  0  0  0
 45 72  1  0  0  0  0
 46 48  1  0  0  0  0
 47 49  1  0  0  0  0
 47 50  1  0  0  0  0
 48 52  1  0  0  0  0
 49 54  1  0  0  0  0
 50 73  1  0  0  0  0
 51 54  1  0  0  0  0
 51 73  1  0  0  0  0
 52 76  1  0  0  0  0
 53 72  1  0  0  0  0
 54 70  1  0  0  0  0
 56 65  1  0  0  0  0
 57 66  1  0  0  0  0
 58 67  1  0  0  0  0
 59 67  1  0  0  0  0
 60 67  1  0  0  0  0
 61 78  1  0  0  0  0
 62 88  1  0  0  0  0
 63 89  1  0  0  0  0
 64 67  1  0  0  0  0
 64 77  1  0  0  0  0
 65 78  1  0  0  0  0
 66 71  1  0  0  0  0
 68 70  1  0  0  0  0
M  CHG  1  78   1
M  ISO  4  41 100  63 101  66 100  89 101
M  END
> <Batch ID>
0078

> <Smiles>
CNC(C)C(=O)NC(C(=O)N1Cc2cc([101O:1][101CH:1]=CNc3cc(OC)c4c(c3)C(=O)N([100C:0](C)(C(C)=O)[100C:0](=O)N3CCCC(n5nc(-c6ccc(Oc7ccc(F)cc7F)cc6)c(C(N)=O)c5N)C3)C4=O)ccc2CC1C(=O)NC1CCCc2ccccc21)C(C)(C)C

> <Shape>
0.328

> <Color>
0.094

> <Negative vol penalty>
0.000

$$$$

  -OEChem-04042323563D

 85 94  0     1  0  0  0  0  0999 V2000
  -26.8134  -37.8743   21.3337 C   0  0  0  0  0  0  0  0  0  0  0  0
  -27.3878  -36.6802   20.9101 C   0  0  0  0  0  0  0  0  0  0  0  0
  -24.1839   -8.8458   21.4209 C   0  0  0  0  0  0  0  0  0  0  0  0
  -24.1180  -10.5468   23.1354 C   0  0  0  0  0  0  0  0  0  0  0  0
  -25.9354  -37.8785   22.4168 C   0  0  0  0  0  0  0  0  0  0  0  0
  -27.0854  -35.4896   21.5700 C   0  0  0  0  0  0  0  0  0  0  0  0
  -26.5812  -29.9210   19.0715 C   0  0  0  0  0  0  0  0  0  0  0  0
  -30.0703  -19.9755   19.5516 C   0  0  0  0  0  0  0  0  0  0  0  0
  -30.0024  -18.5860   19.4507 C   0  0  0  0  0  0  0  0  0  0  0  0
  -23.6867   -7.9111   22.3291 C   0  0  0  0  0  0  0  0  0  0  0  0
  -23.6207   -9.6121   24.0436 C   0  0  0  0  0  0  0  0  0  0  0  0
  -27.4654  -28.8462   18.9893 C   0  0  0  0  0  0  0  0  0  0  0  0
  -20.6926   -7.0848   23.6651 C   0  0  0  0  0  0  0  0  0  0  0  0
  -19.6683   -6.2424   23.2330 C   0  0  0  0  0  0  0  0  0  0  0  0
  -26.4432  -27.8639   20.9410 C   0  0  0  0  0  0  0  0  0  0  0  0
  -27.6832  -20.1171   19.2065 C   0  0  0  0  0  0  0  0  0  0  0  0
  -21.0667   -4.3202   23.6652 C   0  0  0  0  0  0  0  0  0  0  0  0
  -24.3996  -10.1636   21.8241 C   0  0  0  0  0  0  0  0  0  0  0  0
  -24.1694  -11.9634   20.0309 C   0  0  0  0  0  0  0  0  0  0  0  0
  -25.6145  -36.6859   23.0842 C   0  0  0  0  0  0  0  0  0  0  0  0
  -25.6268  -29.9808   20.0972 C   0  0  0  0  0  0  0  0  0  0  0  0
  -26.2032  -35.4780   22.6638 C   0  0  0  0  0  0  0  0  0  0  0  0
  -25.5463  -28.9392   21.0325 C   0  0  0  0  0  0  0  0  0  0  0  0
  -28.9106  -20.7411   19.4295 C   0  0  0  0  0  0  0  0  0  0  0  0
  -28.7750  -17.9620   19.2277 C   0  0  0  0  0  0  0  0  0  0  0  0
  -23.4051   -8.2943   23.6404 C   0  0  0  0  0  0  0  0  0  0  0  0
  -27.3984  -27.8189   19.9259 C   0  0  0  0  0  0  0  0  0  0  0  0
  -21.9040   -6.5449   24.0973 C   0  0  0  0  0  0  0  0  0  0  0  0
  -19.8553   -4.8601   23.2330 C   0  0  0  0  0  0  0  0  0  0  0  0
  -22.0910   -5.1627   24.0973 C   0  0  0  0  0  0  0  0  0  0  0  0
  -27.6154  -18.7276   19.1056 C   0  0  0  0  0  0  0  0  0  0  0  0
  -24.9138  -11.1295   20.8866 C   0  0  0  0  0  0  0  0  0  0  0  0
  -25.1159  -12.6884   19.3491 C   0  0  0  0  0  0  0  0  0  0  0  0
  -28.4878  -24.4159   19.6037 C   0  0  0  0  0  0  0  0  0  0  0  0
  -27.9058  -23.0580   19.4327 C   0  0  0  0  0  0  0  0  0  0  0  0
  -27.7370  -25.5165   19.6913 C   0  0  0  0  0  0  0  0  0  1  0  0
  -22.7492  -12.0728   19.8670 C   0  0  0  0  0  0  0  0  0  0  0  0
  -25.0411  -31.9743   22.5027 C   0  0  0  0  0  0  0  0  0  0  0  0
  -22.4186  -30.1066   22.8989 C   0  0  0  0  0  0  0  0  0  0  0  0
  -20.9191  -27.0786   22.4199 C   0  0  0  0  0  0  0  0  0  0  0  0
  -29.8178  -15.6687   19.2338 C   0  0  0  0  0  0  0  0  0  0  0  0
  -24.6968  -36.7473   24.2795 C   0  0  0  0  0  0  0  0  0  0  0  0
  -24.6627  -31.1338   20.1561 C   0  0  0  0  0  0  0  0  0  0  0  0
  -24.5267  -28.9459   22.1410 C   0  0  0  0  0  0  0  0  0  0  0  0
  -29.9722  -24.3349   19.6815 C   0  0  0  0  0  0  0  0  0  0  0  0
  -24.1377  -35.3871   24.6887 C   0  0  0  0  0  0  0  0  0  0  0  0
  -30.1396  -12.1258   19.0896 C   0  0  0  0  0  0  0  0  0  0  0  0
  -25.2483  -34.3420   24.7237 C   0  0  0  0  0  0  0  0  0  0  0  0
  -28.7475  -11.6193   19.4738 C   0  0  0  0  0  0  0  0  0  0  0  0
  -30.2293  -22.8454   19.8397 C   0  0  0  0  0  0  0  0  0  0  0  0
  -30.5261  -13.3757   19.8782 C   0  0  0  0  0  0  0  0  0  0  0  0
  -28.1567  -13.9641   20.2088 C   0  0  0  0  0  0  0  0  0  0  0  0
  -25.8807  -34.1623   23.3383 C   0  0  1  0  0  0  0  0  0  0  0  0
  -24.0687  -31.3455   21.5453 C   0  0  1  0  0  0  0  0  0  0  0  0
  -27.6968  -12.7441   19.3940 C   0  0  2  0  0  0  0  0  0  0  0  0
  -18.7871  -25.8403   22.8874 C   0  0  0  0  0  0  0  0  0  0  0  0
  -23.2678  -29.7476   25.8075 C   0  0  0  0  0  0  0  0  0  0  0  0
  -21.6979  -27.8028   25.9530 C   0  0  0  0  0  0  0  0  0  0  0  0
  -20.8127  -30.0848   25.4715 C   0  0  0  0  0  0  0  0  0  0  0  0
  -20.3700  -26.7011   19.5364 C   0  0  0  0  0  0  0  0  0  0  0  0
  -22.1065  -28.8541   23.6817 C   0  0  1  0  0  0  0  0  0  0  0  0
  -19.5444  -26.7073   21.8937 C   0  0  2  0  0  0  0  0  0  0  0  0
  -21.9918  -29.1229   25.2088 C   0  0  0  0  0  0  0  0  0  0  0  0
  -26.2317  -11.3072   20.7616 N   0  0  0  0  0  0  0  0  0  0  0  0
  -26.3228  -12.2611   19.8193 N   0  0  0  0  0  0  0  0  0  0  0  0
  -28.9806  -22.1652   19.5337 N   0  0  0  0  0  0  0  0  0  0  0  0
  -23.6103  -30.0980   22.1601 N   0  0  0  0  0  0  0  0  0  0  0  0
  -29.4862  -14.3993   19.7528 N   0  0  0  0  0  0  0  0  0  0  0  0
  -25.0253  -13.6434   18.3992 N   0  0  0  0  0  0  0  0  0  0  0  0
  -21.9215  -11.2537   20.6469 N   0  0  0  0  0  0  0  0  0  0  0  0
  -28.7409  -16.5488   19.1308 N   0  0  0  0  0  0  0  0  0  0  0  0
  -25.0261  -33.3560   22.4934 N   0  0  0  0  0  0  0  0  0  0  0  0
  -20.9029  -28.2877   23.0826 N   0  0  0  0  0  0  0  0  0  0  0  0
  -19.6658  -25.9567   20.6120 N   0  3  0  0  0  0  0  0  0  0  0  0
  -26.7162  -22.8572   19.2527 O   0  0  0  0  0  0  0  0  0  0  0  0
  -22.2300  -12.8617   19.0414 O   0  0  0  0  0  0  0  0  0  0  0  0
  -25.7513  -31.2588   23.1994 O   0  0  0  0  0  0  0  0  0  0  0  0
  -21.6306  -31.0549   22.9356 O   0  0  0  0  0  0  0  0  0  0  0  0
  -21.9076  -26.3655   22.2623 O   0  0  0  0  0  0  0  0  0  0  0  0
  -30.9667  -15.9451   18.8794 O   0  0  0  0  0  0  0  0  0  0  0  0
  -22.9197   -7.3826   24.5268 O   0  0  0  0  0  0  0  0  0  0  0  0
  -28.2607  -26.7690   19.8484 O   0  0  0  0  0  0  0  0  0  1  0  0
  -18.8710   -4.0512   22.8194 F   0  0  0  0  0  0  0  0  0  0  0  0
  -23.2522   -4.6381   24.5125 F   0  0  0  0  0  0  0  0  0  0  0  0
  -26.0753  -17.9949   18.8294 Cl  0  0  0  0  0  0  0  0  0  0  0  0
  1  2  1  0  0  0  0
  1  5  2  0  0  0  0
  2  6  2  0  0  0  0
  3 10  2  0  0  0  0
  3 18  1  0  0  0  0
  4 11  1  0  0  0  0
  4 18  2  0  0  0  0
  5 20  1  0  0  0  0
  6 22  1  0  0  0  0
  7 12  2  0  0  0  0
  7 21  1  0  0  0  0
  8  9  2  0  0  0  0
  8 24  1  0  0  0  0
  9 25  1  0  0  0  0
 10 26  1  0  0  0  0
 11 26  2  0  0  0  0
 12 27  1  0  0  0  0
 13 14  2  0  0  0  0
 13 28  1  0  0  0  0
 14 29  1  0  0  0  0
 15 23  1  0  0  0  0
 15 27  2  0  0  0  0
 16 24  2  0  0  0  0
 16 31  1  0  0  0  0
 17 29  2  0  0  0  0
 17 30  1  0  0  0  0
 18 32  1  0  0  0  0
 19 32  1  0  0  0  0
 19 33  2  0  0  0  0
 19 37  1  0  0  0  0
 20 22  2  0  0  0  0
 20 42  1  0  0  0  0
 21 23  2  0  0  0  0
 21 43  1  0  0  0  0
 22 53  1  0  0  0  0
 23 44  1  0  0  0  0
 24 66  1  0  0  0  0
 25 31  2  0  0  0  0
 25 71  1  0  0  0  0
 26 81  1  0  0  0  0
 27 82  1  0  0  0  0
 28 30  2  0  0  0  0
 28 81  1  0  0  0  0
 29 83  1  0  0  0  0
 30 84  1  0  0  0  0
 31 85  1  0  0  0  0
 32 64  2  0  0  0  0
 33 65  1  0  0  0  0
 33 69  1  0  0  0  0
 34 35  1  0  0  0  0
 34 36  2  0  0  0  0
 34 45  1  0  0  0  0
 35 66  1  0  0  0  0
 35 75  2  0  0  0  0
 36 82  1  0  0  0  0
 37 70  1  0  0  0  0
 37 76  2  0  0  0  0
 38 54  1  0  0  0  0
 38 72  1  0  0  0  0
 38 77  2  0  0  0  0
 39 61  1  0  0  0  0
 39 67  1  0  0  0  0
 39 78  2  0  0  0  0
 40 62  1  0  0  0  0
 40 73  1  0  0  0  0
 40 79  2  0  0  0  0
 41 68  1  0  0  0  0
 41 71  1  0  0  0  0
 41 80  2  0  0  0  0
 42 46  1  0  0  0  0
 43 54  1  0  0  0  0
 44 67  1  0  0  0  0
 45 50  1  0  0  0  0
 46 48  1  0  0  0  0
 47 49  1  0  0  0  0
 47 51  1  0  0  0  0
 48 53  1  0  0  0  0
 49 55  1  0  0  0  0
 50 66  1  0  0  0  0
 51 68  1  0  0  0  0
 52 55  1  0  0  0  0
 52 68  1  0  0  0  0
 53 72  1  0  0  0  0
 54 67  1  0  0  0  0
 55 65  1  0  0  0  0
 56 62  1  0  0  0  0
 57 63  1  0  0  0  0
 58 63  1  0  0  0  0
 59 63  1  0  0  0  0
 60 74  1  0  0  0  0
 61 63  1  0  0  0  0
 61 73  1  0  0  0  0
 62 74  1  0  0  0  0
 64 65  1  0  0  0  0
M  CHG  1  74   1
M  ISO  4  36 101  41 100  71 100  82 101
M  END
> <Batch ID>
0078

> <Smiles>
CNC(C)C(=O)NC(C(=O)N1Cc2cc([101O:1][101CH:1]=C3CCN(c4ccc([100NH:0][100C:0](=O)N5CCCC(n6nc(-c7ccc(Oc8ccc(F)cc8F)cc7)c(C(N)=O)c6N)C5)c(Cl)c4)C3=O)ccc2CC1C(=O)NC1CCCc2ccccc21)C(C)(C)C

> <Shape>
0.366

> <Color>
0.105

> <Negative vol penalty>
0.000

$$$$

  -OEChem-04042323563D

 86 95  0     1  0  0  0  0  0999 V2000
  -26.7092  -38.1920   24.4626 C   0  0  0  0  0  0  0  0  0  0  0  0
  -27.4201  -37.3953   23.5709 C   0  0  0  0  0  0  0  0  0  0  0  0
  -24.1605   -8.6205   20.8506 C   0  0  0  0  0  0  0  0  0  0  0  0
  -23.0856  -10.7523   21.2208 C   0  0  0  0  0  0  0  0  0  0  0  0
  -27.1170  -19.1373   19.9091 C   0  0  0  0  0  0  0  0  0  0  0  0
  -29.3949  -19.1662   19.1043 C   0  0  0  0  0  0  0  0  0  0  0  0
  -25.9087  -37.6003   25.4388 C   0  0  0  0  0  0  0  0  0  0  0  0
  -27.3318  -36.0063   23.6556 C   0  0  0  0  0  0  0  0  0  0  0  0
  -27.4383  -30.1441   19.5398 C   0  0  0  0  0  0  0  0  0  0  0  0
  -27.2766  -17.8120   20.3135 C   0  0  0  0  0  0  0  0  0  0  0  0
  -29.5545  -17.8408   19.5088 C   0  0  0  0  0  0  0  0  0  0  0  0
  -23.3017   -8.0268   21.7756 C   0  0  0  0  0  0  0  0  0  0  0  0
  -22.2267  -10.1586   22.1458 C   0  0  0  0  0  0  0  0  0  0  0  0
  -28.0844  -28.9131   19.4352 C   0  0  0  0  0  0  0  0  0  0  0  0
  -20.1104   -6.9120   21.8534 C   0  0  0  0  0  0  0  0  0  0  0  0
  -19.5303   -5.6912   21.5088 C   0  0  0  0  0  0  0  0  0  0  0  0
  -26.6080  -28.0027   21.1118 C   0  0  0  0  0  0  0  0  0  0  0  0
  -20.5725   -4.6545   23.4261 C   0  0  0  0  0  0  0  0  0  0  0  0
  -24.0525   -9.9832   20.5732 C   0  0  0  0  0  0  0  0  0  0  0  0
  -28.1761  -19.8144   19.3044 C   0  0  0  0  0  0  0  0  0  0  0  0
  -24.7337  -10.7342   18.2324 C   0  0  0  0  0  0  0  0  0  0  0  0
  -25.8029  -36.2035   25.5294 C   0  0  0  0  0  0  0  0  0  0  0  0
  -26.3776  -30.3170   20.4405 C   0  0  0  0  0  0  0  0  0  0  0  0
  -26.5302  -35.3953   24.6348 C   0  0  0  0  0  0  0  0  0  0  0  0
  -25.9485  -29.2362   21.2240 C   0  0  0  0  0  0  0  0  0  0  0  0
  -28.4954  -17.1637   20.1134 C   0  0  0  0  0  0  0  0  0  0  0  0
  -22.3348   -8.7958   22.4232 C   0  0  0  0  0  0  0  0  0  0  0  0
  -27.6712  -27.8429   20.2234 C   0  0  0  0  0  0  0  0  0  0  0  0
  -20.9218   -7.0040   22.9844 C   0  0  0  0  0  0  0  0  0  0  0  0
  -19.7613   -4.5625   22.2951 C   0  0  0  0  0  0  0  0  0  0  0  0
  -21.1528   -5.8753   23.7707 C   0  0  0  0  0  0  0  0  0  0  0  0
  -24.9397  -10.5972   19.6183 C   0  0  0  0  0  0  0  0  0  0  0  0
  -25.8582  -11.3806   17.7804 C   0  0  0  0  0  0  0  0  0  0  0  0
  -28.1824  -23.5993   19.4565 C   0  0  0  0  0  0  0  0  0  0  0  0
  -28.0076  -21.2148   18.8769 C   0  0  0  0  0  0  0  0  0  0  0  0
  -23.6251  -10.3148   17.4258 C   0  0  0  0  0  0  0  0  0  0  0  0
  -25.8707  -32.1568   22.9825 C   0  0  0  0  0  0  0  0  0  0  0  0
  -22.8905  -30.8859   22.8226 C   0  0  0  0  0  0  0  0  0  0  0  0
  -20.8854  -28.3222   21.7959 C   0  0  0  0  0  0  0  0  0  0  0  0
  -29.8005  -15.0280   20.3996 C   0  0  0  0  0  0  0  0  0  0  0  0
  -24.9622  -35.6090   26.6314 C   0  0  0  0  0  0  0  0  0  0  0  0
  -25.6737  -31.6438   20.5221 C   0  0  0  0  0  0  0  0  0  0  0  0
  -24.8016  -29.3643   22.1918 C   0  0  0  0  0  0  0  0  0  0  0  0
  -24.6289  -34.1350   26.4156 C   0  0  0  0  0  0  0  0  0  0  0  0
  -30.5094  -11.9409   18.7735 C   0  0  0  0  0  0  0  0  0  0  0  0
  -25.8769  -33.3601   26.0048 C   0  0  0  0  0  0  0  0  0  0  0  0
  -29.1419  -11.2611   18.6740 C   0  0  0  0  0  0  0  0  0  0  0  0
  -28.4700  -23.2686   21.7790 C   0  0  0  0  0  0  0  0  0  0  0  0
  -30.6622  -12.7194   20.0790 C   0  0  0  0  0  0  0  0  0  0  0  0
  -28.7847  -21.9480   21.0858 C   0  0  0  0  0  0  0  0  0  0  0  0
  -28.2214  -13.0027   20.2573 C   0  0  0  0  0  0  0  0  0  0  0  0
  -26.4408  -33.8853   24.6790 C   0  0  1  0  0  0  0  0  0  0  0  0
  -28.6388  -24.3372   20.6922 C   0  0  2  0  0  0  0  0  0  0  0  0
  -24.9398  -31.8506   21.8434 C   0  0  1  0  0  0  0  0  0  0  0  0
  -27.9962  -12.2597   18.9302 C   0  0  2  0  0  0  0  0  0  0  0  0
  -18.4991  -27.5472   21.8435 C   0  0  0  0  0  0  0  0  0  0  0  0
  -23.2138  -30.0779   25.7471 C   0  0  0  0  0  0  0  0  0  0  0  0
  -21.2727  -28.5230   25.4597 C   0  0  0  0  0  0  0  0  0  0  0  0
  -20.9567  -30.9789   25.1571 C   0  0  0  0  0  0  0  0  0  0  0  0
  -20.6969  -28.3466   18.8425 C   0  0  0  0  0  0  0  0  0  0  0  0
  -27.8251  -25.5873   20.9613 C   0  0  0  0  0  0  0  0  0  1  0  0
  -22.2161  -29.6657   23.4017 C   0  0  1  0  0  0  0  0  0  0  0  0
  -19.5555  -28.3146   21.0639 C   0  0  2  0  0  0  0  0  0  0  0  0
  -21.9377  -29.8092   24.9247 C   0  0  0  0  0  0  0  0  0  0  0  0
  -26.1035  -11.1148   20.0203 N   0  0  0  0  0  0  0  0  0  0  0  0
  -26.6390  -11.5833   18.8802 N   0  0  0  0  0  0  0  0  0  0  0  0
  -28.2935  -22.1900   19.7211 N   0  0  0  0  0  0  0  0  0  0  0  0
  -24.1495  -30.6834   22.2398 N   0  0  0  0  0  0  0  0  0  0  0  0
  -29.5434  -13.6485   20.2523 N   0  0  0  0  0  0  0  0  0  0  0  0
  -26.2453  -11.7897   16.5536 N   0  0  0  0  0  0  0  0  0  0  0  0
  -22.5523   -9.6645   18.0507 N   0  0  0  0  0  0  0  0  0  0  0  0
  -28.6577  -15.8174   20.5242 N   0  0  0  0  0  0  0  0  0  0  0  0
  -25.6587  -33.3913   23.5661 N   0  0  0  0  0  0  0  0  0  0  0  0
  -21.0222  -29.4376   22.5949 N   0  0  0  0  0  0  0  0  0  0  0  0
  -27.5721  -21.4747   17.6477 N   0  3  0  0  0  0  0  0  0  0  0  0
  -19.7052  -27.6789   19.7243 N   0  3  0  0  0  0  0  0  0  0  0  0
  -27.8158  -24.0577   18.3895 O   0  0  0  0  0  0  0  0  0  0  0  0
  -23.5943  -10.4962   16.1849 O   0  0  0  0  0  0  0  0  0  0  0  0
  -26.7175  -31.3333   23.3089 O   0  0  0  0  0  0  0  0  0  0  0  0
  -22.3180  -31.9771   22.8787 O   0  0  0  0  0  0  0  0  0  0  0  0
  -21.7179  -27.4263   21.6741 O   0  0  0  0  0  0  0  0  0  0  0  0
  -30.9486  -15.4792   20.3868 O   0  0  0  0  0  0  0  0  0  0  0  0
  -21.4964   -8.2168   23.3256 O   0  0  0  0  0  0  0  0  0  0  0  0
  -28.3004  -26.6405   20.1238 O   0  0  0  0  0  0  0  0  0  1  0  0
  -19.2028   -3.3907   21.9649 F   0  0  0  0  0  0  0  0  0  0  0  0
  -21.9303   -5.9578   24.8590 F   0  0  0  0  0  0  0  0  0  0  0  0
  1  2  1  0  0  0  0
  1  7  2  0  0  0  0
  2  8  2  0  0  0  0
  3 12  2  0  0  0  0
  3 19  1  0  0  0  0
  4 13  1  0  0  0  0
  4 19  2  0  0  0  0
  5 10  2  0  0  0  0
  5 20  1  0  0  0  0
  6 11  1  0  0  0  0
  6 20  2  0  0  0  0
  7 22  1  0  0  0  0
  8 24  1  0  0  0  0
  9 14  2  0  0  0  0
  9 23  1  0  0  0  0
 10 26  1  0  0  0  0
 11 26  2  0  0  0  0
 12 27  1  0  0  0  0
 13 27  2  0  0  0  0
 14 28  1  0  0  0  0
 15 16  2  0  0  0  0
 15 29  1  0  0  0  0
 16 30  1  0  0  0  0
 17 25  1  0  0  0  0
 17 28  2  0  0  0  0
 18 30  2  0  0  0  0
 18 31  1  0  0  0  0
 19 32  1  0  0  0  0
 20 35  1  0  0  0  0
 21 32  1  0  0  0  0
 21 33  2  0  0  0  0
 21 36  1  0  0  0  0
 22 24  2  0  0  0  0
 22 41  1  0  0  0  0
 23 25  2  0  0  0  0
 23 42  1  0  0  0  0
 24 52  1  0  0  0  0
 25 43  1  0  0  0  0
 26 72  1  0  0  0  0
 27 83  1  0  0  0  0
 28 84  1  0  0  0  0
 29 31  2  0  0  0  0
 29 83  1  0  0  0  0
 30 85  1  0  0  0  0
 31 86  1  0  0  0  0
 32 65  2  0  0  0  0
 33 66  1  0  0  0  0
 33 70  1  0  0  0  0
 34 53  1  0  0  0  0
 34 67  1  0  0  0  0
 34 77  2  0  0  0  0
 35 67  1  0  0  0  0
 35 75  2  0  0  0  0
 36 71  1  0  0  0  0
 36 78  2  0  0  0  0
 37 54  1  0  0  0  0
 37 73  1  0  0  0  0
 37 79  2  0  0  0  0
 38 62  1  0  0  0  0
 38 68  1  0  0  0  0
 38 80  2  0  0  0  0
 39 63  1  0  0  0  0
 39 74  1  0  0  0  0
 39 81  2  0  0  0  0
 40 69  1  0  0  0  0
 40 72  1  0  0  0  0
 40 82  2  0  0  0  0
 41 44  1  0  0  0  0
 42 54  1  0  0  0  0
 43 68  1  0  0  0  0
 44 46  1  0  0  0  0
 45 47  1  0  0  0  0
 45 49  1  0  0  0  0
 46 52  1  0  0  0  0
 47 55  1  0  0  0  0
 48 50  1  0  0  0  0
 48 53  1  0  0  0  0
 49 69  1  0  0  0  0
 50 67  1  0  0  0  0
 51 55  1  0  0  0  0
 51 69  1  0  0  0  0
 52 73  1  0  0  0  0
 53 61  1  0  0  0  0
 54 68  1  0  0  0  0
 55 66  1  0  0  0  0
 56 63  1  0  0  0  0
 57 64  1  0  0  0  0
 58 64  1  0  0  0  0
 59 64  1  0  0  0  0
 60 76  1  0  0  0  0
 61 84  1  0  0  0  0
 62 64  1  0  0  0  0
 62 74  1  0  0  0  0
 63 76  1  0  0  0  0
 65 66  1  0  0  0  0
M  CHG  2  75   1  76   1
M  ISO  4  40 100  61 101  72 100  84 101
M  END
> <Batch ID>
0078

> <Smiles>
CNC(C)C(=O)NC(C(=O)N1Cc2cc([101O:1][101CH2:1]C3CCN(C(=N)c4ccc([100NH:0][100C:0](=O)N5CCCC(n6nc(-c7ccc(Oc8ccc(F)cc8F)cc7)c(C(N)=O)c6N)C5)cc4)C3=O)ccc2CC1C(=O)NC1CCCc2ccccc21)C(C)(C)C

> <Shape>
0.349

> <Color>
0.111

> <Negative vol penalty>
0.000

$$$$

  -OEChem-04042323563D

 89 98  0     1  0  0  0  0  0999 V2000
  -26.1468  -29.1840   30.7691 C   0  0  0  0  0  0  0  0  0  0  0  0
  -27.0625  -28.2943   30.2164 C   0  0  0  0  0  0  0  0  0  0  0  0
  -22.9911   -9.8837   19.9920 C   0  0  0  0  0  0  0  0  0  0  0  0
  -23.7111   -9.9504   22.2973 C   0  0  0  0  0  0  0  0  0  0  0  0
  -25.0819  -29.6533   30.0013 C   0  0  0  0  0  0  0  0  0  0  0  0
  -26.9130  -27.8725   28.8957 C   0  0  0  0  0  0  0  0  0  0  0  0
  -31.2781  -27.9396   26.3292 C   0  0  0  0  0  0  0  0  0  0  0  0
  -32.6417  -17.4460   23.4335 C   0  0  0  0  0  0  0  0  0  0  0  0
  -32.0535  -16.5442   22.5468 C   0  0  0  0  0  0  0  0  0  0  0  0
  -22.2220   -8.7526   20.2649 C   0  0  0  0  0  0  0  0  0  0  0  0
  -22.9420   -8.8192   22.5702 C   0  0  0  0  0  0  0  0  0  0  0  0
  -32.1665  -26.8895   26.5565 C   0  0  0  0  0  0  0  0  0  0  0  0
  -23.1816   -5.4765   22.1234 C   0  0  0  0  0  0  0  0  0  0  0  0
  -23.7657   -4.4639   22.8843 C   0  0  0  0  0  0  0  0  0  0  0  0
  -29.8758  -17.4500   23.0701 C   0  0  0  0  0  0  0  0  0  0  0  0
  -31.4167  -25.8238   24.5264 C   0  0  0  0  0  0  0  0  0  0  0  0
  -22.0384   -4.7220   24.5537 C   0  0  0  0  0  0  0  0  0  0  0  0
  -23.7357  -10.4827   21.0082 C   0  0  0  0  0  0  0  0  0  0  0  0
  -30.4640  -18.3518   23.9569 C   0  0  0  0  0  0  0  0  0  0  0  0
  -24.1257  -12.9963   20.8146 C   0  0  0  0  0  0  0  0  0  0  0  0
  -24.9248  -29.2445   28.6675 C   0  0  0  0  0  0  0  0  0  0  0  0
  -30.4431  -27.9343   25.2026 C   0  0  0  0  0  0  0  0  0  0  0  0
  -25.8442  -28.3357   28.1097 C   0  0  0  0  0  0  0  0  0  0  0  0
  -30.5204  -26.8763   24.2858 C   0  0  0  0  0  0  0  0  0  0  0  0
  -31.8469  -18.3498   24.1386 C   0  0  0  0  0  0  0  0  0  0  0  0
  -30.6706  -16.5462   22.3650 C   0  0  0  0  0  0  0  0  0  0  0  0
  -22.1974   -8.2203   21.5540 C   0  0  0  0  0  0  0  0  0  0  0  0
  -32.2339  -25.8299   25.6566 C   0  0  0  0  0  0  0  0  0  0  0  0
  -22.0260   -6.1120   22.5777 C   0  0  0  0  0  0  0  0  0  0  0  0
  -23.1941   -4.0866   24.0994 C   0  0  0  0  0  0  0  0  0  0  0  0
  -21.4543   -5.7347   23.7928 C   0  0  0  0  0  0  0  0  0  0  0  0
  -24.5308  -11.6509   20.7268 C   0  0  0  0  0  0  0  0  0  0  0  0
  -25.2375  -13.7143   20.4475 C   0  0  0  0  0  0  0  0  0  0  0  0
  -33.1817  -21.1570   26.0636 C   0  0  0  0  0  0  0  0  0  0  0  0
  -33.7071  -20.0559   26.8311 C   0  0  0  0  0  0  0  0  0  0  0  0
  -32.3877  -20.6401   24.9142 C   0  0  0  0  0  0  0  0  0  0  0  0
  -34.4653  -20.0982   27.9320 C   0  0  0  0  0  0  0  0  0  0  0  0
  -33.3233  -22.4719   26.2636 C   0  0  0  0  0  0  0  0  0  0  0  0
  -29.6055  -19.2833   24.6783 C   0  0  0  0  0  0  0  0  0  0  0  0
  -22.8578  -13.5476   21.1942 C   0  0  0  0  0  0  0  0  0  0  0  0
  -27.2983  -27.8956   24.7415 C   0  0  0  0  0  0  0  0  0  0  0  0
  -28.1423  -28.2641   21.6312 C   0  0  0  0  0  0  0  0  0  0  0  0
  -30.5094  -27.8679   19.2050 C   0  0  0  0  0  0  0  0  0  0  0  0
  -30.7181  -14.6677   20.6871 C   0  0  0  0  0  0  0  0  0  0  0  0
  -23.7311  -29.7421   27.8916 C   0  0  0  0  0  0  0  0  0  0  0  0
  -29.5092  -29.0877   24.9578 C   0  0  0  0  0  0  0  0  0  0  0  0
  -29.6600  -26.8330   23.0504 C   0  0  0  0  0  0  0  0  0  0  0  0
  -33.2444  -18.7956   26.1648 C   0  0  0  0  0  0  0  0  0  0  0  0
  -23.8563  -29.5376   26.3840 C   0  0  0  0  0  0  0  0  0  0  0  0
  -29.6010  -12.1997   18.3766 C   0  0  0  0  0  0  0  0  0  0  0  0
  -24.3401  -28.1243   26.0753 C   0  0  0  0  0  0  0  0  0  0  0  0
  -28.1490  -11.9476   18.7893 C   0  0  0  0  0  0  0  0  0  0  0  0
  -30.4991  -12.4505   19.5867 C   0  0  0  0  0  0  0  0  0  0  0  0
  -28.5821  -13.2524   20.9099 C   0  0  0  0  0  0  0  0  0  0  0  0
  -25.7300  -27.8742   26.6730 C   0  0  1  0  0  0  0  0  0  0  0  0
  -28.3397  -28.7267   24.0471 C   0  0  1  0  0  0  0  0  0  0  0  0
  -27.6268  -13.0589   19.7209 C   0  0  2  0  0  0  0  0  0  0  0  0
  -28.7784  -20.2322   23.8633 C   0  0  0  0  0  0  0  0  0  0  0  0
  -30.8950  -28.2275   16.7516 C   0  0  0  0  0  0  0  0  0  0  0  0
  -26.4250  -25.8209   21.0057 C   0  0  0  0  0  0  0  0  0  0  0  0
  -27.5808  -25.6622   18.7905 C   0  0  0  0  0  0  0  0  0  0  0  0
  -26.2309  -27.6842   19.3490 C   0  0  0  0  0  0  0  0  0  0  0  0
  -32.7549  -29.7279   19.7122 C   0  0  0  0  0  0  0  0  0  0  0  0
  -32.7213  -23.5181   25.3852 C   0  0  0  0  0  0  0  0  0  1  0  0
  -28.4581  -27.3267   20.4908 C   0  0  1  0  0  0  0  0  0  0  0  0
  -31.0349  -28.8195   18.1454 C   0  0  2  0  0  0  0  0  0  0  0  0
  -27.1886  -26.6230   19.9332 C   0  0  0  0  0  0  0  0  0  0  0  0
  -25.8008  -11.5193   20.3345 N   0  0  0  0  0  0  0  0  0  0  0  0
  -26.2033  -12.7913   20.1725 N   0  0  0  0  0  0  0  0  0  0  0  0
  -32.4554  -19.2402   25.0176 N   0  0  0  0  0  0  0  0  0  0  0  0
  -28.7583  -27.9810   22.8584 N   0  0  0  0  0  0  0  0  0  0  0  0
  -29.9440  -13.5186   20.4209 N   0  0  0  0  0  0  0  0  0  0  0  0
  -25.4735  -15.0388   20.3362 N   0  0  0  0  0  0  0  0  0  0  0  0
  -21.8237  -12.6678   21.5418 N   0  0  0  0  0  0  0  0  0  0  0  0
  -30.0737  -15.6298   21.4641 N   0  0  0  0  0  0  0  0  0  0  0  0
  -26.7504  -28.4979   25.8580 N   0  0  0  0  0  0  0  0  0  0  0  0
  -29.1863  -28.1159   19.5033 N   0  0  0  0  0  0  0  0  0  0  0  0
  -32.4747  -29.1192   18.3864 N   0  3  0  0  0  0  0  0  0  0  0  0
  -31.8130  -21.3169   24.0782 O   0  0  0  0  0  0  0  0  0  0  0  0
  -29.5142  -19.3502   25.9039 O   0  0  0  0  0  0  0  0  0  0  0  0
  -22.6432  -14.7834   21.2084 O   0  0  0  0  0  0  0  0  0  0  0  0
  -27.0120  -26.7903   24.2965 O   0  0  0  0  0  0  0  0  0  0  0  0
  -27.3828  -29.2168   21.4383 O   0  0  0  0  0  0  0  0  0  0  0  0
  -31.2023  -26.9898   19.7143 O   0  0  0  0  0  0  0  0  0  0  0  0
  -31.8580  -14.8014   20.2347 O   0  0  0  0  0  0  0  0  0  0  0  0
  -21.4469   -7.1166   21.8207 O   0  0  0  0  0  0  0  0  0  0  0  0
  -33.0997  -24.8034   25.8763 O   0  0  0  0  0  0  0  0  0  1  0  0
  -23.7542   -3.1131   24.8293 F   0  0  0  0  0  0  0  0  0  0  0  0
  -20.3435   -6.3407   24.2338 F   0  0  0  0  0  0  0  0  0  0  0  0
  1  2  1  0  0  0  0
  1  5  2  0  0  0  0
  2  6  2  0  0  0  0
  3 10  2  0  0  0  0
  3 18  1  0  0  0  0
  4 11  1  0  0  0  0
  4 18  2  0  0  0  0
  5 21  1  0  0  0  0
  6 23  1  0  0  0  0
  7 12  2  0  0  0  0
  7 22  1  0  0  0  0
  8  9  2  0  0  0  0
  8 25  1  0  0  0  0
  9 26  1  0  0  0  0
 10 27  1  0  0  0  0
 11 27  2  0  0  0  0
 12 28  1  0  0  0  0
 13 14  2  0  0  0  0
 13 29  1  0  0  0  0
 14 30  1  0  0  0  0
 15 19  1  0  0  0  0
 15 26  2  0  0  0  0
 16 24  1  0  0  0  0
 16 28  2  0  0  0  0
 17 30  2  0  0  0  0
 17 31  1  0  0  0  0
 18 32  1  0  0  0  0
 19 25  2  0  0  0  0
 19 39  1  0  0  0  0
 20 32  1  0  0  0  0
 20 33  2  0  0  0  0
 20 40  1  0  0  0  0
 21 23  2  0  0  0  0
 21 45  1  0  0  0  0
 22 24  2  0  0  0  0
 22 46  1  0  0  0  0
 23 55  1  0  0  0  0
 24 47  1  0  0  0  0
 25 70  1  0  0  0  0
 26 75  1  0  0  0  0
 27 86  1  0  0  0  0
 28 87  1  0  0  0  0
 29 31  2  0  0  0  0
 29 86  1  0  0  0  0
 30 88  1  0  0  0  0
 31 89  1  0  0  0  0
 32 68  2  0  0  0  0
 33 69  1  0  0  0  0
 33 73  1  0  0  0  0
 34 35  1  0  0  0  0
 34 36  1  0  0  0  0
 34 38  2  0  0  0  0
 35 37  2  0  0  0  0
 35 48  1  0  0  0  0
 36 70  1  0  0  0  0
 36 79  2  0  0  0  0
 38 64  1  0  0  0  0
 39 58  1  0  0  0  0
 39 80  2  0  0  0  0
 40 74  1  0  0  0  0
 40 81  2  0  0  0  0
 41 56  1  0  0  0  0
 41 76  1  0  0  0  0
 41 82  2  0  0  0  0
 42 65  1  0  0  0  0
 42 71  1  0  0  0  0
 42 83  2  0  0  0  0
 43 66  1  0  0  0  0
 43 77  1  0  0  0  0
 43 84  2  0  0  0  0
 44 72  1  0  0  0  0
 44 75  1  0  0  0  0
 44 85  2  0  0  0  0
 45 49  1  0  0  0  0
 46 56  1  0  0  0  0
 47 71  1  0  0  0  0
 48 70  1  0  0  0  0
 49 51  1  0  0  0  0
 50 52  1  0  0  0  0
 50 53  1  0  0  0  0
 51 55  1  0  0  0  0
 52 57  1  0  0  0  0
 53 72  1  0  0  0  0
 54 57  1  0  0  0  0
 54 72  1  0  0  0  0
 55 76  1  0  0  0  0
 56 71  1  0  0  0  0
 57 69  1  0  0  0  0
 59 66  1  0  0  0  0
 60 67  1  0  0  0  0
 61 67  1  0  0  0  0
 62 67  1  0  0  0  0
 63 78  1  0  0  0  0
 64 87  1  0  0  0  0
 65 67  1  0  0  0  0
 65 77  1  0  0  0  0
 66 78  1  0  0  0  0
 68 69  1  0  0  0  0
M  CHG  1  78   1
M  ISO  4  44 100  64 101  75 100  87 101
M  END
> <Batch ID>
0078

> <Smiles>
C=C1CN(c2ccc([100NH:0][100C:0](=O)N3CCCC(n4nc(-c5ccc(Oc6ccc(F)cc6F)cc5)c(C(N)=O)c4N)C3)cc2C(C)=O)C(=O)C1=C[101CH2:1][101O:1]c1ccc2c(c1)CN(C(=O)C(NC(=O)C(C)NC)C(C)(C)C)C(C(=O)NC1CCCc3ccccc31)C2

> <Shape>
0.230

> <Color>
0.195

> <Negative vol penalty>
0.000

$$$$

  -OEChem-04042323563D

 81 89  0     1  0  0  0  0  0999 V2000
  -30.5682  -31.0804   17.1885 C   0  0  0  0  0  0  0  0  0  0  0  0
  -30.1626  -29.9931   17.9559 C   0  0  0  0  0  0  0  0  0  0  0  0
  -31.6784  -19.0591   21.0600 C   0  0  0  0  0  0  0  0  0  0  0  0
  -23.1987   -9.5587   21.0291 C   0  0  0  0  0  0  0  0  0  0  0  0
  -23.4388  -10.9576   22.9842 C   0  0  0  0  0  0  0  0  0  0  0  0
  -30.4208  -32.3754   17.6837 C   0  0  0  0  0  0  0  0  0  0  0  0
  -29.6103  -30.2003   19.2194 C   0  0  0  0  0  0  0  0  0  0  0  0
  -25.4809  -27.3805   20.0208 C   0  0  0  0  0  0  0  0  0  0  0  0
  -31.3138  -17.7493   20.7490 C   0  0  0  0  0  0  0  0  0  0  0  0
  -30.7256  -20.0770   21.0183 C   0  0  0  0  0  0  0  0  0  0  0  0
  -22.4326   -8.6573   21.7681 C   0  0  0  0  0  0  0  0  0  0  0  0
  -22.6727  -10.0562   23.7233 C   0  0  0  0  0  0  0  0  0  0  0  0
  -25.6787  -26.0368   20.3355 C   0  0  0  0  0  0  0  0  0  0  0  0
  -22.9688   -6.1923   24.0177 C   0  0  0  0  0  0  0  0  0  0  0  0
  -23.2520   -4.8339   23.8761 C   0  0  0  0  0  0  0  0  0  0  0  0
  -25.3368  -26.5394   22.6699 C   0  0  0  0  0  0  0  0  0  0  0  0
  -29.0434  -18.4750   20.3543 C   0  0  0  0  0  0  0  0  0  0  0  0
  -21.0001   -4.4462   23.0914 C   0  0  0  0  0  0  0  0  0  0  0  0
  -23.7019  -10.7089   21.6372 C   0  0  0  0  0  0  0  0  0  0  0  0
  -24.0302  -12.7475   20.1393 C   0  0  0  0  0  0  0  0  0  0  0  0
  -29.8576  -32.5990   18.9499 C   0  0  0  0  0  0  0  0  0  0  0  0
  -25.2199  -28.3172   21.0312 C   0  0  0  0  0  0  0  0  0  0  0  0
  -29.4565  -31.4994   19.7325 C   0  0  0  0  0  0  0  0  0  0  0  0
  -25.1335  -27.8940   22.3652 C   0  0  0  0  0  0  0  0  0  0  0  0
  -29.9963  -17.4572   20.3961 C   0  0  0  0  0  0  0  0  0  0  0  0
  -22.1696   -8.9060   23.1152 C   0  0  0  0  0  0  0  0  0  0  0  0
  -25.6095  -25.6165   21.6605 C   0  0  0  0  0  0  0  0  0  0  0  0
  -29.4081  -19.7849   20.6654 C   0  0  0  0  0  0  0  0  0  0  0  0
  -21.7012   -6.6777   23.6962 C   0  0  0  0  0  0  0  0  0  0  0  0
  -22.2677   -3.9608   23.4130 C   0  0  0  0  0  0  0  0  0  0  0  0
  -20.7169   -5.8047   23.2330 C   0  0  0  0  0  0  0  0  0  0  0  0
  -24.4938  -11.6401   20.8745 C   0  0  0  0  0  0  0  0  0  0  0  0
  -25.1659  -13.3035   19.6031 C   0  0  0  0  0  0  0  0  0  0  0  0
  -27.3353  -22.4639   21.8836 C   0  0  0  0  0  0  0  0  0  0  0  0
  -27.0017  -23.7371   21.6429 C   0  0  0  0  0  0  0  0  0  1  0  0
  -22.6925  -13.2306   19.9575 C   0  0  0  0  0  0  0  0  0  0  0  0
  -26.6946  -30.9154   22.1166 C   0  0  0  0  0  0  0  0  0  0  0  0
  -24.0193  -31.2020   23.9285 C   0  0  0  0  0  0  0  0  0  0  0  0
  -21.3353  -29.6852   25.3923 C   0  0  0  0  0  0  0  0  0  0  0  0
  -30.4483  -14.9999   20.0737 C   0  0  0  0  0  0  0  0  0  0  0  0
  -29.7621  -34.0143   19.4623 C   0  0  0  0  0  0  0  0  0  0  0  0
  -24.9824  -29.7585   20.6724 C   0  0  0  0  0  0  0  0  0  0  0  0
  -24.8359  -28.8564   23.4848 C   0  0  0  0  0  0  0  0  0  0  0  0
  -28.8228  -34.1679   20.6558 C   0  0  0  0  0  0  0  0  0  0  0  0
  -29.9086  -11.5476   19.3903 C   0  0  0  0  0  0  0  0  0  0  0  0
  -29.0880  -33.0764   21.6878 C   0  0  0  0  0  0  0  0  0  0  0  0
  -28.4136  -11.3550   19.6551 C   0  0  0  0  0  0  0  0  0  0  0  0
  -30.5360  -12.5346   20.3731 C   0  0  0  0  0  0  0  0  0  0  0  0
  -28.3644  -13.6421   20.7290 C   0  0  0  0  0  0  0  0  0  0  0  0
  -28.8302  -31.6847   21.0977 C   0  0  1  0  0  0  0  0  0  0  0  0
  -25.2325  -30.7129   21.8360 C   0  0  1  0  0  0  0  0  0  0  0  0
  -27.6748  -12.7059   19.7233 C   0  0  2  0  0  0  0  0  0  0  0  0
  -19.3454  -30.1727   26.8414 C   0  0  0  0  0  0  0  0  0  0  0  0
  -25.8420  -31.3737   26.3695 C   0  0  0  0  0  0  0  0  0  0  0  0
  -23.8463  -30.9028   27.8060 C   0  0  0  0  0  0  0  0  0  0  0  0
  -23.9091  -32.9604   26.3971 C   0  0  0  0  0  0  0  0  0  0  0  0
  -19.4450  -28.7989   23.2947 C   0  0  0  0  0  0  0  0  0  0  0  0
  -28.6593  -21.8755   21.5167 C   0  0  0  0  0  0  0  0  0  0  0  0
  -23.5925  -30.7095   25.2902 C   0  0  1  0  0  0  0  0  0  0  0  0
  -19.8618  -30.0494   25.4163 C   0  0  2  0  0  0  0  0  0  0  0  0
  -24.3050  -31.4686   26.4451 C   0  0  0  0  0  0  0  0  0  0  0  0
  -25.8206  -11.4992   20.8129 N   0  0  0  0  0  0  0  0  0  0  0  0
  -26.2004  -12.5254   20.0326 N   0  0  0  0  0  0  0  0  0  0  0  0
  -24.6175  -30.2561   23.0839 N   0  0  0  0  0  0  0  0  0  0  0  0
  -29.7860  -13.7925   20.3808 N   0  0  0  0  0  0  0  0  0  0  0  0
  -25.3706  -14.3771   18.8107 N   0  0  0  0  0  0  0  0  0  0  0  0
  -21.6428  -12.5407   20.5791 N   0  0  0  0  0  0  0  0  0  0  0  0
  -29.6262  -16.1263   20.0805 N   0  0  0  0  0  0  0  0  0  0  0  0
  -27.4096  -31.4137   21.0442 N   0  0  0  0  0  0  0  0  0  0  0  0
  -22.1371  -30.8048   25.3211 N   0  0  0  0  0  0  0  0  0  0  0  0
  -19.0594  -29.0083   24.7140 N   0  3  0  0  0  0  0  0  0  0  0  0
  -22.4341  -14.2343   19.2509 O   0  0  0  0  0  0  0  0  0  0  0  0
  -27.1408  -30.6414   23.2246 O   0  0  0  0  0  0  0  0  0  0  0  0
  -23.8225  -32.3807   23.6227 O   0  0  0  0  0  0  0  0  0  0  0  0
  -21.7353  -28.5239   25.4363 O   0  0  0  0  0  0  0  0  0  0  0  0
  -31.6501  -15.0286   19.7965 O   0  0  0  0  0  0  0  0  0  0  0  0
  -21.4218   -8.0268   23.8365 O   0  0  0  0  0  0  0  0  0  0  0  0
  -25.8028  -24.3056   21.9705 O   0  0  0  0  0  0  0  0  0  1  0  0
  -28.4719  -20.7849   20.6243 O   0  0  0  0  0  0  0  0  0  0  0  0
  -22.5403   -2.6566   23.2756 F   0  0  0  0  0  0  0  0  0  0  0  0
  -19.4977   -6.2653   22.9214 F   0  0  0  0  0  0  0  0  0  0  0  0
  1  2  1  0  0  0  0
  1  6  2  0  0  0  0
  2  7  2  0  0  0  0
  3  9  1  0  0  0  0
  3 10  2  0  0  0  0
  4 11  2  0  0  0  0
  4 19  1  0  0  0  0
  5 12  1  0  0  0  0
  5 19  2  0  0  0  0
  6 21  1  0  0  0  0
  7 23  1  0  0  0  0
  8 13  2  0  0  0  0
  8 22  1  0  0  0  0
  9 25  2  0  0  0  0
 10 28  1  0  0  0  0
 11 26  1  0  0  0  0
 12 26  2  0  0  0  0
 13 27  1  0  0  0  0
 14 15  2  0  0  0  0
 14 29  1  0  0  0  0
 15 30  1  0  0  0  0
 16 24  1  0  0  0  0
 16 27  2  0  0  0  0
 17 25  1  0  0  0  0
 17 28  2  0  0  0  0
 18 30  2  0  0  0  0
 18 31  1  0  0  0  0
 19 32  1  0  0  0  0
 20 32  1  0  0  0  0
 20 33  2  0  0  0  0
 20 36  1  0  0  0  0
 21 23  2  0  0  0  0
 21 41  1  0  0  0  0
 22 24  2  0  0  0  0
 22 42  1  0  0  0  0
 23 50  1  0  0  0  0
 24 43  1  0  0  0  0
 25 68  1  0  0  0  0
 26 77  1  0  0  0  0
 27 78  1  0  0  0  0
 28 79  1  0  0  0  0
 29 31  2  0  0  0  0
 29 77  1  0  0  0  0
 30 80  1  0  0  0  0
 31 81  1  0  0  0  0
 32 62  2  0  0  0  0
 33 63  1  0  0  0  0
 33 66  1  0  0  0  0
 34 35  2  0  0  0  0
 34 58  1  0  0  0  0
 35 78  1  0  0  0  0
 36 67  1  0  0  0  0
 36 72  2  0  0  0  0
 37 51  1  0  0  0  0
 37 69  1  0  0  0  0
 37 73  2  0  0  0  0
 38 59  1  0  0  0  0
 38 64  1  0  0  0  0
 38 74  2  0  0  0  0
 39 60  1  0  0  0  0
 39 70  1  0  0  0  0
 39 75  2  0  0  0  0
 40 65  1  0  0  0  0
 40 68  1  0  0  0  0
 40 76  2  0  0  0  0
 41 44  1  0  0  0  0
 42 51  1  0  0  0  0
 43 64  1  0  0  0  0
 44 46  1  0  0  0  0
 45 47  1  0  0  0  0
 45 48  1  0  0  0  0
 46 50  1  0  0  0  0
 47 52  1  0  0  0  0
 48 65  1  0  0  0  0
 49 52  1  0  0  0  0
 49 65  1  0  0  0  0
 50 69  1  0  0  0  0
 51 64  1  0  0  0  0
 52 63  1  0  0  0  0
 53 60  1  0  0  0  0
 54 61  1  0  0  0  0
 55 61  1  0  0  0  0
 56 61  1  0  0  0  0
 57 71  1  0  0  0  0
 58 79  1  0  0  0  0
 59 61  1  0  0  0  0
 59 70  1  0  0  0  0
 60 71  1  0  0  0  0
 62 63  1  0  0  0  0
M  CHG  1  71   1
M  ISO  4  35 101  40 100  68 100  78 101
M  END
> <Batch ID>
0078

> <Smiles>
CNC(C)C(=O)NC(C(=O)N1Cc2cc([101O:1][101CH:1]=CCOc3cccc([100NH:0][100C:0](=O)N4CCCC(n5nc(-c6ccc(Oc7ccc(F)cc7F)cc6)c(C(N)=O)c5N)C4)c3)ccc2CC1C(=O)NC1CCCc2ccccc21)C(C)(C)C

> <Shape>
0.272

> <Color>
0.121

> <Negative vol penalty>
0.000

$$$$

  -OEChem-04042323563D

 85 94  0     1  0  0  0  0  0999 V2000
  -25.2924  -35.4824   22.5131 C   0  0  0  0  0  0  0  0  0  0  0  0
  -25.9734  -34.2738   22.4087 C   0  0  0  0  0  0  0  0  0  0  0  0
  -24.8225   -9.6690   23.1006 C   0  0  0  0  0  0  0  0  0  0  0  0
  -24.0268  -11.8772   23.6732 C   0  0  0  0  0  0  0  0  0  0  0  0
  -23.9752  -35.5019   22.9698 C   0  0  0  0  0  0  0  0  0  0  0  0
  -25.3379  -33.0840   22.7622 C   0  0  0  0  0  0  0  0  0  0  0  0
  -26.1236  -29.3865   19.3923 C   0  0  0  0  0  0  0  0  0  0  0  0
  -24.4739   -9.2137   24.3721 C   0  0  0  0  0  0  0  0  0  0  0  0
  -23.6781  -11.4219   24.9447 C   0  0  0  0  0  0  0  0  0  0  0  0
  -27.3549  -28.7341   19.4383 C   0  0  0  0  0  0  0  0  0  0  0  0
  -21.6623   -8.2697   25.9959 C   0  0  0  0  0  0  0  0  0  0  0  0
  -20.9908   -7.0505   26.0863 C   0  0  0  0  0  0  0  0  0  0  0  0
  -26.3372  -26.9115   20.6472 C   0  0  0  0  0  0  0  0  0  0  0  0
  -29.6876  -18.8495   19.4811 C   0  0  0  0  0  0  0  0  0  0  0  0
  -22.7873   -6.1612   27.4351 C   0  0  0  0  0  0  0  0  0  0  0  0
  -27.7257  -18.7983   20.5416 C   0  0  0  0  0  0  0  0  0  0  0  0
  -24.5989  -11.0008   22.7511 C   0  0  0  0  0  0  0  0  0  0  0  0
  -24.1504  -11.4793   20.2859 C   0  0  0  0  0  0  0  0  0  0  0  0
  -23.3201  -34.3107   23.3199 C   0  0  0  0  0  0  0  0  0  0  0  0
  -24.9903  -28.8103   19.9839 C   0  0  0  0  0  0  0  0  0  0  0  0
  -24.0112  -33.0877   23.2253 C   0  0  0  0  0  0  0  0  0  0  0  0
  -25.0922  -27.5574   20.6051 C   0  0  0  0  0  0  0  0  0  0  0  0
  -28.6964  -17.9853   20.0043 C   0  0  0  0  0  0  0  0  0  0  0  0
  -23.9017  -10.0901   25.2942 C   0  0  0  0  0  0  0  0  0  0  0  0
  -27.4625  -27.4978   20.0684 C   0  0  0  0  0  0  0  0  0  0  0  0
  -22.8963   -8.4347   26.6250 C   0  0  0  0  0  0  0  0  0  0  0  0
  -21.5533   -5.9962   26.8059 C   0  0  0  0  0  0  0  0  0  0  0  0
  -23.4587   -7.3805   27.3446 C   0  0  0  0  0  0  0  0  0  0  0  0
  -24.9593  -11.4719   21.4380 C   0  0  0  0  0  0  0  0  0  0  0  0
  -24.9493  -12.0215   19.3089 C   0  0  0  0  0  0  0  0  0  0  0  0
  -29.2519  -20.1290   19.7357 C   0  0  0  0  0  0  0  0  0  0  0  0
  -30.1425  -23.6201   19.3042 C   0  0  0  0  0  0  0  0  0  0  0  0
  -31.2837  -23.0013   18.6779 C   0  0  0  0  0  0  0  0  0  0  0  0
  -29.2051  -22.5726   19.7969 C   0  0  0  0  0  0  0  0  0  0  0  0
  -32.3436  -23.5915   18.1150 C   0  0  0  0  0  0  0  0  0  0  0  0
  -29.8692  -24.9189   19.4699 C   0  0  0  0  0  0  0  0  0  0  0  0
  -22.7977  -11.0360   20.1141 C   0  0  0  0  0  0  0  0  0  0  0  0
  -23.0210  -29.6405   22.3368 C   0  0  0  0  0  0  0  0  0  0  0  0
  -21.3848  -27.0116   21.3705 C   0  0  0  0  0  0  0  0  0  0  0  0
  -21.4363  -23.9816   19.8009 C   0  0  0  0  0  0  0  0  0  0  0  0
  -29.6434  -15.7156   19.4582 C   0  0  0  0  0  0  0  0  0  0  0  0
  -21.9115  -34.3867   23.8534 C   0  0  0  0  0  0  0  0  0  0  0  0
  -23.6637  -29.5144   19.9022 C   0  0  0  0  0  0  0  0  0  0  0  0
  -23.9012  -26.8867   21.2377 C   0  0  0  0  0  0  0  0  0  0  0  0
  -31.0826  -21.5186   18.7654 C   0  0  0  0  0  0  0  0  0  0  0  0
  -21.1863  -33.0435   23.8520 C   0  0  0  0  0  0  0  0  0  0  0  0
  -29.5478  -12.4501   18.0425 C   0  0  0  0  0  0  0  0  0  0  0  0
  -22.0839  -31.9516   24.4255 C   0  0  0  0  0  0  0  0  0  0  0  0
  -28.2834  -11.8315   18.6430 C   0  0  0  0  0  0  0  0  0  0  0  0
  -30.2716  -13.3471   19.0451 C   0  0  0  0  0  0  0  0  0  0  0  0
  -28.1729  -13.7659   20.2656 C   0  0  0  0  0  0  0  0  0  0  0  0
  -23.3478  -31.7734   23.5757 C   0  0  1  0  0  0  0  0  0  0  0  0
  -22.6853  -29.0733   20.9865 C   0  0  1  0  0  0  0  0  0  0  0  0
  -27.3747  -12.9056   19.2724 C   0  0  2  0  0  0  0  0  0  0  0  0
  -19.9531  -22.0483   19.2013 C   0  0  0  0  0  0  0  0  0  0  0  0
  -21.4899  -26.0377   24.2602 C   0  0  0  0  0  0  0  0  0  0  0  0
  -20.8713  -23.7546   23.4400 C   0  0  0  0  0  0  0  0  0  0  0  0
  -19.2997  -25.6638   23.1124 C   0  0  0  0  0  0  0  0  0  0  0  0
  -21.8860  -24.3852   16.9037 C   0  0  0  0  0  0  0  0  0  0  0  0
  -28.6396  -25.4326   20.1426 C   0  0  0  0  0  0  0  0  0  1  0  0
  -21.4113  -25.5449   21.7270 C   0  0  1  0  0  0  0  0  0  0  0  0
  -20.5287  -23.3794   18.7435 C   0  0  2  0  0  0  0  0  0  0  0  0
  -20.7911  -25.2635   23.1248 C   0  0  0  0  0  0  0  0  0  0  0  0
  -26.1786  -11.9696   21.2152 N   0  0  0  0  0  0  0  0  0  0  0  0
  -26.1418  -12.2948   19.9117 N   0  0  0  0  0  0  0  0  0  0  0  0
  -29.8048  -21.3487   19.4544 N   0  0  0  0  0  0  0  0  0  0  0  0
  -22.6273  -27.6179   21.1372 N   0  0  0  0  0  0  0  0  0  0  0  0
  -29.3497  -14.3426   19.5966 N   0  0  0  0  0  0  0  0  0  0  0  0
  -24.7410  -12.2861   18.0017 N   0  0  0  0  0  0  0  0  0  0  0  0
  -22.1230  -10.5048   21.2218 N   0  0  0  0  0  0  0  0  0  0  0  0
  -28.6784  -16.5685   19.9929 N   0  0  0  0  0  0  0  0  0  0  0  0
  -23.0482  -31.0215   22.3759 N   0  0  0  0  0  0  0  0  0  0  0  0
  -20.7521  -24.8459   20.6292 N   0  0  0  0  0  0  0  0  0  0  0  0
  -21.2847  -23.1546   17.4791 N   0  3  0  0  0  0  0  0  0  0  0  0
  -28.1487  -22.7770   20.3721 O   0  0  0  0  0  0  0  0  0  0  0  0
  -22.2105  -11.0935   19.0072 O   0  0  0  0  0  0  0  0  0  0  0  0
  -23.2376  -28.8815   23.2741 O   0  0  0  0  0  0  0  0  0  0  0  0
  -20.3011  -27.5960   21.2945 O   0  0  0  0  0  0  0  0  0  0  0  0
  -22.6318  -23.7094   19.8861 O   0  0  0  0  0  0  0  0  0  0  0  0
  -30.6618  -16.1066   18.8819 O   0  0  0  0  0  0  0  0  0  0  0  0
  -28.0567  -20.1066   20.3818 O   0  0  0  0  0  0  0  0  0  0  0  0
  -23.5612   -9.6461   26.5349 O   0  0  0  0  0  0  0  0  0  0  0  0
  -28.6632  -26.8591   20.1153 O   0  0  0  0  0  0  0  0  0  1  0  0
  -20.9077   -4.8259   26.8940 F   0  0  0  0  0  0  0  0  0  0  0  0
  -24.6433   -7.5335   27.9522 F   0  0  0  0  0  0  0  0  0  0  0  0
  1  2  1  0  0  0  0
  1  5  2  0  0  0  0
  2  6  2  0  0  0  0
  3  8  2  0  0  0  0
  3 17  1  0  0  0  0
  4  9  1  0  0  0  0
  4 17  2  0  0  0  0
  5 19  1  0  0  0  0
  6 21  1  0  0  0  0
  7 10  2  0  0  0  0
  7 20  1  0  0  0  0
  8 24  1  0  0  0  0
  9 24  2  0  0  0  0
 10 25  1  0  0  0  0
 11 12  2  0  0  0  0
 11 26  1  0  0  0  0
 12 27  1  0  0  0  0
 13 22  1  0  0  0  0
 13 25  2  0  0  0  0
 14 23  1  0  0  0  0
 14 31  2  0  0  0  0
 15 27  2  0  0  0  0
 15 28  1  0  0  0  0
 16 23  2  0  0  0  0
 16 81  1  0  0  0  0
 17 29  1  0  0  0  0
 18 29  1  0  0  0  0
 18 30  2  0  0  0  0
 18 37  1  0  0  0  0
 19 21  2  0  0  0  0
 19 42  1  0  0  0  0
 20 22  2  0  0  0  0
 20 43  1  0  0  0  0
 21 52  1  0  0  0  0
 22 44  1  0  0  0  0
 23 71  1  0  0  0  0
 24 82  1  0  0  0  0
 25 83  1  0  0  0  0
 26 28  2  0  0  0  0
 26 82  1  0  0  0  0
 27 84  1  0  0  0  0
 28 85  1  0  0  0  0
 29 64  2  0  0  0  0
 30 65  1  0  0  0  0
 30 69  1  0  0  0  0
 31 66  1  0  0  0  0
 31 81  1  0  0  0  0
 32 33  1  0  0  0  0
 32 34  1  0  0  0  0
 32 36  2  0  0  0  0
 33 35  2  0  0  0  0
 33 45  1  0  0  0  0
 34 66  1  0  0  0  0
 34 75  2  0  0  0  0
 36 60  1  0  0  0  0
 37 70  1  0  0  0  0
 37 76  2  0  0  0  0
 38 53  1  0  0  0  0
 38 72  1  0  0  0  0
 38 77  2  0  0  0  0
 39 61  1  0  0  0  0
 39 67  1  0  0  0  0
 39 78  2  0  0  0  0
 40 62  1  0  0  0  0
 40 73  1  0  0  0  0
 40 79  2  0  0  0  0
 41 68  1  0  0  0  0
 41 71  1  0  0  0  0
 41 80  2  0  0  0  0
 42 46  1  0  0  0  0
 43 53  1  0  0  0  0
 44 67  1  0  0  0  0
 45 66  1  0  0  0  0
 46 48  1  0  0  0  0
 47 49  1  0  0  0  0
 47 50  1  0  0  0  0
 48 52  1  0  0  0  0
 49 54  1  0  0  0  0
 50 68  1  0  0  0  0
 51 54  1  0  0  0  0
 51 68  1  0  0  0  0
 52 72  1  0  0  0  0
 53 67  1  0  0  0  0
 54 65  1  0  0  0  0
 55 62  1  0  0  0  0
 56 63  1  0  0  0  0
 57 63  1  0  0  0  0
 58 63  1  0  0  0  0
 59 74  1  0  0  0  0
 60 83  1  0  0  0  0
 61 63  1  0  0  0  0
 61 73  1  0  0  0  0
 62 74  1  0  0  0  0
 64 65  1  0  0  0  0
M  CHG  1  74   1
M  ISO  4  41 100  60 101  71 100  83 101
M  END
> <Batch ID>
0078

> <Smiles>
C=C1CN(c2cc([100NH:0][100C:0](=O)N3CCCC(n4nc(-c5ccc(Oc6ccc(F)cc6F)cc5)c(C(N)=O)c4N)C3)co2)C(=O)C1=C[101CH2:1][101O:1]c1ccc2c(c1)CN(C(=O)C(NC(=O)C(C)NC)C(C)(C)C)C(C(=O)NC1CCCc3ccccc31)C2

> <Shape>
0.279

> <Color>
0.093

> <Negative vol penalty>
0.000

$$$$

  -OEChem-04042323563D

 84 93  0     1  0  0  0  0  0999 V2000
  -26.7633  -34.5401   24.7505 C   0  0  0  0  0  0  0  0  0  0  0  0
  -27.1701  -33.3037   24.2591 C   0  0  0  0  0  0  0  0  0  0  0  0
  -24.8044   -8.6979   21.2766 C   0  0  0  0  0  0  0  0  0  0  0  0
  -23.1939  -10.4673   20.9409 C   0  0  0  0  0  0  0  0  0  0  0  0
  -25.4668  -34.7033   25.2368 C   0  0  0  0  0  0  0  0  0  0  0  0
  -26.2809  -32.2296   24.2548 C   0  0  0  0  0  0  0  0  0  0  0  0
  -26.3620  -29.6578   19.8931 C   0  0  0  0  0  0  0  0  0  0  0  0
  -28.5310  -20.8674   21.7066 C   0  0  0  0  0  0  0  0  0  0  0  0
  -28.2511  -20.0150   19.4633 C   0  0  0  0  0  0  0  0  0  0  0  0
  -28.5643  -19.5625   22.1983 C   0  0  0  0  0  0  0  0  0  0  0  0
  -28.2844  -18.7101   19.9550 C   0  0  0  0  0  0  0  0  0  0  0  0
  -23.7652   -7.7759   21.4024 C   0  0  0  0  0  0  0  0  0  0  0  0
  -22.1548   -9.5454   21.0667 C   0  0  0  0  0  0  0  0  0  0  0  0
  -27.4209  -28.7727   19.6954 C   0  0  0  0  0  0  0  0  0  0  0  0
  -21.5255   -5.0159   22.1702 C   0  0  0  0  0  0  0  0  0  0  0  0
  -21.6010   -4.0893   23.2100 C   0  0  0  0  0  0  0  0  0  0  0  0
  -25.9932  -26.9333   20.3257 C   0  0  0  0  0  0  0  0  0  0  0  0
  -21.6292   -5.8939   24.8162 C   0  0  0  0  0  0  0  0  0  0  0  0
  -24.5187  -10.0436   21.0459 C   0  0  0  0  0  0  0  0  0  0  0  0
  -26.2541  -11.3752   19.7334 C   0  0  0  0  0  0  0  0  0  0  0  0
  -24.5583  -33.6332   25.2295 C   0  0  0  0  0  0  0  0  0  0  0  0
  -25.1116  -29.1878   20.3198 C   0  0  0  0  0  0  0  0  0  0  0  0
  -24.9715  -32.3783   24.7428 C   0  0  0  0  0  0  0  0  0  0  0  0
  -24.9193  -27.8142   20.5256 C   0  0  0  0  0  0  0  0  0  0  0  0
  -28.3743  -21.0936   20.3391 C   0  0  0  0  0  0  0  0  0  0  0  0
  -28.4410  -18.4839   21.3225 C   0  0  0  0  0  0  0  0  0  0  0  0
  -22.4404   -8.1997   21.2975 C   0  0  0  0  0  0  0  0  0  0  0  0
  -27.2374  -27.4106   19.9145 C   0  0  0  0  0  0  0  0  0  0  0  0
  -21.5019   -6.3816   22.4534 C   0  0  0  0  0  0  0  0  0  0  0  0
  -21.6528   -4.5283   24.5330 C   0  0  0  0  0  0  0  0  0  0  0  0
  -21.5537   -6.8206   23.7763 C   0  0  0  0  0  0  0  0  0  0  0  0
  -25.5917  -10.9965   20.9164 C   0  0  0  0  0  0  0  0  0  0  0  0
  -27.1839  -12.3001   20.1415 C   0  0  0  0  0  0  0  0  0  0  0  0
  -28.1982  -24.2583   19.1785 C   0  0  0  0  0  0  0  0  0  0  0  0
  -28.4347  -23.5905   20.4590 C   0  0  0  0  0  0  0  0  0  0  0  0
  -26.0474  -10.9308   18.3860 C   0  0  0  0  0  0  0  0  0  0  0  0
  -28.1142  -25.5538   18.7945 C   0  0  0  0  0  0  0  0  0  1  0  0
  -23.2902  -29.6657   22.8806 C   0  0  0  0  0  0  0  0  0  0  0  0
  -21.1579  -27.8753   21.2161 C   0  0  0  0  0  0  0  0  0  0  0  0
  -20.6063  -25.5323   18.7968 C   0  0  0  0  0  0  0  0  0  0  0  0
  -28.6235  -16.7590   23.1496 C   0  0  0  0  0  0  0  0  0  0  0  0
  -23.1822  -33.8453   25.8093 C   0  0  0  0  0  0  0  0  0  0  0  0
  -23.9721  -30.1523   20.5027 C   0  0  0  0  0  0  0  0  0  0  0  0
  -23.5909  -27.2565   20.9645 C   0  0  0  0  0  0  0  0  0  0  0  0
  -28.0944  -22.9012   18.5210 C   0  0  0  0  0  0  0  0  0  0  0  0
  -22.1843  -32.7564   25.4235 C   0  0  0  0  0  0  0  0  0  0  0  0
  -28.7188  -13.5988   24.7868 C   0  0  0  0  0  0  0  0  0  0  0  0
  -22.8048  -31.3748   25.6055 C   0  0  0  0  0  0  0  0  0  0  0  0
  -27.9683  -12.6712   23.8285 C   0  0  0  0  0  0  0  0  0  0  0  0
  -28.1031  -14.9964   24.8220 C   0  0  0  0  0  0  0  0  0  0  0  0
  -27.1899  -14.7088   22.5521 C   0  0  0  0  0  0  0  0  0  0  0  0
  -24.0283  -31.1957   24.6985 C   0  0  1  0  0  0  0  0  0  0  0  0
  -22.8856  -29.6238   21.4341 C   0  0  1  0  0  0  0  0  0  0  0  0
  -27.8128  -13.3082   22.4337 C   0  0  2  0  0  0  0  0  0  0  0  0
  -27.8584  -26.0047   17.3914 C   0  0  0  0  0  0  0  0  0  0  0  0
  -18.7613  -24.2423   17.6881 C   0  0  0  0  0  0  0  0  0  0  0  0
  -20.9526  -26.0681   23.6660 C   0  0  0  0  0  0  0  0  0  0  0  0
  -19.8832  -24.3341   22.2108 C   0  0  0  0  0  0  0  0  0  0  0  0
  -18.7733  -26.5444   22.5354 C   0  0  0  0  0  0  0  0  0  0  0  0
  -21.2299  -26.6930   16.1468 C   0  0  0  0  0  0  0  0  0  0  0  0
  -20.8548  -26.4004   21.1075 C   0  0  1  0  0  0  0  0  0  0  0  0
  -19.6261  -25.4922   17.6383 C   0  0  2  0  0  0  0  0  0  0  0  0
  -20.1417  -25.8472   22.3735 C   0  0  0  0  0  0  0  0  0  0  0  0
  -26.0609  -11.6289   21.9952 N   0  0  0  0  0  0  0  0  0  0  0  0
  -27.0282  -12.4144   21.4916 N   0  0  0  0  0  0  0  0  0  0  0  0
  -28.3411  -22.3805   19.8540 N   0  0  0  0  0  0  0  0  0  0  0  0
  -22.5093  -28.2405   21.1359 N   0  0  0  0  0  0  0  0  0  0  0  0
  -27.9909  -15.5382   23.4661 N   0  0  0  0  0  0  0  0  0  0  0  0
  -28.1114  -13.0185   19.4736 N   0  0  0  0  0  0  0  0  0  0  0  0
  -25.0504   -9.9763   18.1428 N   0  0  0  0  0  0  0  0  0  0  0  0
  -28.4748  -17.1582   21.8217 N   0  0  0  0  0  0  0  0  0  0  0  0
  -23.6139  -30.9289   23.3378 N   0  0  0  0  0  0  0  0  0  0  0  0
  -20.0975  -26.2293   19.8723 N   0  0  0  0  0  0  0  0  0  0  0  0
  -20.3579  -25.5060   16.3401 N   0  3  0  0  0  0  0  0  0  0  0  0
  -28.6235  -23.9596   21.5994 O   0  0  0  0  0  0  0  0  0  0  0  0
  -26.7377  -11.3552   17.4284 O   0  0  0  0  0  0  0  0  0  0  0  0
  -23.3059  -28.6290   23.5338 O   0  0  0  0  0  0  0  0  0  0  0  0
  -20.2294  -28.6746   21.3595 O   0  0  0  0  0  0  0  0  0  0  0  0
  -21.7111  -24.9957   18.7536 O   0  0  0  0  0  0  0  0  0  0  0  0
  -29.2738  -17.3893   23.9874 O   0  0  0  0  0  0  0  0  0  0  0  0
  -21.4262   -7.3003   21.4200 O   0  0  0  0  0  0  0  0  0  0  0  0
  -28.2695  -26.5446   19.7229 O   0  0  0  0  0  0  0  0  0  1  0  0
  -21.7237   -3.6382   25.5315 F   0  0  0  0  0  0  0  0  0  0  0  0
  -21.5302   -8.1312   24.0546 F   0  0  0  0  0  0  0  0  0  0  0  0
  1  2  1  0  0  0  0
  1  5  2  0  0  0  0
  2  6  2  0  0  0  0
  3 12  2  0  0  0  0
  3 19  1  0  0  0  0
  4 13  1  0  0  0  0
  4 19  2  0  0  0  0
  5 21  1  0  0  0  0
  6 23  1  0  0  0  0
  7 14  2  0  0  0  0
  7 22  1  0  0  0  0
  8 10  2  0  0  0  0
  8 25  1  0  0  0  0
  9 11  1  0  0  0  0
  9 25  2  0  0  0  0
 10 26  1  0  0  0  0
 11 26  2  0  0  0  0
 12 27  1  0  0  0  0
 13 27  2  0  0  0  0
 14 28  1  0  0  0  0
 15 16  2  0  0  0  0
 15 29  1  0  0  0  0
 16 30  1  0  0  0  0
 17 24  1  0  0  0  0
 17 28  2  0  0  0  0
 18 30  2  0  0  0  0
 18 31  1  0  0  0  0
 19 32  1  0  0  0  0
 20 32  1  0  0  0  0
 20 33  2  0  0  0  0
 20 36  1  0  0  0  0
 21 23  2  0  0  0  0
 21 42  1  0  0  0  0
 22 24  2  0  0  0  0
 22 43  1  0  0  0  0
 23 52  1  0  0  0  0
 24 44  1  0  0  0  0
 25 66  1  0  0  0  0
 26 71  1  0  0  0  0
 27 81  1  0  0  0  0
 28 82  1  0  0  0  0
 29 31  2  0  0  0  0
 29 81  1  0  0  0  0
 30 83  1  0  0  0  0
 31 84  1  0  0  0  0
 32 64  2  0  0  0  0
 33 65  1  0  0  0  0
 33 69  1  0  0  0  0
 34 35  1  0  0  0  0
 34 37  2  0  0  0  0
 34 45  1  0  0  0  0
 35 66  1  0  0  0  0
 35 75  2  0  0  0  0
 36 70  1  0  0  0  0
 36 76  2  0  0  0  0
 37 55  1  0  0  0  0
 37 82  1  0  0  0  0
 38 53  1  0  0  0  0
 38 72  1  0  0  0  0
 38 77  2  0  0  0  0
 39 61  1  0  0  0  0
 39 67  1  0  0  0  0
 39 78  2  0  0  0  0
 40 62  1  0  0  0  0
 40 73  1  0  0  0  0
 40 79  2  0  0  0  0
 41 68  1  0  0  0  0
 41 71  1  0  0  0  0
 41 80  2  0  0  0  0
 42 46  1  0  0  0  0
 43 53  1  0  0  0  0
 44 67  1  0  0  0  0
 45 66  1  0  0  0  0
 46 48  1  0  0  0  0
 47 49  1  0  0  0  0
 47 50  1  0  0  0  0
 48 52  1  0  0  0  0
 49 54  1  0  0  0  0
 50 68  1  0  0  0  0
 51 54  1  0  0  0  0
 51 68  1  0  0  0  0
 52 72  1  0  0  0  0
 53 67  1  0  0  0  0
 54 65  1  0  0  0  0
 56 62  1  0  0  0  0
 57 63  1  0  0  0  0
 58 63  1  0  0  0  0
 59 63  1  0  0  0  0
 60 74  1  0  0  0  0
 61 63  1  0  0  0  0
 61 73  1  0  0  0  0
 62 74  1  0  0  0  0
 64 65  1  0  0  0  0
M  CHG  1  74   1
M  ISO  4  37 101  41 100  71 100  82 101
M  END
> <Batch ID>
0078

> <Smiles>
CNC(C)C(=O)NC(C(=O)N1Cc2cc([101O:1][101C:1](C)=C3CN(c4ccc([100NH:0][100C:0](=O)N5CCCC(n6nc(-c7ccc(Oc8ccc(F)cc8F)cc7)c(C(N)=O)c6N)C5)cc4)C3=O)ccc2CC1C(=O)NC1CCCc2ccccc21)C(C)(C)C

> <Shape>
0.320

> <Color>
0.113

> <Negative vol penalty>
0.000

$$$$

  -OEChem-04042323563D

 88 97  0     1  0  0  0  0  0999 V2000
  -31.9522  -31.0337   21.7984 C   0  0  0  0  0  0  0  0  0  0  0  0
  -32.0346  -29.6524   21.6546 C   0  0  0  0  0  0  0  0  0  0  0  0
  -34.0494  -16.0677   24.1812 C   0  0  0  0  0  0  0  0  0  0  0  0
  -23.2861   -9.7880   19.9243 C   0  0  0  0  0  0  0  0  0  0  0  0
  -23.7378   -9.9450   22.2925 C   0  0  0  0  0  0  0  0  0  0  0  0
  -31.6188  -31.5861   23.0344 C   0  0  0  0  0  0  0  0  0  0  0  0
  -31.7848  -28.8227   22.7471 C   0  0  0  0  0  0  0  0  0  0  0  0
  -28.8198  -24.8918   21.5633 C   0  0  0  0  0  0  0  0  0  0  0  0
  -33.5002  -14.7873   24.2482 C   0  0  0  0  0  0  0  0  0  0  0  0
  -33.3498  -17.0944   23.5471 C   0  0  0  0  0  0  0  0  0  0  0  0
  -22.5618   -8.6157   20.1401 C   0  0  0  0  0  0  0  0  0  0  0  0
  -23.0134   -8.7727   22.5084 C   0  0  0  0  0  0  0  0  0  0  0  0
  -29.4163  -23.8224   20.8967 C   0  0  0  0  0  0  0  0  0  0  0  0
  -19.4823   -7.7574   21.2414 C   0  0  0  0  0  0  0  0  0  0  0  0
  -18.2532   -7.6266   20.5951 C   0  0  0  0  0  0  0  0  0  0  0  0
  -29.5598  -22.6124   22.9787 C   0  0  0  0  0  0  0  0  0  0  0  0
  -31.5519  -15.5602   23.0467 C   0  0  0  0  0  0  0  0  0  0  0  0
  -19.0574   -5.6476   19.4664 C   0  0  0  0  0  0  0  0  0  0  0  0
  -23.8742  -10.4527   21.0005 C   0  0  0  0  0  0  0  0  0  0  0  0
  -24.1293  -12.9817   20.7851 C   0  0  0  0  0  0  0  0  0  0  0  0
  -31.3553  -30.7624   24.1402 C   0  0  0  0  0  0  0  0  0  0  0  0
  -28.5984  -24.8338   22.9468 C   0  0  0  0  0  0  0  0  0  0  0  0
  -31.4489  -29.3646   23.9994 C   0  0  0  0  0  0  0  0  0  0  0  0
  -28.9580  -23.6814   23.6600 C   0  0  0  0  0  0  0  0  0  0  0  0
  -32.2515  -14.5335   23.6809 C   0  0  0  0  0  0  0  0  0  0  0  0
  -32.1011  -16.8406   22.9798 C   0  0  0  0  0  0  0  0  0  0  0  0
  -22.4254   -8.1081   21.4322 C   0  0  0  0  0  0  0  0  0  0  0  0
  -29.7891  -22.6836   21.6048 C   0  0  0  0  0  0  0  0  0  0  0  0
  -20.4990   -6.8334   21.0002 C   0  0  0  0  0  0  0  0  0  0  0  0
  -18.0407   -6.5717   19.7076 C   0  0  0  0  0  0  0  0  0  0  0  0
  -20.2866   -5.7785   20.1126 C   0  0  0  0  0  0  0  0  0  0  0  0
  -24.6230  -11.6634   20.7781 C   0  0  0  0  0  0  0  0  0  0  0  0
  -25.2293  -13.7618   20.5244 C   0  0  0  0  0  0  0  0  0  0  0  0
  -30.3801  -19.3598   21.5359 C   0  0  0  0  0  0  0  0  0  0  0  0
  -31.6955  -19.1629   22.1463 C   0  0  0  0  0  0  0  0  0  0  0  0
  -30.9732  -12.0845   26.0088 C   0  0  0  0  0  0  0  0  0  0  0  0
  -30.8076  -12.9720   25.0194 C   0  0  0  0  0  0  0  0  0  0  0  0
  -22.7955  -13.4586   21.0074 C   0  0  0  0  0  0  0  0  0  0  0  0
  -29.7435  -20.4258   20.9960 C   0  0  0  0  0  0  0  0  0  1  0  0
  -29.6093  -26.5084   25.4523 C   0  0  0  0  0  0  0  0  0  0  0  0
  -27.4913  -24.6483   27.0574 C   0  0  0  0  0  0  0  0  0  0  0  0
  -25.7235  -21.7326   27.2009 C   0  0  0  0  0  0  0  0  0  0  0  0
  -31.1021  -12.9339   21.3467 C   0  0  0  0  0  0  0  0  0  0  0  0
  -31.0451  -31.4070   25.4680 C   0  0  0  0  0  0  0  0  0  0  0  0
  -27.9296  -25.9851   23.6465 C   0  0  0  0  0  0  0  0  0  0  0  0
  -28.7235  -23.5612   25.1429 C   0  0  0  0  0  0  0  0  0  0  0  0
  -30.0790  -17.8986   21.7786 C   0  0  0  0  0  0  0  0  0  0  0  0
  -30.4287  -30.4467   26.4820 C   0  0  0  0  0  0  0  0  0  0  0  0
  -29.4505  -13.6503   18.2749 C   0  0  0  0  0  0  0  0  0  0  0  0
  -31.2066  -29.1350   26.5162 C   0  0  0  0  0  0  0  0  0  0  0  0
  -27.9814  -13.3413   18.5688 C   0  0  0  0  0  0  0  0  0  0  0  0
  -30.3857  -12.6772   18.9893 C   0  0  0  0  0  0  0  0  0  0  0  0
  -28.7007  -12.2565   20.7378 C   0  0  0  0  0  0  0  0  0  0  0  0
  -31.1608  -28.4307   25.1548 C   0  0  1  0  0  0  0  0  0  0  0  0
  -28.2206  -26.0248   25.1436 C   0  0  1  0  0  0  0  0  0  0  0  0
  -27.7207  -13.2458   20.0841 C   0  0  2  0  0  0  0  0  0  0  0  0
  -28.3642  -20.3833   20.4188 C   0  0  0  0  0  0  0  0  0  0  0  0
  -24.1059  -20.4792   28.6534 C   0  0  0  0  0  0  0  0  0  0  0  0
  -32.7890  -12.0925   23.6277 C   0  0  0  0  0  0  0  0  0  0  0  0
  -29.7689  -23.9020   28.9458 C   0  0  0  0  0  0  0  0  0  0  0  0
  -28.3797  -21.9806   29.7499 C   0  0  0  0  0  0  0  0  0  0  0  0
  -27.5750  -24.3198   30.0713 C   0  0  0  0  0  0  0  0  0  0  0  0
  -23.6457  -21.7406   25.0934 C   0  0  0  0  0  0  0  0  0  0  0  0
  -27.5566  -23.3103   27.7534 C   0  0  1  0  0  0  0  0  0  0  0  0
  -24.2608  -21.4551   27.4974 C   0  0  2  0  0  0  0  0  0  0  0  0
  -31.6648  -13.1645   23.7528 C   0  0  2  0  0  0  0  0  0  0  0  0
  -28.3264  -23.3809   29.1025 C   0  0  0  0  0  0  0  0  0  0  0  0
  -25.9346  -11.6053   20.5323 N   0  0  0  0  0  0  0  0  0  0  0  0
  -26.2743  -12.8969   20.3823 N   0  0  0  0  0  0  0  0  0  0  0  0
  -31.4111  -17.8535   22.3550 N   0  0  0  0  0  0  0  0  0  0  0  0
  -28.0722  -24.7159   25.7831 N   0  0  0  0  0  0  0  0  0  0  0  0
  -30.0872  -12.6347   20.4228 N   0  0  0  0  0  0  0  0  0  0  0  0
  -25.3950  -15.0962   20.4051 N   0  0  0  0  0  0  0  0  0  0  0  0
  -21.7846  -12.5217   21.2615 N   0  0  0  0  0  0  0  0  0  0  0  0
  -29.8851  -27.7731   24.9686 N   0  0  0  0  0  0  0  0  0  0  0  0
  -26.1790  -22.8458   27.8752 N   0  0  0  0  0  0  0  0  0  0  0  0
  -30.7331  -12.8766   22.6851 N   0  0  0  0  0  0  0  0  0  0  0  0
  -23.5905  -20.8749   26.2994 N   0  3  0  0  0  0  0  0  0  0  0  0
  -32.6484  -19.8755   22.3842 O   0  0  0  0  0  0  0  0  0  0  0  0
  -22.5056  -14.6783   20.9652 O   0  0  0  0  0  0  0  0  0  0  0  0
  -30.3735  -25.7881   26.0838 O   0  0  0  0  0  0  0  0  0  0  0  0
  -26.9388  -25.5966   27.6206 O   0  0  0  0  0  0  0  0  0  0  0  0
  -26.3959  -21.0299   26.4495 O   0  0  0  0  0  0  0  0  0  0  0  0
  -32.2504  -13.2353   21.0040 O   0  0  0  0  0  0  0  0  0  0  0  0
  -21.7185   -6.9643   21.6432 O   0  0  0  0  0  0  0  0  0  0  0  0
  -30.3720  -21.6387   20.9567 O   0  0  0  0  0  0  0  0  0  1  0  0
  -16.8598   -6.4453   19.0882 F   0  0  0  0  0  0  0  0  0  0  0  0
  -21.2591   -4.8871   19.8777 F   0  0  0  0  0  0  0  0  0  0  0  0
  1  2  1  0  0  0  0
  1  6  2  0  0  0  0
  2  7  2  0  0  0  0
  3  9  2  0  0  0  0
  3 10  1  0  0  0  0
  4 11  2  0  0  0  0
  4 19  1  0  0  0  0
  5 12  1  0  0  0  0
  5 19  2  0  0  0  0
  6 21  1  0  0  0  0
  7 23  1  0  0  0  0
  8 13  2  0  0  0  0
  8 22  1  0  0  0  0
  9 25  1  0  0  0  0
 10 26  2  0  0  0  0
 11 27  1  0  0  0  0
 12 27  2  0  0  0  0
 13 28  1  0  0  0  0
 14 15  2  0  0  0  0
 14 29  1  0  0  0  0
 15 30  1  0  0  0  0
 16 24  1  0  0  0  0
 16 28  2  0  0  0  0
 17 25  2  0  0  0  0
 17 26  1  0  0  0  0
 18 30  2  0  0  0  0
 18 31  1  0  0  0  0
 19 32  1  0  0  0  0
 20 32  1  0  0  0  0
 20 33  2  0  0  0  0
 20 38  1  0  0  0  0
 21 23  2  0  0  0  0
 21 44  1  0  0  0  0
 22 24  2  0  0  0  0
 22 45  1  0  0  0  0
 23 54  1  0  0  0  0
 24 46  1  0  0  0  0
 25 66  1  0  0  0  0
 26 70  1  0  0  0  0
 27 85  1  0  0  0  0
 28 86  1  0  0  0  0
 29 31  2  0  0  0  0
 29 85  1  0  0  0  0
 30 87  1  0  0  0  0
 31 88  1  0  0  0  0
 32 68  2  0  0  0  0
 33 69  1  0  0  0  0
 33 73  1  0  0  0  0
 34 35  1  0  0  0  0
 34 39  2  0  0  0  0
 34 47  1  0  0  0  0
 35 70  1  0  0  0  0
 35 79  2  0  0  0  0
 36 37  2  0  0  0  0
 37 66  1  0  0  0  0
 38 74  1  0  0  0  0
 38 80  2  0  0  0  0
 39 57  1  0  0  0  0
 39 86  1  0  0  0  0
 40 55  1  0  0  0  0
 40 75  1  0  0  0  0
 40 81  2  0  0  0  0
 41 64  1  0  0  0  0
 41 71  1  0  0  0  0
 41 82  2  0  0  0  0
 42 65  1  0  0  0  0
 42 76  1  0  0  0  0
 42 83  2  0  0  0  0
 43 72  1  0  0  0  0
 43 77  1  0  0  0  0
 43 84  2  0  0  0  0
 44 48  1  0  0  0  0
 45 55  1  0  0  0  0
 46 71  1  0  0  0  0
 47 70  1  0  0  0  0
 48 50  1  0  0  0  0
 49 51  1  0  0  0  0
 49 52  1  0  0  0  0
 50 54  1  0  0  0  0
 51 56  1  0  0  0  0
 52 72  1  0  0  0  0
 53 56  1  0  0  0  0
 53 72  1  0  0  0  0
 54 75  1  0  0  0  0
 55 71  1  0  0  0  0
 56 69  1  0  0  0  0
 58 65  1  0  0  0  0
 59 66  1  0  0  0  0
 60 67  1  0  0  0  0
 61 67  1  0  0  0  0
 62 67  1  0  0  0  0
 63 78  1  0  0  0  0
 64 67  1  0  0  0  0
 64 76  1  0  0  0  0
 65 78  1  0  0  0  0
 66 77  1  0  0  0  0
 68 69  1  0  0  0  0
M  CHG  1  78   1
M  ISO  4  39 101  43 100  77 100  86 101
M  END
> <Batch ID>
0078

> <Smiles>
C=CC(C)([100NH:0][100C:0](=O)N1CCCC(n2nc(-c3ccc(Oc4ccc(F)cc4F)cc3)c(C(N)=O)c2N)C1)c1cccc(N2CC(=[101C:1](C)[101O:1]c3ccc4c(c3)CN(C(=O)C(NC(=O)C(C)NC)C(C)(C)C)C(C(=O)NC3CCCc5ccccc53)C4)C2=O)c1

> <Shape>
0.163

> <Color>
0.171

> <Negative vol penalty>
0.000

$$$$

  -OEChem-04042323563D

 86 95  0     1  0  0  0  0  0999 V2000
  -23.6926  -29.3196   20.3658 C   0  0  0  0  0  0  0  0  0  0  0  0
  -24.4418  -28.3183   20.9752 C   0  0  0  0  0  0  0  0  0  0  0  0
  -23.1325   -9.8046   20.1104 C   0  0  0  0  0  0  0  0  0  0  0  0
  -23.7833  -10.0722   22.4216 C   0  0  0  0  0  0  0  0  0  0  0  0
  -23.9913  -30.6592   20.6109 C   0  0  0  0  0  0  0  0  0  0  0  0
  -25.4911  -28.6561   21.8292 C   0  0  0  0  0  0  0  0  0  0  0  0
  -27.2698  -25.6339   26.8500 C   0  0  0  0  0  0  0  0  0  0  0  0
  -30.2201  -18.7965   23.5998 C   0  0  0  0  0  0  0  0  0  0  0  0
  -32.4394  -17.9265   23.2064 C   0  0  0  0  0  0  0  0  0  0  0  0
  -29.6864  -17.8099   22.7707 C   0  0  0  0  0  0  0  0  0  0  0  0
  -31.9057  -16.9399   22.3773 C   0  0  0  0  0  0  0  0  0  0  0  0
  -22.3915   -8.6728   20.4500 C   0  0  0  0  0  0  0  0  0  0  0  0
  -23.0422   -8.9404   22.7613 C   0  0  0  0  0  0  0  0  0  0  0  0
  -28.2929  -24.7147   27.0784 C   0  0  0  0  0  0  0  0  0  0  0  0
  -19.7990   -8.1577   23.2993 C   0  0  0  0  0  0  0  0  0  0  0  0
  -18.9883   -8.2316   24.4319 C   0  0  0  0  0  0  0  0  0  0  0  0
  -29.7105  -26.4985   27.8708 C   0  0  0  0  0  0  0  0  0  0  0  0
  -20.2166   -6.4064   25.4303 C   0  0  0  0  0  0  0  0  0  0  0  0
  -23.8285  -10.5043   21.0961 C   0  0  0  0  0  0  0  0  0  0  0  0
  -24.1454  -13.0072   20.7180 C   0  0  0  0  0  0  0  0  0  0  0  0
  -25.0386  -31.0136   21.4759 C   0  0  0  0  0  0  0  0  0  0  0  0
  -27.4635  -26.9962   27.1205 C   0  0  0  0  0  0  0  0  0  0  0  0
  -25.8050  -30.0017   22.0851 C   0  0  0  0  0  0  0  0  0  0  0  0
  -28.6875  -27.4326   27.6474 C   0  0  0  0  0  0  0  0  0  0  0  0
  -31.5967  -18.8548   23.8176 C   0  0  0  0  0  0  0  0  0  0  0  0
  -30.5292  -16.8816   22.1594 C   0  0  0  0  0  0  0  0  0  0  0  0
  -22.3463   -8.2407   21.7755 C   0  0  0  0  0  0  0  0  0  0  0  0
  -29.5144  -25.1473   27.5861 C   0  0  0  0  0  0  0  0  0  0  0  0
  -20.8186   -7.2080   23.2322 C   0  0  0  0  0  0  0  0  0  0  0  0
  -19.1971   -7.3560   25.4974 C   0  0  0  0  0  0  0  0  0  0  0  0
  -21.0273   -6.3324   24.2977 C   0  0  0  0  0  0  0  0  0  0  0  0
  -24.5946  -11.6733   20.7458 C   0  0  0  0  0  0  0  0  0  0  0  0
  -25.2445  -13.7314   20.3256 C   0  0  0  0  0  0  0  0  0  0  0  0
  -32.3691  -21.6360   26.0617 C   0  0  0  0  0  0  0  0  0  0  0  0
  -33.6968  -21.1234   25.8335 C   0  0  0  0  0  0  0  0  0  0  0  0
  -31.3752  -20.8216   25.3082 C   0  0  0  0  0  0  0  0  0  0  0  0
  -34.8562  -21.5720   26.3264 C   0  0  0  0  0  0  0  0  0  0  0  0
  -31.9793  -22.6721   26.8123 C   0  0  0  0  0  0  0  0  0  0  0  0
  -22.8506  -13.5436   21.0201 C   0  0  0  0  0  0  0  0  0  0  0  0
  -27.4470  -29.6538   25.3768 C   0  0  0  0  0  0  0  0  0  0  0  0
  -27.7547  -31.0893   28.2694 C   0  0  0  0  0  0  0  0  0  0  0  0
  -28.7438  -30.8588   31.5276 C   0  0  0  0  0  0  0  0  0  0  0  0
  -30.6835  -14.8824   20.6345 C   0  0  0  0  0  0  0  0  0  0  0  0
  -25.3542  -32.4752   21.6730 C   0  0  0  0  0  0  0  0  0  0  0  0
  -26.3408  -27.9712   26.8938 C   0  0  0  0  0  0  0  0  0  0  0  0
  -28.9390  -28.8813   27.9736 C   0  0  0  0  0  0  0  0  0  0  0  0
  -33.5621  -19.9500   24.9107 C   0  0  0  0  0  0  0  0  0  0  0  0
  -26.2424  -32.7485   22.8841 C   0  0  0  0  0  0  0  0  0  0  0  0
  -29.7108  -12.2083   18.4943 C   0  0  0  0  0  0  0  0  0  0  0  0
  -27.4189  -31.7780   22.9133 C   0  0  0  0  0  0  0  0  0  0  0  0
  -28.2561  -11.9404   18.8870 C   0  0  0  0  0  0  0  0  0  0  0  0
  -30.5655  -12.5811   19.7044 C   0  0  0  0  0  0  0  0  0  0  0  0
  -28.5870  -13.4180   20.9104 C   0  0  0  0  0  0  0  0  0  0  0  0
  -26.9351  -30.3282   23.0372 C   0  0  1  0  0  0  0  0  0  0  0  0
  -26.8232  -29.4083   26.7215 C   0  0  1  0  0  0  0  0  0  0  0  0
  -27.6729  -13.1021   19.7153 C   0  0  2  0  0  0  0  0  0  0  0  0
  -28.9060  -32.2081   33.6371 C   0  0  0  0  0  0  0  0  0  0  0  0
  -30.1906  -32.5450   27.1482 C   0  0  0  0  0  0  0  0  0  0  0  0
  -30.8477  -33.1093   29.4972 C   0  0  0  0  0  0  0  0  0  0  0  0
  -28.6935  -33.9576   28.5686 C   0  0  0  0  0  0  0  0  0  0  0  0
  -26.9272  -29.0262   32.9769 C   0  0  0  0  0  0  0  0  0  0  0  0
  -30.5582  -23.1026   26.9652 C   0  0  0  0  0  0  0  0  0  1  0  0
  -28.9170  -31.5046   29.1386 C   0  0  1  0  0  0  0  0  0  0  0  0
  -28.0517  -31.2510   32.8205 C   0  0  2  0  0  0  0  0  0  0  0  0
  -29.6584  -32.7520   28.5803 C   0  0  0  0  0  0  0  0  0  0  0  0
  -25.8788  -11.5543   20.3985 N   0  0  0  0  0  0  0  0  0  0  0  0
  -26.2460  -12.8227   20.1487 N   0  0  0  0  0  0  0  0  0  0  0  0
  -32.1293  -19.8390   24.6443 N   0  0  0  0  0  0  0  0  0  0  0  0
  -27.8126  -29.7970   27.7286 N   0  0  0  0  0  0  0  0  0  0  0  0
  -29.9535  -13.6910   20.4381 N   0  0  0  0  0  0  0  0  0  0  0  0
  -25.4422  -15.0506   20.1179 N   0  0  0  0  0  0  0  0  0  0  0  0
  -21.8348  -12.6591   21.4077 N   0  0  0  0  0  0  0  0  0  0  0  0
  -29.9873  -15.8793   21.3171 N   0  0  0  0  0  0  0  0  0  0  0  0
  -26.5475  -30.0395   24.4013 N   0  0  0  0  0  0  0  0  0  0  0  0
  -28.3788  -31.6815   30.4830 N   0  0  0  0  0  0  0  0  0  0  0  0
  -27.7775  -30.0426   33.6484 N   0  3  0  0  0  0  0  0  0  0  0  0
  -30.1685  -20.9978   25.2928 O   0  0  0  0  0  0  0  0  0  0  0  0
  -22.5972  -14.7690   20.9325 O   0  0  0  0  0  0  0  0  0  0  0  0
  -28.6552  -29.5059   25.2352 O   0  0  0  0  0  0  0  0  0  0  0  0
  -26.8261  -31.8796   28.0833 O   0  0  0  0  0  0  0  0  0  0  0  0
  -29.5324  -29.9191   31.4527 O   0  0  0  0  0  0  0  0  0  0  0  0
  -31.8313  -15.0187   20.2032 O   0  0  0  0  0  0  0  0  0  0  0  0
  -21.6231   -7.1364   22.1074 O   0  0  0  0  0  0  0  0  0  0  0  0
  -30.5149  -24.2523   27.8094 O   0  0  0  0  0  0  0  0  0  1  0  0
  -18.4194   -7.4282   26.5856 F   0  0  0  0  0  0  0  0  0  0  0  0
  -22.0060   -5.4188   24.2395 F   0  0  0  0  0  0  0  0  0  0  0  0
  1  2  1  0  0  0  0
  1  5  2  0  0  0  0
  2  6  2  0  0  0  0
  3 12  2  0  0  0  0
  3 19  1  0  0  0  0
  4 13  1  0  0  0  0
  4 19  2  0  0  0  0
  5 21  1  0  0  0  0
  6 23  1  0  0  0  0
  7 14  2  0  0  0  0
  7 22  1  0  0  0  0
  8 10  2  0  0  0  0
  8 25  1  0  0  0  0
  9 11  1  0  0  0  0
  9 25  2  0  0  0  0
 10 26  1  0  0  0  0
 11 26  2  0  0  0  0
 12 27  1  0  0  0  0
 13 27  2  0  0  0  0
 14 28  1  0  0  0  0
 15 16  2  0  0  0  0
 15 29  1  0  0  0  0
 16 30  1  0  0  0  0
 17 24  1  0  0  0  0
 17 28  2  0  0  0  0
 18 30  2  0  0  0  0
 18 31  1  0  0  0  0
 19 32  1  0  0  0  0
 20 32  1  0  0  0  0
 20 33  2  0  0  0  0
 20 39  1  0  0  0  0
 21 23  2  0  0  0  0
 21 44  1  0  0  0  0
 22 24  2  0  0  0  0
 22 45  1  0  0  0  0
 23 54  1  0  0  0  0
 24 46  1  0  0  0  0
 25 68  1  0  0  0  0
 26 73  1  0  0  0  0
 27 83  1  0  0  0  0
 28 84  1  0  0  0  0
 29 31  2  0  0  0  0
 29 83  1  0  0  0  0
 30 85  1  0  0  0  0
 31 86  1  0  0  0  0
 32 66  2  0  0  0  0
 33 67  1  0  0  0  0
 33 71  1  0  0  0  0
 34 35  1  0  0  0  0
 34 36  1  0  0  0  0
 34 38  2  0  0  0  0
 35 37  2  0  0  0  0
 35 47  1  0  0  0  0
 36 68  1  0  0  0  0
 36 77  2  0  0  0  0
 38 62  1  0  0  0  0
 39 72  1  0  0  0  0
 39 78  2  0  0  0  0
 40 55  1  0  0  0  0
 40 74  1  0  0  0  0
 40 79  2  0  0  0  0
 41 63  1  0  0  0  0
 41 69  1  0  0  0  0
 41 80  2  0  0  0  0
 42 64  1  0  0  0  0
 42 75  1  0  0  0  0
 42 81  2  0  0  0  0
 43 70  1  0  0  0  0
 43 73  1  0  0  0  0
 43 82  2  0  0  0  0
 44 48  1  0  0  0  0
 45 55  1  0  0  0  0
 46 69  1  0  0  0  0
 47 68  1  0  0  0  0
 48 50  1  0  0  0  0
 49 51  1  0  0  0  0
 49 52  1  0  0  0  0
 50 54  1  0  0  0  0
 51 56  1  0  0  0  0
 52 70  1  0  0  0  0
 53 56  1  0  0  0  0
 53 70  1  0  0  0  0
 54 74  1  0  0  0  0
 55 69  1  0  0  0  0
 56 67  1  0  0  0  0
 57 64  1  0  0  0  0
 58 65  1  0  0  0  0
 59 65  1  0  0  0  0
 60 65  1  0  0  0  0
 61 76  1  0  0  0  0
 62 84  1  0  0  0  0
 63 65  1  0  0  0  0
 63 75  1  0  0  0  0
 64 76  1  0  0  0  0
 66 67  1  0  0  0  0
M  CHG  1  76   1
M  ISO  4  43 100  62 101  73 100  84 101
M  END
> <Batch ID>
0078

> <Smiles>
C=C1CN(c2ccc([100NH:0][100C:0](=O)N3CCCC(n4nc(-c5ccc(Oc6ccc(F)cc6F)cc5)c(C(N)=O)c4N)C3)cc2)C(=O)C1=C[101CH2:1][101O:1]c1ccc2c(c1)CN(C(=O)C(NC(=O)C(C)NC)C(C)(C)C)C(C(=O)NC1CCCc3ccccc31)C2

> <Shape>
0.241

> <Color>
0.201

> <Negative vol penalty>
0.000

$$$$

  -OEChem-04042323563D

 85 93  0     1  0  0  0  0  0999 V2000
  -28.8300  -36.1317   25.2170 C   0  0  0  0  0  0  0  0  0  0  0  0
  -29.0740  -34.8474   24.7410 C   0  0  0  0  0  0  0  0  0  0  0  0
  -23.0393   -9.7592   20.0738 C   0  0  0  0  0  0  0  0  0  0  0  0
  -23.6553  -10.0472   22.3921 C   0  0  0  0  0  0  0  0  0  0  0  0
  -29.5515  -19.3948   21.7519 C   0  0  0  0  0  0  0  0  0  0  0  0
  -31.2882  -18.9923   20.1213 C   0  0  0  0  0  0  0  0  0  0  0  0
  -27.5435  -36.4941   25.6138 C   0  0  0  0  0  0  0  0  0  0  0  0
  -28.0316  -33.9245   24.6624 C   0  0  0  0  0  0  0  0  0  0  0  0
  -27.2745  -29.5789   20.4141 C   0  0  0  0  0  0  0  0  0  0  0  0
  -29.3748  -18.0195   21.9032 C   0  0  0  0  0  0  0  0  0  0  0  0
  -31.1115  -17.6170   20.2726 C   0  0  0  0  0  0  0  0  0  0  0  0
  -22.2735   -8.6447   20.4157 C   0  0  0  0  0  0  0  0  0  0  0  0
  -22.8894   -8.9328   22.7341 C   0  0  0  0  0  0  0  0  0  0  0  0
  -27.5637  -28.2151   20.4054 C   0  0  0  0  0  0  0  0  0  0  0  0
  -23.1915   -5.5678   22.6059 C   0  0  0  0  0  0  0  0  0  0  0  0
  -23.7541   -4.6385   23.4808 C   0  0  0  0  0  0  0  0  0  0  0  0
  -25.2870  -27.7344   21.0418 C   0  0  0  0  0  0  0  0  0  0  0  0
  -21.9511   -5.0182   25.0436 C   0  0  0  0  0  0  0  0  0  0  0  0
  -23.7303  -10.4604   21.0620 C   0  0  0  0  0  0  0  0  0  0  0  0
  -30.5082  -19.8812   20.8609 C   0  0  0  0  0  0  0  0  0  0  0  0
  -24.0963  -12.9522   20.6560 C   0  0  0  0  0  0  0  0  0  0  0  0
  -26.4829  -35.5781   25.5310 C   0  0  0  0  0  0  0  0  0  0  0  0
  -25.9900  -30.0320   20.7478 C   0  0  0  0  0  0  0  0  0  0  0  0
  -26.7300  -34.2746   25.0598 C   0  0  0  0  0  0  0  0  0  0  0  0
  -24.9834  -29.1044   21.0514 C   0  0  0  0  0  0  0  0  0  0  0  0
  -30.1548  -17.1306   21.1636 C   0  0  0  0  0  0  0  0  0  0  0  0
  -22.1984   -8.2315   21.7458 C   0  0  0  0  0  0  0  0  0  0  0  0
  -26.5707  -27.2927   20.7221 C   0  0  0  0  0  0  0  0  0  0  0  0
  -22.0087   -6.2224   22.9499 C   0  0  0  0  0  0  0  0  0  0  0  0
  -23.1339   -4.3637   24.6996 C   0  0  0  0  0  0  0  0  0  0  0  0
  -21.3886   -5.9476   24.1687 C   0  0  0  0  0  0  0  0  0  0  0  0
  -24.5221  -11.6114   20.7093 C   0  0  0  0  0  0  0  0  0  0  0  0
  -25.2141  -13.6524   20.2729 C   0  0  0  0  0  0  0  0  0  0  0  0
  -30.6954  -21.3372   20.7005 C   0  0  0  0  0  0  0  0  0  0  0  0
  -22.8059  -13.5144   20.9285 C   0  0  0  0  0  0  0  0  0  0  0  0
  -24.7842  -31.8573   23.0539 C   0  0  0  0  0  0  0  0  0  0  0  0
  -28.3357  -24.0703   20.4244 C   0  0  0  0  0  0  0  0  0  0  0  0
  -22.0489  -31.5404   21.3393 C   0  0  0  0  0  0  0  0  0  0  0  0
  -20.2336  -29.7268   19.0893 C   0  0  0  0  0  0  0  0  0  0  0  0
  -30.6659  -14.7158   20.6600 C   0  0  0  0  0  0  0  0  0  0  0  0
  -25.1189  -36.0011   26.0161 C   0  0  0  0  0  0  0  0  0  0  0  0
  -25.6871  -31.5052   20.7265 C   0  0  0  0  0  0  0  0  0  0  0  0
  -23.5831  -29.5383   21.3968 C   0  0  0  0  0  0  0  0  0  0  0  0
  -23.9941  -35.0807   25.5493 C   0  0  0  0  0  0  0  0  0  0  0  0
  -29.6842  -12.0295   18.5393 C   0  0  0  0  0  0  0  0  0  0  0  0
  -24.3786  -33.6194   25.7581 C   0  0  0  0  0  0  0  0  0  0  0  0
  -28.2187  -11.7916   18.9104 C   0  0  0  0  0  0  0  0  0  0  0  0
  -30.5245  -12.4043   19.7588 C   0  0  0  0  0  0  0  0  0  0  0  0
  -28.5404  -13.2908   20.9193 C   0  0  0  0  0  0  0  0  0  0  0  0
  -25.6204  -33.2529   24.9364 C   0  0  1  0  0  0  0  0  0  0  0  0
  -24.4810  -31.8796   21.5824 C   0  0  1  0  0  0  0  0  0  0  0  0
  -27.6415  -12.9740   19.7130 C   0  0  2  0  0  0  0  0  0  0  0  0
  -30.1205  -23.8176   18.6755 C   0  0  0  0  0  0  0  0  0  0  0  0
  -18.0179  -29.6989   17.9115 C   0  0  0  0  0  0  0  0  0  0  0  0
  -20.7011  -30.5800   23.9027 C   0  0  0  0  0  0  0  0  0  0  0  0
  -18.8292  -29.6859   22.5010 C   0  0  0  0  0  0  0  0  0  0  0  0
  -19.3164  -32.1324   22.5146 C   0  0  0  0  0  0  0  0  0  0  0  0
  -21.5154  -29.9004   16.4274 C   0  0  0  0  0  0  0  0  0  0  0  0
  -28.1824  -25.5789   20.3739 C   0  0  0  0  0  0  0  0  0  1  0  0
  -29.7127  -23.5229   20.1054 C   0  0  2  0  0  0  0  0  0  0  0  0
  -20.9013  -30.5596   21.3287 C   0  0  1  0  0  0  0  0  0  0  0  0
  -19.4716  -30.1401   17.8431 C   0  0  2  0  0  0  0  0  0  0  0  0
  -19.9638  -30.7310   22.5572 C   0  0  0  0  0  0  0  0  0  0  0  0
  -25.8098  -11.4661   20.3857 N   0  0  0  0  0  0  0  0  0  0  0  0
  -26.2028  -12.7246   20.1254 N   0  0  0  0  0  0  0  0  0  0  0  0
  -23.3380  -30.9897   21.3685 N   0  0  0  0  0  0  0  0  0  0  0  0
  -29.9192  -13.5343   20.4670 N   0  0  0  0  0  0  0  0  0  0  0  0
  -25.4378  -14.9651   20.0511 N   0  0  0  0  0  0  0  0  0  0  0  0
  -21.7687  -12.6525   21.3104 N   0  0  0  0  0  0  0  0  0  0  0  0
  -29.9753  -15.7335   21.3172 N   0  0  0  0  0  0  0  0  0  0  0  0
  -29.6558  -22.0754   20.2838 N   0  0  0  0  0  0  0  0  0  0  0  0
  -25.2667  -33.0545   23.5472 N   0  0  0  0  0  0  0  0  0  0  0  0
  -20.2354  -30.7244   20.0412 N   0  0  0  0  0  0  0  0  0  0  0  0
  -31.8943  -21.8507   20.9763 N   0  3  0  0  0  0  0  0  0  0  0  0
  -20.0909  -29.5318   16.6317 N   0  3  0  0  0  0  0  0  0  0  0  0
  -22.5750  -14.7426   20.8203 O   0  0  0  0  0  0  0  0  0  0  0  0
  -24.5930  -30.8303   23.6947 O   0  0  0  0  0  0  0  0  0  0  0  0
  -27.3886  -23.3372   20.7098 O   0  0  0  0  0  0  0  0  0  0  0  0
  -21.8104  -32.7504   21.3152 O   0  0  0  0  0  0  0  0  0  0  0  0
  -20.7702  -28.6275   19.2080 O   0  0  0  0  0  0  0  0  0  0  0  0
  -31.8230  -14.8269   20.2468 O   0  0  0  0  0  0  0  0  0  0  0  0
  -21.4510   -7.1442   22.0799 O   0  0  0  0  0  0  0  0  0  0  0  0
  -26.8505  -25.9610   20.7150 O   0  0  0  0  0  0  0  0  0  1  0  0
  -23.6735   -3.4701   25.5390 F   0  0  0  0  0  0  0  0  0  0  0  0
  -20.2515   -6.5724   24.5042 F   0  0  0  0  0  0  0  0  0  0  0  0
  1  2  1  0  0  0  0
  1  7  2  0  0  0  0
  2  8  2  0  0  0  0
  3 12  2  0  0  0  0
  3 19  1  0  0  0  0
  4 13  1  0  0  0  0
  4 19  2  0  0  0  0
  5 10  2  0  0  0  0
  5 20  1  0  0  0  0
  6 11  1  0  0  0  0
  6 20  2  0  0  0  0
  7 22  1  0  0  0  0
  8 24  1  0  0  0  0
  9 14  2  0  0  0  0
  9 23  1  0  0  0  0
 10 26  1  0  0  0  0
 11 26  2  0  0  0  0
 12 27  1  0  0  0  0
 13 27  2  0  0  0  0
 14 28  1  0  0  0  0
 15 16  2  0  0  0  0
 15 29  1  0  0  0  0
 16 30  1  0  0  0  0
 17 25  1  0  0  0  0
 17 28  2  0  0  0  0
 18 30  2  0  0  0  0
 18 31  1  0  0  0  0
 19 32  1  0  0  0  0
 20 34  1  0  0  0  0
 21 32  1  0  0  0  0
 21 33  2  0  0  0  0
 21 35  1  0  0  0  0
 22 24  2  0  0  0  0
 22 41  1  0  0  0  0
 23 25  2  0  0  0  0
 23 42  1  0  0  0  0
 24 50  1  0  0  0  0
 25 43  1  0  0  0  0
 26 70  1  0  0  0  0
 27 82  1  0  0  0  0
 28 83  1  0  0  0  0
 29 31  2  0  0  0  0
 29 82  1  0  0  0  0
 30 84  1  0  0  0  0
 31 85  1  0  0  0  0
 32 64  2  0  0  0  0
 33 65  1  0  0  0  0
 33 68  1  0  0  0  0
 34 71  1  0  0  0  0
 34 74  2  0  0  0  0
 35 69  1  0  0  0  0
 35 76  2  0  0  0  0
 36 51  1  0  0  0  0
 36 72  1  0  0  0  0
 36 77  2  0  0  0  0
 37 59  1  0  0  0  0
 37 60  1  0  0  0  0
 37 78  2  0  0  0  0
 38 61  1  0  0  0  0
 38 66  1  0  0  0  0
 38 79  2  0  0  0  0
 39 62  1  0  0  0  0
 39 73  1  0  0  0  0
 39 80  2  0  0  0  0
 40 67  1  0  0  0  0
 40 70  1  0  0  0  0
 40 81  2  0  0  0  0
 41 44  1  0  0  0  0
 42 51  1  0  0  0  0
 43 66  1  0  0  0  0
 44 46  1  0  0  0  0
 45 47  1  0  0  0  0
 45 48  1  0  0  0  0
 46 50  1  0  0  0  0
 47 52  1  0  0  0  0
 48 67  1  0  0  0  0
 49 52  1  0  0  0  0
 49 67  1  0  0  0  0
 50 72  1  0  0  0  0
 51 66  1  0  0  0  0
 52 65  1  0  0  0  0
 53 60  1  0  0  0  0
 54 62  1  0  0  0  0
 55 63  1  0  0  0  0
 56 63  1  0  0  0  0
 57 63  1  0  0  0  0
 58 75  1  0  0  0  0
 59 83  1  0  0  0  0
 60 71  1  0  0  0  0
 61 63  1  0  0  0  0
 61 73  1  0  0  0  0
 62 75  1  0  0  0  0
 64 65  1  0  0  0  0
M  CHG  2  74   1  75   1
M  ISO  4  40 100  59 101  70 100  83 101
M  END
> <Batch ID>
0078

> <Smiles>
CNC(C)C(=O)NC(C(=O)N1Cc2cc([101O:1][101CH2:1]C(=O)C(C)NC(=N)c3ccc([100NH:0][100C:0](=O)N4CCCC(n5nc(-c6ccc(Oc7ccc(F)cc7F)cc6)c(C(N)=O)c5N)C4)cc3)ccc2CC1C(=O)NC1CCCc2ccccc21)C(C)(C)C

> <Shape>
0.376

> <Color>
0.223

> <Negative vol penalty>
0.000

$$$$

  -OEChem-04042323563D

 89 98  0     1  0  0  0  0  0999 V2000
  -16.2045  -29.3080   23.7389 C   0  0  0  0  0  0  0  0  0  0  0  0
  -16.9886  -28.1881   23.4813 C   0  0  0  0  0  0  0  0  0  0  0  0
  -22.8575  -10.3724   19.8948 C   0  0  0  0  0  0  0  0  0  0  0  0
  -23.8613   -9.8032   22.0175 C   0  0  0  0  0  0  0  0  0  0  0  0
  -16.7956  -30.5682   23.8179 C   0  0  0  0  0  0  0  0  0  0  0  0
  -18.3643  -28.3279   23.3015 C   0  0  0  0  0  0  0  0  0  0  0  0
  -22.7190  -24.3652   24.9864 C   0  0  0  0  0  0  0  0  0  0  0  0
  -22.0232   -9.2587   19.9908 C   0  0  0  0  0  0  0  0  0  0  0  0
  -23.0269   -8.6896   22.1135 C   0  0  0  0  0  0  0  0  0  0  0  0
  -23.4225  -23.3892   24.2819 C   0  0  0  0  0  0  0  0  0  0  0  0
  -22.8870   -5.5637   20.8326 C   0  0  0  0  0  0  0  0  0  0  0  0
  -23.4610   -4.3563   21.2301 C   0  0  0  0  0  0  0  0  0  0  0  0
  -28.4970  -17.9474   22.5943 C   0  0  0  0  0  0  0  0  0  0  0  0
  -25.2300  -24.9491   23.9375 C   0  0  0  0  0  0  0  0  0  0  0  0
  -27.3142  -21.8050   20.3994 C   0  0  0  0  0  0  0  0  0  0  0  0
  -29.7077  -18.2875   20.5314 C   0  0  0  0  0  0  0  0  0  0  0  0
  -21.9872   -4.2854   23.1433 C   0  0  0  0  0  0  0  0  0  0  0  0
  -23.7766  -10.6446   20.9082 C   0  0  0  0  0  0  0  0  0  0  0  0
  -29.1053  -16.7014   22.7459 C   0  0  0  0  0  0  0  0  0  0  0  0
  -30.0148  -16.2484   21.7903 C   0  0  0  0  0  0  0  0  0  0  0  0
  -24.3792  -13.0952   21.2812 C   0  0  0  0  0  0  0  0  0  0  0  0
  -18.1806  -30.7224   23.6485 C   0  0  0  0  0  0  0  0  0  0  0  0
  -23.2620  -25.6461   25.1626 C   0  0  0  0  0  0  0  0  0  0  0  0
  -18.9743  -29.5916   23.3769 C   0  0  0  0  0  0  0  0  0  0  0  0
  -24.5325  -25.9388   24.6468 C   0  0  0  0  0  0  0  0  0  0  0  0
  -27.2273  -21.9354   21.8075 C   0  0  0  0  0  0  0  0  0  0  0  0
  -28.7982  -18.7405   21.4870 C   0  0  0  0  0  0  0  0  0  0  0  0
  -22.1078   -8.4173   21.1001 C   0  0  0  0  0  0  0  0  0  0  0  0
  -24.6770  -23.6819   23.7549 C   0  0  0  0  0  0  0  0  0  0  0  0
  -21.8631   -6.1322   21.5905 C   0  0  0  0  0  0  0  0  0  0  0  0
  -23.0111   -3.7171   22.3854 C   0  0  0  0  0  0  0  0  0  0  0  0
  -30.3161  -17.0415   20.6830 C   0  0  0  0  0  0  0  0  0  0  0  0
  -21.4132   -5.4930   22.7458 C   0  0  0  0  0  0  0  0  0  0  0  0
  -24.6391  -11.7946   20.8094 C   0  0  0  0  0  0  0  0  0  0  0  0
  -25.5007  -13.8131   20.9444 C   0  0  0  0  0  0  0  0  0  0  0  0
  -27.9128  -20.5931   20.1347 C   0  0  0  0  0  0  0  0  0  0  0  0
  -27.7756  -20.7991   22.3603 C   0  0  0  0  0  0  0  0  0  0  0  0
  -28.9390  -16.3114   25.1616 C   0  0  0  0  0  0  0  0  0  0  0  0
  -28.7681  -15.8985   23.9151 C   0  0  0  0  0  0  0  0  0  0  0  0
  -30.6695  -14.9513   21.9154 C   0  0  0  0  0  0  0  0  0  0  0  0
  -23.2272  -13.6085   21.9631 C   0  0  0  0  0  0  0  0  0  0  0  0
  -31.0781  -14.1786   20.7198 C   0  0  0  0  0  0  0  0  0  0  0  0
  -22.4078  -28.5830   24.2974 C   0  0  0  0  0  0  0  0  0  0  0  0
  -24.9432  -29.4401   26.1302 C   0  0  0  0  0  0  0  0  0  0  0  0
  -27.9343  -28.5727   27.5257 C   0  0  0  0  0  0  0  0  0  0  0  0
  -18.7677  -32.1108   23.6959 C   0  0  0  0  0  0  0  0  0  0  0  0
  -22.5020  -26.6796   25.9479 C   0  0  0  0  0  0  0  0  0  0  0  0
  -25.1685  -27.2924   24.8257 C   0  0  0  0  0  0  0  0  0  0  0  0
  -20.2847  -32.1252   23.8650 C   0  0  0  0  0  0  0  0  0  0  0  0
  -29.3954  -12.6450   17.9498 C   0  0  0  0  0  0  0  0  0  0  0  0
  -20.9379  -31.1316   22.9096 C   0  0  0  0  0  0  0  0  0  0  0  0
  -27.9985  -12.3588   18.4997 C   0  0  0  0  0  0  0  0  0  0  0  0
  -30.4620  -12.4955   19.0298 C   0  0  0  0  0  0  0  0  0  0  0  0
  -28.8144  -13.0511   20.7977 C   0  0  0  0  0  0  0  0  0  0  0  0
  -20.4735  -29.6995   23.2007 C   0  0  1  0  0  0  0  0  0  0  0  0
  -22.9283  -28.1083   25.6246 C   0  0  1  0  0  0  0  0  0  0  0  0
  -27.7074  -13.2190   19.7423 C   0  0  2  0  0  0  0  0  0  0  0  0
  -29.7900  -29.4967   28.9400 C   0  0  0  0  0  0  0  0  0  0  0  0
  -25.9893  -31.0066   23.7299 C   0  0  0  0  0  0  0  0  0  0  0  0
  -28.2248  -31.1000   24.8533 C   0  0  0  0  0  0  0  0  0  0  0  0
  -26.2451  -32.1719   25.9279 C   0  0  0  0  0  0  0  0  0  0  0  0
  -27.4805  -26.5561   29.6438 C   0  0  0  0  0  0  0  0  0  0  0  0
  -26.6452  -23.0997   22.5537 C   0  0  0  0  0  0  0  0  0  1  0  0
  -26.4178  -29.6499   25.8843 C   0  0  1  0  0  0  0  0  0  0  0  0
  -28.4732  -28.7359   28.9355 C   0  0  2  0  0  0  0  0  0  0  0  0
  -26.7067  -30.9571   25.0936 C   0  0  0  0  0  0  0  0  0  0  0  0
  -25.8320  -11.6895   20.2177 N   0  0  0  0  0  0  0  0  0  0  0  0
  -30.9364  -14.3955   23.0639 N   0  0  0  0  0  0  0  0  0  0  0  0
  -28.1892  -19.9904   21.3341 N   0  0  0  0  0  0  0  0  0  0  0  0
  -26.3316  -12.9332   20.3154 N   0  0  0  0  0  0  0  0  0  0  0  0
  -30.1367  -13.2964   20.2083 N   0  0  0  0  0  0  0  0  0  0  0  0
  -24.3832  -28.2712   25.5956 N   0  0  0  0  0  0  0  0  0  0  0  0
  -25.8472  -15.1049   21.1277 N   0  0  0  0  0  0  0  0  0  0  0  0
  -22.1646  -12.7346   22.2305 N   0  0  0  0  0  0  0  0  0  0  0  0
  -21.1592  -29.1717   24.3607 N   0  0  0  0  0  0  0  0  0  0  0  0
  -27.0626  -29.5874   27.1915 N   0  0  0  0  0  0  0  0  0  0  0  0
  -28.6987  -27.4024   29.5615 N   0  3  0  0  0  0  0  0  0  0  0  0
  -23.1357  -14.8105   22.3101 O   0  0  0  0  0  0  0  0  0  0  0  0
  -32.2092  -14.4019   20.3087 O   0  0  0  0  0  0  0  0  0  0  0  0
  -23.0891  -28.4280   23.2907 O   0  0  0  0  0  0  0  0  0  0  0  0
  -24.3130  -30.2789   26.7790 O   0  0  0  0  0  0  0  0  0  0  0  0
  -28.2575  -27.6405   26.7929 O   0  0  0  0  0  0  0  0  0  0  0  0
  -28.2145  -20.0166   18.9774 O   0  0  0  0  0  0  0  0  0  0  0  0
  -27.9313  -20.4440   23.6307 O   0  0  0  0  0  0  0  0  0  0  0  0
  -21.2937   -7.3306   21.1941 O   0  0  0  0  0  0  0  0  0  0  0  0
  -25.3655  -22.7313   23.0664 O   0  0  0  0  0  0  0  0  0  1  0  0
  -23.5614   -2.5567   22.7661 F   0  0  0  0  0  0  0  0  0  0  0  0
  -31.1882  -16.6182   19.7568 F   0  0  0  0  0  0  0  0  0  0  0  0
  -20.4291   -6.0336   23.4773 F   0  0  0  0  0  0  0  0  0  0  0  0
  1  2  1  0  0  0  0
  1  5  2  0  0  0  0
  2  6  2  0  0  0  0
  3  8  2  0  0  0  0
  3 18  1  0  0  0  0
  4  9  1  0  0  0  0
  4 18  2  0  0  0  0
  5 22  1  0  0  0  0
  6 24  1  0  0  0  0
  7 10  2  0  0  0  0
  7 23  1  0  0  0  0
  8 28  1  0  0  0  0
  9 28  2  0  0  0  0
 10 29  1  0  0  0  0
 11 12  2  0  0  0  0
 11 30  1  0  0  0  0
 12 31  1  0  0  0  0
 13 19  1  0  0  0  0
 13 27  2  0  0  0  0
 14 25  1  0  0  0  0
 14 29  2  0  0  0  0
 15 26  1  0  0  0  0
 15 36  2  0  0  0  0
 16 27  1  0  0  0  0
 16 32  2  0  0  0  0
 17 31  2  0  0  0  0
 17 33  1  0  0  0  0
 18 34  1  0  0  0  0
 19 20  2  0  0  0  0
 19 39  1  0  0  0  0
 20 32  1  0  0  0  0
 20 40  1  0  0  0  0
 21 34  1  0  0  0  0
 21 35  2  0  0  0  0
 21 41  1  0  0  0  0
 22 24  2  0  0  0  0
 22 46  1  0  0  0  0
 23 25  2  0  0  0  0
 23 47  1  0  0  0  0
 24 55  1  0  0  0  0
 25 48  1  0  0  0  0
 26 37  2  0  0  0  0
 26 63  1  0  0  0  0
 27 69  1  0  0  0  0
 28 85  1  0  0  0  0
 29 86  1  0  0  0  0
 30 33  2  0  0  0  0
 30 85  1  0  0  0  0
 31 87  1  0  0  0  0
 32 88  1  0  0  0  0
 33 89  1  0  0  0  0
 34 67  2  0  0  0  0
 35 70  1  0  0  0  0
 35 73  1  0  0  0  0
 36 69  1  0  0  0  0
 36 83  1  0  0  0  0
 37 69  1  0  0  0  0
 37 84  1  0  0  0  0
 38 39  2  0  0  0  0
 40 42  1  0  0  0  0
 40 68  2  0  0  0  0
 41 74  1  0  0  0  0
 41 78  2  0  0  0  0
 42 71  1  0  0  0  0
 42 79  2  0  0  0  0
 43 56  1  0  0  0  0
 43 75  1  0  0  0  0
 43 80  2  0  0  0  0
 44 64  1  0  0  0  0
 44 72  1  0  0  0  0
 44 81  2  0  0  0  0
 45 65  1  0  0  0  0
 45 76  1  0  0  0  0
 45 82  2  0  0  0  0
 46 49  1  0  0  0  0
 47 56  1  0  0  0  0
 48 72  1  0  0  0  0
 49 51  1  0  0  0  0
 50 52  1  0  0  0  0
 50 53  1  0  0  0  0
 51 55  1  0  0  0  0
 52 57  1  0  0  0  0
 53 71  1  0  0  0  0
 54 57  1  0  0  0  0
 54 71  1  0  0  0  0
 55 75  1  0  0  0  0
 56 72  1  0  0  0  0
 57 70  1  0  0  0  0
 58 65  1  0  0  0  0
 59 66  1  0  0  0  0
 60 66  1  0  0  0  0
 61 66  1  0  0  0  0
 62 77  1  0  0  0  0
 63 86  1  0  0  0  0
 64 66  1  0  0  0  0
 64 76  1  0  0  0  0
 65 77  1  0  0  0  0
 67 70  1  0  0  0  0
M  CHG  1  77   1
M  ISO  4  40 100  42 100  63 101  86 101
M  END
> <Batch ID>
0078

> <Smiles>
C=Cc1cc(N2C(=O)CC([101CH2:1][101O:1]c3ccc4c(c3)CN(C(=O)C(NC(=O)C(C)NC)C(C)(C)C)C(C(=O)NC3CCCc5ccccc53)C4)C2=O)cc(F)c1[100C:0](=N)[100C:0](=O)N1CCCC(n2nc(-c3ccc(Oc4ccc(F)cc4F)cc3)c(C(N)=O)c2N)C1

> <Shape>
0.323

> <Color>
0.187

> <Negative vol penalty>
0.000

$$$$

  -OEChem-04042323563D

 87 96  0     1  0  0  0  0  0999 V2000
  -26.4566  -37.3550   23.8596 C   0  0  0  0  0  0  0  0  0  0  0  0
  -27.1276  -36.3046   23.2417 C   0  0  0  0  0  0  0  0  0  0  0  0
  -23.2435   -9.8408   20.3013 C   0  0  0  0  0  0  0  0  0  0  0  0
  -24.8352   -8.3759   21.3773 C   0  0  0  0  0  0  0  0  0  0  0  0
  -25.4020  -37.0899   24.7321 C   0  0  0  0  0  0  0  0  0  0  0  0
  -26.7449  -34.9882   23.4969 C   0  0  0  0  0  0  0  0  0  0  0  0
  -26.8337  -30.2992   19.5585 C   0  0  0  0  0  0  0  0  0  0  0  0
  -30.3378  -18.5774   19.6748 C   0  0  0  0  0  0  0  0  0  0  0  0
  -30.3787  -17.1880   19.7900 C   0  0  0  0  0  0  0  0  0  0  0  0
  -22.2588   -9.4312   21.2002 C   0  0  0  0  0  0  0  0  0  0  0  0
  -23.8505   -7.9664   22.2763 C   0  0  0  0  0  0  0  0  0  0  0  0
  -27.7463  -29.2659   19.3507 C   0  0  0  0  0  0  0  0  0  0  0  0
  -21.2143   -5.8495   22.2898 C   0  0  0  0  0  0  0  0  0  0  0  0
  -21.1039   -4.4840   22.5524 C   0  0  0  0  0  0  0  0  0  0  0  0
  -26.4227  -27.8218   20.7585 C   0  0  0  0  0  0  0  0  0  0  0  0
  -27.9350  -18.4872   19.4390 C   0  0  0  0  0  0  0  0  0  0  0  0
  -21.5513   -4.8975   24.8904 C   0  0  0  0  0  0  0  0  0  0  0  0
  -24.5317   -9.3131   20.3897 C   0  0  0  0  0  0  0  0  0  0  0  0
  -25.5273   -9.6063   18.0594 C   0  0  0  0  0  0  0  0  0  0  0  0
  -24.9999  -35.7700   24.9906 C   0  0  0  0  0  0  0  0  0  0  0  0
  -25.7125  -30.1045   20.3780 C   0  0  0  0  0  0  0  0  0  0  0  0
  -25.6848  -34.7051   24.3747 C   0  0  0  0  0  0  0  0  0  0  0  0
  -25.4959  -28.8535   20.9730 C   0  0  0  0  0  0  0  0  0  0  0  0
  -29.1159  -19.2271   19.4994 C   0  0  0  0  0  0  0  0  0  0  0  0
  -29.1977  -16.4481   19.7297 C   0  0  0  0  0  0  0  0  0  0  0  0
  -22.5623   -8.4941   22.1878 C   0  0  0  0  0  0  0  0  0  0  0  0
  -27.5424  -28.0279   19.9530 C   0  0  0  0  0  0  0  0  0  0  0  0
  -21.4932   -6.7389   23.3275 C   0  0  0  0  0  0  0  0  0  0  0  0
  -21.2724   -4.0080   23.8527 C   0  0  0  0  0  0  0  0  0  0  0  0
  -27.9759  -17.0977   19.5542 C   0  0  0  0  0  0  0  0  0  0  0  0
  -21.6616   -6.2629   24.6278 C   0  0  0  0  0  0  0  0  0  0  0  0
  -25.5492   -9.7354   19.4610 C   0  0  0  0  0  0  0  0  0  0  0  0
  -26.7157  -10.1562   17.6453 C   0  0  0  0  0  0  0  0  0  0  0  0
  -29.7259  -22.6568   18.1828 C   0  0  0  0  0  0  0  0  0  0  0  0
  -28.9305  -23.5131   19.0626 C   0  0  0  0  0  0  0  0  0  0  0  0
  -29.9870  -22.9346   16.8940 C   0  0  0  0  0  0  0  0  0  0  0  0
  -28.7387  -24.8303   18.8828 C   0  0  0  0  0  0  0  0  0  0  0  0
  -24.5223   -9.0399   17.2078 C   0  0  0  0  0  0  0  0  0  0  0  0
  -24.6609  -31.3974   23.0847 C   0  0  0  0  0  0  0  0  0  0  0  0
  -22.0593  -29.5501   22.5003 C   0  0  0  0  0  0  0  0  0  0  0  0
  -21.4192  -26.1983   21.3286 C   0  0  0  0  0  0  0  0  0  0  0  0
  -30.3729  -14.2393   20.0242 C   0  0  0  0  0  0  0  0  0  0  0  0
  -23.8850  -35.5309   25.9778 C   0  0  0  0  0  0  0  0  0  0  0  0
  -24.7233  -31.2211   20.5705 C   0  0  0  0  0  0  0  0  0  0  0  0
  -24.2974  -28.5871   21.8453 C   0  0  0  0  0  0  0  0  0  0  0  0
  -28.3239  -22.8075   20.2504 C   0  0  0  0  0  0  0  0  0  0  0  0
  -30.2019  -21.3590   18.8045 C   0  0  0  0  0  0  0  0  0  0  0  0
  -23.2983  -34.1235   25.9049 C   0  0  0  0  0  0  0  0  0  0  0  0
  -31.2119  -10.9002   19.1168 C   0  0  0  0  0  0  0  0  0  0  0  0
  -24.4123  -33.0826   25.8560 C   0  0  0  0  0  0  0  0  0  0  0  0
  -29.8528  -10.2124   18.9686 C   0  0  0  0  0  0  0  0  0  0  0  0
  -27.9321  -21.3637   19.9247 C   0  0  0  0  0  0  0  0  0  0  0  0
  -31.2133  -11.9128   20.2606 C   0  0  0  0  0  0  0  0  0  0  0  0
  -28.7775  -12.2221   20.0602 C   0  0  0  0  0  0  0  0  0  0  0  0
  -25.2830  -33.2646   24.6069 C   0  0  1  0  0  0  0  0  0  0  0  0
  -23.8889  -31.0681   21.8384 C   0  0  1  0  0  0  0  0  0  0  0  0
  -28.7078  -11.2402   18.8792 C   0  0  2  0  0  0  0  0  0  0  0  0
  -19.4324  -25.2398   20.1322 C   0  0  0  0  0  0  0  0  0  0  0  0
  -21.1105  -28.7821   25.2967 C   0  0  0  0  0  0  0  0  0  0  0  0
  -20.2469  -26.6363   24.3386 C   0  0  0  0  0  0  0  0  0  0  0  0
  -19.3137  -28.8138   23.5575 C   0  0  0  0  0  0  0  0  0  0  0  0
  -23.0962  -25.1924   19.1072 C   0  0  0  0  0  0  0  0  0  0  0  0
  -27.9223  -25.6856   19.7941 C   0  0  0  0  0  0  0  0  0  1  0  0
  -21.6471  -28.1415   22.8538 C   0  0  1  0  0  0  0  0  0  0  0  0
  -20.8379  -25.8013   19.9836 C   0  0  2  0  0  0  0  0  0  0  0  0
  -20.6069  -28.1006   24.0087 C   0  0  0  0  0  0  0  0  0  0  0  0
  -26.6634  -10.3212   19.9075 N   0  0  0  0  0  0  0  0  0  0  0  0
  -27.3527  -10.5651   18.7799 N   0  0  0  0  0  0  0  0  0  0  0  0
  -29.0750  -20.6170   19.3847 N   0  0  3  0  0  0  0  0  0  0  0  0
  -23.3622  -29.7124   22.0082 N   0  0  0  0  0  0  0  0  0  0  0  0
  -30.1041  -12.8567   20.1072 N   0  0  0  0  0  0  0  0  0  0  0  0
  -27.2677  -10.3251   16.4249 N   0  0  0  0  0  0  0  0  0  0  0  0
  -23.3626   -8.5191   17.7979 N   0  0  0  0  0  0  0  0  0  0  0  0
  -29.2427  -15.0367   19.8466 N   0  0  0  0  0  0  0  0  0  0  0  0
  -24.6118  -32.7317   23.4409 N   0  0  0  0  0  0  0  0  0  0  0  0
  -21.1869  -27.5274   21.6131 N   0  0  0  0  0  0  0  0  0  0  0  0
  -21.6916  -24.7658   19.3357 N   0  3  0  0  0  0  0  0  0  0  0  0
  -24.6563   -8.9822   15.9620 O   0  0  0  0  0  0  0  0  0  0  0  0
  -25.2559  -30.5067   23.6799 O   0  0  0  0  0  0  0  0  0  0  0  0
  -21.2526  -30.4715   22.6484 O   0  0  0  0  0  0  0  0  0  0  0  0
  -22.0161  -25.4075   22.0559 O   0  0  0  0  0  0  0  0  0  0  0  0
  -31.5235  -14.6811   20.0774 O   0  0  0  0  0  0  0  0  0  0  0  0
  -21.6017   -8.0944   23.0653 O   0  0  0  0  0  0  0  0  0  0  0  0
  -28.4320  -27.0178   19.7524 O   0  0  0  0  0  0  0  0  0  1  0  0
  -21.1649   -2.6969   24.1049 F   0  0  0  0  0  0  0  0  0  0  0  0
  -26.8348  -16.3964   19.4944 F   0  0  0  0  0  0  0  0  0  0  0  0
  -21.9286   -7.1128   25.6290 F   0  0  0  0  0  0  0  0  0  0  0  0
  1  2  1  0  0  0  0
  1  5  2  0  0  0  0
  2  6  2  0  0  0  0
  3 10  2  0  0  0  0
  3 18  1  0  0  0  0
  4 11  1  0  0  0  0
  4 18  2  0  0  0  0
  5 20  1  0  0  0  0
  6 22  1  0  0  0  0
  7 12  2  0  0  0  0
  7 21  1  0  0  0  0
  8  9  2  0  0  0  0
  8 24  1  0  0  0  0
  9 25  1  0  0  0  0
 10 26  1  0  0  0  0
 11 26  2  0  0  0  0
 12 27  1  0  0  0  0
 13 14  2  0  0  0  0
 13 28  1  0  0  0  0
 14 29  1  0  0  0  0
 15 23  1  0  0  0  0
 15 27  2  0  0  0  0
 16 24  2  0  0  0  0
 16 30  1  0  0  0  0
 17 29  2  0  0  0  0
 17 31  1  0  0  0  0
 18 32  1  0  0  0  0
 19 32  1  0  0  0  0
 19 33  2  0  0  0  0
 19 38  1  0  0  0  0
 20 22  2  0  0  0  0
 20 43  1  0  0  0  0
 21 23  2  0  0  0  0
 21 44  1  0  0  0  0
 22 55  1  0  0  0  0
 23 45  1  0  0  0  0
 24 69  1  0  0  0  0
 25 30  2  0  0  0  0
 25 74  1  0  0  0  0
 26 83  1  0  0  0  0
 27 84  1  0  0  0  0
 28 31  2  0  0  0  0
 28 83  1  0  0  0  0
 29 85  1  0  0  0  0
 30 86  1  0  0  0  0
 31 87  1  0  0  0  0
 32 67  2  0  0  0  0
 33 68  1  0  0  0  0
 33 72  1  0  0  0  0
 34 35  1  0  0  0  0
 34 36  2  0  0  0  0
 34 47  1  0  0  0  0
 35 37  2  0  0  0  0
 35 46  1  0  0  0  0
 37 63  1  0  0  0  0
 38 73  1  0  0  0  0
 38 78  2  0  0  0  0
 39 56  1  0  0  0  0
 39 75  1  0  0  0  0
 39 79  2  0  0  0  0
 40 64  1  0  0  0  0
 40 70  1  0  0  0  0
 40 80  2  0  0  0  0
 41 65  1  0  0  0  0
 41 76  1  0  0  0  0
 41 81  2  0  0  0  0
 42 71  1  0  0  0  0
 42 74  1  0  0  0  0
 42 82  2  0  0  0  0
 43 48  1  0  0  0  0
 44 56  1  0  0  0  0
 45 70  1  0  0  0  0
 46 52  1  0  0  0  0
 47 69  1  0  0  0  0
 48 50  1  0  0  0  0
 49 51  1  0  0  0  0
 49 53  1  0  0  0  0
 50 55  1  0  0  0  0
 51 57  1  0  0  0  0
 52 69  1  0  0  0  0
 53 71  1  0  0  0  0
 54 57  1  0  0  0  0
 54 71  1  0  0  0  0
 55 75  1  0  0  0  0
 56 70  1  0  0  0  0
 57 68  1  0  0  0  0
 58 65  1  0  0  0  0
 59 66  1  0  0  0  0
 60 66  1  0  0  0  0
 61 66  1  0  0  0  0
 62 77  1  0  0  0  0
 63 84  1  0  0  0  0
 64 66  1  0  0  0  0
 64 76  1  0  0  0  0
 65 77  1  0  0  0  0
 67 68  1  0  0  0  0
M  CHG  1  77   1
M  ISO  4  42 100  63 101  74 100  84 101
M  END
> <Batch ID>
0078

> <Smiles>
C=C1CN(c2ccc([100NH:0][100C:0](=O)N3CCCC(n4nc(-c5ccc(Oc6ccc(F)cc6F)cc5)c(C(N)=O)c4N)C3)c(F)c2)CCC1=C[101CH2:1][101O:1]c1ccc2c(c1)CN(C(=O)C(NC(=O)C(C)NC)C(C)(C)C)C(C(=O)NC1CCCc3ccccc31)C2

> <Shape>
0.372

> <Color>
0.100

> <Negative vol penalty>
0.000

$$$$

  -OEChem-04042323563D

 85 94  0     1  0  0  0  0  0999 V2000
  -18.2935  -28.0048   23.3660 C   0  0  0  0  0  0  0  0  0  0  0  0
  -19.6426  -28.2025   23.6419 C   0  0  0  0  0  0  0  0  0  0  0  0
  -24.5112  -14.0361   19.9575 C   0  0  0  0  0  0  0  0  0  0  0  0
  -26.2284  -14.2025   21.6488 C   0  0  0  0  0  0  0  0  0  0  0  0
  -17.9115  -27.1191   22.3593 C   0  0  0  0  0  0  0  0  0  0  0  0
  -20.6106  -27.5135   22.9120 C   0  0  0  0  0  0  0  0  0  0  0  0
  -26.1428  -29.5687   21.2758 C   0  0  0  0  0  0  0  0  0  0  0  0
  -28.5162  -24.6529   23.7648 C   0  0  0  0  0  0  0  0  0  0  0  0
  -30.2288  -25.2014   22.1515 C   0  0  0  0  0  0  0  0  0  0  0  0
  -27.9982  -23.6978   22.8902 C   0  0  0  0  0  0  0  0  0  0  0  0
  -29.7108  -24.2463   21.2768 C   0  0  0  0  0  0  0  0  0  0  0  0
  -24.5679  -12.6447   20.0368 C   0  0  0  0  0  0  0  0  0  0  0  0
  -26.2851  -12.8110   21.7281 C   0  0  0  0  0  0  0  0  0  0  0  0
  -27.4119  -29.3824   21.8222 C   0  0  0  0  0  0  0  0  0  0  0  0
  -24.0044   -9.0534   20.0533 C   0  0  0  0  0  0  0  0  0  0  0  0
  -22.7969   -8.3567   20.0989 C   0  0  0  0  0  0  0  0  0  0  0  0
  -27.8156  -27.5906   20.2584 C   0  0  0  0  0  0  0  0  0  0  0  0
  -22.2030   -9.5192   22.1319 C   0  0  0  0  0  0  0  0  0  0  0  0
  -25.3415  -14.8150   20.7635 C   0  0  0  0  0  0  0  0  0  0  0  0
  -24.4616  -17.1143   21.4320 C   0  0  0  0  0  0  0  0  0  0  0  0
  -18.8755  -26.4262   21.6102 C   0  0  0  0  0  0  0  0  0  0  0  0
  -25.6957  -28.7586   20.2221 C   0  0  0  0  0  0  0  0  0  0  0  0
  -20.2411  -26.6166   21.8952 C   0  0  0  0  0  0  0  0  0  0  0  0
  -26.5414  -27.7702   19.6987 C   0  0  0  0  0  0  0  0  0  0  0  0
  -29.6315  -25.4048   23.3955 C   0  0  0  0  0  0  0  0  0  0  0  0
  -28.5955  -23.4944   21.6463 C   0  0  0  0  0  0  0  0  0  0  0  0
  -25.4548  -12.0321   20.9221 C   0  0  0  0  0  0  0  0  0  0  0  0
  -28.2474  -28.3914   21.3154 C   0  0  0  0  0  0  0  0  0  0  0  0
  -24.3113   -9.9830   21.0470 C   0  0  0  0  0  0  0  0  0  0  0  0
  -21.8962   -8.5896   21.1382 C   0  0  0  0  0  0  0  0  0  0  0  0
  -23.4106  -10.2159   22.0863 C   0  0  0  0  0  0  0  0  0  0  0  0
  -25.2838  -16.2524   20.6816 C   0  0  0  0  0  0  0  0  0  0  0  0
  -24.7828  -18.3721   20.9833 C   0  0  0  0  0  0  0  0  0  0  0  0
  -31.2989  -28.1892   25.0795 C   0  0  0  0  0  0  0  0  0  0  0  0
  -30.8090  -27.3770   26.2168 C   0  0  0  0  0  0  0  0  0  0  0  0
  -32.1434  -29.2124   25.2230 C   0  0  0  0  0  0  0  0  0  0  0  0
  -23.4941  -16.8056   22.4441 C   0  0  0  0  0  0  0  0  0  0  0  0
  -23.3076  -26.6968   19.8353 C   0  0  0  0  0  0  0  0  0  0  0  0
  -24.3530  -26.6606   16.7648 C   0  0  0  0  0  0  0  0  0  0  0  0
  -26.9204  -27.1585   14.5723 C   0  0  0  0  0  0  0  0  0  0  0  0
  -28.5420  -22.1975   19.4872 C   0  0  0  0  0  0  0  0  0  0  0  0
  -18.4131  -25.4435   20.5637 C   0  0  0  0  0  0  0  0  0  0  0  0
  -24.3342  -28.9899   19.6261 C   0  0  0  0  0  0  0  0  0  0  0  0
  -26.1165  -26.8875   18.5547 C   0  0  0  0  0  0  0  0  0  0  0  0
  -30.0342  -26.1992   25.7020 C   0  0  0  0  0  0  0  0  0  0  0  0
  -19.5106  -25.0350   19.5845 C   0  0  0  0  0  0  0  0  0  0  0  0
  -27.5470  -19.8448   17.0069 C   0  0  0  0  0  0  0  0  0  0  0  0
  -20.7943  -24.6926   20.3340 C   0  0  0  0  0  0  0  0  0  0  0  0
  -26.8019  -18.7714   17.8035 C   0  0  0  0  0  0  0  0  0  0  0  0
  -28.7402  -20.4006   17.7823 C   0  0  0  0  0  0  0  0  0  0  0  0
  -27.6858  -19.8128   19.9298 C   0  0  0  0  0  0  0  0  0  0  0  0
  -21.3214  -25.9065   21.1086 C   0  0  1  0  0  0  0  0  0  0  0  0
  -30.7188  -27.6208   23.8150 C   0  0  2  0  0  0  0  0  0  0  0  0
  -23.7860  -27.7676   18.8961 C   0  0  1  0  0  0  0  0  0  0  0  0
  -26.4374  -19.2692   19.2160 C   0  0  2  0  0  0  0  0  0  0  0  0
  -27.4827  -27.0113   12.1311 C   0  0  0  0  0  0  0  0  0  0  0  0
  -24.5182  -23.6220   16.9886 C   0  0  0  0  0  0  0  0  0  0  0  0
  -25.9466  -23.6180   14.9324 C   0  0  0  0  0  0  0  0  0  0  0  0
  -23.6012  -24.4599   14.8180 C   0  0  0  0  0  0  0  0  0  0  0  0
  -27.5338  -30.0499   14.4204 C   0  0  0  0  0  0  0  0  0  0  0  0
  -29.6537  -28.5226   23.2288 C   0  0  0  0  0  0  0  0  0  1  0  0
  -25.3607  -25.8481   15.9880 C   0  0  1  0  0  0  0  0  0  0  0  0
  -26.9885  -27.9092   13.2546 C   0  0  2  0  0  0  0  0  0  0  0  0
  -24.8642  -24.4022   15.7046 C   0  0  0  0  0  0  0  0  0  0  0  0
  -26.0682  -16.9073   19.8215 N   0  0  0  0  0  0  0  0  0  0  0  0
  -25.7403  -18.1940   20.0285 N   0  0  0  0  0  0  0  0  0  0  0  0
  -30.1353  -26.3368   24.2468 N   0  0  3  0  0  0  0  0  0  0  0  0
  -24.7738  -27.1483   18.0101 N   0  0  0  0  0  0  0  0  0  0  0  0
  -28.3184  -20.8568   19.1085 N   0  0  0  0  0  0  0  0  0  0  0  0
  -24.3367  -19.6019   21.3163 N   0  0  0  0  0  0  0  0  0  0  0  0
  -23.2885  -15.4615   22.7840 N   0  0  0  0  0  0  0  0  0  0  0  0
  -28.0692  -22.5241   20.7578 N   0  0  0  0  0  0  0  0  0  0  0  0
  -21.9848  -26.8289   20.2122 N   0  0  0  0  0  0  0  0  0  0  0  0
  -25.6699  -26.6195   14.7890 N   0  0  0  0  0  0  0  0  0  0  0  0
  -27.9134  -29.0722   13.3682 N   0  3  0  0  0  0  0  0  0  0  0  0
  -31.0074  -27.6244   27.3953 O   0  0  0  0  0  0  0  0  0  0  0  0
  -22.8198  -17.6940   23.0180 O   0  0  0  0  0  0  0  0  0  0  0  0
  -24.0810  -25.8151   20.1906 O   0  0  0  0  0  0  0  0  0  0  0  0
  -23.2361  -26.8613   16.2812 O   0  0  0  0  0  0  0  0  0  0  0  0
  -27.8816  -27.0571   15.3316 O   0  0  0  0  0  0  0  0  0  0  0  0
  -29.0865  -23.0039   18.7289 O   0  0  0  0  0  0  0  0  0  0  0  0
  -25.5102  -10.6744   20.9999 O   0  0  0  0  0  0  0  0  0  0  0  0
  -29.4864  -28.2071   21.8472 O   0  0  0  0  0  0  0  0  0  1  0  0
  -20.7360   -7.9216   21.1810 F   0  0  0  0  0  0  0  0  0  0  0  0
  -23.6993  -11.1085   23.0432 F   0  0  0  0  0  0  0  0  0  0  0  0
  1  2  1  0  0  0  0
  1  5  2  0  0  0  0
  2  6  2  0  0  0  0
  3 12  2  0  0  0  0
  3 19  1  0  0  0  0
  4 13  1  0  0  0  0
  4 19  2  0  0  0  0
  5 21  1  0  0  0  0
  6 23  1  0  0  0  0
  7 14  2  0  0  0  0
  7 22  1  0  0  0  0
  8 10  2  0  0  0  0
  8 25  1  0  0  0  0
  9 11  1  0  0  0  0
  9 25  2  0  0  0  0
 10 26  1  0  0  0  0
 11 26  2  0  0  0  0
 12 27  1  0  0  0  0
 13 27  2  0  0  0  0
 14 28  1  0  0  0  0
 15 16  2  0  0  0  0
 15 29  1  0  0  0  0
 16 30  1  0  0  0  0
 17 24  1  0  0  0  0
 17 28  2  0  0  0  0
 18 30  2  0  0  0  0
 18 31  1  0  0  0  0
 19 32  1  0  0  0  0
 20 32  1  0  0  0  0
 20 33  2  0  0  0  0
 20 37  1  0  0  0  0
 21 23  2  0  0  0  0
 21 42  1  0  0  0  0
 22 24  2  0  0  0  0
 22 43  1  0  0  0  0
 23 52  1  0  0  0  0
 24 44  1  0  0  0  0
 25 67  1  0  0  0  0
 26 72  1  0  0  0  0
 27 82  1  0  0  0  0
 28 83  1  0  0  0  0
 29 31  2  0  0  0  0
 29 82  1  0  0  0  0
 30 84  1  0  0  0  0
 31 85  1  0  0  0  0
 32 65  2  0  0  0  0
 33 66  1  0  0  0  0
 33 70  1  0  0  0  0
 34 35  1  0  0  0  0
 34 36  2  0  0  0  0
 34 53  1  0  0  0  0
 35 45  1  0  0  0  0
 35 76  2  0  0  0  0
 37 71  1  0  0  0  0
 37 77  2  0  0  0  0
 38 54  1  0  0  0  0
 38 73  1  0  0  0  0
 38 78  2  0  0  0  0
 39 62  1  0  0  0  0
 39 68  1  0  0  0  0
 39 79  2  0  0  0  0
 40 63  1  0  0  0  0
 40 74  1  0  0  0  0
 40 80  2  0  0  0  0
 41 69  1  0  0  0  0
 41 72  1  0  0  0  0
 41 81  2  0  0  0  0
 42 46  1  0  0  0  0
 43 54  1  0  0  0  0
 44 68  1  0  0  0  0
 45 67  1  0  0  0  0
 46 48  1  0  0  0  0
 47 49  1  0  0  0  0
 47 50  1  0  0  0  0
 48 52  1  0  0  0  0
 49 55  1  0  0  0  0
 50 69  1  0  0  0  0
 51 55  1  0  0  0  0
 51 69  1  0  0  0  0
 52 73  1  0  0  0  0
 53 61  1  0  0  0  0
 53 67  1  0  0  0  0
 54 68  1  0  0  0  0
 55 66  1  0  0  0  0
 56 63  1  0  0  0  0
 57 64  1  0  0  0  0
 58 64  1  0  0  0  0
 59 64  1  0  0  0  0
 60 75  1  0  0  0  0
 61 83  1  0  0  0  0
 62 64  1  0  0  0  0
 62 74  1  0  0  0  0
 63 75  1  0  0  0  0
 65 66  1  0  0  0  0
M  CHG  1  75   1
M  ISO  4  41 100  61 101  72 100  83 101
M  END
> <Batch ID>
0078

> <Smiles>
C=C1C(=O)CN(c2ccc([100NH:0][100C:0](=O)N3CCCC(n4nc(-c5ccc(Oc6ccc(F)cc6F)cc5)c(C(N)=O)c4N)C3)cc2)C1[101CH2:1][101O:1]c1ccc2c(c1)CN(C(=O)C(NC(=O)C(C)NC)C(C)(C)C)C(C(=O)NC1CCCc3ccccc31)C2

> <Shape>
0.203

> <Color>
0.078

> <Negative vol penalty>
0.000

$$$$

  -OEChem-04042323563D

 85 93  0     1  0  0  0  0  0999 V2000
  -20.5633  -24.9326   24.8528 C   0  0  0  0  0  0  0  0  0  0  0  0
  -21.6206  -24.9721   23.9495 C   0  0  0  0  0  0  0  0  0  0  0  0
  -23.9812   -9.7475   22.3012 C   0  0  0  0  0  0  0  0  0  0  0  0
  -24.3486  -11.4513   23.9743 C   0  0  0  0  0  0  0  0  0  0  0  0
  -19.5281  -25.8612   24.7535 C   0  0  0  0  0  0  0  0  0  0  0  0
  -21.6427  -25.9396   22.9456 C   0  0  0  0  0  0  0  0  0  0  0  0
  -26.1913  -28.1065   22.4355 C   0  0  0  0  0  0  0  0  0  0  0  0
  -30.6372  -20.2046   19.3844 C   0  0  0  0  0  0  0  0  0  0  0  0
  -30.4391  -18.8253   19.3220 C   0  0  0  0  0  0  0  0  0  0  0  0
  -23.5259   -8.8750   23.2897 C   0  0  0  0  0  0  0  0  0  0  0  0
  -23.8932  -10.5788   24.9628 C   0  0  0  0  0  0  0  0  0  0  0  0
  -27.1675  -27.3841   21.7508 C   0  0  0  0  0  0  0  0  0  0  0  0
  -20.6892   -8.3812   25.0623 C   0  0  0  0  0  0  0  0  0  0  0  0
  -19.5290   -7.6530   24.7998 C   0  0  0  0  0  0  0  0  0  0  0  0
  -26.7339  -28.6887   19.7685 C   0  0  0  0  0  0  0  0  0  0  0  0
  -28.2457  -20.5481   19.3839 C   0  0  0  0  0  0  0  0  0  0  0  0
  -20.7632   -5.5925   25.0607 C   0  0  0  0  0  0  0  0  0  0  0  0
  -24.3926  -11.0357   22.6436 C   0  0  0  0  0  0  0  0  0  0  0  0
  -24.0946  -12.8439   20.8689 C   0  0  0  0  0  0  0  0  0  0  0  0
  -19.5423  -26.8466   23.7538 C   0  0  0  0  0  0  0  0  0  0  0  0
  -25.4702  -29.1198   21.7877 C   0  0  0  0  0  0  0  0  0  0  0  0
  -20.6060  -26.8814   22.8320 C   0  0  0  0  0  0  0  0  0  0  0  0
  -25.7508  -29.4242   20.4480 C   0  0  0  0  0  0  0  0  0  0  0  0
  -29.5405  -21.0660   19.4154 C   0  0  0  0  0  0  0  0  0  0  0  0
  -29.1444  -18.3074   19.2905 C   0  0  0  0  0  0  0  0  0  0  0  0
  -23.4819   -9.2906   24.6204 C   0  0  0  0  0  0  0  0  0  0  0  0
  -27.4369  -27.6732   20.4162 C   0  0  0  0  0  0  0  0  0  0  0  0
  -21.8866   -7.7151   25.3240 C   0  0  0  0  0  0  0  0  0  0  0  0
  -19.5659   -6.2586   24.7990 C   0  0  0  0  0  0  0  0  0  0  0  0
  -28.0476  -19.1687   19.3215 C   0  0  0  0  0  0  0  0  0  0  0  0
  -21.9235   -6.3208   25.3232 C   0  0  0  0  0  0  0  0  0  0  0  0
  -24.8635  -11.9373   21.6230 C   0  0  0  0  0  0  0  0  0  0  0  0
  -25.0027  -13.4602   20.0431 C   0  0  0  0  0  0  0  0  0  0  0  0
  -28.2261  -25.6173   19.6279 C   0  0  0  0  0  0  0  0  0  1  0  0
  -22.6856  -13.1055   20.9112 C   0  0  0  0  0  0  0  0  0  0  0  0
  -29.0979  -24.8272   18.9906 C   0  0  0  0  0  0  0  0  0  0  0  0
  -28.7986  -23.3646   18.8987 C   0  0  0  0  0  0  0  0  0  0  0  0
  -22.4062  -29.5973   21.0895 C   0  0  0  0  0  0  0  0  0  0  0  0
  -23.4878  -32.4862   20.0862 C   0  0  0  0  0  0  0  0  0  0  0  0
  -26.0990  -34.3673   18.9507 C   0  0  0  0  0  0  0  0  0  0  0  0
  -29.9269  -15.9150   19.1887 C   0  0  0  0  0  0  0  0  0  0  0  0
  -18.3772  -27.7994   23.6571 C   0  0  0  0  0  0  0  0  0  0  0  0
  -24.4390  -29.9078   22.5480 C   0  0  0  0  0  0  0  0  0  0  0  0
  -25.0190  -30.5161   19.7128 C   0  0  0  0  0  0  0  0  0  0  0  0
  -18.6637  -29.0264   22.7954 C   0  0  0  0  0  0  0  0  0  0  0  0
  -29.8455  -12.3575   19.0667 C   0  0  0  0  0  0  0  0  0  0  0  0
  -19.3303  -28.6156   21.4863 C   0  0  0  0  0  0  0  0  0  0  0  0
  -28.4789  -12.0056   19.6589 C   0  0  0  0  0  0  0  0  0  0  0  0
  -30.4741  -13.5610   19.7669 C   0  0  0  0  0  0  0  0  0  0  0  0
  -28.2549  -14.4028   20.4271 C   0  0  0  0  0  0  0  0  0  0  0  0
  -20.6781  -27.9313   21.7445 C   0  0  1  0  0  0  0  0  0  0  0  0
  -23.4071  -30.5723   21.6418 C   0  0  1  0  0  0  0  0  0  0  0  0
  -27.5534  -13.2370   19.7113 C   0  0  2  0  0  0  0  0  0  0  0  0
  -26.6673  -36.6867   18.1794 C   0  0  0  0  0  0  0  0  0  0  0  0
  -22.1221  -31.9299   17.4150 C   0  0  0  0  0  0  0  0  0  0  0  0
  -23.4887  -33.7722   16.4119 C   0  0  0  0  0  0  0  0  0  0  0  0
  -21.8736  -34.2759   18.2451 C   0  0  0  0  0  0  0  0  0  0  0  0
  -30.9424  -23.0326   20.1510 C   0  0  0  0  0  0  0  0  0  0  0  0
  -28.0639  -34.7367   21.1329 C   0  0  0  0  0  0  0  0  0  0  0  0
  -24.0115  -33.0377   18.7822 C   0  0  1  0  0  0  0  0  0  0  0  0
  -26.6098  -35.7356   19.3647 C   0  0  2  0  0  0  0  0  0  0  0  0
  -22.8866  -33.2320   17.7265 C   0  0  0  0  0  0  0  0  0  0  0  0
  -26.1602  -11.9713   21.3044 N   0  0  0  0  0  0  0  0  0  0  0  0
  -26.2131  -12.9066   20.3409 N   0  0  0  0  0  0  0  0  0  0  0  0
  -24.0154  -31.2540   20.4975 N   0  0  0  0  0  0  0  0  0  0  0  0
  -29.5419  -14.6905   19.7745 N   0  0  0  0  0  0  0  0  0  0  0  0
  -24.8759  -14.4162   19.0984 N   0  0  0  0  0  0  0  0  0  0  0  0
  -21.8988  -12.3831   21.8186 N   0  0  0  0  0  0  0  0  0  0  0  0
  -28.9464  -16.9058   19.2266 N   0  0  0  0  0  0  0  0  0  0  0  0
  -21.6928  -28.9149   22.0564 N   0  0  0  0  0  0  0  0  0  0  0  0
  -24.7345  -34.2598   19.1168 N   0  0  0  0  0  0  0  0  0  0  0  0
  -29.7463  -22.5009   19.4797 N   0  0  0  0  0  0  0  0  0  0  0  0
  -27.9781  -35.6241   19.9446 N   0  3  0  0  0  0  0  0  0  0  0  0
  -22.1379  -13.9431   20.1549 O   0  0  0  0  0  0  0  0  0  0  0  0
  -27.7714  -23.0102   18.3183 O   0  0  0  0  0  0  0  0  0  0  0  0
  -22.2887  -29.4743   19.8759 O   0  0  0  0  0  0  0  0  0  0  0  0
  -22.6469  -33.1286   20.7203 O   0  0  0  0  0  0  0  0  0  0  0  0
  -26.8363  -33.4836   18.5194 O   0  0  0  0  0  0  0  0  0  0  0  0
  -31.0343  -16.0644   18.6658 O   0  0  0  0  0  0  0  0  0  0  0  0
  -30.2308  -25.3040   18.3667 O   0  0  0  0  0  0  0  0  0  0  0  0
  -23.0375   -8.4396   25.5852 O   0  0  0  0  0  0  0  0  0  0  0  0
  -28.3888  -26.9691   19.7453 O   0  0  0  0  0  0  0  0  0  1  0  0
  -18.4513   -5.5594   24.5484 F   0  0  0  0  0  0  0  0  0  0  0  0
  -26.7986  -18.6822   19.2901 F   0  0  0  0  0  0  0  0  0  0  0  0
  -23.0706   -5.6753   25.5750 F   0  0  0  0  0  0  0  0  0  0  0  0
  1  2  1  0  0  0  0
  1  5  2  0  0  0  0
  2  6  2  0  0  0  0
  3 10  2  0  0  0  0
  3 18  1  0  0  0  0
  4 11  1  0  0  0  0
  4 18  2  0  0  0  0
  5 20  1  0  0  0  0
  6 22  1  0  0  0  0
  7 12  2  0  0  0  0
  7 21  1  0  0  0  0
  8  9  2  0  0  0  0
  8 24  1  0  0  0  0
  9 25  1  0  0  0  0
 10 26  1  0  0  0  0
 11 26  2  0  0  0  0
 12 27  1  0  0  0  0
 13 14  2  0  0  0  0
 13 28  1  0  0  0  0
 14 29  1  0  0  0  0
 15 23  1  0  0  0  0
 15 27  2  0  0  0  0
 16 24  2  0  0  0  0
 16 30  1  0  0  0  0
 17 29  2  0  0  0  0
 17 31  1  0  0  0  0
 18 32  1  0  0  0  0
 19 32  1  0  0  0  0
 19 33  2  0  0  0  0
 19 35  1  0  0  0  0
 20 22  2  0  0  0  0
 20 42  1  0  0  0  0
 21 23  2  0  0  0  0
 21 43  1  0  0  0  0
 22 51  1  0  0  0  0
 23 44  1  0  0  0  0
 24 72  1  0  0  0  0
 25 30  2  0  0  0  0
 25 69  1  0  0  0  0
 26 81  1  0  0  0  0
 27 82  1  0  0  0  0
 28 31  2  0  0  0  0
 28 81  1  0  0  0  0
 29 83  1  0  0  0  0
 30 84  1  0  0  0  0
 31 85  1  0  0  0  0
 32 63  2  0  0  0  0
 33 64  1  0  0  0  0
 33 67  1  0  0  0  0
 34 36  2  0  0  0  0
 34 82  1  0  0  0  0
 35 68  1  0  0  0  0
 35 74  2  0  0  0  0
 36 37  1  0  0  0  0
 36 80  1  0  0  0  0
 37 72  1  0  0  0  0
 37 75  2  0  0  0  0
 38 52  1  0  0  0  0
 38 70  1  0  0  0  0
 38 76  2  0  0  0  0
 39 60  1  0  0  0  0
 39 65  1  0  0  0  0
 39 77  2  0  0  0  0
 40 61  1  0  0  0  0
 40 71  1  0  0  0  0
 40 78  2  0  0  0  0
 41 66  1  0  0  0  0
 41 69  1  0  0  0  0
 41 79  2  0  0  0  0
 42 45  1  0  0  0  0
 43 52  1  0  0  0  0
 44 65  1  0  0  0  0
 45 47  1  0  0  0  0
 46 48  1  0  0  0  0
 46 49  1  0  0  0  0
 47 51  1  0  0  0  0
 48 53  1  0  0  0  0
 49 66  1  0  0  0  0
 50 53  1  0  0  0  0
 50 66  1  0  0  0  0
 51 70  1  0  0  0  0
 52 65  1  0  0  0  0
 53 64  1  0  0  0  0
 54 61  1  0  0  0  0
 55 62  1  0  0  0  0
 56 62  1  0  0  0  0
 57 62  1  0  0  0  0
 58 72  1  0  0  0  0
 59 73  1  0  0  0  0
 60 62  1  0  0  0  0
 60 71  1  0  0  0  0
 61 73  1  0  0  0  0
 63 64  1  0  0  0  0
M  CHG  1  73   1
M  ISO  4  34 101  41 100  69 100  82 101
M  END
> <Batch ID>
0078

> <Smiles>
CNC(C)C(=O)NC(C(=O)N1Cc2cc([101O:1][101CH2:1]C(=O)C(=O)N(C)c3ccc([100NH:0][100C:0](=O)N4CCCC(n5nc(-c6ccc(Oc7ccc(F)cc7F)cc6)c(C(N)=O)c5N)C4)c(F)c3)ccc2CC1C(=O)NC1CCCc2ccccc21)C(C)(C)C

> <Shape>
0.291

> <Color>
0.157

> <Negative vol penalty>
0.000

$$$$

  -OEChem-04042323563D

 84 92  0     1  0  0  0  0  0999 V2000
  -20.0584  -32.8823   15.3069 C   0  0  0  0  0  0  0  0  0  0  0  0
  -21.0164  -31.8826   15.4416 C   0  0  0  0  0  0  0  0  0  0  0  0
  -23.9697   -9.6134   21.8848 C   0  0  0  0  0  0  0  0  0  0  0  0
  -24.6592  -11.0072   23.7338 C   0  0  0  0  0  0  0  0  0  0  0  0
  -31.0472  -19.9826   19.7504 C   0  0  0  0  0  0  0  0  0  0  0  0
  -20.1773  -34.0632   16.0386 C   0  0  0  0  0  0  0  0  0  0  0  0
  -22.0945  -32.0636   16.3072 C   0  0  0  0  0  0  0  0  0  0  0  0
  -24.8819  -27.7664   19.6644 C   0  0  0  0  0  0  0  0  0  0  0  0
  -30.7381  -18.6444   19.5075 C   0  0  0  0  0  0  0  0  0  0  0  0
  -23.5633   -8.6251   22.7813 C   0  0  0  0  0  0  0  0  0  0  0  0
  -24.2527  -10.0190   24.6303 C   0  0  0  0  0  0  0  0  0  0  0  0
  -26.0519  -27.0343   19.4670 C   0  0  0  0  0  0  0  0  0  0  0  0
  -20.9181   -8.0301   24.8016 C   0  0  0  0  0  0  0  0  0  0  0  0
  -19.6816   -7.4234   24.5808 C   0  0  0  0  0  0  0  0  0  0  0  0
  -27.2654  -28.6204   20.8200 C   0  0  0  0  0  0  0  0  0  0  0  0
  -28.3957  -19.1219   19.8572 C   0  0  0  0  0  0  0  0  0  0  0  0
  -20.7715   -5.2770   24.3751 C   0  0  0  0  0  0  0  0  0  0  0  0
  -24.5177  -10.8044   22.3610 C   0  0  0  0  0  0  0  0  0  0  0  0
  -30.0306  -20.8906   20.0467 C   0  0  0  0  0  0  0  0  0  0  0  0
  -24.1620  -12.8841   20.9271 C   0  0  0  0  0  0  0  0  0  0  0  0
  -21.2522  -34.2548   16.9209 C   0  0  0  0  0  0  0  0  0  0  0  0
  -24.8971  -28.9389   20.4334 C   0  0  0  0  0  0  0  0  0  0  0  0
  -22.2285  -33.2486   17.0504 C   0  0  0  0  0  0  0  0  0  0  0  0
  -26.0938  -29.3642   21.0278 C   0  0  0  0  0  0  0  0  0  0  0  0
  -29.4124  -18.2140   19.5608 C   0  0  0  0  0  0  0  0  0  0  0  0
  -23.7047   -8.8279   24.1540 C   0  0  0  0  0  0  0  0  0  0  0  0
  -27.2445  -27.4629   20.0424 C   0  0  0  0  0  0  0  0  0  0  0  0
  -22.0813   -7.2602   24.8091 C   0  0  0  0  0  0  0  0  0  0  0  0
  -19.6083   -6.0469   24.3676 C   0  0  0  0  0  0  0  0  0  0  0  0
  -28.7049  -20.4602   20.1001 C   0  0  0  0  0  0  0  0  0  0  0  0
  -22.0080   -5.8837   24.5959 C   0  0  0  0  0  0  0  0  0  0  0  0
  -24.9383  -11.8255   21.4354 C   0  0  0  0  0  0  0  0  0  0  0  0
  -25.0153  -13.5670   20.0952 C   0  0  0  0  0  0  0  0  0  0  0  0
  -30.3648  -22.3140   20.3074 C   0  0  0  0  0  0  0  0  0  0  0  0
  -22.7920  -13.2202   21.1840 C   0  0  0  0  0  0  0  0  0  0  0  0
  -24.2758  -32.0037   19.8632 C   0  0  0  0  0  0  0  0  0  0  0  0
  -24.6968  -32.2825   23.0674 C   0  0  0  0  0  0  0  0  0  0  0  0
  -29.4887  -24.6169   20.1511 C   0  0  0  0  0  0  0  0  0  0  0  0
  -26.0814  -31.0363   25.9269 C   0  0  0  0  0  0  0  0  0  0  0  0
  -29.9872  -15.8247   19.0064 C   0  0  0  0  0  0  0  0  0  0  0  0
  -21.3636  -35.5675   17.6550 C   0  0  0  0  0  0  0  0  0  0  0  0
  -23.6211  -29.7027   20.6589 C   0  0  0  0  0  0  0  0  0  0  0  0
  -26.1593  -30.6051   21.8788 C   0  0  0  0  0  0  0  0  0  0  0  0
  -22.3349  -35.5266   18.8320 C   0  0  0  0  0  0  0  0  0  0  0  0
  -29.6125  -12.3422   18.3668 C   0  0  0  0  0  0  0  0  0  0  0  0
  -23.6401  -34.8508   18.4238 C   0  0  0  0  0  0  0  0  0  0  0  0
  -28.2992  -11.9844   19.0663 C   0  0  0  0  0  0  0  0  0  0  0  0
  -30.4099  -13.3804   19.1542 C   0  0  0  0  0  0  0  0  0  0  0  0
  -28.3542  -14.2399   20.2051 C   0  0  0  0  0  0  0  0  0  0  0  0
  -23.3991  -33.3975   17.9979 C   0  0  1  0  0  0  0  0  0  0  0  0
  -23.8570  -31.1622   21.0354 C   0  0  1  0  0  0  0  0  0  0  0  0
  -27.4857  -13.2457   19.4171 C   0  0  2  0  0  0  0  0  0  0  0  0
  -26.2816  -31.5031   28.3844 C   0  0  0  0  0  0  0  0  0  0  0  0
  -26.7371  -34.4745   22.4824 C   0  0  0  0  0  0  0  0  0  0  0  0
  -27.5698  -34.2296   24.8308 C   0  0  0  0  0  0  0  0  0  0  0  0
  -25.2188  -34.9505   24.4118 C   0  0  0  0  0  0  0  0  0  0  0  0
  -24.7442  -28.4933   26.6369 C   0  0  0  0  0  0  0  0  0  0  0  0
  -28.2524  -25.3424   19.6632 C   0  0  0  0  0  0  0  0  0  1  0  0
  -25.8759  -32.5492   23.9716 C   0  0  1  0  0  0  0  0  0  0  0  0
  -25.4930  -30.7813   27.3028 C   0  0  2  0  0  0  0  0  0  0  0  0
  -26.3499  -34.0286   23.9066 C   0  0  0  0  0  0  0  0  0  0  0  0
  -26.1886  -11.8311   20.9656 N   0  0  0  0  0  0  0  0  0  0  0  0
  -26.2044  -12.9016   20.1533 N   0  0  0  0  0  0  0  0  0  0  0  0
  -24.8864  -31.3211   22.0646 N   0  0  0  0  0  0  0  0  0  0  0  0
  -29.5765  -14.5487   19.4467 N   0  0  0  0  0  0  0  0  0  0  0  0
  -24.8569  -14.6657   19.3270 N   0  0  0  0  0  0  0  0  0  0  0  0
  -22.0598  -12.4126   22.0649 N   0  0  0  0  0  0  0  0  0  0  0  0
  -29.0986  -16.8544   19.3141 N   0  0  0  0  0  0  0  0  0  0  0  0
  -29.3818  -23.2385   19.9587 N   0  0  0  0  0  0  0  0  0  0  0  0
  -23.2210  -32.5532   19.1597 N   0  0  0  0  0  0  0  0  0  0  0  0
  -25.4771  -32.1075   25.3036 N   0  0  0  0  0  0  0  0  0  0  0  0
  -25.5030  -29.3226   27.6082 N   0  3  0  0  0  0  0  0  0  0  0  0
  -31.4438  -22.5897   20.8250 O   0  0  0  0  0  0  0  0  0  0  0  0
  -22.2291  -14.1979   20.6356 O   0  0  0  0  0  0  0  0  0  0  0  0
  -25.4677  -32.1451   19.6161 O   0  0  0  0  0  0  0  0  0  0  0  0
  -23.6439  -32.8991   23.2489 O   0  0  0  0  0  0  0  0  0  0  0  0
  -30.4489  -25.1997   20.6470 O   0  0  0  0  0  0  0  0  0  0  0  0
  -26.9891  -30.3559   25.4540 O   0  0  0  0  0  0  0  0  0  0  0  0
  -31.0358  -15.9877   18.3772 O   0  0  0  0  0  0  0  0  0  0  0  0
  -23.3080   -7.8639   25.0291 O   0  0  0  0  0  0  0  0  0  0  0  0
  -28.3880  -26.7505   19.8508 O   0  0  0  0  0  0  0  0  0  1  0  0
  -18.4207   -5.4642   24.1572 F   0  0  0  0  0  0  0  0  0  0  0  0
  -27.7196  -21.3239   20.3844 F   0  0  0  0  0  0  0  0  0  0  0  0
  -23.1219   -5.1388   24.6031 F   0  0  0  0  0  0  0  0  0  0  0  0
  1  2  1  0  0  0  0
  1  6  2  0  0  0  0
  2  7  2  0  0  0  0
  3 10  2  0  0  0  0
  3 18  1  0  0  0  0
  4 11  1  0  0  0  0
  4 18  2  0  0  0  0
  5  9  2  0  0  0  0
  5 19  1  0  0  0  0
  6 21  1  0  0  0  0
  7 23  1  0  0  0  0
  8 12  2  0  0  0  0
  8 22  1  0  0  0  0
  9 25  1  0  0  0  0
 10 26  1  0  0  0  0
 11 26  2  0  0  0  0
 12 27  1  0  0  0  0
 13 14  2  0  0  0  0
 13 28  1  0  0  0  0
 14 29  1  0  0  0  0
 15 24  1  0  0  0  0
 15 27  2  0  0  0  0
 16 25  2  0  0  0  0
 16 30  1  0  0  0  0
 17 29  2  0  0  0  0
 17 31  1  0  0  0  0
 18 32  1  0  0  0  0
 19 30  2  0  0  0  0
 19 34  1  0  0  0  0
 20 32  1  0  0  0  0
 20 33  2  0  0  0  0
 20 35  1  0  0  0  0
 21 23  2  0  0  0  0
 21 41  1  0  0  0  0
 22 24  2  0  0  0  0
 22 42  1  0  0  0  0
 23 50  1  0  0  0  0
 24 43  1  0  0  0  0
 25 68  1  0  0  0  0
 26 80  1  0  0  0  0
 27 81  1  0  0  0  0
 28 31  2  0  0  0  0
 28 80  1  0  0  0  0
 29 82  1  0  0  0  0
 30 83  1  0  0  0  0
 31 84  1  0  0  0  0
 32 62  2  0  0  0  0
 33 63  1  0  0  0  0
 33 66  1  0  0  0  0
 34 69  1  0  0  0  0
 34 73  2  0  0  0  0
 35 67  1  0  0  0  0
 35 74  2  0  0  0  0
 36 51  1  0  0  0  0
 36 70  1  0  0  0  0
 36 75  2  0  0  0  0
 37 59  1  0  0  0  0
 37 64  1  0  0  0  0
 37 76  2  0  0  0  0
 38 58  1  0  0  0  0
 38 69  1  0  0  0  0
 38 77  2  0  0  0  0
 39 60  1  0  0  0  0
 39 71  1  0  0  0  0
 39 78  2  0  0  0  0
 40 65  1  0  0  0  0
 40 68  1  0  0  0  0
 40 79  2  0  0  0  0
 41 44  1  0  0  0  0
 42 51  1  0  0  0  0
 43 64  1  0  0  0  0
 44 46  1  0  0  0  0
 45 47  1  0  0  0  0
 45 48  1  0  0  0  0
 46 50  1  0  0  0  0
 47 52  1  0  0  0  0
 48 65  1  0  0  0  0
 49 52  1  0  0  0  0
 49 65  1  0  0  0  0
 50 70  1  0  0  0  0
 51 64  1  0  0  0  0
 52 63  1  0  0  0  0
 53 60  1  0  0  0  0
 54 61  1  0  0  0  0
 55 61  1  0  0  0  0
 56 61  1  0  0  0  0
 57 72  1  0  0  0  0
 58 81  1  0  0  0  0
 59 61  1  0  0  0  0
 59 71  1  0  0  0  0
 60 72  1  0  0  0  0
 62 63  1  0  0  0  0
M  CHG  1  72   1
M  ISO  4  40 100  58 101  68 100  81 101
M  END
> <Batch ID>
0078

> <Smiles>
CNC(C)C(=O)NC(C(=O)N1Cc2cc([101O:1][101CH2:1]C(=O)NC(=O)c3ccc([100NH:0][100C:0](=O)N4CCCC(n5nc(-c6ccc(Oc7ccc(F)cc7F)cc6)c(C(N)=O)c5N)C4)cc3F)ccc2CC1C(=O)NC1CCCc2ccccc21)C(C)(C)C

> <Shape>
0.338

> <Color>
0.165

> <Negative vol penalty>
0.000

$$$$

  -OEChem-04042323563D

 89 98  0     1  0  0  0  0  0999 V2000
  -27.3315  -37.4331   23.6285 C   0  0  0  0  0  0  0  0  0  0  0  0
  -27.8947  -36.3343   22.9876 C   0  0  0  0  0  0  0  0  0  0  0  0
  -24.5610   -8.9414   21.7253 C   0  0  0  0  0  0  0  0  0  0  0  0
  -22.7706  -10.5552   21.5603 C   0  0  0  0  0  0  0  0  0  0  0  0
  -26.3297  -37.2458   24.5799 C   0  0  0  0  0  0  0  0  0  0  0  0
  -27.4572  -35.0473   23.2987 C   0  0  0  0  0  0  0  0  0  0  0  0
  -26.9916  -30.2910   19.4690 C   0  0  0  0  0  0  0  0  0  0  0  0
  -23.7661   -8.1436   22.5482 C   0  0  0  0  0  0  0  0  0  0  0  0
  -21.9756   -9.7574   22.3833 C   0  0  0  0  0  0  0  0  0  0  0  0
  -27.8263  -29.2025   19.2194 C   0  0  0  0  0  0  0  0  0  0  0  0
  -21.2184   -5.9506   22.1834 C   0  0  0  0  0  0  0  0  0  0  0  0
  -21.1844   -4.5810   21.9216 C   0  0  0  0  0  0  0  0  0  0  0  0
  -26.5284  -27.8639   20.7501 C   0  0  0  0  0  0  0  0  0  0  0  0
  -24.3998  -18.5719   20.4197 C   0  0  0  0  0  0  0  0  0  0  0  0
  -26.6522  -19.3719   20.0684 C   0  0  0  0  0  0  0  0  0  0  0  0
  -22.0434   -4.1364   24.1355 C   0  0  0  0  0  0  0  0  0  0  0  0
  -24.0632  -10.1472   21.2314 C   0  0  0  0  0  0  0  0  0  0  0  0
  -24.7716  -20.6868   19.3125 C   0  0  0  0  0  0  0  0  0  0  0  0
  -24.9704  -10.9245   18.9774 C   0  0  0  0  0  0  0  0  0  0  0  0
  -25.8729  -35.9566   24.8958 C   0  0  0  0  0  0  0  0  0  0  0  0
  -25.9238  -30.1770   20.3708 C   0  0  0  0  0  0  0  0  0  0  0  0
  -26.4493  -34.8425   24.2563 C   0  0  0  0  0  0  0  0  0  0  0  0
  -25.6801  -28.9517   21.0074 C   0  0  0  0  0  0  0  0  0  0  0  0
  -23.8968  -19.7152   19.7987 C   0  0  0  0  0  0  0  0  0  0  0  0
  -26.1493  -20.5152   19.4473 C   0  0  0  0  0  0  0  0  0  0  0  0
  -25.7775  -18.4003   20.5546 C   0  0  0  0  0  0  0  0  0  0  0  0
  -22.4734   -8.5516   22.8772 C   0  0  0  0  0  0  0  0  0  0  0  0
  -27.5966  -27.9896   19.8621 C   0  0  0  0  0  0  0  0  0  0  0  0
  -21.6650   -6.4132   23.4213 C   0  0  0  0  0  0  0  0  0  0  0  0
  -21.5969   -3.6739   22.8976 C   0  0  0  0  0  0  0  0  0  0  0  0
  -22.0775   -5.5061   24.3974 C   0  0  0  0  0  0  0  0  0  0  0  0
  -24.8841  -10.9721   20.3817 C   0  0  0  0  0  0  0  0  0  0  0  0
  -25.8801  -11.9021   18.6560 C   0  0  0  0  0  0  0  0  0  0  0  0
  -28.2076  -23.4205   18.6163 C   0  0  0  0  0  0  0  0  0  0  0  0
  -28.7979  -22.4382   17.7421 C   0  0  0  0  0  0  0  0  0  0  0  0
  -27.0989  -22.8032   19.3964 C   0  0  0  0  0  0  0  0  0  0  0  0
  -29.8128  -22.5925   16.8850 C   0  0  0  0  0  0  0  0  0  0  0  0
  -24.4867  -22.1984   17.4023 C   0  0  0  0  0  0  0  0  0  0  0  0
  -24.2385  -21.8815   18.6618 C   0  0  0  0  0  0  0  0  0  0  0  0
  -28.5275  -24.7088   18.7802 C   0  0  0  0  0  0  0  0  0  0  0  0
  -24.2891  -10.0729   18.0466 C   0  0  0  0  0  0  0  0  0  0  0  0
  -25.1474  -31.5777   23.1165 C   0  0  0  0  0  0  0  0  0  0  0  0
  -22.4091  -29.8755   22.7611 C   0  0  0  0  0  0  0  0  0  0  0  0
  -20.8342  -27.1729   21.3963 C   0  0  0  0  0  0  0  0  0  0  0  0
  -27.6271  -16.9140   21.4008 C   0  0  0  0  0  0  0  0  0  0  0  0
  -24.8210  -35.8009   25.9654 C   0  0  0  0  0  0  0  0  0  0  0  0
  -25.0165  -31.3528   20.6089 C   0  0  0  0  0  0  0  0  0  0  0  0
  -24.5350  -28.7716   21.9690 C   0  0  0  0  0  0  0  0  0  0  0  0
  -28.0554  -21.1543   17.9590 C   0  0  0  0  0  0  0  0  0  0  0  0
  -24.1513  -34.4291   25.9659 C   0  0  0  0  0  0  0  0  0  0  0  0
  -29.6994  -14.1896   20.4208 C   0  0  0  0  0  0  0  0  0  0  0  0
  -25.1976  -33.3242   25.8605 C   0  0  0  0  0  0  0  0  0  0  0  0
  -28.7071  -13.0527   20.1659 C   0  0  0  0  0  0  0  0  0  0  0  0
  -29.2718  -15.0619   21.5998 C   0  0  0  0  0  0  0  0  0  0  0  0
  -26.9095  -14.4478   21.2657 C   0  0  0  0  0  0  0  0  0  0  0  0
  -25.9841  -33.4325   24.5486 C   0  0  1  0  0  0  0  0  0  0  0  0
  -24.2692  -31.2717   21.9364 C   0  0  1  0  0  0  0  0  0  0  0  0
  -27.2639  -13.5805   20.0467 C   0  0  2  0  0  0  0  0  0  0  0  0
  -22.4138  -19.8614   19.6742 C   0  0  0  0  0  0  0  0  0  0  0  0
  -18.6039  -26.0254   21.3164 C   0  0  0  0  0  0  0  0  0  0  0  0
  -22.8806  -28.7691   25.5653 C   0  0  0  0  0  0  0  0  0  0  0  0
  -21.2124  -26.9715   25.0610 C   0  0  0  0  0  0  0  0  0  0  0  0
  -20.5035  -29.3632   25.0643 C   0  0  0  0  0  0  0  0  0  0  0  0
  -20.6216  -27.5374   18.4670 C   0  0  0  0  0  0  0  0  0  0  0  0
  -27.8297  -25.6266   19.7284 C   0  0  0  0  0  0  0  0  0  1  0  0
  -21.9441  -28.5000   23.1744 C   0  0  1  0  0  0  0  0  0  0  0  0
  -19.5173  -27.0440   20.6524 C   0  0  2  0  0  0  0  0  0  0  0  0
  -21.6580  -28.4046   24.6997 C   0  0  0  0  0  0  0  0  0  0  0  0
  -25.6759  -11.9058   20.9156 N   0  0  0  0  0  0  0  0  0  0  0  0
  -26.2685  -12.4541   19.8412 N   0  0  0  0  0  0  0  0  0  0  0  0
  -27.0485  -21.4644   18.9720 N   0  0  0  0  0  0  0  0  0  0  0  0
  -23.6798  -29.9524   22.1735 N   0  0  0  0  0  0  0  0  0  0  0  0
  -27.8961  -15.5290   21.4157 N   0  0  0  0  0  0  0  0  0  0  0  0
  -26.3777  -12.3349   17.4781 N   0  0  0  0  0  0  0  0  0  0  0  0
  -23.3879   -9.1230   18.5462 N   0  0  0  0  0  0  0  0  0  0  0  0
  -26.2882  -17.2391   21.1859 N   0  0  0  0  0  0  0  0  0  0  0  0
  -25.2004  -32.9188   23.4456 N   0  0  0  0  0  0  0  0  0  0  0  0
  -20.7961  -28.1865   22.3304 N   0  0  0  0  0  0  0  0  0  0  0  0
  -19.7569  -26.6139   19.2458 N   0  3  0  0  0  0  0  0  0  0  0  0
  -26.4017  -23.3691   20.2217 O   0  0  0  0  0  0  0  0  0  0  0  0
  -24.4864  -10.1409   16.8097 O   0  0  0  0  0  0  0  0  0  0  0  0
  -25.7324  -30.6646   23.6872 O   0  0  0  0  0  0  0  0  0  0  0  0
  -21.6691  -30.8450   22.9461 O   0  0  0  0  0  0  0  0  0  0  0  0
  -21.7990  -26.4446   21.1739 O   0  0  0  0  0  0  0  0  0  0  0  0
  -28.5232  -17.7506   21.5393 O   0  0  0  0  0  0  0  0  0  0  0  0
  -21.6974   -7.7732   23.6800 O   0  0  0  0  0  0  0  0  0  0  0  0
  -28.4101  -26.9258   19.6208 O   0  0  0  0  0  0  0  0  0  1  0  0
  -21.5628   -2.3586   22.6466 F   0  0  0  0  0  0  0  0  0  0  0  0
  -22.5063   -5.9444   25.5889 F   0  0  0  0  0  0  0  0  0  0  0  0
  1  2  1  0  0  0  0
  1  5  2  0  0  0  0
  2  6  2  0  0  0  0
  3  8  2  0  0  0  0
  3 17  1  0  0  0  0
  4  9  1  0  0  0  0
  4 17  2  0  0  0  0
  5 20  1  0  0  0  0
  6 22  1  0  0  0  0
  7 10  2  0  0  0  0
  7 21  1  0  0  0  0
  8 27  1  0  0  0  0
  9 27  2  0  0  0  0
 10 28  1  0  0  0  0
 11 12  2  0  0  0  0
 11 29  1  0  0  0  0
 12 30  1  0  0  0  0
 13 23  1  0  0  0  0
 13 28  2  0  0  0  0
 14 24  2  0  0  0  0
 14 26  1  0  0  0  0
 15 25  1  0  0  0  0
 15 26  2  0  0  0  0
 16 30  2  0  0  0  0
 16 31  1  0  0  0  0
 17 32  1  0  0  0  0
 18 24  1  0  0  0  0
 18 25  2  0  0  0  0
 18 39  1  0  0  0  0
 19 32  1  0  0  0  0
 19 33  2  0  0  0  0
 19 41  1  0  0  0  0
 20 22  2  0  0  0  0
 20 46  1  0  0  0  0
 21 23  2  0  0  0  0
 21 47  1  0  0  0  0
 22 56  1  0  0  0  0
 23 48  1  0  0  0  0
 24 59  1  0  0  0  0
 25 71  1  0  0  0  0
 26 76  1  0  0  0  0
 27 86  1  0  0  0  0
 28 87  1  0  0  0  0
 29 31  2  0  0  0  0
 29 86  1  0  0  0  0
 30 88  1  0  0  0  0
 31 89  1  0  0  0  0
 32 69  2  0  0  0  0
 33 70  1  0  0  0  0
 33 74  1  0  0  0  0
 34 35  1  0  0  0  0
 34 36  1  0  0  0  0
 34 40  2  0  0  0  0
 35 37  2  0  0  0  0
 35 49  1  0  0  0  0
 36 71  1  0  0  0  0
 36 80  2  0  0  0  0
 38 39  2  0  0  0  0
 40 65  1  0  0  0  0
 41 75  1  0  0  0  0
 41 81  2  0  0  0  0
 42 57  1  0  0  0  0
 42 77  1  0  0  0  0
 42 82  2  0  0  0  0
 43 66  1  0  0  0  0
 43 72  1  0  0  0  0
 43 83  2  0  0  0  0
 44 67  1  0  0  0  0
 44 78  1  0  0  0  0
 44 84  2  0  0  0  0
 45 73  1  0  0  0  0
 45 76  1  0  0  0  0
 45 85  2  0  0  0  0
 46 50  1  0  0  0  0
 47 57  1  0  0  0  0
 48 72  1  0  0  0  0
 49 71  1  0  0  0  0
 50 52  1  0  0  0  0
 51 53  1  0  0  0  0
 51 54  1  0  0  0  0
 52 56  1  0  0  0  0
 53 58  1  0  0  0  0
 54 73  1  0  0  0  0
 55 58  1  0  0  0  0
 55 73  1  0  0  0  0
 56 77  1  0  0  0  0
 57 72  1  0  0  0  0
 58 70  1  0  0  0  0
 60 67  1  0  0  0  0
 61 68  1  0  0  0  0
 62 68  1  0  0  0  0
 63 68  1  0  0  0  0
 64 79  1  0  0  0  0
 65 87  1  0  0  0  0
 66 68  1  0  0  0  0
 66 78  1  0  0  0  0
 67 79  1  0  0  0  0
 69 70  1  0  0  0  0
M  CHG  1  79   1
M  ISO  4  45 100  65 101  76 100  87 101
M  END
> <Batch ID>
0078

> <Smiles>
C=Cc1c(C)cc([100NH:0][100C:0](=O)N2CCCC(n3nc(-c4ccc(Oc5ccc(F)cc5F)cc4)c(C(N)=O)c3N)C2)cc1N1CC(=C)C(=C[101CH2:1][101O:1]c2ccc3c(c2)CN(C(=O)C(NC(=O)C(C)NC)C(C)(C)C)C(C(=O)NC2CCCc4ccccc42)C3)C1=O

> <Shape>
0.322

> <Color>
0.088

> <Negative vol penalty>
0.000

$$$$

  -OEChem-04042323563D

 88 97  0     1  0  0  0  0  0999 V2000
  -28.3869  -33.6992   25.9406 C   0  0  0  0  0  0  0  0  0  0  0  0
  -28.4736  -32.4749   25.2856 C   0  0  0  0  0  0  0  0  0  0  0  0
  -24.3324  -11.5352   24.4895 C   0  0  0  0  0  0  0  0  0  0  0  0
  -25.7387  -13.1874   25.5524 C   0  0  0  0  0  0  0  0  0  0  0  0
  -27.1460  -34.1793   26.3573 C   0  0  0  0  0  0  0  0  0  0  0  0
  -27.3194  -31.7294   25.0478 C   0  0  0  0  0  0  0  0  0  0  0  0
  -27.1491  -29.8591   20.3449 C   0  0  0  0  0  0  0  0  0  0  0  0
  -29.0556  -18.9316   18.7365 C   0  0  0  0  0  0  0  0  0  0  0  0
  -28.9814  -20.1853   19.3435 C   0  0  0  0  0  0  0  0  0  0  0  0
  -24.0023  -11.0120   25.7396 C   0  0  0  0  0  0  0  0  0  0  0  0
  -25.4085  -12.6642   26.8025 C   0  0  0  0  0  0  0  0  0  0  0  0
  -27.9238  -28.7306   20.0800 C   0  0  0  0  0  0  0  0  0  0  0  0
  -21.9292  -11.7872   28.2959 C   0  0  0  0  0  0  0  0  0  0  0  0
  -20.5877  -11.4954   28.5427 C   0  0  0  0  0  0  0  0  0  0  0  0
  -25.9656  -27.3403   20.3071 C   0  0  0  0  0  0  0  0  0  0  0  0
  -31.3836  -20.3984   19.1969 C   0  0  0  0  0  0  0  0  0  0  0  0
  -21.1611   -9.1788   28.9195 C   0  0  0  0  0  0  0  0  0  0  0  0
  -25.2007  -12.6229   24.3959 C   0  0  0  0  0  0  0  0  0  0  0  0
  -24.8714  -14.1847   22.4059 C   0  0  0  0  0  0  0  0  0  0  0  0
  -25.9749  -33.4438   26.1160 C   0  0  0  0  0  0  0  0  0  0  0  0
  -25.7765  -29.7353   20.6041 C   0  0  0  0  0  0  0  0  0  0  0  0
  -26.0618  -32.1995   25.4629 C   0  0  0  0  0  0  0  0  0  0  0  0
  -25.1751  -28.4690   20.5725 C   0  0  0  0  0  0  0  0  0  0  0  0
  -30.2938  -18.4113   18.3598 C   0  0  0  0  0  0  0  0  0  0  0  0
  -30.1454  -20.9187   19.5737 C   0  0  0  0  0  0  0  0  0  0  0  0
  -24.5402  -11.5765   26.8962 C   0  0  0  0  0  0  0  0  0  0  0  0
  -27.3326  -27.4707   20.0640 C   0  0  0  0  0  0  0  0  0  0  0  0
  -22.8866  -10.7749   28.3608 C   0  0  0  0  0  0  0  0  0  0  0  0
  -20.2037  -10.1912   28.8545 C   0  0  0  0  0  0  0  0  0  0  0  0
  -31.4577  -19.1447   18.5900 C   0  0  0  0  0  0  0  0  0  0  0  0
  -22.5026   -9.4707   28.6726 C   0  0  0  0  0  0  0  0  0  0  0  0
  -25.5426  -13.1635   23.1047 C   0  0  0  0  0  0  0  0  0  0  0  0
  -25.5840  -14.3289   21.2406 C   0  0  0  0  0  0  0  0  0  0  0  0
  -28.9721  -23.0404   20.0606 C   0  0  0  0  0  0  0  0  0  0  0  0
  -28.8591  -24.2545   20.6273 C   0  0  0  0  0  0  0  0  0  0  0  0
  -30.9119  -23.6905   21.9435 C   0  0  0  0  0  0  0  0  0  0  0  0
  -31.3645  -23.5974   23.2033 C   0  0  0  0  0  0  0  0  0  0  0  0
  -23.7078  -14.9357   22.7768 C   0  0  0  0  0  0  0  0  0  0  0  0
  -23.8926  -30.3939   23.0781 C   0  0  0  0  0  0  0  0  0  0  0  0
  -21.5376  -29.5684   21.0057 C   0  0  0  0  0  0  0  0  0  0  0  0
  -20.6119  -27.8456   18.2090 C   0  0  0  0  0  0  0  0  0  0  0  0
  -30.4435  -14.7274   18.5254 C   0  0  0  0  0  0  0  0  0  0  0  0
  -24.6618  -33.9815   26.6271 C   0  0  0  0  0  0  0  0  0  0  0  0
  -24.9496  -30.9650   20.8617 C   0  0  0  0  0  0  0  0  0  0  0  0
  -23.7017  -28.2843   20.8243 C   0  0  0  0  0  0  0  0  0  0  0  0
  -29.9566  -24.7818   21.5189 C   0  0  0  0  0  0  0  0  0  0  0  0
  -31.2859  -22.6802   20.8798 C   0  0  0  0  0  0  0  0  0  0  0  0
  -23.4430  -33.3058   26.0040 C   0  0  0  0  0  0  0  0  0  0  0  0
  -29.2321  -11.4555   19.2353 C   0  0  0  0  0  0  0  0  0  0  0  0
  -23.6151  -31.7901   26.0031 C   0  0  0  0  0  0  0  0  0  0  0  0
  -28.1137  -11.6920   20.2518 C   0  0  0  0  0  0  0  0  0  0  0  0
  -30.3941  -12.4252   19.4388 C   0  0  0  0  0  0  0  0  0  0  0  0
  -28.8969  -14.0871   20.4734 C   0  0  0  0  0  0  0  0  0  0  0  0
  -24.8295  -31.3733   25.1647 C   0  0  1  0  0  0  0  0  0  0  0  0
  -23.6590  -30.6693   21.6196 C   0  0  1  0  0  0  0  0  0  0  0  0
  -27.6785  -13.1697   20.2729 C   0  0  2  0  0  0  0  0  0  0  0  0
  -29.5918  -17.0029   16.3887 C   0  0  0  0  0  0  0  0  0  0  0  0
  -18.6113  -27.3317   16.7838 C   0  0  0  0  0  0  0  0  0  0  0  0
  -20.5458  -27.5972   23.1130 C   0  0  0  0  0  0  0  0  0  0  0  0
  -19.1941  -26.4767   21.3282 C   0  0  0  0  0  0  0  0  0  0  0  0
  -18.7378  -28.8547   21.9278 C   0  0  0  0  0  0  0  0  0  0  0  0
  -21.8382  -29.1070   15.8291 C   0  0  0  0  0  0  0  0  0  0  0  0
  -27.6729  -25.1425   20.4100 C   0  0  0  0  0  0  0  0  0  1  0  0
  -30.3695  -17.0705   17.7110 C   0  0  2  0  0  0  0  0  0  0  0  0
  -20.8372  -28.2819   20.6407 C   0  0  1  0  0  0  0  0  0  0  0  0
  -19.7991  -28.2577   16.9949 C   0  0  2  0  0  0  0  0  0  0  0  0
  -19.8569  -27.8056   21.7496 C   0  0  0  0  0  0  0  0  0  0  0  0
  -26.6003  -12.6922   22.4390 N   0  0  0  0  0  0  0  0  0  0  0  0
  -26.5990  -13.4205   21.3095 N   0  0  0  0  0  0  0  0  0  0  0  0
  -30.0692  -22.1959   20.1918 N   0  0  0  0  0  0  0  0  0  0  0  0
  -22.9368  -29.5165   21.0777 N   0  0  0  0  0  0  0  0  0  0  0  0
  -29.9141  -13.8092   19.4473 N   0  0  0  0  0  0  0  0  0  0  0  0
  -25.4351  -15.1429   20.1740 N   0  0  0  0  0  0  0  0  0  0  0  0
  -23.0993  -14.6599   24.0089 N   0  0  0  0  0  0  0  0  0  0  0  0
  -24.5123  -31.4278   23.7537 N   0  0  0  0  0  0  0  0  0  0  0  0
  -20.2071  -28.5134   19.3454 N   0  0  0  0  0  0  0  0  0  0  0  0
  -29.9292  -16.0162   18.5971 N   0  0  0  0  0  0  0  0  0  0  0  0
  -20.6455  -28.2234   15.7688 N   0  3  0  0  0  0  0  0  0  0  0  0
  -23.2124  -15.8137   22.0304 O   0  0  0  0  0  0  0  0  0  0  0  0
  -23.5355  -29.3232   23.5555 O   0  0  0  0  0  0  0  0  0  0  0  0
  -20.8683  -30.5838   21.2122 O   0  0  0  0  0  0  0  0  0  0  0  0
  -21.5132  -27.0117   18.1553 O   0  0  0  0  0  0  0  0  0  0  0  0
  -31.3065  -14.4199   17.6962 O   0  0  0  0  0  0  0  0  0  0  0  0
  -24.2181  -11.0664   28.1162 O   0  0  0  0  0  0  0  0  0  0  0  0
  -28.0867  -26.3676   19.8063 O   0  0  0  0  0  0  0  0  0  1  0  0
  -18.9157   -9.9113   29.0931 F   0  0  0  0  0  0  0  0  0  0  0  0
  -32.6521  -18.6525   18.2325 F   0  0  0  0  0  0  0  0  0  0  0  0
  -23.4180   -8.4942   28.7376 F   0  0  0  0  0  0  0  0  0  0  0  0
  1  2  1  0  0  0  0
  1  5  2  0  0  0  0
  2  6  2  0  0  0  0
  3 10  2  0  0  0  0
  3 18  1  0  0  0  0
  4 11  1  0  0  0  0
  4 18  2  0  0  0  0
  5 20  1  0  0  0  0
  6 22  1  0  0  0  0
  7 12  2  0  0  0  0
  7 21  1  0  0  0  0
  8  9  2  0  0  0  0
  8 24  1  0  0  0  0
  9 25  1  0  0  0  0
 10 26  1  0  0  0  0
 11 26  2  0  0  0  0
 12 27  1  0  0  0  0
 13 14  2  0  0  0  0
 13 28  1  0  0  0  0
 14 29  1  0  0  0  0
 15 23  1  0  0  0  0
 15 27  2  0  0  0  0
 16 25  2  0  0  0  0
 16 30  1  0  0  0  0
 17 29  2  0  0  0  0
 17 31  1  0  0  0  0
 18 32  1  0  0  0  0
 19 32  1  0  0  0  0
 19 33  2  0  0  0  0
 19 38  1  0  0  0  0
 20 22  2  0  0  0  0
 20 43  1  0  0  0  0
 21 23  2  0  0  0  0
 21 44  1  0  0  0  0
 22 54  1  0  0  0  0
 23 45  1  0  0  0  0
 24 30  2  0  0  0  0
 24 64  1  0  0  0  0
 25 70  1  0  0  0  0
 26 84  1  0  0  0  0
 27 85  1  0  0  0  0
 28 31  2  0  0  0  0
 28 84  1  0  0  0  0
 29 86  1  0  0  0  0
 30 87  1  0  0  0  0
 31 88  1  0  0  0  0
 32 68  2  0  0  0  0
 33 69  1  0  0  0  0
 33 73  1  0  0  0  0
 34 35  2  0  0  0  0
 34 70  1  0  0  0  0
 35 46  1  0  0  0  0
 35 63  1  0  0  0  0
 36 37  2  0  0  0  0
 36 46  1  0  0  0  0
 36 47  1  0  0  0  0
 38 74  1  0  0  0  0
 38 79  2  0  0  0  0
 39 55  1  0  0  0  0
 39 75  1  0  0  0  0
 39 80  2  0  0  0  0
 40 65  1  0  0  0  0
 40 71  1  0  0  0  0
 40 81  2  0  0  0  0
 41 66  1  0  0  0  0
 41 76  1  0  0  0  0
 41 82  2  0  0  0  0
 42 72  1  0  0  0  0
 42 77  1  0  0  0  0
 42 83  2  0  0  0  0
 43 48  1  0  0  0  0
 44 55  1  0  0  0  0
 45 71  1  0  0  0  0
 47 70  1  0  0  0  0
 48 50  1  0  0  0  0
 49 51  1  0  0  0  0
 49 52  1  0  0  0  0
 50 54  1  0  0  0  0
 51 56  1  0  0  0  0
 52 72  1  0  0  0  0
 53 56  1  0  0  0  0
 53 72  1  0  0  0  0
 54 75  1  0  0  0  0
 55 71  1  0  0  0  0
 56 69  1  0  0  0  0
 57 64  1  0  0  0  0
 58 66  1  0  0  0  0
 59 67  1  0  0  0  0
 60 67  1  0  0  0  0
 61 67  1  0  0  0  0
 62 78  1  0  0  0  0
 63 85  1  0  0  0  0
 64 77  1  0  0  0  0
 65 67  1  0  0  0  0
 65 76  1  0  0  0  0
 66 78  1  0  0  0  0
 68 69  1  0  0  0  0
M  CHG  1  78   1
M  ISO  4  42 100  63 101  77 100  85 101
M  END
> <Batch ID>
0078

> <Smiles>
C=C1CC([101CH2:1][101O:1]c2ccc3c(c2)CN(C(=O)C(NC(=O)C(C)NC)C(C)(C)C)C(C(=O)NC2CCCc4ccccc42)C3)=CN(c2ccc(C(C)[100NH:0][100C:0](=O)N3CCCC(n4nc(-c5ccc(Oc6ccc(F)cc6F)cc5)c(C(N)=O)c4N)C3)c(F)c2)C1

> <Shape>
0.254

> <Color>
0.115

> <Negative vol penalty>
0.000

$$$$

  -OEChem-04042323563D

 89 98  0     1  0  0  0  0  0999 V2000
  -19.4234  -24.0928   22.2206 C   0  0  0  0  0  0  0  0  0  0  0  0
  -20.6130  -24.4338   21.5851 C   0  0  0  0  0  0  0  0  0  0  0  0
  -22.5375  -10.5072   20.7106 C   0  0  0  0  0  0  0  0  0  0  0  0
  -22.4001  -12.8694   20.2226 C   0  0  0  0  0  0  0  0  0  0  0  0
  -18.5707  -25.0934   22.6849 C   0  0  0  0  0  0  0  0  0  0  0  0
  -20.9502  -25.7758   21.4126 C   0  0  0  0  0  0  0  0  0  0  0  0
  -25.7911  -26.7252   22.5568 C   0  0  0  0  0  0  0  0  0  0  0  0
  -28.4003  -19.8300   18.5922 C   0  0  0  0  0  0  0  0  0  0  0  0
  -28.0502  -18.6286   19.2083 C   0  0  0  0  0  0  0  0  0  0  0  0
  -21.1489  -10.4509   20.8293 C   0  0  0  0  0  0  0  0  0  0  0  0
  -21.0114  -12.8131   20.3412 C   0  0  0  0  0  0  0  0  0  0  0  0
  -26.7507  -26.3699   21.6098 C   0  0  0  0  0  0  0  0  0  0  0  0
  -18.7248  -12.7370   22.8305 C   0  0  0  0  0  0  0  0  0  0  0  0
  -18.0957  -13.7437   23.5628 C   0  0  0  0  0  0  0  0  0  0  0  0
  -26.8612  -28.6633   20.8701 C   0  0  0  0  0  0  0  0  0  0  0  0
  -29.7584  -18.9874   20.8788 C   0  0  0  0  0  0  0  0  0  0  0  0
  -16.8283  -14.3755   21.6054 C   0  0  0  0  0  0  0  0  0  0  0  0
  -23.1632  -11.7164   20.4073 C   0  0  0  0  0  0  0  0  0  0  0  0
  -25.4036  -11.0613   19.3783 C   0  0  0  0  0  0  0  0  0  0  0  0
  -18.9022  -26.4483   22.5266 C   0  0  0  0  0  0  0  0  0  0  0  0
  -25.3506  -28.0525   22.6603 C   0  0  0  0  0  0  0  0  0  0  0  0
  -20.1006  -26.7955   21.8740 C   0  0  0  0  0  0  0  0  0  0  0  0
  -25.8978  -29.0333   21.8209 C   0  0  0  0  0  0  0  0  0  0  0  0
  -29.4295  -20.6101   19.1194 C   0  0  0  0  0  0  0  0  0  0  0  0
  -28.7292  -18.2073   20.3516 C   0  0  0  0  0  0  0  0  0  0  0  0
  -20.3858  -11.6038   20.6446 C   0  0  0  0  0  0  0  0  0  0  0  0
  -27.2838  -27.3384   20.7644 C   0  0  0  0  0  0  0  0  0  0  0  0
  -18.4058  -12.5496   21.4856 C   0  0  0  0  0  0  0  0  0  0  0  0
  -17.1474  -14.5629   22.9503 C   0  0  0  0  0  0  0  0  0  0  0  0
  -30.1085  -20.1889   20.2627 C   0  0  0  0  0  0  0  0  0  0  0  0
  -17.4575  -13.3688   20.8730 C   0  0  0  0  0  0  0  0  0  0  0  0
  -24.5976  -11.7753   20.2851 C   0  0  0  0  0  0  0  0  0  0  0  0
  -26.6844  -11.4665   19.6645 C   0  0  0  0  0  0  0  0  0  0  0  0
  -31.1870  -24.0538   17.3306 C   0  0  0  0  0  0  0  0  0  0  0  0
  -30.1841  -24.2728   18.3832 C   0  0  0  0  0  0  0  0  0  0  0  0
  -31.3033  -22.6995   16.7705 C   0  0  0  0  0  0  0  0  0  0  0  0
  -29.7065  -23.0778   19.1738 C   0  0  0  0  0  0  0  0  0  0  0  0
  -31.9688  -25.0618   16.8938 C   0  0  0  0  0  0  0  0  0  0  0  0
  -32.3673  -22.2054   16.1153 C   0  0  0  0  0  0  0  0  0  0  0  0
  -29.6270  -25.4514   18.7092 C   0  0  0  0  0  0  0  0  0  0  0  0
  -25.0281  -10.1163   18.3675 C   0  0  0  0  0  0  0  0  0  0  0  0
  -22.5567  -29.5237   22.2952 C   0  0  0  0  0  0  0  0  0  0  0  0
  -24.2128  -32.0970   23.3712 C   0  0  0  0  0  0  0  0  0  0  0  0
  -27.2308  -33.6389   23.7728 C   0  0  0  0  0  0  0  0  0  0  0  0
  -28.9455  -16.4238   22.1176 C   0  0  0  0  0  0  0  0  0  0  0  0
  -17.9263  -27.4949   23.0030 C   0  0  0  0  0  0  0  0  0  0  0  0
  -24.3344  -28.4245   23.7050 C   0  0  0  0  0  0  0  0  0  0  0  0
  -25.4735  -30.4760   21.9054 C   0  0  0  0  0  0  0  0  0  0  0  0
  -30.0889  -21.8428   17.0375 C   0  0  0  0  0  0  0  0  0  0  0  0
  -18.5356  -28.8900   23.1145 C   0  0  0  0  0  0  0  0  0  0  0  0
  -29.3810  -13.0852   23.2759 C   0  0  0  0  0  0  0  0  0  0  0  0
  -19.3466  -29.2198   21.8653 C   0  0  0  0  0  0  0  0  0  0  0  0
  -28.2810  -12.3044   22.5532 C   0  0  0  0  0  0  0  0  0  0  0  0
  -28.9158  -14.4854   23.6721 C   0  0  0  0  0  0  0  0  0  0  0  0
  -27.2531  -14.5049   21.8543 C   0  0  0  0  0  0  0  0  0  0  0  0
  -20.5130  -28.2399   21.6902 C   0  0  1  0  0  0  0  0  0  0  0  0
  -23.5832  -29.7110   23.3764 C   0  0  1  0  0  0  0  0  0  0  0  0
  -27.6959  -13.1118   21.3779 C   0  0  2  0  0  0  0  0  0  0  0  0
  -28.2623  -35.7512   24.6512 C   0  0  0  0  0  0  0  0  0  0  0  0
  -23.2548  -33.5935   20.8908 C   0  0  0  0  0  0  0  0  0  0  0  0
  -25.0322  -35.3035   21.3214 C   0  0  0  0  0  0  0  0  0  0  0  0
  -23.2219  -34.9391   22.9986 C   0  0  0  0  0  0  0  0  0  0  0  0
  -28.8277  -32.1618   25.7795 C   0  0  0  0  0  0  0  0  0  0  0  0
  -28.6103  -25.6225   19.7888 C   0  0  0  0  0  0  0  0  0  1  0  0
  -25.0276  -33.1908   22.7242 C   0  0  1  0  0  0  0  0  0  0  0  0
  -27.8621  -34.3198   24.9736 C   0  0  2  0  0  0  0  0  0  0  0  0
  -24.1409  -34.2293   21.9806 C   0  0  0  0  0  0  0  0  0  0  0  0
  -25.3069  -12.5735   21.0875 N   0  0  0  0  0  0  0  0  0  0  0  0
  -26.5721  -12.3634   20.6858 N   0  0  0  0  0  0  0  0  0  0  0  0
  -29.7892  -21.8512   18.4805 N   0  0  0  0  0  0  0  0  0  0  0  0
  -24.4725  -30.7888   22.9387 N   0  0  0  0  0  0  0  0  0  0  0  0
  -28.3780  -15.1923   22.5077 N   0  0  0  0  0  0  0  0  0  0  0  0
  -27.8844  -11.1394   19.1397 N   0  0  0  0  0  0  0  0  0  0  0  0
  -24.7459  -10.5921   17.0797 N   0  0  0  0  0  0  0  0  0  0  0  0
  -28.3733  -16.9868   20.9773 N   0  0  0  0  0  0  0  0  0  0  0  0
  -21.5951  -28.5762   22.5904 N   0  0  0  0  0  0  0  0  0  0  0  0
  -25.8573  -33.7608   23.7801 N   0  0  0  0  0  0  0  0  0  0  0  0
  -29.0793  -33.5783   25.4090 N   0  3  0  0  0  0  0  0  0  0  0  0
  -29.2682  -23.2334   20.3130 O   0  0  0  0  0  0  0  0  0  0  0  0
  -24.9293   -8.8883   18.6035 O   0  0  0  0  0  0  0  0  0  0  0  0
  -22.6307  -30.1905   21.2698 O   0  0  0  0  0  0  0  0  0  0  0  0
  -23.3818  -32.3916   24.2339 O   0  0  0  0  0  0  0  0  0  0  0  0
  -27.8903  -33.0602   22.9121 O   0  0  0  0  0  0  0  0  0  0  0  0
  -29.8889  -16.9274   22.7326 O   0  0  0  0  0  0  0  0  0  0  0  0
  -19.0308  -11.5492   20.7601 O   0  0  0  0  0  0  0  0  0  0  0  0
  -28.2200  -26.9942   19.8387 O   0  0  0  0  0  0  0  0  0  1  0  0
  -16.5421  -15.5286   23.6540 F   0  0  0  0  0  0  0  0  0  0  0  0
  -31.0999  -20.9303   20.7778 F   0  0  0  0  0  0  0  0  0  0  0  0
  -17.1460  -13.1928   19.5816 F   0  0  0  0  0  0  0  0  0  0  0  0
  1  2  1  0  0  0  0
  1  5  2  0  0  0  0
  2  6  2  0  0  0  0
  3 10  2  0  0  0  0
  3 18  1  0  0  0  0
  4 11  1  0  0  0  0
  4 18  2  0  0  0  0
  5 20  1  0  0  0  0
  6 22  1  0  0  0  0
  7 12  2  0  0  0  0
  7 21  1  0  0  0  0
  8  9  2  0  0  0  0
  8 24  1  0  0  0  0
  9 25  1  0  0  0  0
 10 26  1  0  0  0  0
 11 26  2  0  0  0  0
 12 27  1  0  0  0  0
 13 14  2  0  0  0  0
 13 28  1  0  0  0  0
 14 29  1  0  0  0  0
 15 23  1  0  0  0  0
 15 27  2  0  0  0  0
 16 25  2  0  0  0  0
 16 30  1  0  0  0  0
 17 29  2  0  0  0  0
 17 31  1  0  0  0  0
 18 32  1  0  0  0  0
 19 32  1  0  0  0  0
 19 33  2  0  0  0  0
 19 41  1  0  0  0  0
 20 22  2  0  0  0  0
 20 46  1  0  0  0  0
 21 23  2  0  0  0  0
 21 47  1  0  0  0  0
 22 56  1  0  0  0  0
 23 48  1  0  0  0  0
 24 30  2  0  0  0  0
 24 70  1  0  0  0  0
 25 75  1  0  0  0  0
 26 85  1  0  0  0  0
 27 86  1  0  0  0  0
 28 31  2  0  0  0  0
 28 85  1  0  0  0  0
 29 87  1  0  0  0  0
 30 88  1  0  0  0  0
 31 89  1  0  0  0  0
 32 68  2  0  0  0  0
 33 69  1  0  0  0  0
 33 73  1  0  0  0  0
 34 35  1  0  0  0  0
 34 36  1  0  0  0  0
 34 38  2  0  0  0  0
 35 37  1  0  0  0  0
 35 40  2  0  0  0  0
 36 39  2  0  0  0  0
 36 49  1  0  0  0  0
 37 70  1  0  0  0  0
 37 79  2  0  0  0  0
 40 64  1  0  0  0  0
 41 74  1  0  0  0  0
 41 80  2  0  0  0  0
 42 57  1  0  0  0  0
 42 76  1  0  0  0  0
 42 81  2  0  0  0  0
 43 65  1  0  0  0  0
 43 71  1  0  0  0  0
 43 82  2  0  0  0  0
 44 66  1  0  0  0  0
 44 77  1  0  0  0  0
 44 83  2  0  0  0  0
 45 72  1  0  0  0  0
 45 75  1  0  0  0  0
 45 84  2  0  0  0  0
 46 50  1  0  0  0  0
 47 57  1  0  0  0  0
 48 71  1  0  0  0  0
 49 70  1  0  0  0  0
 50 52  1  0  0  0  0
 51 53  1  0  0  0  0
 51 54  1  0  0  0  0
 52 56  1  0  0  0  0
 53 58  1  0  0  0  0
 54 72  1  0  0  0  0
 55 58  1  0  0  0  0
 55 72  1  0  0  0  0
 56 76  1  0  0  0  0
 57 71  1  0  0  0  0
 58 69  1  0  0  0  0
 59 66  1  0  0  0  0
 60 67  1  0  0  0  0
 61 67  1  0  0  0  0
 62 67  1  0  0  0  0
 63 78  1  0  0  0  0
 64 86  1  0  0  0  0
 65 67  1  0  0  0  0
 65 77  1  0  0  0  0
 66 78  1  0  0  0  0
 68 69  1  0  0  0  0
M  CHG  1  78   1
M  ISO  4  45 100  64 101  75 100  86 101
M  END
> <Batch ID>
0078

> <Smiles>
C=C1CN(c2ccc([100NH:0][100C:0](=O)N3CCCC(n4nc(-c5ccc(Oc6ccc(F)cc6F)cc5)c(C(N)=O)c4N)C3)cc2F)C(=O)C(=C[101CH2:1][101O:1]c2ccc3c(c2)CN(C(=O)C(NC(=O)C(C)NC)C(C)(C)C)C(C(=O)NC2CCCc4ccccc42)C3)C1=C

> <Shape>
0.298

> <Color>
0.089

> <Negative vol penalty>
0.000

$$$$

  -OEChem-04042323563D

 87 96  0     1  0  0  0  0  0999 V2000
  -22.0095  -11.9257   19.1796 C   0  0  0  0  0  0  0  0  0  0  0  0
  -21.7710  -13.2173   19.6381 C   0  0  0  0  0  0  0  0  0  0  0  0
  -24.0749  -26.9558   15.1506 C   0  0  0  0  0  0  0  0  0  0  0  0
  -26.4895  -26.9446   15.2299 C   0  0  0  0  0  0  0  0  0  0  0  0
  -23.2604  -11.3399   19.3690 C   0  0  0  0  0  0  0  0  0  0  0  0
  -22.7831  -13.9235   20.2872 C   0  0  0  0  0  0  0  0  0  0  0  0
  -23.1531  -18.7102   18.6759 C   0  0  0  0  0  0  0  0  0  0  0  0
  -17.5410  -27.8988   22.6446 C   0  0  0  0  0  0  0  0  0  0  0  0
  -17.9320  -26.5647   22.5312 C   0  0  0  0  0  0  0  0  0  0  0  0
  -24.1208  -26.9859   13.7568 C   0  0  0  0  0  0  0  0  0  0  0  0
  -26.5354  -26.9747   13.8361 C   0  0  0  0  0  0  0  0  0  0  0  0
  -22.2158  -19.6202   19.1629 C   0  0  0  0  0  0  0  0  0  0  0  0
  -24.6417  -24.7960   11.2337 C   0  0  0  0  0  0  0  0  0  0  0  0
  -23.7883  -23.9395   10.5384 C   0  0  0  0  0  0  0  0  0  0  0  0
  -20.2229  -27.1994   22.9629 C   0  0  0  0  0  0  0  0  0  0  0  0
  -23.8343  -20.4229   20.7613 C   0  0  0  0  0  0  0  0  0  0  0  0
  -19.6471  -22.6592   22.6323 C   0  0  0  0  0  0  0  0  0  0  0  0
  -22.7468  -25.8417    9.4734 C   0  0  0  0  0  0  0  0  0  0  0  0
  -20.8943  -24.4666   22.1345 C   0  0  0  0  0  0  0  0  0  0  0  0
  -25.2593  -26.9352   15.8871 C   0  0  0  0  0  0  0  0  0  0  0  0
  -19.8319  -28.5336   23.0761 C   0  0  0  0  0  0  0  0  0  0  0  0
  -25.1803  -25.7648   18.1524 C   0  0  0  0  0  0  0  0  0  0  0  0
  -24.2913  -12.0429   20.0122 C   0  0  0  0  0  0  0  0  0  0  0  0
  -24.4368  -18.6421   19.2363 C   0  0  0  0  0  0  0  0  0  0  0  0
  -24.0486  -13.3461   20.4865 C   0  0  0  0  0  0  0  0  0  0  0  0
  -24.7870  -19.5129   20.2780 C   0  0  0  0  0  0  0  0  0  0  0  0
  -18.4910  -28.8833   22.9170 C   0  0  0  0  0  0  0  0  0  0  0  0
  -20.9110  -23.0895   22.1586 C   0  0  0  0  0  0  0  0  0  0  0  0
  -19.2729  -26.2150   22.6904 C   0  0  0  0  0  0  0  0  0  0  0  0
  -25.3510  -26.9953   13.0995 C   0  0  0  0  0  0  0  0  0  0  0  0
  -22.5554  -20.4747   20.2076 C   0  0  0  0  0  0  0  0  0  0  0  0
  -24.5476  -26.1754   11.0490 C   0  0  0  0  0  0  0  0  0  0  0  0
  -22.8408  -24.4623    9.6582 C   0  0  0  0  0  0  0  0  0  0  0  0
  -23.6002  -26.6982   10.1689 C   0  0  0  0  0  0  0  0  0  0  0  0
  -25.2125  -26.9046   17.3269 C   0  0  0  0  0  0  0  0  0  0  0  0
  -25.1415  -26.2672   19.4301 C   0  0  0  0  0  0  0  0  0  0  0  0
  -18.8963  -23.7865   22.8831 C   0  0  0  0  0  0  0  0  0  0  0  0
  -20.8643  -29.5619   23.3650 C   0  0  0  0  0  0  0  0  0  0  0  0
  -25.1851  -24.3760   17.7961 C   0  0  0  0  0  0  0  0  0  0  0  0
  -26.1041  -16.4045   20.7583 C   0  0  0  0  0  0  0  0  0  0  0  0
  -28.4893  -18.5933   20.5525 C   0  0  0  0  0  0  0  0  0  0  0  0
  -29.3973  -21.8666   20.2243 C   0  0  0  0  0  0  0  0  0  0  0  0
  -22.9288  -30.6022   22.4823 C   0  0  0  0  0  0  0  0  0  0  0  0
  -25.6124  -11.3505   20.2358 C   0  0  0  0  0  0  0  0  0  0  0  0
  -25.4450  -17.6733   18.6819 C   0  0  0  0  0  0  0  0  0  0  0  0
  -26.1583  -19.4937   20.9005 C   0  0  0  0  0  0  0  0  0  0  0  0
  -26.7464  -12.3051   20.6004 C   0  0  0  0  0  0  0  0  0  0  0  0
  -26.3275  -30.6020   21.5099 C   0  0  0  0  0  0  0  0  0  0  0  0
  -26.2918  -13.2887   21.6741 C   0  0  0  0  0  0  0  0  0  0  0  0
  -26.3906  -29.5309   20.4176 C   0  0  0  0  0  0  0  0  0  0  0  0
  -25.0302  -31.4064   21.4415 C   0  0  0  0  0  0  0  0  0  0  0  0
  -23.8651  -29.5392   20.3396 C   0  0  0  0  0  0  0  0  0  0  0  0
  -25.1287  -14.1534   21.1733 C   0  0  1  0  0  0  0  0  0  0  0  0
  -26.5570  -17.3370   19.6707 C   0  0  1  0  0  0  0  0  0  0  0  0
  -25.1211  -28.6557   20.4097 C   0  0  1  0  0  0  0  0  0  0  0  0
  -18.0451  -30.3046   23.0326 C   0  0  0  0  0  0  0  0  0  0  0  0
  -31.4192  -23.3499   20.1275 C   0  0  0  0  0  0  0  0  0  0  0  0
  -28.8328  -18.3182   23.5718 C   0  0  0  0  0  0  0  0  0  0  0  0
  -30.1499  -20.4472   23.5458 C   0  0  0  0  0  0  0  0  0  0  0  0
  -30.9737  -18.4575   22.2867 C   0  0  0  0  0  0  0  0  0  0  0  0
  -28.7232  -22.8031   17.4990 C   0  0  0  0  0  0  0  0  0  0  0  0
  -22.0576  -22.2089   21.7571 C   0  0  0  0  0  0  0  0  0  1  0  0
  -28.9718  -19.7332   21.4167 C   0  0  1  0  0  0  0  0  0  0  0  0
  -30.4117  -22.5449   19.3213 C   0  0  2  0  0  0  0  0  0  0  0  0
  -29.7055  -19.2383   22.6950 C   0  0  0  0  0  0  0  0  0  0  0  0
  -25.1955  -28.0452   18.0218 N   0  0  0  0  0  0  0  0  0  0  0  0
  -19.6645  -24.8793   22.5766 N   0  0  0  0  0  0  0  0  0  0  0  0
  -25.1521  -27.6245   19.2974 N   0  0  0  0  0  0  0  0  0  0  0  0
  -27.1070  -18.5244   20.3279 N   0  0  0  0  0  0  0  0  0  0  0  0
  -23.8761  -30.5056   21.4481 N   0  0  0  0  0  0  0  0  0  0  0  0
  -25.0997  -25.6758   20.6430 N   0  0  0  0  0  0  0  0  0  0  0  0
  -25.2274  -24.0350   16.4373 N   0  0  0  0  0  0  0  0  0  0  0  0
  -21.8871  -29.6698   22.4223 N   0  0  0  0  0  0  0  0  0  0  0  0
  -25.6157  -15.1970   20.2968 N   0  0  0  0  0  0  0  0  0  0  0  0
  -29.7834  -20.5846   20.5537 N   0  0  0  0  0  0  0  0  0  0  0  0
  -29.7257  -23.4663   18.3720 N   0  3  0  0  0  0  0  0  0  0  0  0
  -20.7443  -30.2656   24.3642 O   0  0  0  0  0  0  0  0  0  0  0  0
  -25.1363  -23.4646   18.6566 O   0  0  0  0  0  0  0  0  0  0  0  0
  -26.1928  -16.7539   21.9295 O   0  0  0  0  0  0  0  0  0  0  0  0
  -29.3094  -17.7976   20.0877 O   0  0  0  0  0  0  0  0  0  0  0  0
  -28.3673  -22.4202   20.6029 O   0  0  0  0  0  0  0  0  0  0  0  0
  -23.0225  -31.4223   23.4010 O   0  0  0  0  0  0  0  0  0  0  0  0
  -17.6544  -23.9123   23.3350 O   0  0  0  0  0  0  0  0  0  0  0  0
  -25.3962  -27.0245   11.7395 O   0  0  0  0  0  0  0  0  0  0  0  0
  -21.6421  -21.3634   20.6852 O   0  0  0  0  0  0  0  0  0  1  0  0
  -22.0224  -23.6395    8.9894 F   0  0  0  0  0  0  0  0  0  0  0  0
  -23.5059  -28.0225    9.9864 F   0  0  0  0  0  0  0  0  0  0  0  0
  1  2  1  0  0  0  0
  1  5  2  0  0  0  0
  2  6  2  0  0  0  0
  3 10  2  0  0  0  0
  3 20  1  0  0  0  0
  4 11  1  0  0  0  0
  4 20  2  0  0  0  0
  5 23  1  0  0  0  0
  6 25  1  0  0  0  0
  7 12  2  0  0  0  0
  7 24  1  0  0  0  0
  8  9  2  0  0  0  0
  8 27  1  0  0  0  0
  9 29  1  0  0  0  0
 10 30  1  0  0  0  0
 11 30  2  0  0  0  0
 12 31  1  0  0  0  0
 13 14  2  0  0  0  0
 13 32  1  0  0  0  0
 14 33  1  0  0  0  0
 15 21  1  0  0  0  0
 15 29  2  0  0  0  0
 16 26  1  0  0  0  0
 16 31  2  0  0  0  0
 17 28  1  0  0  0  0
 17 37  2  0  0  0  0
 18 33  2  0  0  0  0
 18 34  1  0  0  0  0
 19 28  2  0  0  0  0
 19 67  1  0  0  0  0
 20 35  1  0  0  0  0
 21 27  2  0  0  0  0
 21 38  1  0  0  0  0
 22 35  1  0  0  0  0
 22 36  2  0  0  0  0
 22 39  1  0  0  0  0
 23 25  2  0  0  0  0
 23 44  1  0  0  0  0
 24 26  2  0  0  0  0
 24 45  1  0  0  0  0
 25 53  1  0  0  0  0
 26 46  1  0  0  0  0
 27 56  1  0  0  0  0
 28 62  1  0  0  0  0
 29 67  1  0  0  0  0
 30 84  1  0  0  0  0
 31 85  1  0  0  0  0
 32 34  2  0  0  0  0
 32 84  1  0  0  0  0
 33 86  1  0  0  0  0
 34 87  1  0  0  0  0
 35 66  2  0  0  0  0
 36 68  1  0  0  0  0
 36 71  1  0  0  0  0
 37 67  1  0  0  0  0
 37 83  1  0  0  0  0
 38 73  1  0  0  0  0
 38 77  2  0  0  0  0
 39 72  1  0  0  0  0
 39 78  2  0  0  0  0
 40 54  1  0  0  0  0
 40 74  1  0  0  0  0
 40 79  2  0  0  0  0
 41 63  1  0  0  0  0
 41 69  1  0  0  0  0
 41 80  2  0  0  0  0
 42 64  1  0  0  0  0
 42 75  1  0  0  0  0
 42 81  2  0  0  0  0
 43 70  1  0  0  0  0
 43 73  1  0  0  0  0
 43 82  2  0  0  0  0
 44 47  1  0  0  0  0
 45 54  1  0  0  0  0
 46 69  1  0  0  0  0
 47 49  1  0  0  0  0
 48 50  1  0  0  0  0
 48 51  1  0  0  0  0
 49 53  1  0  0  0  0
 50 55  1  0  0  0  0
 51 70  1  0  0  0  0
 52 55  1  0  0  0  0
 52 70  1  0  0  0  0
 53 74  1  0  0  0  0
 54 69  1  0  0  0  0
 55 68  1  0  0  0  0
 57 64  1  0  0  0  0
 58 65  1  0  0  0  0
 59 65  1  0  0  0  0
 60 65  1  0  0  0  0
 61 76  1  0  0  0  0
 62 85  1  0  0  0  0
 63 65  1  0  0  0  0
 63 75  1  0  0  0  0
 64 76  1  0  0  0  0
 66 68  1  0  0  0  0
M  CHG  1  76   1
M  ISO  4  43 100  62 101  73 100  85 101
M  END
> <Batch ID>
0078

> <Smiles>
CNC(C)C(=O)NC(C(=O)N1Cc2cc([101O:1][101CH2:1]C3=CN(c4ccc(C)c(C(=O)[100NH:0][100C:0](=O)N5CCCC(n6nc(-c7ccc(Oc8ccc(F)cc8F)cc7)c(C(N)=O)c6N)C5)c4)C(=O)C3)ccc2CC1C(=O)NC1CCCc2ccccc21)C(C)(C)C

> <Shape>
0.228

> <Color>
0.095

> <Negative vol penalty>
0.000

$$$$

  -OEChem-04042323563D

 90 99  0     1  0  0  0  0  0999 V2000
  -23.7803  -19.9000   24.6866 C   0  0  0  0  0  0  0  0  0  0  0  0
  -24.4567  -20.7116   23.7815 C   0  0  0  0  0  0  0  0  0  0  0  0
  -29.9737  -18.0517   16.1788 C   0  0  0  0  0  0  0  0  0  0  0  0
  -23.3091  -14.5910   24.8069 C   0  0  0  0  0  0  0  0  0  0  0  0
  -22.7238  -16.1201   23.0303 C   0  0  0  0  0  0  0  0  0  0  0  0
  -22.5068  -20.2587   25.1262 C   0  0  0  0  0  0  0  0  0  0  0  0
  -23.8594  -21.8820   23.3146 C   0  0  0  0  0  0  0  0  0  0  0  0
  -27.0440  -25.8194   23.3081 C   0  0  0  0  0  0  0  0  0  0  0  0
  -30.0939  -19.4212   15.9429 C   0  0  0  0  0  0  0  0  0  0  0  0
  -29.8024  -17.5806   17.4805 C   0  0  0  0  0  0  0  0  0  0  0  0
  -22.3348  -15.1660   25.6228 C   0  0  0  0  0  0  0  0  0  0  0  0
  -21.7494  -16.6951   23.8461 C   0  0  0  0  0  0  0  0  0  0  0  0
  -27.9711  -25.8867   22.2690 C   0  0  0  0  0  0  0  0  0  0  0  0
  -18.8624  -18.3271   25.3361 C   0  0  0  0  0  0  0  0  0  0  0  0
  -17.6101  -18.5761   24.7748 C   0  0  0  0  0  0  0  0  0  0  0  0
  -26.5722  -27.4901   21.1327 C   0  0  0  0  0  0  0  0  0  0  0  0
  -29.8716  -19.8485   18.3104 C   0  0  0  0  0  0  0  0  0  0  0  0
  -17.3539  -16.2209   24.3012 C   0  0  0  0  0  0  0  0  0  0  0  0
  -23.5037  -15.0681   23.5107 C   0  0  0  0  0  0  0  0  0  0  0  0
  -24.3492  -13.3893   21.7861 C   0  0  0  0  0  0  0  0  0  0  0  0
  -21.8975  -21.4390   24.6720 C   0  0  0  0  0  0  0  0  0  0  0  0
  -25.8668  -26.5800   23.2620 C   0  0  0  0  0  0  0  0  0  0  0  0
  -22.5759  -22.2561   23.7476 C   0  0  0  0  0  0  0  0  0  0  0  0
  -25.6330  -27.4326   22.1737 C   0  0  0  0  0  0  0  0  0  0  0  0
  -30.0429  -20.3196   17.0087 C   0  0  0  0  0  0  0  0  0  0  0  0
  -29.7514  -18.4790   18.5463 C   0  0  0  0  0  0  0  0  0  0  0  0
  -21.5549  -16.2180   25.1424 C   0  0  0  0  0  0  0  0  0  0  0  0
  -27.7340  -26.7199   21.1798 C   0  0  0  0  0  0  0  0  0  0  0  0
  -19.3606  -17.0249   25.3799 C   0  0  0  0  0  0  0  0  0  0  0  0
  -16.8558  -17.5231   24.2574 C   0  0  0  0  0  0  0  0  0  0  0  0
  -18.6063  -15.9718   24.8625 C   0  0  0  0  0  0  0  0  0  0  0  0
  -24.5104  -14.4750   22.6676 C   0  0  0  0  0  0  0  0  0  0  0  0
  -25.5910  -13.2147   21.2257 C   0  0  0  0  0  0  0  0  0  0  0  0
  -30.3608  -24.4388   16.1946 C   0  0  0  0  0  0  0  0  0  0  0  0
  -30.9178  -22.1565   15.6914 C   0  0  0  0  0  0  0  0  0  0  0  0
  -29.6214  -24.0902   17.2566 C   0  0  0  0  0  0  0  0  0  0  0  0
  -31.0325  -23.4563   15.3990 C   0  0  0  0  0  0  0  0  0  0  0  0
  -29.5171  -22.6271   17.6281 C   0  0  0  0  0  0  0  0  0  0  0  0
  -27.9619  -19.6123   20.5924 C   0  0  0  0  0  0  0  0  0  0  0  0
  -28.9296  -18.7361   20.8709 C   0  0  0  0  0  0  0  0  0  0  0  0
  -23.1814  -12.6084   21.4994 C   0  0  0  0  0  0  0  0  0  0  0  0
  -22.7613  -25.9053   23.1979 C   0  0  0  0  0  0  0  0  0  0  0  0
  -22.4540  -29.1236   23.4633 C   0  0  0  0  0  0  0  0  0  0  0  0
  -23.8243  -32.2134   22.9923 C   0  0  0  0  0  0  0  0  0  0  0  0
  -30.2127  -16.7801   20.2764 C   0  0  0  0  0  0  0  0  0  0  0  0
  -20.5001  -21.7609   25.1393 C   0  0  0  0  0  0  0  0  0  0  0  0
  -24.8894  -26.5163   24.4035 C   0  0  0  0  0  0  0  0  0  0  0  0
  -24.3943  -28.2850   22.0859 C   0  0  0  0  0  0  0  0  0  0  0  0
  -20.0911  -23.2093   24.8841 C   0  0  0  0  0  0  0  0  0  0  0  0
  -30.2394  -13.8247   22.1348 C   0  0  0  0  0  0  0  0  0  0  0  0
  -20.4567  -23.6248   23.4627 C   0  0  0  0  0  0  0  0  0  0  0  0
  -28.7614  -13.5467   22.4072 C   0  0  0  0  0  0  0  0  0  0  0  0
  -30.5464  -15.3134   22.2504 C   0  0  0  0  0  0  0  0  0  0  0  0
  -28.2280  -15.9052   21.6191 C   0  0  0  0  0  0  0  0  0  0  0  0
  -21.9714  -23.5462   23.2373 C   0  0  1  0  0  0  0  0  0  0  0  0
  -23.4802  -26.9465   24.0082 C   0  0  1  0  0  0  0  0  0  0  0  0
  -27.8617  -14.4116   21.5069 C   0  0  2  0  0  0  0  0  0  0  0  0
  -23.3185  -34.6557   23.2696 C   0  0  0  0  0  0  0  0  0  0  0  0
  -20.6628  -29.0305   20.9949 C   0  0  0  0  0  0  0  0  0  0  0  0
  -20.9695  -31.5045   20.7648 C   0  0  0  0  0  0  0  0  0  0  0  0
  -19.8718  -30.5697   22.8004 C   0  0  0  0  0  0  0  0  0  0  0  0
  -26.0770  -32.5849   24.8753 C   0  0  0  0  0  0  0  0  0  0  0  0
  -28.9825  -26.3711   17.8191 C   0  0  0  0  0  0  0  0  0  0  0  0
  -28.1293  -27.0742   18.8615 C   0  0  0  0  0  0  0  0  0  1  0  0
  -22.3631  -30.2728   22.4887 C   0  0  1  0  0  0  0  0  0  0  0  0
  -23.9301  -33.4188   23.9090 C   0  0  2  0  0  0  0  0  0  0  0  0
  -20.9893  -30.3270   21.7626 C   0  0  0  0  0  0  0  0  0  0  0  0
  -25.7564  -14.9561   22.6706 N   0  0  0  0  0  0  0  0  0  0  0  0
  -26.3895  -14.1691   21.7841 N   0  0  0  0  0  0  0  0  0  0  0  0
  -30.1634  -21.6982   16.7704 N   0  0  0  0  0  0  0  0  0  0  0  0
  -23.4658  -28.1830   23.2239 N   0  0  0  0  0  0  0  0  0  0  0  0
  -29.6681  -16.1006   21.3843 N   0  0  0  0  0  0  0  0  0  0  0  0
  -26.0669  -12.3395   20.3147 N   0  0  0  0  0  0  0  0  0  0  0  0
  -21.9880  -12.9225   22.1638 N   0  0  0  0  0  0  0  0  0  0  0  0
  -28.9663  -24.9428   18.0378 N   0  0  0  0  0  0  0  0  0  0  0  0
  -22.6313  -24.6865   23.8360 N   0  0  0  0  0  0  0  0  0  0  0  0
  -22.6865  -31.4770   23.2462 N   0  0  0  0  0  0  0  0  0  0  0  0
  -29.5734  -17.9892   19.8977 N   0  0  0  0  0  0  0  0  0  0  0  0
  -25.3582  -33.7084   24.2211 N   0  3  0  0  0  0  0  0  0  0  0  0
  -28.8741  -22.2996   18.6280 O   0  0  0  0  0  0  0  0  0  0  0  0
  -23.1998  -11.6498   20.6905 O   0  0  0  0  0  0  0  0  0  0  0  0
  -22.3533  -26.1872   22.0773 O   0  0  0  0  0  0  0  0  0  0  0  0
  -21.6611  -29.0664   24.4065 O   0  0  0  0  0  0  0  0  0  0  0  0
  -24.6648  -31.9534   22.1341 O   0  0  0  0  0  0  0  0  0  0  0  0
  -31.2096  -16.3556   19.6779 O   0  0  0  0  0  0  0  0  0  0  0  0
  -31.7656  -23.9443   14.3448 O   0  0  0  0  0  0  0  0  0  0  0  0
  -20.6039  -16.7791   25.9381 O   0  0  0  0  0  0  0  0  0  0  0  0
  -28.6370  -26.7870   20.1639 O   0  0  0  0  0  0  0  0  0  1  0  0
  -15.6524  -17.7622   23.7198 F   0  0  0  0  0  0  0  0  0  0  0  0
  -19.0792  -14.7186   24.9028 F   0  0  0  0  0  0  0  0  0  0  0  0
  1  2  1  0  0  0  0
  1  6  2  0  0  0  0
  2  7  2  0  0  0  0
  3  9  1  0  0  0  0
  3 10  2  0  0  0  0
  4 11  2  0  0  0  0
  4 19  1  0  0  0  0
  5 12  1  0  0  0  0
  5 19  2  0  0  0  0
  6 21  1  0  0  0  0
  7 23  1  0  0  0  0
  8 13  2  0  0  0  0
  8 22  1  0  0  0  0
  9 25  2  0  0  0  0
 10 26  1  0  0  0  0
 11 27  1  0  0  0  0
 12 27  2  0  0  0  0
 13 28  1  0  0  0  0
 14 15  2  0  0  0  0
 14 29  1  0  0  0  0
 15 30  1  0  0  0  0
 16 24  1  0  0  0  0
 16 28  2  0  0  0  0
 17 25  1  0  0  0  0
 17 26  2  0  0  0  0
 18 30  2  0  0  0  0
 18 31  1  0  0  0  0
 19 32  1  0  0  0  0
 20 32  1  0  0  0  0
 20 33  2  0  0  0  0
 20 41  1  0  0  0  0
 21 23  2  0  0  0  0
 21 46  1  0  0  0  0
 22 24  2  0  0  0  0
 22 47  1  0  0  0  0
 23 55  1  0  0  0  0
 24 48  1  0  0  0  0
 25 70  1  0  0  0  0
 26 78  1  0  0  0  0
 27 87  1  0  0  0  0
 28 88  1  0  0  0  0
 29 31  2  0  0  0  0
 29 87  1  0  0  0  0
 30 89  1  0  0  0  0
 31 90  1  0  0  0  0
 32 68  2  0  0  0  0
 33 69  1  0  0  0  0
 33 73  1  0  0  0  0
 34 36  2  0  0  0  0
 34 37  1  0  0  0  0
 35 37  2  0  0  0  0
 35 70  1  0  0  0  0
 36 38  1  0  0  0  0
 36 75  1  0  0  0  0
 37 86  1  0  0  0  0
 38 70  1  0  0  0  0
 38 80  2  0  0  0  0
 39 40  2  0  0  0  0
 40 78  1  0  0  0  0
 41 74  1  0  0  0  0
 41 81  2  0  0  0  0
 42 56  1  0  0  0  0
 42 76  1  0  0  0  0
 42 82  2  0  0  0  0
 43 65  1  0  0  0  0
 43 71  1  0  0  0  0
 43 83  2  0  0  0  0
 44 66  1  0  0  0  0
 44 77  1  0  0  0  0
 44 84  2  0  0  0  0
 45 72  1  0  0  0  0
 45 78  1  0  0  0  0
 45 85  2  0  0  0  0
 46 49  1  0  0  0  0
 47 56  1  0  0  0  0
 48 71  1  0  0  0  0
 49 51  1  0  0  0  0
 50 52  1  0  0  0  0
 50 53  1  0  0  0  0
 51 55  1  0  0  0  0
 52 57  1  0  0  0  0
 53 72  1  0  0  0  0
 54 57  1  0  0  0  0
 54 72  1  0  0  0  0
 55 76  1  0  0  0  0
 56 71  1  0  0  0  0
 57 69  1  0  0  0  0
 58 66  1  0  0  0  0
 59 67  1  0  0  0  0
 60 67  1  0  0  0  0
 61 67  1  0  0  0  0
 62 79  1  0  0  0  0
 63 64  1  0  0  0  0
 63 75  1  0  0  0  0
 64 88  1  0  0  0  0
 65 67  1  0  0  0  0
 65 77  1  0  0  0  0
 66 79  1  0  0  0  0
 68 69  1  0  0  0  0
M  CHG  1  79   1
M  ISO  4  45 100  64 101  78 100  88 101
M  END
> <Batch ID>
0078

> <Smiles>
C=C[100N:0](c1cccc(N2CC(=O)C=C(NC[101CH2:1][101O:1]c3ccc4c(c3)CN(C(=O)C(NC(=O)C(C)NC)C(C)(C)C)C(C(=O)NC3CCCc5ccccc53)C4)C2=O)c1)[100C:0](=O)N1CCCC(n2nc(-c3ccc(Oc4ccc(F)cc4F)cc3)c(C(N)=O)c2N)C1

> <Shape>
0.196

> <Color>
0.077

> <Negative vol penalty>
0.000

$$$$

  -OEChem-04042323563D

 87 97  0     1  0  0  0  0  0999 V2000
  -26.3046  -38.3717   23.9658 C   0  0  0  0  0  0  0  0  0  0  0  0
  -27.0367  -37.5714   23.0946 C   0  0  0  0  0  0  0  0  0  0  0  0
  -22.5690  -11.4882   21.3198 C   0  0  0  0  0  0  0  0  0  0  0  0
  -24.0874   -9.8733   22.2808 C   0  0  0  0  0  0  0  0  0  0  0  0
  -25.5536  -37.7859   24.9841 C   0  0  0  0  0  0  0  0  0  0  0  0
  -27.0192  -36.1849   23.2420 C   0  0  0  0  0  0  0  0  0  0  0  0
  -27.3365  -30.1565   19.3853 C   0  0  0  0  0  0  0  0  0  0  0  0
  -28.1509  -19.4038   19.4232 C   0  0  0  0  0  0  0  0  0  0  0  0
  -30.5572  -19.1952   19.3663 C   0  0  0  0  0  0  0  0  0  0  0  0
  -28.0358  -18.0264   19.6104 C   0  0  0  0  0  0  0  0  0  0  0  0
  -30.4422  -17.8177   19.5535 C   0  0  0  0  0  0  0  0  0  0  0  0
  -21.6607  -11.2476   22.3507 C   0  0  0  0  0  0  0  0  0  0  0  0
  -23.1792   -9.6328   23.3118 C   0  0  0  0  0  0  0  0  0  0  0  0
  -28.0408  -28.9550   19.3208 C   0  0  0  0  0  0  0  0  0  0  0  0
  -20.3224   -7.8802   23.7566 C   0  0  0  0  0  0  0  0  0  0  0  0
  -20.0765   -6.5526   24.1070 C   0  0  0  0  0  0  0  0  0  0  0  0
  -26.6445  -28.0497   21.0672 C   0  0  0  0  0  0  0  0  0  0  0  0
  -20.8596   -6.9993   26.3485 C   0  0  0  0  0  0  0  0  0  0  0  0
  -23.7824  -10.8010   21.2848 C   0  0  0  0  0  0  0  0  0  0  0  0
  -24.5084  -10.8664   18.8402 C   0  0  0  0  0  0  0  0  0  0  0  0
  -25.5192  -36.3910   25.1380 C   0  0  0  0  0  0  0  0  0  0  0  0
  -26.2862  -30.3176   20.3004 C   0  0  0  0  0  0  0  0  0  0  0  0
  -26.2682  -35.5800   24.2641 C   0  0  0  0  0  0  0  0  0  0  0  0
  -25.9268  -29.2533   21.1396 C   0  0  0  0  0  0  0  0  0  0  0  0
  -29.4115  -19.9882   19.3011 C   0  0  0  0  0  0  0  0  0  0  0  0
  -29.1815  -17.2334   19.6756 C   0  0  0  0  0  0  0  0  0  0  0  0
  -21.9658  -10.3199   23.3467 C   0  0  0  0  0  0  0  0  0  0  0  0
  -27.6967  -27.9023   20.1638 C   0  0  0  0  0  0  0  0  0  0  0  0
  -20.8369   -8.7673   24.7021 C   0  0  0  0  0  0  0  0  0  0  0  0
  -20.3450   -6.1122   25.4030 C   0  0  0  0  0  0  0  0  0  0  0  0
  -21.1055   -8.3268   25.9981 C   0  0  0  0  0  0  0  0  0  0  0  0
  -24.7208  -11.0486   20.2199 C   0  0  0  0  0  0  0  0  0  0  0  0
  -25.6952  -11.2393   18.2580 C   0  0  0  0  0  0  0  0  0  0  0  0
  -30.1009  -25.2619   19.2506 C   0  0  0  0  0  0  0  0  0  0  0  0
  -29.9083  -24.0641   18.6586 C   0  0  0  0  0  0  0  0  0  0  0  0
  -31.0509  -24.6713   20.2209 C   0  0  0  0  0  0  0  0  0  0  0  0
  -23.3426  -10.4018   18.1469 C   0  0  0  0  0  0  0  0  0  0  0  0
  -25.7382  -32.2425   22.7699 C   0  0  0  0  0  0  0  0  0  0  0  0
  -22.8223  -30.8218   22.7304 C   0  0  0  0  0  0  0  0  0  0  0  0
  -20.9274  -28.1200   21.8606 C   0  0  0  0  0  0  0  0  0  0  0  0
  -30.0999  -14.9040   19.9531 C   0  0  0  0  0  0  0  0  0  0  0  0
  -24.7307  -35.8063   26.2830 C   0  0  0  0  0  0  0  0  0  0  0  0
  -25.5190  -31.6108   20.3390 C   0  0  0  0  0  0  0  0  0  0  0  0
  -24.7940  -29.3685   22.1255 C   0  0  0  0  0  0  0  0  0  0  0  0
  -28.9406  -23.3764   17.6884 C   0  0  0  0  0  0  0  0  0  0  0  0
  -24.4669  -34.3096   26.1392 C   0  0  0  0  0  0  0  0  0  0  0  0
  -30.3971  -11.4498   19.1427 C   0  0  0  0  0  0  0  0  0  0  0  0
  -25.7436  -33.5788   25.7357 C   0  0  0  0  0  0  0  0  0  0  0  0
  -28.9551  -10.9396   19.1954 C   0  0  0  0  0  0  0  0  0  0  0  0
  -28.4441  -22.0958   18.3954 C   0  0  0  0  0  0  0  0  0  0  0  0
  -30.6671  -12.4993   20.2193 C   0  0  0  0  0  0  0  0  0  0  0  0
  -30.3068  -22.1232   20.1314 C   0  0  0  0  0  0  0  0  0  0  0  0
  -28.2828  -13.1153   20.2915 C   0  0  0  0  0  0  0  0  0  0  0  0
  -26.2548  -34.0709   24.3763 C   0  0  1  0  0  0  0  0  0  0  0  0
  -30.9577  -23.3378   19.4797 C   0  0  1  0  0  0  0  0  0  0  0  0
  -24.8017  -31.8406   21.6657 C   0  0  1  0  0  0  0  0  0  0  0  0
  -27.9448  -12.1036   19.1844 C   0  0  2  0  0  0  0  0  0  0  0  0
  -18.5839  -27.2325   21.9938 C   0  0  0  0  0  0  0  0  0  0  0  0
  -23.2423  -30.1624   25.6797 C   0  0  0  0  0  0  0  0  0  0  0  0
  -21.3756  -28.5033   25.5028 C   0  0  0  0  0  0  0  0  0  0  0  0
  -20.9322  -30.9249   25.1000 C   0  0  0  0  0  0  0  0  0  0  0  0
  -20.6805  -28.0029   18.9137 C   0  0  0  0  0  0  0  0  0  0  0  0
  -29.4439  -26.6449   19.1527 C   0  0  0  0  0  0  0  0  0  1  0  0
  -22.2208  -29.5974   23.3768 C   0  0  1  0  0  0  0  0  0  0  0  0
  -19.5856  -28.0148   21.1586 C   0  0  2  0  0  0  0  0  0  0  0  0
  -21.9654  -29.7952   24.8977 C   0  0  0  0  0  0  0  0  0  0  0  0
  -25.9461  -11.5019   20.4976 N   0  0  0  0  0  0  0  0  0  0  0  0
  -26.5145  -11.6075   19.2843 N   0  0  0  0  0  0  0  0  0  0  0  0
  -29.5272  -21.3711   19.1112 N   0  0  1  0  0  0  0  0  0  0  0  0
  -24.0782  -30.6551   22.1298 N   0  0  0  0  0  0  0  0  0  0  0  0
  -29.6736  -13.5728   20.1452 N   0  0  0  0  0  0  0  0  0  0  0  0
  -26.1075  -11.2848   16.9733 N   0  0  0  0  0  0  0  0  0  0  0  0
  -23.2076   -9.0263   17.9141 N   0  0  0  0  0  0  0  0  0  0  0  0
  -29.0646  -15.8341   19.8658 N   0  0  0  0  0  0  0  0  0  0  0  0
  -25.4766  -33.4901   23.3033 N   0  0  0  0  0  0  0  0  0  0  0  0
  -21.0242  -29.2754   22.6069 N   0  0  0  0  0  0  0  0  0  0  0  0
  -19.7405  -27.3278   19.8452 N   0  3  0  0  0  0  0  0  0  0  0  0
  -31.6343  -25.1025   21.1927 O   0  0  0  0  0  0  0  0  0  0  0  0
  -22.4551  -11.1848   17.7314 O   0  0  0  0  0  0  0  0  0  0  0  0
  -26.6311  -31.4767   23.1135 O   0  0  0  0  0  0  0  0  0  0  0  0
  -22.1976  -31.8852   22.7511 O   0  0  0  0  0  0  0  0  0  0  0  0
  -21.8009  -27.2612   21.7601 O   0  0  0  0  0  0  0  0  0  0  0  0
  -31.2942  -15.1937   19.8448 O   0  0  0  0  0  0  0  0  0  0  0  0
  -21.0798  -10.0851   24.3529 O   0  0  0  0  0  0  0  0  0  0  0  0
  -28.3829  -26.7287   20.1033 O   0  0  0  0  0  0  0  0  0  1  0  0
  -20.1074   -4.8377   25.7398 F   0  0  0  0  0  0  0  0  0  0  0  0
  -21.5988   -9.1747   26.9111 F   0  0  0  0  0  0  0  0  0  0  0  0
  1  2  1  0  0  0  0
  1  5  2  0  0  0  0
  2  6  2  0  0  0  0
  3 12  2  0  0  0  0
  3 19  1  0  0  0  0
  4 13  1  0  0  0  0
  4 19  2  0  0  0  0
  5 21  1  0  0  0  0
  6 23  1  0  0  0  0
  7 14  2  0  0  0  0
  7 22  1  0  0  0  0
  8 10  2  0  0  0  0
  8 25  1  0  0  0  0
  9 11  1  0  0  0  0
  9 25  2  0  0  0  0
 10 26  1  0  0  0  0
 11 26  2  0  0  0  0
 12 27  1  0  0  0  0
 13 27  2  0  0  0  0
 14 28  1  0  0  0  0
 15 16  2  0  0  0  0
 15 29  1  0  0  0  0
 16 30  1  0  0  0  0
 17 24  1  0  0  0  0
 17 28  2  0  0  0  0
 18 30  2  0  0  0  0
 18 31  1  0  0  0  0
 19 32  1  0  0  0  0
 20 32  1  0  0  0  0
 20 33  2  0  0  0  0
 20 37  1  0  0  0  0
 21 23  2  0  0  0  0
 21 42  1  0  0  0  0
 22 24  2  0  0  0  0
 22 43  1  0  0  0  0
 23 54  1  0  0  0  0
 24 44  1  0  0  0  0
 25 69  1  0  0  0  0
 26 74  1  0  0  0  0
 27 84  1  0  0  0  0
 28 85  1  0  0  0  0
 29 31  2  0  0  0  0
 29 84  1  0  0  0  0
 30 86  1  0  0  0  0
 31 87  1  0  0  0  0
 32 67  2  0  0  0  0
 33 68  1  0  0  0  0
 33 72  1  0  0  0  0
 34 35  2  0  0  0  0
 34 36  1  0  0  0  0
 34 63  1  0  0  0  0
 35 45  1  0  0  0  0
 35 55  1  0  0  0  0
 36 55  1  0  0  0  0
 36 78  2  0  0  0  0
 37 73  1  0  0  0  0
 37 79  2  0  0  0  0
 38 56  1  0  0  0  0
 38 75  1  0  0  0  0
 38 80  2  0  0  0  0
 39 64  1  0  0  0  0
 39 70  1  0  0  0  0
 39 81  2  0  0  0  0
 40 65  1  0  0  0  0
 40 76  1  0  0  0  0
 40 82  2  0  0  0  0
 41 71  1  0  0  0  0
 41 74  1  0  0  0  0
 41 83  2  0  0  0  0
 42 46  1  0  0  0  0
 43 56  1  0  0  0  0
 44 70  1  0  0  0  0
 45 50  1  0  0  0  0
 46 48  1  0  0  0  0
 47 49  1  0  0  0  0
 47 51  1  0  0  0  0
 48 54  1  0  0  0  0
 49 57  1  0  0  0  0
 50 69  1  0  0  0  0
 51 71  1  0  0  0  0
 52 55  1  0  0  0  0
 52 69  1  0  0  0  0
 53 57  1  0  0  0  0
 53 71  1  0  0  0  0
 54 75  1  0  0  0  0
 56 70  1  0  0  0  0
 57 68  1  0  0  0  0
 58 65  1  0  0  0  0
 59 66  1  0  0  0  0
 60 66  1  0  0  0  0
 61 66  1  0  0  0  0
 62 77  1  0  0  0  0
 63 85  1  0  0  0  0
 64 66  1  0  0  0  0
 64 76  1  0  0  0  0
 65 77  1  0  0  0  0
 67 68  1  0  0  0  0
M  CHG  1  77   1
M  ISO  4  41 100  63 101  74 100  85 101
M  END
> <Batch ID>
0078

> <Smiles>
CNC(C)C(=O)NC(C(=O)N1Cc2cc([101O:1][101CH2:1]C3C(=O)C4=C3CCN(c3ccc([100NH:0][100C:0](=O)N5CCCC(n6nc(-c7ccc(Oc8ccc(F)cc8F)cc7)c(C(N)=O)c6N)C5)cc3)C4)ccc2CC1C(=O)NC1CCCc2ccccc21)C(C)(C)C

> <Shape>
0.353

> <Color>
0.104

> <Negative vol penalty>
0.000

$$$$

  -OEChem-04042323563D

 83 91  0     1  0  0  0  0  0999 V2000
  -28.3294  -21.6948   27.9445 C   0  0  0  0  0  0  0  0  0  0  0  0
  -28.4368  -22.1685   26.6408 C   0  0  0  0  0  0  0  0  0  0  0  0
  -27.4002  -11.8255   21.4523 C   0  0  0  0  0  0  0  0  0  0  0  0
  -27.5888  -12.2712   19.0853 C   0  0  0  0  0  0  0  0  0  0  0  0
  -27.0799  -21.6262   28.5593 C   0  0  0  0  0  0  0  0  0  0  0  0
  -27.2945  -22.5728   25.9508 C   0  0  0  0  0  0  0  0  0  0  0  0
  -27.9596  -26.9466   23.4866 C   0  0  0  0  0  0  0  0  0  0  0  0
  -26.5614  -10.7443   21.1820 C   0  0  0  0  0  0  0  0  0  0  0  0
  -26.7501  -11.1899   18.8149 C   0  0  0  0  0  0  0  0  0  0  0  0
  -28.6611  -26.8988   22.2827 C   0  0  0  0  0  0  0  0  0  0  0  0
  -24.0810   -8.0856   21.1320 C   0  0  0  0  0  0  0  0  0  0  0  0
  -22.9287   -7.9475   21.9056 C   0  0  0  0  0  0  0  0  0  0  0  0
  -30.0178  -21.9303   15.5469 C   0  0  0  0  0  0  0  0  0  0  0  0
  -29.2444  -21.7955   17.8318 C   0  0  0  0  0  0  0  0  0  0  0  0
  -26.5756  -26.9604   21.0719 C   0  0  0  0  0  0  0  0  0  0  0  0
  -28.8729  -19.9482   16.3197 C   0  0  0  0  0  0  0  0  0  0  0  0
  -22.1619  -10.1103   21.1497 C   0  0  0  0  0  0  0  0  0  0  0  0
  -27.9138  -12.5890   20.4040 C   0  0  0  0  0  0  0  0  0  0  0  0
  -29.8839  -22.5012   16.8125 C   0  0  0  0  0  0  0  0  0  0  0  0
  -30.1833  -13.6878   20.7908 C   0  0  0  0  0  0  0  0  0  0  0  0
  -25.9229  -22.0390   27.8799 C   0  0  0  0  0  0  0  0  0  0  0  0
  -26.5580  -26.9907   23.4924 C   0  0  0  0  0  0  0  0  0  0  0  0
  -26.0282  -22.5084   26.5567 C   0  0  0  0  0  0  0  0  0  0  0  0
  -25.8588  -27.0113   22.2772 C   0  0  0  0  0  0  0  0  0  0  0  0
  -29.5123  -20.6538   15.3005 C   0  0  0  0  0  0  0  0  0  0  0  0
  -28.7389  -20.5190   17.5854 C   0  0  0  0  0  0  0  0  0  0  0  0
  -26.2364  -10.4265   19.8633 C   0  0  0  0  0  0  0  0  0  0  0  0
  -27.9691  -26.9028   21.0752 C   0  0  0  0  0  0  0  0  0  0  0  0
  -24.2739   -9.2361   20.3672 C   0  0  0  0  0  0  0  0  0  0  0  0
  -21.9691   -8.9598   21.9145 C   0  0  0  0  0  0  0  0  0  0  0  0
  -23.3144  -10.2484   20.3761 C   0  0  0  0  0  0  0  0  0  0  0  0
  -28.7799  -13.7063   20.6827 C   0  0  0  0  0  0  0  0  0  0  0  0
  -30.5240  -14.9904   21.0624 C   0  0  0  0  0  0  0  0  0  0  0  0
  -30.1171  -25.6069   18.5283 C   0  0  0  0  0  0  0  0  0  0  0  0
  -30.4258  -23.8658   17.0762 C   0  0  0  0  0  0  0  0  0  0  0  0
  -31.0974  -12.5912   20.6577 C   0  0  0  0  0  0  0  0  0  0  0  0
  -24.2588  -25.0968   24.6017 C   0  0  0  0  0  0  0  0  0  0  0  0
  -22.3358  -27.5375   23.6701 C   0  0  0  0  0  0  0  0  0  0  0  0
  -21.8715  -30.2540   21.6572 C   0  0  0  0  0  0  0  0  0  0  0  0
  -27.8716  -20.2241   19.9321 C   0  0  0  0  0  0  0  0  0  0  0  0
  -24.5885  -21.9019   28.5692 C   0  0  0  0  0  0  0  0  0  0  0  0
  -25.8171  -27.0688   24.7990 C   0  0  0  0  0  0  0  0  0  0  0  0
  -24.3549  -27.0782   22.2287 C   0  0  0  0  0  0  0  0  0  0  0  0
  -23.4729  -22.7016   27.9012 C   0  0  0  0  0  0  0  0  0  0  0  0
  -28.8090  -18.9576   23.1249 C   0  0  0  0  0  0  0  0  0  0  0  0
  -23.4948  -22.4896   26.3908 C   0  0  0  0  0  0  0  0  0  0  0  0
  -29.0416  -17.4667   22.8695 C   0  0  0  0  0  0  0  0  0  0  0  0
  -27.6444  -19.4997   22.2982 C   0  0  0  0  0  0  0  0  0  0  0  0
  -27.9618  -17.7423   20.6013 C   0  0  0  0  0  0  0  0  0  0  0  0
  -24.8152  -22.9795   25.7841 C   0  0  1  0  0  0  0  0  0  0  0  0
  -24.3716  -26.5922   24.6956 C   0  0  1  0  0  0  0  0  0  0  0  0
  -29.1663  -17.1657   21.3631 C   0  0  2  0  0  0  0  0  0  0  0  0
  -20.1838  -32.0243   21.0958 C   0  0  0  0  0  0  0  0  0  0  0  0
  -20.7299  -25.4956   22.0695 C   0  0  0  0  0  0  0  0  0  0  0  0
  -19.6920  -27.3981   20.8160 C   0  0  0  0  0  0  0  0  0  0  0  0
  -19.3480  -27.1937   23.2783 C   0  0  0  0  0  0  0  0  0  0  0  0
  -23.6957  -32.4253   22.5037 C   0  0  0  0  0  0  0  0  0  0  0  0
  -29.9043  -26.1726   19.9014 C   0  0  0  0  0  0  0  0  0  1  0  0
  -21.6099  -27.9006   22.3972 C   0  0  1  0  0  0  0  0  0  0  0  0
  -21.3818  -31.6589   21.9585 C   0  0  2  0  0  0  0  0  0  0  0  0
  -20.3732  -26.9938   22.1409 C   0  0  0  0  0  0  0  0  0  0  0  0
  -28.2643  -14.9241   20.8704 N   0  0  0  0  0  0  0  0  0  0  0  0
  -30.2387  -24.3326   18.3597 N   0  0  0  0  0  0  0  0  0  0  0  0
  -29.3496  -15.6829   21.0993 N   0  0  0  0  0  0  0  0  0  0  0  0
  -23.6753  -27.1468   23.5329 N   0  0  0  0  0  0  0  0  0  0  0  0
  -27.8332  -19.1809   20.8813 N   0  0  0  0  0  0  0  0  0  0  0  0
  -29.6471  -20.0765   14.0208 N   0  0  0  0  0  0  0  0  0  0  0  0
  -31.7106  -15.5994   21.2709 N   0  0  0  0  0  0  0  0  0  0  0  0
  -30.5789  -11.3195   20.3777 N   0  0  0  0  0  0  0  0  0  0  0  0
  -28.0888  -19.8026   18.6207 N   0  0  0  0  0  0  0  0  0  0  0  0
  -24.8152  -24.4223   25.6717 N   0  0  0  0  0  0  0  0  0  0  0  0
  -21.2981  -29.3223   22.4966 N   0  0  0  0  0  0  0  0  0  0  0  0
  -22.4645  -32.6507   21.7034 N   0  3  0  0  0  0  0  0  0  0  0  0
  -30.9844  -24.4660   16.1619 O   0  0  0  0  0  0  0  0  0  0  0  0
  -32.3358  -12.7317   20.7995 O   0  0  0  0  0  0  0  0  0  0  0  0
  -23.7064  -24.5924   23.6311 O   0  0  0  0  0  0  0  0  0  0  0  0
  -21.7384  -27.6050   24.7472 O   0  0  0  0  0  0  0  0  0  0  0  0
  -22.6789  -30.0072   20.7641 O   0  0  0  0  0  0  0  0  0  0  0  0
  -27.7499  -21.4066   20.2621 O   0  0  0  0  0  0  0  0  0  0  0  0
  -25.4182   -9.3714   19.5990 O   0  0  0  0  0  0  0  0  0  0  0  0
  -28.6513  -26.8556   19.8987 O   0  0  0  0  0  0  0  0  0  1  0  0
  -20.8618   -8.8263   22.6563 F   0  0  0  0  0  0  0  0  0  0  0  0
  -23.4935  -11.3555   19.6425 F   0  0  0  0  0  0  0  0  0  0  0  0
  1  2  1  0  0  0  0
  1  5  2  0  0  0  0
  2  6  2  0  0  0  0
  3  8  2  0  0  0  0
  3 18  1  0  0  0  0
  4  9  1  0  0  0  0
  4 18  2  0  0  0  0
  5 21  1  0  0  0  0
  6 23  1  0  0  0  0
  7 10  2  0  0  0  0
  7 22  1  0  0  0  0
  8 27  1  0  0  0  0
  9 27  2  0  0  0  0
 10 28  1  0  0  0  0
 11 12  2  0  0  0  0
 11 29  1  0  0  0  0
 12 30  1  0  0  0  0
 13 19  1  0  0  0  0
 13 25  2  0  0  0  0
 14 19  2  0  0  0  0
 14 26  1  0  0  0  0
 15 24  1  0  0  0  0
 15 28  2  0  0  0  0
 16 25  1  0  0  0  0
 16 26  2  0  0  0  0
 17 30  2  0  0  0  0
 17 31  1  0  0  0  0
 18 32  1  0  0  0  0
 19 35  1  0  0  0  0
 20 32  1  0  0  0  0
 20 33  2  0  0  0  0
 20 36  1  0  0  0  0
 21 23  2  0  0  0  0
 21 41  1  0  0  0  0
 22 24  2  0  0  0  0
 22 42  1  0  0  0  0
 23 50  1  0  0  0  0
 24 43  1  0  0  0  0
 25 67  1  0  0  0  0
 26 70  1  0  0  0  0
 27 80  1  0  0  0  0
 28 81  1  0  0  0  0
 29 31  2  0  0  0  0
 29 80  1  0  0  0  0
 30 82  1  0  0  0  0
 31 83  1  0  0  0  0
 32 62  2  0  0  0  0
 33 64  1  0  0  0  0
 33 68  1  0  0  0  0
 34 58  1  0  0  0  0
 34 63  2  0  0  0  0
 35 63  1  0  0  0  0
 35 74  2  0  0  0  0
 36 69  1  0  0  0  0
 36 75  2  0  0  0  0
 37 51  1  0  0  0  0
 37 71  1  0  0  0  0
 37 76  2  0  0  0  0
 38 59  1  0  0  0  0
 38 65  1  0  0  0  0
 38 77  2  0  0  0  0
 39 60  1  0  0  0  0
 39 72  1  0  0  0  0
 39 78  2  0  0  0  0
 40 66  1  0  0  0  0
 40 70  1  0  0  0  0
 40 79  2  0  0  0  0
 41 44  1  0  0  0  0
 42 51  1  0  0  0  0
 43 65  1  0  0  0  0
 44 46  1  0  0  0  0
 45 47  1  0  0  0  0
 45 48  1  0  0  0  0
 46 50  1  0  0  0  0
 47 52  1  0  0  0  0
 48 66  1  0  0  0  0
 49 52  1  0  0  0  0
 49 66  1  0  0  0  0
 50 71  1  0  0  0  0
 51 65  1  0  0  0  0
 52 64  1  0  0  0  0
 53 60  1  0  0  0  0
 54 61  1  0  0  0  0
 55 61  1  0  0  0  0
 56 61  1  0  0  0  0
 57 73  1  0  0  0  0
 58 81  1  0  0  0  0
 59 61  1  0  0  0  0
 59 72  1  0  0  0  0
 60 73  1  0  0  0  0
 62 64  1  0  0  0  0
M  CHG  1  73   1
M  ISO  4  40 100  58 101  70 100  81 101
M  END
> <Batch ID>
0078

> <Smiles>
CNC(C)C(=O)NC(C(=O)N1Cc2cc([101O:1][101CH:1]=CNC(=O)c3cc(N)cc([100NH:0][100C:0](=O)N4CCCC(n5nc(-c6ccc(Oc7ccc(F)cc7F)cc6)c(C(N)=O)c5N)C4)c3)ccc2CC1C(=O)NC1CCCc2ccccc21)C(C)(C)C

> <Shape>
0.241

> <Color>
0.056

> <Negative vol penalty>
0.000

$$$$

  -OEChem-04042323563D

 87 96  0     1  0  0  0  0  0999 V2000
  -27.1839  -29.0442   29.0326 C   0  0  0  0  0  0  0  0  0  0  0  0
  -27.3022  -28.3126   27.8552 C   0  0  0  0  0  0  0  0  0  0  0  0
  -30.3564  -19.6177   20.3650 C   0  0  0  0  0  0  0  0  0  0  0  0
  -23.9352   -8.6494   19.5773 C   0  0  0  0  0  0  0  0  0  0  0  0
  -23.2887  -10.3133   21.2053 C   0  0  0  0  0  0  0  0  0  0  0  0
  -26.0841  -29.8790   29.2258 C   0  0  0  0  0  0  0  0  0  0  0  0
  -26.3200  -28.4147   26.8706 C   0  0  0  0  0  0  0  0  0  0  0  0
  -27.1451  -28.1660   20.8074 C   0  0  0  0  0  0  0  0  0  0  0  0
  -29.3304  -20.4040   19.8409 C   0  0  0  0  0  0  0  0  0  0  0  0
  -30.3193  -18.2314   20.2141 C   0  0  0  0  0  0  0  0  0  0  0  0
  -23.1134   -7.7144   20.2066 C   0  0  0  0  0  0  0  0  0  0  0  0
  -22.4669   -9.3783   21.8346 C   0  0  0  0  0  0  0  0  0  0  0  0
  -26.9909  -27.1353   19.8813 C   0  0  0  0  0  0  0  0  0  0  0  0
  -19.8165   -6.9726   20.3204 C   0  0  0  0  0  0  0  0  0  0  0  0
  -19.0009   -6.1794   19.5135 C   0  0  0  0  0  0  0  0  0  0  0  0
  -24.7763  -27.9395   19.3639 C   0  0  0  0  0  0  0  0  0  0  0  0
  -20.0894   -4.1966   20.3625 C   0  0  0  0  0  0  0  0  0  0  0  0
  -24.0229   -9.9489   20.0767 C   0  0  0  0  0  0  0  0  0  0  0  0
  -24.5178  -11.7953   18.3874 C   0  0  0  0  0  0  0  0  0  0  0  0
  -25.0928  -29.9988   28.2390 C   0  0  0  0  0  0  0  0  0  0  0  0
  -26.1101  -29.0863   21.0270 C   0  0  0  0  0  0  0  0  0  0  0  0
  -25.2052  -29.2510   27.0514 C   0  0  0  0  0  0  0  0  0  0  0  0
  -24.9208  -28.9825   20.2915 C   0  0  0  0  0  0  0  0  0  0  0  0
  -28.2673  -19.8041   19.1660 C   0  0  0  0  0  0  0  0  0  0  0  0
  -29.2562  -17.6316   19.5391 C   0  0  0  0  0  0  0  0  0  0  0  0
  -22.3793   -8.0788   21.3352 C   0  0  0  0  0  0  0  0  0  0  0  0
  -25.8053  -27.0202   19.1615 C   0  0  0  0  0  0  0  0  0  0  0  0
  -20.7687   -6.3779   21.1483 C   0  0  0  0  0  0  0  0  0  0  0  0
  -19.1373   -4.7914   19.5346 C   0  0  0  0  0  0  0  0  0  0  0  0
  -20.9050   -4.9899   21.1694 C   0  0  0  0  0  0  0  0  0  0  0  0
  -28.2301  -18.4179   19.0151 C   0  0  0  0  0  0  0  0  0  0  0  0
  -24.8720  -10.9151   19.4274 C   0  0  0  0  0  0  0  0  0  0  0  0
  -25.6681  -12.4989   18.1263 C   0  0  0  0  0  0  0  0  0  0  0  0
  -25.9274  -22.3794   18.0432 C   0  0  0  0  0  0  0  0  0  0  0  0
  -25.2611  -21.2024   17.5448 C   0  0  0  0  0  0  0  0  0  0  0  0
  -27.1858  -21.9923   18.7399 C   0  0  0  0  0  0  0  0  0  0  0  0
  -24.1110  -21.1238   16.8668 C   0  0  0  0  0  0  0  0  0  0  0  0
  -25.5615  -23.6625   17.9501 C   0  0  0  0  0  0  0  0  0  0  0  0
  -23.2612  -11.9620   17.7174 C   0  0  0  0  0  0  0  0  0  0  0  0
  -24.3114  -29.8857   23.5228 C   0  0  0  0  0  0  0  0  0  0  0  0
  -23.2298  -32.1890   21.5110 C   0  0  0  0  0  0  0  0  0  0  0  0
  -22.7476  -33.2376   18.2993 C   0  0  0  0  0  0  0  0  0  0  0  0
  -30.1610  -15.3009   19.8486 C   0  0  0  0  0  0  0  0  0  0  0  0
  -23.8983  -30.8778   28.5130 C   0  0  0  0  0  0  0  0  0  0  0  0
  -26.3023  -30.2082   22.0101 C   0  0  0  0  0  0  0  0  0  0  0  0
  -23.7871  -29.9569   20.4754 C   0  0  0  0  0  0  0  0  0  0  0  0
  -26.1055  -20.0245   17.9269 C   0  0  0  0  0  0  0  0  0  0  0  0
  -23.0914  -31.2163   27.2622 C   0  0  0  0  0  0  0  0  0  0  0  0
  -30.4173  -11.7523   19.7105 C   0  0  0  0  0  0  0  0  0  0  0  0
  -22.8492  -29.9626   26.4277 C   0  0  0  0  0  0  0  0  0  0  0  0
  -28.9683  -11.2906   19.5390 C   0  0  0  0  0  0  0  0  0  0  0  0
  -30.5199  -12.9690   20.6286 C   0  0  0  0  0  0  0  0  0  0  0  0
  -28.2122  -13.6392   20.0861 C   0  0  0  0  0  0  0  0  0  0  0  0
  -24.1730  -29.3539   25.9495 C   0  0  1  0  0  0  0  0  0  0  0  0
  -24.9865  -30.7836   22.5249 C   0  0  1  0  0  0  0  0  0  0  0  0
  -28.0516  -12.4558   19.1178 C   0  0  2  0  0  0  0  0  0  0  0  0
  -21.8060  -35.1471   16.9709 C   0  0  0  0  0  0  0  0  0  0  0  0
  -20.4032  -31.2060   22.1061 C   0  0  0  0  0  0  0  0  0  0  0  0
  -19.6158  -32.4653   20.0906 C   0  0  0  0  0  0  0  0  0  0  0  0
  -20.6427  -33.6933   22.0037 C   0  0  0  0  0  0  0  0  0  0  0  0
  -25.3687  -33.8142   17.0517 C   0  0  0  0  0  0  0  0  0  0  0  0
  -26.3498  -24.7971   18.5156 C   0  0  0  0  0  0  0  0  0  1  0  0
  -22.1120  -32.2877   20.5011 C   0  0  1  0  0  0  0  0  0  0  0  0
  -23.0516  -34.5579   17.6144 C   0  0  2  0  0  0  0  0  0  0  0  0
  -20.7139  -32.3934   21.1731 C   0  0  0  0  0  0  0  0  0  0  0  0
  -26.1476  -11.0456   19.8013 N   0  0  0  0  0  0  0  0  0  0  0  0
  -26.6050  -12.0159   18.9918 N   0  0  0  0  0  0  0  0  0  0  0  0
  -27.2457  -20.5915   18.6444 N   0  0  0  0  0  0  0  0  0  0  0  0
  -24.0208  -31.0328   21.4528 N   0  0  0  0  0  0  0  0  0  0  0  0
  -29.6274  -14.0338   20.1654 N   0  0  0  0  0  0  0  0  0  0  0  0
  -25.9595  -13.4774   17.2431 N   0  0  0  0  0  0  0  0  0  0  0  0
  -22.1827  -11.1577   18.1100 N   0  0  0  0  0  0  0  0  0  0  0  0
  -29.2219  -16.2231   19.3878 N   0  0  0  0  0  0  0  0  0  0  0  0
  -24.6998  -30.1055   24.8305 N   0  0  0  0  0  0  0  0  0  0  0  0
  -22.4442  -33.4122   19.6330 N   0  0  0  0  0  0  0  0  0  0  0  0
  -24.0822  -34.3666   16.5550 N   0  3  0  0  0  0  0  0  0  0  0  0
  -27.9751  -22.7557   19.2706 O   0  0  0  0  0  0  0  0  0  0  0  0
  -23.1041  -12.7881   16.7865 O   0  0  0  0  0  0  0  0  0  0  0  0
  -23.4971  -29.0561   23.1351 O   0  0  0  0  0  0  0  0  0  0  0  0
  -23.3994  -33.1073   22.3169 O   0  0  0  0  0  0  0  0  0  0  0  0
  -22.7729  -32.1598   17.7093 O   0  0  0  0  0  0  0  0  0  0  0  0
  -31.3667  -15.5413   19.9507 O   0  0  0  0  0  0  0  0  0  0  0  0
  -21.5771   -7.1667   21.9494 O   0  0  0  0  0  0  0  0  0  0  0  0
  -25.6520  -26.0147   18.2574 O   0  0  0  0  0  0  0  0  0  1  0  0
  -18.3529   -4.0296   18.7608 F   0  0  0  0  0  0  0  0  0  0  0  0
  -21.8171   -4.4127   21.9636 F   0  0  0  0  0  0  0  0  0  0  0  0
  -27.2068  -17.8408   18.3665 F   0  0  0  0  0  0  0  0  0  0  0  0
  1  2  1  0  0  0  0
  1  6  2  0  0  0  0
  2  7  2  0  0  0  0
  3  9  2  0  0  0  0
  3 10  1  0  0  0  0
  4 11  2  0  0  0  0
  4 18  1  0  0  0  0
  5 12  1  0  0  0  0
  5 18  2  0  0  0  0
  6 20  1  0  0  0  0
  7 22  1  0  0  0  0
  8 13  2  0  0  0  0
  8 21  1  0  0  0  0
  9 24  1  0  0  0  0
 10 25  2  0  0  0  0
 11 26  1  0  0  0  0
 12 26  2  0  0  0  0
 13 27  1  0  0  0  0
 14 15  2  0  0  0  0
 14 28  1  0  0  0  0
 15 29  1  0  0  0  0
 16 23  1  0  0  0  0
 16 27  2  0  0  0  0
 17 29  2  0  0  0  0
 17 30  1  0  0  0  0
 18 32  1  0  0  0  0
 19 32  1  0  0  0  0
 19 33  2  0  0  0  0
 19 39  1  0  0  0  0
 20 22  2  0  0  0  0
 20 44  1  0  0  0  0
 21 23  2  0  0  0  0
 21 45  1  0  0  0  0
 22 54  1  0  0  0  0
 23 46  1  0  0  0  0
 24 31  2  0  0  0  0
 24 68  1  0  0  0  0
 25 31  1  0  0  0  0
 25 73  1  0  0  0  0
 26 83  1  0  0  0  0
 27 84  1  0  0  0  0
 28 30  2  0  0  0  0
 28 83  1  0  0  0  0
 29 85  1  0  0  0  0
 30 86  1  0  0  0  0
 31 87  1  0  0  0  0
 32 66  2  0  0  0  0
 33 67  1  0  0  0  0
 33 71  1  0  0  0  0
 34 35  1  0  0  0  0
 34 36  1  0  0  0  0
 34 38  2  0  0  0  0
 35 37  2  0  0  0  0
 35 47  1  0  0  0  0
 36 68  1  0  0  0  0
 36 77  2  0  0  0  0
 38 62  1  0  0  0  0
 39 72  1  0  0  0  0
 39 78  2  0  0  0  0
 40 55  1  0  0  0  0
 40 74  1  0  0  0  0
 40 79  2  0  0  0  0
 41 63  1  0  0  0  0
 41 69  1  0  0  0  0
 41 80  2  0  0  0  0
 42 64  1  0  0  0  0
 42 75  1  0  0  0  0
 42 81  2  0  0  0  0
 43 70  1  0  0  0  0
 43 73  1  0  0  0  0
 43 82  2  0  0  0  0
 44 48  1  0  0  0  0
 45 55  1  0  0  0  0
 46 69  1  0  0  0  0
 47 68  1  0  0  0  0
 48 50  1  0  0  0  0
 49 51  1  0  0  0  0
 49 52  1  0  0  0  0
 50 54  1  0  0  0  0
 51 56  1  0  0  0  0
 52 70  1  0  0  0  0
 53 56  1  0  0  0  0
 53 70  1  0  0  0  0
 54 74  1  0  0  0  0
 55 69  1  0  0  0  0
 56 67  1  0  0  0  0
 57 64  1  0  0  0  0
 58 65  1  0  0  0  0
 59 65  1  0  0  0  0
 60 65  1  0  0  0  0
 61 76  1  0  0  0  0
 62 84  1  0  0  0  0
 63 65  1  0  0  0  0
 63 75  1  0  0  0  0
 64 76  1  0  0  0  0
 66 67  1  0  0  0  0
M  CHG  1  76   1
M  ISO  4  43 100  62 101  73 100  84 101
M  END
> <Batch ID>
0078

> <Smiles>
C=C1CN(c2cccc([100NH:0][100C:0](=O)N3CCCC(n4nc(-c5ccc(Oc6ccc(F)cc6F)cc5)c(C(N)=O)c4N)C3)c2F)C(=O)C1=C[101CH2:1][101O:1]c1ccc2c(c1)CN(C(=O)C(NC(=O)C(C)NC)C(C)(C)C)C(C(=O)NC1CCCc3ccccc31)C2

> <Shape>
0.224

> <Color>
0.123

> <Negative vol penalty>
0.000

$$$$

  -OEChem-04042323562D

  0  0  0     0  0  0  0  0  0999 V2000
M  END
$$$$

  -OEChem-04042323563D

 87 96  0     1  0  0  0  0  0999 V2000
  -29.7857  -11.4394   15.9637 C   0  0  0  0  0  0  0  0  0  0  0  0
  -29.0840  -12.6243   15.7661 C   0  0  0  0  0  0  0  0  0  0  0  0
  -22.6355  -21.8910   21.5222 C   0  0  0  0  0  0  0  0  0  0  0  0
  -20.8869  -21.6370   23.1698 C   0  0  0  0  0  0  0  0  0  0  0  0
  -30.0606  -11.0009   17.2583 C   0  0  0  0  0  0  0  0  0  0  0  0
  -28.6560  -13.3710   16.8633 C   0  0  0  0  0  0  0  0  0  0  0  0
  -30.7558  -20.2051   17.7445 C   0  0  0  0  0  0  0  0  0  0  0  0
  -23.3388  -20.8374   22.1061 C   0  0  0  0  0  0  0  0  0  0  0  0
  -21.5901  -20.5833   23.7537 C   0  0  0  0  0  0  0  0  0  0  0  0
  -30.9433  -21.5816   17.8725 C   0  0  0  0  0  0  0  0  0  0  0  0
  -22.7531  -17.5910   25.4601 C   0  0  0  0  0  0  0  0  0  0  0  0
  -22.0372  -16.4447   25.8048 C   0  0  0  0  0  0  0  0  0  0  0  0
  -24.6469  -31.4020   21.0869 C   0  0  0  0  0  0  0  0  0  0  0  0
  -25.7797  -30.7192   20.5573 C   0  0  0  0  0  0  0  0  0  0  0  0
  -29.7262  -21.5639   19.9621 C   0  0  0  0  0  0  0  0  0  0  0  0
  -21.3953  -16.1508   23.4942 C   0  0  0  0  0  0  0  0  0  0  0  0
  -21.4096  -22.2908   22.0541 C   0  0  0  0  0  0  0  0  0  0  0  0
  -20.2023  -23.4527   20.1305 C   0  0  0  0  0  0  0  0  0  0  0  0
  -29.6442  -11.7475   18.3717 C   0  0  0  0  0  0  0  0  0  0  0  0
  -30.0652  -19.4995   18.7338 C   0  0  0  0  0  0  0  0  0  0  0  0
  -28.9245  -12.9414   18.1740 C   0  0  0  0  0  0  0  0  0  0  0  0
  -29.5461  -20.1831   19.8455 C   0  0  0  0  0  0  0  0  0  0  0  0
  -22.8161  -20.1836   23.2218 C   0  0  0  0  0  0  0  0  0  0  0  0
  -30.4296  -22.2593   18.9785 C   0  0  0  0  0  0  0  0  0  0  0  0
  -22.7901  -18.0174   24.1325 C   0  0  0  0  0  0  0  0  0  0  0  0
  -21.3583  -15.7245   24.8218 C   0  0  0  0  0  0  0  0  0  0  0  0
  -22.1112  -17.2972   23.1495 C   0  0  0  0  0  0  0  0  0  0  0  0
  -20.6829  -23.3795   21.4517 C   0  0  0  0  0  0  0  0  0  0  0  0
  -23.6581  -30.5306   21.4876 C   0  0  0  0  0  0  0  0  0  0  0  0
  -19.5874  -24.6787   20.0563 C   0  0  0  0  0  0  0  0  0  0  0  0
  -25.6137  -29.3517   20.5736 C   0  0  0  0  0  0  0  0  0  0  0  0
  -28.4461  -27.8492   18.6878 C   0  0  0  0  0  0  0  0  0  0  0  0
  -28.4730  -26.4957   19.2262 C   0  0  0  0  0  0  0  0  0  0  0  0
  -28.9167  -28.1548   17.4680 C   0  0  0  0  0  0  0  0  0  0  0  0
  -29.5736  -25.7282   19.2425 C   0  0  0  0  0  0  0  0  0  0  0  0
  -20.3026  -22.4979   19.0656 C   0  0  0  0  0  0  0  0  0  0  0  0
  -22.3337  -30.8361   22.0871 C   0  0  0  0  0  0  0  0  0  0  0  0
  -28.7928  -16.1833   19.9420 C   0  0  0  0  0  0  0  0  0  0  0  0
  -29.8659  -17.6747   22.3985 C   0  0  0  0  0  0  0  0  0  0  0  0
  -31.2174  -18.5527   25.4051 C   0  0  0  0  0  0  0  0  0  0  0  0
  -20.2826  -29.7956   23.0003 C   0  0  0  0  0  0  0  0  0  0  0  0
  -29.9235  -11.2091   19.7526 C   0  0  0  0  0  0  0  0  0  0  0  0
  -29.7863  -18.0264   18.6069 C   0  0  0  0  0  0  0  0  0  0  0  0
  -28.7799  -19.3886   20.8676 C   0  0  0  0  0  0  0  0  0  0  0  0
  -27.1602  -26.0370   19.8017 C   0  0  0  0  0  0  0  0  0  0  0  0
  -27.8114  -28.8881   19.5830 C   0  0  0  0  0  0  0  0  0  0  0  0
  -29.7612  -12.2505   20.8568 C   0  0  0  0  0  0  0  0  0  0  0  0
  -17.3083  -27.8975   22.7807 C   0  0  0  0  0  0  0  0  0  0  0  0
  -28.4634  -13.0297   20.6691 C   0  0  0  0  0  0  0  0  0  0  0  0
  -17.7873  -26.5324   22.2792 C   0  0  0  0  0  0  0  0  0  0  0  0
  -26.5577  -27.0694   20.7574 C   0  0  0  0  0  0  0  0  0  0  0  0
  -18.2986  -28.5202   23.7638 C   0  0  0  0  0  0  0  0  0  0  0  0
  -20.1594  -27.2388   22.7874 C   0  0  0  0  0  0  0  0  0  0  0  0
  -28.4650  -13.7918   19.3384 C   0  0  1  0  0  0  0  0  0  0  0  0
  -29.8060  -17.2899   19.9583 C   0  0  1  0  0  0  0  0  0  0  0  0
  -19.2305  -26.6021   21.7410 C   0  0  1  0  0  0  0  0  0  0  0  0
  -30.9691  -18.1494   27.8695 C   0  0  0  0  0  0  0  0  0  0  0  0
  -27.4127  -19.4867   22.4442 C   0  0  0  0  0  0  0  0  0  0  0  0
  -27.7867  -19.8123   24.8982 C   0  0  0  0  0  0  0  0  0  0  0  0
  -27.2979  -17.5354   24.0041 C   0  0  0  0  0  0  0  0  0  0  0  0
  -33.9510  -17.4383   25.6159 C   0  0  0  0  0  0  0  0  0  0  0  0
  -29.6138  -24.3405   19.7912 C   0  0  0  0  0  0  0  0  0  1  0  0
  -29.5566  -18.5818   23.5625 C   0  0  1  0  0  0  0  0  0  0  0  0
  -31.6680  -17.7172   26.5898 C   0  0  2  0  0  0  0  0  0  0  0  0
  -28.0340  -18.8603   23.7085 C   0  0  0  0  0  0  0  0  0  0  0  0
  -20.3980  -24.4720   22.1653 N   0  0  0  0  0  0  0  0  0  0  0  0
  -19.7318  -25.2434   21.2894 N   0  0  0  0  0  0  0  0  0  0  0  0
  -26.5346  -28.3956   20.1267 N   0  0  1  0  0  0  0  0  0  0  0  0
  -29.4661  -18.1140   21.1306 N   0  0  0  0  0  0  0  0  0  0  0  0
  -19.6386  -28.5583   23.1754 N   0  0  0  0  0  0  0  0  0  0  0  0
  -18.9429  -25.3180   19.0572 N   0  0  0  0  0  0  0  0  0  0  0  0
  -19.2870  -21.5420   18.9275 N   0  0  0  0  0  0  0  0  0  0  0  0
  -21.5406  -29.7293   22.3911 N   0  0  0  0  0  0  0  0  0  0  0  0
  -29.2731  -14.9880   19.4420 N   0  0  0  0  0  0  0  0  0  0  0  0
  -30.1662  -17.9637   24.7350 N   0  0  0  0  0  0  0  0  0  0  0  0
  -33.1387  -17.8517   26.7890 N   0  3  0  0  0  0  0  0  0  0  0  0
  -21.2726  -22.4824   18.2704 O   0  0  0  0  0  0  0  0  0  0  0  0
  -22.0345  -32.0055   22.3123 O   0  0  0  0  0  0  0  0  0  0  0  0
  -27.6585  -16.3966   20.3540 O   0  0  0  0  0  0  0  0  0  0  0  0
  -30.4411  -16.6025   22.6057 O   0  0  0  0  0  0  0  0  0  0  0  0
  -31.7429  -19.6229   25.1065 O   0  0  0  0  0  0  0  0  0  0  0  0
  -19.7663  -30.8701   23.3232 O   0  0  0  0  0  0  0  0  0  0  0  0
  -23.5020  -19.1553   23.7917 O   0  0  0  0  0  0  0  0  0  0  0  0
  -30.6203  -23.6023   19.0994 O   0  0  0  0  0  0  0  0  0  1  0  0
  -20.6721  -14.6228   25.1527 F   0  0  0  0  0  0  0  0  0  0  0  0
  -22.1441  -17.7012   21.8722 F   0  0  0  0  0  0  0  0  0  0  0  0
  -24.0970  -28.8963   21.2251 S   0  0  0  0  0  0  0  0  0  0  0  0
  1  2  1  0  0  0  0
  1  5  2  0  0  0  0
  2  6  2  0  0  0  0
  3  8  2  0  0  0  0
  3 17  1  0  0  0  0
  4  9  1  0  0  0  0
  4 17  2  0  0  0  0
  5 19  1  0  0  0  0
  6 21  1  0  0  0  0
  7 10  2  0  0  0  0
  7 20  1  0  0  0  0
  8 23  1  0  0  0  0
  9 23  2  0  0  0  0
 10 24  1  0  0  0  0
 11 12  2  0  0  0  0
 11 25  1  0  0  0  0
 12 26  1  0  0  0  0
 13 14  1  0  0  0  0
 13 29  2  0  0  0  0
 14 31  2  0  0  0  0
 15 22  1  0  0  0  0
 15 24  2  0  0  0  0
 16 26  2  0  0  0  0
 16 27  1  0  0  0  0
 17 28  1  0  0  0  0
 18 28  1  0  0  0  0
 18 30  2  0  0  0  0
 18 36  1  0  0  0  0
 19 21  2  0  0  0  0
 19 42  1  0  0  0  0
 20 22  2  0  0  0  0
 20 43  1  0  0  0  0
 21 54  1  0  0  0  0
 22 44  1  0  0  0  0
 23 83  1  0  0  0  0
 24 84  1  0  0  0  0
 25 27  2  0  0  0  0
 25 83  1  0  0  0  0
 26 85  1  0  0  0  0
 27 86  1  0  0  0  0
 28 66  2  0  0  0  0
 29 37  1  0  0  0  0
 29 87  1  0  0  0  0
 30 67  1  0  0  0  0
 30 71  1  0  0  0  0
 31 68  1  0  0  0  0
 31 87  1  0  0  0  0
 32 33  1  0  0  0  0
 32 34  2  0  0  0  0
 32 46  1  0  0  0  0
 33 35  2  0  0  0  0
 33 45  1  0  0  0  0
 35 62  1  0  0  0  0
 36 72  1  0  0  0  0
 36 77  2  0  0  0  0
 37 73  1  0  0  0  0
 37 78  2  0  0  0  0
 38 55  1  0  0  0  0
 38 74  1  0  0  0  0
 38 79  2  0  0  0  0
 39 63  1  0  0  0  0
 39 69  1  0  0  0  0
 39 80  2  0  0  0  0
 40 64  1  0  0  0  0
 40 75  1  0  0  0  0
 40 81  2  0  0  0  0
 41 70  1  0  0  0  0
 41 73  1  0  0  0  0
 41 82  2  0  0  0  0
 42 47  1  0  0  0  0
 43 55  1  0  0  0  0
 44 69  1  0  0  0  0
 45 51  1  0  0  0  0
 46 68  1  0  0  0  0
 47 49  1  0  0  0  0
 48 50  1  0  0  0  0
 48 52  1  0  0  0  0
 49 54  1  0  0  0  0
 50 56  1  0  0  0  0
 51 68  1  0  0  0  0
 52 70  1  0  0  0  0
 53 56  1  0  0  0  0
 53 70  1  0  0  0  0
 54 74  1  0  0  0  0
 55 69  1  0  0  0  0
 56 67  1  0  0  0  0
 57 64  1  0  0  0  0
 58 65  1  0  0  0  0
 59 65  1  0  0  0  0
 60 65  1  0  0  0  0
 61 76  1  0  0  0  0
 62 84  1  0  0  0  0
 63 65  1  0  0  0  0
 63 75  1  0  0  0  0
 64 76  1  0  0  0  0
 66 67  1  0  0  0  0
M  CHG  1  76   1
M  ISO  4  41 100  62 101  73 100  84 101
M  END
> <Batch ID>
0078

> <Smiles>
C=C1CN(c2ccc(C(=O)[100NH:0][100C:0](=O)N3CCCC(n4nc(-c5ccc(Oc6ccc(F)cc6F)cc5)c(C(N)=O)c4N)C3)s2)CCC1=C[101CH2:1][101O:1]c1ccc2c(c1)CN(C(=O)C(NC(=O)C(C)NC)C(C)(C)C)C(C(=O)NC1CCCc3ccccc31)C2

> <Shape>
0.241

> <Color>
0.068

> <Negative vol penalty>
0.000

$$$$

  -OEChem-04042323563D

 89 98  0     1  0  0  0  0  0999 V2000
  -22.9897  -33.7759   23.9160 C   0  0  0  0  0  0  0  0  0  0  0  0
  -23.9629  -32.8486   23.5578 C   0  0  0  0  0  0  0  0  0  0  0  0
  -22.6290  -15.1284   23.6900 C   0  0  0  0  0  0  0  0  0  0  0  0
  -22.4442  -15.9998   21.4442 C   0  0  0  0  0  0  0  0  0  0  0  0
  -21.7335  -33.3397   24.3351 C   0  0  0  0  0  0  0  0  0  0  0  0
  -23.6809  -31.4844   23.6195 C   0  0  0  0  0  0  0  0  0  0  0  0
  -25.2902  -28.9807   19.5224 C   0  0  0  0  0  0  0  0  0  0  0  0
  -31.7303  -18.8097   17.7888 C   0  0  0  0  0  0  0  0  0  0  0  0
  -31.9078  -20.1929   17.8167 C   0  0  0  0  0  0  0  0  0  0  0  0
  -21.5589  -15.9293   24.0888 C   0  0  0  0  0  0  0  0  0  0  0  0
  -21.3740  -16.8007   21.8430 C   0  0  0  0  0  0  0  0  0  0  0  0
  -26.6514  -28.6885   19.4487 C   0  0  0  0  0  0  0  0  0  0  0  0
  -18.3614  -18.8070   22.1846 C   0  0  0  0  0  0  0  0  0  0  0  0
  -17.2411  -18.8539   21.3551 C   0  0  0  0  0  0  0  0  0  0  0  0
  -26.2026  -26.4380   20.1922 C   0  0  0  0  0  0  0  0  0  0  0  0
  -29.5114  -20.5004   17.8214 C   0  0  0  0  0  0  0  0  0  0  0  0
  -16.9477  -16.4701   21.6164 C   0  0  0  0  0  0  0  0  0  0  0  0
  -23.0717  -15.1637   22.3677 C   0  0  0  0  0  0  0  0  0  0  0  0
  -24.1156  -13.0243   21.4507 C   0  0  0  0  0  0  0  0  0  0  0  0
  -21.4327  -31.9697   24.3927 C   0  0  0  0  0  0  0  0  0  0  0  0
  -24.3746  -28.0052   19.9428 C   0  0  0  0  0  0  0  0  0  0  0  0
  -22.4199  -31.0294   24.0410 C   0  0  0  0  0  0  0  0  0  0  0  0
  -24.8300  -26.7195   20.2680 C   0  0  0  0  0  0  0  0  0  0  0  0
  -30.4433  -18.2718   17.7771 C   0  0  0  0  0  0  0  0  0  0  0  0
  -30.7984  -21.0383   17.8330 C   0  0  0  0  0  0  0  0  0  0  0  0
  -20.9314  -16.7654   23.1654 C   0  0  0  0  0  0  0  0  0  0  0  0
  -27.1082  -27.4179   19.7864 C   0  0  0  0  0  0  0  0  0  0  0  0
  -18.7750  -17.5916   22.7301 C   0  0  0  0  0  0  0  0  0  0  0  0
  -16.5342  -17.6855   21.0710 C   0  0  0  0  0  0  0  0  0  0  0  0
  -29.3339  -19.1171   17.7934 C   0  0  0  0  0  0  0  0  0  0  0  0
  -18.0681  -16.4232   22.4460 C   0  0  0  0  0  0  0  0  0  0  0  0
  -24.1775  -14.3371   21.9552 C   0  0  0  0  0  0  0  0  0  0  0  0
  -25.4251  -12.6865   21.2110 C   0  0  0  0  0  0  0  0  0  0  0  0
  -30.6910  -24.6712   18.2303 C   0  0  0  0  0  0  0  0  0  0  0  0
  -31.9305  -24.5358   17.5071 C   0  0  0  0  0  0  0  0  0  0  0  0
  -30.0857  -23.3287   18.4538 C   0  0  0  0  0  0  0  0  0  0  0  0
  -32.7718  -25.4982   17.1140 C   0  0  0  0  0  0  0  0  0  0  0  0
  -30.0889  -25.7785   18.6779 C   0  0  0  0  0  0  0  0  0  0  0  0
  -22.9762  -12.1852   21.2194 C   0  0  0  0  0  0  0  0  0  0  0  0
  -22.3482  -27.7314   22.3763 C   0  0  0  0  0  0  0  0  0  0  0  0
  -21.4337  -25.0448   20.8053 C   0  0  0  0  0  0  0  0  0  0  0  0
  -22.2281  -22.5686   18.5953 C   0  0  0  0  0  0  0  0  0  0  0  0
  -30.3296  -15.9277   20.0746 C   0  0  0  0  0  0  0  0  0  0  0  0
  -20.0763  -31.5448   24.8970 C   0  0  0  0  0  0  0  0  0  0  0  0
  -22.9064  -28.3283   19.9914 C   0  0  0  0  0  0  0  0  0  0  0  0
  -23.8856  -25.6310   20.7057 C   0  0  0  0  0  0  0  0  0  0  0  0
  -32.1343  -23.0725   17.2548 C   0  0  0  0  0  0  0  0  0  0  0  0
  -19.7349  -30.0920   24.5764 C   0  0  0  0  0  0  0  0  0  0  0  0
  -29.8675  -13.6039   22.7322 C   0  0  0  0  0  0  0  0  0  0  0  0
  -20.9120  -29.1809   24.9098 C   0  0  0  0  0  0  0  0  0  0  0  0
  -28.3513  -13.4099   22.7890 C   0  0  0  0  0  0  0  0  0  0  0  0
  -30.2396  -15.0442   22.3871 C   0  0  0  0  0  0  0  0  0  0  0  0
  -28.0964  -15.3746   21.2161 C   0  0  0  0  0  0  0  0  0  0  0  0
  -22.1438  -29.5418   24.0709 C   0  0  1  0  0  0  0  0  0  0  0  0
  -22.1234  -27.4111   20.9256 C   0  0  1  0  0  0  0  0  0  0  0  0
  -27.6717  -13.9248   21.5059 C   0  0  2  0  0  0  0  0  0  0  0  0
  -29.4931  -16.3102   16.5080 C   0  0  0  0  0  0  0  0  0  0  0  0
  -21.2902  -20.4932   17.5417 C   0  0  0  0  0  0  0  0  0  0  0  0
  -21.9058  -23.5155   23.4031 C   0  0  0  0  0  0  0  0  0  0  0  0
  -21.8852  -21.3928   22.0758 C   0  0  0  0  0  0  0  0  0  0  0  0
  -19.8511  -22.8348   22.1505 C   0  0  0  0  0  0  0  0  0  0  0  0
  -22.4417  -23.7135   15.8746 C   0  0  0  0  0  0  0  0  0  0  0  0
  -28.7939  -25.7807   19.4206 C   0  0  0  0  0  0  0  0  0  1  0  0
  -30.2579  -16.7920   17.7493 C   0  0  2  0  0  0  0  0  0  0  0  0
  -21.8629  -23.5976   20.8229 C   0  0  1  0  0  0  0  0  0  0  0  0
  -21.4731  -21.9970   17.4088 C   0  0  2  0  0  0  0  0  0  0  0  0
  -21.3945  -22.8560   22.1067 C   0  0  0  0  0  0  0  0  0  0  0  0
  -25.4274  -14.8016   22.0320 N   0  0  0  0  0  0  0  0  0  0  0  0
  -26.1631  -13.7750   21.5727 N   0  0  0  0  0  0  0  0  0  0  0  0
  -30.9754  -22.4180   17.8589 N   0  0  0  0  0  0  0  0  0  0  0  0
  -22.4602  -25.9977   20.7433 N   0  0  0  0  0  0  0  0  0  0  0  0
  -29.5635  -15.4706   21.1595 N   0  0  0  0  0  0  0  0  0  0  0  0
  -26.0059  -11.5675   20.7283 N   0  0  0  0  0  0  0  0  0  0  0  0
  -21.7034  -12.6889   21.5204 N   0  0  0  0  0  0  0  0  0  0  0  0
  -22.0088  -29.0244   22.7261 N   0  0  0  0  0  0  0  0  0  0  0  0
  -21.3713  -23.0109   19.5810 N   0  0  0  0  0  0  0  0  0  0  0  0
  -29.6105  -16.3064   18.9475 N   0  0  0  0  0  0  0  0  0  0  0  0
  -22.2120  -22.2708   16.1440 N   0  3  0  0  0  0  0  0  0  0  0  0
  -29.0374  -23.1029   19.0347 O   0  0  0  0  0  0  0  0  0  0  0  0
  -23.0850  -11.0173   20.7749 O   0  0  0  0  0  0  0  0  0  0  0  0
  -22.7950  -26.8689   23.1234 O   0  0  0  0  0  0  0  0  0  0  0  0
  -20.2315  -25.3194   20.8380 O   0  0  0  0  0  0  0  0  0  0  0  0
  -23.4553  -22.6145   18.6445 O   0  0  0  0  0  0  0  0  0  0  0  0
  -31.5634  -15.9885   20.1059 O   0  0  0  0  0  0  0  0  0  0  0  0
  -19.8870  -17.5468   23.5541 O   0  0  0  0  0  0  0  0  0  0  0  0
  -28.4364  -27.1303   19.7159 O   0  0  0  0  0  0  0  0  0  1  0  0
  -15.4575  -17.7309   20.2755 F   0  0  0  0  0  0  0  0  0  0  0  0
  -28.0934  -18.6097   17.7825 F   0  0  0  0  0  0  0  0  0  0  0  0
  -18.4600  -15.2528   22.9680 F   0  0  0  0  0  0  0  0  0  0  0  0
  1  2  1  0  0  0  0
  1  5  2  0  0  0  0
  2  6  2  0  0  0  0
  3 10  2  0  0  0  0
  3 18  1  0  0  0  0
  4 11  1  0  0  0  0
  4 18  2  0  0  0  0
  5 20  1  0  0  0  0
  6 22  1  0  0  0  0
  7 12  2  0  0  0  0
  7 21  1  0  0  0  0
  8  9  2  0  0  0  0
  8 24  1  0  0  0  0
  9 25  1  0  0  0  0
 10 26  1  0  0  0  0
 11 26  2  0  0  0  0
 12 27  1  0  0  0  0
 13 14  2  0  0  0  0
 13 28  1  0  0  0  0
 14 29  1  0  0  0  0
 15 23  1  0  0  0  0
 15 27  2  0  0  0  0
 16 25  2  0  0  0  0
 16 30  1  0  0  0  0
 17 29  2  0  0  0  0
 17 31  1  0  0  0  0
 18 32  1  0  0  0  0
 19 32  1  0  0  0  0
 19 33  2  0  0  0  0
 19 39  1  0  0  0  0
 20 22  2  0  0  0  0
 20 44  1  0  0  0  0
 21 23  2  0  0  0  0
 21 45  1  0  0  0  0
 22 54  1  0  0  0  0
 23 46  1  0  0  0  0
 24 30  2  0  0  0  0
 24 64  1  0  0  0  0
 25 70  1  0  0  0  0
 26 85  1  0  0  0  0
 27 86  1  0  0  0  0
 28 31  2  0  0  0  0
 28 85  1  0  0  0  0
 29 87  1  0  0  0  0
 30 88  1  0  0  0  0
 31 89  1  0  0  0  0
 32 68  2  0  0  0  0
 33 69  1  0  0  0  0
 33 73  1  0  0  0  0
 34 35  1  0  0  0  0
 34 36  1  0  0  0  0
 34 38  2  0  0  0  0
 35 37  2  0  0  0  0
 35 47  1  0  0  0  0
 36 70  1  0  0  0  0
 36 79  2  0  0  0  0
 38 63  1  0  0  0  0
 39 74  1  0  0  0  0
 39 80  2  0  0  0  0
 40 55  1  0  0  0  0
 40 75  1  0  0  0  0
 40 81  2  0  0  0  0
 41 65  1  0  0  0  0
 41 71  1  0  0  0  0
 41 82  2  0  0  0  0
 42 66  1  0  0  0  0
 42 76  1  0  0  0  0
 42 83  2  0  0  0  0
 43 72  1  0  0  0  0
 43 77  1  0  0  0  0
 43 84  2  0  0  0  0
 44 48  1  0  0  0  0
 45 55  1  0  0  0  0
 46 71  1  0  0  0  0
 47 70  1  0  0  0  0
 48 50  1  0  0  0  0
 49 51  1  0  0  0  0
 49 52  1  0  0  0  0
 50 54  1  0  0  0  0
 51 56  1  0  0  0  0
 52 72  1  0  0  0  0
 53 56  1  0  0  0  0
 53 72  1  0  0  0  0
 54 75  1  0  0  0  0
 55 71  1  0  0  0  0
 56 69  1  0  0  0  0
 57 64  1  0  0  0  0
 58 66  1  0  0  0  0
 59 67  1  0  0  0  0
 60 67  1  0  0  0  0
 61 67  1  0  0  0  0
 62 78  1  0  0  0  0
 63 86  1  0  0  0  0
 64 77  1  0  0  0  0
 65 67  1  0  0  0  0
 65 76  1  0  0  0  0
 66 78  1  0  0  0  0
 68 69  1  0  0  0  0
M  CHG  1  78   1
M  ISO  4  43 100  63 101  77 100  86 101
M  END
> <Batch ID>
0078

> <Smiles>
C=C1CN(c2ccc(C(C)[100NH:0][100C:0](=O)N3CCCC(n4nc(-c5ccc(Oc6ccc(F)cc6F)cc5)c(C(N)=O)c4N)C3)c(F)c2)C(=O)C1=C[101CH2:1][101O:1]c1ccc2c(c1)CN(C(=O)C(NC(=O)C(C)NC)C(C)(C)C)C(C(=O)NC1CCCc3ccccc31)C2

> <Shape>
0.192

> <Color>
0.097

> <Negative vol penalty>
0.000

$$$$

  -OEChem-04042323563D

 90 99  0     1  0  0  0  0  0999 V2000
  -26.9804  -34.6181   28.2064 C   0  0  0  0  0  0  0  0  0  0  0  0
  -27.8048  -33.5312   28.4788 C   0  0  0  0  0  0  0  0  0  0  0  0
  -22.9997   -9.8884   19.9893 C   0  0  0  0  0  0  0  0  0  0  0  0
  -23.7152   -9.9599   22.2958 C   0  0  0  0  0  0  0  0  0  0  0  0
  -25.8379  -34.4467   27.4258 C   0  0  0  0  0  0  0  0  0  0  0  0
  -27.4866  -32.2718   27.9717 C   0  0  0  0  0  0  0  0  0  0  0  0
  -31.4101  -27.9552   26.1065 C   0  0  0  0  0  0  0  0  0  0  0  0
  -32.6575  -17.4428   23.4141 C   0  0  0  0  0  0  0  0  0  0  0  0
  -32.0499  -16.5472   22.5341 C   0  0  0  0  0  0  0  0  0  0  0  0
  -22.2317   -8.7566   20.2626 C   0  0  0  0  0  0  0  0  0  0  0  0
  -22.9471   -8.8281   22.5691 C   0  0  0  0  0  0  0  0  0  0  0  0
  -31.9166  -26.8156   26.7298 C   0  0  0  0  0  0  0  0  0  0  0  0
  -23.1923   -5.4849   22.1283 C   0  0  0  0  0  0  0  0  0  0  0  0
  -23.7763   -4.4744   22.8920 C   0  0  0  0  0  0  0  0  0  0  0  0
  -30.2194  -25.4805   25.6545 C   0  0  0  0  0  0  0  0  0  0  0  0
  -30.4958  -18.3749   23.9580 C   0  0  0  0  0  0  0  0  0  0  0  0
  -22.0454   -4.7329   24.5577 C   0  0  0  0  0  0  0  0  0  0  0  0
  -23.7415  -10.4901   21.0059 C   0  0  0  0  0  0  0  0  0  0  0  0
  -24.1284  -13.0038   20.8090 C   0  0  0  0  0  0  0  0  0  0  0  0
  -25.5107  -33.1866   26.9008 C   0  0  0  0  0  0  0  0  0  0  0  0
  -30.2958  -27.8676   25.2597 C   0  0  0  0  0  0  0  0  0  0  0  0
  -26.3379  -32.0831   27.1844 C   0  0  0  0  0  0  0  0  0  0  0  0
  -29.7022  -26.6201   25.0197 C   0  0  0  0  0  0  0  0  0  0  0  0
  -31.8804  -18.3566   24.1261 C   0  0  0  0  0  0  0  0  0  0  0  0
  -30.6653  -16.5655   22.3660 C   0  0  0  0  0  0  0  0  0  0  0  0
  -29.8883  -17.4793   23.0779 C   0  0  0  0  0  0  0  0  0  0  0  0
  -22.2053   -8.2264   21.5525 C   0  0  0  0  0  0  0  0  0  0  0  0
  -31.3195  -25.5784   26.5061 C   0  0  0  0  0  0  0  0  0  0  0  0
  -22.0349   -6.1196   22.5793 C   0  0  0  0  0  0  0  0  0  0  0  0
  -23.2029   -4.0983   24.1067 C   0  0  0  0  0  0  0  0  0  0  0  0
  -21.4614   -5.7435   23.7940 C   0  0  0  0  0  0  0  0  0  0  0  0
  -24.5355  -11.6589   20.7241 C   0  0  0  0  0  0  0  0  0  0  0  0
  -25.2400  -13.7228   20.4428 C   0  0  0  0  0  0  0  0  0  0  0  0
  -32.9708  -21.1036   26.2785 C   0  0  0  0  0  0  0  0  0  0  0  0
  -34.0203  -20.1506   26.5392 C   0  0  0  0  0  0  0  0  0  0  0  0
  -31.9983  -20.5325   25.3054 C   0  0  0  0  0  0  0  0  0  0  0  0
  -35.0763  -20.2795   27.3496 C   0  0  0  0  0  0  0  0  0  0  0  0
  -32.8006  -22.3328   26.7775 C   0  0  0  0  0  0  0  0  0  0  0  0
  -22.8590  -13.5541   21.1852 C   0  0  0  0  0  0  0  0  0  0  0  0
  -27.3589  -29.0833   25.2840 C   0  0  0  0  0  0  0  0  0  0  0  0
  -27.1843  -27.7047   22.3529 C   0  0  0  0  0  0  0  0  0  0  0  0
  -27.5851  -18.3673   23.5586 C   0  0  0  0  0  0  0  0  0  0  0  0
  -28.3238  -25.3099   20.2050 C   0  0  0  0  0  0  0  0  0  0  0  0
  -30.7187  -14.6843   20.6913 C   0  0  0  0  0  0  0  0  0  0  0  0
  -24.2400  -33.0407   26.1016 C   0  0  0  0  0  0  0  0  0  0  0  0
  -29.7779  -29.1021   24.5740 C   0  0  0  0  0  0  0  0  0  0  0  0
  -28.5164  -26.4693   24.1035 C   0  0  0  0  0  0  0  0  0  0  0  0
  -33.7229  -18.9336   25.7164 C   0  0  0  0  0  0  0  0  0  0  0  0
  -24.1753  -31.7490   25.2908 C   0  0  0  0  0  0  0  0  0  0  0  0
  -29.6094  -12.2110   18.3828 C   0  0  0  0  0  0  0  0  0  0  0  0
  -24.5917  -30.5586   26.1489 C   0  0  0  0  0  0  0  0  0  0  0  0
  -28.1570  -11.9575   18.7931 C   0  0  0  0  0  0  0  0  0  0  0  0
  -30.5049  -12.4650   19.5941 C   0  0  0  0  0  0  0  0  0  0  0  0
  -28.5842  -13.2664   20.9124 C   0  0  0  0  0  0  0  0  0  0  0  0
  -26.0397  -30.7063   26.6317 C   0  0  1  0  0  0  0  0  0  0  0  0
  -28.3221  -28.9760   24.1357 C   0  0  1  0  0  0  0  0  0  0  0  0
  -27.6315  -13.0696   19.7218 C   0  0  2  0  0  0  0  0  0  0  0  0
  -26.1694  -18.0889   23.1195 C   0  0  0  0  0  0  0  0  0  0  0  0
  -27.9624  -24.4047   17.8926 C   0  0  0  0  0  0  0  0  0  0  0  0
  -24.6436  -26.3057   23.3002 C   0  0  0  0  0  0  0  0  0  0  0  0
  -24.8666  -24.7386   21.3605 C   0  0  0  0  0  0  0  0  0  0  0  0
  -24.5425  -27.1791   20.9590 C   0  0  0  0  0  0  0  0  0  0  0  0
  -31.0945  -25.9593   19.3924 C   0  0  0  0  0  0  0  0  0  0  0  0
  -31.6587  -23.2260   26.4215 C   0  0  0  0  0  0  0  0  0  1  0  0
  -26.7664  -26.3511   21.8312 C   0  0  1  0  0  0  0  0  0  0  0  0
  -28.7507  -25.3825   18.7500 C   0  0  2  0  0  0  0  0  0  0  0  0
  -25.2259  -26.1464   21.8816 C   0  0  0  0  0  0  0  0  0  0  0  0
  -25.8064  -11.5285   20.3345 N   0  0  0  0  0  0  0  0  0  0  0  0
  -26.2075  -12.8007   20.1711 N   0  0  0  0  0  0  0  0  0  0  0  0
  -32.4868  -19.2499   25.0036 N   0  0  0  0  0  0  0  0  0  0  0  0
  -28.0428  -27.7066   23.4613 N   0  0  0  0  0  0  0  0  0  0  0  0
  -29.9467  -13.5336   20.4255 N   0  0  0  0  0  0  0  0  0  0  0  0
  -25.4743  -15.0475   20.3298 N   0  0  0  0  0  0  0  0  0  0  0  0
  -21.8255  -12.6734   21.5323 N   0  0  0  0  0  0  0  0  0  0  0  0
  -28.4991  -17.5178   22.9249 N   0  0  0  0  0  0  0  0  0  0  0  0
  -30.0714  -15.6467   21.4655 N   0  0  0  0  0  0  0  0  0  0  0  0
  -26.9634  -30.3766   25.5675 N   0  0  0  0  0  0  0  0  0  0  0  0
  -27.3416  -26.2329   20.4957 N   0  0  0  0  0  0  0  0  0  0  0  0
  -30.1998  -25.0604   18.6187 N   0  3  0  0  0  0  0  0  0  0  0  0
  -30.9990  -21.0882   24.8810 O   0  0  0  0  0  0  0  0  0  0  0  0
  -22.6426  -14.7896   21.1969 O   0  0  0  0  0  0  0  0  0  0  0  0
  -27.0000  -28.0678   25.8684 O   0  0  0  0  0  0  0  0  0  0  0  0
  -26.7702  -28.7228   21.7929 O   0  0  0  0  0  0  0  0  0  0  0  0
  -27.8274  -19.2508   24.3743 O   0  0  0  0  0  0  0  0  0  0  0  0
  -28.8102  -24.5116   21.0029 O   0  0  0  0  0  0  0  0  0  0  0  0
  -31.8593  -14.8188   20.2408 O   0  0  0  0  0  0  0  0  0  0  0  0
  -21.4558   -7.1222   21.8196 O   0  0  0  0  0  0  0  0  0  0  0  0
  -31.8115  -24.4646   27.1136 O   0  0  0  0  0  0  0  0  0  1  0  0
  -23.7629   -3.1268   24.8392 F   0  0  0  0  0  0  0  0  0  0  0  0
  -20.3489   -6.3487   24.2319 F   0  0  0  0  0  0  0  0  0  0  0  0
  1  2  1  0  0  0  0
  1  5  2  0  0  0  0
  2  6  2  0  0  0  0
  3 10  2  0  0  0  0
  3 18  1  0  0  0  0
  4 11  1  0  0  0  0
  4 18  2  0  0  0  0
  5 20  1  0  0  0  0
  6 22  1  0  0  0  0
  7 12  2  0  0  0  0
  7 21  1  0  0  0  0
  8  9  2  0  0  0  0
  8 24  1  0  0  0  0
  9 25  1  0  0  0  0
 10 27  1  0  0  0  0
 11 27  2  0  0  0  0
 12 28  1  0  0  0  0
 13 14  2  0  0  0  0
 13 29  1  0  0  0  0
 14 30  1  0  0  0  0
 15 23  1  0  0  0  0
 15 28  2  0  0  0  0
 16 24  2  0  0  0  0
 16 26  1  0  0  0  0
 17 30  2  0  0  0  0
 17 31  1  0  0  0  0
 18 32  1  0  0  0  0
 19 32  1  0  0  0  0
 19 33  2  0  0  0  0
 19 39  1  0  0  0  0
 20 22  2  0  0  0  0
 20 45  1  0  0  0  0
 21 23  2  0  0  0  0
 21 46  1  0  0  0  0
 22 55  1  0  0  0  0
 23 47  1  0  0  0  0
 24 70  1  0  0  0  0
 25 26  2  0  0  0  0
 25 76  1  0  0  0  0
 26 75  1  0  0  0  0
 27 87  1  0  0  0  0
 28 88  1  0  0  0  0
 29 31  2  0  0  0  0
 29 87  1  0  0  0  0
 30 89  1  0  0  0  0
 31 90  1  0  0  0  0
 32 68  2  0  0  0  0
 33 69  1  0  0  0  0
 33 73  1  0  0  0  0
 34 35  1  0  0  0  0
 34 36  1  0  0  0  0
 34 38  2  0  0  0  0
 35 37  2  0  0  0  0
 35 48  1  0  0  0  0
 36 70  1  0  0  0  0
 36 80  2  0  0  0  0
 38 64  1  0  0  0  0
 39 74  1  0  0  0  0
 39 81  2  0  0  0  0
 40 56  1  0  0  0  0
 40 77  1  0  0  0  0
 40 82  2  0  0  0  0
 41 65  1  0  0  0  0
 41 71  1  0  0  0  0
 41 83  2  0  0  0  0
 42 58  1  0  0  0  0
 42 75  1  0  0  0  0
 42 84  2  0  0  0  0
 43 66  1  0  0  0  0
 43 78  1  0  0  0  0
 43 85  2  0  0  0  0
 44 72  1  0  0  0  0
 44 76  1  0  0  0  0
 44 86  2  0  0  0  0
 45 49  1  0  0  0  0
 46 56  1  0  0  0  0
 47 71  1  0  0  0  0
 48 70  1  0  0  0  0
 49 51  1  0  0  0  0
 50 52  1  0  0  0  0
 50 53  1  0  0  0  0
 51 55  1  0  0  0  0
 52 57  1  0  0  0  0
 53 72  1  0  0  0  0
 54 57  1  0  0  0  0
 54 72  1  0  0  0  0
 55 77  1  0  0  0  0
 56 71  1  0  0  0  0
 57 69  1  0  0  0  0
 59 66  1  0  0  0  0
 60 67  1  0  0  0  0
 61 67  1  0  0  0  0
 62 67  1  0  0  0  0
 63 79  1  0  0  0  0
 64 88  1  0  0  0  0
 65 67  1  0  0  0  0
 65 78  1  0  0  0  0
 66 79  1  0  0  0  0
 68 69  1  0  0  0  0
M  CHG  1  79   1
M  ISO  4  44 100  64 101  76 100  88 101
M  END
> <Batch ID>
0078

> <Smiles>
C=C1CN(c2ccc([100NH:0][100C:0](=O)N3CCCC(n4nc(-c5ccc(Oc6ccc(F)cc6F)cc5)c(C(N)=O)c4N)C3)c(NC(C)=O)c2)C(=O)C1=C[101CH2:1][101O:1]c1ccc2c(c1)CN(C(=O)C(NC(=O)C(C)NC)C(C)(C)C)C(C(=O)NC1CCCc3ccccc31)C2

> <Shape>
0.260

> <Color>
0.190

> <Negative vol penalty>
0.000

$$$$

  -OEChem-04042323563D

 88 97  0     1  0  0  0  0  0999 V2000
  -30.6934  -35.8022   22.6049 C   0  0  0  0  0  0  0  0  0  0  0  0
  -30.6671  -34.5701   21.9594 C   0  0  0  0  0  0  0  0  0  0  0  0
  -26.0191  -14.3852   21.4955 C   0  0  0  0  0  0  0  0  0  0  0  0
  -23.6776  -14.1873   20.9339 C   0  0  0  0  0  0  0  0  0  0  0  0
  -29.8879  -36.0201   23.7219 C   0  0  0  0  0  0  0  0  0  0  0  0
  -29.8361  -33.5547   22.4313 C   0  0  0  0  0  0  0  0  0  0  0  0
  -26.8991  -29.3486   19.0863 C   0  0  0  0  0  0  0  0  0  0  0  0
  -26.4674  -21.4381   24.6454 C   0  0  0  0  0  0  0  0  0  0  0  0
  -26.0432  -20.9134   25.8661 C   0  0  0  0  0  0  0  0  0  0  0  0
  -26.2182  -13.0524   21.1353 C   0  0  0  0  0  0  0  0  0  0  0  0
  -23.8767  -12.8545   20.5736 C   0  0  0  0  0  0  0  0  0  0  0  0
  -27.1941  -28.0210   18.7793 C   0  0  0  0  0  0  0  0  0  0  0  0
  -24.2151   -9.8753   22.1358 C   0  0  0  0  0  0  0  0  0  0  0  0
  -23.2866   -8.9368   22.5858 C   0  0  0  0  0  0  0  0  0  0  0  0
  -25.7864  -27.2938   20.5982 C   0  0  0  0  0  0  0  0  0  0  0  0
  -27.9648  -19.5637   24.3601 C   0  0  0  0  0  0  0  0  0  0  0  0
  -22.7642   -8.3573   20.2992 C   0  0  0  0  0  0  0  0  0  0  0  0
  -24.7488  -14.9526   21.3949 C   0  0  0  0  0  0  0  0  0  0  0  0
  -24.6463  -17.4598   20.9352 C   0  0  0  0  0  0  0  0  0  0  0  0
  -29.0394  -35.0100   24.2018 C   0  0  0  0  0  0  0  0  0  0  0  0
  -26.0527  -29.6596   20.1602 C   0  0  0  0  0  0  0  0  0  0  0  0
  -29.0194  -33.7588   23.5565 C   0  0  0  0  0  0  0  0  0  0  0  0
  -25.4801  -28.6260   20.9152 C   0  0  0  0  0  0  0  0  0  0  0  0
  -27.5406  -19.0390   25.5809 C   0  0  0  0  0  0  0  0  0  0  0  0
  -27.4283  -20.7632   23.8923 C   0  0  0  0  0  0  0  0  0  0  0  0
  -26.5798  -19.7139   26.3339 C   0  0  0  0  0  0  0  0  0  0  0  0
  -25.1470  -12.2871   20.6743 C   0  0  0  0  0  0  0  0  0  0  0  0
  -26.6401  -26.9935   19.5370 C   0  0  0  0  0  0  0  0  0  0  0  0
  -24.4182  -10.0550   20.7675 C   0  0  0  0  0  0  0  0  0  0  0  0
  -22.5611   -8.1777   21.6675 C   0  0  0  0  0  0  0  0  0  0  0  0
  -23.6927   -9.2960   19.8492 C   0  0  0  0  0  0  0  0  0  0  0  0
  -24.5424  -16.3291   21.7674 C   0  0  0  0  0  0  0  0  0  0  0  0
  -24.3582  -18.5202   21.7591 C   0  0  0  0  0  0  0  0  0  0  0  0
  -28.1084  -22.6230   20.8188 C   0  0  0  0  0  0  0  0  0  0  0  0
  -29.0065  -21.5098   20.6407 C   0  0  0  0  0  0  0  0  0  0  0  0
  -27.3751  -22.4811   22.1076 C   0  0  0  0  0  0  0  0  0  0  0  0
  -29.8368  -21.2678   19.6207 C   0  0  0  0  0  0  0  0  0  0  0  0
  -27.8901  -23.6710   20.0170 C   0  0  0  0  0  0  0  0  0  0  0  0
  -24.9739  -17.5439   19.5419 C   0  0  0  0  0  0  0  0  0  0  0  0
  -26.3852  -31.2551   22.8892 C   0  0  0  0  0  0  0  0  0  0  0  0
  -23.1893  -30.7503   23.1215 C   0  0  0  0  0  0  0  0  0  0  0  0
  -20.4814  -28.8705   22.2383 C   0  0  0  0  0  0  0  0  0  0  0  0
  -24.7847  -18.8484   27.8570 C   0  0  0  0  0  0  0  0  0  0  0  0
  -28.2220  -35.2766   25.4410 C   0  0  0  0  0  0  0  0  0  0  0  0
  -25.7231  -31.0958   20.4618 C   0  0  0  0  0  0  0  0  0  0  0  0
  -24.5493  -28.9061   22.0657 C   0  0  0  0  0  0  0  0  0  0  0  0
  -28.8525  -20.6248   21.8406 C   0  0  0  0  0  0  0  0  0  0  0  0
  -27.0915  -34.2729   25.6526 C   0  0  0  0  0  0  0  0  0  0  0  0
  -21.9003  -19.6770   25.6921 C   0  0  0  0  0  0  0  0  0  0  0  0
  -27.5983  -32.8480   25.4530 C   0  0  0  0  0  0  0  0  0  0  0  0
  -22.2244  -18.9355   24.3966 C   0  0  0  0  0  0  0  0  0  0  0  0
  -22.5036  -18.9818   26.9088 C   0  0  0  0  0  0  0  0  0  0  0  0
  -24.3036  -18.0210   25.5022 C   0  0  0  0  0  0  0  0  0  0  0  0
  -28.1128  -32.6407   24.0234 C   0  0  1  0  0  0  0  0  0  0  0  0
  -25.2572  -31.3130   21.8982 C   0  0  1  0  0  0  0  0  0  0  0  0
  -23.7410  -18.7238   24.2576 C   0  0  1  0  0  0  0  0  0  0  0  0
  -28.1307  -17.7513   26.0568 C   0  0  0  0  0  0  0  0  0  0  0  0
  -18.0079  -28.6797   22.6163 C   0  0  0  0  0  0  0  0  0  0  0  0
  -23.7057  -29.5509   25.8792 C   0  0  0  0  0  0  0  0  0  0  0  0
  -21.4159  -28.5423   25.7925 C   0  0  0  0  0  0  0  0  0  0  0  0
  -21.6875  -31.0215   25.7424 C   0  0  0  0  0  0  0  0  0  0  0  0
  -27.0431  -19.2508   28.7342 C   0  0  0  0  0  0  0  0  0  0  0  0
  -19.8934  -29.2855   19.3676 C   0  0  0  0  0  0  0  0  0  0  0  0
  -26.9227  -24.7663   20.3217 C   0  0  0  0  0  0  0  0  0  1  0  0
  -22.3181  -29.6641   23.7048 C   0  0  1  0  0  0  0  0  0  0  0  0
  -19.1032  -29.2626   21.7369 C   0  0  2  0  0  0  0  0  0  0  0  0
  -22.3008  -29.6891   25.2593 C   0  0  0  0  0  0  0  0  0  0  0  0
  -24.2141  -16.6420   23.0237 N   0  0  0  0  0  0  0  0  0  0  0  0
  -24.1093  -17.9813   22.9870 N   0  0  0  0  0  0  0  0  0  0  0  0
  -27.8493  -21.2853   22.6734 N   0  0  0  0  0  0  0  0  0  0  0  0
  -24.2627  -30.3267   22.3251 N   0  0  0  0  0  0  0  0  0  0  0  0
  -23.9358  -18.7328   26.7371 N   0  0  0  0  0  0  0  0  0  0  0  0
  -24.2961  -19.8518   21.5458 N   0  0  0  0  0  0  0  0  0  0  0  0
  -25.2419  -16.3574   18.8457 N   0  0  0  0  0  0  0  0  0  0  0  0
  -27.0054  -32.4705   23.1074 N   0  0  0  0  0  0  0  0  0  0  0  0
  -21.0044  -29.8203   23.0900 N   0  0  0  0  0  0  0  0  0  0  0  0
  -26.1265  -19.1872   27.5980 N   0  0  0  0  0  0  0  0  0  0  0  0
  -18.8994  -28.7716   20.3447 N   0  3  0  0  0  0  0  0  0  0  0  0
  -26.5445  -23.2576   22.5488 O   0  0  0  0  0  0  0  0  0  0  0  0
  -25.0434  -18.6402   18.9362 O   0  0  0  0  0  0  0  0  0  0  0  0
  -26.6706  -30.1871   23.4180 O   0  0  0  0  0  0  0  0  0  0  0  0
  -22.9229  -31.9313   23.3577 O   0  0  0  0  0  0  0  0  0  0  0  0
  -21.0367  -27.8243   21.9102 O   0  0  0  0  0  0  0  0  0  0  0  0
  -24.3892  -18.6115   29.0051 O   0  0  0  0  0  0  0  0  0  0  0  0
  -25.3409  -10.9867   20.3224 O   0  0  0  0  0  0  0  0  0  0  0  0
  -26.9269  -25.6968   19.2399 O   0  0  0  0  0  0  0  0  0  1  0  0
  -21.6706   -7.2754   22.0997 F   0  0  0  0  0  0  0  0  0  0  0  0
  -23.8843   -9.4633   18.5335 F   0  0  0  0  0  0  0  0  0  0  0  0
  1  2  1  0  0  0  0
  1  5  2  0  0  0  0
  2  6  2  0  0  0  0
  3 10  2  0  0  0  0
  3 18  1  0  0  0  0
  4 11  1  0  0  0  0
  4 18  2  0  0  0  0
  5 20  1  0  0  0  0
  6 22  1  0  0  0  0
  7 12  2  0  0  0  0
  7 21  1  0  0  0  0
  8  9  2  0  0  0  0
  8 25  1  0  0  0  0
  9 26  1  0  0  0  0
 10 27  1  0  0  0  0
 11 27  2  0  0  0  0
 12 28  1  0  0  0  0
 13 14  2  0  0  0  0
 13 29  1  0  0  0  0
 14 30  1  0  0  0  0
 15 23  1  0  0  0  0
 15 28  2  0  0  0  0
 16 24  1  0  0  0  0
 16 25  2  0  0  0  0
 17 30  2  0  0  0  0
 17 31  1  0  0  0  0
 18 32  1  0  0  0  0
 19 32  1  0  0  0  0
 19 33  2  0  0  0  0
 19 39  1  0  0  0  0
 20 22  2  0  0  0  0
 20 44  1  0  0  0  0
 21 23  2  0  0  0  0
 21 45  1  0  0  0  0
 22 54  1  0  0  0  0
 23 46  1  0  0  0  0
 24 26  2  0  0  0  0
 24 57  1  0  0  0  0
 25 70  1  0  0  0  0
 26 77  1  0  0  0  0
 27 85  1  0  0  0  0
 28 86  1  0  0  0  0
 29 31  2  0  0  0  0
 29 85  1  0  0  0  0
 30 87  1  0  0  0  0
 31 88  1  0  0  0  0
 32 68  2  0  0  0  0
 33 69  1  0  0  0  0
 33 73  1  0  0  0  0
 34 35  1  0  0  0  0
 34 36  1  0  0  0  0
 34 38  2  0  0  0  0
 35 37  2  0  0  0  0
 35 47  1  0  0  0  0
 36 70  1  0  0  0  0
 36 79  2  0  0  0  0
 38 64  1  0  0  0  0
 39 74  1  0  0  0  0
 39 80  2  0  0  0  0
 40 55  1  0  0  0  0
 40 75  1  0  0  0  0
 40 81  2  0  0  0  0
 41 65  1  0  0  0  0
 41 71  1  0  0  0  0
 41 82  2  0  0  0  0
 42 66  1  0  0  0  0
 42 76  1  0  0  0  0
 42 83  2  0  0  0  0
 43 72  1  0  0  0  0
 43 77  1  0  0  0  0
 43 84  2  0  0  0  0
 44 48  1  0  0  0  0
 45 55  1  0  0  0  0
 46 71  1  0  0  0  0
 47 70  1  0  0  0  0
 48 50  1  0  0  0  0
 49 51  1  0  0  0  0
 49 52  1  0  0  0  0
 50 54  1  0  0  0  0
 51 56  1  0  0  0  0
 52 72  1  0  0  0  0
 53 56  1  0  0  0  0
 53 72  1  0  0  0  0
 54 75  1  0  0  0  0
 55 71  1  0  0  0  0
 56 69  1  0  0  0  0
 58 66  1  0  0  0  0
 59 67  1  0  0  0  0
 60 67  1  0  0  0  0
 61 67  1  0  0  0  0
 62 77  1  0  0  0  0
 63 78  1  0  0  0  0
 64 86  1  0  0  0  0
 65 67  1  0  0  0  0
 65 76  1  0  0  0  0
 66 78  1  0  0  0  0
 68 69  1  0  0  0  0
M  CHG  1  78   1
M  ISO  4  43 100  64 101  77 100  86 101
M  END
> <Batch ID>
0078

> <Smiles>
C=C1CN(c2ccc([100N:0](C)[100C:0](=O)N3CCCC(n4nc(-c5ccc(Oc6ccc(F)cc6F)cc5)c(C(N)=O)c4N)C3)c(C)c2)C(=O)C1=C[101CH2:1][101O:1]c1ccc2c(c1)CN(C(=O)C(NC(=O)C(C)NC)C(C)(C)C)C(C(=O)NC1CCCc3ccccc31)C2

> <Shape>
0.216

> <Color>
0.082

> <Negative vol penalty>
0.000

$$$$

  -OEChem-04042323563D

 86 95  0     1  0  0  0  0  0999 V2000
  -29.6697  -32.3696   23.3195 C   0  0  0  0  0  0  0  0  0  0  0  0
  -29.3302  -31.0414   23.0825 C   0  0  0  0  0  0  0  0  0  0  0  0
  -23.0804   -9.7636   20.0163 C   0  0  0  0  0  0  0  0  0  0  0  0
  -23.7016  -10.0167   22.3373 C   0  0  0  0  0  0  0  0  0  0  0  0
  -29.2081  -16.9366   19.5913 C   0  0  0  0  0  0  0  0  0  0  0  0
  -28.6184  -17.8164   21.7627 C   0  0  0  0  0  0  0  0  0  0  0  0
  -28.7146  -33.2535   23.8198 C   0  0  0  0  0  0  0  0  0  0  0  0
  -28.0354  -30.5961   23.3467 C   0  0  0  0  0  0  0  0  0  0  0  0
  -26.1798  -27.7016   19.6288 C   0  0  0  0  0  0  0  0  0  0  0  0
  -28.5193  -17.9841   18.9798 C   0  0  0  0  0  0  0  0  0  0  0  0
  -27.9296  -18.8640   21.1512 C   0  0  0  0  0  0  0  0  0  0  0  0
  -22.3338   -8.6306   20.3396 C   0  0  0  0  0  0  0  0  0  0  0  0
  -22.9549   -8.8838   22.6607 C   0  0  0  0  0  0  0  0  0  0  0  0
  -26.6159  -26.3785   19.5739 C   0  0  0  0  0  0  0  0  0  0  0  0
  -23.3098   -5.5271   22.4663 C   0  0  0  0  0  0  0  0  0  0  0  0
  -23.8909   -4.5902   23.3208 C   0  0  0  0  0  0  0  0  0  0  0  0
  -24.5744  -25.6676   20.6445 C   0  0  0  0  0  0  0  0  0  0  0  0
  -22.0888   -4.9110   24.8978 C   0  0  0  0  0  0  0  0  0  0  0  0
  -23.7644  -10.4566   21.0151 C   0  0  0  0  0  0  0  0  0  0  0  0
  -29.2575  -16.8527   20.9828 C   0  0  0  0  0  0  0  0  0  0  0  0
  -24.0891  -12.9612   20.6559 C   0  0  0  0  0  0  0  0  0  0  0  0
  -27.4048  -32.8211   24.0812 C   0  0  0  0  0  0  0  0  0  0  0  0
  -24.9404  -28.0194   20.2027 C   0  0  0  0  0  0  0  0  0  0  0  0
  -27.0622  -31.4748   23.8523 C   0  0  0  0  0  0  0  0  0  0  0  0
  -24.1237  -26.9952   20.7030 C   0  0  0  0  0  0  0  0  0  0  0  0
  -27.8801  -18.9478   19.7597 C   0  0  0  0  0  0  0  0  0  0  0  0
  -22.2710   -8.1907   21.6618 C   0  0  0  0  0  0  0  0  0  0  0  0
  -25.8144  -25.3616   20.0844 C   0  0  0  0  0  0  0  0  0  0  0  0
  -22.1183   -6.1560   22.8276 C   0  0  0  0  0  0  0  0  0  0  0  0
  -23.2804   -4.2821   24.5366 C   0  0  0  0  0  0  0  0  0  0  0  0
  -21.5078   -5.8480   24.0433 C   0  0  0  0  0  0  0  0  0  0  0  0
  -24.5363  -11.6266   20.6816 C   0  0  0  0  0  0  0  0  0  0  0  0
  -25.1939  -13.6864   20.2820 C   0  0  0  0  0  0  0  0  0  0  0  0
  -26.2761  -22.0564   18.7733 C   0  0  0  0  0  0  0  0  0  0  0  0
  -25.9566  -21.2159   17.6113 C   0  0  0  0  0  0  0  0  0  0  0  0
  -27.0628  -21.2683   19.7435 C   0  0  0  0  0  0  0  0  0  0  0  0
  -25.9144  -23.3299   18.9299 C   0  0  0  0  0  0  0  0  0  1  0  0
  -29.9755  -15.7604   21.6203 C   0  0  0  0  0  0  0  0  0  0  0  0
  -22.7910  -13.4974   20.9444 C   0  0  0  0  0  0  0  0  0  0  0  0
  -30.6647  -14.7208   20.8220 C   0  0  0  0  0  0  0  0  0  0  0  0
  -24.0003  -29.7667   22.6860 C   0  0  0  0  0  0  0  0  0  0  0  0
  -21.0406  -29.0988   21.5386 C   0  0  0  0  0  0  0  0  0  0  0  0
  -19.0457  -27.0303   19.6979 C   0  0  0  0  0  0  0  0  0  0  0  0
  -26.4197  -33.8020   24.6661 C   0  0  0  0  0  0  0  0  0  0  0  0
  -24.4726  -29.4487   20.2300 C   0  0  0  0  0  0  0  0  0  0  0  0
  -22.7758  -27.2814   21.3111 C   0  0  0  0  0  0  0  0  0  0  0  0
  -26.5459  -19.8538   17.8303 C   0  0  0  0  0  0  0  0  0  0  0  0
  -24.9681  -33.3403   24.5661 C   0  0  0  0  0  0  0  0  0  0  0  0
  -29.6692  -12.1959   18.4788 C   0  0  0  0  0  0  0  0  0  0  0  0
  -24.8390  -31.8858   25.0073 C   0  0  0  0  0  0  0  0  0  0  0  0
  -28.2199  -11.9053   18.8674 C   0  0  0  0  0  0  0  0  0  0  0  0
  -30.5181  -12.5323   19.7006 C   0  0  0  0  0  0  0  0  0  0  0  0
  -28.5243  -13.3747   20.9104 C   0  0  0  0  0  0  0  0  0  0  0  0
  -25.6614  -30.9599   24.1030 C   0  0  1  0  0  0  0  0  0  0  0  0
  -23.4191  -29.7122   21.3015 C   0  0  1  0  0  0  0  0  0  0  0  0
  -27.6297  -13.0578   19.6993 C   0  0  2  0  0  0  0  0  0  0  0  0
  -16.6627  -26.7228   18.9739 C   0  0  0  0  0  0  0  0  0  0  0  0
  -20.3301  -28.0707   24.3221 C   0  0  0  0  0  0  0  0  0  0  0  0
  -18.3382  -26.9342   23.3178 C   0  0  0  0  0  0  0  0  0  0  0  0
  -18.5360  -29.4189   23.2186 C   0  0  0  0  0  0  0  0  0  0  0  0
  -19.7629  -27.2666   16.8363 C   0  0  0  0  0  0  0  0  0  0  0  0
  -20.0323  -27.9971   21.7585 C   0  0  1  0  0  0  0  0  0  0  0  0
  -18.0160  -27.3200   18.6207 C   0  0  2  0  0  0  0  0  0  0  0  0
  -19.3353  -28.0997   23.1446 C   0  0  0  0  0  0  0  0  0  0  0  0
  -25.8248  -11.5081   20.3502 N   0  0  0  0  0  0  0  0  0  0  0  0
  -30.0645  -15.6208   22.9155 N   0  0  0  0  0  0  0  0  0  0  0  0
  -26.1966  -12.7775   20.1126 N   0  0  0  0  0  0  0  0  0  0  0  0
  -27.1927  -19.9937   19.1480 N   0  0  0  0  0  0  0  0  0  0  0  0
  -29.9113  -13.6045   20.4868 N   0  0  0  0  0  0  0  0  0  0  0  0
  -22.3656  -28.6953   21.3204 N   0  0  0  0  0  0  0  0  0  0  0  0
  -25.3958  -15.0066   20.0847 N   0  0  0  0  0  0  0  0  0  0  0  0
  -21.7693  -12.6119   21.3136 N   0  0  0  0  0  0  0  0  0  0  0  0
  -24.9728  -30.7346   22.8502 N   0  0  0  0  0  0  0  0  0  0  0  0
  -19.1166  -28.0494   20.6240 N   0  0  0  0  0  0  0  0  0  0  0  0
  -18.4559  -26.7487   17.3165 N   0  3  0  0  0  0  0  0  0  0  0  0
  -25.3191  -21.5660   16.6330 O   0  0  0  0  0  0  0  0  0  0  0  0
  -27.4883  -21.6674   20.8134 O   0  0  0  0  0  0  0  0  0  0  0  0
  -22.5402  -14.7237   20.8608 O   0  0  0  0  0  0  0  0  0  0  0  0
  -31.8324  -14.9587   20.5420 O   0  0  0  0  0  0  0  0  0  0  0  0
  -23.5954  -28.9892   23.5423 O   0  0  0  0  0  0  0  0  0  0  0  0
  -20.6653  -30.2738   21.5525 O   0  0  0  0  0  0  0  0  0  0  0  0
  -19.7171  -26.0011   19.7179 O   0  0  0  0  0  0  0  0  0  0  0  0
  -21.5423   -7.0854   21.9778 O   0  0  0  0  0  0  0  0  0  0  0  0
  -26.2380  -24.0694   20.0327 O   0  0  0  0  0  0  0  0  0  1  0  0
  -23.8376   -3.3813   25.3564 F   0  0  0  0  0  0  0  0  0  0  0  0
  -20.3625   -6.4480   24.3953 F   0  0  0  0  0  0  0  0  0  0  0  0
  1  2  1  0  0  0  0
  1  7  2  0  0  0  0
  2  8  2  0  0  0  0
  3 12  2  0  0  0  0
  3 19  1  0  0  0  0
  4 13  1  0  0  0  0
  4 19  2  0  0  0  0
  5 10  2  0  0  0  0
  5 20  1  0  0  0  0
  6 11  1  0  0  0  0
  6 20  2  0  0  0  0
  7 22  1  0  0  0  0
  8 24  1  0  0  0  0
  9 14  2  0  0  0  0
  9 23  1  0  0  0  0
 10 26  1  0  0  0  0
 11 26  2  0  0  0  0
 12 27  1  0  0  0  0
 13 27  2  0  0  0  0
 14 28  1  0  0  0  0
 15 16  2  0  0  0  0
 15 29  1  0  0  0  0
 16 30  1  0  0  0  0
 17 25  1  0  0  0  0
 17 28  2  0  0  0  0
 18 30  2  0  0  0  0
 18 31  1  0  0  0  0
 19 32  1  0  0  0  0
 20 38  1  0  0  0  0
 21 32  1  0  0  0  0
 21 33  2  0  0  0  0
 21 39  1  0  0  0  0
 22 24  2  0  0  0  0
 22 44  1  0  0  0  0
 23 25  2  0  0  0  0
 23 45  1  0  0  0  0
 24 54  1  0  0  0  0
 25 46  1  0  0  0  0
 26 68  1  0  0  0  0
 27 83  1  0  0  0  0
 28 84  1  0  0  0  0
 29 31  2  0  0  0  0
 29 83  1  0  0  0  0
 30 85  1  0  0  0  0
 31 86  1  0  0  0  0
 32 65  2  0  0  0  0
 33 67  1  0  0  0  0
 33 71  1  0  0  0  0
 34 35  1  0  0  0  0
 34 36  1  0  0  0  0
 34 37  2  0  0  0  0
 35 47  1  0  0  0  0
 35 76  2  0  0  0  0
 36 68  1  0  0  0  0
 36 77  2  0  0  0  0
 37 84  1  0  0  0  0
 38 40  1  0  0  0  0
 38 66  2  0  0  0  0
 39 72  1  0  0  0  0
 39 78  2  0  0  0  0
 40 69  1  0  0  0  0
 40 79  2  0  0  0  0
 41 55  1  0  0  0  0
 41 73  1  0  0  0  0
 41 80  2  0  0  0  0
 42 62  1  0  0  0  0
 42 70  1  0  0  0  0
 42 81  2  0  0  0  0
 43 63  1  0  0  0  0
 43 74  1  0  0  0  0
 43 82  2  0  0  0  0
 44 48  1  0  0  0  0
 45 55  1  0  0  0  0
 46 70  1  0  0  0  0
 47 68  1  0  0  0  0
 48 50  1  0  0  0  0
 49 51  1  0  0  0  0
 49 52  1  0  0  0  0
 50 54  1  0  0  0  0
 51 56  1  0  0  0  0
 52 69  1  0  0  0  0
 53 56  1  0  0  0  0
 53 69  1  0  0  0  0
 54 73  1  0  0  0  0
 55 70  1  0  0  0  0
 56 67  1  0  0  0  0
 57 63  1  0  0  0  0
 58 64  1  0  0  0  0
 59 64  1  0  0  0  0
 60 64  1  0  0  0  0
 61 75  1  0  0  0  0
 62 64  1  0  0  0  0
 62 74  1  0  0  0  0
 63 75  1  0  0  0  0
 65 67  1  0  0  0  0
M  CHG  1  75   1
M  ISO  4  37 101  38 100  40 100  84 101
M  END
> <Batch ID>
0078

> <Smiles>
CNC(C)C(=O)NC(C(=O)N1Cc2cc([101O:1][101CH:1]=C3C(=O)CN(c4ccc([100C:0](=N)[100C:0](=O)N5CCCC(n6nc(-c7ccc(Oc8ccc(F)cc8F)cc7)c(C(N)=O)c6N)C5)cc4)C3=O)ccc2CC1C(=O)NC1CCCc2ccccc21)C(C)(C)C

> <Shape>
0.383

> <Color>
0.201

> <Negative vol penalty>
0.000

$$$$

  -OEChem-04042323563D

 86 95  0     1  0  0  0  0  0999 V2000
  -36.6939  -25.4694   32.4221 C   0  0  0  0  0  0  0  0  0  0  0  0
  -36.5416  -24.1138   32.1489 C   0  0  0  0  0  0  0  0  0  0  0  0
  -22.8460  -10.1060   20.1100 C   0  0  0  0  0  0  0  0  0  0  0  0
  -24.2788   -9.5473   21.9732 C   0  0  0  0  0  0  0  0  0  0  0  0
  -31.7559  -12.2130   26.1076 C   0  0  0  0  0  0  0  0  0  0  0  0
  -33.6650  -11.9494   24.6506 C   0  0  0  0  0  0  0  0  0  0  0  0
  -35.7270  -26.1418   33.1684 C   0  0  0  0  0  0  0  0  0  0  0  0
  -35.4229  -23.4296   32.6228 C   0  0  0  0  0  0  0  0  0  0  0  0
  -33.3573  -20.4179   29.1145 C   0  0  0  0  0  0  0  0  0  0  0  0
  -30.9633  -12.5455   25.0090 C   0  0  0  0  0  0  0  0  0  0  0  0
  -32.8724  -12.2818   23.5520 C   0  0  0  0  0  0  0  0  0  0  0  0
  -22.1378   -8.9192   20.2986 C   0  0  0  0  0  0  0  0  0  0  0  0
  -23.5706   -8.3604   22.1619 C   0  0  0  0  0  0  0  0  0  0  0  0
  -33.9894  -19.1997   28.8691 C   0  0  0  0  0  0  0  0  0  0  0  0
  -20.6416   -7.4033   23.5494 C   0  0  0  0  0  0  0  0  0  0  0  0
  -20.2847   -7.0638   24.8544 C   0  0  0  0  0  0  0  0  0  0  0  0
  -32.3612  -18.0826   30.2549 C   0  0  0  0  0  0  0  0  0  0  0  0
  -21.5549   -5.0170   24.6693 C   0  0  0  0  0  0  0  0  0  0  0  0
  -23.9165  -10.4200   20.9473 C   0  0  0  0  0  0  0  0  0  0  0  0
  -33.1067  -11.9150   25.9284 C   0  0  0  0  0  0  0  0  0  0  0  0
  -24.1411  -12.9574   20.8091 C   0  0  0  0  0  0  0  0  0  0  0  0
  -34.5910  -25.4677   33.6435 C   0  0  0  0  0  0  0  0  0  0  0  0
  -32.2270  -20.4792   29.9422 C   0  0  0  0  0  0  0  0  0  0  0  0
  -34.4406  -24.0934   33.3773 C   0  0  0  0  0  0  0  0  0  0  0  0
  -31.7151  -19.3024   30.5072 C   0  0  0  0  0  0  0  0  0  0  0  0
  -31.5215  -12.5799   23.7312 C   0  0  0  0  0  0  0  0  0  0  0  0
  -22.5001   -8.0464   21.3246 C   0  0  0  0  0  0  0  0  0  0  0  0
  -33.4931  -18.0322   29.4416 C   0  0  0  0  0  0  0  0  0  0  0  0
  -21.4551   -6.5496   22.8043 C   0  0  0  0  0  0  0  0  0  0  0  0
  -20.7414   -5.8707   25.4144 C   0  0  0  0  0  0  0  0  0  0  0  0
  -21.9117   -5.3564   23.3643 C   0  0  0  0  0  0  0  0  0  0  0  0
  -24.6488  -11.6456   20.7525 C   0  0  0  0  0  0  0  0  0  0  0  0
  -25.2286  -13.7576   20.5571 C   0  0  0  0  0  0  0  0  0  0  0  0
  -33.9976  -13.9411   28.0477 C   0  0  0  0  0  0  0  0  0  0  0  0
  -33.9428  -11.5645   27.0873 C   0  0  0  0  0  0  0  0  0  0  0  0
  -22.8059  -13.4119   21.0666 C   0  0  0  0  0  0  0  0  0  0  0  0
  -31.5369  -21.9128   32.6940 C   0  0  0  0  0  0  0  0  0  0  0  0
  -28.5603  -20.7719   32.0935 C   0  0  0  0  0  0  0  0  0  0  0  0
  -26.6073  -18.4613   30.5143 C   0  0  0  0  0  0  0  0  0  0  0  0
  -31.1111  -12.9980   21.2811 C   0  0  0  0  0  0  0  0  0  0  0  0
  -33.5963  -26.2261   34.4861 C   0  0  0  0  0  0  0  0  0  0  0  0
  -31.5408  -21.7973   30.1755 C   0  0  0  0  0  0  0  0  0  0  0  0
  -30.4925  -19.3115   31.3867 C   0  0  0  0  0  0  0  0  0  0  0  0
  -32.2542  -25.5138   34.6331 C   0  0  0  0  0  0  0  0  0  0  0  0
  -29.4205  -13.7590   18.2414 C   0  0  0  0  0  0  0  0  0  0  0  0
  -32.4655  -24.0416   34.9717 C   0  0  0  0  0  0  0  0  0  0  0  0
  -27.9579  -13.4285   18.5475 C   0  0  0  0  0  0  0  0  0  0  0  0
  -34.1185  -13.2648   30.3293 C   0  0  0  0  0  0  0  0  0  0  0  0
  -30.3770  -12.7782   18.9173 C   0  0  0  0  0  0  0  0  0  0  0  0
  -34.4736  -12.0961   29.4386 C   0  0  0  0  0  0  0  0  0  0  0  0
  -28.7169  -12.2846   20.6693 C   0  0  0  0  0  0  0  0  0  0  0  0
  -33.2285  -23.3221   33.8529 C   0  0  1  0  0  0  0  0  0  0  0  0
  -34.3598  -14.4682   29.4258 C   0  0  2  0  0  0  0  0  0  0  0  0
  -30.7011  -21.8165   31.4490 C   0  0  1  0  0  0  0  0  0  0  0  0
  -27.7181  -13.2839   20.0631 C   0  0  2  0  0  0  0  0  0  0  0  0
  -24.2130  -17.7598   30.2448 C   0  0  0  0  0  0  0  0  0  0  0  0
  -28.6210  -19.5070   34.8695 C   0  0  0  0  0  0  0  0  0  0  0  0
  -26.6857  -18.0747   34.1828 C   0  0  0  0  0  0  0  0  0  0  0  0
  -26.4373  -20.5559   34.2485 C   0  0  0  0  0  0  0  0  0  0  0  0
  -26.6705  -18.9531   27.5966 C   0  0  0  0  0  0  0  0  0  0  0  0
  -33.5465  -15.6854   29.8229 C   0  0  0  0  0  0  0  0  0  1  0  0
  -27.8191  -19.4967   32.4153 C   0  0  1  0  0  0  0  0  0  0  0  0
  -25.3443  -18.6079   29.6849 C   0  0  2  0  0  0  0  0  0  0  0  0
  -27.4149  -19.4083   33.9141 C   0  0  0  0  0  0  0  0  0  0  0  0
  -25.9570  -11.6100   20.4853 N   0  0  0  0  0  0  0  0  0  0  0  0
  -26.2805  -12.9095   20.3717 N   0  0  0  0  0  0  0  0  0  0  0  0
  -34.0680  -12.5191   28.1118 N   0  0  0  0  0  0  0  0  0  0  0  0
  -29.8607  -20.6257   31.5900 N   0  0  0  0  0  0  0  0  0  0  0  0
  -30.0933  -12.6962   20.3517 N   0  0  0  0  0  0  0  0  0  0  0  0
  -25.3781  -15.0969   20.4781 N   0  0  0  0  0  0  0  0  0  0  0  0
  -21.8092  -12.4561   21.3058 N   0  0  0  0  0  0  0  0  0  0  0  0
  -30.7155  -12.9175   22.6159 N   0  0  0  0  0  0  0  0  0  0  0  0
  -32.3450  -23.0326   32.7439 N   0  0  0  0  0  0  0  0  0  0  0  0
  -26.6943  -19.4333   31.4884 N   0  0  0  0  0  0  0  0  0  0  0  0
  -25.5966  -18.1855   28.2781 N   0  3  0  0  0  0  0  0  0  0  0  0
  -33.7528  -14.6482   27.0808 O   0  0  0  0  0  0  0  0  0  0  0  0
  -34.4989  -10.4677   27.0766 O   0  0  0  0  0  0  0  0  0  0  0  0
  -22.5023  -14.6290   21.0679 O   0  0  0  0  0  0  0  0  0  0  0  0
  -31.4536  -21.0369   33.5469 O   0  0  0  0  0  0  0  0  0  0  0  0
  -28.0033  -21.8574   32.2751 O   0  0  0  0  0  0  0  0  0  0  0  0
  -27.4321  -17.5711   30.3201 O   0  0  0  0  0  0  0  0  0  0  0  0
  -32.2423  -13.3318   20.9191 O   0  0  0  0  0  0  0  0  0  0  0  0
  -21.8091   -6.8884   21.5091 O   0  0  0  0  0  0  0  0  0  0  0  0
  -34.1085  -16.8419   29.2042 O   0  0  0  0  0  0  0  0  0  1  0  0
  -20.3999   -5.5456   26.6681 F   0  0  0  0  0  0  0  0  0  0  0  0
  -22.6945   -4.5328   22.6538 F   0  0  0  0  0  0  0  0  0  0  0  0
  1  2  1  0  0  0  0
  1  7  2  0  0  0  0
  2  8  2  0  0  0  0
  3 12  2  0  0  0  0
  3 19  1  0  0  0  0
  4 13  1  0  0  0  0
  4 19  2  0  0  0  0
  5 10  2  0  0  0  0
  5 20  1  0  0  0  0
  6 11  1  0  0  0  0
  6 20  2  0  0  0  0
  7 22  1  0  0  0  0
  8 24  1  0  0  0  0
  9 14  2  0  0  0  0
  9 23  1  0  0  0  0
 10 26  1  0  0  0  0
 11 26  2  0  0  0  0
 12 27  1  0  0  0  0
 13 27  2  0  0  0  0
 14 28  1  0  0  0  0
 15 16  2  0  0  0  0
 15 29  1  0  0  0  0
 16 30  1  0  0  0  0
 17 25  1  0  0  0  0
 17 28  2  0  0  0  0
 18 30  2  0  0  0  0
 18 31  1  0  0  0  0
 19 32  1  0  0  0  0
 20 35  1  0  0  0  0
 21 32  1  0  0  0  0
 21 33  2  0  0  0  0
 21 36  1  0  0  0  0
 22 24  2  0  0  0  0
 22 41  1  0  0  0  0
 23 25  2  0  0  0  0
 23 42  1  0  0  0  0
 24 52  1  0  0  0  0
 25 43  1  0  0  0  0
 26 72  1  0  0  0  0
 27 83  1  0  0  0  0
 28 84  1  0  0  0  0
 29 31  2  0  0  0  0
 29 83  1  0  0  0  0
 30 85  1  0  0  0  0
 31 86  1  0  0  0  0
 32 65  2  0  0  0  0
 33 66  1  0  0  0  0
 33 70  1  0  0  0  0
 34 53  1  0  0  0  0
 34 67  1  0  0  0  0
 34 76  2  0  0  0  0
 35 67  1  0  0  0  0
 35 77  2  0  0  0  0
 36 71  1  0  0  0  0
 36 78  2  0  0  0  0
 37 54  1  0  0  0  0
 37 73  1  0  0  0  0
 37 79  2  0  0  0  0
 38 62  1  0  0  0  0
 38 68  1  0  0  0  0
 38 80  2  0  0  0  0
 39 63  1  0  0  0  0
 39 74  1  0  0  0  0
 39 81  2  0  0  0  0
 40 69  1  0  0  0  0
 40 72  1  0  0  0  0
 40 82  2  0  0  0  0
 41 44  1  0  0  0  0
 42 54  1  0  0  0  0
 43 68  1  0  0  0  0
 44 46  1  0  0  0  0
 45 47  1  0  0  0  0
 45 49  1  0  0  0  0
 46 52  1  0  0  0  0
 47 55  1  0  0  0  0
 48 50  1  0  0  0  0
 48 53  1  0  0  0  0
 49 69  1  0  0  0  0
 50 67  1  0  0  0  0
 51 55  1  0  0  0  0
 51 69  1  0  0  0  0
 52 73  1  0  0  0  0
 53 61  1  0  0  0  0
 54 68  1  0  0  0  0
 55 66  1  0  0  0  0
 56 63  1  0  0  0  0
 57 64  1  0  0  0  0
 58 64  1  0  0  0  0
 59 64  1  0  0  0  0
 60 75  1  0  0  0  0
 61 84  1  0  0  0  0
 62 64  1  0  0  0  0
 62 74  1  0  0  0  0
 63 75  1  0  0  0  0
 65 66  1  0  0  0  0
M  CHG  1  75   1
M  ISO  4  40 100  61 101  72 100  84 101
M  END
> <Batch ID>
0078

> <Smiles>
CNC(C)C(=O)NC(C(=O)N1Cc2cc([101O:1][101CH2:1]C3CCN(C(=O)c4ccc([100NH:0][100C:0](=O)N5CCCC(n6nc(-c7ccc(Oc8ccc(F)cc8F)cc7)c(C(N)=O)c6N)C5)cc4)C3=O)ccc2CC1C(=O)NC1CCCc2ccccc21)C(C)(C)C

> <Shape>
0.150

> <Color>
0.174

> <Negative vol penalty>
0.000

$$$$

  -OEChem-04042323563D

 87 96  0     1  0  0  0  0  0999 V2000
  -19.7072  -25.2734   24.2160 C   0  0  0  0  0  0  0  0  0  0  0  0
  -20.7725  -25.2494   23.3216 C   0  0  0  0  0  0  0  0  0  0  0  0
  -23.8273   -8.7244   19.9747 C   0  0  0  0  0  0  0  0  0  0  0  0
  -23.1173  -10.4509   21.5084 C   0  0  0  0  0  0  0  0  0  0  0  0
  -18.8549  -26.3761   24.2538 C   0  0  0  0  0  0  0  0  0  0  0  0
  -20.9854  -26.3279   22.4636 C   0  0  0  0  0  0  0  0  0  0  0  0
  -25.8550  -27.6996   22.2390 C   0  0  0  0  0  0  0  0  0  0  0  0
  -29.8662  -19.9337   20.1810 C   0  0  0  0  0  0  0  0  0  0  0  0
  -29.8775  -18.5409   20.1063 C   0  0  0  0  0  0  0  0  0  0  0  0
  -23.0352   -7.7972   20.6518 C   0  0  0  0  0  0  0  0  0  0  0  0
  -22.3251   -9.5236   22.1855 C   0  0  0  0  0  0  0  0  0  0  0  0
  -26.7013  -26.9175   21.4542 C   0  0  0  0  0  0  0  0  0  0  0  0
  -23.2129   -5.9726   23.4915 C   0  0  0  0  0  0  0  0  0  0  0  0
  -23.7741   -4.7280   23.7772 C   0  0  0  0  0  0  0  0  0  0  0  0
  -26.5449  -28.5417   19.6776 C   0  0  0  0  0  0  0  0  0  0  0  0
  -27.7773  -19.9819   18.9679 C   0  0  0  0  0  0  0  0  0  0  0  0
  -22.0424   -3.6500   22.4825 C   0  0  0  0  0  0  0  0  0  0  0  0
  -23.8684  -10.0512   20.4031 C   0  0  0  0  0  0  0  0  0  0  0  0
  -24.3074  -11.8193   18.6173 C   0  0  0  0  0  0  0  0  0  0  0  0
  -19.0632  -27.4728   23.4026 C   0  0  0  0  0  0  0  0  0  0  0  0
  -25.3377  -28.9054   21.7440 C   0  0  0  0  0  0  0  0  0  0  0  0
  -20.1343  -27.4457   22.4892 C   0  0  0  0  0  0  0  0  0  0  0  0
  -25.6943  -29.3386   20.4590 C   0  0  0  0  0  0  0  0  0  0  0  0
  -28.8161  -20.6542   19.6118 C   0  0  0  0  0  0  0  0  0  0  0  0
  -28.8387  -17.8686   19.4624 C   0  0  0  0  0  0  0  0  0  0  0  0
  -22.2841   -8.1968   21.7571 C   0  0  0  0  0  0  0  0  0  0  0  0
  -27.0440  -27.3371   20.1722 C   0  0  0  0  0  0  0  0  0  0  0  0
  -22.0664   -6.0559   22.7013 C   0  0  0  0  0  0  0  0  0  0  0  0
  -23.1889   -3.5667   23.2727 C   0  0  0  0  0  0  0  0  0  0  0  0
  -27.7886  -18.5891   18.8932 C   0  0  0  0  0  0  0  0  0  0  0  0
  -21.4812   -4.8946   22.1968 C   0  0  0  0  0  0  0  0  0  0  0  0
  -24.6869  -11.0094   19.7044 C   0  0  0  0  0  0  0  0  0  0  0  0
  -25.4342  -12.5468   18.3213 C   0  0  0  0  0  0  0  0  0  0  0  0
  -28.2184  -24.2585   19.4724 C   0  0  0  0  0  0  0  0  0  0  0  0
  -29.4644  -24.2401   20.1969 C   0  0  0  0  0  0  0  0  0  0  0  0
  -27.8000  -22.8661   19.1486 C   0  0  0  0  0  0  0  0  0  0  0  0
  -30.1672  -25.2764   20.6665 C   0  0  0  0  0  0  0  0  0  0  0  0
  -23.0488  -11.9063   17.9360 C   0  0  0  0  0  0  0  0  0  0  0  0
  -27.4722  -25.3038   19.0984 C   0  0  0  0  0  0  0  0  0  1  0  0
  -22.4211  -30.0135   21.1363 C   0  0  0  0  0  0  0  0  0  0  0  0
  -24.0168  -32.7747   20.5436 C   0  0  0  0  0  0  0  0  0  0  0  0
  -26.9419  -34.3003   19.6700 C   0  0  0  0  0  0  0  0  0  0  0  0
  -29.8212  -15.5906   19.9002 C   0  0  0  0  0  0  0  0  0  0  0  0
  -18.0873  -28.6219   23.4470 C   0  0  0  0  0  0  0  0  0  0  0  0
  -24.4475  -29.7507   22.6131 C   0  0  0  0  0  0  0  0  0  0  0  0
  -25.1821  -30.6350   19.8886 C   0  0  0  0  0  0  0  0  0  0  0  0
  -29.8643  -22.8033   20.3465 C   0  0  0  0  0  0  0  0  0  0  0  0
  -18.6037  -29.8862   22.7650 C   0  0  0  0  0  0  0  0  0  0  0  0
  -30.1991  -12.0506   19.9556 C   0  0  0  0  0  0  0  0  0  0  0  0
  -19.2128  -29.5497   21.4076 C   0  0  0  0  0  0  0  0  0  0  0  0
  -28.7675  -11.5308   19.8058 C   0  0  0  0  0  0  0  0  0  0  0  0
  -30.2561  -13.3180   20.8066 C   0  0  0  0  0  0  0  0  0  0  0  0
  -27.9292  -13.8782   20.2227 C   0  0  0  0  0  0  0  0  0  0  0  0
  -20.4127  -28.6071   21.5597 C   0  0  1  0  0  0  0  0  0  0  0  0
  -23.5678  -30.7080   21.8150 C   0  0  1  0  0  0  0  0  0  0  0  0
  -27.8134  -12.6394   19.3196 C   0  0  2  0  0  0  0  0  0  0  0  0
  -26.1884  -25.1763   18.3434 C   0  0  0  0  0  0  0  0  0  0  0  0
  -27.9271  -36.5659   19.2295 C   0  0  0  0  0  0  0  0  0  0  0  0
  -22.6275  -32.8482   17.8280 C   0  0  0  0  0  0  0  0  0  0  0  0
  -24.3183  -34.5393   17.0867 C   0  0  0  0  0  0  0  0  0  0  0  0
  -22.7819  -35.0621   18.9811 C   0  0  0  0  0  0  0  0  0  0  0  0
  -28.8974  -34.0061   21.8719 C   0  0  0  0  0  0  0  0  0  0  0  0
  -24.6557  -33.4004   19.3273 C   0  0  1  0  0  0  0  0  0  0  0  0
  -27.6786  -35.4845   20.2695 C   0  0  2  0  0  0  0  0  0  0  0  0
  -23.6041  -33.9371   18.3155 C   0  0  0  0  0  0  0  0  0  0  0  0
  -25.9557  -11.2037   20.0739 N   0  0  0  0  0  0  0  0  0  0  0  0
  -26.3832  -12.1439   19.2141 N   0  0  0  0  0  0  0  0  0  0  0  0
  -28.8050  -22.0435   19.6856 N   0  0  0  0  0  0  0  0  0  0  0  0
  -24.3097  -31.4232   20.7747 N   0  0  0  0  0  0  0  0  0  0  0  0
  -29.3297  -14.3249   20.2841 N   0  0  0  0  0  0  0  0  0  0  0  0
  -25.6958  -13.4854   17.3870 N   0  0  0  0  0  0  0  0  0  0  0  0
  -21.9967  -11.0879   18.3691 N   0  0  0  0  0  0  0  0  0  0  0  0
  -28.8532  -16.4537   19.3877 N   0  0  0  0  0  0  0  0  0  0  0  0
  -21.5791  -29.3411   22.0015 N   0  0  0  0  0  0  0  0  0  0  0  0
  -25.5768  -34.4155   19.8266 N   0  0  0  0  0  0  0  0  0  0  0  0
  -28.9938  -35.0514   20.8206 N   0  3  0  0  0  0  0  0  0  0  0  0
  -26.7916  -22.5432   18.5434 O   0  0  0  0  0  0  0  0  0  0  0  0
  -22.8677  -12.6748   16.9613 O   0  0  0  0  0  0  0  0  0  0  0  0
  -22.3078  -30.0837   19.9182 O   0  0  0  0  0  0  0  0  0  0  0  0
  -23.2906  -33.4619   21.2661 O   0  0  0  0  0  0  0  0  0  0  0  0
  -27.5195  -33.3683   19.1147 O   0  0  0  0  0  0  0  0  0  0  0  0
  -31.0175  -15.8774   19.9921 O   0  0  0  0  0  0  0  0  0  0  0  0
  -21.5109   -7.2923   22.4179 O   0  0  0  0  0  0  0  0  0  0  0  0
  -27.8694  -26.5752   19.4039 O   0  0  0  0  0  0  0  0  0  1  0  0
  -23.7288   -2.3717   23.5459 F   0  0  0  0  0  0  0  0  0  0  0  0
  -26.7856  -17.9535   18.2705 F   0  0  0  0  0  0  0  0  0  0  0  0
  -20.3804   -4.9684   21.4361 F   0  0  0  0  0  0  0  0  0  0  0  0
  1  2  1  0  0  0  0
  1  5  2  0  0  0  0
  2  6  2  0  0  0  0
  3 10  2  0  0  0  0
  3 18  1  0  0  0  0
  4 11  1  0  0  0  0
  4 18  2  0  0  0  0
  5 20  1  0  0  0  0
  6 22  1  0  0  0  0
  7 12  2  0  0  0  0
  7 21  1  0  0  0  0
  8  9  2  0  0  0  0
  8 24  1  0  0  0  0
  9 25  1  0  0  0  0
 10 26  1  0  0  0  0
 11 26  2  0  0  0  0
 12 27  1  0  0  0  0
 13 14  2  0  0  0  0
 13 28  1  0  0  0  0
 14 29  1  0  0  0  0
 15 23  1  0  0  0  0
 15 27  2  0  0  0  0
 16 24  2  0  0  0  0
 16 30  1  0  0  0  0
 17 29  2  0  0  0  0
 17 31  1  0  0  0  0
 18 32  1  0  0  0  0
 19 32  1  0  0  0  0
 19 33  2  0  0  0  0
 19 38  1  0  0  0  0
 20 22  2  0  0  0  0
 20 44  1  0  0  0  0
 21 23  2  0  0  0  0
 21 45  1  0  0  0  0
 22 54  1  0  0  0  0
 23 46  1  0  0  0  0
 24 68  1  0  0  0  0
 25 30  2  0  0  0  0
 25 73  1  0  0  0  0
 26 83  1  0  0  0  0
 27 84  1  0  0  0  0
 28 31  2  0  0  0  0
 28 83  1  0  0  0  0
 29 85  1  0  0  0  0
 30 86  1  0  0  0  0
 31 87  1  0  0  0  0
 32 66  2  0  0  0  0
 33 67  1  0  0  0  0
 33 71  1  0  0  0  0
 34 35  1  0  0  0  0
 34 36  1  0  0  0  0
 34 39  2  0  0  0  0
 35 37  2  0  0  0  0
 35 47  1  0  0  0  0
 36 68  1  0  0  0  0
 36 77  2  0  0  0  0
 38 72  1  0  0  0  0
 38 78  2  0  0  0  0
 39 57  1  0  0  0  0
 39 84  1  0  0  0  0
 40 55  1  0  0  0  0
 40 74  1  0  0  0  0
 40 79  2  0  0  0  0
 41 63  1  0  0  0  0
 41 69  1  0  0  0  0
 41 80  2  0  0  0  0
 42 64  1  0  0  0  0
 42 75  1  0  0  0  0
 42 81  2  0  0  0  0
 43 70  1  0  0  0  0
 43 73  1  0  0  0  0
 43 82  2  0  0  0  0
 44 48  1  0  0  0  0
 45 55  1  0  0  0  0
 46 69  1  0  0  0  0
 47 68  1  0  0  0  0
 48 50  1  0  0  0  0
 49 51  1  0  0  0  0
 49 52  1  0  0  0  0
 50 54  1  0  0  0  0
 51 56  1  0  0  0  0
 52 70  1  0  0  0  0
 53 56  1  0  0  0  0
 53 70  1  0  0  0  0
 54 74  1  0  0  0  0
 55 69  1  0  0  0  0
 56 67  1  0  0  0  0
 58 64  1  0  0  0  0
 59 65  1  0  0  0  0
 60 65  1  0  0  0  0
 61 65  1  0  0  0  0
 62 76  1  0  0  0  0
 63 65  1  0  0  0  0
 63 75  1  0  0  0  0
 64 76  1  0  0  0  0
 66 67  1  0  0  0  0
M  CHG  1  76   1
M  ISO  4  39 101  43 100  73 100  84 101
M  END
> <Batch ID>
0078

> <Smiles>
C=C1CN(c2ccc([100NH:0][100C:0](=O)N3CCCC(n4nc(-c5ccc(Oc6ccc(F)cc6F)cc5)c(C(N)=O)c4N)C3)c(F)c2)C(=O)C1=[101C:1](C)[101O:1]c1ccc2c(c1)CN(C(=O)C(NC(=O)C(C)NC)C(C)(C)C)C(C(=O)NC1CCCc3ccccc31)C2

> <Shape>
0.296

> <Color>
0.129

> <Negative vol penalty>
0.000

$$$$

  -OEChem-04042323563D

 86 95  0     1  0  0  0  0  0999 V2000
  -28.0519  -24.0087   17.7312 C   0  0  0  0  0  0  0  0  0  0  0  0
  -26.8886  -24.2766   18.4458 C   0  0  0  0  0  0  0  0  0  0  0  0
  -26.5966  -13.0612   20.5445 C   0  0  0  0  0  0  0  0  0  0  0  0
  -24.2292  -13.3702   20.1741 C   0  0  0  0  0  0  0  0  0  0  0  0
  -29.2549  -24.6012   18.1126 C   0  0  0  0  0  0  0  0  0  0  0  0
  -26.9281  -25.1362   19.5430 C   0  0  0  0  0  0  0  0  0  0  0  0
  -23.0945  -28.4451   19.5572 C   0  0  0  0  0  0  0  0  0  0  0  0
  -19.5957  -21.2552   20.5832 C   0  0  0  0  0  0  0  0  0  0  0  0
  -20.6845  -22.9535   21.9127 C   0  0  0  0  0  0  0  0  0  0  0  0
  -20.8408  -20.7651   20.1895 C   0  0  0  0  0  0  0  0  0  0  0  0
  -21.9297  -22.4633   21.5190 C   0  0  0  0  0  0  0  0  0  0  0  0
  -26.3321  -11.8948   21.2621 C   0  0  0  0  0  0  0  0  0  0  0  0
  -23.9647  -12.2037   20.8917 C   0  0  0  0  0  0  0  0  0  0  0  0
  -21.8507  -27.9766   19.9781 C   0  0  0  0  0  0  0  0  0  0  0  0
  -24.0693   -8.8697   20.3493 C   0  0  0  0  0  0  0  0  0  0  0  0
  -23.1456   -7.9743   19.8102 C   0  0  0  0  0  0  0  0  0  0  0  0
  -22.2214  -28.9607   22.1491 C   0  0  0  0  0  0  0  0  0  0  0  0
  -21.7633   -8.2163   21.7769 C   0  0  0  0  0  0  0  0  0  0  0  0
  -25.5451  -13.7990   20.0005 C   0  0  0  0  0  0  0  0  0  0  0  0
  -26.0487  -15.1174   17.8755 C   0  0  0  0  0  0  0  0  0  0  0  0
  -29.3073  -25.4762   19.2092 C   0  0  0  0  0  0  0  0  0  0  0  0
  -23.9172  -29.1667   20.4340 C   0  0  0  0  0  0  0  0  0  0  0  0
  -28.1333  -25.7400   19.9403 C   0  0  0  0  0  0  0  0  0  0  0  0
  -23.4741  -29.4394   21.7361 C   0  0  0  0  0  0  0  0  0  0  0  0
  -19.5176  -22.3495   21.4448 C   0  0  0  0  0  0  0  0  0  0  0  0
  -22.0078  -21.3691   20.6574 C   0  0  0  0  0  0  0  0  0  0  0  0
  -25.0162  -11.4660   21.4358 C   0  0  0  0  0  0  0  0  0  0  0  0
  -21.4152  -28.2319   21.2751 C   0  0  0  0  0  0  0  0  0  0  0  0
  -23.8401   -9.4383   21.6022 C   0  0  0  0  0  0  0  0  0  0  0  0
  -21.9926   -7.6476   20.5239 C   0  0  0  0  0  0  0  0  0  0  0  0
  -22.6871   -9.1116   22.3160 C   0  0  0  0  0  0  0  0  0  0  0  0
  -25.8176  -15.0043   19.2596 C   0  0  0  0  0  0  0  0  0  0  0  0
  -26.2551  -16.4598   17.6705 C   0  0  0  0  0  0  0  0  0  0  0  0
  -18.3734  -25.3643   22.2491 C   0  0  0  0  0  0  0  0  0  0  0  0
  -26.0745  -14.1001   16.8655 C   0  0  0  0  0  0  0  0  0  0  0  0
  -26.8063  -28.7169   21.6809 C   0  0  0  0  0  0  0  0  0  0  0  0
  -26.3462  -31.7123   22.8377 C   0  0  0  0  0  0  0  0  0  0  0  0
  -24.1503  -34.1608   23.7484 C   0  0  0  0  0  0  0  0  0  0  0  0
  -24.5268  -21.3545   20.6301 C   0  0  0  0  0  0  0  0  0  0  0  0
  -30.6400  -26.0557   19.6125 C   0  0  0  0  0  0  0  0  0  0  0  0
  -25.2447  -29.6881   19.9563 C   0  0  0  0  0  0  0  0  0  0  0  0
  -24.3108  -30.2270   22.7098 C   0  0  0  0  0  0  0  0  0  0  0  0
  -30.5245  -27.2481   20.5585 C   0  0  0  0  0  0  0  0  0  0  0  0
  -27.8715  -20.3823   19.8921 C   0  0  0  0  0  0  0  0  0  0  0  0
  -29.5351  -26.9462   21.6796 C   0  0  0  0  0  0  0  0  0  0  0  0
  -27.7446  -18.9047   19.5143 C   0  0  0  0  0  0  0  0  0  0  0  0
  -17.1047  -26.0893   20.3593 C   0  0  0  0  0  0  0  0  0  0  0  0
  -26.9099  -20.7650   21.0156 C   0  0  0  0  0  0  0  0  0  0  0  0
  -17.4517  -24.6200   20.1979 C   0  0  0  0  0  0  0  0  0  0  0  0
  -25.3770  -18.9382   20.3976 C   0  0  0  0  0  0  0  0  0  0  0  0
  -28.1309  -26.6864   21.1211 C   0  0  1  0  0  0  0  0  0  0  0  0
  -26.2206  -29.9702   21.0945 C   0  0  1  0  0  0  0  0  0  0  0  0
  -26.2801  -18.5206   19.2255 C   0  0  2  0  0  0  0  0  0  0  0  0
  -18.1137  -26.6061   21.4013 C   0  0  1  0  0  0  0  0  0  0  0  0
  -17.5324  -27.7417   22.2386 C   0  0  0  0  0  0  0  0  0  0  0  0
  -24.0714  -36.4843   24.6932 C   0  0  0  0  0  0  0  0  0  0  0  0
  -26.9796  -30.6043   25.6092 C   0  0  0  0  0  0  0  0  0  0  0  0
  -25.9762  -32.6774   26.5908 C   0  0  0  0  0  0  0  0  0  0  0  0
  -27.9877  -32.8411   25.1246 C   0  0  0  0  0  0  0  0  0  0  0  0
  -22.8074  -35.2218   21.3339 C   0  0  0  0  0  0  0  0  0  0  0  0
  -18.1773  -22.8770   21.8686 C   0  0  0  0  0  0  0  0  0  0  0  0
  -19.4267  -27.0415   20.7416 C   0  0  0  0  0  0  0  0  0  1  0  0
  -25.7447  -32.2921   24.0950 C   0  0  1  0  0  0  0  0  0  0  0  0
  -24.1045  -35.6436   23.4264 C   0  0  2  0  0  0  0  0  0  0  0  0
  -26.6569  -32.0872   25.3374 C   0  0  0  0  0  0  0  0  0  0  0  0
  -25.8721  -16.1809   19.8893 N   0  0  0  0  0  0  0  0  0  0  0  0
  -26.1399  -17.0462   18.8965 N   0  0  0  0  0  0  0  0  0  0  0  0
  -17.9945  -24.2606   21.4865 N   0  0  0  0  0  0  0  0  0  0  0  0
  -25.6038  -30.7100   22.1975 N   0  0  0  0  0  0  0  0  0  0  0  0
  -25.5412  -20.3746   20.6702 N   0  0  0  0  0  0  0  0  0  0  0  0
  -26.5222  -17.1839   16.5629 N   0  0  0  0  0  0  0  0  0  0  0  0
  -25.8420  -12.7722   17.2487 N   0  0  0  0  0  0  0  0  0  0  0  0
  -23.2728  -20.8713   20.2578 N   0  0  0  0  0  0  0  0  0  0  0  0
  -27.4882  -27.9343   20.7687 N   0  0  0  0  0  0  0  0  0  0  0  0
  -25.4448  -33.6886   23.7977 N   0  0  0  0  0  0  0  0  0  0  0  0
  -22.8925  -35.9613   22.6196 N   0  3  0  0  0  0  0  0  0  0  0  0
  -18.8701  -25.3657   23.3665 O   0  0  0  0  0  0  0  0  0  0  0  0
  -26.3132  -14.3589   15.6615 O   0  0  0  0  0  0  0  0  0  0  0  0
  -26.6522  -28.4783   22.8730 O   0  0  0  0  0  0  0  0  0  0  0  0
  -27.4314  -32.1383   22.4343 O   0  0  0  0  0  0  0  0  0  0  0  0
  -23.1389  -33.4895   23.9410 O   0  0  0  0  0  0  0  0  0  0  0  0
  -24.7596  -22.5401   20.8793 O   0  0  0  0  0  0  0  0  0  0  0  0
  -24.7577  -10.3277   22.1358 O   0  0  0  0  0  0  0  0  0  0  0  0
  -20.2018  -27.7753   21.6887 O   0  0  0  0  0  0  0  0  0  1  0  0
  -21.1049   -6.7890   20.0054 F   0  0  0  0  0  0  0  0  0  0  0  0
  -22.4608   -9.6556   23.5196 F   0  0  0  0  0  0  0  0  0  0  0  0
  1  2  1  0  0  0  0
  1  5  2  0  0  0  0
  2  6  2  0  0  0  0
  3 12  2  0  0  0  0
  3 19  1  0  0  0  0
  4 13  1  0  0  0  0
  4 19  2  0  0  0  0
  5 21  1  0  0  0  0
  6 23  1  0  0  0  0
  7 14  2  0  0  0  0
  7 22  1  0  0  0  0
  8 10  2  0  0  0  0
  8 25  1  0  0  0  0
  9 11  1  0  0  0  0
  9 25  2  0  0  0  0
 10 26  1  0  0  0  0
 11 26  2  0  0  0  0
 12 27  1  0  0  0  0
 13 27  2  0  0  0  0
 14 28  1  0  0  0  0
 15 16  2  0  0  0  0
 15 29  1  0  0  0  0
 16 30  1  0  0  0  0
 17 24  1  0  0  0  0
 17 28  2  0  0  0  0
 18 30  2  0  0  0  0
 18 31  1  0  0  0  0
 19 32  1  0  0  0  0
 20 32  1  0  0  0  0
 20 33  2  0  0  0  0
 20 35  1  0  0  0  0
 21 23  2  0  0  0  0
 21 40  1  0  0  0  0
 22 24  2  0  0  0  0
 22 41  1  0  0  0  0
 23 51  1  0  0  0  0
 24 42  1  0  0  0  0
 25 61  1  0  0  0  0
 26 73  1  0  0  0  0
 27 83  1  0  0  0  0
 28 84  1  0  0  0  0
 29 31  2  0  0  0  0
 29 83  1  0  0  0  0
 30 85  1  0  0  0  0
 31 86  1  0  0  0  0
 32 66  2  0  0  0  0
 33 67  1  0  0  0  0
 33 71  1  0  0  0  0
 34 54  1  0  0  0  0
 34 68  1  0  0  0  0
 34 77  2  0  0  0  0
 35 72  1  0  0  0  0
 35 78  2  0  0  0  0
 36 52  1  0  0  0  0
 36 74  1  0  0  0  0
 36 79  2  0  0  0  0
 37 63  1  0  0  0  0
 37 69  1  0  0  0  0
 37 80  2  0  0  0  0
 38 64  1  0  0  0  0
 38 75  1  0  0  0  0
 38 81  2  0  0  0  0
 39 70  1  0  0  0  0
 39 73  1  0  0  0  0
 39 82  2  0  0  0  0
 40 43  1  0  0  0  0
 41 52  1  0  0  0  0
 42 69  1  0  0  0  0
 43 45  1  0  0  0  0
 44 46  1  0  0  0  0
 44 48  1  0  0  0  0
 45 51  1  0  0  0  0
 46 53  1  0  0  0  0
 47 49  1  0  0  0  0
 47 54  1  0  0  0  0
 48 70  1  0  0  0  0
 49 68  1  0  0  0  0
 50 53  1  0  0  0  0
 50 70  1  0  0  0  0
 51 74  1  0  0  0  0
 52 69  1  0  0  0  0
 53 67  1  0  0  0  0
 54 55  1  0  0  0  0
 54 62  1  0  0  0  0
 56 64  1  0  0  0  0
 57 65  1  0  0  0  0
 58 65  1  0  0  0  0
 59 65  1  0  0  0  0
 60 76  1  0  0  0  0
 61 68  1  0  0  0  0
 62 84  1  0  0  0  0
 63 65  1  0  0  0  0
 63 75  1  0  0  0  0
 64 76  1  0  0  0  0
 66 67  1  0  0  0  0
M  CHG  1  76   1
M  ISO  4  39 100  62 101  73 100  84 101
M  END
> <Batch ID>
0078

> <Smiles>
CNC(C)C(=O)NC(C(=O)N1Cc2cc([101O:1][101CH2:1]C3(C)CCN(Cc4ccc([100NH:0][100C:0](=O)N5CCCC(n6nc(-c7ccc(Oc8ccc(F)cc8F)cc7)c(C(N)=O)c6N)C5)cc4)C3=O)ccc2CC1C(=O)NC1CCCc2ccccc21)C(C)(C)C

> <Shape>
0.299

> <Color>
0.080

> <Negative vol penalty>
0.000

$$$$

  -OEChem-04042323563D

 88 97  0     1  0  0  0  0  0999 V2000
  -30.0208  -36.2794   17.6398 C   0  0  0  0  0  0  0  0  0  0  0  0
  -29.9328  -34.8941   17.7331 C   0  0  0  0  0  0  0  0  0  0  0  0
  -22.8508  -10.9563   19.0840 C   0  0  0  0  0  0  0  0  0  0  0  0
  -23.1795   -9.6046   21.0593 C   0  0  0  0  0  0  0  0  0  0  0  0
  -28.1034  -18.2163   19.7014 C   0  0  0  0  0  0  0  0  0  0  0  0
  -29.5096  -37.0795   18.6609 C   0  0  0  0  0  0  0  0  0  0  0  0
  -29.3346  -34.3081   18.8480 C   0  0  0  0  0  0  0  0  0  0  0  0
  -26.0007  -29.1722   18.9640 C   0  0  0  0  0  0  0  0  0  0  0  0
  -27.1899  -19.2567   19.8705 C   0  0  0  0  0  0  0  0  0  0  0  0
  -21.8674  -10.0713   18.6420 C   0  0  0  0  0  0  0  0  0  0  0  0
  -22.1961   -8.7196   20.6173 C   0  0  0  0  0  0  0  0  0  0  0  0
  -26.3161  -27.8566   19.3009 C   0  0  0  0  0  0  0  0  0  0  0  0
  -18.8202   -8.5853   20.5421 C   0  0  0  0  0  0  0  0  0  0  0  0
  -17.8744   -8.1529   21.4717 C   0  0  0  0  0  0  0  0  0  0  0  0
  -29.7459  -19.4520   20.9712 C   0  0  0  0  0  0  0  0  0  0  0  0
  -25.4798  -28.2339   21.5320 C   0  0  0  0  0  0  0  0  0  0  0  0
  -18.5711   -5.8668   21.1171 C   0  0  0  0  0  0  0  0  0  0  0  0
  -23.5069  -10.7229   20.2926 C   0  0  0  0  0  0  0  0  0  0  0  0
  -29.3814  -18.3139   20.2518 C   0  0  0  0  0  0  0  0  0  0  0  0
  -24.3420  -12.7743   21.5584 C   0  0  0  0  0  0  0  0  0  0  0  0
  -28.8962  -36.5032   19.7844 C   0  0  0  0  0  0  0  0  0  0  0  0
  -25.4316  -30.0332   19.9134 C   0  0  0  0  0  0  0  0  0  0  0  0
  -28.8160  -35.1012   19.8857 C   0  0  0  0  0  0  0  0  0  0  0  0
  -25.1558  -29.5592   21.2039 C   0  0  0  0  0  0  0  0  0  0  0  0
  -27.5544  -20.3948   20.5899 C   0  0  0  0  0  0  0  0  0  0  0  0
  -21.5400   -8.9530   19.4086 C   0  0  0  0  0  0  0  0  0  0  0  0
  -26.0583  -27.3881   20.5859 C   0  0  0  0  0  0  0  0  0  0  0  0
  -19.6413   -7.6584   19.8999 C   0  0  0  0  0  0  0  0  0  0  0  0
  -17.7499   -6.7937   21.7592 C   0  0  0  0  0  0  0  0  0  0  0  0
  -28.8324  -20.4924   21.1403 C   0  0  0  0  0  0  0  0  0  0  0  0
  -19.5168   -6.2992   20.1875 C   0  0  0  0  0  0  0  0  0  0  0  0
  -24.5232  -11.6365   20.7494 C   0  0  0  0  0  0  0  0  0  0  0  0
  -25.6043  -13.2952   21.7058 C   0  0  0  0  0  0  0  0  0  0  0  0
  -26.8424  -22.7498   20.3128 C   0  0  0  0  0  0  0  0  0  0  0  0
  -25.9890  -23.7829   20.4463 C   0  0  0  0  0  0  0  0  0  0  0  0
  -24.7365  -23.5794   21.1772 C   0  0  0  0  0  0  0  0  0  0  0  0
  -23.6954  -24.4269   21.1452 C   0  0  0  0  0  0  0  0  0  0  0  0
  -30.3550  -17.2063   20.0724 C   0  0  0  0  0  0  0  0  0  0  0  0
  -23.1402  -13.3121   22.1259 C   0  0  0  0  0  0  0  0  0  0  0  0
  -26.3130  -32.7660   21.2767 C   0  0  0  0  0  0  0  0  0  0  0  0
  -23.3329  -32.6396   22.5515 C   0  0  0  0  0  0  0  0  0  0  0  0
  -20.6530  -30.7367   23.4702 C   0  0  0  0  0  0  0  0  0  0  0  0
  -30.5372  -14.7729   19.6610 C   0  0  0  0  0  0  0  0  0  0  0  0
  -28.4007  -37.4077   20.8848 C   0  0  0  0  0  0  0  0  0  0  0  0
  -25.0726  -31.4417   19.5264 C   0  0  0  0  0  0  0  0  0  0  0  0
  -24.5273  -30.4373   22.2538 C   0  0  0  0  0  0  0  0  0  0  0  0
  -24.6798  -22.3213   22.0177 C   0  0  0  0  0  0  0  0  0  0  0  0
  -27.4469  -36.7181   21.8569 C   0  0  0  0  0  0  0  0  0  0  0  0
  -30.1295  -11.3638   20.5029 C   0  0  0  0  0  0  0  0  0  0  0  0
  -28.0016  -35.3605   22.2763 C   0  0  0  0  0  0  0  0  0  0  0  0
  -28.6200  -11.2229   20.7173 C   0  0  0  0  0  0  0  0  0  0  0  0
  -25.3002  -21.1070   21.3125 C   0  0  0  0  0  0  0  0  0  0  0  0
  -30.4526  -12.3148   19.3513 C   0  0  0  0  0  0  0  0  0  0  0  0
  -28.3112  -13.4913   19.6482 C   0  0  0  0  0  0  0  0  0  0  0  0
  -28.1521  -34.4288   21.0677 C   0  0  1  0  0  0  0  0  0  0  0  0
  -24.9699  -32.3824   20.7230 C   0  0  1  0  0  0  0  0  0  0  0  0
  -27.9354  -12.5988   20.8421 C   0  0  1  0  0  0  0  0  0  0  0  0
  -18.3804  -30.9112   24.5199 C   0  0  0  0  0  0  0  0  0  0  0  0
  -24.6279  -32.9700   25.2944 C   0  0  0  0  0  0  0  0  0  0  0  0
  -22.4816  -32.1946   26.3240 C   0  0  0  0  0  0  0  0  0  0  0  0
  -22.5274  -34.2873   24.9670 C   0  0  0  0  0  0  0  0  0  0  0  0
  -19.3246  -29.6783   21.0465 C   0  0  0  0  0  0  0  0  0  0  0  0
  -26.3129  -25.1335   19.8733 C   0  0  0  0  0  0  0  0  0  1  0  0
  -22.7301  -32.0514   23.8044 C   0  0  1  0  0  0  0  0  0  0  0  0
  -19.1654  -30.9032   23.2175 C   0  0  2  0  0  0  0  0  0  0  0  0
  -23.1054  -32.8596   25.0785 C   0  0  0  0  0  0  0  0  0  0  0  0
  -25.7999  -11.4454   20.4068 N   0  0  0  0  0  0  0  0  0  0  0  0
  -26.4325  -12.4701   21.0033 N   0  0  0  0  0  0  0  0  0  0  0  0
  -26.6233  -21.4525   20.7600 N   0  0  0  0  0  0  0  0  0  0  0  0
  -24.2004  -31.8084   21.8287 N   0  0  0  0  0  0  0  0  0  0  0  0
  -29.7747  -13.5971   19.5494 N   0  0  0  0  0  0  0  0  0  0  0  0
  -26.0756  -14.3740   22.3665 N   0  0  0  0  0  0  0  0  0  0  0  0
  -21.9294  -12.6524   21.8750 N   0  0  0  0  0  0  0  0  0  0  0  0
  -29.7994  -15.9395   19.8913 N   0  0  0  0  0  0  0  0  0  0  0  0
  -26.8665  -33.8855   20.6852 N   0  0  0  0  0  0  0  0  0  0  0  0
  -21.2951  -31.9536   23.5599 N   0  0  0  0  0  0  0  0  0  0  0  0
  -18.6563  -29.7890   22.3687 N   0  3  0  0  0  0  0  0  0  0  0  0
  -31.5558  -17.4627   20.0537 O   0  0  0  0  0  0  0  0  0  0  0  0
  -23.1379  -14.3564   22.8209 O   0  0  0  0  0  0  0  0  0  0  0  0
  -26.8097  -32.0968   22.1751 O   0  0  0  0  0  0  0  0  0  0  0  0
  -23.0391  -33.7916   22.2224 O   0  0  0  0  0  0  0  0  0  0  0  0
  -21.1909  -29.6372   23.5809 O   0  0  0  0  0  0  0  0  0  0  0  0
  -31.7706  -14.7789   19.5992 O   0  0  0  0  0  0  0  0  0  0  0  0
  -20.5803   -8.0893   18.9778 O   0  0  0  0  0  0  0  0  0  0  0  0
  -26.3658  -26.1046   20.9176 O   0  0  0  0  0  0  0  0  0  1  0  0
  -16.8427   -6.3788   22.6531 F   0  0  0  0  0  0  0  0  0  0  0  0
  -29.1935  -21.5817   21.8334 F   0  0  0  0  0  0  0  0  0  0  0  0
  -20.3037   -5.4042   19.5746 F   0  0  0  0  0  0  0  0  0  0  0  0
  1  2  1  0  0  0  0
  1  6  2  0  0  0  0
  2  7  2  0  0  0  0
  3 10  2  0  0  0  0
  3 18  1  0  0  0  0
  4 11  1  0  0  0  0
  4 18  2  0  0  0  0
  5  9  2  0  0  0  0
  5 19  1  0  0  0  0
  6 21  1  0  0  0  0
  7 23  1  0  0  0  0
  8 12  2  0  0  0  0
  8 22  1  0  0  0  0
  9 25  1  0  0  0  0
 10 26  1  0  0  0  0
 11 26  2  0  0  0  0
 12 27  1  0  0  0  0
 13 14  2  0  0  0  0
 13 28  1  0  0  0  0
 14 29  1  0  0  0  0
 15 19  2  0  0  0  0
 15 30  1  0  0  0  0
 16 24  1  0  0  0  0
 16 27  2  0  0  0  0
 17 29  2  0  0  0  0
 17 31  1  0  0  0  0
 18 32  1  0  0  0  0
 19 38  1  0  0  0  0
 20 32  1  0  0  0  0
 20 33  2  0  0  0  0
 20 39  1  0  0  0  0
 21 23  2  0  0  0  0
 21 44  1  0  0  0  0
 22 24  2  0  0  0  0
 22 45  1  0  0  0  0
 23 55  1  0  0  0  0
 24 46  1  0  0  0  0
 25 30  2  0  0  0  0
 25 69  1  0  0  0  0
 26 84  1  0  0  0  0
 27 85  1  0  0  0  0
 28 31  2  0  0  0  0
 28 84  1  0  0  0  0
 29 86  1  0  0  0  0
 30 87  1  0  0  0  0
 31 88  1  0  0  0  0
 32 67  2  0  0  0  0
 33 68  1  0  0  0  0
 33 72  1  0  0  0  0
 34 35  2  0  0  0  0
 34 69  1  0  0  0  0
 35 36  1  0  0  0  0
 35 63  1  0  0  0  0
 36 37  2  0  0  0  0
 36 47  1  0  0  0  0
 38 74  1  0  0  0  0
 38 78  2  0  0  0  0
 39 73  1  0  0  0  0
 39 79  2  0  0  0  0
 40 56  1  0  0  0  0
 40 75  1  0  0  0  0
 40 80  2  0  0  0  0
 41 64  1  0  0  0  0
 41 70  1  0  0  0  0
 41 81  2  0  0  0  0
 42 65  1  0  0  0  0
 42 76  1  0  0  0  0
 42 82  2  0  0  0  0
 43 71  1  0  0  0  0
 43 74  1  0  0  0  0
 43 83  2  0  0  0  0
 44 48  1  0  0  0  0
 45 56  1  0  0  0  0
 46 70  1  0  0  0  0
 47 52  1  0  0  0  0
 48 50  1  0  0  0  0
 49 51  1  0  0  0  0
 49 53  1  0  0  0  0
 50 55  1  0  0  0  0
 51 57  1  0  0  0  0
 52 69  1  0  0  0  0
 53 71  1  0  0  0  0
 54 57  1  0  0  0  0
 54 71  1  0  0  0  0
 55 75  1  0  0  0  0
 56 70  1  0  0  0  0
 57 68  1  0  0  0  0
 58 65  1  0  0  0  0
 59 66  1  0  0  0  0
 60 66  1  0  0  0  0
 61 66  1  0  0  0  0
 62 77  1  0  0  0  0
 63 85  1  0  0  0  0
 64 66  1  0  0  0  0
 64 76  1  0  0  0  0
 65 77  1  0  0  0  0
 67 68  1  0  0  0  0
M  CHG  1  77   1
M  ISO  4  43 100  63 101  74 100  85 101
M  END
> <Batch ID>
0078

> <Smiles>
C=C1CCN(c2ccc(C(=O)[100NH:0][100C:0](=O)N3CCCC(n4nc(-c5ccc(Oc6ccc(F)cc6F)cc5)c(C(N)=O)c4N)C3)cc2F)C=C1[101CH2:1][101O:1]c1ccc2c(c1)CN(C(=O)C(NC(=O)C(C)NC)C(C)(C)C)C(C(=O)NC1CCCc3ccccc31)C2

> <Shape>
0.245

> <Color>
0.112

> <Negative vol penalty>
0.000

$$$$

  -OEChem-04042323563D

 87 95  0     1  0  0  0  0  0999 V2000
  -27.0155  -32.5328   26.5927 C   0  0  0  0  0  0  0  0  0  0  0  0
  -27.3566  -31.4948   25.7315 C   0  0  0  0  0  0  0  0  0  0  0  0
  -31.5363  -22.0721   21.7937 C   0  0  0  0  0  0  0  0  0  0  0  0
  -23.8008  -14.5764   22.1416 C   0  0  0  0  0  0  0  0  0  0  0  0
  -26.1936  -14.6689   22.4627 C   0  0  0  0  0  0  0  0  0  0  0  0
  -31.7000  -23.1357   20.9062 C   0  0  0  0  0  0  0  0  0  0  0  0
  -25.7264  -32.6053   27.1189 C   0  0  0  0  0  0  0  0  0  0  0  0
  -26.4090  -30.5281   25.3969 C   0  0  0  0  0  0  0  0  0  0  0  0
  -26.3808  -29.4677   20.4451 C   0  0  0  0  0  0  0  0  0  0  0  0
  -30.2585  -21.7100   22.2202 C   0  0  0  0  0  0  0  0  0  0  0  0
  -23.9405  -13.3756   21.4459 C   0  0  0  0  0  0  0  0  0  0  0  0
  -26.3334  -13.4680   21.7670 C   0  0  0  0  0  0  0  0  0  0  0  0
  -27.3902  -28.6334   19.9669 C   0  0  0  0  0  0  0  0  0  0  0  0
  -23.6324  -10.1010   19.8975 C   0  0  0  0  0  0  0  0  0  0  0  0
  -22.7484   -9.0668   20.2048 C   0  0  0  0  0  0  0  0  0  0  0  0
  -29.3082  -23.4752   20.8720 C   0  0  0  0  0  0  0  0  0  0  0  0
  -25.8573  -26.7710   19.9977 C   0  0  0  0  0  0  0  0  0  0  0  0
  -23.5330   -9.0750   22.4899 C   0  0  0  0  0  0  0  0  0  0  0  0
  -24.9274  -15.2231   22.6500 C   0  0  0  0  0  0  0  0  0  0  0  0
  -30.5859  -23.8373   20.4454 C   0  0  0  0  0  0  0  0  0  0  0  0
  -24.5918  -16.6270   24.7533 C   0  0  0  0  0  0  0  0  0  0  0  0
  -24.7598  -31.6445   26.7829 C   0  0  0  0  0  0  0  0  0  0  0  0
  -25.1029  -28.9567   20.7140 C   0  0  0  0  0  0  0  0  0  0  0  0
  -25.1062  -30.5871   25.9201 C   0  0  0  0  0  0  0  0  0  0  0  0
  -24.8327  -27.6014   20.4768 C   0  0  0  0  0  0  0  0  0  0  0  0
  -29.1445  -22.4116   21.7594 C   0  0  0  0  0  0  0  0  0  0  0  0
  -25.2068  -12.8214   21.2586 C   0  0  0  0  0  0  0  0  0  0  0  0
  -27.1294  -27.2842   19.7458 C   0  0  0  0  0  0  0  0  0  0  0  0
  -24.4669  -10.6222   20.8864 C   0  0  0  0  0  0  0  0  0  0  0  0
  -22.6986   -8.5538   21.5010 C   0  0  0  0  0  0  0  0  0  0  0  0
  -24.4171  -10.1092   22.1826 C   0  0  0  0  0  0  0  0  0  0  0  0
  -24.7837  -16.4639   23.3683 C   0  0  0  0  0  0  0  0  0  0  0  0
  -24.5162  -17.9868   24.9317 C   0  0  0  0  0  0  0  0  0  0  0  0
  -30.7601  -24.9591   19.5092 C   0  0  0  0  0  0  0  0  0  0  0  0
  -24.4910  -15.6379   25.7864 C   0  0  0  0  0  0  0  0  0  0  0  0
  -23.2909  -28.7002   23.3130 C   0  0  0  0  0  0  0  0  0  0  0  0
  -21.0753  -27.6491   21.1897 C   0  0  0  0  0  0  0  0  0  0  0  0
  -20.4128  -26.2259   18.1594 C   0  0  0  0  0  0  0  0  0  0  0  0
  -26.6362  -22.6346   21.8319 C   0  0  0  0  0  0  0  0  0  0  0  0
  -23.3931  -31.7381   27.4140 C   0  0  0  0  0  0  0  0  0  0  0  0
  -24.0175  -29.8754   21.2042 C   0  0  0  0  0  0  0  0  0  0  0  0
  -23.4718  -27.0079   20.7304 C   0  0  0  0  0  0  0  0  0  0  0  0
  -22.3392  -30.8841   26.7140 C   0  0  0  0  0  0  0  0  0  0  0  0
  -23.2304  -21.9969   22.6512 C   0  0  0  0  0  0  0  0  0  0  0  0
  -22.8803  -29.4838   26.4434 C   0  0  0  0  0  0  0  0  0  0  0  0
  -23.2259  -20.5221   23.0600 C   0  0  0  0  0  0  0  0  0  0  0  0
  -24.2012  -22.2640   21.5023 C   0  0  0  0  0  0  0  0  0  0  0  0
  -25.5682  -20.3143   22.1341 C   0  0  0  0  0  0  0  0  0  0  0  0
  -24.0989  -29.5334   25.5139 C   0  0  1  0  0  0  0  0  0  0  0  0
  -22.8959  -29.1404   21.9317 C   0  0  1  0  0  0  0  0  0  0  0  0
  -24.6534  -20.0081   23.3312 C   0  0  2  0  0  0  0  0  0  0  0  0
  -18.5076  -25.4569   16.7186 C   0  0  0  0  0  0  0  0  0  0  0  0
  -20.7504  -25.1741   22.9443 C   0  0  0  0  0  0  0  0  0  0  0  0
  -19.5975  -24.0513   21.0265 C   0  0  0  0  0  0  0  0  0  0  0  0
  -18.6100  -26.1033   22.0447 C   0  0  0  0  0  0  0  0  0  0  0  0
  -30.1154  -27.6254   15.5762 C   0  0  0  0  0  0  0  0  0  0  0  0
  -31.9114  -27.1475   17.2311 C   0  0  0  0  0  0  0  0  0  0  0  0
  -31.2676  -25.4015   15.5612 C   0  0  0  0  0  0  0  0  0  0  0  0
  -29.9592  -23.5543   17.6493 C   0  0  0  0  0  0  0  0  0  0  0  0
  -21.1209  -28.1288   16.0061 C   0  0  0  0  0  0  0  0  0  0  0  0
  -29.1071  -27.0594   18.4443 C   0  0  0  0  0  0  0  0  0  1  0  0
  -20.6912  -26.3034   20.6233 C   0  0  1  0  0  0  0  0  0  0  0  0
  -19.4411  -26.6085   17.0577 C   0  0  2  0  0  0  0  0  0  0  0  0
  -29.6500  -25.9985   17.4789 C   0  0  1  0  0  0  0  0  0  0  0  0
  -19.9386  -25.4185   21.6567 C   0  0  0  0  0  0  0  0  0  0  0  0
  -30.7246  -26.5212   16.4687 C   0  0  0  0  0  0  0  0  0  0  0  0
  -24.8272  -17.6271   22.7132 N   0  0  0  0  0  0  0  0  0  0  0  0
  -24.6614  -18.5341   23.6909 N   0  0  0  0  0  0  0  0  0  0  0  0
  -22.4454  -27.9455   21.2152 N   0  0  0  0  0  0  0  0  0  0  0  0
  -25.5339  -21.7539   21.8321 N   0  0  0  0  0  0  0  0  0  0  0  0
  -24.3402  -18.7557   26.0272 N   0  0  0  0  0  0  0  0  0  0  0  0
  -24.5904  -14.2863   25.4292 N   0  0  0  0  0  0  0  0  0  0  0  0
  -27.8466  -22.0434   22.1926 N   0  0  0  0  0  0  0  0  0  0  0  0
  -23.6810  -29.7339   24.1429 N   0  0  0  0  0  0  0  0  0  0  0  0
  -19.9353  -26.5739   19.4052 N   0  0  0  0  0  0  0  0  0  0  0  0
  -30.1404  -24.8717   18.2524 N   0  0  0  0  0  0  0  0  0  0  0  0
  -20.1826  -26.9917   15.8231 N   0  3  0  0  0  0  0  0  0  0  0  0
  -31.4357  -25.9051   19.9127 O   0  0  0  0  0  0  0  0  0  0  0  0
  -24.3014  -15.9430   26.9882 O   0  0  0  0  0  0  0  0  0  0  0  0
  -23.2437  -27.5109   23.6047 O   0  0  0  0  0  0  0  0  0  0  0  0
  -20.1916  -28.4121   21.5879 O   0  0  0  0  0  0  0  0  0  0  0  0
  -21.4863  -25.6702   17.9374 O   0  0  0  0  0  0  0  0  0  0  0  0
  -26.5106  -23.8314   21.5602 O   0  0  0  0  0  0  0  0  0  0  0  0
  -25.3435  -11.6495   20.5799 O   0  0  0  0  0  0  0  0  0  0  0  0
  -28.1131  -26.4675   19.2797 O   0  0  0  0  0  0  0  0  0  1  0  0
  -21.8485   -7.5618   21.7963 F   0  0  0  0  0  0  0  0  0  0  0  0
  -25.2155  -10.6067   23.1370 F   0  0  0  0  0  0  0  0  0  0  0  0
  1  2  1  0  0  0  0
  1  7  2  0  0  0  0
  2  8  2  0  0  0  0
  3  6  2  0  0  0  0
  3 10  1  0  0  0  0
  4 11  2  0  0  0  0
  4 19  1  0  0  0  0
  5 12  1  0  0  0  0
  5 19  2  0  0  0  0
  6 20  1  0  0  0  0
  7 22  1  0  0  0  0
  8 24  1  0  0  0  0
  9 13  2  0  0  0  0
  9 23  1  0  0  0  0
 10 26  2  0  0  0  0
 11 27  1  0  0  0  0
 12 27  2  0  0  0  0
 13 28  1  0  0  0  0
 14 15  2  0  0  0  0
 14 29  1  0  0  0  0
 15 30  1  0  0  0  0
 16 20  2  0  0  0  0
 16 26  1  0  0  0  0
 17 25  1  0  0  0  0
 17 28  2  0  0  0  0
 18 30  2  0  0  0  0
 18 31  1  0  0  0  0
 19 32  1  0  0  0  0
 20 34  1  0  0  0  0
 21 32  1  0  0  0  0
 21 33  2  0  0  0  0
 21 35  1  0  0  0  0
 22 24  2  0  0  0  0
 22 40  1  0  0  0  0
 23 25  2  0  0  0  0
 23 41  1  0  0  0  0
 24 49  1  0  0  0  0
 25 42  1  0  0  0  0
 26 73  1  0  0  0  0
 27 84  1  0  0  0  0
 28 85  1  0  0  0  0
 29 31  2  0  0  0  0
 29 84  1  0  0  0  0
 30 86  1  0  0  0  0
 31 87  1  0  0  0  0
 32 67  2  0  0  0  0
 33 68  1  0  0  0  0
 33 71  1  0  0  0  0
 34 76  1  0  0  0  0
 34 78  2  0  0  0  0
 35 72  1  0  0  0  0
 35 79  2  0  0  0  0
 36 50  1  0  0  0  0
 36 74  1  0  0  0  0
 36 80  2  0  0  0  0
 37 62  1  0  0  0  0
 37 69  1  0  0  0  0
 37 81  2  0  0  0  0
 38 63  1  0  0  0  0
 38 75  1  0  0  0  0
 38 82  2  0  0  0  0
 39 70  1  0  0  0  0
 39 73  1  0  0  0  0
 39 83  2  0  0  0  0
 40 43  1  0  0  0  0
 41 50  1  0  0  0  0
 42 69  1  0  0  0  0
 43 45  1  0  0  0  0
 44 46  1  0  0  0  0
 44 47  1  0  0  0  0
 45 49  1  0  0  0  0
 46 51  1  0  0  0  0
 47 70  1  0  0  0  0
 48 51  1  0  0  0  0
 48 70  1  0  0  0  0
 49 74  1  0  0  0  0
 50 69  1  0  0  0  0
 51 68  1  0  0  0  0
 52 63  1  0  0  0  0
 53 65  1  0  0  0  0
 54 65  1  0  0  0  0
 55 65  1  0  0  0  0
 56 66  1  0  0  0  0
 57 66  1  0  0  0  0
 58 66  1  0  0  0  0
 59 76  1  0  0  0  0
 60 77  1  0  0  0  0
 61 64  1  0  0  0  0
 61 85  1  0  0  0  0
 62 65  1  0  0  0  0
 62 75  1  0  0  0  0
 63 77  1  0  0  0  0
 64 66  1  0  0  0  0
 64 76  1  0  0  0  0
 67 68  1  0  0  0  0
M  CHG  1  77   1
M  ISO  4  39 100  61 101  73 100  85 101
M  END
> <Batch ID>
0078

> <Smiles>
CNC(C)C(=O)NC(C(=O)N1Cc2cc([101O:1][101CH2:1]C(N(C)C(=O)c3cccc([100NH:0][100C:0](=O)N4CCCC(n5nc(-c6ccc(Oc7ccc(F)cc7F)cc6)c(C(N)=O)c5N)C4)c3)C(C)(C)C)ccc2CC1C(=O)NC1CCCc2ccccc21)C(C)(C)C

> <Shape>
0.236

> <Color>
0.067

> <Negative vol penalty>
0.000

$$$$

  -OEChem-04042323563D

 85 93  0     1  0  0  0  0  0999 V2000
  -28.7383  -36.4363   24.9491 C   0  0  0  0  0  0  0  0  0  0  0  0
  -28.9873  -35.1282   24.5462 C   0  0  0  0  0  0  0  0  0  0  0  0
  -23.1086   -9.7637   20.0503 C   0  0  0  0  0  0  0  0  0  0  0  0
  -23.7951   -9.9583   22.3586 C   0  0  0  0  0  0  0  0  0  0  0  0
  -31.2695  -19.0722   20.2372 C   0  0  0  0  0  0  0  0  0  0  0  0
  -27.4478  -36.8187   25.3127 C   0  0  0  0  0  0  0  0  0  0  0  0
  -27.9461  -34.2015   24.5077 C   0  0  0  0  0  0  0  0  0  0  0  0
  -27.2327  -29.6303   20.4950 C   0  0  0  0  0  0  0  0  0  0  0  0
  -31.1083  -17.6903   20.3363 C   0  0  0  0  0  0  0  0  0  0  0  0
  -22.3647   -8.6272   20.3674 C   0  0  0  0  0  0  0  0  0  0  0  0
  -23.0512   -8.8218   22.6756 C   0  0  0  0  0  0  0  0  0  0  0  0
  -27.5223  -28.2683   20.5636 C   0  0  0  0  0  0  0  0  0  0  0  0
  -19.8107   -8.0450   23.2384 C   0  0  0  0  0  0  0  0  0  0  0  0
  -19.0172   -8.0906   24.3846 C   0  0  0  0  0  0  0  0  0  0  0  0
  -29.5826  -19.3910   21.9371 C   0  0  0  0  0  0  0  0  0  0  0  0
  -25.2395  -27.8211   21.2024 C   0  0  0  0  0  0  0  0  0  0  0  0
  -20.2472   -6.2285   25.3103 C   0  0  0  0  0  0  0  0  0  0  0  0
  -23.8239  -10.4292   21.0459 C   0  0  0  0  0  0  0  0  0  0  0  0
  -30.5067  -19.9226   21.0376 C   0  0  0  0  0  0  0  0  0  0  0  0
  -24.1530  -12.9400   20.7374 C   0  0  0  0  0  0  0  0  0  0  0  0
  -26.3883  -35.8988   25.2694 C   0  0  0  0  0  0  0  0  0  0  0  0
  -25.9448  -30.0999   20.7907 C   0  0  0  0  0  0  0  0  0  0  0  0
  -26.6404  -34.5717   24.8723 C   0  0  0  0  0  0  0  0  0  0  0  0
  -24.9354  -29.1894   21.1343 C   0  0  0  0  0  0  0  0  0  0  0  0
  -30.1842  -17.1587   21.2358 C   0  0  0  0  0  0  0  0  0  0  0  0
  -22.3359   -8.1563   21.6800 C   0  0  0  0  0  0  0  0  0  0  0  0
  -26.5264  -27.3638   20.9201 C   0  0  0  0  0  0  0  0  0  0  0  0
  -20.8224   -7.0910   23.1280 C   0  0  0  0  0  0  0  0  0  0  0  0
  -19.2354   -7.1824   25.4206 C   0  0  0  0  0  0  0  0  0  0  0  0
  -29.4213  -18.0090   22.0362 C   0  0  0  0  0  0  0  0  0  0  0  0
  -21.0407   -6.1828   24.1640 C   0  0  0  0  0  0  0  0  0  0  0  0
  -24.5930  -11.6030   20.7190 C   0  0  0  0  0  0  0  0  0  0  0  0
  -25.2512  -13.6683   20.3502 C   0  0  0  0  0  0  0  0  0  0  0  0
  -30.6767  -21.3858   20.9334 C   0  0  0  0  0  0  0  0  0  0  0  0
  -22.8665  -13.4758   21.0744 C   0  0  0  0  0  0  0  0  0  0  0  0
  -24.7155  -32.0471   22.9818 C   0  0  0  0  0  0  0  0  0  0  0  0
  -28.2896  -24.1294   20.7789 C   0  0  0  0  0  0  0  0  0  0  0  0
  -21.9976  -31.6351   21.2597 C   0  0  0  0  0  0  0  0  0  0  0  0
  -20.2054  -29.7002   19.0938 C   0  0  0  0  0  0  0  0  0  0  0  0
  -30.7022  -14.7735   20.6120 C   0  0  0  0  0  0  0  0  0  0  0  0
  -25.0194  -36.3464   25.7170 C   0  0  0  0  0  0  0  0  0  0  0  0
  -25.6417  -31.5695   20.6862 C   0  0  0  0  0  0  0  0  0  0  0  0
  -23.5316  -29.6403   21.4416 C   0  0  0  0  0  0  0  0  0  0  0  0
  -23.8995  -35.4011   25.2898 C   0  0  0  0  0  0  0  0  0  0  0  0
  -29.6793  -12.1706   18.4084 C   0  0  0  0  0  0  0  0  0  0  0  0
  -24.2824  -33.9537   25.5817 C   0  0  0  0  0  0  0  0  0  0  0  0
  -28.2287  -11.9009   18.8146 C   0  0  0  0  0  0  0  0  0  0  0  0
  -30.5543  -12.5017   19.6162 C   0  0  0  0  0  0  0  0  0  0  0  0
  -28.5997  -13.3156   20.8757 C   0  0  0  0  0  0  0  0  0  0  0  0
  -25.5324  -33.5440   24.7937 C   0  0  1  0  0  0  0  0  0  0  0  0
  -24.4270  -31.9890   21.5083 C   0  0  1  0  0  0  0  0  0  0  0  0
  -27.6660  -13.0413   19.6855 C   0  0  2  0  0  0  0  0  0  0  0  0
  -18.0016  -29.6064   17.8972 C   0  0  0  0  0  0  0  0  0  0  0  0
  -20.6244  -30.8147   23.8581 C   0  0  0  0  0  0  0  0  0  0  0  0
  -18.7669  -29.8441   22.4884 C   0  0  0  0  0  0  0  0  0  0  0  0
  -19.2533  -32.2881   22.3736 C   0  0  0  0  0  0  0  0  0  0  0  0
  -21.5138  -29.7296   16.4393 C   0  0  0  0  0  0  0  0  0  0  0  0
  -29.6579  -23.5852   20.4625 C   0  0  0  0  0  0  0  0  0  0  0  0
  -28.1420  -25.6348   20.6819 C   0  0  0  0  0  0  0  0  0  1  0  0
  -20.8504  -30.6542   21.2911 C   0  0  1  0  0  0  0  0  0  0  0  0
  -19.4559  -30.0444   17.8194 C   0  0  2  0  0  0  0  0  0  0  0  0
  -19.9006  -30.8917   22.4990 C   0  0  0  0  0  0  0  0  0  0  0  0
  -25.8711  -11.4858   20.3492 N   0  0  0  0  0  0  0  0  0  0  0  0
  -26.2436  -12.7586   20.1316 N   0  0  0  0  0  0  0  0  0  0  0  0
  -23.2864  -31.0879   21.3317 N   0  0  0  0  0  0  0  0  0  0  0  0
  -29.9610  -13.5934   20.3914 N   0  0  0  0  0  0  0  0  0  0  0  0
  -25.4552  -14.9917   20.1787 N   0  0  0  0  0  0  0  0  0  0  0  0
  -21.8503  -12.5870   21.4508 N   0  0  0  0  0  0  0  0  0  0  0  0
  -30.0231  -15.7543   21.3342 N   0  0  0  0  0  0  0  0  0  0  0  0
  -29.6187  -22.1373   20.5806 N   0  0  0  0  0  0  0  0  0  0  0  0
  -25.1927  -33.2698   23.4139 N   0  0  0  0  0  0  0  0  0  0  0  0
  -20.1973  -30.7481   19.9899 N   0  0  0  0  0  0  0  0  0  0  0  0
  -31.8797  -21.8985   21.1928 N   0  3  0  0  0  0  0  0  0  0  0  0
  -20.0874  -29.3715   16.6492 N   0  3  0  0  0  0  0  0  0  0  0  0
  -22.6205  -14.7050   21.0268 O   0  0  0  0  0  0  0  0  0  0  0  0
  -24.5182  -31.0565   23.6756 O   0  0  0  0  0  0  0  0  0  0  0  0
  -27.3472  -23.4053   21.0968 O   0  0  0  0  0  0  0  0  0  0  0  0
  -21.7590  -32.8418   21.1673 O   0  0  0  0  0  0  0  0  0  0  0  0
  -20.7410  -28.6094   19.2776 O   0  0  0  0  0  0  0  0  0  0  0  0
  -31.8445  -14.9150   20.1680 O   0  0  0  0  0  0  0  0  0  0  0  0
  -21.6099   -7.0474   21.9898 O   0  0  0  0  0  0  0  0  0  0  0  0
  -26.8066  -26.0338   20.9884 O   0  0  0  0  0  0  0  0  0  1  0  0
  -18.4744   -7.2274   26.5219 F   0  0  0  0  0  0  0  0  0  0  0  0
  -28.5293  -17.5091   22.9032 F   0  0  0  0  0  0  0  0  0  0  0  0
  -22.0118   -5.2648   24.0642 F   0  0  0  0  0  0  0  0  0  0  0  0
  1  2  1  0  0  0  0
  1  6  2  0  0  0  0
  2  7  2  0  0  0  0
  3 10  2  0  0  0  0
  3 18  1  0  0  0  0
  4 11  1  0  0  0  0
  4 18  2  0  0  0  0
  5  9  2  0  0  0  0
  5 19  1  0  0  0  0
  6 21  1  0  0  0  0
  7 23  1  0  0  0  0
  8 12  2  0  0  0  0
  8 22  1  0  0  0  0
  9 25  1  0  0  0  0
 10 26  1  0  0  0  0
 11 26  2  0  0  0  0
 12 27  1  0  0  0  0
 13 14  2  0  0  0  0
 13 28  1  0  0  0  0
 14 29  1  0  0  0  0
 15 19  2  0  0  0  0
 15 30  1  0  0  0  0
 16 24  1  0  0  0  0
 16 27  2  0  0  0  0
 17 29  2  0  0  0  0
 17 31  1  0  0  0  0
 18 32  1  0  0  0  0
 19 34  1  0  0  0  0
 20 32  1  0  0  0  0
 20 33  2  0  0  0  0
 20 35  1  0  0  0  0
 21 23  2  0  0  0  0
 21 41  1  0  0  0  0
 22 24  2  0  0  0  0
 22 42  1  0  0  0  0
 23 50  1  0  0  0  0
 24 43  1  0  0  0  0
 25 30  2  0  0  0  0
 25 69  1  0  0  0  0
 26 81  1  0  0  0  0
 27 82  1  0  0  0  0
 28 31  2  0  0  0  0
 28 81  1  0  0  0  0
 29 83  1  0  0  0  0
 30 84  1  0  0  0  0
 31 85  1  0  0  0  0
 32 63  2  0  0  0  0
 33 64  1  0  0  0  0
 33 67  1  0  0  0  0
 34 70  1  0  0  0  0
 34 73  2  0  0  0  0
 35 68  1  0  0  0  0
 35 75  2  0  0  0  0
 36 51  1  0  0  0  0
 36 71  1  0  0  0  0
 36 76  2  0  0  0  0
 37 58  1  0  0  0  0
 37 59  1  0  0  0  0
 37 77  2  0  0  0  0
 38 60  1  0  0  0  0
 38 65  1  0  0  0  0
 38 78  2  0  0  0  0
 39 61  1  0  0  0  0
 39 72  1  0  0  0  0
 39 79  2  0  0  0  0
 40 66  1  0  0  0  0
 40 69  1  0  0  0  0
 40 80  2  0  0  0  0
 41 44  1  0  0  0  0
 42 51  1  0  0  0  0
 43 65  1  0  0  0  0
 44 46  1  0  0  0  0
 45 47  1  0  0  0  0
 45 48  1  0  0  0  0
 46 50  1  0  0  0  0
 47 52  1  0  0  0  0
 48 66  1  0  0  0  0
 49 52  1  0  0  0  0
 49 66  1  0  0  0  0
 50 71  1  0  0  0  0
 51 65  1  0  0  0  0
 52 64  1  0  0  0  0
 53 61  1  0  0  0  0
 54 62  1  0  0  0  0
 55 62  1  0  0  0  0
 56 62  1  0  0  0  0
 57 74  1  0  0  0  0
 58 70  1  0  0  0  0
 59 82  1  0  0  0  0
 60 62  1  0  0  0  0
 60 72  1  0  0  0  0
 61 74  1  0  0  0  0
 63 64  1  0  0  0  0
M  CHG  2  73   1  74   1
M  ISO  4  40 100  59 101  69 100  82 101
M  END
> <Batch ID>
0078

> <Smiles>
CNC(C)C(=O)NC(C(=O)N1Cc2cc([101O:1][101CH2:1]C(=O)CNC(=N)c3ccc([100NH:0][100C:0](=O)N4CCCC(n5nc(-c6ccc(Oc7ccc(F)cc7F)cc6)c(C(N)=O)c5N)C4)c(F)c3)ccc2CC1C(=O)NC1CCCc2ccccc21)C(C)(C)C

> <Shape>
0.359

> <Color>
0.220

> <Negative vol penalty>
0.000

$$$$

  -OEChem-04042323563D

 88 97  0     1  0  0  0  0  0999 V2000
  -22.2838  -35.0191   16.0672 C   0  0  0  0  0  0  0  0  0  0  0  0
  -23.0000  -33.8288   15.9932 C   0  0  0  0  0  0  0  0  0  0  0  0
  -24.0516   -9.3135   21.2365 C   0  0  0  0  0  0  0  0  0  0  0  0
  -25.2957  -10.1215   23.1435 C   0  0  0  0  0  0  0  0  0  0  0  0
  -22.4049  -35.8355   17.1909 C   0  0  0  0  0  0  0  0  0  0  0  0
  -23.8387  -33.4546   17.0425 C   0  0  0  0  0  0  0  0  0  0  0  0
  -31.5881  -18.7816   22.1542 C   0  0  0  0  0  0  0  0  0  0  0  0
  -29.1987  -18.4240   22.1627 C   0  0  0  0  0  0  0  0  0  0  0  0
  -24.9459  -27.7656   19.0212 C   0  0  0  0  0  0  0  0  0  0  0  0
  -31.3978  -20.0391   21.5814 C   0  0  0  0  0  0  0  0  0  0  0  0
  -29.0084  -19.6815   21.5900 C   0  0  0  0  0  0  0  0  0  0  0  0
  -23.7781   -8.1274   21.9175 C   0  0  0  0  0  0  0  0  0  0  0  0
  -25.0221   -8.9353   23.8245 C   0  0  0  0  0  0  0  0  0  0  0  0
  -25.9920  -26.8759   18.7808 C   0  0  0  0  0  0  0  0  0  0  0  0
  -21.6492   -7.0696   24.3220 C   0  0  0  0  0  0  0  0  0  0  0  0
  -20.3431   -6.5822   24.2761 C   0  0  0  0  0  0  0  0  0  0  0  0
  -27.0661  -27.5980   20.8165 C   0  0  0  0  0  0  0  0  0  0  0  0
  -21.1388   -4.5473   23.2449 C   0  0  0  0  0  0  0  0  0  0  0  0
  -24.8105  -10.3106   21.8495 C   0  0  0  0  0  0  0  0  0  0  0  0
  -24.1613  -12.4664   20.6500 C   0  0  0  0  0  0  0  0  0  0  0  0
  -30.4885  -17.9740   22.4449 C   0  0  0  0  0  0  0  0  0  0  0  0
  -23.2381  -35.4665   18.2587 C   0  0  0  0  0  0  0  0  0  0  0  0
  -24.9575  -28.5875   20.1574 C   0  0  0  0  0  0  0  0  0  0  0  0
  -23.9721  -34.2675   18.1809 C   0  0  0  0  0  0  0  0  0  0  0  0
  -26.0177  -28.4955   21.0704 C   0  0  0  0  0  0  0  0  0  0  0  0
  -30.1080  -20.4891   21.2993 C   0  0  0  0  0  0  0  0  0  0  0  0
  -24.2633   -7.9382   23.2115 C   0  0  0  0  0  0  0  0  0  0  0  0
  -27.0537  -26.7940   19.6770 C   0  0  0  0  0  0  0  0  0  0  0  0
  -22.7001   -6.2960   23.8293 C   0  0  0  0  0  0  0  0  0  0  0  0
  -20.0879   -5.3210   23.7375 C   0  0  0  0  0  0  0  0  0  0  0  0
  -22.4449   -5.0348   23.2908 C   0  0  0  0  0  0  0  0  0  0  0  0
  -25.0938  -11.5359   21.1464 C   0  0  0  0  0  0  0  0  0  0  0  0
  -24.9294  -13.4463   20.0701 C   0  0  0  0  0  0  0  0  0  0  0  0
  -27.9743  -24.6612   19.9499 C   0  0  0  0  0  0  0  0  0  1  0  0
  -22.7289  -12.4467   20.7080 C   0  0  0  0  0  0  0  0  0  0  0  0
  -28.9192  -23.7281   19.7820 C   0  0  0  0  0  0  0  0  0  0  0  0
  -28.7114  -22.3673   20.3763 C   0  0  0  0  0  0  0  0  0  0  0  0
  -25.0097  -31.7265   20.6548 C   0  0  0  0  0  0  0  0  0  0  0  0
  -24.6463  -30.8480   23.7562 C   0  0  0  0  0  0  0  0  0  0  0  0
  -25.0400  -28.4513   26.1537 C   0  0  0  0  0  0  0  0  0  0  0  0
  -30.5567  -15.2833   20.9705 C   0  0  0  0  0  0  0  0  0  0  0  0
  -23.3731  -36.4046   19.4319 C   0  0  0  0  0  0  0  0  0  0  0  0
  -23.8084  -29.5229   20.4162 C   0  0  0  0  0  0  0  0  0  0  0  0
  -26.0676  -29.3414   22.3156 C   0  0  0  0  0  0  0  0  0  0  0  0
  -23.9950  -35.7529   20.6644 C   0  0  0  0  0  0  0  0  0  0  0  0
  -32.5375  -16.8599   24.6657 C   0  0  0  0  0  0  0  0  0  0  0  0
  -31.2210  -17.1713   25.3746 C   0  0  0  0  0  0  0  0  0  0  0  0
  -29.1496  -14.1124   17.9167 C   0  0  0  0  0  0  0  0  0  0  0  0
  -25.2325  -34.9498   20.2766 C   0  0  0  0  0  0  0  0  0  0  0  0
  -27.8664  -13.4033   18.3533 C   0  0  0  0  0  0  0  0  0  0  0  0
  -32.1555  -16.1723   23.3536 C   0  0  0  0  0  0  0  0  0  0  0  0
  -30.1288  -16.5440   24.5098 C   0  0  0  0  0  0  0  0  0  0  0  0
  -30.2771  -13.9116   18.9268 C   0  0  0  0  0  0  0  0  0  0  0  0
  -28.6554  -13.5706   20.7509 C   0  0  0  0  0  0  0  0  0  0  0  0
  -24.8731  -33.8152   19.3096 C   0  0  1  0  0  0  0  0  0  0  0  0
  -24.1764  -30.6803   21.3394 C   0  0  1  0  0  0  0  0  0  0  0  0
  -27.4732  -13.7908   19.7915 C   0  0  2  0  0  0  0  0  0  0  0  0
  -30.6975  -16.5928   23.0740 C   0  0  0  0  0  0  0  0  0  0  0  0
  -24.6855  -28.0387   28.6035 C   0  0  0  0  0  0  0  0  0  0  0  0
  -27.0978  -32.5485   24.3948 C   0  0  0  0  0  0  0  0  0  0  0  0
  -27.2580  -31.3665   26.5960 C   0  0  0  0  0  0  0  0  0  0  0  0
  -25.2398  -32.7306   26.0587 C   0  0  0  0  0  0  0  0  0  0  0  0
  -23.1699  -26.2191   25.6256 C   0  0  0  0  0  0  0  0  0  0  0  0
  -25.5856  -30.5154   24.8902 C   0  0  1  0  0  0  0  0  0  0  0  0
  -24.0892  -27.9173   27.2098 C   0  0  2  0  0  0  0  0  0  0  0  0
  -26.2956  -31.7756   25.4606 C   0  0  0  0  0  0  0  0  0  0  0  0
  -26.3578  -11.8927   20.9030 N   0  0  0  0  0  0  0  0  0  0  0  0
  -26.2248  -13.0582   20.2472 N   0  0  0  0  0  0  0  0  0  0  0  0
  -24.9237  -30.2451   22.5211 N   0  0  0  0  0  0  0  0  0  0  0  0
  -29.8399  -14.2990   20.2701 N   0  0  0  0  0  0  0  0  0  0  0  0
  -24.6163  -14.5935   19.4310 N   0  0  0  0  0  0  0  0  0  0  0  0
  -22.0964  -13.0444   21.8067 N   0  0  0  0  0  0  0  0  0  0  0  0
  -29.9146  -21.7655   20.7182 N   0  0  0  0  0  0  0  0  0  0  0  0
  -24.2715  -32.7115   20.0267 N   0  0  0  0  0  0  0  0  0  0  0  0
  -24.7962  -29.7788   25.8714 N   0  0  0  0  0  0  0  0  0  0  0  0
  -30.0714  -15.5958   22.2344 N   0  0  0  0  0  0  0  0  0  0  0  0
  -23.7833  -26.4815   26.9529 N   0  3  0  0  0  0  0  0  0  0  0  0
  -22.0310  -11.9005   19.8202 O   0  0  0  0  0  0  0  0  0  0  0  0
  -27.5837  -21.9053   20.5135 O   0  0  0  0  0  0  0  0  0  0  0  0
  -26.2319  -31.6469   20.6947 O   0  0  0  0  0  0  0  0  0  0  0  0
  -23.6971  -31.6088   23.9605 O   0  0  0  0  0  0  0  0  0  0  0  0
  -25.9140  -27.7610   25.6340 O   0  0  0  0  0  0  0  0  0  0  0  0
  -31.5520  -15.8460   20.5018 O   0  0  0  0  0  0  0  0  0  0  0  0
  -30.0826  -23.9679   19.0794 O   0  0  0  0  0  0  0  0  0  0  0  0
  -23.9963   -6.7810   23.8764 O   0  0  0  0  0  0  0  0  0  0  0  0
  -28.0763  -25.9268   19.4443 O   0  0  0  0  0  0  0  0  0  1  0  0
  -18.8338   -4.8524   23.6949 F   0  0  0  0  0  0  0  0  0  0  0  0
  -23.4506   -4.2865   22.8170 F   0  0  0  0  0  0  0  0  0  0  0  0
  1  2  1  0  0  0  0
  1  5  2  0  0  0  0
  2  6  2  0  0  0  0
  3 12  2  0  0  0  0
  3 19  1  0  0  0  0
  4 13  1  0  0  0  0
  4 19  2  0  0  0  0
  5 22  1  0  0  0  0
  6 24  1  0  0  0  0
  7 10  2  0  0  0  0
  7 21  1  0  0  0  0
  8 11  1  0  0  0  0
  8 21  2  0  0  0  0
  9 14  2  0  0  0  0
  9 23  1  0  0  0  0
 10 26  1  0  0  0  0
 11 26  2  0  0  0  0
 12 27  1  0  0  0  0
 13 27  2  0  0  0  0
 14 28  1  0  0  0  0
 15 16  2  0  0  0  0
 15 29  1  0  0  0  0
 16 30  1  0  0  0  0
 17 25  1  0  0  0  0
 17 28  2  0  0  0  0
 18 30  2  0  0  0  0
 18 31  1  0  0  0  0
 19 32  1  0  0  0  0
 20 32  1  0  0  0  0
 20 33  2  0  0  0  0
 20 35  1  0  0  0  0
 21 58  1  0  0  0  0
 22 24  2  0  0  0  0
 22 42  1  0  0  0  0
 23 25  2  0  0  0  0
 23 43  1  0  0  0  0
 24 55  1  0  0  0  0
 25 44  1  0  0  0  0
 26 73  1  0  0  0  0
 27 85  1  0  0  0  0
 28 86  1  0  0  0  0
 29 31  2  0  0  0  0
 29 85  1  0  0  0  0
 30 87  1  0  0  0  0
 31 88  1  0  0  0  0
 32 67  2  0  0  0  0
 33 68  1  0  0  0  0
 33 71  1  0  0  0  0
 34 36  2  0  0  0  0
 34 86  1  0  0  0  0
 35 72  1  0  0  0  0
 35 78  2  0  0  0  0
 36 37  1  0  0  0  0
 36 84  1  0  0  0  0
 37 73  1  0  0  0  0
 37 79  2  0  0  0  0
 38 56  1  0  0  0  0
 38 74  1  0  0  0  0
 38 80  2  0  0  0  0
 39 64  1  0  0  0  0
 39 69  1  0  0  0  0
 39 81  2  0  0  0  0
 40 65  1  0  0  0  0
 40 75  1  0  0  0  0
 40 82  2  0  0  0  0
 41 70  1  0  0  0  0
 41 76  1  0  0  0  0
 41 83  2  0  0  0  0
 42 45  1  0  0  0  0
 43 56  1  0  0  0  0
 44 69  1  0  0  0  0
 45 49  1  0  0  0  0
 46 47  1  0  0  0  0
 46 51  1  0  0  0  0
 47 52  1  0  0  0  0
 48 50  1  0  0  0  0
 48 53  1  0  0  0  0
 49 55  1  0  0  0  0
 50 57  1  0  0  0  0
 51 58  1  0  0  0  0
 52 58  1  0  0  0  0
 53 70  1  0  0  0  0
 54 57  1  0  0  0  0
 54 70  1  0  0  0  0
 55 74  1  0  0  0  0
 56 69  1  0  0  0  0
 57 68  1  0  0  0  0
 58 76  1  0  0  0  0
 59 65  1  0  0  0  0
 60 66  1  0  0  0  0
 61 66  1  0  0  0  0
 62 66  1  0  0  0  0
 63 77  1  0  0  0  0
 64 66  1  0  0  0  0
 64 75  1  0  0  0  0
 65 77  1  0  0  0  0
 67 68  1  0  0  0  0
M  CHG  1  77   1
M  ISO  4  34 101  41 100  76 100  86 101
M  END
> <Batch ID>
0078

> <Smiles>
CNC(C)C(=O)NC(C(=O)N1Cc2cc([101O:1][101CH2:1]C(=O)C(=O)Nc3ccc(C4([100NH:0][100C:0](=O)N5CCCC(n6nc(-c7ccc(Oc8ccc(F)cc8F)cc7)c(C(N)=O)c6N)C5)CCCC4)cc3)ccc2CC1C(=O)NC1CCCc2ccccc21)C(C)(C)C

> <Shape>
0.320

> <Color>
0.136

> <Negative vol penalty>
0.000

$$$$

  -OEChem-04042323563D

 89 98  0     1  0  0  0  0  0999 V2000
  -31.5343  -27.8037   24.9326 C   0  0  0  0  0  0  0  0  0  0  0  0
  -30.5976  -27.2374   24.0740 C   0  0  0  0  0  0  0  0  0  0  0  0
  -23.2137  -15.8667   19.9831 C   0  0  0  0  0  0  0  0  0  0  0  0
  -22.6675  -13.9650   18.5967 C   0  0  0  0  0  0  0  0  0  0  0  0
  -31.1158  -28.6486   25.9597 C   0  0  0  0  0  0  0  0  0  0  0  0
  -29.2415  -27.5150   24.2426 C   0  0  0  0  0  0  0  0  0  0  0  0
  -27.7681  -18.7257   18.0118 C   0  0  0  0  0  0  0  0  0  0  0  0
  -28.8339  -20.3751   19.4191 C   0  0  0  0  0  0  0  0  0  0  0  0
  -26.9111  -28.5476   19.8668 C   0  0  0  0  0  0  0  0  0  0  0  0
  -26.7035  -19.6000   17.7934 C   0  0  0  0  0  0  0  0  0  0  0  0
  -27.7693  -21.2495   19.2006 C   0  0  0  0  0  0  0  0  0  0  0  0
  -22.2246  -16.6156   19.3456 C   0  0  0  0  0  0  0  0  0  0  0  0
  -21.6784  -14.7138   17.9592 C   0  0  0  0  0  0  0  0  0  0  0  0
  -26.5810  -27.4666   19.0506 C   0  0  0  0  0  0  0  0  0  0  0  0
  -18.7660  -16.0140   16.2139 C   0  0  0  0  0  0  0  0  0  0  0  0
  -17.5257  -15.4100   16.0083 C   0  0  0  0  0  0  0  0  0  0  0  0
  -24.3091  -27.5600   19.8562 C   0  0  0  0  0  0  0  0  0  0  0  0
  -17.2736  -15.1162   18.3931 C   0  0  0  0  0  0  0  0  0  0  0  0
  -23.4352  -14.5414   19.6086 C   0  0  0  0  0  0  0  0  0  0  0  0
  -24.3111  -12.9701   21.4174 C   0  0  0  0  0  0  0  0  0  0  0  0
  -28.8333  -19.1132   18.8248 C   0  0  0  0  0  0  0  0  0  0  0  0
  -29.7548  -28.9444   26.1350 C   0  0  0  0  0  0  0  0  0  0  0  0
  -25.9437  -29.1370   20.6933 C   0  0  0  0  0  0  0  0  0  0  0  0
  -28.8042  -28.3637   25.2738 C   0  0  0  0  0  0  0  0  0  0  0  0
  -24.6289  -28.6501   20.6800 C   0  0  0  0  0  0  0  0  0  0  0  0
  -26.7041  -20.8619   18.3877 C   0  0  0  0  0  0  0  0  0  0  0  0
  -21.4569  -16.0391   18.3336 C   0  0  0  0  0  0  0  0  0  0  0  0
  -25.2805  -26.9708   19.0474 C   0  0  0  0  0  0  0  0  0  0  0  0
  -19.2603  -16.1690   17.5090 C   0  0  0  0  0  0  0  0  0  0  0  0
  -16.7794  -14.9611   17.0979 C   0  0  0  0  0  0  0  0  0  0  0  0
  -18.5140  -15.7202   18.5986 C   0  0  0  0  0  0  0  0  0  0  0  0
  -24.4572  -13.7674   20.2664 C   0  0  0  0  0  0  0  0  0  0  0  0
  -25.5633  -12.4500   21.6360 C   0  0  0  0  0  0  0  0  0  0  0  0
  -23.1474  -12.7217   22.2173 C   0  0  0  0  0  0  0  0  0  0  0  0
  -31.0306  -18.4065   17.9887 C   0  0  0  0  0  0  0  0  0  0  0  0
  -25.6037  -29.5159   23.8309 C   0  0  0  0  0  0  0  0  0  0  0  0
  -23.0347  -31.2874   22.9452 C   0  0  0  0  0  0  0  0  0  0  0  0
  -25.4635  -23.0348   18.6759 C   0  0  0  0  0  0  0  0  0  0  0  0
  -20.6565  -31.9683   20.5942 C   0  0  0  0  0  0  0  0  0  0  0  0
  -30.9925  -14.6510   19.8389 C   0  0  0  0  0  0  0  0  0  0  0  0
  -29.3461  -29.8258   27.2886 C   0  0  0  0  0  0  0  0  0  0  0  0
  -26.3094  -30.3195   21.5479 C   0  0  0  0  0  0  0  0  0  0  0  0
  -23.5485  -29.2604   21.5336 C   0  0  0  0  0  0  0  0  0  0  0  0
  -27.9238  -30.3668   27.1678 C   0  0  0  0  0  0  0  0  0  0  0  0
  -29.4281  -11.3822   18.9083 C   0  0  0  0  0  0  0  0  0  0  0  0
  -26.9599  -29.2514   26.7758 C   0  0  0  0  0  0  0  0  0  0  0  0
  -28.0610  -11.4078   19.5922 C   0  0  0  0  0  0  0  0  0  0  0  0
  -30.6600  -18.2834   20.4502 C   0  0  0  0  0  0  0  0  0  0  0  0
  -30.4466  -12.2657   19.6133 C   0  0  0  0  0  0  0  0  0  0  0  0
  -31.3787  -16.9549   20.6351 C   0  0  0  0  0  0  0  0  0  0  0  0
  -28.5621  -13.8927   19.8155 C   0  0  0  0  0  0  0  0  0  0  0  0
  -29.5948  -16.6670   19.0600 C   0  0  0  0  0  0  0  0  0  0  0  0
  -27.3265  -28.6604   25.4092 C   0  0  1  0  0  0  0  0  0  0  0  0
  -25.3685  -30.5142   22.7328 C   0  0  1  0  0  0  0  0  0  0  0  0
  -27.8312  -12.6825   20.4225 C   0  0  1  0  0  0  0  0  0  0  0  0
  -29.9947  -18.1593   19.0631 C   0  0  1  0  0  0  0  0  0  0  0  0
  -30.5906  -18.2011   16.5644 C   0  0  0  0  0  0  0  0  0  0  0  0
  -18.6706  -33.4428   20.1706 C   0  0  0  0  0  0  0  0  0  0  0  0
  -21.3549  -29.5580   24.8154 C   0  0  0  0  0  0  0  0  0  0  0  0
  -19.3078  -30.4181   23.6587 C   0  0  0  0  0  0  0  0  0  0  0  0
  -20.8065  -31.9973   24.8764 C   0  0  0  0  0  0  0  0  0  0  0  0
  -21.9379  -33.2131   18.2347 C   0  0  0  0  0  0  0  0  0  0  0  0
  -24.1539  -23.6429   18.1867 C   0  0  0  0  0  0  0  0  0  0  0  0
  -23.9171  -25.0517   18.7096 C   0  0  0  0  0  0  0  0  0  1  0  0
  -21.5759  -30.9992   22.6846 C   0  0  1  0  0  0  0  0  0  0  0  0
  -20.1730  -33.2792   20.0008 C   0  0  2  0  0  0  0  0  0  0  0  0
  -20.7818  -30.7302   23.9940 C   0  0  0  0  0  0  0  0  0  0  0  0
  -25.7040  -13.7579   19.7874 N   0  0  0  0  0  0  0  0  0  0  0  0
  -26.3527  -12.9483   20.6416 N   0  0  0  0  0  0  0  0  0  0  0  0
  -23.9571  -30.4106   22.3567 N   0  0  0  0  0  0  0  0  0  0  0  0
  -30.0092  -13.6636   19.6824 N   0  0  0  0  0  0  0  0  0  0  0  0
  -30.5953  -15.9853   19.8849 N   0  0  0  0  0  0  0  0  0  0  0  0
  -26.0553  -11.6196   22.5799 N   0  0  0  0  0  0  0  0  0  0  0  0
  -21.9417  -13.3356   21.8515 N   0  0  0  0  0  0  0  0  0  0  0  0
  -25.6395  -21.7367   18.1691 N   0  0  0  0  0  0  0  0  0  0  0  0
  -26.8862  -29.5368   24.3450 N   0  0  0  0  0  0  0  0  0  0  0  0
  -21.0720  -32.1212   21.9001 N   0  0  0  0  0  0  0  0  0  0  0  0
  -20.4906  -33.3377   18.5460 N   0  3  0  0  0  0  0  0  0  0  0  0
  -23.1797  -11.9905   23.2360 O   0  0  0  0  0  0  0  0  0  0  0  0
  -32.1757  -18.7601   18.2657 O   0  0  0  0  0  0  0  0  0  0  0  0
  -24.6890  -28.7821   24.1864 O   0  0  0  0  0  0  0  0  0  0  0  0
  -23.3446  -32.2589   23.6393 O   0  0  0  0  0  0  0  0  0  0  0  0
  -26.2292  -23.6429   19.4163 O   0  0  0  0  0  0  0  0  0  0  0  0
  -20.6614  -30.9134   19.9636 O   0  0  0  0  0  0  0  0  0  0  0  0
  -32.1919  -14.3479   19.9160 O   0  0  0  0  0  0  0  0  0  0  0  0
  -20.4915  -16.7695   17.7115 O   0  0  0  0  0  0  0  0  0  0  0  0
  -24.9534  -25.9078   18.2466 O   0  0  0  0  0  0  0  0  0  1  0  0
  -15.5876  -14.3826   16.9005 F   0  0  0  0  0  0  0  0  0  0  0  0
  -18.9830  -15.8674   19.8453 F   0  0  0  0  0  0  0  0  0  0  0  0
  1  2  1  0  0  0  0
  1  5  2  0  0  0  0
  2  6  2  0  0  0  0
  3 12  2  0  0  0  0
  3 19  1  0  0  0  0
  4 13  1  0  0  0  0
  4 19  2  0  0  0  0
  5 22  1  0  0  0  0
  6 24  1  0  0  0  0
  7 10  2  0  0  0  0
  7 21  1  0  0  0  0
  8 11  1  0  0  0  0
  8 21  2  0  0  0  0
  9 14  2  0  0  0  0
  9 23  1  0  0  0  0
 10 26  1  0  0  0  0
 11 26  2  0  0  0  0
 12 27  1  0  0  0  0
 13 27  2  0  0  0  0
 14 28  1  0  0  0  0
 15 16  2  0  0  0  0
 15 29  1  0  0  0  0
 16 30  1  0  0  0  0
 17 25  1  0  0  0  0
 17 28  2  0  0  0  0
 18 30  2  0  0  0  0
 18 31  1  0  0  0  0
 19 32  1  0  0  0  0
 20 32  1  0  0  0  0
 20 33  2  0  0  0  0
 20 34  1  0  0  0  0
 21 56  1  0  0  0  0
 22 24  2  0  0  0  0
 22 41  1  0  0  0  0
 23 25  2  0  0  0  0
 23 42  1  0  0  0  0
 24 53  1  0  0  0  0
 25 43  1  0  0  0  0
 26 75  1  0  0  0  0
 27 86  1  0  0  0  0
 28 87  1  0  0  0  0
 29 31  2  0  0  0  0
 29 86  1  0  0  0  0
 30 88  1  0  0  0  0
 31 89  1  0  0  0  0
 32 68  2  0  0  0  0
 33 69  1  0  0  0  0
 33 73  1  0  0  0  0
 34 74  1  0  0  0  0
 34 79  2  0  0  0  0
 35 56  1  0  0  0  0
 35 57  1  0  0  0  0
 35 80  2  0  0  0  0
 36 54  1  0  0  0  0
 36 76  1  0  0  0  0
 36 81  2  0  0  0  0
 37 65  1  0  0  0  0
 37 70  1  0  0  0  0
 37 82  2  0  0  0  0
 38 63  1  0  0  0  0
 38 75  1  0  0  0  0
 38 83  2  0  0  0  0
 39 66  1  0  0  0  0
 39 77  1  0  0  0  0
 39 84  2  0  0  0  0
 40 71  1  0  0  0  0
 40 72  1  0  0  0  0
 40 85  2  0  0  0  0
 41 44  1  0  0  0  0
 42 54  1  0  0  0  0
 43 70  1  0  0  0  0
 44 46  1  0  0  0  0
 45 47  1  0  0  0  0
 45 49  1  0  0  0  0
 46 53  1  0  0  0  0
 47 55  1  0  0  0  0
 48 50  1  0  0  0  0
 48 56  1  0  0  0  0
 49 71  1  0  0  0  0
 50 72  1  0  0  0  0
 51 55  1  0  0  0  0
 51 71  1  0  0  0  0
 52 56  1  0  0  0  0
 52 72  1  0  0  0  0
 53 76  1  0  0  0  0
 54 70  1  0  0  0  0
 55 69  1  0  0  0  0
 58 66  1  0  0  0  0
 59 67  1  0  0  0  0
 60 67  1  0  0  0  0
 61 67  1  0  0  0  0
 62 78  1  0  0  0  0
 63 64  1  0  0  0  0
 64 87  1  0  0  0  0
 65 67  1  0  0  0  0
 65 77  1  0  0  0  0
 66 78  1  0  0  0  0
 68 69  1  0  0  0  0
M  CHG  1  78   1
M  ISO  4  40 100  64 101  72 100  87 101
M  END
> <Batch ID>
0078

> <Smiles>
CNC(C)C(=O)NC(C(=O)N1Cc2cc([101O:1][101CH2:1]CC(=O)Nc3ccc(C4(C(C)=O)CC[100N:0]([100C:0](=O)N5CCCC(n6nc(-c7ccc(Oc8ccc(F)cc8F)cc7)c(C(N)=O)c6N)C5)C4)cc3)ccc2CC1C(=O)NC1CCCc2ccccc21)C(C)(C)C

> <Shape>
0.223

> <Color>
0.109

> <Negative vol penalty>
0.000

$$$$

  -OEChem-04042323563D

 82 90  0     1  0  0  0  0  0999 V2000
  -29.4901  -37.0144   21.2515 C   0  0  0  0  0  0  0  0  0  0  0  0
  -29.4503  -35.9111   20.4050 C   0  0  0  0  0  0  0  0  0  0  0  0
  -24.2593   -8.8567   20.0062 C   0  0  0  0  0  0  0  0  0  0  0  0
  -23.0773  -10.5555   21.2528 C   0  0  0  0  0  0  0  0  0  0  0  0
  -27.6562  -20.3293   19.6930 C   0  0  0  0  0  0  0  0  0  0  0  0
  -29.1640  -36.8696   22.5993 C   0  0  0  0  0  0  0  0  0  0  0  0
  -29.0855  -34.6620   20.9061 C   0  0  0  0  0  0  0  0  0  0  0  0
  -25.7277  -28.6358   18.9757 C   0  0  0  0  0  0  0  0  0  0  0  0
  -27.7715  -18.9395   19.6685 C   0  0  0  0  0  0  0  0  0  0  0  0
  -23.3761   -7.8898   20.4863 C   0  0  0  0  0  0  0  0  0  0  0  0
  -22.1940   -9.5885   21.7329 C   0  0  0  0  0  0  0  0  0  0  0  0
  -25.9199  -27.2551   18.9549 C   0  0  0  0  0  0  0  0  0  0  0  0
  -20.2349   -6.8329   19.8163 C   0  0  0  0  0  0  0  0  0  0  0  0
  -19.7263   -5.9091   18.9034 C   0  0  0  0  0  0  0  0  0  0  0  0
  -25.3005  -27.1398   21.2834 C   0  0  0  0  0  0  0  0  0  0  0  0
  -29.4767  -19.0509   21.3765 C   0  0  0  0  0  0  0  0  0  0  0  0
  -20.7031   -4.1073   20.1827 C   0  0  0  0  0  0  0  0  0  0  0  0
  -24.1099  -10.1896   20.3894 C   0  0  0  0  0  0  0  0  0  0  0  0
  -28.4512  -21.0800   20.5592 C   0  0  0  0  0  0  0  0  0  0  0  0
  -24.8880  -11.9561   18.7216 C   0  0  0  0  0  0  0  0  0  0  0  0
  -28.7857  -35.6201   23.1152 C   0  0  0  0  0  0  0  0  0  0  0  0
  -25.3304  -29.2814   20.1554 C   0  0  0  0  0  0  0  0  0  0  0  0
  -28.7553  -34.5001   22.2624 C   0  0  0  0  0  0  0  0  0  0  0  0
  -25.1015  -28.5285   21.3159 C   0  0  0  0  0  0  0  0  0  0  0  0
  -28.6817  -18.3003   20.5103 C   0  0  0  0  0  0  0  0  0  0  0  0
  -22.3434   -8.2557   21.3497 C   0  0  0  0  0  0  0  0  0  0  0  0
  -25.7091  -26.5072   20.1096 C   0  0  0  0  0  0  0  0  0  0  0  0
  -20.9777   -6.3940   20.9124 C   0  0  0  0  0  0  0  0  0  0  0  0
  -19.9604   -4.5462   19.0866 C   0  0  0  0  0  0  0  0  0  0  0  0
  -29.3613  -20.4408   21.4010 C   0  0  0  0  0  0  0  0  0  0  0  0
  -21.2118   -5.0312   21.0956 C   0  0  0  0  0  0  0  0  0  0  0  0
  -25.0223  -11.1888   19.8942 C   0  0  0  0  0  0  0  0  0  0  0  0
  -26.0077  -12.7512   18.7014 C   0  0  0  0  0  0  0  0  0  0  0  0
  -28.3262  -22.5479   20.5811 C   0  0  0  0  0  0  0  0  0  0  0  0
  -27.1920  -23.2191   20.3375 C   0  0  0  0  0  0  0  0  0  0  0  0
  -23.8443  -11.9507   17.7385 C   0  0  0  0  0  0  0  0  0  0  0  0
  -27.1873  -24.6960   20.4095 C   0  0  0  0  0  0  0  0  0  1  0  0
  -26.6089  -31.5009   22.0377 C   0  0  0  0  0  0  0  0  0  0  0  0
  -23.7373  -31.3279   23.5365 C   0  0  0  0  0  0  0  0  0  0  0  0
  -20.9398  -29.5028   24.2364 C   0  0  0  0  0  0  0  0  0  0  0  0
  -29.6518  -16.0980   21.2554 C   0  0  0  0  0  0  0  0  0  0  0  0
  -28.4877  -35.5032   24.5890 C   0  0  0  0  0  0  0  0  0  0  0  0
  -25.1016  -30.7680   20.1544 C   0  0  0  0  0  0  0  0  0  0  0  0
  -24.6547  -29.1710   22.6028 C   0  0  0  0  0  0  0  0  0  0  0  0
  -27.7490  -34.2202   24.9612 C   0  0  0  0  0  0  0  0  0  0  0  0
  -30.2122  -12.5915   21.5154 C   0  0  0  0  0  0  0  0  0  0  0  0
  -28.4011  -33.0151   24.2910 C   0  0  0  0  0  0  0  0  0  0  0  0
  -28.9009  -11.9771   21.0203 C   0  0  0  0  0  0  0  0  0  0  0  0
  -29.9729  -13.8723   22.3129 C   0  0  0  0  0  0  0  0  0  0  0  0
  -27.8457  -14.2706   21.1358 C   0  0  0  0  0  0  0  0  0  0  0  0
  -28.3405  -33.1337   22.7633 C   0  0  1  0  0  0  0  0  0  0  0  0
  -25.1938  -31.3877   21.5454 C   0  0  1  0  0  0  0  0  0  0  0  0
  -28.0400  -13.0137   20.2720 C   0  0  2  0  0  0  0  0  0  0  0  0
  -18.7858  -29.6128   25.5191 C   0  0  0  0  0  0  0  0  0  0  0  0
  -25.2633  -30.8508   26.1353 C   0  0  0  0  0  0  0  0  0  0  0  0
  -23.1277  -30.0383   27.1587 C   0  0  0  0  0  0  0  0  0  0  0  0
  -23.3030  -32.3896   26.3441 C   0  0  0  0  0  0  0  0  0  0  0  0
  -19.3241  -29.2013   21.7752 C   0  0  0  0  0  0  0  0  0  0  0  0
  -23.1689  -30.5032   24.6661 C   0  0  1  0  0  0  0  0  0  0  0  0
  -19.4651  -29.8584   24.1808 C   0  0  2  0  0  0  0  0  0  0  0  0
  -23.7260  -30.9333   26.0524 C   0  0  0  0  0  0  0  0  0  0  0  0
  -26.1393  -11.4709   20.5699 N   0  0  0  0  0  0  0  0  0  0  0  0
  -28.1674  -25.4850   20.6878 N   0  0  0  0  0  0  0  0  0  0  0  0
  -26.7172  -12.4243   19.8194 N   0  0  0  0  0  0  0  0  0  0  0  0
  -24.4507  -30.6282   22.5529 N   0  0  0  0  0  0  0  0  0  0  0  0
  -29.1542  -14.8087   21.5397 N   0  0  0  0  0  0  0  0  0  0  0  0
  -26.4448  -13.6911   17.8365 N   0  0  0  0  0  0  0  0  0  0  0  0
  -22.7666  -11.0717   17.9130 N   0  0  0  0  0  0  0  0  0  0  0  0
  -28.7989  -16.8884   20.4857 N   0  0  0  0  0  0  0  0  0  0  0  0
  -27.0174  -32.7981   22.2824 N   0  0  0  0  0  0  0  0  0  0  0  0
  -21.7177  -30.5972   24.5499 N   0  0  0  0  0  0  0  0  0  0  0  0
  -18.7734  -29.0396   23.1454 N   0  3  0  0  0  0  0  0  0  0  0  0
  -23.8748  -12.6913   16.7266 O   0  0  0  0  0  0  0  0  0  0  0  0
  -27.2800  -30.4863   22.1860 O   0  0  0  0  0  0  0  0  0  0  0  0
  -23.5491  -32.5469   23.5235 O   0  0  0  0  0  0  0  0  0  0  0  0
  -21.3594  -28.3668   24.0265 O   0  0  0  0  0  0  0  0  0  0  0  0
  -30.7650  -16.4637   21.6415 O   0  0  0  0  0  0  0  0  0  0  0  0
  -21.4813   -7.3124   21.8182 O   0  0  0  0  0  0  0  0  0  0  0  0
  -25.8966  -25.1595   20.0922 O   0  0  0  0  0  0  0  0  0  1  0  0
  -19.4706   -3.6590   18.2108 F   0  0  0  0  0  0  0  0  0  0  0  0
  -30.1328  -21.1488   22.2388 F   0  0  0  0  0  0  0  0  0  0  0  0
  -21.9236   -4.6034   22.1473 F   0  0  0  0  0  0  0  0  0  0  0  0
  1  2  1  0  0  0  0
  1  6  2  0  0  0  0
  2  7  2  0  0  0  0
  3 10  2  0  0  0  0
  3 18  1  0  0  0  0
  4 11  1  0  0  0  0
  4 18  2  0  0  0  0
  5  9  2  0  0  0  0
  5 19  1  0  0  0  0
  6 21  1  0  0  0  0
  7 23  1  0  0  0  0
  8 12  2  0  0  0  0
  8 22  1  0  0  0  0
  9 25  1  0  0  0  0
 10 26  1  0  0  0  0
 11 26  2  0  0  0  0
 12 27  1  0  0  0  0
 13 14  2  0  0  0  0
 13 28  1  0  0  0  0
 14 29  1  0  0  0  0
 15 24  1  0  0  0  0
 15 27  2  0  0  0  0
 16 25  2  0  0  0  0
 16 30  1  0  0  0  0
 17 29  2  0  0  0  0
 17 31  1  0  0  0  0
 18 32  1  0  0  0  0
 19 30  2  0  0  0  0
 19 34  1  0  0  0  0
 20 32  1  0  0  0  0
 20 33  2  0  0  0  0
 20 36  1  0  0  0  0
 21 23  2  0  0  0  0
 21 42  1  0  0  0  0
 22 24  2  0  0  0  0
 22 43  1  0  0  0  0
 23 51  1  0  0  0  0
 24 44  1  0  0  0  0
 25 69  1  0  0  0  0
 26 78  1  0  0  0  0
 27 79  1  0  0  0  0
 28 31  2  0  0  0  0
 28 78  1  0  0  0  0
 29 80  1  0  0  0  0
 30 81  1  0  0  0  0
 31 82  1  0  0  0  0
 32 62  2  0  0  0  0
 33 64  1  0  0  0  0
 33 67  1  0  0  0  0
 34 35  2  0  0  0  0
 35 37  1  0  0  0  0
 36 68  1  0  0  0  0
 36 73  2  0  0  0  0
 37 63  2  0  0  0  0
 37 79  1  0  0  0  0
 38 52  1  0  0  0  0
 38 70  1  0  0  0  0
 38 74  2  0  0  0  0
 39 59  1  0  0  0  0
 39 65  1  0  0  0  0
 39 75  2  0  0  0  0
 40 60  1  0  0  0  0
 40 71  1  0  0  0  0
 40 76  2  0  0  0  0
 41 66  1  0  0  0  0
 41 69  1  0  0  0  0
 41 77  2  0  0  0  0
 42 45  1  0  0  0  0
 43 52  1  0  0  0  0
 44 65  1  0  0  0  0
 45 47  1  0  0  0  0
 46 48  1  0  0  0  0
 46 49  1  0  0  0  0
 47 51  1  0  0  0  0
 48 53  1  0  0  0  0
 49 66  1  0  0  0  0
 50 53  1  0  0  0  0
 50 66  1  0  0  0  0
 51 70  1  0  0  0  0
 52 65  1  0  0  0  0
 53 64  1  0  0  0  0
 54 60  1  0  0  0  0
 55 61  1  0  0  0  0
 56 61  1  0  0  0  0
 57 61  1  0  0  0  0
 58 72  1  0  0  0  0
 59 61  1  0  0  0  0
 59 71  1  0  0  0  0
 60 72  1  0  0  0  0
 62 64  1  0  0  0  0
M  CHG  1  72   1
M  ISO  4  37 101  41 100  69 100  79 101
M  END
> <Batch ID>
0078

> <Smiles>
CNC(C)C(=O)NC(C(=O)N1Cc2cc([101O:1][101C:1](=N)C=Cc3ccc([100NH:0][100C:0](=O)N4CCCC(n5nc(-c6ccc(Oc7ccc(F)cc7F)cc6)c(C(N)=O)c5N)C4)cc3F)ccc2CC1C(=O)NC1CCCc2ccccc21)C(C)(C)C

> <Shape>
0.281

> <Color>
0.101

> <Negative vol penalty>
0.000

$$$$

  -OEChem-04042323563D

 88 97  0     1  0  0  0  0  0999 V2000
  -30.4623  -30.3501   15.1572 C   0  0  0  0  0  0  0  0  0  0  0  0
  -29.3605  -29.5290   15.3742 C   0  0  0  0  0  0  0  0  0  0  0  0
  -24.2578   -9.4046   21.5066 C   0  0  0  0  0  0  0  0  0  0  0  0
  -22.2021  -10.5378   20.9350 C   0  0  0  0  0  0  0  0  0  0  0  0
  -31.1612  -30.8782   16.2420 C   0  0  0  0  0  0  0  0  0  0  0  0
  -28.9576  -29.2345   16.6763 C   0  0  0  0  0  0  0  0  0  0  0  0
  -23.2207  -28.4220   18.6598 C   0  0  0  0  0  0  0  0  0  0  0  0
  -23.5755   -8.1889   21.5503 C   0  0  0  0  0  0  0  0  0  0  0  0
  -21.5197   -9.3220   20.9787 C   0  0  0  0  0  0  0  0  0  0  0  0
  -22.4657  -27.2754   18.9025 C   0  0  0  0  0  0  0  0  0  0  0  0
  -21.5481   -6.5469   23.6992 C   0  0  0  0  0  0  0  0  0  0  0  0
  -21.8068   -5.6977   24.7752 C   0  0  0  0  0  0  0  0  0  0  0  0
  -23.0643  -27.3827   21.2369 C   0  0  0  0  0  0  0  0  0  0  0  0
  -20.7735  -19.9882   21.7748 C   0  0  0  0  0  0  0  0  0  0  0  0
  -22.5634   -3.9886   23.2444 C   0  0  0  0  0  0  0  0  0  0  0  0
  -20.2922  -18.4182   20.0543 C   0  0  0  0  0  0  0  0  0  0  0  0
  -23.5711  -10.5791   21.1989 C   0  0  0  0  0  0  0  0  0  0  0  0
  -25.3547  -12.1755   20.3169 C   0  0  0  0  0  0  0  0  0  0  0  0
  -30.7608  -30.5978   17.5579 C   0  0  0  0  0  0  0  0  0  0  0  0
  -23.9132  -29.0524   19.7036 C   0  0  0  0  0  0  0  0  0  0  0  0
  -29.6526  -29.7581   17.7797 C   0  0  0  0  0  0  0  0  0  0  0  0
  -23.8253  -28.5387   21.0053 C   0  0  0  0  0  0  0  0  0  0  0  0
  -19.9631  -20.9087   21.1196 C   0  0  0  0  0  0  0  0  0  0  0  0
  -20.9464  -18.7170   21.2386 C   0  0  0  0  0  0  0  0  0  0  0  0
  -22.2065   -8.1475   21.2864 C   0  0  0  0  0  0  0  0  0  0  0  0
  -22.3897  -26.7539   20.1907 C   0  0  0  0  0  0  0  0  0  0  0  0
  -21.7970   -6.1168   22.3958 C   0  0  0  0  0  0  0  0  0  0  0  0
  -22.3144   -4.4186   24.5477 C   0  0  0  0  0  0  0  0  0  0  0  0
  -22.3047   -4.8377   22.1684 C   0  0  0  0  0  0  0  0  0  0  0  0
  -24.2753  -11.8354   21.1542 C   0  0  0  0  0  0  0  0  0  0  0  0
  -19.3531  -20.5118   19.9405 C   0  0  0  0  0  0  0  0  0  0  0  0
  -25.6607  -13.4698   20.6599 C   0  0  0  0  0  0  0  0  0  0  0  0
  -18.7044  -24.7074   22.5798 C   0  0  0  0  0  0  0  0  0  0  0  0
  -19.8259  -24.6833   21.6293 C   0  0  0  0  0  0  0  0  0  0  0  0
  -18.2892  -23.4300   23.1774 C   0  0  0  0  0  0  0  0  0  0  0  0
  -20.1494  -23.3789   20.9400 C   0  0  0  0  0  0  0  0  0  0  0  0
  -18.0826  -25.8620   22.8932 C   0  0  0  0  0  0  0  0  0  0  0  0
  -17.0954  -23.1720   23.7374 C   0  0  0  0  0  0  0  0  0  0  0  0
  -20.6178  -25.7230   21.3169 C   0  0  0  0  0  0  0  0  0  1  0  0
  -26.0210  -11.3917   19.3183 C   0  0  0  0  0  0  0  0  0  0  0  0
  -26.9713  -29.6619   20.3203 C   0  0  0  0  0  0  0  0  0  0  0  0
  -25.7343  -31.3071   22.8273 C   0  0  0  0  0  0  0  0  0  0  0  0
  -23.1068  -30.8274   25.2529 C   0  0  0  0  0  0  0  0  0  0  0  0
  -22.4782  -17.9154   23.0710 C   0  0  0  0  0  0  0  0  0  0  0  0
  -31.5761  -31.1532   18.6987 C   0  0  0  0  0  0  0  0  0  0  0  0
  -24.7016  -30.3039   19.4302 C   0  0  0  0  0  0  0  0  0  0  0  0
  -24.5335  -29.1897   22.1643 C   0  0  0  0  0  0  0  0  0  0  0  0
  -19.3460  -22.3566   23.0717 C   0  0  0  0  0  0  0  0  0  0  0  0
  -30.8582  -31.0963   20.0447 C   0  0  0  0  0  0  0  0  0  0  0  0
  -25.4828  -16.5053   24.3598 C   0  0  0  0  0  0  0  0  0  0  0  0
  -30.2230  -29.7253   20.2534 C   0  0  0  0  0  0  0  0  0  0  0  0
  -25.6155  -15.1815   23.6034 C   0  0  0  0  0  0  0  0  0  0  0  0
  -24.0255  -16.8296   24.6839 C   0  0  0  0  0  0  0  0  0  0  0  0
  -23.2455  -15.4781   22.7775 C   0  0  0  0  0  0  0  0  0  0  0  0
  -29.1697  -29.4357   19.1772 C   0  0  1  0  0  0  0  0  0  0  0  0
  -25.7830  -30.5686   20.4732 C   0  0  1  0  0  0  0  0  0  0  0  0
  -24.6896  -15.1407   22.3719 C   0  0  2  0  0  0  0  0  0  0  0  0
  -18.4731  -21.4572   19.1889 C   0  0  0  0  0  0  0  0  0  0  0  0
  -21.7359  -32.5003   26.5255 C   0  0  0  0  0  0  0  0  0  0  0  0
  -27.8439  -30.9483   25.0024 C   0  0  0  0  0  0  0  0  0  0  0  0
  -26.0135  -31.0939   26.7043 C   0  0  0  0  0  0  0  0  0  0  0  0
  -26.4789  -33.0339   25.2069 C   0  0  0  0  0  0  0  0  0  0  0  0
  -20.5671  -29.6521   24.2899 C   0  0  0  0  0  0  0  0  0  0  0  0
  -25.3730  -30.9698   24.2537 C   0  0  1  0  0  0  0  0  0  0  0  0
  -21.7861  -31.5727   25.3214 C   0  0  2  0  0  0  0  0  0  0  0  0
  -26.4264  -31.4919   25.2712 C   0  0  0  0  0  0  0  0  0  0  0  0
  -19.4972  -19.2859   19.3891 N   0  0  0  0  0  0  0  0  0  0  0  0
  -23.9197  -12.8331   21.9680 N   0  0  0  0  0  0  0  0  0  0  0  0
  -24.7806  -13.8128   21.6437 N   0  0  0  0  0  0  0  0  0  0  0  0
  -19.7778  -22.2286   21.6685 N   0  0  0  0  0  0  0  0  0  0  0  0
  -25.2967  -30.4075   21.8450 N   0  0  0  0  0  0  0  0  0  0  0  0
  -23.2091  -16.7762   23.4692 N   0  0  0  0  0  0  0  0  0  0  0  0
  -26.5942  -14.3366   20.2130 N   0  0  0  0  0  0  0  0  0  0  0  0
  -25.5416  -11.4388   18.0021 N   0  0  0  0  0  0  0  0  0  0  0  0
  -21.7651  -17.7567   21.8832 N   0  0  0  0  0  0  0  0  0  0  0  0
  -27.9431  -30.1472   19.4661 N   0  0  0  0  0  0  0  0  0  0  0  0
  -24.0268  -31.4895   24.4677 N   0  0  0  0  0  0  0  0  0  0  0  0
  -20.6528  -30.6102   25.4220 N   0  3  0  0  0  0  0  0  0  0  0  0
  -20.7150  -23.3882   19.8473 O   0  0  0  0  0  0  0  0  0  0  0  0
  -27.0021  -10.6581   19.5885 O   0  0  0  0  0  0  0  0  0  0  0  0
  -27.0048  -28.6012   20.9330 O   0  0  0  0  0  0  0  0  0  0  0  0
  -26.3749  -32.3349   22.5926 O   0  0  0  0  0  0  0  0  0  0  0  0
  -23.3040  -29.7661   25.8404 O   0  0  0  0  0  0  0  0  0  0  0  0
  -22.5060  -18.9640   23.7203 O   0  0  0  0  0  0  0  0  0  0  0  0
  -21.5404   -6.9613   21.3287 O   0  0  0  0  0  0  0  0  0  0  0  0
  -21.6540  -25.6344   20.4303 O   0  0  0  0  0  0  0  0  0  1  0  0
  -22.5643   -3.6039   25.5812 F   0  0  0  0  0  0  0  0  0  0  0  0
  -22.5470   -4.4194   20.9185 F   0  0  0  0  0  0  0  0  0  0  0  0
  1  2  1  0  0  0  0
  1  5  2  0  0  0  0
  2  6  2  0  0  0  0
  3  8  2  0  0  0  0
  3 17  1  0  0  0  0
  4  9  1  0  0  0  0
  4 17  2  0  0  0  0
  5 19  1  0  0  0  0
  6 21  1  0  0  0  0
  7 10  2  0  0  0  0
  7 20  1  0  0  0  0
  8 25  1  0  0  0  0
  9 25  2  0  0  0  0
 10 26  1  0  0  0  0
 11 12  2  0  0  0  0
 11 27  1  0  0  0  0
 12 28  1  0  0  0  0
 13 22  1  0  0  0  0
 13 26  2  0  0  0  0
 14 23  1  0  0  0  0
 14 24  2  0  0  0  0
 15 28  2  0  0  0  0
 15 29  1  0  0  0  0
 16 24  1  0  0  0  0
 16 67  2  0  0  0  0
 17 30  1  0  0  0  0
 18 30  1  0  0  0  0
 18 32  2  0  0  0  0
 18 40  1  0  0  0  0
 19 21  2  0  0  0  0
 19 45  1  0  0  0  0
 20 22  2  0  0  0  0
 20 46  1  0  0  0  0
 21 55  1  0  0  0  0
 22 47  1  0  0  0  0
 23 31  2  0  0  0  0
 23 70  1  0  0  0  0
 24 75  1  0  0  0  0
 25 85  1  0  0  0  0
 26 86  1  0  0  0  0
 27 29  2  0  0  0  0
 27 85  1  0  0  0  0
 28 87  1  0  0  0  0
 29 88  1  0  0  0  0
 30 68  2  0  0  0  0
 31 58  1  0  0  0  0
 31 67  1  0  0  0  0
 32 69  1  0  0  0  0
 32 73  1  0  0  0  0
 33 34  1  0  0  0  0
 33 35  1  0  0  0  0
 33 37  2  0  0  0  0
 34 36  1  0  0  0  0
 34 39  2  0  0  0  0
 35 38  2  0  0  0  0
 35 48  1  0  0  0  0
 36 70  1  0  0  0  0
 36 79  2  0  0  0  0
 39 86  1  0  0  0  0
 40 74  1  0  0  0  0
 40 80  2  0  0  0  0
 41 56  1  0  0  0  0
 41 76  1  0  0  0  0
 41 81  2  0  0  0  0
 42 64  1  0  0  0  0
 42 71  1  0  0  0  0
 42 82  2  0  0  0  0
 43 65  1  0  0  0  0
 43 77  1  0  0  0  0
 43 83  2  0  0  0  0
 44 72  1  0  0  0  0
 44 75  1  0  0  0  0
 44 84  2  0  0  0  0
 45 49  1  0  0  0  0
 46 56  1  0  0  0  0
 47 71  1  0  0  0  0
 48 70  1  0  0  0  0
 49 51  1  0  0  0  0
 50 52  1  0  0  0  0
 50 53  1  0  0  0  0
 51 55  1  0  0  0  0
 52 57  1  0  0  0  0
 53 72  1  0  0  0  0
 54 57  1  0  0  0  0
 54 72  1  0  0  0  0
 55 76  1  0  0  0  0
 56 71  1  0  0  0  0
 57 69  1  0  0  0  0
 59 65  1  0  0  0  0
 60 66  1  0  0  0  0
 61 66  1  0  0  0  0
 62 66  1  0  0  0  0
 63 78  1  0  0  0  0
 64 66  1  0  0  0  0
 64 77  1  0  0  0  0
 65 78  1  0  0  0  0
 68 69  1  0  0  0  0
M  CHG  1  78   1
M  ISO  4  39 101  44 100  75 100  86 101
M  END
> <Batch ID>
0078

> <Smiles>
C=C1CN(c2cc([100NH:0][100C:0](=O)N3CCCC(n4nc(-c5ccc(Oc6ccc(F)cc6F)cc5)c(C(N)=O)c4N)C3)cnc2C)C(=O)C(=[101CH:1][101O:1]c2ccc3c(c2)CN(C(=O)C(NC(=O)C(C)NC)C(C)(C)C)C(C(=O)NC2CCCc4ccccc42)C3)C1=C

> <Shape>
0.225

> <Color>
0.102

> <Negative vol penalty>
0.000

$$$$

  -OEChem-04042323563D

 87 96  0     1  0  0  0  0  0999 V2000
  -25.7111  -30.6972   20.0621 C   0  0  0  0  0  0  0  0  0  0  0  0
  -25.3896  -29.3443   20.0225 C   0  0  0  0  0  0  0  0  0  0  0  0
  -28.4761  -20.8896   21.4181 C   0  0  0  0  0  0  0  0  0  0  0  0
  -22.3531  -14.0006   19.0832 C   0  0  0  0  0  0  0  0  0  0  0  0
  -22.5682  -11.6216   18.7207 C   0  0  0  0  0  0  0  0  0  0  0  0
  -29.4018  -19.8771   21.1665 C   0  0  0  0  0  0  0  0  0  0  0  0
  -25.1427  -31.5194   21.0341 C   0  0  0  0  0  0  0  0  0  0  0  0
  -24.5003  -28.8125   20.9556 C   0  0  0  0  0  0  0  0  0  0  0  0
  -21.0837  -25.7279   18.8445 C   0  0  0  0  0  0  0  0  0  0  0  0
  -27.1920  -20.8104   20.8791 C   0  0  0  0  0  0  0  0  0  0  0  0
  -21.2392  -14.0278   18.2443 C   0  0  0  0  0  0  0  0  0  0  0  0
  -21.4542  -11.6488   17.8818 C   0  0  0  0  0  0  0  0  0  0  0  0
  -21.5039  -24.4385   18.5210 C   0  0  0  0  0  0  0  0  0  0  0  0
  -20.6239  -14.0250   14.9207 C   0  0  0  0  0  0  0  0  0  0  0  0
  -20.5496  -15.0488   13.9763 C   0  0  0  0  0  0  0  0  0  0  0  0
  -27.7594  -18.7060   19.8367 C   0  0  0  0  0  0  0  0  0  0  0  0
  -20.4689  -23.6028   20.5333 C   0  0  0  0  0  0  0  0  0  0  0  0
  -18.4815  -15.8113   14.9654 C   0  0  0  0  0  0  0  0  0  0  0  0
  -23.0177  -12.7975   19.3214 C   0  0  0  0  0  0  0  0  0  0  0  0
  -29.0435  -18.7853   20.3758 C   0  0  0  0  0  0  0  0  0  0  0  0
  -24.1805  -12.5577   21.5793 C   0  0  0  0  0  0  0  0  0  0  0  0
  -24.2385  -30.9994   21.9736 C   0  0  0  0  0  0  0  0  0  0  0  0
  -20.3611  -25.9664   20.0223 C   0  0  0  0  0  0  0  0  0  0  0  0
  -23.9202  -29.6283   21.9419 C   0  0  0  0  0  0  0  0  0  0  0  0
  -20.0385  -24.8957   20.8682 C   0  0  0  0  0  0  0  0  0  0  0  0
  -26.8337  -19.7186   20.0884 C   0  0  0  0  0  0  0  0  0  0  0  0
  -20.7896  -12.8519   17.6435 C   0  0  0  0  0  0  0  0  0  0  0  0
  -21.1991  -23.3761   19.3669 C   0  0  0  0  0  0  0  0  0  0  0  0
  -19.6269  -13.8944   15.8875 C   0  0  0  0  0  0  0  0  0  0  0  0
  -19.4785  -15.9419   13.9986 C   0  0  0  0  0  0  0  0  0  0  0  0
  -18.5558  -14.7875   15.9099 C   0  0  0  0  0  0  0  0  0  0  0  0
  -24.1688  -12.7689   20.1875 C   0  0  0  0  0  0  0  0  0  0  0  0
  -25.5080  -12.6241   21.9256 C   0  0  0  0  0  0  0  0  0  0  0  0
  -24.7641  -20.7497   19.2033 C   0  0  0  0  0  0  0  0  0  0  0  0
  -23.5248  -20.7236   18.6771 C   0  0  0  0  0  0  0  0  0  0  0  0
  -22.8614  -19.4321   18.4864 C   0  0  0  0  0  0  0  0  0  0  0  0
  -21.7654  -19.2484   17.7328 C   0  0  0  0  0  0  0  0  0  0  0  0
  -30.0292  -17.7066   20.1080 C   0  0  0  0  0  0  0  0  0  0  0  0
  -23.0890  -12.3224   22.4787 C   0  0  0  0  0  0  0  0  0  0  0  0
  -20.8576  -27.6858   22.6492 C   0  0  0  0  0  0  0  0  0  0  0  0
  -17.8183  -26.7884   23.3414 C   0  0  0  0  0  0  0  0  0  0  0  0
  -15.2826  -24.5507   22.8833 C   0  0  0  0  0  0  0  0  0  0  0  0
  -30.2380  -15.3099   19.5287 C   0  0  0  0  0  0  0  0  0  0  0  0
  -23.6861  -31.9177   23.0349 C   0  0  0  0  0  0  0  0  0  0  0  0
  -19.8919  -27.3590   20.3435 C   0  0  0  0  0  0  0  0  0  0  0  0
  -19.2476  -25.0957   22.1343 C   0  0  0  0  0  0  0  0  0  0  0  0
  -23.4911  -18.2706   19.2260 C   0  0  0  0  0  0  0  0  0  0  0  0
  -22.4642  -31.3519   23.7540 C   0  0  0  0  0  0  0  0  0  0  0  0
  -29.8883  -11.8458   20.1409 C   0  0  0  0  0  0  0  0  0  0  0  0
  -22.7053  -29.9000   24.1546 C   0  0  0  0  0  0  0  0  0  0  0  0
  -28.3841  -11.6688   20.3654 C   0  0  0  0  0  0  0  0  0  0  0  0
  -25.0253  -18.2987   19.1804 C   0  0  0  0  0  0  0  0  0  0  0  0
  -30.1820  -12.8776   19.0528 C   0  0  0  0  0  0  0  0  0  0  0  0
  -28.0295  -14.0002   19.4582 C   0  0  0  0  0  0  0  0  0  0  0  0
  -22.9406  -29.0193   22.9215 C   0  0  1  0  0  0  0  0  0  0  0  0
  -19.6054  -27.5656   21.8276 C   0  0  1  0  0  0  0  0  0  0  0  0
  -27.6830  -13.0231   20.5933 C   0  0  1  0  0  0  0  0  0  0  0  0
  -12.9316  -24.0612   23.6119 C   0  0  0  0  0  0  0  0  0  0  0  0
  -18.8640  -25.7615   26.0176 C   0  0  0  0  0  0  0  0  0  0  0  0
  -16.7356  -24.4682   26.2739 C   0  0  0  0  0  0  0  0  0  0  0  0
  -16.6718  -26.9586   26.1441 C   0  0  0  0  0  0  0  0  0  0  0  0
  -14.2532  -24.7870   20.1186 C   0  0  0  0  0  0  0  0  0  0  0  0
  -22.8158  -21.9942   18.3028 C   0  0  0  0  0  0  0  0  0  1  0  0
  -17.1856  -25.6216   24.0607 C   0  0  1  0  0  0  0  0  0  0  0  0
  -13.8090  -24.7471   22.5762 C   0  0  2  0  0  0  0  0  0  0  0  0
  -17.3808  -25.6987   25.6012 C   0  0  0  0  0  0  0  0  0  0  0  0
  -25.3918  -12.9557   19.6841 N   0  0  0  0  0  0  0  0  0  0  0  0
  -26.1844  -12.8621   20.7654 N   0  0  0  0  0  0  0  0  0  0  0  0
  -25.5270  -19.6382   19.5399 N   0  0  0  0  0  0  0  0  0  0  0  0
  -18.8169  -26.4767   22.4079 N   0  0  0  0  0  0  0  0  0  0  0  0
  -29.4899  -14.1335   19.3473 N   0  0  0  0  0  0  0  0  0  0  0  0
  -26.1509  -12.5016   23.1063 N   0  0  0  0  0  0  0  0  0  0  0  0
  -21.7889  -12.2853   21.9563 N   0  0  0  0  0  0  0  0  0  0  0  0
  -29.4881  -16.4472   19.8482 N   0  0  0  0  0  0  0  0  0  0  0  0
  -21.6854  -28.7234   22.2647 N   0  0  0  0  0  0  0  0  0  0  0  0
  -15.7902  -25.5884   23.6361 N   0  0  0  0  0  0  0  0  0  0  0  0
  -13.4799  -24.1857   21.2355 N   0  3  0  0  0  0  0  0  0  0  0  0
  -31.2260  -17.9810   20.0907 O   0  0  0  0  0  0  0  0  0  0  0  0
  -23.2599  -12.1666   23.7116 O   0  0  0  0  0  0  0  0  0  0  0  0
  -21.0574  -26.8967   23.5652 O   0  0  0  0  0  0  0  0  0  0  0  0
  -17.4354  -27.9337   23.5932 O   0  0  0  0  0  0  0  0  0  0  0  0
  -15.9188  -23.5725   22.4974 O   0  0  0  0  0  0  0  0  0  0  0  0
  -31.4703  -15.3377   19.4509 O   0  0  0  0  0  0  0  0  0  0  0  0
  -19.7025  -12.8780   16.8250 O   0  0  0  0  0  0  0  0  0  0  0  0
  -21.6086  -22.1167   19.0538 O   0  0  0  0  0  0  0  0  0  1  0  0
  -19.4081  -16.9259   13.0925 F   0  0  0  0  0  0  0  0  0  0  0  0
  -17.5956  -14.6678   16.8370 F   0  0  0  0  0  0  0  0  0  0  0  0
  1  2  1  0  0  0  0
  1  7  2  0  0  0  0
  2  8  2  0  0  0  0
  3  6  1  0  0  0  0
  3 10  2  0  0  0  0
  4 11  2  0  0  0  0
  4 19  1  0  0  0  0
  5 12  1  0  0  0  0
  5 19  2  0  0  0  0
  6 20  2  0  0  0  0
  7 22  1  0  0  0  0
  8 24  1  0  0  0  0
  9 13  2  0  0  0  0
  9 23  1  0  0  0  0
 10 26  1  0  0  0  0
 11 27  1  0  0  0  0
 12 27  2  0  0  0  0
 13 28  1  0  0  0  0
 14 15  2  0  0  0  0
 14 29  1  0  0  0  0
 15 30  1  0  0  0  0
 16 20  1  0  0  0  0
 16 26  2  0  0  0  0
 17 25  1  0  0  0  0
 17 28  2  0  0  0  0
 18 30  2  0  0  0  0
 18 31  1  0  0  0  0
 19 32  1  0  0  0  0
 20 38  1  0  0  0  0
 21 32  1  0  0  0  0
 21 33  2  0  0  0  0
 21 39  1  0  0  0  0
 22 24  2  0  0  0  0
 22 44  1  0  0  0  0
 23 25  2  0  0  0  0
 23 45  1  0  0  0  0
 24 55  1  0  0  0  0
 25 46  1  0  0  0  0
 26 69  1  0  0  0  0
 27 84  1  0  0  0  0
 28 85  1  0  0  0  0
 29 31  2  0  0  0  0
 29 84  1  0  0  0  0
 30 86  1  0  0  0  0
 31 87  1  0  0  0  0
 32 67  2  0  0  0  0
 33 68  1  0  0  0  0
 33 72  1  0  0  0  0
 34 35  2  0  0  0  0
 34 69  1  0  0  0  0
 35 36  1  0  0  0  0
 35 63  1  0  0  0  0
 36 37  2  0  0  0  0
 36 47  1  0  0  0  0
 38 74  1  0  0  0  0
 38 78  2  0  0  0  0
 39 73  1  0  0  0  0
 39 79  2  0  0  0  0
 40 56  1  0  0  0  0
 40 75  1  0  0  0  0
 40 80  2  0  0  0  0
 41 64  1  0  0  0  0
 41 70  1  0  0  0  0
 41 81  2  0  0  0  0
 42 65  1  0  0  0  0
 42 76  1  0  0  0  0
 42 82  2  0  0  0  0
 43 71  1  0  0  0  0
 43 74  1  0  0  0  0
 43 83  2  0  0  0  0
 44 48  1  0  0  0  0
 45 56  1  0  0  0  0
 46 70  1  0  0  0  0
 47 52  1  0  0  0  0
 48 50  1  0  0  0  0
 49 51  1  0  0  0  0
 49 53  1  0  0  0  0
 50 55  1  0  0  0  0
 51 57  1  0  0  0  0
 52 69  1  0  0  0  0
 53 71  1  0  0  0  0
 54 57  1  0  0  0  0
 54 71  1  0  0  0  0
 55 75  1  0  0  0  0
 56 70  1  0  0  0  0
 57 68  1  0  0  0  0
 58 65  1  0  0  0  0
 59 66  1  0  0  0  0
 60 66  1  0  0  0  0
 61 66  1  0  0  0  0
 62 77  1  0  0  0  0
 63 85  1  0  0  0  0
 64 66  1  0  0  0  0
 64 76  1  0  0  0  0
 65 77  1  0  0  0  0
 67 68  1  0  0  0  0
M  CHG  1  77   1
M  ISO  4  43 100  63 101  74 100  85 101
M  END
> <Batch ID>
0078

> <Smiles>
C=C1CCN(c2cccc(C(=O)[100NH:0][100C:0](=O)N3CCCC(n4nc(-c5ccc(Oc6ccc(F)cc6F)cc5)c(C(N)=O)c4N)C3)c2)C=C1[101CH2:1][101O:1]c1ccc2c(c1)CN(C(=O)C(NC(=O)C(C)NC)C(C)(C)C)C(C(=O)NC1CCCc3ccccc31)C2

> <Shape>
0.215

> <Color>
0.100

> <Negative vol penalty>
0.000

$$$$

  -OEChem-04042323563D

 86 95  0     1  0  0  0  0  0999 V2000
  -27.2944  -37.4424   24.8375 C   0  0  0  0  0  0  0  0  0  0  0  0
  -27.8589  -36.4921   23.9927 C   0  0  0  0  0  0  0  0  0  0  0  0
  -26.5833  -12.7948   21.6422 C   0  0  0  0  0  0  0  0  0  0  0  0
  -26.1707  -13.7935   19.4814 C   0  0  0  0  0  0  0  0  0  0  0  0
  -26.3348  -37.0590   25.7735 C   0  0  0  0  0  0  0  0  0  0  0  0
  -27.4651  -35.1576   24.0843 C   0  0  0  0  0  0  0  0  0  0  0  0
  -26.9676  -31.1422   19.4870 C   0  0  0  0  0  0  0  0  0  0  0  0
  -29.2122  -23.6508   18.5040 C   0  0  0  0  0  0  0  0  0  0  0  0
  -29.6726  -22.5922   19.2912 C   0  0  0  0  0  0  0  0  0  0  0  0
  -25.2849  -12.2853   21.6547 C   0  0  0  0  0  0  0  0  0  0  0  0
  -24.8723  -13.2841   19.4938 C   0  0  0  0  0  0  0  0  0  0  0  0
  -27.8182  -30.1412   19.0197 C   0  0  0  0  0  0  0  0  0  0  0  0
  -23.6138   -9.6906   20.2735 C   0  0  0  0  0  0  0  0  0  0  0  0
  -23.4418   -8.3638   20.6679 C   0  0  0  0  0  0  0  0  0  0  0  0
  -26.6131  -28.5136   20.3305 C   0  0  0  0  0  0  0  0  0  0  0  0
  -22.0247   -9.0877   22.4858 C   0  0  0  0  0  0  0  0  0  0  0  0
  -27.0262  -13.5489   20.5556 C   0  0  0  0  0  0  0  0  0  0  0  0
  -29.5212  -13.4510   20.0330 C   0  0  0  0  0  0  0  0  0  0  0  0
  -25.9220  -35.7208   25.8701 C   0  0  0  0  0  0  0  0  0  0  0  0
  -25.9384  -30.8377   20.3896 C   0  0  0  0  0  0  0  0  0  0  0  0
  -26.5001  -34.7557   25.0234 C   0  0  0  0  0  0  0  0  0  0  0  0
  -25.7492  -29.5121   20.8057 C   0  0  0  0  0  0  0  0  0  0  0  0
  -28.7877  -22.1172   16.6863 C   0  0  0  0  0  0  0  0  0  0  0  0
  -28.7688  -23.4301   17.1899 C   0  0  0  0  0  0  0  0  0  0  0  0
  -29.6862  -21.2973   18.7840 C   0  0  0  0  0  0  0  0  0  0  0  0
  -24.4294  -12.5299   20.5805 C   0  0  0  0  0  0  0  0  0  0  0  0
  -27.6429  -28.8272   19.4437 C   0  0  0  0  0  0  0  0  0  0  0  0
  -22.9913  -10.7160   20.9854 C   0  0  0  0  0  0  0  0  0  0  0  0
  -22.6472   -8.0623   21.7740 C   0  0  0  0  0  0  0  0  0  0  0  0
  -22.1967  -10.4146   22.0915 C   0  0  0  0  0  0  0  0  0  0  0  0
  -29.2377  -21.0583   17.4881 C   0  0  0  0  0  0  0  0  0  0  0  0
  -28.3672  -14.0760   20.5424 C   0  0  0  0  0  0  0  0  0  0  0  0
  -30.5295  -14.3562   20.2579 C   0  0  0  0  0  0  0  0  0  0  0  0
  -28.0236  -24.3175   14.9976 C   0  0  0  0  0  0  0  0  0  0  0  0
  -29.6686  -12.1672   19.4119 C   0  0  0  0  0  0  0  0  0  0  0  0
  -25.2348  -31.7058   23.3653 C   0  0  0  0  0  0  0  0  0  0  0  0
  -22.5269  -30.0100   22.8049 C   0  0  0  0  0  0  0  0  0  0  0  0
  -20.9665  -27.5446   21.0347 C   0  0  0  0  0  0  0  0  0  0  0  0
  -30.6144  -20.2962   20.9012 C   0  0  0  0  0  0  0  0  0  0  0  0
  -24.9162  -35.3460   26.9296 C   0  0  0  0  0  0  0  0  0  0  0  0
  -25.0128  -31.9243   20.8635 C   0  0  0  0  0  0  0  0  0  0  0  0
  -28.2383  -21.8369   15.3186 C   0  0  0  0  0  0  0  0  0  0  0  0
  -24.6467  -29.1296   21.7579 C   0  0  0  0  0  0  0  0  0  0  0  0
  -28.5141  -23.0129   14.4062 C   0  0  0  0  0  0  0  0  0  0  0  0
  -24.2804  -33.9759   26.7085 C   0  0  0  0  0  0  0  0  0  0  0  0
  -31.7989  -17.8842   23.2371 C   0  0  0  0  0  0  0  0  0  0  0  0
  -25.3484  -32.9397   26.3730 C   0  0  0  0  0  0  0  0  0  0  0  0
  -31.1632  -16.5760   22.7612 C   0  0  0  0  0  0  0  0  0  0  0  0
  -30.8577  -19.0729   23.0505 C   0  0  0  0  0  0  0  0  0  0  0  0
  -29.6804  -17.9208   21.2186 C   0  0  0  0  0  0  0  0  0  0  0  0
  -26.0808  -33.3026   25.0756 C   0  0  1  0  0  0  0  0  0  0  0  0
  -24.3193  -31.5866   22.1797 C   0  0  1  0  0  0  0  0  0  0  0  0
  -30.6151  -16.7050   21.3265 C   0  0  2  0  0  0  0  0  0  0  0  0
  -18.7633  -26.3614   20.8268 C   0  0  0  0  0  0  0  0  0  0  0  0
  -23.1328  -28.4398   25.3499 C   0  0  0  0  0  0  0  0  0  0  0  0
  -21.4905  -26.7095   24.5902 C   0  0  0  0  0  0  0  0  0  0  0  0
  -20.7245  -29.0399   25.0429 C   0  0  0  0  0  0  0  0  0  0  0  0
  -20.6323  -28.4150   18.2258 C   0  0  0  0  0  0  0  0  0  0  0  0
  -29.2818  -26.6441   17.0785 C   0  0  0  0  0  0  0  0  0  0  0  0
  -28.0202  -25.7986   16.9689 C   0  0  0  0  0  0  0  0  0  0  0  0
  -29.0238  -28.0182   17.6846 C   0  0  0  0  0  0  0  0  0  1  0  0
  -22.1116  -28.5695   22.9822 C   0  0  1  0  0  0  0  0  0  0  0  0
  -19.6254  -27.5090   20.3244 C   0  0  2  0  0  0  0  0  0  0  0  0
  -21.8869  -28.1969   24.4748 C   0  0  0  0  0  0  0  0  0  0  0  0
  -28.6179  -15.2846   21.0526 N   0  0  0  0  0  0  0  0  0  0  0  0
  -29.9411  -15.4264   20.8650 N   0  0  0  0  0  0  0  0  0  0  0  0
  -28.2761  -24.4943   16.3642 N   0  0  0  0  0  0  0  0  0  0  0  0
  -23.7717  -30.2287   22.1979 N   0  0  0  0  0  0  0  0  0  0  0  0
  -30.3819  -19.1340   21.6668 N   0  0  0  0  0  0  0  0  0  0  0  0
  -31.8531  -14.3330   19.9937 N   0  0  0  0  0  0  0  0  0  0  0  0
  -28.5300  -11.3643   19.2591 N   0  0  0  0  0  0  0  0  0  0  0  0
  -30.1455  -20.2261   19.5898 N   0  0  0  0  0  0  0  0  0  0  0  0
  -25.2679  -32.9684   23.9258 N   0  0  0  0  0  0  0  0  0  0  0  0
  -20.9399  -28.3752   22.1349 N   0  0  0  0  0  0  0  0  0  0  0  0
  -19.8209  -27.3422   18.8564 N   0  3  0  0  0  0  0  0  0  0  0  0
  -27.5237  -25.1702   14.2608 O   0  0  0  0  0  0  0  0  0  0  0  0
  -30.7799  -11.7377   19.0195 O   0  0  0  0  0  0  0  0  0  0  0  0
  -25.8633  -30.7245   23.7443 O   0  0  0  0  0  0  0  0  0  0  0  0
  -21.7713  -30.9083   23.1843 O   0  0  0  0  0  0  0  0  0  0  0  0
  -21.9393  -26.8971   20.6539 O   0  0  0  0  0  0  0  0  0  0  0  0
  -31.2112  -21.2708   21.3660 O   0  0  0  0  0  0  0  0  0  0  0  0
  -23.1624  -12.0328   20.5922 O   0  0  0  0  0  0  0  0  0  0  0  0
  -28.4721  -27.8484   18.9896 O   0  0  0  0  0  0  0  0  0  1  0  0
  -22.4809   -6.7880   22.1516 F   0  0  0  0  0  0  0  0  0  0  0  0
  -21.5952  -11.3953   22.7786 F   0  0  0  0  0  0  0  0  0  0  0  0
  -29.2284  -19.8055   17.0065 F   0  0  0  0  0  0  0  0  0  0  0  0
  1  2  1  0  0  0  0
  1  5  2  0  0  0  0
  2  6  2  0  0  0  0
  3 10  2  0  0  0  0
  3 17  1  0  0  0  0
  4 11  1  0  0  0  0
  4 17  2  0  0  0  0
  5 19  1  0  0  0  0
  6 21  1  0  0  0  0
  7 12  2  0  0  0  0
  7 20  1  0  0  0  0
  8  9  1  0  0  0  0
  8 24  2  0  0  0  0
  9 25  2  0  0  0  0
 10 26  1  0  0  0  0
 11 26  2  0  0  0  0
 12 27  1  0  0  0  0
 13 14  2  0  0  0  0
 13 28  1  0  0  0  0
 14 29  1  0  0  0  0
 15 22  1  0  0  0  0
 15 27  2  0  0  0  0
 16 29  2  0  0  0  0
 16 30  1  0  0  0  0
 17 32  1  0  0  0  0
 18 32  1  0  0  0  0
 18 33  2  0  0  0  0
 18 35  1  0  0  0  0
 19 21  2  0  0  0  0
 19 40  1  0  0  0  0
 20 22  2  0  0  0  0
 20 41  1  0  0  0  0
 21 51  1  0  0  0  0
 22 43  1  0  0  0  0
 23 24  1  0  0  0  0
 23 31  2  0  0  0  0
 23 42  1  0  0  0  0
 24 67  1  0  0  0  0
 25 31  1  0  0  0  0
 25 72  1  0  0  0  0
 26 82  1  0  0  0  0
 27 83  1  0  0  0  0
 28 30  2  0  0  0  0
 28 82  1  0  0  0  0
 29 84  1  0  0  0  0
 30 85  1  0  0  0  0
 31 86  1  0  0  0  0
 32 65  2  0  0  0  0
 33 66  1  0  0  0  0
 33 70  1  0  0  0  0
 34 44  1  0  0  0  0
 34 67  1  0  0  0  0
 34 76  2  0  0  0  0
 35 71  1  0  0  0  0
 35 77  2  0  0  0  0
 36 52  1  0  0  0  0
 36 73  1  0  0  0  0
 36 78  2  0  0  0  0
 37 62  1  0  0  0  0
 37 68  1  0  0  0  0
 37 79  2  0  0  0  0
 38 63  1  0  0  0  0
 38 74  1  0  0  0  0
 38 80  2  0  0  0  0
 39 69  1  0  0  0  0
 39 72  1  0  0  0  0
 39 81  2  0  0  0  0
 40 45  1  0  0  0  0
 41 52  1  0  0  0  0
 42 44  1  0  0  0  0
 43 68  1  0  0  0  0
 45 47  1  0  0  0  0
 46 48  1  0  0  0  0
 46 49  1  0  0  0  0
 47 51  1  0  0  0  0
 48 53  1  0  0  0  0
 49 69  1  0  0  0  0
 50 53  1  0  0  0  0
 50 69  1  0  0  0  0
 51 73  1  0  0  0  0
 52 68  1  0  0  0  0
 53 66  1  0  0  0  0
 54 63  1  0  0  0  0
 55 64  1  0  0  0  0
 56 64  1  0  0  0  0
 57 64  1  0  0  0  0
 58 75  1  0  0  0  0
 59 60  1  0  0  0  0
 59 61  1  0  0  0  0
 60 67  1  0  0  0  0
 61 83  1  0  0  0  0
 62 64  1  0  0  0  0
 62 74  1  0  0  0  0
 63 75  1  0  0  0  0
 65 66  1  0  0  0  0
M  CHG  1  75   1
M  ISO  4  39 100  61 101  72 100  83 101
M  END
> <Batch ID>
0078

> <Smiles>
CNC(C)C(=O)NC(C(=O)N1Cc2cc([101O:1][101CH2:1]CCN3C(=O)CCc4c3ccc([100NH:0][100C:0](=O)N3CCCC(n5nc(-c6ccc(Oc7ccc(F)cc7F)cc6)c(C(N)=O)c5N)C3)c4F)ccc2CC1C(=O)NC1CCCc2ccccc21)C(C)(C)C

> <Shape>
0.336

> <Color>
0.076

> <Negative vol penalty>
0.000

$$$$

  -OEChem-04042323563D

 88 97  0     1  0  0  0  0  0999 V2000
  -25.9812  -35.6531   22.5152 C   0  0  0  0  0  0  0  0  0  0  0  0
  -26.5472  -34.3853   22.4276 C   0  0  0  0  0  0  0  0  0  0  0  0
  -23.4133  -10.2180   21.5990 C   0  0  0  0  0  0  0  0  0  0  0  0
  -24.9479   -8.4136   22.0744 C   0  0  0  0  0  0  0  0  0  0  0  0
  -24.6655  -35.7991   22.9530 C   0  0  0  0  0  0  0  0  0  0  0  0
  -25.7982  -33.2627   22.7787 C   0  0  0  0  0  0  0  0  0  0  0  0
  -26.2799  -29.4842   19.4417 C   0  0  0  0  0  0  0  0  0  0  0  0
  -29.5576  -20.2107   19.5444 C   0  0  0  0  0  0  0  0  0  0  0  0
  -29.6428  -18.8233   19.4287 C   0  0  0  0  0  0  0  0  0  0  0  0
  -22.3788   -9.2961   21.4391 C   0  0  0  0  0  0  0  0  0  0  0  0
  -23.9135   -7.4917   21.9145 C   0  0  0  0  0  0  0  0  0  0  0  0
  -27.4439  -28.7197   19.5091 C   0  0  0  0  0  0  0  0  0  0  0  0
  -21.3009   -6.3432   23.7244 C   0  0  0  0  0  0  0  0  0  0  0  0
  -21.1874   -5.3276   24.6737 C   0  0  0  0  0  0  0  0  0  0  0  0
  -26.2433  -27.0090   20.7138 C   0  0  0  0  0  0  0  0  0  0  0  0
  -28.7900  -19.9735   21.8230 C   0  0  0  0  0  0  0  0  0  0  0  0
  -21.4854   -3.6727   22.9388 C   0  0  0  0  0  0  0  0  0  0  0  0
  -24.6979   -9.7768   21.9166 C   0  0  0  0  0  0  0  0  0  0  0  0
  -26.1560  -11.3725   23.2712 C   0  0  0  0  0  0  0  0  0  0  0  0
  -23.8969  -34.6770   23.3005 C   0  0  0  0  0  0  0  0  0  0  0  0
  -25.0896  -29.0209   20.0203 C   0  0  0  0  0  0  0  0  0  0  0  0
  -24.4715  -33.3940   23.2228 C   0  0  0  0  0  0  0  0  0  0  0  0
  -25.0650  -27.7684   20.6501 C   0  0  0  0  0  0  0  0  0  0  0  0
  -29.1313  -20.7858   20.7416 C   0  0  0  0  0  0  0  0  0  0  0  0
  -29.3015  -18.0109   20.5100 C   0  0  0  0  0  0  0  0  0  0  0  0
  -22.6289   -7.9330   21.5968 C   0  0  0  0  0  0  0  0  0  0  0  0
  -27.4264  -27.4832   20.1478 C   0  0  0  0  0  0  0  0  0  0  0  0
  -21.5065   -6.0236   22.3822 C   0  0  0  0  0  0  0  0  0  0  0  0
  -21.2798   -3.9923   24.2809 C   0  0  0  0  0  0  0  0  0  0  0  0
  -28.8751  -18.5860   21.7072 C   0  0  0  0  0  0  0  0  0  0  0  0
  -21.5988   -4.6884   21.9895 C   0  0  0  0  0  0  0  0  0  0  0  0
  -25.7670  -10.7285   22.0814 C   0  0  0  0  0  0  0  0  0  0  0  0
  -27.2105  -12.1707   22.9007 C   0  0  0  0  0  0  0  0  0  0  0  0
  -28.7797  -24.4087   20.3969 C   0  0  0  0  0  0  0  0  0  0  0  0
  -29.0642  -24.3187   21.8071 C   0  0  0  0  0  0  0  0  0  0  0  0
  -28.7676  -23.0464   19.7946 C   0  0  0  0  0  0  0  0  0  0  0  0
  -29.1617  -25.3100   22.6994 C   0  0  0  0  0  0  0  0  0  0  0  0
  -25.6127  -11.2593   24.5933 C   0  0  0  0  0  0  0  0  0  0  0  0
  -28.5475  -25.4922   19.6478 C   0  0  0  0  0  0  0  0  0  1  0  0
  -23.1747  -30.0485   22.3400 C   0  0  0  0  0  0  0  0  0  0  0  0
  -21.3126  -27.5776   21.3655 C   0  0  0  0  0  0  0  0  0  0  0  0
  -21.1014  -24.5452   19.8143 C   0  0  0  0  0  0  0  0  0  0  0  0
  -29.1960  -15.9322   19.1451 C   0  0  0  0  0  0  0  0  0  0  0  0
  -22.4944  -34.8884   23.8133 C   0  0  0  0  0  0  0  0  0  0  0  0
  -23.8360  -29.8456   19.9157 C   0  0  0  0  0  0  0  0  0  0  0  0
  -23.8078  -27.2167   21.2695 C   0  0  0  0  0  0  0  0  0  0  0  0
  -29.2412  -22.8652   22.1276 C   0  0  0  0  0  0  0  0  0  0  0  0
  -21.6465  -33.6190   23.8092 C   0  0  0  0  0  0  0  0  0  0  0  0
  -29.8850  -12.3459   18.6217 C   0  0  0  0  0  0  0  0  0  0  0  0
  -22.4299  -32.4519   24.4019 C   0  0  0  0  0  0  0  0  0  0  0  0
  -28.8585  -11.6664   19.5264 C   0  0  0  0  0  0  0  0  0  0  0  0
  -29.3833  -13.6914   18.1058 C   0  0  0  0  0  0  0  0  0  0  0  0
  -27.9254  -13.9459   20.0907 C   0  0  0  0  0  0  0  0  0  0  0  0
  -23.6830  -32.1501   23.5712 C   0  0  1  0  0  0  0  0  0  0  0  0
  -22.8059  -29.5057   20.9884 C   0  0  1  0  0  0  0  0  0  0  0  0
  -28.4189  -12.6077   20.6612 C   0  0  1  0  0  0  0  0  0  0  0  0
  -28.2632  -25.4392   18.1812 C   0  0  0  0  0  0  0  0  0  0  0  0
  -19.4518  -22.7551   19.2046 C   0  0  0  0  0  0  0  0  0  0  0  0
  -21.2864  -26.6187   24.2620 C   0  0  0  0  0  0  0  0  0  0  0  0
  -20.4678  -24.3977   23.4462 C   0  0  0  0  0  0  0  0  0  0  0  0
  -19.0867  -26.4434   23.0851 C   0  0  0  0  0  0  0  0  0  0  0  0
  -29.9249  -15.8075   21.5164 C   0  0  0  0  0  0  0  0  0  0  0  0
  -21.6266  -24.8844   16.9215 C   0  0  0  0  0  0  0  0  0  0  0  0
  -21.1966  -26.1175   21.7308 C   0  0  1  0  0  0  0  0  0  0  0  0
  -20.1559  -24.0231   18.7475 C   0  0  2  0  0  0  0  0  0  0  0  0
  -20.5337  -25.9053   23.1211 C   0  0  0  0  0  0  0  0  0  0  0  0
  -26.5136  -11.0868   21.0334 N   0  0  0  0  0  0  0  0  0  0  0  0
  -27.3822  -11.9646   21.5635 N   0  0  0  0  0  0  0  0  0  0  0  0
  -29.0458  -22.1696   20.8571 N   0  0  0  0  0  0  0  0  0  0  0  0
  -22.6096  -28.0633   21.1466 N   0  0  0  0  0  0  0  0  0  0  0  0
  -28.9293  -14.5494   19.2008 N   0  0  0  0  0  0  0  0  0  0  0  0
  -27.9984  -13.0218   23.5916 N   0  0  0  0  0  0  0  0  0  0  0  0
  -24.5299  -10.3935   24.7987 N   0  0  0  0  0  0  0  0  0  0  0  0
  -23.3308  -31.4212   22.3716 N   0  0  0  0  0  0  0  0  0  0  0  0
  -20.4899  -25.4756   20.6277 N   0  0  0  0  0  0  0  0  0  0  0  0
  -29.3901  -16.5750   20.3869 N   0  0  0  0  0  0  0  0  0  0  0  0
  -20.9048  -23.7196   17.4953 N   0  3  0  0  0  0  0  0  0  0  0  0
  -28.5570  -22.7829   18.6226 O   0  0  0  0  0  0  0  0  0  0  0  0
  -26.0632  -11.9191   25.5603 O   0  0  0  0  0  0  0  0  0  0  0  0
  -23.3064  -29.2792   23.2847 O   0  0  0  0  0  0  0  0  0  0  0  0
  -20.2897  -28.2604   21.2707 O   0  0  0  0  0  0  0  0  0  0  0  0
  -22.2648  -24.1628   19.9182 O   0  0  0  0  0  0  0  0  0  0  0  0
  -29.2831  -16.5371   18.0699 O   0  0  0  0  0  0  0  0  0  0  0  0
  -21.6196   -7.0331   21.4411 O   0  0  0  0  0  0  0  0  0  0  0  0
  -28.5613  -26.7353   20.2156 O   0  0  0  0  0  0  0  0  0  1  0  0
  -21.1724   -3.0172   25.1929 F   0  0  0  0  0  0  0  0  0  0  0  0
  -28.5431  -17.8150   22.7527 F   0  0  0  0  0  0  0  0  0  0  0  0
  -21.7975   -4.3752   20.7018 F   0  0  0  0  0  0  0  0  0  0  0  0
  1  2  1  0  0  0  0
  1  5  2  0  0  0  0
  2  6  2  0  0  0  0
  3 10  2  0  0  0  0
  3 18  1  0  0  0  0
  4 11  1  0  0  0  0
  4 18  2  0  0  0  0
  5 20  1  0  0  0  0
  6 22  1  0  0  0  0
  7 12  2  0  0  0  0
  7 21  1  0  0  0  0
  8  9  2  0  0  0  0
  8 24  1  0  0  0  0
  9 25  1  0  0  0  0
 10 26  1  0  0  0  0
 11 26  2  0  0  0  0
 12 27  1  0  0  0  0
 13 14  2  0  0  0  0
 13 28  1  0  0  0  0
 14 29  1  0  0  0  0
 15 23  1  0  0  0  0
 15 27  2  0  0  0  0
 16 24  2  0  0  0  0
 16 30  1  0  0  0  0
 17 29  2  0  0  0  0
 17 31  1  0  0  0  0
 18 32  1  0  0  0  0
 19 32  1  0  0  0  0
 19 33  2  0  0  0  0
 19 38  1  0  0  0  0
 20 22  2  0  0  0  0
 20 44  1  0  0  0  0
 21 23  2  0  0  0  0
 21 45  1  0  0  0  0
 22 54  1  0  0  0  0
 23 46  1  0  0  0  0
 24 69  1  0  0  0  0
 25 30  2  0  0  0  0
 25 76  1  0  0  0  0
 26 84  1  0  0  0  0
 27 85  1  0  0  0  0
 28 31  2  0  0  0  0
 28 84  1  0  0  0  0
 29 86  1  0  0  0  0
 30 87  1  0  0  0  0
 31 88  1  0  0  0  0
 32 67  2  0  0  0  0
 33 68  1  0  0  0  0
 33 72  1  0  0  0  0
 34 35  1  0  0  0  0
 34 36  1  0  0  0  0
 34 39  2  0  0  0  0
 35 37  2  0  0  0  0
 35 47  1  0  0  0  0
 36 69  1  0  0  0  0
 36 78  2  0  0  0  0
 38 73  1  0  0  0  0
 38 79  2  0  0  0  0
 39 57  1  0  0  0  0
 39 85  1  0  0  0  0
 40 55  1  0  0  0  0
 40 74  1  0  0  0  0
 40 80  2  0  0  0  0
 41 64  1  0  0  0  0
 41 70  1  0  0  0  0
 41 81  2  0  0  0  0
 42 65  1  0  0  0  0
 42 75  1  0  0  0  0
 42 82  2  0  0  0  0
 43 71  1  0  0  0  0
 43 76  1  0  0  0  0
 43 83  2  0  0  0  0
 44 48  1  0  0  0  0
 45 55  1  0  0  0  0
 46 70  1  0  0  0  0
 47 69  1  0  0  0  0
 48 50  1  0  0  0  0
 49 51  1  0  0  0  0
 49 52  1  0  0  0  0
 50 54  1  0  0  0  0
 51 56  1  0  0  0  0
 52 71  1  0  0  0  0
 53 56  1  0  0  0  0
 53 71  1  0  0  0  0
 54 74  1  0  0  0  0
 55 70  1  0  0  0  0
 56 68  1  0  0  0  0
 58 65  1  0  0  0  0
 59 66  1  0  0  0  0
 60 66  1  0  0  0  0
 61 66  1  0  0  0  0
 62 76  1  0  0  0  0
 63 77  1  0  0  0  0
 64 66  1  0  0  0  0
 64 75  1  0  0  0  0
 65 77  1  0  0  0  0
 67 68  1  0  0  0  0
M  CHG  1  77   1
M  ISO  4  39 101  43 100  76 100  85 101
M  END
> <Batch ID>
0078

> <Smiles>
C=C1CN(c2ccc([100N:0](C)[100C:0](=O)N3CCCC(n4nc(-c5ccc(Oc6ccc(F)cc6F)cc5)c(C(N)=O)c4N)C3)c(F)c2)C(=O)C1=[101C:1](C)[101O:1]c1ccc2c(c1)CN(C(=O)C(NC(=O)C(C)NC)C(C)(C)C)C(C(=O)NC1CCCc3ccccc31)C2

> <Shape>
0.344

> <Color>
0.147

> <Negative vol penalty>
0.000

$$$$

  -OEChem-04042323563D

 86 95  0     1  0  0  0  0  0999 V2000
  -24.2523  -35.9181   15.8516 C   0  0  0  0  0  0  0  0  0  0  0  0
  -24.8179  -34.6473   15.8764 C   0  0  0  0  0  0  0  0  0  0  0  0
  -25.7395   -6.2934   19.6543 C   0  0  0  0  0  0  0  0  0  0  0  0
  -26.3171   -6.4821   21.9927 C   0  0  0  0  0  0  0  0  0  0  0  0
  -26.9546  -18.6637   21.5654 C   0  0  0  0  0  0  0  0  0  0  0  0
  -29.3242  -18.3360   21.9044 C   0  0  0  0  0  0  0  0  0  0  0  0
  -24.2192  -36.6880   17.0135 C   0  0  0  0  0  0  0  0  0  0  0  0
  -25.3519  -34.1461   17.0630 C   0  0  0  0  0  0  0  0  0  0  0  0
  -25.2978  -28.3211   18.9531 C   0  0  0  0  0  0  0  0  0  0  0  0
  -27.2019  -19.9465   21.0767 C   0  0  0  0  0  0  0  0  0  0  0  0
  -29.5715  -19.6188   21.4156 C   0  0  0  0  0  0  0  0  0  0  0  0
  -26.5231   -5.1439   19.5535 C   0  0  0  0  0  0  0  0  0  0  0  0
  -27.1006   -5.3325   21.8919 C   0  0  0  0  0  0  0  0  0  0  0  0
  -26.2558  -27.3095   18.9021 C   0  0  0  0  0  0  0  0  0  0  0  0
  -26.6168   -1.9886   21.8207 C   0  0  0  0  0  0  0  0  0  0  0  0
  -26.4960   -1.0333   22.8298 C   0  0  0  0  0  0  0  0  0  0  0  0
  -26.9315  -27.8439   21.1553 C   0  0  0  0  0  0  0  0  0  0  0  0
  -28.8418   -1.2863   23.3500 C   0  0  0  0  0  0  0  0  0  0  0  0
  -25.6366   -6.9625   20.8739 C   0  0  0  0  0  0  0  0  0  0  0  0
  -28.0158  -17.8585   21.9793 C   0  0  0  0  0  0  0  0  0  0  0  0
  -23.4616   -8.2221   21.3104 C   0  0  0  0  0  0  0  0  0  0  0  0
  -24.7443  -36.1921   18.2173 C   0  0  0  0  0  0  0  0  0  0  0  0
  -25.1566  -29.1102   20.1037 C   0  0  0  0  0  0  0  0  0  0  0  0
  -25.3270  -34.9106   18.2419 C   0  0  0  0  0  0  0  0  0  0  0  0
  -25.9692  -28.8632   21.2194 C   0  0  0  0  0  0  0  0  0  0  0  0
  -28.5103  -20.4241   21.0018 C   0  0  0  0  0  0  0  0  0  0  0  0
  -27.2036   -4.6634   20.6723 C   0  0  0  0  0  0  0  0  0  0  0  0
  -27.0748  -27.0727   20.0022 C   0  0  0  0  0  0  0  0  0  0  0  0
  -27.8500   -2.5927   21.5761 C   0  0  0  0  0  0  0  0  0  0  0  0
  -27.6085   -0.6822   23.5945 C   0  0  0  0  0  0  0  0  0  0  0  0
  -28.9625   -2.2416   22.3407 C   0  0  0  0  0  0  0  0  0  0  0  0
  -24.8278   -8.1504   20.9785 C   0  0  0  0  0  0  0  0  0  0  0  0
  -23.1696   -9.5637   21.2751 C   0  0  0  0  0  0  0  0  0  0  0  0
  -27.8348  -22.6103   20.0730 C   0  0  0  0  0  0  0  0  0  0  0  0
  -28.4076  -23.7523   19.6687 C   0  0  0  0  0  0  0  0  0  0  0  0
  -29.8466  -23.6271   19.8442 C   0  0  0  0  0  0  0  0  0  0  0  0
  -30.7847  -24.5373   19.5643 C   0  0  0  0  0  0  0  0  0  0  0  0
  -27.7540  -16.4992   22.4971 C   0  0  0  0  0  0  0  0  0  0  0  0
  -22.5389   -7.1700   21.6227 C   0  0  0  0  0  0  0  0  0  0  0  0
  -25.4760  -32.2052   20.7541 C   0  0  0  0  0  0  0  0  0  0  0  0
  -24.3312  -31.3148   23.6556 C   0  0  0  0  0  0  0  0  0  0  0  0
  -23.8916  -28.8368   25.9608 C   0  0  0  0  0  0  0  0  0  0  0  0
  -26.8068  -14.2535   22.0109 C   0  0  0  0  0  0  0  0  0  0  0  0
  -24.7283  -37.0798   19.4365 C   0  0  0  0  0  0  0  0  0  0  0  0
  -24.1003  -30.1800   20.1525 C   0  0  0  0  0  0  0  0  0  0  0  0
  -25.8438  -29.6689   22.4857 C   0  0  0  0  0  0  0  0  0  0  0  0
  -30.1139  -22.2450   20.4172 C   0  0  0  0  0  0  0  0  0  0  0  0
  -24.9783  -36.3275   20.7410 C   0  0  0  0  0  0  0  0  0  0  0  0
  -24.4730  -13.6422   19.1935 C   0  0  0  0  0  0  0  0  0  0  0  0
  -26.1647  -35.3803   20.5921 C   0  0  0  0  0  0  0  0  0  0  0  0
  -24.2477  -12.1405   19.3305 C   0  0  0  0  0  0  0  0  0  0  0  0
  -25.8724  -14.0598   19.6434 C   0  0  0  0  0  0  0  0  0  0  0  0
  -25.9793  -12.0967   21.1635 C   0  0  0  0  0  0  0  0  0  0  0  0
  -25.8941  -34.3223   19.5156 C   0  0  1  0  0  0  0  0  0  0  0  0
  -24.3916  -31.2605   21.1893 C   0  0  1  0  0  0  0  0  0  0  0  0
  -24.5567  -11.6808   20.7624 C   0  0  2  0  0  0  0  0  0  0  0  0
  -22.9561  -28.4211   28.2519 C   0  0  0  0  0  0  0  0  0  0  0  0
  -26.7674  -32.6719   24.8939 C   0  0  0  0  0  0  0  0  0  0  0  0
  -26.2920  -31.4324   27.0166 C   0  0  0  0  0  0  0  0  0  0  0  0
  -24.6228  -33.0559   26.1218 C   0  0  0  0  0  0  0  0  0  0  0  0
  -21.9294  -26.8754   24.9303 C   0  0  0  0  0  0  0  0  0  0  0  0
  -27.7231  -24.9563   19.1323 C   0  0  0  0  0  0  0  0  0  1  0  0
  -24.9488  -30.8400   24.9488 C   0  0  1  0  0  0  0  0  0  0  0  0
  -22.6731  -28.4072   26.7578 C   0  0  2  0  0  0  0  0  0  0  0  0
  -25.6617  -31.9860   25.7209 C   0  0  0  0  0  0  0  0  0  0  0  0
  -25.3664   -9.3509   20.7492 N   0  0  0  0  0  0  0  0  0  0  0  0
  -24.3333  -10.1897   20.9371 N   0  0  0  0  0  0  0  0  0  0  0  0
  -28.7534  -21.6860   20.5213 N   0  0  0  0  0  0  0  0  0  0  0  0
  -24.8005  -30.7077   22.4822 N   0  0  0  0  0  0  0  0  0  0  0  0
  -26.2047  -13.5338   20.9745 N   0  0  0  0  0  0  0  0  0  0  0  0
  -22.0336  -10.2573   21.5005 N   0  0  0  0  0  0  0  0  0  0  0  0
  -23.0048   -5.8482   21.6135 N   0  0  0  0  0  0  0  0  0  0  0  0
  -27.1450  -15.6221   21.6841 N   0  0  0  0  0  0  0  0  0  0  0  0
  -25.0198  -33.2900   20.0299 N   0  0  0  0  0  0  0  0  0  0  0  0
  -23.8786  -30.1904   25.6979 N   0  0  0  0  0  0  0  0  0  0  0  0
  -28.1357  -16.2307   23.7456 N   0  3  0  0  0  0  0  0  0  0  0  0
  -22.2606  -27.0285   26.3704 N   0  3  0  0  0  0  0  0  0  0  0  0
  -21.3330   -7.3941   21.8856 O   0  0  0  0  0  0  0  0  0  0  0  0
  -26.6402  -31.9682   21.0544 O   0  0  0  0  0  0  0  0  0  0  0  0
  -23.4594  -32.1869   23.6862 O   0  0  0  0  0  0  0  0  0  0  0  0
  -24.7691  -28.0511   25.6099 O   0  0  0  0  0  0  0  0  0  0  0  0
  -27.0826  -13.8106   23.1207 O   0  0  0  0  0  0  0  0  0  0  0  0
  -27.9681   -3.5415   20.5743 O   0  0  0  0  0  0  0  0  0  0  0  0
  -28.0111  -26.0863   19.9548 O   0  0  0  0  0  0  0  0  0  1  0  0
  -27.4920    0.2341   24.5646 F   0  0  0  0  0  0  0  0  0  0  0  0
  -30.1497   -2.8194   22.1112 F   0  0  0  0  0  0  0  0  0  0  0  0
  1  2  1  0  0  0  0
  1  7  2  0  0  0  0
  2  8  2  0  0  0  0
  3 12  2  0  0  0  0
  3 19  1  0  0  0  0
  4 13  1  0  0  0  0
  4 19  2  0  0  0  0
  5 10  2  0  0  0  0
  5 20  1  0  0  0  0
  6 11  1  0  0  0  0
  6 20  2  0  0  0  0
  7 22  1  0  0  0  0
  8 24  1  0  0  0  0
  9 14  2  0  0  0  0
  9 23  1  0  0  0  0
 10 26  1  0  0  0  0
 11 26  2  0  0  0  0
 12 27  1  0  0  0  0
 13 27  2  0  0  0  0
 14 28  1  0  0  0  0
 15 16  2  0  0  0  0
 15 29  1  0  0  0  0
 16 30  1  0  0  0  0
 17 25  1  0  0  0  0
 17 28  2  0  0  0  0
 18 30  2  0  0  0  0
 18 31  1  0  0  0  0
 19 32  1  0  0  0  0
 20 38  1  0  0  0  0
 21 32  1  0  0  0  0
 21 33  2  0  0  0  0
 21 39  1  0  0  0  0
 22 24  2  0  0  0  0
 22 44  1  0  0  0  0
 23 25  2  0  0  0  0
 23 45  1  0  0  0  0
 24 54  1  0  0  0  0
 25 46  1  0  0  0  0
 26 68  1  0  0  0  0
 27 83  1  0  0  0  0
 28 84  1  0  0  0  0
 29 31  2  0  0  0  0
 29 83  1  0  0  0  0
 30 85  1  0  0  0  0
 31 86  1  0  0  0  0
 32 66  2  0  0  0  0
 33 67  1  0  0  0  0
 33 71  1  0  0  0  0
 34 35  2  0  0  0  0
 34 68  1  0  0  0  0
 35 36  1  0  0  0  0
 35 62  1  0  0  0  0
 36 37  2  0  0  0  0
 36 47  1  0  0  0  0
 38 73  1  0  0  0  0
 38 76  2  0  0  0  0
 39 72  1  0  0  0  0
 39 78  2  0  0  0  0
 40 55  1  0  0  0  0
 40 74  1  0  0  0  0
 40 79  2  0  0  0  0
 41 63  1  0  0  0  0
 41 69  1  0  0  0  0
 41 80  2  0  0  0  0
 42 64  1  0  0  0  0
 42 75  1  0  0  0  0
 42 81  2  0  0  0  0
 43 70  1  0  0  0  0
 43 73  1  0  0  0  0
 43 82  2  0  0  0  0
 44 48  1  0  0  0  0
 45 55  1  0  0  0  0
 46 69  1  0  0  0  0
 47 68  1  0  0  0  0
 48 50  1  0  0  0  0
 49 51  1  0  0  0  0
 49 52  1  0  0  0  0
 50 54  1  0  0  0  0
 51 56  1  0  0  0  0
 52 70  1  0  0  0  0
 53 56  1  0  0  0  0
 53 70  1  0  0  0  0
 54 74  1  0  0  0  0
 55 69  1  0  0  0  0
 56 67  1  0  0  0  0
 57 64  1  0  0  0  0
 58 65  1  0  0  0  0
 59 65  1  0  0  0  0
 60 65  1  0  0  0  0
 61 77  1  0  0  0  0
 62 84  1  0  0  0  0
 63 65  1  0  0  0  0
 63 75  1  0  0  0  0
 64 77  1  0  0  0  0
 66 67  1  0  0  0  0
M  CHG  2  76   1  77   1
M  ISO  4  43 100  62 101  73 100  84 101
M  END
> <Batch ID>
0078

> <Smiles>
C=C1CN(c2ccc(C(=N)[100NH:0][100C:0](=O)N3CCCC(n4nc(-c5ccc(Oc6ccc(F)cc6F)cc5)c(C(N)=O)c4N)C3)cc2)C=C1[101CH2:1][101O:1]c1ccc2c(c1)CN(C(=O)C(NC(=O)C(C)NC)C(C)(C)C)C(C(=O)NC1CCCc3ccccc31)C2

> <Shape>
0.225

> <Color>
0.102

> <Negative vol penalty>
0.000

$$$$

  -OEChem-04042323563D

 88 97  0     1  0  0  0  0  0999 V2000
  -17.7210  -24.5039   21.9431 C   0  0  0  0  0  0  0  0  0  0  0  0
  -19.0000  -24.4209   21.4020 C   0  0  0  0  0  0  0  0  0  0  0  0
  -28.0801  -21.3115   12.7473 C   0  0  0  0  0  0  0  0  0  0  0  0
  -26.7721  -21.7903   12.8207 C   0  0  0  0  0  0  0  0  0  0  0  0
  -26.2678  -14.0515   20.4042 C   0  0  0  0  0  0  0  0  0  0  0  0
  -23.8527  -14.0710   20.3383 C   0  0  0  0  0  0  0  0  0  0  0  0
  -17.3522  -25.6225   22.6891 C   0  0  0  0  0  0  0  0  0  0  0  0
  -19.9106  -25.4571   21.6058 C   0  0  0  0  0  0  0  0  0  0  0  0
  -24.5194  -23.7745   22.8601 C   0  0  0  0  0  0  0  0  0  0  0  0
  -28.6501  -20.6684   13.8461 C   0  0  0  0  0  0  0  0  0  0  0  0
  -26.0341  -21.6263   13.9930 C   0  0  0  0  0  0  0  0  0  0  0  0
  -26.2626  -12.6735   20.1882 C   0  0  0  0  0  0  0  0  0  0  0  0
  -23.8475  -12.6930   20.1222 C   0  0  0  0  0  0  0  0  0  0  0  0
  -25.3200  -23.2832   21.8299 C   0  0  0  0  0  0  0  0  0  0  0  0
  -24.2220   -9.8813   21.9621 C   0  0  0  0  0  0  0  0  0  0  0  0
  -23.3231   -9.1127   22.7016 C   0  0  0  0  0  0  0  0  0  0  0  0
  -26.5092  -25.3809   21.7618 C   0  0  0  0  0  0  0  0  0  0  0  0
  -22.2872   -8.3548   20.6547 C   0  0  0  0  0  0  0  0  0  0  0  0
  -25.0628  -14.7503   20.4793 C   0  0  0  0  0  0  0  0  0  0  0  0
  -25.6035  -16.8584   21.8101 C   0  0  0  0  0  0  0  0  0  0  0  0
  -18.2619  -26.6685   22.9102 C   0  0  0  0  0  0  0  0  0  0  0  0
  -24.7008  -25.0788   23.3423 C   0  0  0  0  0  0  0  0  0  0  0  0
  -19.5532  -26.5914   22.3543 C   0  0  0  0  0  0  0  0  0  0  0  0
  -25.7112  -25.8855   22.7999 C   0  0  0  0  0  0  0  0  0  0  0  0
  -27.9121  -20.5044   15.0183 C   0  0  0  0  0  0  0  0  0  0  0  0
  -26.6041  -20.9833   15.0918 C   0  0  0  0  0  0  0  0  0  0  0  0
  -25.0525  -11.9942   20.0471 C   0  0  0  0  0  0  0  0  0  0  0  0
  -26.3132  -24.0874   21.2786 C   0  0  0  0  0  0  0  0  0  0  0  0
  -24.1534   -9.8867   20.5689 C   0  0  0  0  0  0  0  0  0  0  0  0
  -22.3557   -8.3495   22.0479 C   0  0  0  0  0  0  0  0  0  0  0  0
  -23.1861   -9.1234   19.9152 C   0  0  0  0  0  0  0  0  0  0  0  0
  -25.0675  -16.1736   20.7030 C   0  0  0  0  0  0  0  0  0  0  0  0
  -25.3562  -18.1835   21.5468 C   0  0  0  0  0  0  0  0  0  0  0  0
  -29.7307  -18.4891   18.3009 C   0  0  0  0  0  0  0  0  0  0  0  0
  -29.3558  -19.8928   18.4115 C   0  0  0  0  0  0  0  0  0  0  0  0
  -30.6988  -17.9222   19.0370 C   0  0  0  0  0  0  0  0  0  0  0  0
  -29.0852  -20.4790   19.5891 C   0  0  0  0  0  0  0  0  0  0  0  0
  -26.2658  -16.3428   22.9725 C   0  0  0  0  0  0  0  0  0  0  0  0
  -28.7056  -21.9171   19.6583 C   0  0  0  0  0  0  0  0  0  0  0  0
  -22.8989  -27.6943   23.4688 C   0  0  0  0  0  0  0  0  0  0  0  0
  -25.3929  -28.8575   25.1863 C   0  0  0  0  0  0  0  0  0  0  0  0
  -28.9946  -28.7350   25.0127 C   0  0  0  0  0  0  0  0  0  0  0  0
  -24.5254  -21.2546   16.4888 C   0  0  0  0  0  0  0  0  0  0  0  0
  -17.8021  -27.8791   23.6835 C   0  0  0  0  0  0  0  0  0  0  0  0
  -23.8465  -25.5845   24.4722 C   0  0  0  0  0  0  0  0  0  0  0  0
  -25.9599  -27.2858   23.2958 C   0  0  0  0  0  0  0  0  0  0  0  0
  -28.9614  -17.7266   17.2557 C   0  0  0  0  0  0  0  0  0  0  0  0
  -29.2461  -20.6442   17.1037 C   0  0  0  0  0  0  0  0  0  0  0  0
  -18.9481  -28.7634   24.1685 C   0  0  0  0  0  0  0  0  0  0  0  0
  -22.2744  -21.0311   19.2384 C   0  0  0  0  0  0  0  0  0  0  0  0
  -19.9508  -29.0021   23.0441 C   0  0  0  0  0  0  0  0  0  0  0  0
  -22.7877  -19.8261   20.0301 C   0  0  0  0  0  0  0  0  0  0  0  0
  -28.9385  -18.4636   15.9160 C   0  0  0  0  0  0  0  0  0  0  0  0
  -22.4175  -20.8226   17.7318 C   0  0  0  0  0  0  0  0  0  0  0  0
  -24.2778  -19.2440   18.0736 C   0  0  0  0  0  0  0  0  0  0  0  0
  -20.5772  -27.6836   22.5743 C   0  0  1  0  0  0  0  0  0  0  0  0
  -23.7795  -27.1073   24.5354 C   0  0  1  0  0  0  0  0  0  0  0  0
  -24.2143  -19.4341   19.5979 C   0  0  2  0  0  0  0  0  0  0  0  0
  -30.7226  -28.9248   26.8225 C   0  0  0  0  0  0  0  0  0  0  0  0
  -25.4311  -31.8156   24.4394 C   0  0  0  0  0  0  0  0  0  0  0  0
  -27.9097  -31.8011   24.7922 C   0  0  0  0  0  0  0  0  0  0  0  0
  -26.3778  -31.2969   26.6953 C   0  0  0  0  0  0  0  0  0  0  0  0
  -30.2315  -26.1530   24.2628 C   0  0  0  0  0  0  0  0  0  0  0  0
  -27.3433  -22.2054   20.2526 C   0  0  0  0  0  0  0  0  0  1  0  0
  -26.6709  -29.5892   24.8542 C   0  0  1  0  0  0  0  0  0  0  0  0
  -29.9239  -27.9759   25.9425 C   0  0  2  0  0  0  0  0  0  0  0  0
  -26.5853  -31.1077   25.1768 C   0  0  0  0  0  0  0  0  0  0  0  0
  -24.5208  -16.9958   19.8035 N   0  0  0  0  0  0  0  0  0  0  0  0
  -24.7119  -18.2109   20.3450 N   0  0  0  0  0  0  0  0  0  0  0  0
  -28.5045  -19.8557   16.1090 N   0  0  2  0  0  0  0  0  0  0  0  0
  -25.0944  -27.7371   24.3980 N   0  0  0  0  0  0  0  0  0  0  0  0
  -23.7957  -20.4580   17.3964 N   0  0  0  0  0  0  0  0  0  0  0  0
  -25.6291  -19.3164   22.2284 N   0  0  0  0  0  0  0  0  0  0  0  0
  -25.4904  -16.0151   24.0931 N   0  0  0  0  0  0  0  0  0  0  0  0
  -25.8355  -20.8289   16.2721 N   0  0  0  0  0  0  0  0  0  0  0  0
  -21.5926  -27.2456   23.5078 N   0  0  0  0  0  0  0  0  0  0  0  0
  -27.7380  -28.8877   25.5595 N   0  0  0  0  0  0  0  0  0  0  0  0
  -30.8806  -27.1473   25.1555 N   0  3  0  0  0  0  0  0  0  0  0  0
  -27.5102  -16.1929   23.0219 O   0  0  0  0  0  0  0  0  0  0  0  0
  -29.4517  -22.8065   19.2578 O   0  0  0  0  0  0  0  0  0  0  0  0
  -23.3695  -28.4962   22.6705 O   0  0  0  0  0  0  0  0  0  0  0  0
  -24.6892  -29.2608   26.1157 O   0  0  0  0  0  0  0  0  0  0  0  0
  -29.3491  -29.1541   23.9130 O   0  0  0  0  0  0  0  0  0  0  0  0
  -24.0337  -22.2574   15.9648 O   0  0  0  0  0  0  0  0  0  0  0  0
  -25.0471  -10.6496   19.8360 O   0  0  0  0  0  0  0  0  0  0  0  0
  -27.0956  -23.6106   20.2725 O   0  0  0  0  0  0  0  0  0  1  0  0
  -21.4936   -7.6103   22.7582 F   0  0  0  0  0  0  0  0  0  0  0  0
  -23.1161   -9.1237   18.5770 F   0  0  0  0  0  0  0  0  0  0  0  0
  1  2  1  0  0  0  0
  1  7  2  0  0  0  0
  2  8  2  0  0  0  0
  3  4  1  0  0  0  0
  3 10  2  0  0  0  0
  4 11  2  0  0  0  0
  5 12  2  0  0  0  0
  5 19  1  0  0  0  0
  6 13  1  0  0  0  0
  6 19  2  0  0  0  0
  7 21  1  0  0  0  0
  8 23  1  0  0  0  0
  9 14  2  0  0  0  0
  9 22  1  0  0  0  0
 10 25  1  0  0  0  0
 11 26  1  0  0  0  0
 12 27  1  0  0  0  0
 13 27  2  0  0  0  0
 14 28  1  0  0  0  0
 15 16  2  0  0  0  0
 15 29  1  0  0  0  0
 16 30  1  0  0  0  0
 17 24  1  0  0  0  0
 17 28  2  0  0  0  0
 18 30  2  0  0  0  0
 18 31  1  0  0  0  0
 19 32  1  0  0  0  0
 20 32  1  0  0  0  0
 20 33  2  0  0  0  0
 20 38  1  0  0  0  0
 21 23  2  0  0  0  0
 21 44  1  0  0  0  0
 22 24  2  0  0  0  0
 22 45  1  0  0  0  0
 23 56  1  0  0  0  0
 24 46  1  0  0  0  0
 25 26  2  0  0  0  0
 25 70  1  0  0  0  0
 26 75  1  0  0  0  0
 27 85  1  0  0  0  0
 28 86  1  0  0  0  0
 29 31  2  0  0  0  0
 29 85  1  0  0  0  0
 30 87  1  0  0  0  0
 31 88  1  0  0  0  0
 32 68  2  0  0  0  0
 33 69  1  0  0  0  0
 33 73  1  0  0  0  0
 34 35  1  0  0  0  0
 34 36  2  0  0  0  0
 34 47  1  0  0  0  0
 35 37  2  0  0  0  0
 35 48  1  0  0  0  0
 37 39  1  0  0  0  0
 38 74  1  0  0  0  0
 38 79  2  0  0  0  0
 39 64  1  0  0  0  0
 39 80  2  0  0  0  0
 40 57  1  0  0  0  0
 40 76  1  0  0  0  0
 40 81  2  0  0  0  0
 41 65  1  0  0  0  0
 41 71  1  0  0  0  0
 41 82  2  0  0  0  0
 42 66  1  0  0  0  0
 42 77  1  0  0  0  0
 42 83  2  0  0  0  0
 43 72  1  0  0  0  0
 43 75  1  0  0  0  0
 43 84  2  0  0  0  0
 44 49  1  0  0  0  0
 45 57  1  0  0  0  0
 46 71  1  0  0  0  0
 47 53  1  0  0  0  0
 48 70  1  0  0  0  0
 49 51  1  0  0  0  0
 50 52  1  0  0  0  0
 50 54  1  0  0  0  0
 51 56  1  0  0  0  0
 52 58  1  0  0  0  0
 53 70  1  0  0  0  0
 54 72  1  0  0  0  0
 55 58  1  0  0  0  0
 55 72  1  0  0  0  0
 56 76  1  0  0  0  0
 57 71  1  0  0  0  0
 58 69  1  0  0  0  0
 59 66  1  0  0  0  0
 60 67  1  0  0  0  0
 61 67  1  0  0  0  0
 62 67  1  0  0  0  0
 63 78  1  0  0  0  0
 64 86  1  0  0  0  0
 65 67  1  0  0  0  0
 65 77  1  0  0  0  0
 66 78  1  0  0  0  0
 68 69  1  0  0  0  0
M  CHG  1  78   1
M  ISO  4  43 100  64 101  75 100  86 101
M  END
> <Batch ID>
0078

> <Smiles>
C=C1CCN(c2ccccc2[100NH:0][100C:0](=O)N2CCCC(n3nc(-c4ccc(Oc5ccc(F)cc5F)cc4)c(C(N)=O)c3N)C2)CC1=CC(=O)[101CH2:1][101O:1]c1ccc2c(c1)CN(C(=O)C(NC(=O)C(C)NC)C(C)(C)C)C(C(=O)NC1CCCc3ccccc31)C2

> <Shape>
0.203

> <Color>
0.088

> <Negative vol penalty>
0.000

$$$$

  -OEChem-04042323563D

 86 95  0     1  0  0  0  0  0999 V2000
  -16.8315  -28.9645   24.2051 C   0  0  0  0  0  0  0  0  0  0  0  0
  -17.1971  -28.1780   23.1174 C   0  0  0  0  0  0  0  0  0  0  0  0
  -26.8638  -18.3159   18.9684 C   0  0  0  0  0  0  0  0  0  0  0  0
  -27.0750  -18.4842   21.3693 C   0  0  0  0  0  0  0  0  0  0  0  0
  -17.6111  -30.0639   24.5623 C   0  0  0  0  0  0  0  0  0  0  0  0
  -18.3420  -28.4912   22.3855 C   0  0  0  0  0  0  0  0  0  0  0  0
  -22.1913  -24.5522   19.7072 C   0  0  0  0  0  0  0  0  0  0  0  0
  -26.1457  -17.1292   19.1148 C   0  0  0  0  0  0  0  0  0  0  0  0
  -26.3567  -17.2974   21.5156 C   0  0  0  0  0  0  0  0  0  0  0  0
  -22.3101  -24.1039   18.3924 C   0  0  0  0  0  0  0  0  0  0  0  0
  -26.8137  -13.8741   19.7335 C   0  0  0  0  0  0  0  0  0  0  0  0
  -27.1498  -12.8072   18.9003 C   0  0  0  0  0  0  0  0  0  0  0  0
  -31.6456  -27.5476   15.0526 C   0  0  0  0  0  0  0  0  0  0  0  0
  -30.3236  -27.9080   14.6620 C   0  0  0  0  0  0  0  0  0  0  0  0
  -24.0139  -25.7629   17.9872 C   0  0  0  0  0  0  0  0  0  0  0  0
  -24.9045  -12.7965   18.0083 C   0  0  0  0  0  0  0  0  0  0  0  0
  -27.3285  -18.9934   20.0957 C   0  0  0  0  0  0  0  0  0  0  0  0
  -27.5523  -21.5270   19.8994 C   0  0  0  0  0  0  0  0  0  0  0  0
  -18.7713  -30.3850   23.8403 C   0  0  0  0  0  0  0  0  0  0  0  0
  -22.9765  -25.6181   20.1695 C   0  0  0  0  0  0  0  0  0  0  0  0
  -19.1370  -29.5967   22.7325 C   0  0  0  0  0  0  0  0  0  0  0  0
  -23.9050  -26.2210   19.3090 C   0  0  0  0  0  0  0  0  0  0  0  0
  -25.8921  -16.6199   20.3883 C   0  0  0  0  0  0  0  0  0  0  0  0
  -23.2194  -24.7112   17.5313 C   0  0  0  0  0  0  0  0  0  0  0  0
  -25.5230  -14.4023   19.7042 C   0  0  0  0  0  0  0  0  0  0  0  0
  -26.1952  -12.2684   18.0377 C   0  0  0  0  0  0  0  0  0  0  0  0
  -24.5684  -13.8635   18.8416 C   0  0  0  0  0  0  0  0  0  0  0  0
  -28.0710  -20.2191   19.9452 C   0  0  0  0  0  0  0  0  0  0  0  0
  -31.6814  -26.3295   15.6950 C   0  0  0  0  0  0  0  0  0  0  0  0
  -28.6567  -22.3292   19.7469 C   0  0  0  0  0  0  0  0  0  0  0  0
  -29.3993  -26.9514   15.0206 C   0  0  0  0  0  0  0  0  0  0  0  0
  -25.9621  -27.7139   14.0994 C   0  0  0  0  0  0  0  0  0  0  0  0
  -25.8080  -26.4273   14.7523 C   0  0  0  0  0  0  0  0  0  0  0  0
  -25.0043  -28.4739   13.5538 C   0  0  0  0  0  0  0  0  0  0  0  0
  -24.6781  -25.7373   14.9429 C   0  0  0  0  0  0  0  0  0  0  0  0
  -26.1936  -21.9766   19.9869 C   0  0  0  0  0  0  0  0  0  0  0  0
  -32.8518  -25.6041   16.2524 C   0  0  0  0  0  0  0  0  0  0  0  0
  -22.3693  -28.5275   21.2965 C   0  0  0  0  0  0  0  0  0  0  0  0
  -25.5678  -28.5621   21.8354 C   0  0  0  0  0  0  0  0  0  0  0  0
  -28.6547  -27.3489   21.0313 C   0  0  0  0  0  0  0  0  0  0  0  0
  -33.5311  -23.5172   17.3958 C   0  0  0  0  0  0  0  0  0  0  0  0
  -19.5561  -31.6109   24.2353 C   0  0  0  0  0  0  0  0  0  0  0  0
  -22.8553  -26.0722   21.5983 C   0  0  0  0  0  0  0  0  0  0  0  0
  -24.7857  -27.3557   19.7622 C   0  0  0  0  0  0  0  0  0  0  0  0
  -27.4130  -28.1009   14.1148 C   0  0  0  0  0  0  0  0  0  0  0  0
  -27.1548  -25.9447   15.2088 C   0  0  0  0  0  0  0  0  0  0  0  0
  -20.9598  -31.6544   23.6370 C   0  0  0  0  0  0  0  0  0  0  0  0
  -33.5919  -21.2484   20.1061 C   0  0  0  0  0  0  0  0  0  0  0  0
  -20.9178  -31.3104   22.1515 C   0  0  0  0  0  0  0  0  0  0  0  0
  -32.1174  -20.8897   20.3100 C   0  0  0  0  0  0  0  0  0  0  0  0
  -33.9386  -21.4039   18.6260 C   0  0  0  0  0  0  0  0  0  0  0  0
  -31.6044  -21.9626   18.0806 C   0  0  0  0  0  0  0  0  0  0  0  0
  -20.3855  -29.8896   21.9290 C   0  0  1  0  0  0  0  0  0  0  0  0
  -23.3391  -27.5030   21.8136 C   0  0  1  0  0  0  0  0  0  0  0  0
  -31.1890  -21.8640   19.5574 C   0  0  1  0  0  0  0  0  0  0  0  0
  -31.1339  -26.9977   21.1963 C   0  0  0  0  0  0  0  0  0  0  0  0
  -25.6769  -31.1790   20.2703 C   0  0  0  0  0  0  0  0  0  0  0  0
  -28.1543  -30.8765   20.0724 C   0  0  0  0  0  0  0  0  0  0  0  0
  -27.1063  -31.1301   22.3219 C   0  0  0  0  0  0  0  0  0  0  0  0
  -28.3267  -25.0977   22.9243 C   0  0  0  0  0  0  0  0  0  0  0  0
  -24.6159  -24.4133   15.6295 C   0  0  0  0  0  0  0  0  0  1  0  0
  -26.7818  -28.9758   21.0391 C   0  0  1  0  0  0  0  0  0  0  0  0
  -29.7931  -26.8388   21.8962 C   0  0  2  0  0  0  0  0  0  0  0  0
  -26.9120  -30.5203   20.9165 C   0  0  0  0  0  0  0  0  0  0  0  0
  -29.4014  -20.1877   19.8309 N   0  0  0  0  0  0  0  0  0  0  0  0
  -29.7280  -21.4859   19.7116 N   0  0  0  0  0  0  0  0  0  0  0  0
  -28.0779  -26.9953   14.7950 N   0  0  3  0  0  0  0  0  0  0  0  0
  -24.6257  -27.7680   21.1664 N   0  0  0  0  0  0  0  0  0  0  0  0
  -33.0204  -22.3492   17.9886 N   0  0  0  0  0  0  0  0  0  0  0  0
  -28.8062  -23.6667   19.6407 N   0  0  0  0  0  0  0  0  0  0  0  0
  -25.1818  -21.0193   20.1422 N   0  0  0  0  0  0  0  0  0  0  0  0
  -32.5697  -24.3762   16.8517 N   0  0  0  0  0  0  0  0  0  0  0  0
  -21.4143  -28.9135   22.2176 N   0  0  0  0  0  0  0  0  0  0  0  0
  -27.9255  -28.3281   21.6722 N   0  0  0  0  0  0  0  0  0  0  0  0
  -29.5965  -25.3959   22.2132 N   0  3  0  0  0  0  0  0  0  0  0  0
  -25.8846  -23.1901   19.9126 O   0  0  0  0  0  0  0  0  0  0  0  0
  -33.9725  -26.0893   16.1244 O   0  0  0  0  0  0  0  0  0  0  0  0
  -22.4802  -28.9387   20.1474 O   0  0  0  0  0  0  0  0  0  0  0  0
  -25.4630  -28.9240   23.0100 O   0  0  0  0  0  0  0  0  0  0  0  0
  -28.4365  -26.9241   19.8988 O   0  0  0  0  0  0  0  0  0  0  0  0
  -34.7354  -23.7906   17.3854 O   0  0  0  0  0  0  0  0  0  0  0  0
  -25.1911  -15.4620   20.5315 O   0  0  0  0  0  0  0  0  0  0  0  0
  -23.3369  -24.2761   16.2473 O   0  0  0  0  0  0  0  0  0  1  0  0
  -26.5186  -11.2448   17.2365 F   0  0  0  0  0  0  0  0  0  0  0  0
  -23.3271  -14.3674   18.8081 F   0  0  0  0  0  0  0  0  0  0  0  0
  -30.1257  -25.6257   15.8250 S   0  0  0  0  0  0  0  0  0  0  0  0
  1  2  1  0  0  0  0
  1  5  2  0  0  0  0
  2  6  2  0  0  0  0
  3  8  2  0  0  0  0
  3 17  1  0  0  0  0
  4  9  1  0  0  0  0
  4 17  2  0  0  0  0
  5 19  1  0  0  0  0
  6 21  1  0  0  0  0
  7 10  2  0  0  0  0
  7 20  1  0  0  0  0
  8 23  1  0  0  0  0
  9 23  2  0  0  0  0
 10 24  1  0  0  0  0
 11 12  2  0  0  0  0
 11 25  1  0  0  0  0
 12 26  1  0  0  0  0
 13 14  1  0  0  0  0
 13 29  2  0  0  0  0
 14 31  2  0  0  0  0
 15 22  1  0  0  0  0
 15 24  2  0  0  0  0
 16 26  2  0  0  0  0
 16 27  1  0  0  0  0
 17 28  1  0  0  0  0
 18 28  1  0  0  0  0
 18 30  2  0  0  0  0
 18 36  1  0  0  0  0
 19 21  2  0  0  0  0
 19 42  1  0  0  0  0
 20 22  2  0  0  0  0
 20 43  1  0  0  0  0
 21 53  1  0  0  0  0
 22 44  1  0  0  0  0
 23 82  1  0  0  0  0
 24 83  1  0  0  0  0
 25 27  2  0  0  0  0
 25 82  1  0  0  0  0
 26 84  1  0  0  0  0
 27 85  1  0  0  0  0
 28 65  2  0  0  0  0
 29 37  1  0  0  0  0
 29 86  1  0  0  0  0
 30 66  1  0  0  0  0
 30 70  1  0  0  0  0
 31 67  1  0  0  0  0
 31 86  1  0  0  0  0
 32 33  1  0  0  0  0
 32 34  2  0  0  0  0
 32 45  1  0  0  0  0
 33 35  2  0  0  0  0
 33 46  1  0  0  0  0
 35 61  1  0  0  0  0
 36 71  1  0  0  0  0
 36 76  2  0  0  0  0
 37 72  1  0  0  0  0
 37 77  2  0  0  0  0
 38 54  1  0  0  0  0
 38 73  1  0  0  0  0
 38 78  2  0  0  0  0
 39 62  1  0  0  0  0
 39 68  1  0  0  0  0
 39 79  2  0  0  0  0
 40 63  1  0  0  0  0
 40 74  1  0  0  0  0
 40 80  2  0  0  0  0
 41 69  1  0  0  0  0
 41 72  1  0  0  0  0
 41 81  2  0  0  0  0
 42 47  1  0  0  0  0
 43 54  1  0  0  0  0
 44 68  1  0  0  0  0
 45 67  1  0  0  0  0
 46 67  1  0  0  0  0
 47 49  1  0  0  0  0
 48 50  1  0  0  0  0
 48 51  1  0  0  0  0
 49 53  1  0  0  0  0
 50 55  1  0  0  0  0
 51 69  1  0  0  0  0
 52 55  1  0  0  0  0
 52 69  1  0  0  0  0
 53 73  1  0  0  0  0
 54 68  1  0  0  0  0
 55 66  1  0  0  0  0
 56 63  1  0  0  0  0
 57 64  1  0  0  0  0
 58 64  1  0  0  0  0
 59 64  1  0  0  0  0
 60 75  1  0  0  0  0
 61 83  1  0  0  0  0
 62 64  1  0  0  0  0
 62 74  1  0  0  0  0
 63 75  1  0  0  0  0
 65 66  1  0  0  0  0
M  CHG  1  75   1
M  ISO  4  41 100  61 101  72 100  83 101
M  END
> <Batch ID>
0078

> <Smiles>
C=C1CN(c2ccc(C(=O)[100NH:0][100C:0](=O)N3CCCC(n4nc(-c5ccc(Oc6ccc(F)cc6F)cc5)c(C(N)=O)c4N)C3)s2)CC1=C[101CH2:1][101O:1]c1ccc2c(c1)CN(C(=O)C(NC(=O)C(C)NC)C(C)(C)C)C(C(=O)NC1CCCc3ccccc31)C2

> <Shape>
0.194

> <Color>
0.096

> <Negative vol penalty>
0.000

$$$$

  -OEChem-04042323563D

 88 97  0     1  0  0  0  0  0999 V2000
  -22.6711   -7.9372   22.8747 C   0  0  0  0  0  0  0  0  0  0  0  0
  -23.7099   -8.8265   22.6189 C   0  0  0  0  0  0  0  0  0  0  0  0
  -32.5908  -23.3836   20.6519 C   0  0  0  0  0  0  0  0  0  0  0  0
  -22.2797  -28.3306   20.8663 C   0  0  0  0  0  0  0  0  0  0  0  0
  -23.4913  -27.3951   22.7355 C   0  0  0  0  0  0  0  0  0  0  0  0
  -21.3692   -8.2599   22.4943 C   0  0  0  0  0  0  0  0  0  0  0  0
  -23.4475  -10.0386   21.9815 C   0  0  0  0  0  0  0  0  0  0  0  0
  -25.8038  -13.9422   24.1850 C   0  0  0  0  0  0  0  0  0  0  0  0
  -32.7339  -22.1252   21.2362 C   0  0  0  0  0  0  0  0  0  0  0  0
  -31.3885  -23.7350   20.0381 C   0  0  0  0  0  0  0  0  0  0  0  0
  -21.0777  -28.1291   21.5446 C   0  0  0  0  0  0  0  0  0  0  0  0
  -22.2893  -27.1936   23.4138 C   0  0  0  0  0  0  0  0  0  0  0  0
  -27.1620  -14.1017   23.9134 C   0  0  0  0  0  0  0  0  0  0  0  0
  -19.3274  -29.6375   24.0132 C   0  0  0  0  0  0  0  0  0  0  0  0
  -18.3985  -30.6781   24.0092 C   0  0  0  0  0  0  0  0  0  0  0  0
  -26.6318  -15.8121   22.2970 C   0  0  0  0  0  0  0  0  0  0  0  0
  -30.4725  -21.5693   20.5926 C   0  0  0  0  0  0  0  0  0  0  0  0
  -16.7882  -29.2365   22.9295 C   0  0  0  0  0  0  0  0  0  0  0  0
  -23.4866  -27.9635   21.4617 C   0  0  0  0  0  0  0  0  0  0  0  0
  -25.5475  -29.3151   20.8034 C   0  0  0  0  0  0  0  0  0  0  0  0
  -21.0892   -9.4809   21.8606 C   0  0  0  0  0  0  0  0  0  0  0  0
  -24.8472  -14.7101   23.5056 C   0  0  0  0  0  0  0  0  0  0  0  0
  -22.1408  -10.3774   21.5911 C   0  0  0  0  0  0  0  0  0  0  0  0
  -25.2623  -15.6622   22.5637 C   0  0  0  0  0  0  0  0  0  0  0  0
  -31.6748  -21.2180   21.2065 C   0  0  0  0  0  0  0  0  0  0  0  0
  -30.3294  -22.8278   20.0084 C   0  0  0  0  0  0  0  0  0  0  0  0
  -21.0824  -27.5607   22.8183 C   0  0  0  0  0  0  0  0  0  0  0  0
  -27.5760  -15.0347   22.9672 C   0  0  0  0  0  0  0  0  0  0  0  0
  -18.9867  -28.3964   23.4752 C   0  0  0  0  0  0  0  0  0  0  0  0
  -17.1289  -30.4776   23.4674 C   0  0  0  0  0  0  0  0  0  0  0  0
  -17.7171  -28.1959   22.9334 C   0  0  0  0  0  0  0  0  0  0  0  0
  -24.7285  -28.1709   20.7613 C   0  0  0  0  0  0  0  0  0  0  0  0
  -26.5993  -29.0153   19.9727 C   0  0  0  0  0  0  0  0  0  0  0  0
  -31.4294  -17.8222   22.5394 C   0  0  0  0  0  0  0  0  0  0  0  0
  -32.7796  -18.1454   22.9268 C   0  0  0  0  0  0  0  0  0  0  0  0
  -30.8199  -18.9742   21.8182 C   0  0  0  0  0  0  0  0  0  0  0  0
  -33.6586  -17.3842   23.5874 C   0  0  0  0  0  0  0  0  0  0  0  0
  -27.6226  -22.3270   21.0549 C   0  0  0  0  0  0  0  0  0  0  0  0
  -30.7365  -16.6967   22.7441 C   0  0  0  0  0  0  0  0  0  0  0  0
  -27.8644  -22.6809   19.7908 C   0  0  0  0  0  0  0  0  0  0  0  0
  -25.3730  -30.5395   21.5287 C   0  0  0  0  0  0  0  0  0  0  0  0
  -22.4278  -14.0610   21.5488 C   0  0  0  0  0  0  0  0  0  0  0  0
  -21.8571  -17.2418   21.8300 C   0  0  0  0  0  0  0  0  0  0  0  0
  -23.0772  -20.3549   22.5136 C   0  0  0  0  0  0  0  0  0  0  0  0
  -29.1214  -23.9734   18.1861 C   0  0  0  0  0  0  0  0  0  0  0  0
  -19.6733   -9.7650   21.4255 C   0  0  0  0  0  0  0  0  0  0  0  0
  -23.3876  -14.5449   23.8293 C   0  0  0  0  0  0  0  0  0  0  0  0
  -24.2763  -16.5257   21.8215 C   0  0  0  0  0  0  0  0  0  0  0  0
  -33.0528  -19.5388   22.4469 C   0  0  0  0  0  0  0  0  0  0  0  0
  -19.4219  -11.2331   21.0913 C   0  0  0  0  0  0  0  0  0  0  0  0
  -27.7223  -26.4193   16.1248 C   0  0  0  0  0  0  0  0  0  0  0  0
  -20.5386  -11.7781   20.2066 C   0  0  0  0  0  0  0  0  0  0  0  0
  -26.8679  -27.2579   17.0749 C   0  0  0  0  0  0  0  0  0  0  0  0
  -27.6190  -24.9361   16.4612 C   0  0  0  0  0  0  0  0  0  0  0  0
  -27.1400  -25.4430   18.8355 C   0  0  0  0  0  0  0  0  0  0  0  0
  -21.8923  -11.7129   20.9240 C   0  0  1  0  0  0  0  0  0  0  0  0
  -22.4693  -15.0178   22.7066 C   0  0  1  0  0  0  0  0  0  0  0  0
  -27.2152  -26.9551   18.5431 C   0  0  2  0  0  0  0  0  0  0  0  0
  -22.3803  -22.7630   22.6250 C   0  0  0  0  0  0  0  0  0  0  0  0
  -21.8914  -17.3902   18.7826 C   0  0  0  0  0  0  0  0  0  0  0  0
  -22.1466  -19.8733   18.9758 C   0  0  0  0  0  0  0  0  0  0  0  0
  -20.1041  -18.7575   19.8735 C   0  0  0  0  0  0  0  0  0  0  0  0
  -23.7468  -20.5360   25.3907 C   0  0  0  0  0  0  0  0  0  0  0  0
  -29.3308  -16.4885   22.2869 C   0  0  0  0  0  0  0  0  0  1  0  0
  -22.3041  -18.4779   21.0875 C   0  0  1  0  0  0  0  0  0  0  0  0
  -22.5550  -21.4683   23.4035 C   0  0  2  0  0  0  0  0  0  0  0  0
  -21.6302  -18.6073   19.6923 C   0  0  0  0  0  0  0  0  0  0  0  0
  -25.2180  -27.2155   19.9665 N   0  0  0  0  0  0  0  0  0  0  0  0
  -26.3558  -27.7588   19.5015 N   0  0  0  0  0  0  0  0  0  0  0  0
  -31.8181  -19.9631   21.7899 N   0  0  0  0  0  0  0  0  0  0  0  0
  -22.8601  -16.3224   22.1686 N   0  0  0  0  0  0  0  0  0  0  0  0
  -27.9517  -24.6904   17.8649 N   0  0  0  0  0  0  0  0  0  0  0  0
  -27.6995  -29.7066   19.6064 N   0  0  0  0  0  0  0  0  0  0  0  0
  -24.2361  -30.6818   22.3359 N   0  0  0  0  0  0  0  0  0  0  0  0
  -22.0072  -12.7885   21.8854 N   0  0  0  0  0  0  0  0  0  0  0  0
  -22.0512  -19.6040   21.9799 N   0  0  0  0  0  0  0  0  0  0  0  0
  -29.0812  -23.1932   19.3709 N   0  0  0  0  0  0  0  0  0  0  0  0
  -23.5007  -21.7197   24.5275 N   0  3  0  0  0  0  0  0  0  0  0  0
  -29.6898  -19.0170   21.3615 O   0  0  0  0  0  0  0  0  0  0  0  0
  -26.1925  -31.4860   21.4502 O   0  0  0  0  0  0  0  0  0  0  0  0
  -22.7518  -14.4489   20.4325 O   0  0  0  0  0  0  0  0  0  0  0  0
  -20.6631  -17.1007   22.1059 O   0  0  0  0  0  0  0  0  0  0  0  0
  -24.2752  -20.1720   22.3092 O   0  0  0  0  0  0  0  0  0  0  0  0
  -30.1245  -24.0057   17.4615 O   0  0  0  0  0  0  0  0  0  0  0  0
  -19.9097  -27.3641   23.4806 O   0  0  0  0  0  0  0  0  0  0  0  0
  -28.9010  -15.1919   22.6998 O   0  0  0  0  0  0  0  0  0  1  0  0
  -16.2365  -31.4765   23.4651 F   0  0  0  0  0  0  0  0  0  0  0  0
  -17.3836  -27.0055   22.4163 F   0  0  0  0  0  0  0  0  0  0  0  0
  1  2  1  0  0  0  0
  1  6  2  0  0  0  0
  2  7  2  0  0  0  0
  3  9  1  0  0  0  0
  3 10  2  0  0  0  0
  4 11  2  0  0  0  0
  4 19  1  0  0  0  0
  5 12  1  0  0  0  0
  5 19  2  0  0  0  0
  6 21  1  0  0  0  0
  7 23  1  0  0  0  0
  8 13  2  0  0  0  0
  8 22  1  0  0  0  0
  9 25  2  0  0  0  0
 10 26  1  0  0  0  0
 11 27  1  0  0  0  0
 12 27  2  0  0  0  0
 13 28  1  0  0  0  0
 14 15  2  0  0  0  0
 14 29  1  0  0  0  0
 15 30  1  0  0  0  0
 16 24  1  0  0  0  0
 16 28  2  0  0  0  0
 17 25  1  0  0  0  0
 17 26  2  0  0  0  0
 18 30  2  0  0  0  0
 18 31  1  0  0  0  0
 19 32  1  0  0  0  0
 20 32  1  0  0  0  0
 20 33  2  0  0  0  0
 20 41  1  0  0  0  0
 21 23  2  0  0  0  0
 21 46  1  0  0  0  0
 22 24  2  0  0  0  0
 22 47  1  0  0  0  0
 23 56  1  0  0  0  0
 24 48  1  0  0  0  0
 25 70  1  0  0  0  0
 26 77  1  0  0  0  0
 27 85  1  0  0  0  0
 28 86  1  0  0  0  0
 29 31  2  0  0  0  0
 29 85  1  0  0  0  0
 30 87  1  0  0  0  0
 31 88  1  0  0  0  0
 32 68  2  0  0  0  0
 33 69  1  0  0  0  0
 33 73  1  0  0  0  0
 34 35  1  0  0  0  0
 34 36  1  0  0  0  0
 34 39  2  0  0  0  0
 35 37  2  0  0  0  0
 35 49  1  0  0  0  0
 36 70  1  0  0  0  0
 36 79  2  0  0  0  0
 38 40  2  0  0  0  0
 39 64  1  0  0  0  0
 40 77  1  0  0  0  0
 41 74  1  0  0  0  0
 41 80  2  0  0  0  0
 42 57  1  0  0  0  0
 42 75  1  0  0  0  0
 42 81  2  0  0  0  0
 43 65  1  0  0  0  0
 43 71  1  0  0  0  0
 43 82  2  0  0  0  0
 44 66  1  0  0  0  0
 44 76  1  0  0  0  0
 44 83  2  0  0  0  0
 45 72  1  0  0  0  0
 45 77  1  0  0  0  0
 45 84  2  0  0  0  0
 46 50  1  0  0  0  0
 47 57  1  0  0  0  0
 48 71  1  0  0  0  0
 49 70  1  0  0  0  0
 50 52  1  0  0  0  0
 51 53  1  0  0  0  0
 51 54  1  0  0  0  0
 52 56  1  0  0  0  0
 53 58  1  0  0  0  0
 54 72  1  0  0  0  0
 55 58  1  0  0  0  0
 55 72  1  0  0  0  0
 56 75  1  0  0  0  0
 57 71  1  0  0  0  0
 58 69  1  0  0  0  0
 59 66  1  0  0  0  0
 60 67  1  0  0  0  0
 61 67  1  0  0  0  0
 62 67  1  0  0  0  0
 63 78  1  0  0  0  0
 64 86  1  0  0  0  0
 65 67  1  0  0  0  0
 65 76  1  0  0  0  0
 66 78  1  0  0  0  0
 68 69  1  0  0  0  0
M  CHG  1  78   1
M  ISO  4  45 100  64 101  77 100  86 101
M  END
> <Batch ID>
0078

> <Smiles>
C=C[100N:0](c1cccc(N2CC(=C)C(=C[101CH2:1][101O:1]c3ccc4c(c3)CN(C(=O)C(NC(=O)C(C)NC)C(C)(C)C)C(C(=O)NC3CCCc5ccccc53)C4)C2=O)c1)[100C:0](=O)N1CCCC(n2nc(-c3ccc(Oc4ccc(F)cc4F)cc3)c(C(N)=O)c2N)C1

> <Shape>
0.229

> <Color>
0.076

> <Negative vol penalty>
0.000

$$$$

  -OEChem-04042323563D

 86 95  0     1  0  0  0  0  0999 V2000
  -16.8409  -28.3541   23.9409 C   0  0  0  0  0  0  0  0  0  0  0  0
  -17.9643  -27.6955   23.4514 C   0  0  0  0  0  0  0  0  0  0  0  0
  -22.8655  -10.1840   20.0675 C   0  0  0  0  0  0  0  0  0  0  0  0
  -23.7650   -9.8891   22.2904 C   0  0  0  0  0  0  0  0  0  0  0  0
  -29.1796  -19.5447   18.0643 C   0  0  0  0  0  0  0  0  0  0  0  0
  -27.2804  -18.0654   18.2682 C   0  0  0  0  0  0  0  0  0  0  0  0
  -16.6284  -29.6956   23.6262 C   0  0  0  0  0  0  0  0  0  0  0  0
  -18.8754  -28.3778   22.6460 C   0  0  0  0  0  0  0  0  0  0  0  0
  -23.6831  -27.4737   23.9552 C   0  0  0  0  0  0  0  0  0  0  0  0
  -28.4243  -20.5882   18.5992 C   0  0  0  0  0  0  0  0  0  0  0  0
  -26.5250  -19.1089   18.8031 C   0  0  0  0  0  0  0  0  0  0  0  0
  -22.0230   -9.0898   20.2632 C   0  0  0  0  0  0  0  0  0  0  0  0
  -22.9224   -8.7949   22.4861 C   0  0  0  0  0  0  0  0  0  0  0  0
  -24.2379  -26.2625   23.5443 C   0  0  0  0  0  0  0  0  0  0  0  0
  -22.8305   -5.5322   21.6045 C   0  0  0  0  0  0  0  0  0  0  0  0
  -23.3800   -4.3856   22.1779 C   0  0  0  0  0  0  0  0  0  0  0  0
  -25.3359  -27.3922   21.7174 C   0  0  0  0  0  0  0  0  0  0  0  0
  -21.8168   -4.5539   24.0124 C   0  0  0  0  0  0  0  0  0  0  0  0
  -23.7366  -10.5837   21.0811 C   0  0  0  0  0  0  0  0  0  0  0  0
  -28.6077  -18.2833   17.8988 C   0  0  0  0  0  0  0  0  0  0  0  0
  -24.3310  -13.0629   21.1704 C   0  0  0  0  0  0  0  0  0  0  0  0
  -17.5424  -30.3974   22.8244 C   0  0  0  0  0  0  0  0  0  0  0  0
  -23.9422  -28.6534   23.2427 C   0  0  0  0  0  0  0  0  0  0  0  0
  -18.6743  -29.7296   22.3192 C   0  0  0  0  0  0  0  0  0  0  0  0
  -24.7852  -28.6175   22.1229 C   0  0  0  0  0  0  0  0  0  0  0  0
  -27.0970  -20.3703   18.9686 C   0  0  0  0  0  0  0  0  0  0  0  0
  -22.0514   -8.3952   21.4725 C   0  0  0  0  0  0  0  0  0  0  0  0
  -25.0621  -26.2211   22.4235 C   0  0  0  0  0  0  0  0  0  0  0  0
  -21.7742   -6.1897   22.2350 C   0  0  0  0  0  0  0  0  0  0  0  0
  -22.8731   -3.8964   23.3818 C   0  0  0  0  0  0  0  0  0  0  0  0
  -21.2673   -5.7006   23.4389 C   0  0  0  0  0  0  0  0  0  0  0  0
  -24.6076  -11.7136   20.8793 C   0  0  0  0  0  0  0  0  0  0  0  0
  -25.4701  -13.7347   20.7995 C   0  0  0  0  0  0  0  0  0  0  0  0
  -26.7529  -22.6953   19.7266 C   0  0  0  0  0  0  0  0  0  0  0  0
  -25.7773  -23.4484   20.2526 C   0  0  0  0  0  0  0  0  0  0  0  0
  -24.5928  -22.6172   20.4059 C   0  0  0  0  0  0  0  0  0  0  0  0
  -23.4011  -22.9773   20.8927 C   0  0  0  0  0  0  0  0  0  0  0  0
  -29.4122  -17.1719   17.3291 C   0  0  0  0  0  0  0  0  0  0  0  0
  -23.1500  -13.6559   21.7265 C   0  0  0  0  0  0  0  0  0  0  0  0
  -22.1621  -30.7419   21.6386 C   0  0  0  0  0  0  0  0  0  0  0  0
  -24.9570  -32.3757   21.4338 C   0  0  0  0  0  0  0  0  0  0  0  0
  -28.3685  -32.2979   21.4805 C   0  0  0  0  0  0  0  0  0  0  0  0
  -29.6222  -14.7071   17.2622 C   0  0  0  0  0  0  0  0  0  0  0  0
  -17.2457  -31.8336   22.4723 C   0  0  0  0  0  0  0  0  0  0  0  0
  -23.3576  -29.9565   23.7146 C   0  0  0  0  0  0  0  0  0  0  0  0
  -25.1110  -29.8594   21.3354 C   0  0  0  0  0  0  0  0  0  0  0  0
  -24.9477  -21.2270   19.9045 C   0  0  0  0  0  0  0  0  0  0  0  0
  -18.4532  -32.5875   21.9210 C   0  0  0  0  0  0  0  0  0  0  0  0
  -30.0448  -11.9972   19.4926 C   0  0  0  0  0  0  0  0  0  0  0  0
  -19.1680  -31.7510   20.8645 C   0  0  0  0  0  0  0  0  0  0  0  0
  -28.6471  -11.7953   20.0844 C   0  0  0  0  0  0  0  0  0  0  0  0
  -29.9855  -12.3724   18.0126 C   0  0  0  0  0  0  0  0  0  0  0  0
  -27.7252  -13.3083   18.2831 C   0  0  0  0  0  0  0  0  0  0  0  0
  -19.6983  -30.4425   21.4628 C   0  0  1  0  0  0  0  0  0  0  0  0
  -23.2748  -31.0082   22.6126 C   0  0  1  0  0  0  0  0  0  0  0  0
  -27.7285  -12.9978   19.7886 C   0  0  1  0  0  0  0  0  0  0  0  0
  -30.3762  -33.7855   21.2487 C   0  0  0  0  0  0  0  0  0  0  0  0
  -24.5374  -32.4672   18.4129 C   0  0  0  0  0  0  0  0  0  0  0  0
  -26.9507  -33.0865   18.1666 C   0  0  0  0  0  0  0  0  0  0  0  0
  -25.3993  -34.5920   19.4113 C   0  0  0  0  0  0  0  0  0  0  0  0
  -29.2979  -31.6652   24.2181 C   0  0  0  0  0  0  0  0  0  0  0  0
  -25.8560  -24.8843   20.6239 C   0  0  0  0  0  0  0  0  0  1  0  0
  -26.1099  -32.4039   20.4597 C   0  0  1  0  0  0  0  0  0  0  0  0
  -29.3856  -33.1534   22.2141 C   0  0  2  0  0  0  0  0  0  0  0  0
  -25.7418  -33.1135   19.1261 C   0  0  0  0  0  0  0  0  0  0  0  0
  -25.8268  -11.5369   20.3630 N   0  0  0  0  0  0  0  0  0  0  0  0
  -26.3263  -12.7840   20.3268 N   0  0  0  0  0  0  0  0  0  0  0  0
  -26.3540  -21.3967   19.4948 N   0  0  0  0  0  0  0  0  0  0  0  0
  -24.5102  -31.1080   21.8328 N   0  0  0  0  0  0  0  0  0  0  0  0
  -29.1036  -13.5247   17.8183 N   0  0  0  0  0  0  0  0  0  0  0  0
  -25.8129  -15.0399   20.8348 N   0  0  0  0  0  0  0  0  0  0  0  0
  -22.0723  -12.8207   22.0509 N   0  0  0  0  0  0  0  0  0  0  0  0
  -29.0271  -15.8887   17.7182 N   0  0  0  0  0  0  0  0  0  0  0  0
  -20.9088  -30.6859   22.2178 N   0  0  0  0  0  0  0  0  0  0  0  0
  -27.2300  -33.0112   21.1703 N   0  0  0  0  0  0  0  0  0  0  0  0
  -30.1462  -32.3277   23.1942 N   0  3  0  0  0  0  0  0  0  0  0  0
  -30.3173  -17.4317   16.5410 O   0  0  0  0  0  0  0  0  0  0  0  0
  -23.0471  -14.8919   21.9143 O   0  0  0  0  0  0  0  0  0  0  0  0
  -22.4213  -30.5994   20.4494 O   0  0  0  0  0  0  0  0  0  0  0  0
  -24.4753  -33.4394   21.8317 O   0  0  0  0  0  0  0  0  0  0  0  0
  -28.5659  -31.1162   21.2064 O   0  0  0  0  0  0  0  0  0  0  0  0
  -30.5596  -14.7132   16.4582 O   0  0  0  0  0  0  0  0  0  0  0  0
  -21.2292   -7.3276   21.6640 O   0  0  0  0  0  0  0  0  0  0  0  0
  -25.6044  -25.0401   22.0199 O   0  0  0  0  0  0  0  0  0  1  0  0
  -23.3999   -2.7944   23.9316 F   0  0  0  0  0  0  0  0  0  0  0  0
  -20.2518   -6.3273   24.0487 F   0  0  0  0  0  0  0  0  0  0  0  0
  1  2  1  0  0  0  0
  1  7  2  0  0  0  0
  2  8  2  0  0  0  0
  3 12  2  0  0  0  0
  3 19  1  0  0  0  0
  4 13  1  0  0  0  0
  4 19  2  0  0  0  0
  5 10  2  0  0  0  0
  5 20  1  0  0  0  0
  6 11  1  0  0  0  0
  6 20  2  0  0  0  0
  7 22  1  0  0  0  0
  8 24  1  0  0  0  0
  9 14  2  0  0  0  0
  9 23  1  0  0  0  0
 10 26  1  0  0  0  0
 11 26  2  0  0  0  0
 12 27  1  0  0  0  0
 13 27  2  0  0  0  0
 14 28  1  0  0  0  0
 15 16  2  0  0  0  0
 15 29  1  0  0  0  0
 16 30  1  0  0  0  0
 17 25  1  0  0  0  0
 17 28  2  0  0  0  0
 18 30  2  0  0  0  0
 18 31  1  0  0  0  0
 19 32  1  0  0  0  0
 20 38  1  0  0  0  0
 21 32  1  0  0  0  0
 21 33  2  0  0  0  0
 21 39  1  0  0  0  0
 22 24  2  0  0  0  0
 22 44  1  0  0  0  0
 23 25  2  0  0  0  0
 23 45  1  0  0  0  0
 24 54  1  0  0  0  0
 25 46  1  0  0  0  0
 26 68  1  0  0  0  0
 27 83  1  0  0  0  0
 28 84  1  0  0  0  0
 29 31  2  0  0  0  0
 29 83  1  0  0  0  0
 30 85  1  0  0  0  0
 31 86  1  0  0  0  0
 32 66  2  0  0  0  0
 33 67  1  0  0  0  0
 33 71  1  0  0  0  0
 34 35  2  0  0  0  0
 34 68  1  0  0  0  0
 35 36  1  0  0  0  0
 35 62  1  0  0  0  0
 36 37  2  0  0  0  0
 36 47  1  0  0  0  0
 38 73  1  0  0  0  0
 38 77  2  0  0  0  0
 39 72  1  0  0  0  0
 39 78  2  0  0  0  0
 40 55  1  0  0  0  0
 40 74  1  0  0  0  0
 40 79  2  0  0  0  0
 41 63  1  0  0  0  0
 41 69  1  0  0  0  0
 41 80  2  0  0  0  0
 42 64  1  0  0  0  0
 42 75  1  0  0  0  0
 42 81  2  0  0  0  0
 43 70  1  0  0  0  0
 43 73  1  0  0  0  0
 43 82  2  0  0  0  0
 44 48  1  0  0  0  0
 45 55  1  0  0  0  0
 46 69  1  0  0  0  0
 47 68  1  0  0  0  0
 48 50  1  0  0  0  0
 49 51  1  0  0  0  0
 49 52  1  0  0  0  0
 50 54  1  0  0  0  0
 51 56  1  0  0  0  0
 52 70  1  0  0  0  0
 53 56  1  0  0  0  0
 53 70  1  0  0  0  0
 54 74  1  0  0  0  0
 55 69  1  0  0  0  0
 56 67  1  0  0  0  0
 57 64  1  0  0  0  0
 58 65  1  0  0  0  0
 59 65  1  0  0  0  0
 60 65  1  0  0  0  0
 61 76  1  0  0  0  0
 62 84  1  0  0  0  0
 63 65  1  0  0  0  0
 63 75  1  0  0  0  0
 64 76  1  0  0  0  0
 66 67  1  0  0  0  0
M  CHG  1  76   1
M  ISO  4  43 100  62 101  73 100  84 101
M  END
> <Batch ID>
0078

> <Smiles>
C=C1CN(c2ccc(C(=O)[100NH:0][100C:0](=O)N3CCCC(n4nc(-c5ccc(Oc6ccc(F)cc6F)cc5)c(C(N)=O)c4N)C3)cc2)C=C1[101CH2:1][101O:1]c1ccc2c(c1)CN(C(=O)C(NC(=O)C(C)NC)C(C)(C)C)C(C(=O)NC1CCCc3ccccc31)C2

> <Shape>
0.266

> <Color>
0.163

> <Negative vol penalty>
0.000

$$$$

  -OEChem-04042323563D

 93102  0     1  0  0  0  0  0999 V2000
  -16.5183  -29.2779   23.4525 C   0  0  0  0  0  0  0  0  0  0  0  0
  -17.4602  -30.0471   24.1282 C   0  0  0  0  0  0  0  0  0  0  0  0
  -25.2536  -13.8400   19.4605 C   0  0  0  0  0  0  0  0  0  0  0  0
  -24.6313  -13.5959   21.7822 C   0  0  0  0  0  0  0  0  0  0  0  0
  -16.9308  -28.1945   22.6780 C   0  0  0  0  0  0  0  0  0  0  0  0
  -18.8151  -29.7326   24.0307 C   0  0  0  0  0  0  0  0  0  0  0  0
  -29.4482  -23.2061   22.8601 C   0  0  0  0  0  0  0  0  0  0  0  0
  -25.2741  -32.8299   23.9574 C   0  0  0  0  0  0  0  0  0  0  0  0
  -29.5736  -23.9506   24.0334 C   0  0  0  0  0  0  0  0  0  0  0  0
  -25.7148  -12.5237   19.4457 C   0  0  0  0  0  0  0  0  0  0  0  0
  -25.0925  -12.2796   21.7674 C   0  0  0  0  0  0  0  0  0  0  0  0
  -26.5143  -32.7496   24.5892 C   0  0  0  0  0  0  0  0  0  0  0  0
  -25.7750   -8.7401   22.2406 C   0  0  0  0  0  0  0  0  0  0  0  0
  -24.9728   -7.7644   22.8323 C   0  0  0  0  0  0  0  0  0  0  0  0
  -30.7064  -25.6819   22.8033 C   0  0  0  0  0  0  0  0  0  0  0  0
  -27.1170  -30.9033   23.1584 C   0  0  0  0  0  0  0  0  0  0  0  0
  -23.1924   -8.2907   21.2862 C   0  0  0  0  0  0  0  0  0  0  0  0
  -24.7119  -14.3762   20.6287 C   0  0  0  0  0  0  0  0  0  0  0  0
  -22.9362  -16.1853   20.3439 C   0  0  0  0  0  0  0  0  0  0  0  0
  -18.2923  -27.8724   22.5631 C   0  0  0  0  0  0  0  0  0  0  0  0
  -24.9412  -31.9389   22.9269 C   0  0  0  0  0  0  0  0  0  0  0  0
  -19.2462  -28.6430   23.2549 C   0  0  0  0  0  0  0  0  0  0  0  0
  -29.9434  -23.6880   21.6318 C   0  0  0  0  0  0  0  0  0  0  0  0
  -30.5976  -24.9375   21.6158 C   0  0  0  0  0  0  0  0  0  0  0  0
  -25.8729  -30.9760   22.5134 C   0  0  0  0  0  0  0  0  0  0  0  0
  -30.1998  -25.1905   24.0042 C   0  0  0  0  0  0  0  0  0  0  0  0
  -25.6342  -11.7435   20.5991 C   0  0  0  0  0  0  0  0  0  0  0  0
  -27.4349  -31.7844   24.1917 C   0  0  0  0  0  0  0  0  0  0  0  0
  -25.2859   -9.4912   21.1718 C   0  0  0  0  0  0  0  0  0  0  0  0
  -23.6815   -7.5397   22.3551 C   0  0  0  0  0  0  0  0  0  0  0  0
  -23.9946   -9.2665   20.6946 C   0  0  0  0  0  0  0  0  0  0  0  0
  -24.2359  -15.7360   20.6448 C   0  0  0  0  0  0  0  0  0  0  0  0
  -22.9981  -17.5480   20.5046 C   0  0  0  0  0  0  0  0  0  0  0  0
  -26.2479  -23.0086   19.6173 C   0  0  0  0  0  0  0  0  0  0  0  0
  -27.4388  -23.2601   20.1653 C   0  0  0  0  0  0  0  0  0  0  0  0
  -21.7765  -15.4378   19.9540 C   0  0  0  0  0  0  0  0  0  0  0  0
  -22.7026  -29.7201   22.5159 C   0  0  0  0  0  0  0  0  0  0  0  0
  -23.9417  -29.5808   19.5214 C   0  0  0  0  0  0  0  0  0  0  0  0
  -29.5586  -29.8017   26.8183 C   0  0  0  0  0  0  0  0  0  0  0  0
  -30.9165  -27.2025   25.3393 C   0  0  0  0  0  0  0  0  0  0  0  0
  -26.6114  -30.1123   17.4630 C   0  0  0  0  0  0  0  0  0  0  0  0
  -28.1061  -20.9564   20.3475 C   0  0  0  0  0  0  0  0  0  0  0  0
  -18.6863  -26.6633   21.7522 C   0  0  0  0  0  0  0  0  0  0  0  0
  -23.6096  -32.0559   22.2374 C   0  0  0  0  0  0  0  0  0  0  0  0
  -31.1448  -25.5417   20.3474 C   0  0  0  0  0  0  0  0  0  0  0  0
  -25.5721  -30.0090   21.3985 C   0  0  0  0  0  0  0  0  0  0  0  0
  -20.1710  -26.6239   21.3996 C   0  0  0  0  0  0  0  0  0  0  0  0
  -31.3452  -24.5241   19.2320 C   0  0  0  0  0  0  0  0  0  0  0  0
  -25.7152  -20.5536   23.1720 C   0  0  0  0  0  0  0  0  0  0  0  0
  -21.0199  -26.9384   22.6274 C   0  0  0  0  0  0  0  0  0  0  0  0
  -24.6532  -19.5846   22.6506 C   0  0  0  0  0  0  0  0  0  0  0  0
  -30.0996  -23.6591   19.0871 C   0  0  0  0  0  0  0  0  0  0  0  0
  -26.2920  -21.4306   22.0657 C   0  0  0  0  0  0  0  0  0  0  0  0
  -26.3610  -19.2775   20.7957 C   0  0  0  0  0  0  0  0  0  0  0  0
  -20.7271  -28.3485   23.1539 C   0  0  1  0  0  0  0  0  0  0  0  0
  -23.1787  -30.7654   21.5472 C   0  0  1  0  0  0  0  0  0  0  0  0
  -24.8786  -19.1828   21.1812 C   0  0  1  0  0  0  0  0  0  0  0  0
  -29.8076  -22.8394   20.3662 C   0  0  1  0  0  0  0  0  0  0  0  0
  -30.7803  -21.6460   20.4554 C   0  0  0  0  0  0  0  0  0  0  0  0
  -27.3354  -29.8675   15.0728 C   0  0  0  0  0  0  0  0  0  0  0  0
  -24.2632  -26.5741   19.9293 C   0  0  0  0  0  0  0  0  0  0  0  0
  -25.8175  -26.5445   17.9668 C   0  0  0  0  0  0  0  0  0  0  0  0
  -23.4405  -27.2373   17.6626 C   0  0  0  0  0  0  0  0  0  0  0  0
  -27.0694  -33.0227   17.1822 C   0  0  0  0  0  0  0  0  0  0  0  0
  -29.7878  -31.3034   26.8871 C   0  0  0  0  0  0  0  0  0  0  0  0
  -30.8339  -27.6611   26.7824 C   0  0  0  0  0  0  0  0  0  0  0  0
  -28.7068  -32.1025   26.1759 C   0  0  0  0  0  0  0  0  0  1  0  0
  -25.0410  -28.7893   18.8550 C   0  0  1  0  0  0  0  0  0  0  0  0
  -26.7208  -30.7935   16.1108 C   0  0  2  0  0  0  0  0  0  0  0  0
  -24.6458  -27.3031   18.6258 C   0  0  0  0  0  0  0  0  0  0  0  0
  -25.0631  -16.7324   20.9718 N   0  0  0  0  0  0  0  0  0  0  0  0
  -24.2813  -17.8214   20.8772 N   0  0  0  0  0  0  0  0  0  0  0  0
  -24.2542  -30.1593   20.7597 N   0  0  0  0  0  0  0  0  0  0  0  0
  -26.8973  -20.6301   20.9894 N   0  0  0  0  0  0  0  0  0  0  0  0
  -22.0796  -18.5270   20.3621 N   0  0  0  0  0  0  0  0  0  0  0  0
  -21.8874  -14.0456   19.8366 N   0  0  0  0  0  0  0  0  0  0  0  0
  -30.3236  -25.9515   25.1910 N   0  0  0  0  0  0  0  0  0  0  0  0
  -21.3863  -29.3415   22.3330 N   0  0  0  0  0  0  0  0  0  0  0  0
  -30.7574  -29.1033   26.8370 N   0  0  0  0  0  0  0  0  0  0  0  0
  -25.3820  -29.5120   17.6344 N   0  0  0  0  0  0  0  0  0  0  0  0
  -28.4434  -22.3176   20.2435 N   0  0  0  0  0  0  0  0  0  0  0  0
  -27.5697  -32.0142   16.2129 N   0  3  0  0  0  0  0  0  0  0  0  0
  -20.6789  -15.9898   19.7008 O   0  0  0  0  0  0  0  0  0  0  0  0
  -23.4728  -29.2880   23.3654 O   0  0  0  0  0  0  0  0  0  0  0  0
  -22.8483  -29.6880   18.9604 O   0  0  0  0  0  0  0  0  0  0  0  0
  -28.4428  -29.2928   26.7547 O   0  0  0  0  0  0  0  0  0  0  0  0
  -31.4365  -27.8876   24.4643 O   0  0  0  0  0  0  0  0  0  0  0  0
  -27.5264  -30.1097   18.2835 O   0  0  0  0  0  0  0  0  0  0  0  0
  -28.8403  -20.0687   19.8907 O   0  0  0  0  0  0  0  0  0  0  0  0
  -26.0839  -10.4589   20.5849 O   0  0  0  0  0  0  0  0  0  0  0  0
  -28.6459  -31.7035   24.8072 O   0  0  0  0  0  0  0  0  0  1  0  0
  -22.9118   -6.6017   22.9224 F   0  0  0  0  0  0  0  0  0  0  0  0
  -23.5197   -9.9841   19.6673 F   0  0  0  0  0  0  0  0  0  0  0  0
  1  2  1  0  0  0  0
  1  5  2  0  0  0  0
  2  6  2  0  0  0  0
  3 10  2  0  0  0  0
  3 18  1  0  0  0  0
  4 11  1  0  0  0  0
  4 18  2  0  0  0  0
  5 20  1  0  0  0  0
  6 22  1  0  0  0  0
  7  9  2  0  0  0  0
  7 23  1  0  0  0  0
  8 12  2  0  0  0  0
  8 21  1  0  0  0  0
  9 26  1  0  0  0  0
 10 27  1  0  0  0  0
 11 27  2  0  0  0  0
 12 28  1  0  0  0  0
 13 14  2  0  0  0  0
 13 29  1  0  0  0  0
 14 30  1  0  0  0  0
 15 24  1  0  0  0  0
 15 26  2  0  0  0  0
 16 25  1  0  0  0  0
 16 28  2  0  0  0  0
 17 30  2  0  0  0  0
 17 31  1  0  0  0  0
 18 32  1  0  0  0  0
 19 32  1  0  0  0  0
 19 33  2  0  0  0  0
 19 36  1  0  0  0  0
 20 22  2  0  0  0  0
 20 43  1  0  0  0  0
 21 25  2  0  0  0  0
 21 44  1  0  0  0  0
 22 55  1  0  0  0  0
 23 24  2  0  0  0  0
 23 58  1  0  0  0  0
 24 45  1  0  0  0  0
 25 46  1  0  0  0  0
 26 77  1  0  0  0  0
 27 90  1  0  0  0  0
 28 91  1  0  0  0  0
 29 31  2  0  0  0  0
 29 90  1  0  0  0  0
 30 92  1  0  0  0  0
 31 93  1  0  0  0  0
 32 71  2  0  0  0  0
 33 72  1  0  0  0  0
 33 75  1  0  0  0  0
 34 35  2  0  0  0  0
 35 81  1  0  0  0  0
 36 76  1  0  0  0  0
 36 83  2  0  0  0  0
 37 56  1  0  0  0  0
 37 78  1  0  0  0  0
 37 84  2  0  0  0  0
 38 68  1  0  0  0  0
 38 73  1  0  0  0  0
 38 85  2  0  0  0  0
 39 65  1  0  0  0  0
 39 79  1  0  0  0  0
 39 86  2  0  0  0  0
 40 66  1  0  0  0  0
 40 77  1  0  0  0  0
 40 87  2  0  0  0  0
 41 69  1  0  0  0  0
 41 80  1  0  0  0  0
 41 88  2  0  0  0  0
 42 74  1  0  0  0  0
 42 81  1  0  0  0  0
 42 89  2  0  0  0  0
 43 47  1  0  0  0  0
 44 56  1  0  0  0  0
 45 48  1  0  0  0  0
 46 73  1  0  0  0  0
 47 50  1  0  0  0  0
 48 52  1  0  0  0  0
 49 51  1  0  0  0  0
 49 53  1  0  0  0  0
 50 55  1  0  0  0  0
 51 57  1  0  0  0  0
 52 58  1  0  0  0  0
 53 74  1  0  0  0  0
 54 57  1  0  0  0  0
 54 74  1  0  0  0  0
 55 78  1  0  0  0  0
 56 73  1  0  0  0  0
 57 72  1  0  0  0  0
 58 59  1  0  0  0  0
 58 81  1  0  0  0  0
 60 69  1  0  0  0  0
 61 70  1  0  0  0  0
 62 70  1  0  0  0  0
 63 70  1  0  0  0  0
 64 82  1  0  0  0  0
 65 67  1  0  0  0  0
 66 79  1  0  0  0  0
 67 91  1  0  0  0  0
 68 70  1  0  0  0  0
 68 80  1  0  0  0  0
 69 82  1  0  0  0  0
 71 72  1  0  0  0  0
M  CHG  1  82   1
M  ISO  4  42 100  67 101  81 100  91 101
M  END
> <Batch ID>
0078

> <Smiles>
C=C[100N:0]([100C:0](=O)N1CCCC(n2nc(-c3ccc(Oc4ccc(F)cc4F)cc3)c(C(N)=O)c2N)C1)C1(C)CCCc2cc(NC(=O)CNC(=O)C[101CH2:1][101O:1]c3ccc4c(c3)CN(C(=O)C(NC(=O)C(C)NC)C(C)(C)C)C(C(=O)NC3CCCc5ccccc53)C4)ccc21

> <Shape>
0.306

> <Color>
0.106

> <Negative vol penalty>
0.000

$$$$

  -OEChem-04042323563D

 87 95  0     1  0  0  0  0  0999 V2000
  -31.2718  -23.6698   23.2440 C   0  0  0  0  0  0  0  0  0  0  0  0
  -30.8739  -24.6073   22.2976 C   0  0  0  0  0  0  0  0  0  0  0  0
  -26.3778  -12.4176   21.5275 C   0  0  0  0  0  0  0  0  0  0  0  0
  -25.9346  -13.1548   19.2699 C   0  0  0  0  0  0  0  0  0  0  0  0
  -27.8051  -23.1848   17.4399 C   0  0  0  0  0  0  0  0  0  0  0  0
  -30.3210  -23.0662   24.0642 C   0  0  0  0  0  0  0  0  0  0  0  0
  -29.5266  -24.9503   22.1792 C   0  0  0  0  0  0  0  0  0  0  0  0
  -28.4230  -28.6574   19.1389 C   0  0  0  0  0  0  0  0  0  0  0  0
  -28.3493  -22.2695   18.3407 C   0  0  0  0  0  0  0  0  0  0  0  0
  -25.1513  -11.7538   21.5516 C   0  0  0  0  0  0  0  0  0  0  0  0
  -24.7080  -12.4910   19.2939 C   0  0  0  0  0  0  0  0  0  0  0  0
  -28.4942  -28.5409   17.7514 C   0  0  0  0  0  0  0  0  0  0  0  0
  -23.8641   -8.8555   20.3784 C   0  0  0  0  0  0  0  0  0  0  0  0
  -23.8385   -7.5594   20.8931 C   0  0  0  0  0  0  0  0  0  0  0  0
  -27.6413  -21.4453   15.7713 C   0  0  0  0  0  0  0  0  0  0  0  0
  -26.0908  -28.3599   17.6493 C   0  0  0  0  0  0  0  0  0  0  0  0
  -22.2720   -8.2649   22.5918 C   0  0  0  0  0  0  0  0  0  0  0  0
  -26.7694  -13.1182   20.3867 C   0  0  0  0  0  0  0  0  0  0  0  0
  -27.4510  -22.7727   16.1552 C   0  0  0  0  0  0  0  0  0  0  0  0
  -29.2769  -13.2841   19.9477 C   0  0  0  0  0  0  0  0  0  0  0  0
  -28.9600  -23.3933   23.9466 C   0  0  0  0  0  0  0  0  0  0  0  0
  -27.1838  -28.6150   19.7941 C   0  0  0  0  0  0  0  0  0  0  0  0
  -28.5547  -24.3698   23.0141 C   0  0  0  0  0  0  0  0  0  0  0  0
  -26.0064  -28.4786   19.0450 C   0  0  0  0  0  0  0  0  0  0  0  0
  -28.5396  -20.9421   17.9569 C   0  0  0  0  0  0  0  0  0  0  0  0
  -24.3164  -11.7904   20.4348 C   0  0  0  0  0  0  0  0  0  0  0  0
  -27.3282  -28.3892   17.0066 C   0  0  0  0  0  0  0  0  0  0  0  0
  -23.0937   -9.8564   20.9704 C   0  0  0  0  0  0  0  0  0  0  0  0
  -23.0424   -7.2640   21.9998 C   0  0  0  0  0  0  0  0  0  0  0  0
  -28.1856  -20.5299   16.6721 C   0  0  0  0  0  0  0  0  0  0  0  0
  -22.2977   -9.5611   22.0771 C   0  0  0  0  0  0  0  0  0  0  0  0
  -28.0360  -13.8046   20.3615 C   0  0  0  0  0  0  0  0  0  0  0  0
  -30.1581  -14.3245   20.1135 C   0  0  0  0  0  0  0  0  0  0  0  0
  -26.8743  -23.7415   15.2004 C   0  0  0  0  0  0  0  0  0  0  0  0
  -29.6037  -11.9771   19.4572 C   0  0  0  0  0  0  0  0  0  0  0  0
  -25.8492  -26.6944   21.9467 C   0  0  0  0  0  0  0  0  0  0  0  0
  -23.4840  -28.9136   21.8869 C   0  0  0  0  0  0  0  0  0  0  0  0
  -21.8831  -31.3963   20.1781 C   0  0  0  0  0  0  0  0  0  0  0  0
  -27.2204  -25.8764   13.9686 C   0  0  0  0  0  0  0  0  0  0  0  0
  -29.4963  -20.2627   20.1861 C   0  0  0  0  0  0  0  0  0  0  0  0
  -27.9742  -22.7153   24.8651 C   0  0  0  0  0  0  0  0  0  0  0  0
  -27.1220  -28.7688   21.2890 C   0  0  0  0  0  0  0  0  0  0  0  0
  -24.6498  -28.4476   19.6985 C   0  0  0  0  0  0  0  0  0  0  0  0
  -26.5355  -22.8112   24.3681 C   0  0  0  0  0  0  0  0  0  0  0  0
  -30.8695  -18.2413   22.7757 C   0  0  0  0  0  0  0  0  0  0  0  0
  -26.2069  -24.2509   24.0022 C   0  0  0  0  0  0  0  0  0  0  0  0
  -30.4167  -16.8260   22.4094 C   0  0  0  0  0  0  0  0  0  0  0  0
  -29.7993  -19.2814   22.4489 C   0  0  0  0  0  0  0  0  0  0  0  0
  -28.8451  -17.8287   20.7031 C   0  0  0  0  0  0  0  0  0  0  0  0
  -27.0911  -24.7361   22.8465 C   0  0  1  0  0  0  0  0  0  0  0  0
  -25.8451  -28.1961   21.8963 C   0  0  1  0  0  0  0  0  0  0  0  0
  -29.9153  -16.7537   20.9538 C   0  0  2  0  0  0  0  0  0  0  0  0
  -19.9616  -32.9986   20.3721 C   0  0  0  0  0  0  0  0  0  0  0  0
  -27.7289  -28.0143   12.7819 C   0  0  0  0  0  0  0  0  0  0  0  0
  -29.5411  -26.3345   13.1669 C   0  0  0  0  0  0  0  0  0  0  0  0
  -21.5316  -26.6357   21.3308 C   0  0  0  0  0  0  0  0  0  0  0  0
  -19.8529  -28.3450   20.6038 C   0  0  0  0  0  0  0  0  0  0  0  0
  -20.7000  -28.3505   22.9501 C   0  0  0  0  0  0  0  0  0  0  0  0
  -23.6693  -33.7459   19.9594 C   0  0  0  0  0  0  0  0  0  0  0  0
  -28.5695  -27.6738   15.1084 C   0  0  0  0  0  0  0  0  0  1  0  0
  -22.2230  -29.1106   21.0807 C   0  0  1  0  0  0  0  0  0  0  0  0
  -21.4512  -32.7902   20.5962 C   0  0  2  0  0  0  0  0  0  0  0  0
  -28.2787  -26.9680   13.7690 C   0  0  0  0  0  0  0  0  0  0  0  0
  -21.1024  -28.1091   21.4789 C   0  0  0  0  0  0  0  0  0  0  0  0
  -28.1176  -15.0767   20.7603 N   0  0  0  0  0  0  0  0  0  0  0  0
  -29.4203  -15.3643   20.5980 N   0  0  0  0  0  0  0  0  0  0  0  0
  -24.6420  -28.5955   21.1633 N   0  0  0  0  0  0  0  0  0  0  0  0
  -29.3758  -19.1557   21.0527 N   0  0  0  0  0  0  0  0  0  0  0  0
  -31.4844  -14.4422   19.8908 N   0  0  0  0  0  0  0  0  0  0  0  0
  -28.5780  -11.0281   19.3495 N   0  0  0  0  0  0  0  0  0  0  0  0
  -29.0926  -20.0148   18.8746 N   0  0  0  0  0  0  0  0  0  0  0  0
  -27.6093  -24.8116   14.8685 N   0  0  0  0  0  0  0  0  0  0  0  0
  -26.8980  -26.1585   22.6693 N   0  0  0  0  0  0  0  0  0  0  0  0
  -21.8538  -30.5134   21.2368 N   0  0  0  0  0  0  0  0  0  0  0  0
  -25.6558  -23.4916   14.7223 N   0  3  0  0  0  0  0  0  0  0  0  0
  -22.1927  -33.8189   19.8133 N   0  3  0  0  0  0  0  0  0  0  0  0
  -30.7738  -11.6551   19.1398 O   0  0  0  0  0  0  0  0  0  0  0  0
  -24.9653  -26.0682   21.3736 O   0  0  0  0  0  0  0  0  0  0  0  0
  -23.4446  -29.0443   23.1129 O   0  0  0  0  0  0  0  0  0  0  0  0
  -22.2101  -31.1176   19.0266 O   0  0  0  0  0  0  0  0  0  0  0  0
  -26.1253  -25.8611   13.4218 O   0  0  0  0  0  0  0  0  0  0  0  0
  -29.9514  -21.3424   20.5721 O   0  0  0  0  0  0  0  0  0  0  0  0
  -23.1196  -11.1426   20.4578 O   0  0  0  0  0  0  0  0  0  0  0  0
  -27.3950  -28.2747   15.6523 O   0  0  0  0  0  0  0  0  0  1  0  0
  -23.0168   -6.0190   22.4930 F   0  0  0  0  0  0  0  0  0  0  0  0
  -28.3653  -19.2569   16.2920 F   0  0  0  0  0  0  0  0  0  0  0  0
  -21.5545  -10.5182   22.6494 F   0  0  0  0  0  0  0  0  0  0  0  0
  1  2  1  0  0  0  0
  1  6  2  0  0  0  0
  2  7  2  0  0  0  0
  3 10  2  0  0  0  0
  3 18  1  0  0  0  0
  4 11  1  0  0  0  0
  4 18  2  0  0  0  0
  5  9  2  0  0  0  0
  5 19  1  0  0  0  0
  6 21  1  0  0  0  0
  7 23  1  0  0  0  0
  8 12  2  0  0  0  0
  8 22  1  0  0  0  0
  9 25  1  0  0  0  0
 10 26  1  0  0  0  0
 11 26  2  0  0  0  0
 12 27  1  0  0  0  0
 13 14  2  0  0  0  0
 13 28  1  0  0  0  0
 14 29  1  0  0  0  0
 15 19  2  0  0  0  0
 15 30  1  0  0  0  0
 16 24  1  0  0  0  0
 16 27  2  0  0  0  0
 17 29  2  0  0  0  0
 17 31  1  0  0  0  0
 18 32  1  0  0  0  0
 19 34  1  0  0  0  0
 20 32  1  0  0  0  0
 20 33  2  0  0  0  0
 20 35  1  0  0  0  0
 21 23  2  0  0  0  0
 21 41  1  0  0  0  0
 22 24  2  0  0  0  0
 22 42  1  0  0  0  0
 23 50  1  0  0  0  0
 24 43  1  0  0  0  0
 25 30  2  0  0  0  0
 25 71  1  0  0  0  0
 26 83  1  0  0  0  0
 27 84  1  0  0  0  0
 28 31  2  0  0  0  0
 28 83  1  0  0  0  0
 29 85  1  0  0  0  0
 30 86  1  0  0  0  0
 31 87  1  0  0  0  0
 32 65  2  0  0  0  0
 33 66  1  0  0  0  0
 33 69  1  0  0  0  0
 34 72  1  0  0  0  0
 34 75  2  0  0  0  0
 35 70  1  0  0  0  0
 35 77  2  0  0  0  0
 36 51  1  0  0  0  0
 36 73  1  0  0  0  0
 36 78  2  0  0  0  0
 37 61  1  0  0  0  0
 37 67  1  0  0  0  0
 37 79  2  0  0  0  0
 38 62  1  0  0  0  0
 38 74  1  0  0  0  0
 38 80  2  0  0  0  0
 39 63  1  0  0  0  0
 39 72  1  0  0  0  0
 39 81  2  0  0  0  0
 40 68  1  0  0  0  0
 40 71  1  0  0  0  0
 40 82  2  0  0  0  0
 41 44  1  0  0  0  0
 42 51  1  0  0  0  0
 43 67  1  0  0  0  0
 44 46  1  0  0  0  0
 45 47  1  0  0  0  0
 45 48  1  0  0  0  0
 46 50  1  0  0  0  0
 47 52  1  0  0  0  0
 48 68  1  0  0  0  0
 49 52  1  0  0  0  0
 49 68  1  0  0  0  0
 50 73  1  0  0  0  0
 51 67  1  0  0  0  0
 52 66  1  0  0  0  0
 53 62  1  0  0  0  0
 54 63  1  0  0  0  0
 55 63  1  0  0  0  0
 56 64  1  0  0  0  0
 57 64  1  0  0  0  0
 58 64  1  0  0  0  0
 59 76  1  0  0  0  0
 60 63  1  0  0  0  0
 60 84  1  0  0  0  0
 61 64  1  0  0  0  0
 61 74  1  0  0  0  0
 62 76  1  0  0  0  0
 65 66  1  0  0  0  0
M  CHG  2  75   1  76   1
M  ISO  4  40 100  60 101  71 100  84 101
M  END
> <Batch ID>
0078

> <Smiles>
CNC(C)C(=O)NC(C(=O)N1Cc2cc([101O:1][101CH2:1]C(C)(C)C(=O)NC(=N)c3ccc([100NH:0][100C:0](=O)N4CCCC(n5nc(-c6ccc(Oc7ccc(F)cc7F)cc6)c(C(N)=O)c5N)C4)c(F)c3)ccc2CC1C(=O)NC1CCCc2ccccc21)C(C)(C)C

> <Shape>
0.226

> <Color>
0.080

> <Negative vol penalty>
0.000

$$$$

  -OEChem-04042323563D

 86 95  0     1  0  0  0  0  0999 V2000
  -29.9572  -37.0968   20.9344 C   0  0  0  0  0  0  0  0  0  0  0  0
  -30.0799  -35.7826   20.4948 C   0  0  0  0  0  0  0  0  0  0  0  0
  -24.0416   -9.8390   22.2627 C   0  0  0  0  0  0  0  0  0  0  0  0
  -24.6337  -11.4617   23.9519 C   0  0  0  0  0  0  0  0  0  0  0  0
  -29.3015  -37.3711   22.1339 C   0  0  0  0  0  0  0  0  0  0  0  0
  -29.5480  -34.7417   21.2551 C   0  0  0  0  0  0  0  0  0  0  0  0
  -27.0382  -29.5627   19.1611 C   0  0  0  0  0  0  0  0  0  0  0  0
  -30.8351  -20.1263   19.0877 C   0  0  0  0  0  0  0  0  0  0  0  0
  -30.5553  -18.7628   18.9973 C   0  0  0  0  0  0  0  0  0  0  0  0
  -23.6472   -8.9459   23.2588 C   0  0  0  0  0  0  0  0  0  0  0  0
  -24.2392  -10.5686   24.9481 C   0  0  0  0  0  0  0  0  0  0  0  0
  -27.5420  -28.2720   19.0065 C   0  0  0  0  0  0  0  0  0  0  0  0
  -20.9733   -8.4876   25.2770 C   0  0  0  0  0  0  0  0  0  0  0  0
  -19.7651   -7.8131   25.1016 C   0  0  0  0  0  0  0  0  0  0  0  0
  -26.5966  -27.6541   21.1380 C   0  0  0  0  0  0  0  0  0  0  0  0
  -28.4775  -20.5940   19.3322 C   0  0  0  0  0  0  0  0  0  0  0  0
  -20.9348   -5.7002   25.1699 C   0  0  0  0  0  0  0  0  0  0  0  0
  -24.5349  -11.0969   22.6092 C   0  0  0  0  0  0  0  0  0  0  0  0
  -24.1434  -12.9826   20.9363 C   0  0  0  0  0  0  0  0  0  0  0  0
  -28.7529  -36.3338   22.9045 C   0  0  0  0  0  0  0  0  0  0  0  0
  -26.3180  -29.9125   20.3124 C   0  0  0  0  0  0  0  0  0  0  0  0
  -28.8856  -35.0022   22.4667 C   0  0  0  0  0  0  0  0  0  0  0  0
  -26.0826  -28.9492   21.3037 C   0  0  0  0  0  0  0  0  0  0  0  0
  -29.7962  -21.0419   19.2552 C   0  0  0  0  0  0  0  0  0  0  0  0
  -29.2365  -18.3149   19.0744 C   0  0  0  0  0  0  0  0  0  0  0  0
  -28.1976  -19.2305   19.2418 C   0  0  0  0  0  0  0  0  0  0  0  0
  -23.7460   -9.3106   24.6015 C   0  0  0  0  0  0  0  0  0  0  0  0
  -27.3237  -27.3182   19.9963 C   0  0  0  0  0  0  0  0  0  0  0  0
  -22.1623   -7.7684   25.3989 C   0  0  0  0  0  0  0  0  0  0  0  0
  -19.7458   -6.4194   25.0480 C   0  0  0  0  0  0  0  0  0  0  0  0
  -22.1430   -6.3747   25.3453 C   0  0  0  0  0  0  0  0  0  0  0  0
  -24.9431  -12.0197   21.5806 C   0  0  0  0  0  0  0  0  0  0  0  0
  -24.9933  -13.5970   20.0494 C   0  0  0  0  0  0  0  0  0  0  0  0
  -31.1607  -24.4298   19.4222 C   0  0  0  0  0  0  0  0  0  0  0  0
  -29.7562  -24.7191   19.5679 C   0  0  0  0  0  0  0  0  0  0  0  0
  -31.3634  -22.9609   19.2807 C   0  0  0  0  0  0  0  0  0  0  0  0
  -32.1999  -25.2704   19.4030 C   0  0  0  0  0  0  0  0  0  0  0  0
  -29.1667  -25.9052   19.7184 C   0  0  0  0  0  0  0  0  0  1  0  0
  -22.7563  -13.2938   21.1229 C   0  0  0  0  0  0  0  0  0  0  0  0
  -26.7324  -32.0062   22.6679 C   0  0  0  0  0  0  0  0  0  0  0  0
  -23.7728  -31.0122   23.5482 C   0  0  0  0  0  0  0  0  0  0  0  0
  -21.3918  -28.5689   23.4600 C   0  0  0  0  0  0  0  0  0  0  0  0
  -29.9092  -15.9012   18.8134 C   0  0  0  0  0  0  0  0  0  0  0  0
  -28.0944  -36.6753   24.2177 C   0  0  0  0  0  0  0  0  0  0  0  0
  -25.7583  -31.3016   20.4519 C   0  0  0  0  0  0  0  0  0  0  0  0
  -25.2982  -29.2684   22.5493 C   0  0  0  0  0  0  0  0  0  0  0  0
  -29.0306  -23.4085   19.5206 C   0  0  0  0  0  0  0  0  0  0  0  0
  -27.2311  -35.5477   24.7776 C   0  0  0  0  0  0  0  0  0  0  0  0
  -29.6738  -12.3566   18.5743 C   0  0  0  0  0  0  0  0  0  0  0  0
  -27.9755  -34.2183   24.7034 C   0  0  0  0  0  0  0  0  0  0  0  0
  -28.3563  -12.0322   19.2821 C   0  0  0  0  0  0  0  0  0  0  0  0
  -30.4136  -13.5080   19.2529 C   0  0  0  0  0  0  0  0  0  0  0  0
  -28.3025  -14.4042   20.1524 C   0  0  0  0  0  0  0  0  0  0  0  0
  -28.3002  -33.8481   23.2512 C   0  0  1  0  0  0  0  0  0  0  0  0
  -25.4797  -31.6909   21.9004 C   0  0  1  0  0  0  0  0  0  0  0  0
  -27.4902  -13.2937   19.4666 C   0  0  2  0  0  0  0  0  0  0  0  0
  -19.0911  -28.0290   24.3044 C   0  0  0  0  0  0  0  0  0  0  0  0
  -24.9258  -30.4352   26.3137 C   0  0  0  0  0  0  0  0  0  0  0  0
  -22.8960  -29.0507   26.7945 C   0  0  0  0  0  0  0  0  0  0  0  0
  -22.6582  -31.4897   26.3281 C   0  0  0  0  0  0  0  0  0  0  0  0
  -20.3085  -28.3536   20.7143 C   0  0  0  0  0  0  0  0  0  0  0  0
  -23.2329  -29.9160   24.4347 C   0  0  1  0  0  0  0  0  0  0  0  0
  -19.9038  -28.6227   23.1643 C   0  0  2  0  0  0  0  0  0  0  0  0
  -23.4447  -30.2171   25.9453 C   0  0  0  0  0  0  0  0  0  0  0  0
  -26.2041  -12.0186   21.1404 N   0  0  0  0  0  0  0  0  0  0  0  0
  -26.2032  -12.9883   20.2099 N   0  0  0  0  0  0  0  0  0  0  0  0
  -30.0757  -22.4018   19.3455 N   0  0  0  0  0  0  0  0  0  0  0  0
  -24.7770  -30.6422   22.6424 N   0  0  0  0  0  0  0  0  0  0  0  0
  -29.5324  -14.6698   19.3898 N   0  0  0  0  0  0  0  0  0  0  0  0
  -26.8546  -18.7985   19.3226 N   0  0  0  0  0  0  0  0  0  0  0  0
  -24.8162  -14.5931   19.1556 N   0  0  0  0  0  0  0  0  0  0  0  0
  -22.0305  -12.5658   22.0755 N   0  0  0  0  0  0  0  0  0  0  0  0
  -28.9772  -16.9251   18.9803 N   0  0  0  0  0  0  0  0  0  0  0  0
  -27.1240  -33.3289   22.5868 N   0  0  0  0  0  0  0  0  0  0  0  0
  -21.8372  -29.7318   24.0520 N   0  0  0  0  0  0  0  0  0  0  0  0
  -19.5949  -27.8615   21.9208 N   0  3  0  0  0  0  0  0  0  0  0  0
  -32.4349  -22.3956   19.1399 O   0  0  0  0  0  0  0  0  0  0  0  0
  -22.1736  -14.1798   20.4527 O   0  0  0  0  0  0  0  0  0  0  0  0
  -27.3008  -31.1157   23.2888 O   0  0  0  0  0  0  0  0  0  0  0  0
  -23.3153  -32.1532   23.6506 O   0  0  0  0  0  0  0  0  0  0  0  0
  -22.0885  -27.5915   23.1959 O   0  0  0  0  0  0  0  0  0  0  0  0
  -30.9673  -16.0303   18.1923 O   0  0  0  0  0  0  0  0  0  0  0  0
  -23.3609   -8.4395   25.5738 O   0  0  0  0  0  0  0  0  0  0  0  0
  -27.8148  -26.0578   19.8481 O   0  0  0  0  0  0  0  0  0  1  0  0
  -18.5853   -5.7717   24.8810 F   0  0  0  0  0  0  0  0  0  0  0  0
  -23.2819   -5.6783   25.4629 F   0  0  0  0  0  0  0  0  0  0  0  0
  1  2  1  0  0  0  0
  1  5  2  0  0  0  0
  2  6  2  0  0  0  0
  3 10  2  0  0  0  0
  3 18  1  0  0  0  0
  4 11  1  0  0  0  0
  4 18  2  0  0  0  0
  5 20  1  0  0  0  0
  6 22  1  0  0  0  0
  7 12  2  0  0  0  0
  7 21  1  0  0  0  0
  8  9  2  0  0  0  0
  8 24  1  0  0  0  0
  9 25  1  0  0  0  0
 10 27  1  0  0  0  0
 11 27  2  0  0  0  0
 12 28  1  0  0  0  0
 13 14  2  0  0  0  0
 13 29  1  0  0  0  0
 14 30  1  0  0  0  0
 15 23  1  0  0  0  0
 15 28  2  0  0  0  0
 16 24  2  0  0  0  0
 16 26  1  0  0  0  0
 17 30  2  0  0  0  0
 17 31  1  0  0  0  0
 18 32  1  0  0  0  0
 19 32  1  0  0  0  0
 19 33  2  0  0  0  0
 19 39  1  0  0  0  0
 20 22  2  0  0  0  0
 20 44  1  0  0  0  0
 21 23  2  0  0  0  0
 21 45  1  0  0  0  0
 22 54  1  0  0  0  0
 23 46  1  0  0  0  0
 24 67  1  0  0  0  0
 25 26  2  0  0  0  0
 25 73  1  0  0  0  0
 26 70  1  0  0  0  0
 27 83  1  0  0  0  0
 28 84  1  0  0  0  0
 29 31  2  0  0  0  0
 29 83  1  0  0  0  0
 30 85  1  0  0  0  0
 31 86  1  0  0  0  0
 32 65  2  0  0  0  0
 33 66  1  0  0  0  0
 33 71  1  0  0  0  0
 34 35  1  0  0  0  0
 34 36  1  0  0  0  0
 34 37  2  0  0  0  0
 35 38  2  0  0  0  0
 35 47  1  0  0  0  0
 36 67  1  0  0  0  0
 36 77  2  0  0  0  0
 38 84  1  0  0  0  0
 39 72  1  0  0  0  0
 39 78  2  0  0  0  0
 40 55  1  0  0  0  0
 40 74  1  0  0  0  0
 40 79  2  0  0  0  0
 41 62  1  0  0  0  0
 41 68  1  0  0  0  0
 41 80  2  0  0  0  0
 42 63  1  0  0  0  0
 42 75  1  0  0  0  0
 42 81  2  0  0  0  0
 43 69  1  0  0  0  0
 43 73  1  0  0  0  0
 43 82  2  0  0  0  0
 44 48  1  0  0  0  0
 45 55  1  0  0  0  0
 46 68  1  0  0  0  0
 47 67  1  0  0  0  0
 48 50  1  0  0  0  0
 49 51  1  0  0  0  0
 49 52  1  0  0  0  0
 50 54  1  0  0  0  0
 51 56  1  0  0  0  0
 52 69  1  0  0  0  0
 53 56  1  0  0  0  0
 53 69  1  0  0  0  0
 54 74  1  0  0  0  0
 55 68  1  0  0  0  0
 56 66  1  0  0  0  0
 57 63  1  0  0  0  0
 58 64  1  0  0  0  0
 59 64  1  0  0  0  0
 60 64  1  0  0  0  0
 61 76  1  0  0  0  0
 62 64  1  0  0  0  0
 62 75  1  0  0  0  0
 63 76  1  0  0  0  0
 65 66  1  0  0  0  0
M  CHG  1  76   1
M  ISO  4  38 101  43 100  73 100  84 101
M  END
> <Batch ID>
0078

> <Smiles>
C=C1C(=O)N(c2ccc([100NH:0][100C:0](=O)N3CCCC(n4nc(-c5ccc(Oc6ccc(F)cc6F)cc5)c(C(N)=O)c4N)C3)c(N)c2)CC1=[101CH:1][101O:1]c1ccc2c(c1)CN(C(=O)C(NC(=O)C(C)NC)C(C)(C)C)C(C(=O)NC1CCCc3ccccc31)C2

> <Shape>
0.315

> <Color>
0.125

> <Negative vol penalty>
0.000

$$$$

  -OEChem-04042323563D

 86 95  0     1  0  0  0  0  0999 V2000
  -29.3820  -31.2586   26.7083 C   0  0  0  0  0  0  0  0  0  0  0  0
  -29.0329  -30.2282   25.8413 C   0  0  0  0  0  0  0  0  0  0  0  0
  -23.1183  -10.1097   20.7524 C   0  0  0  0  0  0  0  0  0  0  0  0
  -24.6138   -8.8435   22.1656 C   0  0  0  0  0  0  0  0  0  0  0  0
  -28.4057  -32.1404   27.1701 C   0  0  0  0  0  0  0  0  0  0  0  0
  -27.7069  -30.0782   25.4365 C   0  0  0  0  0  0  0  0  0  0  0  0
  -27.2797  -29.2076   20.4661 C   0  0  0  0  0  0  0  0  0  0  0  0
  -27.8338  -20.4549   19.1400 C   0  0  0  0  0  0  0  0  0  0  0  0
  -28.0419  -19.8217   16.8178 C   0  0  0  0  0  0  0  0  0  0  0  0
  -28.0805  -19.1362   19.5217 C   0  0  0  0  0  0  0  0  0  0  0  0
  -28.2887  -18.5030   17.1995 C   0  0  0  0  0  0  0  0  0  0  0  0
  -22.2657   -9.0091   20.6684 C   0  0  0  0  0  0  0  0  0  0  0  0
  -23.7612   -7.7428   22.0816 C   0  0  0  0  0  0  0  0  0  0  0  0
  -27.5544  -27.9155   20.0201 C   0  0  0  0  0  0  0  0  0  0  0  0
  -20.8582   -6.7302   23.4845 C   0  0  0  0  0  0  0  0  0  0  0  0
  -20.5723   -6.0425   24.6638 C   0  0  0  0  0  0  0  0  0  0  0  0
  -25.1891  -27.4504   19.9295 C   0  0  0  0  0  0  0  0  0  0  0  0
  -21.5125   -4.0283   23.7171 C   0  0  0  0  0  0  0  0  0  0  0  0
  -24.2924  -10.0270   21.5009 C   0  0  0  0  0  0  0  0  0  0  0  0
  -25.1408  -12.1938   22.5462 C   0  0  0  0  0  0  0  0  0  0  0  0
  -27.0689  -32.0070   26.7631 C   0  0  0  0  0  0  0  0  0  0  0  0
  -25.9557  -29.6279   20.6579 C   0  0  0  0  0  0  0  0  0  0  0  0
  -26.7116  -30.9582   25.8944 C   0  0  0  0  0  0  0  0  0  0  0  0
  -24.9002  -28.7491   20.3756 C   0  0  0  0  0  0  0  0  0  0  0  0
  -27.8145  -20.7977   17.7881 C   0  0  0  0  0  0  0  0  0  0  0  0
  -28.3079  -18.1602   18.5515 C   0  0  0  0  0  0  0  0  0  0  0  0
  -22.5871   -7.8256   21.3330 C   0  0  0  0  0  0  0  0  0  0  0  0
  -26.5092  -27.0357   19.7545 C   0  0  0  0  0  0  0  0  0  0  0  0
  -21.4712   -6.0670   22.4214 C   0  0  0  0  0  0  0  0  0  0  0  0
  -20.8994   -4.6915   24.7802 C   0  0  0  0  0  0  0  0  0  0  0  0
  -21.7984   -4.7161   22.5378 C   0  0  0  0  0  0  0  0  0  0  0  0
  -25.1739  -11.1634   21.5876 C   0  0  0  0  0  0  0  0  0  0  0  0
  -26.1772  -13.0236   22.1944 C   0  0  0  0  0  0  0  0  0  0  0  0
  -27.1206  -24.3701   17.4358 C   0  0  0  0  0  0  0  0  0  0  0  0
  -27.2439  -24.0018   16.0477 C   0  0  0  0  0  0  0  0  0  0  0  0
  -27.3265  -23.1729   18.2977 C   0  0  0  0  0  0  0  0  0  0  0  0
  -27.1290  -24.7827   14.9681 C   0  0  0  0  0  0  0  0  0  0  0  0
  -26.8651  -25.5633   17.9724 C   0  0  0  0  0  0  0  0  0  1  0  0
  -24.2526  -12.3838   23.6556 C   0  0  0  0  0  0  0  0  0  0  0  0
  -24.2555  -30.6164   23.1551 C   0  0  0  0  0  0  0  0  0  0  0  0
  -21.9950  -31.1812   20.8983 C   0  0  0  0  0  0  0  0  0  0  0  0
  -20.7448  -30.4598   17.8058 C   0  0  0  0  0  0  0  0  0  0  0  0
  -28.7969  -15.7859   17.9870 C   0  0  0  0  0  0  0  0  0  0  0  0
  -26.0405  -32.9558   27.3263 C   0  0  0  0  0  0  0  0  0  0  0  0
  -25.6753  -31.0335   21.1140 C   0  0  0  0  0  0  0  0  0  0  0  0
  -23.4607  -29.1580   20.5459 C   0  0  0  0  0  0  0  0  0  0  0  0
  -27.5359  -22.5322   16.0074 C   0  0  0  0  0  0  0  0  0  0  0  0
  -24.7238  -32.9553   26.5539 C   0  0  0  0  0  0  0  0  0  0  0  0
  -29.9428  -12.3973   18.8895 C   0  0  0  0  0  0  0  0  0  0  0  0
  -24.2671  -31.5263   26.2783 C   0  0  0  0  0  0  0  0  0  0  0  0
  -28.7679  -11.8435   19.6939 C   0  0  0  0  0  0  0  0  0  0  0  0
  -29.4865  -13.4108   17.8443 C   0  0  0  0  0  0  0  0  0  0  0  0
  -27.5010  -13.9760   19.2113 C   0  0  0  0  0  0  0  0  0  0  0  0
  -25.2883  -30.7779   25.4130 C   0  0  1  0  0  0  0  0  0  0  0  0
  -24.3049  -31.1879   21.7663 C   0  0  1  0  0  0  0  0  0  0  0  0
  -27.9331  -12.9840   20.3017 C   0  0  1  0  0  0  0  0  0  0  0  0
  -18.8657  -31.0551   16.2527 C   0  0  0  0  0  0  0  0  0  0  0  0
  -20.0793  -29.5000   22.5756 C   0  0  0  0  0  0  0  0  0  0  0  0
  -18.5814  -29.3376   20.5760 C   0  0  0  0  0  0  0  0  0  0  0  0
  -19.0672  -31.5640   21.5909 C   0  0  0  0  0  0  0  0  0  0  0  0
  -28.8196  -16.5123   20.3623 C   0  0  0  0  0  0  0  0  0  0  0  0
  -22.6145  -31.4502   15.7364 C   0  0  0  0  0  0  0  0  0  0  0  0
  -20.8756  -30.3775   20.2817 C   0  0  1  0  0  0  0  0  0  0  0  0
  -20.2979  -31.3569   16.6656 C   0  0  2  0  0  0  0  0  0  0  0  0
  -19.6779  -30.1861   21.2546 C   0  0  0  0  0  0  0  0  0  0  0  0
  -26.1537  -11.3221   20.6937 N   0  0  0  0  0  0  0  0  0  0  0  0
  -26.7457  -12.4619   21.0892 N   0  0  0  0  0  0  0  0  0  0  0  0
  -27.5680  -22.1129   17.4072 N   0  0  0  0  0  0  0  0  0  0  0  0
  -23.2381  -30.5407   21.0001 N   0  0  0  0  0  0  0  0  0  0  0  0
  -28.6572  -14.4588   18.4406 N   0  0  0  0  0  0  0  0  0  0  0  0
  -26.6485  -14.1717   22.7256 N   0  0  0  0  0  0  0  0  0  0  0  0
  -23.2433  -11.4361   23.8734 N   0  0  0  0  0  0  0  0  0  0  0  0
  -25.1674  -31.1790   24.0277 N   0  0  0  0  0  0  0  0  0  0  0  0
  -20.5302  -31.0493   19.0336 N   0  0  0  0  0  0  0  0  0  0  0  0
  -28.5633  -16.7950   18.9462 N   0  0  0  0  0  0  0  0  0  0  0  0
  -21.1794  -31.1649   15.4794 N   0  3  0  0  0  0  0  0  0  0  0  0
  -27.2870  -23.1520   19.5165 O   0  0  0  0  0  0  0  0  0  0  0  0
  -24.3409  -13.3736   24.4212 O   0  0  0  0  0  0  0  0  0  0  0  0
  -23.4488  -29.7317   23.4160 O   0  0  0  0  0  0  0  0  0  0  0  0
  -21.7764  -32.3372   21.2691 O   0  0  0  0  0  0  0  0  0  0  0  0
  -21.2319  -29.3459   17.6253 O   0  0  0  0  0  0  0  0  0  0  0  0
  -29.1329  -16.0465   16.8257 O   0  0  0  0  0  0  0  0  0  0  0  0
  -21.7552   -6.7514   21.2515 O   0  0  0  0  0  0  0  0  0  0  0  0
  -26.7745  -25.7738   19.3197 O   0  0  0  0  0  0  0  0  0  1  0  0
  -20.6262   -4.0316   25.9133 F   0  0  0  0  0  0  0  0  0  0  0  0
  -22.3885   -4.0739   21.5203 F   0  0  0  0  0  0  0  0  0  0  0  0
  1  2  1  0  0  0  0
  1  5  2  0  0  0  0
  2  6  2  0  0  0  0
  3 12  2  0  0  0  0
  3 19  1  0  0  0  0
  4 13  1  0  0  0  0
  4 19  2  0  0  0  0
  5 21  1  0  0  0  0
  6 23  1  0  0  0  0
  7 14  2  0  0  0  0
  7 22  1  0  0  0  0
  8 10  2  0  0  0  0
  8 25  1  0  0  0  0
  9 11  1  0  0  0  0
  9 25  2  0  0  0  0
 10 26  1  0  0  0  0
 11 26  2  0  0  0  0
 12 27  1  0  0  0  0
 13 27  2  0  0  0  0
 14 28  1  0  0  0  0
 15 16  2  0  0  0  0
 15 29  1  0  0  0  0
 16 30  1  0  0  0  0
 17 24  1  0  0  0  0
 17 28  2  0  0  0  0
 18 30  2  0  0  0  0
 18 31  1  0  0  0  0
 19 32  1  0  0  0  0
 20 32  1  0  0  0  0
 20 33  2  0  0  0  0
 20 39  1  0  0  0  0
 21 23  2  0  0  0  0
 21 44  1  0  0  0  0
 22 24  2  0  0  0  0
 22 45  1  0  0  0  0
 23 54  1  0  0  0  0
 24 46  1  0  0  0  0
 25 68  1  0  0  0  0
 26 75  1  0  0  0  0
 27 83  1  0  0  0  0
 28 84  1  0  0  0  0
 29 31  2  0  0  0  0
 29 83  1  0  0  0  0
 30 85  1  0  0  0  0
 31 86  1  0  0  0  0
 32 66  2  0  0  0  0
 33 67  1  0  0  0  0
 33 71  1  0  0  0  0
 34 35  1  0  0  0  0
 34 36  1  0  0  0  0
 34 38  2  0  0  0  0
 35 37  2  0  0  0  0
 35 47  1  0  0  0  0
 36 68  1  0  0  0  0
 36 77  2  0  0  0  0
 38 84  1  0  0  0  0
 39 72  1  0  0  0  0
 39 78  2  0  0  0  0
 40 55  1  0  0  0  0
 40 73  1  0  0  0  0
 40 79  2  0  0  0  0
 41 63  1  0  0  0  0
 41 69  1  0  0  0  0
 41 80  2  0  0  0  0
 42 64  1  0  0  0  0
 42 74  1  0  0  0  0
 42 81  2  0  0  0  0
 43 70  1  0  0  0  0
 43 75  1  0  0  0  0
 43 82  2  0  0  0  0
 44 48  1  0  0  0  0
 45 55  1  0  0  0  0
 46 69  1  0  0  0  0
 47 68  1  0  0  0  0
 48 50  1  0  0  0  0
 49 51  1  0  0  0  0
 49 52  1  0  0  0  0
 50 54  1  0  0  0  0
 51 56  1  0  0  0  0
 52 70  1  0  0  0  0
 53 56  1  0  0  0  0
 53 70  1  0  0  0  0
 54 73  1  0  0  0  0
 55 69  1  0  0  0  0
 56 67  1  0  0  0  0
 57 64  1  0  0  0  0
 58 65  1  0  0  0  0
 59 65  1  0  0  0  0
 60 65  1  0  0  0  0
 61 75  1  0  0  0  0
 62 76  1  0  0  0  0
 63 65  1  0  0  0  0
 63 74  1  0  0  0  0
 64 76  1  0  0  0  0
 66 67  1  0  0  0  0
M  CHG  1  76   1
M  ISO  4  38 101  43 100  75 100  84 101
M  END
> <Batch ID>
0078

> <Smiles>
C=C1CN(c2ccc([100N:0](C)[100C:0](=O)N3CCCC(n4nc(-c5ccc(Oc6ccc(F)cc6F)cc5)c(C(N)=O)c4N)C3)cc2)C(=O)C1=[101CH:1][101O:1]c1ccc2c(c1)CN(C(=O)C(NC(=O)C(C)NC)C(C)(C)C)C(C(=O)NC1CCCc3ccccc31)C2

> <Shape>
0.306

> <Color>
0.135

> <Negative vol penalty>
0.000

$$$$

  -OEChem-04042323563D

 85 93  0     1  0  0  0  0  0999 V2000
  -17.6235  -25.6616   21.7059 C   0  0  0  0  0  0  0  0  0  0  0  0
  -18.9340  -25.5246   21.2595 C   0  0  0  0  0  0  0  0  0  0  0  0
  -23.4431  -10.3378   22.1665 C   0  0  0  0  0  0  0  0  0  0  0  0
  -22.8001  -12.5633   21.4806 C   0  0  0  0  0  0  0  0  0  0  0  0
  -30.6251  -19.2379   20.1935 C   0  0  0  0  0  0  0  0  0  0  0  0
  -28.4057  -19.4552   19.2640 C   0  0  0  0  0  0  0  0  0  0  0  0
  -17.1144  -26.9277   21.9914 C   0  0  0  0  0  0  0  0  0  0  0  0
  -19.7358  -26.6538   21.0973 C   0  0  0  0  0  0  0  0  0  0  0  0
  -24.3952  -26.0140   22.9750 C   0  0  0  0  0  0  0  0  0  0  0  0
  -30.5372  -17.8505   20.0791 C   0  0  0  0  0  0  0  0  0  0  0  0
  -28.3178  -18.0679   19.1495 C   0  0  0  0  0  0  0  0  0  0  0  0
  -22.4441  -10.3491   23.1399 C   0  0  0  0  0  0  0  0  0  0  0  0
  -21.8010  -12.5746   22.4540 C   0  0  0  0  0  0  0  0  0  0  0  0
  -25.2945  -25.2742   22.2084 C   0  0  0  0  0  0  0  0  0  0  0  0
  -19.0943   -9.9097   23.2764 C   0  0  0  0  0  0  0  0  0  0  0  0
  -18.2977   -8.7715   23.4009 C   0  0  0  0  0  0  0  0  0  0  0  0
  -26.2950  -27.3217   21.4172 C   0  0  0  0  0  0  0  0  0  0  0  0
  -19.0286   -8.5102   25.6889 C   0  0  0  0  0  0  0  0  0  0  0  0
  -23.6212  -11.4449   21.3369 C   0  0  0  0  0  0  0  0  0  0  0  0
  -29.5594  -20.0402   19.7860 C   0  0  0  0  0  0  0  0  0  0  0  0
  -24.5388  -10.9909   19.0004 C   0  0  0  0  0  0  0  0  0  0  0  0
  -17.9134  -28.0722   21.8420 C   0  0  0  0  0  0  0  0  0  0  0  0
  -24.4320  -27.4157   22.9600 C   0  0  0  0  0  0  0  0  0  0  0  0
  -19.2364  -27.9366   21.3799 C   0  0  0  0  0  0  0  0  0  0  0  0
  -25.3967  -28.0769   22.1865 C   0  0  0  0  0  0  0  0  0  0  0  0
  -29.3835  -17.2655   19.5571 C   0  0  0  0  0  0  0  0  0  0  0  0
  -21.6230  -11.4675   23.2836 C   0  0  0  0  0  0  0  0  0  0  0  0
  -26.2428  -25.9281   21.4271 C   0  0  0  0  0  0  0  0  0  0  0  0
  -19.8582  -10.3481   24.3581 C   0  0  0  0  0  0  0  0  0  0  0  0
  -18.2648   -8.0718   24.6072 C   0  0  0  0  0  0  0  0  0  0  0  0
  -19.8253   -9.6484   25.5643 C   0  0  0  0  0  0  0  0  0  0  0  0
  -24.6533  -11.4341   20.3316 C   0  0  0  0  0  0  0  0  0  0  0  0
  -25.7880  -11.1876   18.4643 C   0  0  0  0  0  0  0  0  0  0  0  0
  -26.7627  -24.8862   19.3986 C   0  0  0  0  0  0  0  0  0  1  0  0
  -29.6530  -21.5179   19.9080 C   0  0  0  0  0  0  0  0  0  0  0  0
  -23.4046  -10.4500   18.3100 C   0  0  0  0  0  0  0  0  0  0  0  0
  -27.5278  -24.1826   18.5475 C   0  0  0  0  0  0  0  0  0  0  0  0
  -22.4011  -29.7038   22.0976 C   0  0  0  0  0  0  0  0  0  0  0  0
  -24.6784  -31.6530   23.3372 C   0  0  0  0  0  0  0  0  0  0  0  0
  -27.9559  -32.1172   24.1674 C   0  0  0  0  0  0  0  0  0  0  0  0
  -30.2620  -14.9168   19.7989 C   0  0  0  0  0  0  0  0  0  0  0  0
  -17.3041  -29.4240   22.1179 C   0  0  0  0  0  0  0  0  0  0  0  0
  -23.4722  -28.1987   23.8133 C   0  0  0  0  0  0  0  0  0  0  0  0
  -25.4911  -29.5797   22.1513 C   0  0  0  0  0  0  0  0  0  0  0  0
  -18.3371  -30.5365   22.2780 C   0  0  0  0  0  0  0  0  0  0  0  0
  -30.4103  -11.3607   19.7046 C   0  0  0  0  0  0  0  0  0  0  0  0
  -19.3782  -30.4624   21.1656 C   0  0  0  0  0  0  0  0  0  0  0  0
  -28.9403  -10.9358   19.7274 C   0  0  0  0  0  0  0  0  0  0  0  0
  -30.6588  -12.5903   20.5765 C   0  0  0  0  0  0  0  0  0  0  0  0
  -28.3183  -13.3136   20.3159 C   0  0  0  0  0  0  0  0  0  0  0  0
  -20.1451  -29.1355   21.2152 C   0  0  1  0  0  0  0  0  0  0  0  0
  -23.2670  -29.6288   23.3233 C   0  0  1  0  0  0  0  0  0  0  0  0
  -28.0068  -12.1180   19.4009 C   0  0  2  0  0  0  0  0  0  0  0  0
  -27.0770  -23.8580   17.1472 C   0  0  0  0  0  0  0  0  0  0  0  0
  -30.0315  -24.2237   18.1180 C   0  0  0  0  0  0  0  0  0  0  0  0
  -29.5217  -33.8272   25.1273 C   0  0  0  0  0  0  0  0  0  0  0  0
  -24.6550  -33.1601   20.6843 C   0  0  0  0  0  0  0  0  0  0  0  0
  -26.8358  -34.2023   21.3370 C   0  0  0  0  0  0  0  0  0  0  0  0
  -24.7960  -34.6182   22.7113 C   0  0  0  0  0  0  0  0  0  0  0  0
  -28.6450  -30.3714   26.4557 C   0  0  0  0  0  0  0  0  0  0  0  0
  -28.8942  -23.6928   18.9860 C   0  0  2  0  0  0  0  0  0  0  0  0
  -25.9036  -32.3470   22.7928 C   0  0  1  0  0  0  0  0  0  0  0  0
  -28.6096  -32.6486   25.4302 C   0  0  2  0  0  0  0  0  0  0  0  0
  -25.5448  -33.5536   21.8803 C   0  0  0  0  0  0  0  0  0  0  0  0
  -25.8786  -11.8786   20.6235 N   0  0  0  0  0  0  0  0  0  0  0  0
  -26.5454  -11.7157   19.4681 N   0  0  0  0  0  0  0  0  0  0  0  0
  -24.5265  -30.3011   22.9980 N   0  0  0  0  0  0  0  0  0  0  0  0
  -29.7415  -13.6706   20.2074 N   0  0  0  0  0  0  0  0  0  0  0  0
  -26.3014  -10.9585   17.2370 N   0  0  0  0  0  0  0  0  0  0  0  0
  -22.1977  -10.3162   19.0099 N   0  0  0  0  0  0  0  0  0  0  0  0
  -29.2953  -15.8561   19.4412 N   0  0  0  0  0  0  0  0  0  0  0  0
  -28.8910  -22.2498   19.0095 N   0  0  0  0  0  0  0  0  0  0  0  0
  -21.1396  -29.1655   22.2662 N   0  0  0  0  0  0  0  0  0  0  0  0
  -26.7231  -32.6948   23.9486 N   0  0  0  0  0  0  0  0  0  0  0  0
  -29.4209  -31.5818   26.0819 N   0  3  0  0  0  0  0  0  0  0  0  0
  -30.3936  -22.0040   20.7587 O   0  0  0  0  0  0  0  0  0  0  0  0
  -23.4641  -10.0805   17.1127 O   0  0  0  0  0  0  0  0  0  0  0  0
  -22.8441  -30.2136   21.0751 O   0  0  0  0  0  0  0  0  0  0  0  0
  -23.8890  -32.2851   24.0436 O   0  0  0  0  0  0  0  0  0  0  0  0
  -28.4875  -31.2768   23.4452 O   0  0  0  0  0  0  0  0  0  0  0  0
  -31.4765  -15.1259   19.7427 O   0  0  0  0  0  0  0  0  0  0  0  0
  -20.6479  -11.4787   24.2331 O   0  0  0  0  0  0  0  0  0  0  0  0
  -27.1214  -25.2085   20.6773 O   0  0  0  0  0  0  0  0  0  1  0  0
  -17.4986   -6.9797   24.7271 F   0  0  0  0  0  0  0  0  0  0  0  0
  -20.5560  -10.0655   26.6073 F   0  0  0  0  0  0  0  0  0  0  0  0
  1  2  1  0  0  0  0
  1  7  2  0  0  0  0
  2  8  2  0  0  0  0
  3 12  2  0  0  0  0
  3 19  1  0  0  0  0
  4 13  1  0  0  0  0
  4 19  2  0  0  0  0
  5 10  2  0  0  0  0
  5 20  1  0  0  0  0
  6 11  1  0  0  0  0
  6 20  2  0  0  0  0
  7 22  1  0  0  0  0
  8 24  1  0  0  0  0
  9 14  2  0  0  0  0
  9 23  1  0  0  0  0
 10 26  1  0  0  0  0
 11 26  2  0  0  0  0
 12 27  1  0  0  0  0
 13 27  2  0  0  0  0
 14 28  1  0  0  0  0
 15 16  2  0  0  0  0
 15 29  1  0  0  0  0
 16 30  1  0  0  0  0
 17 25  1  0  0  0  0
 17 28  2  0  0  0  0
 18 30  2  0  0  0  0
 18 31  1  0  0  0  0
 19 32  1  0  0  0  0
 20 35  1  0  0  0  0
 21 32  1  0  0  0  0
 21 33  2  0  0  0  0
 21 36  1  0  0  0  0
 22 24  2  0  0  0  0
 22 42  1  0  0  0  0
 23 25  2  0  0  0  0
 23 43  1  0  0  0  0
 24 51  1  0  0  0  0
 25 44  1  0  0  0  0
 26 71  1  0  0  0  0
 27 82  1  0  0  0  0
 28 83  1  0  0  0  0
 29 31  2  0  0  0  0
 29 82  1  0  0  0  0
 30 84  1  0  0  0  0
 31 85  1  0  0  0  0
 32 65  2  0  0  0  0
 33 66  1  0  0  0  0
 33 69  1  0  0  0  0
 34 37  2  0  0  0  0
 34 83  1  0  0  0  0
 35 72  1  0  0  0  0
 35 76  2  0  0  0  0
 36 70  1  0  0  0  0
 36 77  2  0  0  0  0
 37 54  1  0  0  0  0
 37 61  1  0  0  0  0
 38 52  1  0  0  0  0
 38 73  1  0  0  0  0
 38 78  2  0  0  0  0
 39 62  1  0  0  0  0
 39 67  1  0  0  0  0
 39 79  2  0  0  0  0
 40 63  1  0  0  0  0
 40 74  1  0  0  0  0
 40 80  2  0  0  0  0
 41 68  1  0  0  0  0
 41 71  1  0  0  0  0
 41 81  2  0  0  0  0
 42 45  1  0  0  0  0
 43 52  1  0  0  0  0
 44 67  1  0  0  0  0
 45 47  1  0  0  0  0
 46 48  1  0  0  0  0
 46 49  1  0  0  0  0
 47 51  1  0  0  0  0
 48 53  1  0  0  0  0
 49 68  1  0  0  0  0
 50 53  1  0  0  0  0
 50 68  1  0  0  0  0
 51 73  1  0  0  0  0
 52 67  1  0  0  0  0
 53 66  1  0  0  0  0
 55 61  1  0  0  0  0
 56 63  1  0  0  0  0
 57 64  1  0  0  0  0
 58 64  1  0  0  0  0
 59 64  1  0  0  0  0
 60 75  1  0  0  0  0
 61 72  1  0  0  0  0
 62 64  1  0  0  0  0
 62 74  1  0  0  0  0
 63 75  1  0  0  0  0
 65 66  1  0  0  0  0
M  CHG  1  75   1
M  ISO  4  34 101  41 100  71 100  83 101
M  END
> <Batch ID>
0078

> <Smiles>
CNC(C)C(=O)NC(C(=O)N1Cc2cc([101O:1][101CH:1]=C(C)C(C)NC(=O)c3ccc([100NH:0][100C:0](=O)N4CCCC(n5nc(-c6ccc(Oc7ccc(F)cc7F)cc6)c(C(N)=O)c5N)C4)cc3)ccc2CC1C(=O)NC1CCCc2ccccc21)C(C)(C)C

> <Shape>
0.290

> <Color>
0.080

> <Negative vol penalty>
0.000

$$$$

  -OEChem-04042323563D

 82 90  0     1  0  0  0  0  0999 V2000
  -31.8937  -33.6814   22.1636 C   0  0  0  0  0  0  0  0  0  0  0  0
  -31.3842  -32.7158   21.3014 C   0  0  0  0  0  0  0  0  0  0  0  0
  -24.5273   -9.2677   21.6107 C   0  0  0  0  0  0  0  0  0  0  0  0
  -24.0627  -10.8704   23.3578 C   0  0  0  0  0  0  0  0  0  0  0  0
  -31.3857  -33.7975   23.4568 C   0  0  0  0  0  0  0  0  0  0  0  0
  -30.3670  -31.8649   21.7324 C   0  0  0  0  0  0  0  0  0  0  0  0
  -25.7753  -29.6141   18.3625 C   0  0  0  0  0  0  0  0  0  0  0  0
  -24.1136   -8.2331   22.4497 C   0  0  0  0  0  0  0  0  0  0  0  0
  -23.6489   -9.8357   24.1969 C   0  0  0  0  0  0  0  0  0  0  0  0
  -25.5918  -28.3863   17.7280 C   0  0  0  0  0  0  0  0  0  0  0  0
  -21.1912   -6.9042   23.5111 C   0  0  0  0  0  0  0  0  0  0  0  0
  -20.3483   -5.9315   22.9737 C   0  0  0  0  0  0  0  0  0  0  0  0
  -24.3397  -27.5961   19.6325 C   0  0  0  0  0  0  0  0  0  0  0  0
  -21.9927   -4.2323   23.4696 C   0  0  0  0  0  0  0  0  0  0  0  0
  -24.5019  -10.5864   22.0648 C   0  0  0  0  0  0  0  0  0  0  0  0
  -24.1326  -12.3974   20.3065 C   0  0  0  0  0  0  0  0  0  0  0  0
  -30.3551  -32.9540   23.9006 C   0  0  0  0  0  0  0  0  0  0  0  0
  -25.2508  -29.8388   19.6434 C   0  0  0  0  0  0  0  0  0  0  0  0
  -29.8456  -31.9690   23.0332 C   0  0  0  0  0  0  0  0  0  0  0  0
  -24.5158  -28.8285   20.2800 C   0  0  0  0  0  0  0  0  0  0  0  0
  -23.6744   -8.5171   23.7428 C   0  0  0  0  0  0  0  0  0  0  0  0
  -24.8764  -27.3761   18.3642 C   0  0  0  0  0  0  0  0  0  0  0  0
  -22.4350   -6.5410   24.0278 C   0  0  0  0  0  0  0  0  0  0  0  0
  -20.7490   -4.5956   22.9529 C   0  0  0  0  0  0  0  0  0  0  0  0
  -22.8357   -5.2051   24.0071 C   0  0  0  0  0  0  0  0  0  0  0  0
  -24.9297  -11.6555   21.1987 C   0  0  0  0  0  0  0  0  0  0  0  0
  -25.0039  -13.2855   19.7247 C   0  0  0  0  0  0  0  0  0  0  0  0
  -26.6427  -19.6388   19.4696 C   0  0  0  0  0  0  0  0  0  0  0  0
  -25.0772  -23.8185   17.8732 C   0  0  0  0  0  0  0  0  0  0  0  0
  -25.1823  -25.0572   18.3629 C   0  0  0  0  0  0  0  0  0  1  0  0
  -22.7299  -12.2931   20.0285 C   0  0  0  0  0  0  0  0  0  0  0  0
  -25.6426  -22.6633   18.6247 C   0  0  0  0  0  0  0  0  0  0  0  0
  -26.4948  -30.5093   22.4907 C   0  0  0  0  0  0  0  0  0  0  0  0
  -23.3806  -30.8129   23.3463 C   0  0  0  0  0  0  0  0  0  0  0  0
  -20.1190  -30.0087   22.7444 C   0  0  0  0  0  0  0  0  0  0  0  0
  -29.1909  -16.9552   20.1082 C   0  0  0  0  0  0  0  0  0  0  0  0
  -29.8707  -33.0860   25.3228 C   0  0  0  0  0  0  0  0  0  0  0  0
  -25.4347  -31.1779   20.3032 C   0  0  0  0  0  0  0  0  0  0  0  0
  -23.9150  -29.0263   21.6469 C   0  0  0  0  0  0  0  0  0  0  0  0
  -28.5346  -32.3932   25.5780 C   0  0  0  0  0  0  0  0  0  0  0  0
  -30.0554  -13.5102   19.8611 C   0  0  0  0  0  0  0  0  0  0  0  0
  -28.5368  -30.9914   24.9767 C   0  0  0  0  0  0  0  0  0  0  0  0
  -28.7350  -12.7823   20.1195 C   0  0  0  0  0  0  0  0  0  0  0  0
  -28.5541  -19.2531   18.0885 C   0  0  0  0  0  0  0  0  0  0  0  0
  -30.1831  -14.7685   20.7168 C   0  0  0  0  0  0  0  0  0  0  0  0
  -27.8311  -20.4998   17.6114 C   0  0  0  0  0  0  0  0  0  0  0  0
  -27.7323  -14.9816   20.8655 C   0  0  0  0  0  0  0  0  0  0  0  0
  -28.7250  -31.0438   23.4557 C   0  0  1  0  0  0  0  0  0  0  0  0
  -28.0495  -19.0784   19.5179 C   0  0  2  0  0  0  0  0  0  0  0  0
  -25.2962  -31.1201   21.8214 C   0  0  1  0  0  0  0  0  0  0  0  0
  -27.5330  -13.7364   19.9846 C   0  0  2  0  0  0  0  0  0  0  0  0
  -17.8025  -30.3767   23.6364 C   0  0  0  0  0  0  0  0  0  0  0  0
  -23.9369  -28.8335   25.6007 C   0  0  0  0  0  0  0  0  0  0  0  0
  -21.4647  -28.5176   25.8395 C   0  0  0  0  0  0  0  0  0  0  0  0
  -22.4782  -30.7612   26.2414 C   0  0  0  0  0  0  0  0  0  0  0  0
  -19.2348  -31.3087   20.2370 C   0  0  0  0  0  0  0  0  0  0  0  0
  -25.4682  -21.3058   17.9802 C   0  0  0  0  0  0  0  0  0  0  0  0
  -22.3218  -29.8772   23.8779 C   0  0  1  0  0  0  0  0  0  0  0  0
  -18.8681  -30.8652   22.6676 C   0  0  2  0  0  0  0  0  0  0  0  0
  -22.5633  -29.4927   25.3649 C   0  0  0  0  0  0  0  0  0  0  0  0
  -26.2091  -12.0389   21.1880 N   0  0  0  0  0  0  0  0  0  0  0  0
  -26.2226  -13.0313   20.2819 N   0  0  0  0  0  0  0  0  0  0  0  0
  -26.5900  -20.4709   18.3513 N   0  0  0  0  0  0  0  0  0  0  0  0
  -24.1276  -30.3508   22.2534 N   0  0  0  0  0  0  0  0  0  0  0  0
  -29.0121  -15.6312   20.5417 N   0  0  0  0  0  0  0  0  0  0  0  0
  -24.8389  -14.2512   18.7960 N   0  0  0  0  0  0  0  0  0  0  0  0
  -21.9827  -11.3265   20.7154 N   0  0  0  0  0  0  0  0  0  0  0  0
  -27.4871  -31.4178   22.8058 N   0  0  0  0  0  0  0  0  0  0  0  0
  -21.0400  -30.5280   23.6295 N   0  0  0  0  0  0  0  0  0  0  0  0
  -28.0286  -17.7025   19.9621 N   0  0  0  0  0  0  0  0  0  0  0  0
  -18.3013  -30.8318   21.2897 N   0  3  0  0  0  0  0  0  0  0  0  0
  -25.7651  -19.4295   20.2937 O   0  0  0  0  0  0  0  0  0  0  0  0
  -22.1593  -13.0240   19.1837 O   0  0  0  0  0  0  0  0  0  0  0  0
  -26.2503  -22.8172   19.6819 O   0  0  0  0  0  0  0  0  0  0  0  0
  -26.5169  -29.3032   22.7066 O   0  0  0  0  0  0  0  0  0  0  0  0
  -23.5342  -31.9160   23.8765 O   0  0  0  0  0  0  0  0  0  0  0  0
  -20.2632  -28.9797   22.0879 O   0  0  0  0  0  0  0  0  0  0  0  0
  -30.3035  -17.4342   19.8641 O   0  0  0  0  0  0  0  0  0  0  0  0
  -23.2704   -7.5078   24.5617 O   0  0  0  0  0  0  0  0  0  0  0  0
  -24.6963  -26.1765   17.7474 O   0  0  0  0  0  0  0  0  0  1  0  0
  -19.9387   -3.6614   22.4382 F   0  0  0  0  0  0  0  0  0  0  0  0
  -24.0289   -4.8500   24.5030 F   0  0  0  0  0  0  0  0  0  0  0  0
  1  2  1  0  0  0  0
  1  5  2  0  0  0  0
  2  6  2  0  0  0  0
  3  8  2  0  0  0  0
  3 15  1  0  0  0  0
  4  9  1  0  0  0  0
  4 15  2  0  0  0  0
  5 17  1  0  0  0  0
  6 19  1  0  0  0  0
  7 10  2  0  0  0  0
  7 18  1  0  0  0  0
  8 21  1  0  0  0  0
  9 21  2  0  0  0  0
 10 22  1  0  0  0  0
 11 12  2  0  0  0  0
 11 23  1  0  0  0  0
 12 24  1  0  0  0  0
 13 20  1  0  0  0  0
 13 22  2  0  0  0  0
 14 24  2  0  0  0  0
 14 25  1  0  0  0  0
 15 26  1  0  0  0  0
 16 26  1  0  0  0  0
 16 27  2  0  0  0  0
 16 31  1  0  0  0  0
 17 19  2  0  0  0  0
 17 37  1  0  0  0  0
 18 20  2  0  0  0  0
 18 38  1  0  0  0  0
 19 48  1  0  0  0  0
 20 39  1  0  0  0  0
 21 79  1  0  0  0  0
 22 80  1  0  0  0  0
 23 25  2  0  0  0  0
 23 79  1  0  0  0  0
 24 81  1  0  0  0  0
 25 82  1  0  0  0  0
 26 61  2  0  0  0  0
 27 62  1  0  0  0  0
 27 66  1  0  0  0  0
 28 49  1  0  0  0  0
 28 63  1  0  0  0  0
 28 72  2  0  0  0  0
 29 30  2  0  0  0  0
 29 32  1  0  0  0  0
 30 80  1  0  0  0  0
 31 67  1  0  0  0  0
 31 73  2  0  0  0  0
 32 57  1  0  0  0  0
 32 74  2  0  0  0  0
 33 50  1  0  0  0  0
 33 68  1  0  0  0  0
 33 75  2  0  0  0  0
 34 58  1  0  0  0  0
 34 64  1  0  0  0  0
 34 76  2  0  0  0  0
 35 59  1  0  0  0  0
 35 69  1  0  0  0  0
 35 77  2  0  0  0  0
 36 65  1  0  0  0  0
 36 70  1  0  0  0  0
 36 78  2  0  0  0  0
 37 40  1  0  0  0  0
 38 50  1  0  0  0  0
 39 64  1  0  0  0  0
 40 42  1  0  0  0  0
 41 43  1  0  0  0  0
 41 45  1  0  0  0  0
 42 48  1  0  0  0  0
 43 51  1  0  0  0  0
 44 46  1  0  0  0  0
 44 49  1  0  0  0  0
 45 65  1  0  0  0  0
 46 63  1  0  0  0  0
 47 51  1  0  0  0  0
 47 65  1  0  0  0  0
 48 68  1  0  0  0  0
 49 70  1  0  0  0  0
 50 64  1  0  0  0  0
 51 62  1  0  0  0  0
 52 59  1  0  0  0  0
 53 60  1  0  0  0  0
 54 60  1  0  0  0  0
 55 60  1  0  0  0  0
 56 71  1  0  0  0  0
 57 63  1  0  0  0  0
 58 60  1  0  0  0  0
 58 69  1  0  0  0  0
 59 71  1  0  0  0  0
 61 62  1  0  0  0  0
M  CHG  1  71   1
M  ISO  4  30 101  36 100  70 100  80 101
M  END
> <Batch ID>
0078

> <Smiles>
CNC(C)C(=O)NC(C(=O)N1Cc2cc([101O:1][101CH:1]=CC(=O)CN3CCC([100NH:0][100C:0](=O)N4CCCC(n5nc(-c6ccc(Oc7ccc(F)cc7F)cc6)c(C(N)=O)c5N)C4)C3=O)ccc2CC1C(=O)NC1CCCc2ccccc21)C(C)(C)C

> <Shape>
0.258

> <Color>
0.110

> <Negative vol penalty>
0.000

$$$$

  -OEChem-04042323563D

 87 96  0     1  0  0  0  0  0999 V2000
  -26.1307  -31.8470   23.2805 C   0  0  0  0  0  0  0  0  0  0  0  0
  -26.7658  -30.6907   23.7219 C   0  0  0  0  0  0  0  0  0  0  0  0
  -22.6502  -10.2105   20.2518 C   0  0  0  0  0  0  0  0  0  0  0  0
  -24.2530   -9.5395   21.9305 C   0  0  0  0  0  0  0  0  0  0  0  0
  -24.7551  -31.9949   23.4537 C   0  0  0  0  0  0  0  0  0  0  0  0
  -26.0259  -29.6819   24.3378 C   0  0  0  0  0  0  0  0  0  0  0  0
  -27.2398  -25.0685   22.6382 C   0  0  0  0  0  0  0  0  0  0  0  0
  -30.2985  -18.9744   23.1918 C   0  0  0  0  0  0  0  0  0  0  0  0
  -32.3649  -18.5679   22.0077 C   0  0  0  0  0  0  0  0  0  0  0  0
  -29.8012  -17.7505   22.7441 C   0  0  0  0  0  0  0  0  0  0  0  0
  -31.8676  -17.3439   21.5601 C   0  0  0  0  0  0  0  0  0  0  0  0
  -21.9049   -9.0585   20.5030 C   0  0  0  0  0  0  0  0  0  0  0  0
  -23.5077   -8.3875   22.1817 C   0  0  0  0  0  0  0  0  0  0  0  0
  -28.4132  -24.4976   23.1290 C   0  0  0  0  0  0  0  0  0  0  0  0
  -22.0445   -5.7780   19.7011 C   0  0  0  0  0  0  0  0  0  0  0  0
  -21.5775   -5.0567   18.6024 C   0  0  0  0  0  0  0  0  0  0  0  0
  -27.1168  -23.1807   24.6796 C   0  0  0  0  0  0  0  0  0  0  0  0
  -19.3041   -5.3926   19.3481 C   0  0  0  0  0  0  0  0  0  0  0  0
  -23.8243  -10.4510   20.9656 C   0  0  0  0  0  0  0  0  0  0  0  0
  -24.1686  -12.9755   20.8397 C   0  0  0  0  0  0  0  0  0  0  0  0
  -23.9964  -30.9832   24.0633 C   0  0  0  0  0  0  0  0  0  0  0  0
  -25.9948  -24.7073   23.1728 C   0  0  0  0  0  0  0  0  0  0  0  0
  -24.6391  -29.8169   24.5205 C   0  0  0  0  0  0  0  0  0  0  0  0
  -25.9289  -23.7467   24.1921 C   0  0  0  0  0  0  0  0  0  0  0  0
  -31.5803  -19.3831   22.8235 C   0  0  0  0  0  0  0  0  0  0  0  0
  -30.5858  -16.9352   21.9283 C   0  0  0  0  0  0  0  0  0  0  0  0
  -22.3336   -8.1470   21.4679 C   0  0  0  0  0  0  0  0  0  0  0  0
  -28.3521  -23.5557   24.1518 C   0  0  0  0  0  0  0  0  0  0  0  0
  -21.1413   -6.3065   20.6235 C   0  0  0  0  0  0  0  0  0  0  0  0
  -20.2073   -4.8641   18.4258 C   0  0  0  0  0  0  0  0  0  0  0  0
  -19.7711   -6.1139   20.4469 C   0  0  0  0  0  0  0  0  0  0  0  0
  -24.5949  -11.6405   20.7062 C   0  0  0  0  0  0  0  0  0  0  0  0
  -25.2621  -13.7230   20.4765 C   0  0  0  0  0  0  0  0  0  0  0  0
  -33.3789  -22.6934   22.7542 C   0  0  0  0  0  0  0  0  0  0  0  0
  -31.6720  -21.1765   24.5287 C   0  0  0  0  0  0  0  0  0  0  0  0
  -33.5795  -23.5427   21.7361 C   0  0  0  0  0  0  0  0  0  0  0  0
  -22.8979  -13.4935   21.2549 C   0  0  0  0  0  0  0  0  0  0  0  0
  -23.6742  -26.2545   24.6976 C   0  0  0  0  0  0  0  0  0  0  0  0
  -22.1241  -23.4201   24.4051 C   0  0  0  0  0  0  0  0  0  0  0  0
  -22.9482  -19.9224   24.7280 C   0  0  0  0  0  0  0  0  0  0  0  0
  -30.7290  -14.7641   20.6586 C   0  0  0  0  0  0  0  0  0  0  0  0
  -22.5197  -31.2086   24.2712 C   0  0  0  0  0  0  0  0  0  0  0  0
  -24.7363  -25.3127   22.6141 C   0  0  0  0  0  0  0  0  0  0  0  0
  -24.6157  -23.3097   24.7862 C   0  0  0  0  0  0  0  0  0  0  0  0
  -33.2456  -23.1433   24.1734 C   0  0  0  0  0  0  0  0  0  0  0  0
  -33.2593  -21.2140   22.5700 C   0  0  0  0  0  0  0  0  0  0  0  0
  -21.7485  -29.9319   24.5959 C   0  0  0  0  0  0  0  0  0  0  0  0
  -29.6167  -12.3452   18.2945 C   0  0  0  0  0  0  0  0  0  0  0  0
  -22.4802  -29.1227   25.6620 C   0  0  0  0  0  0  0  0  0  0  0  0
  -28.1760  -12.0561   18.7222 C   0  0  0  0  0  0  0  0  0  0  0  0
  -30.5298  -12.5763   19.4973 C   0  0  0  0  0  0  0  0  0  0  0  0
  -28.6210  -13.3060   20.8731 C   0  0  0  0  0  0  0  0  0  0  0  0
  -23.8669  -28.6896   25.1709 C   0  0  1  0  0  0  0  0  0  0  0  0
  -23.5613  -25.2508   23.5851 C   0  0  1  0  0  0  0  0  0  0  0  0
  -27.6502  -13.1306   19.6940 C   0  0  2  0  0  0  0  0  0  0  0  0
  -31.8922  -22.6902   24.7342 C   0  0  2  0  0  0  0  0  0  0  0  0
  -31.8536  -23.0248   26.2369 C   0  0  0  0  0  0  0  0  0  0  0  0
  -21.9231  -17.8989   23.6548 C   0  0  0  0  0  0  0  0  0  0  0  0
  -20.4390  -23.2847   26.9452 C   0  0  0  0  0  0  0  0  0  0  0  0
  -20.6461  -20.7909   26.8662 C   0  0  0  0  0  0  0  0  0  0  0  0
  -19.5097  -22.0057   25.0074 C   0  0  0  0  0  0  0  0  0  0  0  0
  -25.5542  -19.0349   23.6417 C   0  0  0  0  0  0  0  0  0  0  0  0
  -30.7241  -23.4226   24.0441 C   0  0  0  0  0  0  0  0  0  1  0  0
  -22.0221  -22.1663   25.2396 C   0  0  1  0  0  0  0  0  0  0  0  0
  -23.0600  -18.9076   23.6045 C   0  0  2  0  0  0  0  0  0  0  0  0
  -20.6774  -22.0783   26.0152 C   0  0  0  0  0  0  0  0  0  0  0  0
  -25.8605  -11.5424   20.2905 N   0  0  0  0  0  0  0  0  0  0  0  0
  -26.2388  -12.8253   20.1596 N   0  0  0  0  0  0  0  0  0  0  0  0
  -32.0963  -20.6531   23.2875 N   0  0  0  0  0  0  0  0  0  0  0  0
  -23.4136  -23.9351   24.2105 N   0  0  0  0  0  0  0  0  0  0  0  0
  -29.9702  -13.6099   20.3710 N   0  0  0  0  0  0  0  0  0  0  0  0
  -25.4739  -15.0541   20.4004 N   0  0  0  0  0  0  0  0  0  0  0  0
  -21.8845  -12.5861   21.5926 N   0  0  0  0  0  0  0  0  0  0  0  0
  -30.0809  -15.6919   21.4735 N   0  0  0  0  0  0  0  0  0  0  0  0
  -23.7544  -27.5651   24.2669 N   0  0  0  0  0  0  0  0  0  0  0  0
  -22.2618  -21.0504   24.3309 N   0  0  0  0  0  0  0  0  0  0  0  0
  -24.3498  -18.1673   23.7016 N   0  3  0  0  0  0  0  0  0  0  0  0
  -31.0821  -20.5222   25.3937 O   0  0  0  0  0  0  0  0  0  0  0  0
  -22.6626  -14.7245   21.3086 O   0  0  0  0  0  0  0  0  0  0  0  0
  -23.6861  -25.8686   25.8606 O   0  0  0  0  0  0  0  0  0  0  0  0
  -21.0982  -23.9200   23.9370 O   0  0  0  0  0  0  0  0  0  0  0  0
  -23.4192  -19.7318   25.8471 O   0  0  0  0  0  0  0  0  0  0  0  0
  -31.8591  -14.9306   20.1927 O   0  0  0  0  0  0  0  0  0  0  0  0
  -21.6065   -7.0230   21.7134 O   0  0  0  0  0  0  0  0  0  0  0  0
  -29.4959  -22.9973   24.6332 O   0  0  0  0  0  0  0  0  0  1  0  0
  -19.7590   -4.1728   17.3698 F   0  0  0  0  0  0  0  0  0  0  0  0
  -18.8986   -6.6202   21.3290 F   0  0  0  0  0  0  0  0  0  0  0  0
  1  2  1  0  0  0  0
  1  5  2  0  0  0  0
  2  6  2  0  0  0  0
  3 12  2  0  0  0  0
  3 19  1  0  0  0  0
  4 13  1  0  0  0  0
  4 19  2  0  0  0  0
  5 21  1  0  0  0  0
  6 23  1  0  0  0  0
  7 14  2  0  0  0  0
  7 22  1  0  0  0  0
  8 10  2  0  0  0  0
  8 25  1  0  0  0  0
  9 11  1  0  0  0  0
  9 25  2  0  0  0  0
 10 26  1  0  0  0  0
 11 26  2  0  0  0  0
 12 27  1  0  0  0  0
 13 27  2  0  0  0  0
 14 28  1  0  0  0  0
 15 16  2  0  0  0  0
 15 29  1  0  0  0  0
 16 30  1  0  0  0  0
 17 24  1  0  0  0  0
 17 28  2  0  0  0  0
 18 30  2  0  0  0  0
 18 31  1  0  0  0  0
 19 32  1  0  0  0  0
 20 32  1  0  0  0  0
 20 33  2  0  0  0  0
 20 37  1  0  0  0  0
 21 23  2  0  0  0  0
 21 42  1  0  0  0  0
 22 24  2  0  0  0  0
 22 43  1  0  0  0  0
 23 53  1  0  0  0  0
 24 44  1  0  0  0  0
 25 69  1  0  0  0  0
 26 74  1  0  0  0  0
 27 84  1  0  0  0  0
 28 85  1  0  0  0  0
 29 31  2  0  0  0  0
 29 84  1  0  0  0  0
 30 86  1  0  0  0  0
 31 87  1  0  0  0  0
 32 67  2  0  0  0  0
 33 68  1  0  0  0  0
 33 72  1  0  0  0  0
 34 36  2  0  0  0  0
 34 45  1  0  0  0  0
 34 46  1  0  0  0  0
 35 56  1  0  0  0  0
 35 69  1  0  0  0  0
 35 78  2  0  0  0  0
 37 73  1  0  0  0  0
 37 79  2  0  0  0  0
 38 54  1  0  0  0  0
 38 75  1  0  0  0  0
 38 80  2  0  0  0  0
 39 64  1  0  0  0  0
 39 70  1  0  0  0  0
 39 81  2  0  0  0  0
 40 65  1  0  0  0  0
 40 76  1  0  0  0  0
 40 82  2  0  0  0  0
 41 71  1  0  0  0  0
 41 74  1  0  0  0  0
 41 83  2  0  0  0  0
 42 47  1  0  0  0  0
 43 54  1  0  0  0  0
 44 70  1  0  0  0  0
 45 56  1  0  0  0  0
 46 69  1  0  0  0  0
 47 49  1  0  0  0  0
 48 50  1  0  0  0  0
 48 51  1  0  0  0  0
 49 53  1  0  0  0  0
 50 55  1  0  0  0  0
 51 71  1  0  0  0  0
 52 55  1  0  0  0  0
 52 71  1  0  0  0  0
 53 75  1  0  0  0  0
 54 70  1  0  0  0  0
 55 68  1  0  0  0  0
 56 57  1  0  0  0  0
 56 63  1  0  0  0  0
 58 65  1  0  0  0  0
 59 66  1  0  0  0  0
 60 66  1  0  0  0  0
 61 66  1  0  0  0  0
 62 77  1  0  0  0  0
 63 85  1  0  0  0  0
 64 66  1  0  0  0  0
 64 76  1  0  0  0  0
 65 77  1  0  0  0  0
 67 68  1  0  0  0  0
M  CHG  1  77   1
M  ISO  4  41 100  63 101  74 100  85 101
M  END
> <Batch ID>
0078

> <Smiles>
C=C1CN(c2ccc([100NH:0][100C:0](=O)N3CCCC(n4nc(-c5ccc(Oc6ccc(F)cc6F)cc5)c(C(N)=O)c4N)C3)cc2)C(=O)C(C)([101CH2:1][101O:1]c2ccc3c(c2)CN(C(=O)C(NC(=O)C(C)NC)C(C)(C)C)C(C(=O)NC2CCCc4ccccc42)C3)C1

> <Shape>
0.191

> <Color>
0.191

> <Negative vol penalty>
0.000

$$$$

  -OEChem-04042323563D

 89 98  0     1  0  0  0  0  0999 V2000
  -23.9264   -8.0596   21.6575 C   0  0  0  0  0  0  0  0  0  0  0  0
  -24.6687   -9.1583   21.2366 C   0  0  0  0  0  0  0  0  0  0  0  0
  -28.4060  -25.1423   19.2034 C   0  0  0  0  0  0  0  0  0  0  0  0
  -24.8052  -32.0110   24.3785 C   0  0  0  0  0  0  0  0  0  0  0  0
  -25.9843  -31.1378   22.4591 C   0  0  0  0  0  0  0  0  0  0  0  0
  -27.0315  -24.9308   19.3116 C   0  0  0  0  0  0  0  0  0  0  0  0
  -22.5432   -8.1660   21.7961 C   0  0  0  0  0  0  0  0  0  0  0  0
  -24.0279  -10.3639   20.9528 C   0  0  0  0  0  0  0  0  0  0  0  0
  -26.4447  -14.3576   22.9161 C   0  0  0  0  0  0  0  0  0  0  0  0
  -29.2731  -24.0546   19.1003 C   0  0  0  0  0  0  0  0  0  0  0  0
  -25.1984  -33.3036   24.0320 C   0  0  0  0  0  0  0  0  0  0  0  0
  -26.3775  -32.4305   22.1125 C   0  0  0  0  0  0  0  0  0  0  0  0
  -27.5784  -14.8100   22.2425 C   0  0  0  0  0  0  0  0  0  0  0  0
  -24.2671  -35.6805   21.8148 C   0  0  0  0  0  0  0  0  0  0  0  0
  -23.3017  -36.6862   21.8616 C   0  0  0  0  0  0  0  0  0  0  0  0
  -27.3912  -22.5437   19.2138 C   0  0  0  0  0  0  0  0  0  0  0  0
  -26.2696  -16.5662   21.2315 C   0  0  0  0  0  0  0  0  0  0  0  0
  -24.6227  -37.8781   23.4961 C   0  0  0  0  0  0  0  0  0  0  0  0
  -25.1982  -30.9281   23.5920 C   0  0  0  0  0  0  0  0  0  0  0  0
  -26.5241  -23.6315   19.3168 C   0  0  0  0  0  0  0  0  0  0  0  0
  -25.0828  -28.9075   25.1450 C   0  0  0  0  0  0  0  0  0  0  0  0
  -21.8863   -9.3762   21.5232 C   0  0  0  0  0  0  0  0  0  0  0  0
  -25.2104  -15.0005   22.7437 C   0  0  0  0  0  0  0  0  0  0  0  0
  -22.6344  -10.4862   21.0866 C   0  0  0  0  0  0  0  0  0  0  0  0
  -25.1223  -16.1215   21.9061 C   0  0  0  0  0  0  0  0  0  0  0  0
  -28.7657  -22.7553   19.1055 C   0  0  0  0  0  0  0  0  0  0  0  0
  -25.9845  -33.5134   22.8991 C   0  0  0  0  0  0  0  0  0  0  0  0
  -27.4904  -15.9127   21.3978 C   0  0  0  0  0  0  0  0  0  0  0  0
  -25.4103  -35.7735   22.6087 C   0  0  0  0  0  0  0  0  0  0  0  0
  -23.4795  -37.7850   22.7022 C   0  0  0  0  0  0  0  0  0  0  0  0
  -25.5880  -36.8724   23.4493 C   0  0  0  0  0  0  0  0  0  0  0  0
  -24.7929  -29.5925   23.9498 C   0  0  0  0  0  0  0  0  0  0  0  0
  -24.4765  -27.6842   24.9954 C   0  0  0  0  0  0  0  0  0  0  0  0
  -30.3311  -19.2600   19.3449 C   0  0  0  0  0  0  0  0  0  0  0  0
  -31.5864  -19.5098   18.6560 C   0  0  0  0  0  0  0  0  0  0  0  0
  -29.3541  -20.3881   19.5947 C   0  0  0  0  0  0  0  0  0  0  0  0
  -32.7305  -18.8488   18.8950 C   0  0  0  0  0  0  0  0  0  0  0  0
  -29.9453  -18.0337   19.7396 C   0  0  0  0  0  0  0  0  0  0  0  0
  -25.0601  -23.4077   19.4321 C   0  0  0  0  0  0  0  0  0  0  0  0
  -25.8331  -29.3385   26.2882 C   0  0  0  0  0  0  0  0  0  0  0  0
  -22.3671  -14.1329   21.6183 C   0  0  0  0  0  0  0  0  0  0  0  0
  -21.4949  -17.0843   22.6433 C   0  0  0  0  0  0  0  0  0  0  0  0
  -22.8994  -20.4074   22.6034 C   0  0  0  0  0  0  0  0  0  0  0  0
  -22.9598  -24.4137   20.2693 C   0  0  0  0  0  0  0  0  0  0  0  0
  -20.3837   -9.4294   21.6419 C   0  0  0  0  0  0  0  0  0  0  0  0
  -24.0026  -14.5165   23.4982 C   0  0  0  0  0  0  0  0  0  0  0  0
  -23.8251  -16.8594   21.7026 C   0  0  0  0  0  0  0  0  0  0  0  0
  -31.5205  -20.6330   17.6715 C   0  0  0  0  0  0  0  0  0  0  0  0
  -19.8258  -10.8497   21.6815 C   0  0  0  0  0  0  0  0  0  0  0  0
  -20.7751  -25.5824   22.7908 C   0  0  0  0  0  0  0  0  0  0  0  0
  -20.4628  -11.7042   20.5902 C   0  0  0  0  0  0  0  0  0  0  0  0
  -21.5876  -26.6718   23.4961 C   0  0  0  0  0  0  0  0  0  0  0  0
  -30.9737  -21.8677   18.3669 C   0  0  0  0  0  0  0  0  0  0  0  0
  -21.0202  -25.5786   21.2825 C   0  0  0  0  0  0  0  0  0  0  0  0
  -23.2380  -26.6026   21.5842 C   0  0  0  0  0  0  0  0  0  0  0  0
  -21.9785  -11.8180   20.7931 C   0  0  1  0  0  0  0  0  0  0  0  0
  -22.6862  -14.9331   22.8493 C   0  0  1  0  0  0  0  0  0  0  0  0
  -23.0796  -26.6020   23.1132 C   0  0  1  0  0  0  0  0  0  0  0  0
  -22.5348  -22.3514   24.1479 C   0  0  0  0  0  0  0  0  0  0  0  0
  -19.3772  -17.9265   20.6144 C   0  0  0  0  0  0  0  0  0  0  0  0
  -20.0783  -20.3030   20.9735 C   0  0  0  0  0  0  0  0  0  0  0  0
  -19.1394  -18.9814   22.8694 C   0  0  0  0  0  0  0  0  0  0  0  0
  -25.7963  -20.6645   23.1516 C   0  0  0  0  0  0  0  0  0  0  0  0
  -28.6621  -17.7515   20.4481 C   0  0  0  0  0  0  0  0  0  1  0  0
  -21.4678  -18.4639   22.0310 C   0  0  1  0  0  0  0  0  0  0  0  0
  -23.4383  -21.1806   23.7935 C   0  0  2  0  0  0  0  0  0  0  0  0
  -20.0346  -18.8991   21.6138 C   0  0  0  0  0  0  0  0  0  0  0  0
  -24.0595  -28.8647   23.1032 N   0  0  0  0  0  0  0  0  0  0  0  0
  -23.8837  -27.7097   23.7673 N   0  0  0  0  0  0  0  0  0  0  0  0
  -29.6648  -21.6276   18.9983 N   0  0  0  0  0  0  0  0  0  0  0  0
  -22.6709  -16.3439   22.4574 N   0  0  0  0  0  0  0  0  0  0  0  0
  -22.4554  -25.5009   21.0041 N   0  0  0  0  0  0  0  0  0  0  0  0
  -24.3981  -26.5999   25.7957 N   0  0  0  0  0  0  0  0  0  0  0  0
  -27.2124  -29.0910   26.3143 N   0  0  0  0  0  0  0  0  0  0  0  0
  -24.3481  -24.4089   20.0934 N   0  0  0  0  0  0  0  0  0  0  0  0
  -22.2782  -12.7718   21.8395 N   0  0  0  0  0  0  0  0  0  0  0  0
  -22.1043  -19.3521   22.9976 N   0  0  0  0  0  0  0  0  0  0  0  0
  -24.7986  -21.7106   23.4939 N   0  3  0  0  0  0  0  0  0  0  0  0
  -28.3750  -20.1826   20.3147 O   0  0  0  0  0  0  0  0  0  0  0  0
  -24.5660  -22.4064   18.9211 O   0  0  0  0  0  0  0  0  0  0  0  0
  -25.2935  -29.9110   27.2653 O   0  0  0  0  0  0  0  0  0  0  0  0
  -22.2116  -14.7079   20.5474 O   0  0  0  0  0  0  0  0  0  0  0  0
  -20.5116  -16.6813   23.2697 O   0  0  0  0  0  0  0  0  0  0  0  0
  -23.1549  -20.7117   21.4404 O   0  0  0  0  0  0  0  0  0  0  0  0
  -22.2414  -23.5057   19.8396 O   0  0  0  0  0  0  0  0  0  0  0  0
  -26.3682  -34.7747   22.5605 O   0  0  0  0  0  0  0  0  0  0  0  0
  -28.5953  -16.3559   20.7387 O   0  0  0  0  0  0  0  0  0  1  0  0
  -22.5531  -38.7514   22.7459 F   0  0  0  0  0  0  0  0  0  0  0  0
  -26.6848  -36.9679   24.2135 F   0  0  0  0  0  0  0  0  0  0  0  0
  1  2  1  0  0  0  0
  1  7  2  0  0  0  0
  2  8  2  0  0  0  0
  3  6  1  0  0  0  0
  3 10  2  0  0  0  0
  4 11  2  0  0  0  0
  4 19  1  0  0  0  0
  5 12  1  0  0  0  0
  5 19  2  0  0  0  0
  6 20  2  0  0  0  0
  7 22  1  0  0  0  0
  8 24  1  0  0  0  0
  9 13  2  0  0  0  0
  9 23  1  0  0  0  0
 10 26  1  0  0  0  0
 11 27  1  0  0  0  0
 12 27  2  0  0  0  0
 13 28  1  0  0  0  0
 14 15  2  0  0  0  0
 14 29  1  0  0  0  0
 15 30  1  0  0  0  0
 16 20  1  0  0  0  0
 16 26  2  0  0  0  0
 17 25  1  0  0  0  0
 17 28  2  0  0  0  0
 18 30  2  0  0  0  0
 18 31  1  0  0  0  0
 19 32  1  0  0  0  0
 20 39  1  0  0  0  0
 21 32  1  0  0  0  0
 21 33  2  0  0  0  0
 21 40  1  0  0  0  0
 22 24  2  0  0  0  0
 22 45  1  0  0  0  0
 23 25  2  0  0  0  0
 23 46  1  0  0  0  0
 24 56  1  0  0  0  0
 25 47  1  0  0  0  0
 26 70  1  0  0  0  0
 27 86  1  0  0  0  0
 28 87  1  0  0  0  0
 29 31  2  0  0  0  0
 29 86  1  0  0  0  0
 30 88  1  0  0  0  0
 31 89  1  0  0  0  0
 32 68  2  0  0  0  0
 33 69  1  0  0  0  0
 33 73  1  0  0  0  0
 34 35  1  0  0  0  0
 34 36  1  0  0  0  0
 34 38  2  0  0  0  0
 35 37  2  0  0  0  0
 35 48  1  0  0  0  0
 36 70  1  0  0  0  0
 36 79  2  0  0  0  0
 38 64  1  0  0  0  0
 39 75  1  0  0  0  0
 39 80  2  0  0  0  0
 40 74  1  0  0  0  0
 40 81  2  0  0  0  0
 41 57  1  0  0  0  0
 41 76  1  0  0  0  0
 41 82  2  0  0  0  0
 42 65  1  0  0  0  0
 42 71  1  0  0  0  0
 42 83  2  0  0  0  0
 43 66  1  0  0  0  0
 43 77  1  0  0  0  0
 43 84  2  0  0  0  0
 44 72  1  0  0  0  0
 44 75  1  0  0  0  0
 44 85  2  0  0  0  0
 45 49  1  0  0  0  0
 46 57  1  0  0  0  0
 47 71  1  0  0  0  0
 48 53  1  0  0  0  0
 49 51  1  0  0  0  0
 50 52  1  0  0  0  0
 50 54  1  0  0  0  0
 51 56  1  0  0  0  0
 52 58  1  0  0  0  0
 53 70  1  0  0  0  0
 54 72  1  0  0  0  0
 55 58  1  0  0  0  0
 55 72  1  0  0  0  0
 56 76  1  0  0  0  0
 57 71  1  0  0  0  0
 58 69  1  0  0  0  0
 59 66  1  0  0  0  0
 60 67  1  0  0  0  0
 61 67  1  0  0  0  0
 62 67  1  0  0  0  0
 63 78  1  0  0  0  0
 64 87  1  0  0  0  0
 65 67  1  0  0  0  0
 65 77  1  0  0  0  0
 66 78  1  0  0  0  0
 68 69  1  0  0  0  0
M  CHG  1  78   1
M  ISO  4  44 100  64 101  75 100  87 101
M  END
> <Batch ID>
0078

> <Smiles>
C=C1CCN(c2cccc(C(=O)[100NH:0][100C:0](=O)N3CCCC(n4nc(-c5ccc(Oc6ccc(F)cc6F)cc5)c(C(N)=O)c4N)C3)c2)C(=O)C1=C[101CH2:1][101O:1]c1ccc2c(c1)CN(C(=O)C(NC(=O)C(C)NC)C(C)(C)C)C(C(=O)NC1CCCc3ccccc31)C2

> <Shape>
0.209

> <Color>
0.090

> <Negative vol penalty>
0.000

$$$$

  -OEChem-04042323563D

 85 94  0     1  0  0  0  0  0999 V2000
  -28.1586  -34.2412   30.0238 C   0  0  0  0  0  0  0  0  0  0  0  0
  -28.9652  -33.5801   29.1031 C   0  0  0  0  0  0  0  0  0  0  0  0
  -24.0881   -9.5625   21.6763 C   0  0  0  0  0  0  0  0  0  0  0  0
  -24.6674  -10.8621   23.6288 C   0  0  0  0  0  0  0  0  0  0  0  0
  -26.8094  -33.9069   30.1335 C   0  0  0  0  0  0  0  0  0  0  0  0
  -28.4233  -32.5834   28.2923 C   0  0  0  0  0  0  0  0  0  0  0  0
  -29.0621  -29.7540   21.7423 C   0  0  0  0  0  0  0  0  0  0  0  0
  -28.2550  -20.7114   19.6878 C   0  0  0  0  0  0  0  0  0  0  0  0
  -30.4210  -20.3840   18.6688 C   0  0  0  0  0  0  0  0  0  0  0  0
  -28.1507  -19.3379   19.9075 C   0  0  0  0  0  0  0  0  0  0  0  0
  -30.3167  -19.0104   18.8886 C   0  0  0  0  0  0  0  0  0  0  0  0
  -23.6814   -8.5106   22.4971 C   0  0  0  0  0  0  0  0  0  0  0  0
  -24.2606   -9.8103   24.4497 C   0  0  0  0  0  0  0  0  0  0  0  0
  -29.2354  -28.5217   21.1135 C   0  0  0  0  0  0  0  0  0  0  0  0
  -22.1533   -5.6205   24.0869 C   0  0  0  0  0  0  0  0  0  0  0  0
  -20.9470   -4.9897   23.7829 C   0  0  0  0  0  0  0  0  0  0  0  0
  -26.8737  -28.0832   21.3354 C   0  0  0  0  0  0  0  0  0  0  0  0
  -29.7021  -24.5682   17.8186 C   0  0  0  0  0  0  0  0  0  0  0  0
  -19.7784   -7.0843   24.0730 C   0  0  0  0  0  0  0  0  0  0  0  0
  -24.5811  -10.7382   22.2421 C   0  0  0  0  0  0  0  0  0  0  0  0
  -24.2111  -12.8891   20.9213 C   0  0  0  0  0  0  0  0  0  0  0  0
  -26.2486  -32.9123   29.3169 C   0  0  0  0  0  0  0  0  0  0  0  0
  -27.7929  -30.1560   22.1828 C   0  0  0  0  0  0  0  0  0  0  0  0
  -27.0657  -32.2345   28.3921 C   0  0  0  0  0  0  0  0  0  0  0  0
  -26.6865  -29.3221   21.9672 C   0  0  0  0  0  0  0  0  0  0  0  0
  -29.6027  -24.8000   19.2127 C   0  0  0  0  0  0  0  0  0  0  0  0
  -29.3902  -21.2344   19.0684 C   0  0  0  0  0  0  0  0  0  0  0  0
  -29.1816  -18.4875   19.5079 C   0  0  0  0  0  0  0  0  0  0  0  0
  -23.7677   -8.6345   23.8838 C   0  0  0  0  0  0  0  0  0  0  0  0
  -28.1416  -27.6849   20.9126 C   0  0  0  0  0  0  0  0  0  0  0  0
  -22.1722   -6.9833   24.3841 C   0  0  0  0  0  0  0  0  0  0  0  0
  -19.7596   -5.7216   23.7759 C   0  0  0  0  0  0  0  0  0  0  0  0
  -20.9848   -7.7152   24.3771 C   0  0  0  0  0  0  0  0  0  0  0  0
  -25.0019  -11.8250   21.3948 C   0  0  0  0  0  0  0  0  0  0  0  0
  -29.4755  -23.5730   19.8256 C   0  0  0  0  0  0  0  0  0  0  0  0
  -25.0715  -13.6455   20.1636 C   0  0  0  0  0  0  0  0  0  0  0  0
  -29.6325  -23.2066   17.6220 C   0  0  0  0  0  0  0  0  0  0  0  0
  -22.8231  -13.1688   21.1464 C   0  0  0  0  0  0  0  0  0  0  0  0
  -26.5166  -30.8538   25.0091 C   0  0  0  0  0  0  0  0  0  0  0  0
  -23.9525  -31.6917   23.2076 C   0  0  0  0  0  0  0  0  0  0  0  0
  -22.2293  -31.3451   20.2823 C   0  0  0  0  0  0  0  0  0  0  0  0
  -30.0054  -16.1094   19.3960 C   0  0  0  0  0  0  0  0  0  0  0  0
  -24.7960  -32.5526   29.5048 C   0  0  0  0  0  0  0  0  0  0  0  0
  -27.6182  -31.4999   22.8354 C   0  0  0  0  0  0  0  0  0  0  0  0
  -25.2997  -29.7160   22.4031 C   0  0  0  0  0  0  0  0  0  0  0  0
  -24.2138  -31.7452   28.3474 C   0  0  0  0  0  0  0  0  0  0  0  0
  -29.7633  -12.6622   18.5384 C   0  0  0  0  0  0  0  0  0  0  0  0
  -25.1601  -30.6146   27.9561 C   0  0  0  0  0  0  0  0  0  0  0  0
  -28.4380  -12.2246   19.1661 C   0  0  0  0  0  0  0  0  0  0  0  0
  -30.4993  -13.6741   19.4149 C   0  0  0  0  0  0  0  0  0  0  0  0
  -28.3815  -14.4081   20.4374 C   0  0  0  0  0  0  0  0  0  0  0  0
  -26.5091  -31.1649   27.4777 C   0  0  1  0  0  0  0  0  0  0  0  0
  -26.3672  -31.5840   23.7044 C   0  0  1  0  0  0  0  0  0  0  0  0
  -27.5733  -13.4381   19.5602 C   0  0  2  0  0  0  0  0  0  0  0  0
  -29.3374  -23.2449   21.2625 C   0  0  0  0  0  0  0  0  0  0  0  0
  -20.1500  -32.1286   19.1161 C   0  0  0  0  0  0  0  0  0  0  0  0
  -22.2758  -29.8356   24.9551 C   0  0  0  0  0  0  0  0  0  0  0  0
  -20.4875  -29.9172   23.2048 C   0  0  0  0  0  0  0  0  0  0  0  0
  -21.1741  -32.0065   24.3823 C   0  0  0  0  0  0  0  0  0  0  0  0
  -23.7846  -32.5613   18.0776 C   0  0  0  0  0  0  0  0  0  0  0  0
  -29.6310  -26.1395   19.8882 C   0  0  0  0  0  0  0  0  0  1  0  0
  -22.7338  -30.9720   22.6824 C   0  0  1  0  0  0  0  0  0  0  0  0
  -21.6350  -32.3721   19.3355 C   0  0  2  0  0  0  0  0  0  0  0  0
  -21.6941  -30.6743   23.7996 C   0  0  0  0  0  0  0  0  0  0  0  0
  -26.2673  -11.8955   20.9730 N   0  0  0  0  0  0  0  0  0  0  0  0
  -29.4945  -22.6118   18.8489 N   0  0  0  0  0  0  0  0  0  0  0  0
  -26.2782  -13.0130   20.2265 N   0  0  0  0  0  0  0  0  0  0  0  0
  -25.1812  -31.0370   23.0423 N   0  0  0  0  0  0  0  0  0  0  0  0
  -29.6197  -14.7977   19.7446 N   0  0  0  0  0  0  0  0  0  0  0  0
  -24.9059  -14.7833   19.4562 N   0  0  0  0  0  0  0  0  0  0  0  0
  -22.0858  -12.2886   21.9501 N   0  0  0  0  0  0  0  0  0  0  0  0
  -29.0744  -17.0922   19.7307 N   0  0  0  0  0  0  0  0  0  0  0  0
  -26.4001  -31.6629   26.1232 N   0  0  0  0  0  0  0  0  0  0  0  0
  -22.2180  -31.7875   21.5882 N   0  0  0  0  0  0  0  0  0  0  0  0
  -22.3208  -32.3159   18.0136 N   0  3  0  0  0  0  0  0  0  0  0  0
  -22.2494  -14.1608   20.6361 O   0  0  0  0  0  0  0  0  0  0  0  0
  -26.7208  -29.6455   25.0052 O   0  0  0  0  0  0  0  0  0  0  0  0
  -23.8200  -32.7974   23.7382 O   0  0  0  0  0  0  0  0  0  0  0  0
  -22.6570  -30.2574   19.9020 O   0  0  0  0  0  0  0  0  0  0  0  0
  -31.0699  -16.3406   18.8171 O   0  0  0  0  0  0  0  0  0  0  0  0
  -29.6793  -22.4949   16.5022 O   0  0  0  0  0  0  0  0  0  0  0  0
  -23.3707   -7.6083   24.6850 O   0  0  0  0  0  0  0  0  0  0  0  0
  -28.3080  -26.4813   20.2997 O   0  0  0  0  0  0  0  0  0  1  0  0
  -18.6015   -5.1160   23.4823 F   0  0  0  0  0  0  0  0  0  0  0  0
  -20.9968   -9.0249   24.6606 F   0  0  0  0  0  0  0  0  0  0  0  0
  1  2  1  0  0  0  0
  1  5  2  0  0  0  0
  2  6  2  0  0  0  0
  3 12  2  0  0  0  0
  3 20  1  0  0  0  0
  4 13  1  0  0  0  0
  4 20  2  0  0  0  0
  5 22  1  0  0  0  0
  6 24  1  0  0  0  0
  7 14  2  0  0  0  0
  7 23  1  0  0  0  0
  8 10  2  0  0  0  0
  8 27  1  0  0  0  0
  9 11  1  0  0  0  0
  9 27  2  0  0  0  0
 10 28  1  0  0  0  0
 11 28  2  0  0  0  0
 12 29  1  0  0  0  0
 13 29  2  0  0  0  0
 14 30  1  0  0  0  0
 15 16  2  0  0  0  0
 15 31  1  0  0  0  0
 16 32  1  0  0  0  0
 17 25  1  0  0  0  0
 17 30  2  0  0  0  0
 18 26  1  0  0  0  0
 18 37  2  0  0  0  0
 19 32  2  0  0  0  0
 19 33  1  0  0  0  0
 20 34  1  0  0  0  0
 21 34  1  0  0  0  0
 21 36  2  0  0  0  0
 21 38  1  0  0  0  0
 22 24  2  0  0  0  0
 22 43  1  0  0  0  0
 23 25  2  0  0  0  0
 23 44  1  0  0  0  0
 24 52  1  0  0  0  0
 25 45  1  0  0  0  0
 26 35  2  0  0  0  0
 26 61  1  0  0  0  0
 27 66  1  0  0  0  0
 28 72  1  0  0  0  0
 29 82  1  0  0  0  0
 30 83  1  0  0  0  0
 31 33  2  0  0  0  0
 31 82  1  0  0  0  0
 32 84  1  0  0  0  0
 33 85  1  0  0  0  0
 34 65  2  0  0  0  0
 35 55  1  0  0  0  0
 35 66  1  0  0  0  0
 36 67  1  0  0  0  0
 36 70  1  0  0  0  0
 37 66  1  0  0  0  0
 37 81  1  0  0  0  0
 38 71  1  0  0  0  0
 38 76  2  0  0  0  0
 39 53  1  0  0  0  0
 39 73  1  0  0  0  0
 39 77  2  0  0  0  0
 40 62  1  0  0  0  0
 40 68  1  0  0  0  0
 40 78  2  0  0  0  0
 41 63  1  0  0  0  0
 41 74  1  0  0  0  0
 41 79  2  0  0  0  0
 42 69  1  0  0  0  0
 42 72  1  0  0  0  0
 42 80  2  0  0  0  0
 43 46  1  0  0  0  0
 44 53  1  0  0  0  0
 45 68  1  0  0  0  0
 46 48  1  0  0  0  0
 47 49  1  0  0  0  0
 47 50  1  0  0  0  0
 48 52  1  0  0  0  0
 49 54  1  0  0  0  0
 50 69  1  0  0  0  0
 51 54  1  0  0  0  0
 51 69  1  0  0  0  0
 52 73  1  0  0  0  0
 53 68  1  0  0  0  0
 54 67  1  0  0  0  0
 56 63  1  0  0  0  0
 57 64  1  0  0  0  0
 58 64  1  0  0  0  0
 59 64  1  0  0  0  0
 60 75  1  0  0  0  0
 61 83  1  0  0  0  0
 62 64  1  0  0  0  0
 62 74  1  0  0  0  0
 63 75  1  0  0  0  0
 65 67  1  0  0  0  0
M  CHG  1  75   1
M  ISO  4  42 100  61 101  72 100  83 101
M  END
> <Batch ID>
0078

> <Smiles>
CNC(C)C(=O)NC(C(=O)N1Cc2cc([101O:1][101CH2:1]C3=C(C)N(c4ccc([100NH:0][100C:0](=O)N5CCCC(n6nc(-c7ccc(Oc8ccc(F)cc8F)cc7)c(C(N)=O)c6N)C5)cc4)C(=O)C3)ccc2CC1C(=O)NC1CCCc2ccccc21)C(C)(C)C

> <Shape>
0.335

> <Color>
0.118

> <Negative vol penalty>
0.000

$$$$

  -OEChem-04042323563D

 87 96  0     1  0  0  0  0  0999 V2000
  -26.1662  -35.7706   22.3071 C   0  0  0  0  0  0  0  0  0  0  0  0
  -26.7005  -34.4880   22.2380 C   0  0  0  0  0  0  0  0  0  0  0  0
  -24.3484   -8.7156   19.9981 C   0  0  0  0  0  0  0  0  0  0  0  0
  -23.1821  -10.4304   21.2375 C   0  0  0  0  0  0  0  0  0  0  0  0
  -24.8707  -35.9599   22.7864 C   0  0  0  0  0  0  0  0  0  0  0  0
  -25.9400  -33.3940   22.6493 C   0  0  0  0  0  0  0  0  0  0  0  0
  -26.2175  -29.5084   19.4135 C   0  0  0  0  0  0  0  0  0  0  0  0
  -29.7920  -20.0852   21.7760 C   0  0  0  0  0  0  0  0  0  0  0  0
  -29.8474  -18.6929   21.7127 C   0  0  0  0  0  0  0  0  0  0  0  0
  -23.4209   -7.7695   20.4342 C   0  0  0  0  0  0  0  0  0  0  0  0
  -22.2545   -9.4844   21.6735 C   0  0  0  0  0  0  0  0  0  0  0  0
  -27.3659  -28.7194   19.4630 C   0  0  0  0  0  0  0  0  0  0  0  0
  -20.2704   -6.8245   19.6503 C   0  0  0  0  0  0  0  0  0  0  0  0
  -19.7617   -5.9325   18.7064 C   0  0  0  0  0  0  0  0  0  0  0  0
  -26.1719  -27.0733   20.7606 C   0  0  0  0  0  0  0  0  0  0  0  0
  -28.1357  -20.0993   20.0171 C   0  0  0  0  0  0  0  0  0  0  0  0
  -20.6413   -4.0797   19.9833 C   0  0  0  0  0  0  0  0  0  0  0  0
  -24.2291  -10.0461   20.3998 C   0  0  0  0  0  0  0  0  0  0  0  0
  -25.1136  -11.8141   18.7875 C   0  0  0  0  0  0  0  0  0  0  0  0
  -24.0904  -34.8668   23.1947 C   0  0  0  0  0  0  0  0  0  0  0  0
  -25.0388  -29.0901   20.0476 C   0  0  0  0  0  0  0  0  0  0  0  0
  -24.6333  -33.5690   23.1358 C   0  0  0  0  0  0  0  0  0  0  0  0
  -25.0092  -27.8576   20.7156 C   0  0  0  0  0  0  0  0  0  0  0  0
  -28.9361  -20.7884   20.9283 C   0  0  0  0  0  0  0  0  0  0  0  0
  -29.0471  -18.0038   20.8015 C   0  0  0  0  0  0  0  0  0  0  0  0
  -28.1912  -18.7070   19.9537 C   0  0  0  0  0  0  0  0  0  0  0  0
  -22.3739   -8.1539   21.2719 C   0  0  0  0  0  0  0  0  0  0  0  0
  -27.3441  -27.5031   20.1390 C   0  0  0  0  0  0  0  0  0  0  0  0
  -20.9647   -6.3442   20.7607 C   0  0  0  0  0  0  0  0  0  0  0  0
  -19.9471   -4.5601   18.8729 C   0  0  0  0  0  0  0  0  0  0  0  0
  -21.1501   -4.9718   20.9272 C   0  0  0  0  0  0  0  0  0  0  0  0
  -25.1873  -11.0237   19.9501 C   0  0  0  0  0  0  0  0  0  0  0  0
  -26.2578  -12.5733   18.8154 C   0  0  0  0  0  0  0  0  0  0  0  0
  -28.6420  -24.4016   20.4530 C   0  0  0  0  0  0  0  0  0  0  0  0
  -28.9726  -24.3605   21.8554 C   0  0  0  0  0  0  0  0  0  0  0  0
  -28.5833  -23.0176   19.9056 C   0  0  0  0  0  0  0  0  0  0  0  0
  -29.1194  -25.3835   22.7041 C   0  0  0  0  0  0  0  0  0  0  0  0
  -24.1013  -11.8581   17.7731 C   0  0  0  0  0  0  0  0  0  0  0  0
  -28.4021  -25.4727   19.6604 C   0  0  0  0  0  0  0  0  0  1  0  0
  -23.2319  -30.2300   22.4012 C   0  0  0  0  0  0  0  0  0  0  0  0
  -21.2817  -27.7752   21.5684 C   0  0  0  0  0  0  0  0  0  0  0  0
  -20.9477  -24.7040   20.1184 C   0  0  0  0  0  0  0  0  0  0  0  0
  -29.9240  -15.7597   21.5373 C   0  0  0  0  0  0  0  0  0  0  0  0
  -22.7123  -35.1257   23.7501 C   0  0  0  0  0  0  0  0  0  0  0  0
  -23.8009  -29.9403   19.9623 C   0  0  0  0  0  0  0  0  0  0  0  0
  -23.7632  -27.3538   21.3953 C   0  0  0  0  0  0  0  0  0  0  0  0
  -29.1328  -22.9173   22.2268 C   0  0  0  0  0  0  0  0  0  0  0  0
  -21.8370  -33.8767   23.8145 C   0  0  0  0  0  0  0  0  0  0  0  0
  -30.3658  -12.2334   21.7531 C   0  0  0  0  0  0  0  0  0  0  0  0
  -22.6151  -32.7098   24.4142 C   0  0  0  0  0  0  0  0  0  0  0  0
  -29.0519  -11.6693   21.2077 C   0  0  0  0  0  0  0  0  0  0  0  0
  -30.1422  -13.5079   22.5652 C   0  0  0  0  0  0  0  0  0  0  0  0
  -28.0661  -13.9931   21.3308 C   0  0  0  0  0  0  0  0  0  0  0  0
  -23.8306  -32.3546   23.5493 C   0  0  1  0  0  0  0  0  0  0  0  0
  -22.8027  -29.6561   21.0805 C   0  0  1  0  0  0  0  0  0  0  0  0
  -28.2476  -12.7450   20.4516 C   0  0  2  0  0  0  0  0  0  0  0  0
  -28.0655  -25.3891   18.2053 C   0  0  0  0  0  0  0  0  0  0  0  0
  -19.2380  -22.9354   19.6219 C   0  0  0  0  0  0  0  0  0  0  0  0
  -21.3385  -26.9031   24.4918 C   0  0  0  0  0  0  0  0  0  0  0  0
  -20.4421  -24.6786   23.7731 C   0  0  0  0  0  0  0  0  0  0  0  0
  -19.0945  -26.7443   23.3992 C   0  0  0  0  0  0  0  0  0  0  0  0
  -21.3758  -24.9454   17.1999 C   0  0  0  0  0  0  0  0  0  0  0  0
  -21.1466  -26.3296   21.9818 C   0  0  1  0  0  0  0  0  0  0  0  0
  -19.9531  -24.1728   19.1019 C   0  0  2  0  0  0  0  0  0  0  0  0
  -20.5296  -26.1740   23.4004 C   0  0  0  0  0  0  0  0  0  0  0  0
  -26.2911  -11.2589   20.6644 N   0  0  0  0  0  0  0  0  0  0  0  0
  -26.9216  -12.2056   19.9487 N   0  0  0  0  0  0  0  0  0  0  0  0
  -28.8809  -22.1771   20.9920 N   0  0  0  0  0  0  0  0  0  0  0  0
  -22.5803  -28.2239   21.2892 N   0  0  0  0  0  0  0  0  0  0  0  0
  -29.3776  -14.4824   21.7838 N   0  0  0  0  0  0  0  0  0  0  0  0
  -27.3716  -18.0290   19.0235 N   0  0  0  0  0  0  0  0  0  0  0  0
  -26.7509  -13.5129   17.9808 N   0  0  0  0  0  0  0  0  0  0  0  0
  -22.9917  -11.0112   17.8993 N   0  0  0  0  0  0  0  0  0  0  0  0
  -29.1206  -16.5895   20.7559 N   0  0  0  0  0  0  0  0  0  0  0  0
  -23.4193  -31.5989   22.3856 N   0  0  0  0  0  0  0  0  0  0  0  0
  -20.3866  -25.6720   20.9242 N   0  0  0  0  0  0  0  0  0  0  0  0
  -20.6495  -23.8151   17.8338 N   0  3  0  0  0  0  0  0  0  0  0  0
  -28.3279  -22.7132   18.7526 O   0  0  0  0  0  0  0  0  0  0  0  0
  -24.1864  -12.6139   16.7756 O   0  0  0  0  0  0  0  0  0  0  0  0
  -23.3804  -29.4860   23.3636 O   0  0  0  0  0  0  0  0  0  0  0  0
  -20.2713  -28.4785   21.4891 O   0  0  0  0  0  0  0  0  0  0  0  0
  -22.1053  -24.2980   20.1926 O   0  0  0  0  0  0  0  0  0  0  0  0
  -31.0356  -16.0833   21.9635 O   0  0  0  0  0  0  0  0  0  0  0  0
  -21.4685   -7.2311   21.6974 O   0  0  0  0  0  0  0  0  0  0  0  0
  -28.4638  -26.7313   20.1894 O   0  0  0  0  0  0  0  0  0  1  0  0
  -19.4572   -3.7035   17.9671 F   0  0  0  0  0  0  0  0  0  0  0  0
  -21.8152   -4.5043   21.9926 F   0  0  0  0  0  0  0  0  0  0  0  0
  1  2  1  0  0  0  0
  1  5  2  0  0  0  0
  2  6  2  0  0  0  0
  3 10  2  0  0  0  0
  3 18  1  0  0  0  0
  4 11  1  0  0  0  0
  4 18  2  0  0  0  0
  5 20  1  0  0  0  0
  6 22  1  0  0  0  0
  7 12  2  0  0  0  0
  7 21  1  0  0  0  0
  8  9  2  0  0  0  0
  8 24  1  0  0  0  0
  9 25  1  0  0  0  0
 10 27  1  0  0  0  0
 11 27  2  0  0  0  0
 12 28  1  0  0  0  0
 13 14  2  0  0  0  0
 13 29  1  0  0  0  0
 14 30  1  0  0  0  0
 15 23  1  0  0  0  0
 15 28  2  0  0  0  0
 16 24  2  0  0  0  0
 16 26  1  0  0  0  0
 17 30  2  0  0  0  0
 17 31  1  0  0  0  0
 18 32  1  0  0  0  0
 19 32  1  0  0  0  0
 19 33  2  0  0  0  0
 19 38  1  0  0  0  0
 20 22  2  0  0  0  0
 20 44  1  0  0  0  0
 21 23  2  0  0  0  0
 21 45  1  0  0  0  0
 22 54  1  0  0  0  0
 23 46  1  0  0  0  0
 24 68  1  0  0  0  0
 25 26  2  0  0  0  0
 25 74  1  0  0  0  0
 26 71  1  0  0  0  0
 27 84  1  0  0  0  0
 28 85  1  0  0  0  0
 29 31  2  0  0  0  0
 29 84  1  0  0  0  0
 30 86  1  0  0  0  0
 31 87  1  0  0  0  0
 32 66  2  0  0  0  0
 33 67  1  0  0  0  0
 33 72  1  0  0  0  0
 34 35  1  0  0  0  0
 34 36  1  0  0  0  0
 34 39  2  0  0  0  0
 35 37  2  0  0  0  0
 35 47  1  0  0  0  0
 36 68  1  0  0  0  0
 36 78  2  0  0  0  0
 38 73  1  0  0  0  0
 38 79  2  0  0  0  0
 39 57  1  0  0  0  0
 39 85  1  0  0  0  0
 40 55  1  0  0  0  0
 40 75  1  0  0  0  0
 40 80  2  0  0  0  0
 41 63  1  0  0  0  0
 41 69  1  0  0  0  0
 41 81  2  0  0  0  0
 42 64  1  0  0  0  0
 42 76  1  0  0  0  0
 42 82  2  0  0  0  0
 43 70  1  0  0  0  0
 43 74  1  0  0  0  0
 43 83  2  0  0  0  0
 44 48  1  0  0  0  0
 45 55  1  0  0  0  0
 46 69  1  0  0  0  0
 47 68  1  0  0  0  0
 48 50  1  0  0  0  0
 49 51  1  0  0  0  0
 49 52  1  0  0  0  0
 50 54  1  0  0  0  0
 51 56  1  0  0  0  0
 52 70  1  0  0  0  0
 53 56  1  0  0  0  0
 53 70  1  0  0  0  0
 54 75  1  0  0  0  0
 55 69  1  0  0  0  0
 56 67  1  0  0  0  0
 58 64  1  0  0  0  0
 59 65  1  0  0  0  0
 60 65  1  0  0  0  0
 61 65  1  0  0  0  0
 62 77  1  0  0  0  0
 63 65  1  0  0  0  0
 63 76  1  0  0  0  0
 64 77  1  0  0  0  0
 66 67  1  0  0  0  0
M  CHG  1  77   1
M  ISO  4  39 101  43 100  74 100  85 101
M  END
> <Batch ID>
0078

> <Smiles>
C=C1CN(c2ccc([100NH:0][100C:0](=O)N3CCCC(n4nc(-c5ccc(Oc6ccc(F)cc6F)cc5)c(C(N)=O)c4N)C3)c(N)c2)C(=O)C1=[101C:1](C)[101O:1]c1ccc2c(c1)CN(C(=O)C(NC(=O)C(C)NC)C(C)(C)C)C(C(=O)NC1CCCc3ccccc31)C2

> <Shape>
0.309

> <Color>
0.110

> <Negative vol penalty>
0.000

$$$$

  -OEChem-04042323563D

 84 93  0     1  0  0  0  0  0999 V2000
  -25.2995  -35.5233   22.5307 C   0  0  0  0  0  0  0  0  0  0  0  0
  -25.9716  -34.3110   22.4127 C   0  0  0  0  0  0  0  0  0  0  0  0
  -24.2528  -13.4284   19.4562 C   0  0  0  0  0  0  0  0  0  0  0  0
  -26.4054  -13.6717   20.5260 C   0  0  0  0  0  0  0  0  0  0  0  0
  -23.9969  -35.5516   23.0270 C   0  0  0  0  0  0  0  0  0  0  0  0
  -25.3418  -33.1262   22.7922 C   0  0  0  0  0  0  0  0  0  0  0  0
  -26.0083  -29.4059   19.4216 C   0  0  0  0  0  0  0  0  0  0  0  0
  -30.7229  -24.3398   18.3388 C   0  0  0  0  0  0  0  0  0  0  0  0
  -29.5613  -24.1101   20.4448 C   0  0  0  0  0  0  0  0  0  0  0  0
  -29.9343  -23.3268   17.7933 C   0  0  0  0  0  0  0  0  0  0  0  0
  -28.7727  -23.0971   19.8993 C   0  0  0  0  0  0  0  0  0  0  0  0
  -24.2860  -12.0557   19.7017 C   0  0  0  0  0  0  0  0  0  0  0  0
  -26.4385  -12.2990   20.7715 C   0  0  0  0  0  0  0  0  0  0  0  0
  -27.2374  -28.7481   19.4342 C   0  0  0  0  0  0  0  0  0  0  0  0
  -23.7276   -9.9775   22.3098 C   0  0  0  0  0  0  0  0  0  0  0  0
  -22.5695   -9.3798   22.8070 C   0  0  0  0  0  0  0  0  0  0  0  0
  -26.2487  -26.9371   20.6839 C   0  0  0  0  0  0  0  0  0  0  0  0
  -22.4786   -7.9424   20.8672 C   0  0  0  0  0  0  0  0  0  0  0  0
  -25.3126  -14.2364   19.8683 C   0  0  0  0  0  0  0  0  0  0  0  0
  -24.7505  -16.6555   20.4511 C   0  0  0  0  0  0  0  0  0  0  0  0
  -23.3474  -34.3655   23.4037 C   0  0  0  0  0  0  0  0  0  0  0  0
  -24.8908  -28.8384   20.0507 C   0  0  0  0  0  0  0  0  0  0  0  0
  -24.0298  -33.1387   23.2954 C   0  0  0  0  0  0  0  0  0  0  0  0
  -25.0059  -27.5886   20.6758 C   0  0  0  0  0  0  0  0  0  0  0  0
  -30.5364  -24.7314   19.6646 C   0  0  0  0  0  0  0  0  0  0  0  0
  -28.9591  -22.7055   18.5736 C   0  0  0  0  0  0  0  0  0  0  0  0
  -25.3788  -11.4910   20.3594 C   0  0  0  0  0  0  0  0  0  0  0  0
  -27.3585  -27.5149   20.0678 C   0  0  0  0  0  0  0  0  0  0  0  0
  -24.2611   -9.5578   21.0912 C   0  0  0  0  0  0  0  0  0  0  0  0
  -21.9450   -8.3622   22.0857 C   0  0  0  0  0  0  0  0  0  0  0  0
  -23.6366   -8.5402   20.3699 C   0  0  0  0  0  0  0  0  0  0  0  0
  -25.2792  -15.6543   19.6145 C   0  0  0  0  0  0  0  0  0  0  0  0
  -24.9614  -17.8251   19.7626 C   0  0  0  0  0  0  0  0  0  0  0  0
  -32.7338  -25.7109   20.3240 C   0  0  0  0  0  0  0  0  0  0  0  0
  -30.8453  -26.9617   20.7386 C   0  0  0  0  0  0  0  0  0  0  0  0
  -33.5850  -24.6914   20.1363 C   0  0  0  0  0  0  0  0  0  0  0  0
  -29.6193  -27.5013   20.6673 C   0  0  0  0  0  0  0  0  0  1  0  0
  -24.1247  -16.5387   21.7358 C   0  0  0  0  0  0  0  0  0  0  0  0
  -22.9976  -29.6912   22.4573 C   0  0  0  0  0  0  0  0  0  0  0  0
  -21.3210  -27.0645   21.5564 C   0  0  0  0  0  0  0  0  0  0  0  0
  -22.0699  -23.6969   20.5000 C   0  0  0  0  0  0  0  0  0  0  0  0
  -28.2138  -21.1686   16.7219 C   0  0  0  0  0  0  0  0  0  0  0  0
  -21.9559  -34.4511   23.9792 C   0  0  0  0  0  0  0  0  0  0  0  0
  -23.5655  -29.5483   20.0052 C   0  0  0  0  0  0  0  0  0  0  0  0
  -23.8316  -26.9271   21.3481 C   0  0  0  0  0  0  0  0  0  0  0  0
  -33.2301  -27.0594   20.7945 C   0  0  0  0  0  0  0  0  0  0  0  0
  -31.9835  -27.7065   21.3987 C   0  0  0  0  0  0  0  0  0  0  0  0
  -21.2250  -33.1112   24.0076 C   0  0  0  0  0  0  0  0  0  0  0  0
  -26.4404  -18.6150   14.9866 C   0  0  0  0  0  0  0  0  0  0  0  0
  -22.1347  -32.0185   24.5600 C   0  0  0  0  0  0  0  0  0  0  0  0
  -25.9367  -17.6994   16.1047 C   0  0  0  0  0  0  0  0  0  0  0  0
  -27.8294  -19.1725   15.2926 C   0  0  0  0  0  0  0  0  0  0  0  0
  -27.4551  -18.9203   17.7144 C   0  0  0  0  0  0  0  0  0  0  0  0
  -23.3714  -31.8296   23.6733 C   0  0  1  0  0  0  0  0  0  0  0  0
  -22.6186  -29.1179   21.1212 C   0  0  1  0  0  0  0  0  0  0  0  0
  -26.0325  -18.3860   17.4813 C   0  0  2  0  0  0  0  0  0  0  0  0
  -20.7715  -22.1162   19.0464 C   0  0  0  0  0  0  0  0  0  0  0  0
  -20.2017  -26.0163   24.1943 C   0  0  0  0  0  0  0  0  0  0  0  0
  -20.2990  -23.7050   23.2369 C   0  0  0  0  0  0  0  0  0  0  0  0
  -18.8423  -25.4312   22.1783 C   0  0  0  0  0  0  0  0  0  0  0  0
  -24.3573  -23.3277   18.6588 C   0  0  0  0  0  0  0  0  0  0  0  0
  -21.3517  -25.5997   21.9205 C   0  0  1  0  0  0  0  0  0  0  0  0
  -21.9077  -23.1254   19.1030 C   0  0  2  0  0  0  0  0  0  0  0  0
  -20.1971  -25.2042   22.8837 C   0  0  0  0  0  0  0  0  0  0  0  0
  -25.7876  -16.1450   18.4810 N   0  0  0  0  0  0  0  0  0  0  0  0
  -25.5792  -17.4673   18.6005 N   0  0  0  0  0  0  0  0  0  0  0  0
  -31.3431  -25.7646   20.2224 N   0  0  0  0  0  0  0  0  0  0  0  0
  -22.5586  -27.6636   21.2820 N   0  0  0  0  0  0  0  0  0  0  0  0
  -27.8431  -19.8118   16.6101 N   0  0  0  0  0  0  0  0  0  0  0  0
  -24.6767  -19.1144   20.0439 N   0  0  0  0  0  0  0  0  0  0  0  0
  -23.9882  -15.2625   22.2990 N   0  0  0  0  0  0  0  0  0  0  0  0
  -28.1580  -21.6765   18.0194 N   0  0  0  0  0  0  0  0  0  0  0  0
  -23.0322  -31.0723   22.4876 N   0  0  0  0  0  0  0  0  0  0  0  0
  -21.3560  -24.8657   20.6597 N   0  0  0  0  0  0  0  0  0  0  0  0
  -23.1621  -22.4455   18.6727 N   0  3  0  0  0  0  0  0  0  0  0  0
  -23.6844  -17.5347   22.3584 O   0  0  0  0  0  0  0  0  0  0  0  0
  -23.2392  -28.9365   23.3921 O   0  0  0  0  0  0  0  0  0  0  0  0
  -20.2382  -27.6535   21.5098 O   0  0  0  0  0  0  0  0  0  0  0  0
  -22.7578  -23.1582   21.3644 O   0  0  0  0  0  0  0  0  0  0  0  0
  -28.5294  -21.8385   15.7352 O   0  0  0  0  0  0  0  0  0  0  0  0
  -25.4113  -10.1517   20.5993 O   0  0  0  0  0  0  0  0  0  0  0  0
  -28.5573  -26.8709   20.0821 O   0  0  0  0  0  0  0  0  0  1  0  0
  -20.8338   -7.7872   22.5641 F   0  0  0  0  0  0  0  0  0  0  0  0
  -24.1452   -8.1319   19.1993 F   0  0  0  0  0  0  0  0  0  0  0  0
  1  2  1  0  0  0  0
  1  5  2  0  0  0  0
  2  6  2  0  0  0  0
  3 12  2  0  0  0  0
  3 19  1  0  0  0  0
  4 13  1  0  0  0  0
  4 19  2  0  0  0  0
  5 21  1  0  0  0  0
  6 23  1  0  0  0  0
  7 14  2  0  0  0  0
  7 22  1  0  0  0  0
  8 10  2  0  0  0  0
  8 25  1  0  0  0  0
  9 11  1  0  0  0  0
  9 25  2  0  0  0  0
 10 26  1  0  0  0  0
 11 26  2  0  0  0  0
 12 27  1  0  0  0  0
 13 27  2  0  0  0  0
 14 28  1  0  0  0  0
 15 16  2  0  0  0  0
 15 29  1  0  0  0  0
 16 30  1  0  0  0  0
 17 24  1  0  0  0  0
 17 28  2  0  0  0  0
 18 30  2  0  0  0  0
 18 31  1  0  0  0  0
 19 32  1  0  0  0  0
 20 32  1  0  0  0  0
 20 33  2  0  0  0  0
 20 38  1  0  0  0  0
 21 23  2  0  0  0  0
 21 43  1  0  0  0  0
 22 24  2  0  0  0  0
 22 44  1  0  0  0  0
 23 54  1  0  0  0  0
 24 45  1  0  0  0  0
 25 67  1  0  0  0  0
 26 72  1  0  0  0  0
 27 81  1  0  0  0  0
 28 82  1  0  0  0  0
 29 31  2  0  0  0  0
 29 81  1  0  0  0  0
 30 83  1  0  0  0  0
 31 84  1  0  0  0  0
 32 65  2  0  0  0  0
 33 66  1  0  0  0  0
 33 70  1  0  0  0  0
 34 36  2  0  0  0  0
 34 46  1  0  0  0  0
 34 67  1  0  0  0  0
 35 37  2  0  0  0  0
 35 47  1  0  0  0  0
 35 67  1  0  0  0  0
 37 82  1  0  0  0  0
 38 71  1  0  0  0  0
 38 76  2  0  0  0  0
 39 55  1  0  0  0  0
 39 73  1  0  0  0  0
 39 77  2  0  0  0  0
 40 62  1  0  0  0  0
 40 68  1  0  0  0  0
 40 78  2  0  0  0  0
 41 63  1  0  0  0  0
 41 74  1  0  0  0  0
 41 79  2  0  0  0  0
 42 69  1  0  0  0  0
 42 72  1  0  0  0  0
 42 80  2  0  0  0  0
 43 48  1  0  0  0  0
 44 55  1  0  0  0  0
 45 68  1  0  0  0  0
 46 47  1  0  0  0  0
 48 50  1  0  0  0  0
 49 51  1  0  0  0  0
 49 52  1  0  0  0  0
 50 54  1  0  0  0  0
 51 56  1  0  0  0  0
 52 69  1  0  0  0  0
 53 56  1  0  0  0  0
 53 69  1  0  0  0  0
 54 73  1  0  0  0  0
 55 68  1  0  0  0  0
 56 66  1  0  0  0  0
 57 63  1  0  0  0  0
 58 64  1  0  0  0  0
 59 64  1  0  0  0  0
 60 64  1  0  0  0  0
 61 75  1  0  0  0  0
 62 64  1  0  0  0  0
 62 74  1  0  0  0  0
 63 75  1  0  0  0  0
 65 66  1  0  0  0  0
M  CHG  1  75   1
M  ISO  4  37 101  42 100  72 100  82 101
M  END
> <Batch ID>
0078

> <Smiles>
C=C1CCC(=[101CH:1][101O:1]c2ccc3c(c2)CN(C(=O)C(NC(=O)C(C)NC)C(C)(C)C)C(C(=O)NC2CCCc4ccccc42)C3)N1c1ccc([100NH:0][100C:0](=O)N2CCCC(n3nc(-c4ccc(Oc5ccc(F)cc5F)cc4)c(C(N)=O)c3N)C2)cc1

> <Shape>
0.244

> <Color>
0.089

> <Negative vol penalty>
0.000

$$$$

  -OEChem-04042323563D

 86 95  0     1  0  0  0  0  0999 V2000
  -19.8125  -30.4962   24.9371 C   0  0  0  0  0  0  0  0  0  0  0  0
  -21.1142  -30.2300   24.5248 C   0  0  0  0  0  0  0  0  0  0  0  0
  -33.0422  -22.0458   22.4873 C   0  0  0  0  0  0  0  0  0  0  0  0
  -24.6950  -13.8915   21.1142 C   0  0  0  0  0  0  0  0  0  0  0  0
  -26.6800  -13.3848   19.8335 C   0  0  0  0  0  0  0  0  0  0  0  0
  -18.7610  -29.7048   24.4767 C   0  0  0  0  0  0  0  0  0  0  0  0
  -21.3654  -29.1713   23.6526 C   0  0  0  0  0  0  0  0  0  0  0  0
  -24.5597  -30.4354   19.9320 C   0  0  0  0  0  0  0  0  0  0  0  0
  -32.8115  -23.4139   22.6309 C   0  0  0  0  0  0  0  0  0  0  0  0
  -32.2282  -21.2855   21.6477 C   0  0  0  0  0  0  0  0  0  0  0  0
  -24.1267  -12.6830   20.7116 C   0  0  0  0  0  0  0  0  0  0  0  0
  -26.1117  -12.1763   19.4309 C   0  0  0  0  0  0  0  0  0  0  0  0
  -25.9166  -30.4875   20.2480 C   0  0  0  0  0  0  0  0  0  0  0  0
  -24.3740   -9.4148   21.5427 C   0  0  0  0  0  0  0  0  0  0  0  0
  -23.7425   -8.6396   22.5153 C   0  0  0  0  0  0  0  0  0  0  0  0
  -26.2225  -28.3047   19.2676 C   0  0  0  0  0  0  0  0  0  0  0  0
  -30.9525  -23.2616   21.0953 C   0  0  0  0  0  0  0  0  0  0  0  0
  -21.6676   -8.7886   21.2866 C   0  0  0  0  0  0  0  0  0  0  0  0
  -25.9716  -14.2425   20.6751 C   0  0  0  0  0  0  0  0  0  0  0  0
  -27.3530  -15.7196   22.2300 C   0  0  0  0  0  0  0  0  0  0  0  0
  -18.9982  -28.6419   23.5909 C   0  0  0  0  0  0  0  0  0  0  0  0
  -24.0210  -29.3110   19.2901 C   0  0  0  0  0  0  0  0  0  0  0  0
  -20.3162  -28.3641   23.1810 C   0  0  0  0  0  0  0  0  0  0  0  0
  -24.8590  -28.2419   18.9423 C   0  0  0  0  0  0  0  0  0  0  0  0
  -31.7667  -24.0218   21.9349 C   0  0  0  0  0  0  0  0  0  0  0  0
  -31.1833  -21.8934   20.9517 C   0  0  0  0  0  0  0  0  0  0  0  0
  -24.8350  -11.8254   19.8699 C   0  0  0  0  0  0  0  0  0  0  0  0
  -26.7477  -29.4208   19.9184 C   0  0  0  0  0  0  0  0  0  0  0  0
  -23.6523   -9.8770   20.4421 C   0  0  0  0  0  0  0  0  0  0  0  0
  -22.3893   -8.3265   22.3872 C   0  0  0  0  0  0  0  0  0  0  0  0
  -22.2991   -9.5639   20.3141 C   0  0  0  0  0  0  0  0  0  0  0  0
  -26.5590  -15.4910   21.0902 C   0  0  0  0  0  0  0  0  0  0  0  0
  -27.6586  -17.0574   22.1728 C   0  0  0  0  0  0  0  0  0  0  0  0
  -30.6677  -27.5086   21.8874 C   0  0  0  0  0  0  0  0  0  0  0  0
  -31.7750  -27.6084   22.8048 C   0  0  0  0  0  0  0  0  0  0  0  0
  -30.5167  -26.1000   21.4271 C   0  0  0  0  0  0  0  0  0  0  0  0
  -32.2342  -28.6938   23.4369 C   0  0  0  0  0  0  0  0  0  0  0  0
  -29.8413  -28.4654   21.4509 C   0  0  0  0  0  0  0  0  0  0  0  0
  -27.7764  -14.8045   23.2492 C   0  0  0  0  0  0  0  0  0  0  0  0
  -21.8239  -27.1391   20.0379 C   0  0  0  0  0  0  0  0  0  0  0  0
  -22.3188  -26.1561   16.9865 C   0  0  0  0  0  0  0  0  0  0  0  0
  -24.4028  -26.0238   14.2872 C   0  0  0  0  0  0  0  0  0  0  0  0
  -29.2778  -21.5670   19.3365 C   0  0  0  0  0  0  0  0  0  0  0  0
  -17.8354  -27.7848   23.1575 C   0  0  0  0  0  0  0  0  0  0  0  0
  -22.5604  -29.2817   18.9321 C   0  0  0  0  0  0  0  0  0  0  0  0
  -24.3339  -27.0205   18.2345 C   0  0  0  0  0  0  0  0  0  0  0  0
  -32.3564  -26.2339   22.9429 C   0  0  0  0  0  0  0  0  0  0  0  0
  -18.1399  -26.9151   21.9405 C   0  0  0  0  0  0  0  0  0  0  0  0
  -25.8182  -20.7335   19.2195 C   0  0  0  0  0  0  0  0  0  0  0  0
  -19.4871  -26.2190   22.1055 C   0  0  0  0  0  0  0  0  0  0  0  0
  -25.7679  -19.3141   19.7895 C   0  0  0  0  0  0  0  0  0  0  0  0
  -27.0692  -20.9604   18.3726 C   0  0  0  0  0  0  0  0  0  0  0  0
  -28.2862  -19.2091   19.6058 C   0  0  0  0  0  0  0  0  0  0  0  0
  -20.6258  -27.2400   22.2163 C   0  0  1  0  0  0  0  0  0  0  0  0
  -22.0208  -27.8679   18.7388 C   0  0  1  0  0  0  0  0  0  0  0  0
  -27.0765  -18.9531   20.5194 C   0  0  2  0  0  0  0  0  0  0  0  0
  -24.5449  -25.1193   11.9507 C   0  0  0  0  0  0  0  0  0  0  0  0
  -22.8280  -23.3620   18.1017 C   0  0  0  0  0  0  0  0  0  0  0  0
  -23.8707  -22.7525   15.9087 C   0  0  0  0  0  0  0  0  0  0  0  0
  -21.4679  -23.4159   16.0037 C   0  0  0  0  0  0  0  0  0  0  0  0
  -24.6837  -28.7337   13.1311 C   0  0  0  0  0  0  0  0  0  0  0  0
  -28.7230  -28.2267   20.4913 C   0  0  0  0  0  0  0  0  0  1  0  0
  -23.2536  -25.1781   16.3167 C   0  0  1  0  0  0  0  0  0  0  0  0
  -24.1646  -26.3109   12.8157 C   0  0  2  0  0  0  0  0  0  0  0  0
  -22.8649  -23.6992   16.5977 C   0  0  0  0  0  0  0  0  0  0  0  0
  -26.3718  -16.5951   20.3623 N   0  0  0  0  0  0  0  0  0  0  0  0
  -27.0524  -17.5305   21.0463 N   0  0  0  0  0  0  0  0  0  0  0  0
  -31.5374  -25.3865   22.0783 N   0  0  0  0  0  0  0  0  0  0  0  0
  -22.8976  -27.0365   17.9115 N   0  0  0  0  0  0  0  0  0  0  0  0
  -28.2699  -20.6014   19.1304 N   0  0  0  0  0  0  0  0  0  0  0  0
  -28.3840  -17.8636   22.9768 N   0  0  0  0  0  0  0  0  0  0  0  0
  -27.3728  -13.4656   23.1547 N   0  0  0  0  0  0  0  0  0  0  0  0
  -30.3567  -21.1206   20.0988 N   0  0  0  0  0  0  0  0  0  0  0  0
  -20.9584  -27.7698   20.9112 N   0  0  0  0  0  0  0  0  0  0  0  0
  -23.2701  -25.5330   14.9017 N   0  0  0  0  0  0  0  0  0  0  0  0
  -24.9722  -27.4850   12.3797 N   0  3  0  0  0  0  0  0  0  0  0  0
  -29.6737  -25.6870   20.6485 O   0  0  0  0  0  0  0  0  0  0  0  0
  -28.4780  -15.1668   24.2239 O   0  0  0  0  0  0  0  0  0  0  0  0
  -22.4124  -26.0821   20.2329 O   0  0  0  0  0  0  0  0  0  0  0  0
  -21.1204  -26.1441   16.6943 O   0  0  0  0  0  0  0  0  0  0  0  0
  -25.4863  -26.2122   14.8357 O   0  0  0  0  0  0  0  0  0  0  0  0
  -29.1777  -22.7142   18.8939 O   0  0  0  0  0  0  0  0  0  0  0  0
  -24.2809  -10.6459   19.4771 O   0  0  0  0  0  0  0  0  0  0  0  0
  -28.0724  -29.4688   20.2263 O   0  0  0  0  0  0  0  0  0  1  0  0
  -21.7834   -7.5807   23.3204 F   0  0  0  0  0  0  0  0  0  0  0  0
  -21.6008  -10.0040   19.2584 F   0  0  0  0  0  0  0  0  0  0  0  0
  1  2  1  0  0  0  0
  1  6  2  0  0  0  0
  2  7  2  0  0  0  0
  3  9  2  0  0  0  0
  3 10  1  0  0  0  0
  4 11  2  0  0  0  0
  4 19  1  0  0  0  0
  5 12  1  0  0  0  0
  5 19  2  0  0  0  0
  6 21  1  0  0  0  0
  7 23  1  0  0  0  0
  8 13  2  0  0  0  0
  8 22  1  0  0  0  0
  9 25  1  0  0  0  0
 10 26  2  0  0  0  0
 11 27  1  0  0  0  0
 12 27  2  0  0  0  0
 13 28  1  0  0  0  0
 14 15  2  0  0  0  0
 14 29  1  0  0  0  0
 15 30  1  0  0  0  0
 16 24  1  0  0  0  0
 16 28  2  0  0  0  0
 17 25  2  0  0  0  0
 17 26  1  0  0  0  0
 18 30  2  0  0  0  0
 18 31  1  0  0  0  0
 19 32  1  0  0  0  0
 20 32  1  0  0  0  0
 20 33  2  0  0  0  0
 20 39  1  0  0  0  0
 21 23  2  0  0  0  0
 21 44  1  0  0  0  0
 22 24  2  0  0  0  0
 22 45  1  0  0  0  0
 23 54  1  0  0  0  0
 24 46  1  0  0  0  0
 25 68  1  0  0  0  0
 26 73  1  0  0  0  0
 27 83  1  0  0  0  0
 28 84  1  0  0  0  0
 29 31  2  0  0  0  0
 29 83  1  0  0  0  0
 30 85  1  0  0  0  0
 31 86  1  0  0  0  0
 32 66  2  0  0  0  0
 33 67  1  0  0  0  0
 33 71  1  0  0  0  0
 34 35  1  0  0  0  0
 34 36  1  0  0  0  0
 34 38  2  0  0  0  0
 35 37  2  0  0  0  0
 35 47  1  0  0  0  0
 36 68  1  0  0  0  0
 36 77  2  0  0  0  0
 38 62  1  0  0  0  0
 39 72  1  0  0  0  0
 39 78  2  0  0  0  0
 40 55  1  0  0  0  0
 40 74  1  0  0  0  0
 40 79  2  0  0  0  0
 41 63  1  0  0  0  0
 41 69  1  0  0  0  0
 41 80  2  0  0  0  0
 42 64  1  0  0  0  0
 42 75  1  0  0  0  0
 42 81  2  0  0  0  0
 43 70  1  0  0  0  0
 43 73  1  0  0  0  0
 43 82  2  0  0  0  0
 44 48  1  0  0  0  0
 45 55  1  0  0  0  0
 46 69  1  0  0  0  0
 47 68  1  0  0  0  0
 48 50  1  0  0  0  0
 49 51  1  0  0  0  0
 49 52  1  0  0  0  0
 50 54  1  0  0  0  0
 51 56  1  0  0  0  0
 52 70  1  0  0  0  0
 53 56  1  0  0  0  0
 53 70  1  0  0  0  0
 54 74  1  0  0  0  0
 55 69  1  0  0  0  0
 56 67  1  0  0  0  0
 57 64  1  0  0  0  0
 58 65  1  0  0  0  0
 59 65  1  0  0  0  0
 60 65  1  0  0  0  0
 61 76  1  0  0  0  0
 62 84  1  0  0  0  0
 63 65  1  0  0  0  0
 63 75  1  0  0  0  0
 64 76  1  0  0  0  0
 66 67  1  0  0  0  0
M  CHG  1  76   1
M  ISO  4  43 100  62 101  73 100  84 101
M  END
> <Batch ID>
0078

> <Smiles>
C=C1CN(c2cccc([100NH:0][100C:0](=O)N3CCCC(n4nc(-c5ccc(Oc6ccc(F)cc6F)cc5)c(C(N)=O)c4N)C3)c2)C(=O)C1=C[101CH2:1][101O:1]c1ccc2c(c1)CN(C(=O)C(NC(=O)C(C)NC)C(C)(C)C)C(C(=O)NC1CCCc3ccccc31)C2

> <Shape>
0.240

> <Color>
0.074

> <Negative vol penalty>
0.000

$$$$

  -OEChem-04042323563D

 83 91  0     1  0  0  0  0  0999 V2000
  -21.3412  -30.5680   14.4984 C   0  0  0  0  0  0  0  0  0  0  0  0
  -22.5384  -30.0804   15.0125 C   0  0  0  0  0  0  0  0  0  0  0  0
  -23.9636   -9.6631   21.9471 C   0  0  0  0  0  0  0  0  0  0  0  0
  -24.6499  -11.0908   23.7714 C   0  0  0  0  0  0  0  0  0  0  0  0
  -31.0768  -19.9703   19.6383 C   0  0  0  0  0  0  0  0  0  0  0  0
  -28.7348  -20.4620   19.9702 C   0  0  0  0  0  0  0  0  0  0  0  0
  -20.7960  -31.7476   15.0035 C   0  0  0  0  0  0  0  0  0  0  0  0
  -23.1918  -30.7729   16.0314 C   0  0  0  0  0  0  0  0  0  0  0  0
  -24.8367  -27.7126   19.7156 C   0  0  0  0  0  0  0  0  0  0  0  0
  -30.7643  -18.6285   19.4205 C   0  0  0  0  0  0  0  0  0  0  0  0
  -28.4222  -19.1202   19.7523 C   0  0  0  0  0  0  0  0  0  0  0  0
  -23.5513   -8.6935   22.8611 C   0  0  0  0  0  0  0  0  0  0  0  0
  -24.2376  -10.1211   24.6854 C   0  0  0  0  0  0  0  0  0  0  0  0
  -26.0028  -26.9893   19.4693 C   0  0  0  0  0  0  0  0  0  0  0  0
  -20.8972   -8.1443   24.8827 C   0  0  0  0  0  0  0  0  0  0  0  0
  -19.6600   -7.5366   24.6692 C   0  0  0  0  0  0  0  0  0  0  0  0
  -27.2642  -28.5985   20.7493 C   0  0  0  0  0  0  0  0  0  0  0  0
  -20.7450   -5.3839   24.5091 C   0  0  0  0  0  0  0  0  0  0  0  0
  -24.5129  -10.8618   22.4023 C   0  0  0  0  0  0  0  0  0  0  0  0
  -30.0621  -20.8870   19.9132 C   0  0  0  0  0  0  0  0  0  0  0  0
  -24.1678  -12.9142   20.9271 C   0  0  0  0  0  0  0  0  0  0  0  0
  -21.4380  -32.4498   16.0356 C   0  0  0  0  0  0  0  0  0  0  0  0
  -24.8773  -28.8922   20.4728 C   0  0  0  0  0  0  0  0  0  0  0  0
  -22.6553  -31.9638   16.5498 C   0  0  0  0  0  0  0  0  0  0  0  0
  -26.0967  -29.3336   21.0060 C   0  0  0  0  0  0  0  0  0  0  0  0
  -29.4370  -18.2034   19.4775 C   0  0  0  0  0  0  0  0  0  0  0  0
  -23.6883   -8.9224   24.2302 C   0  0  0  0  0  0  0  0  0  0  0  0
  -27.2173  -27.4337   19.9838 C   0  0  0  0  0  0  0  0  0  0  0  0
  -22.0584   -7.3718   24.9094 C   0  0  0  0  0  0  0  0  0  0  0  0
  -19.5839   -6.1564   24.4824 C   0  0  0  0  0  0  0  0  0  0  0  0
  -21.9823   -5.9916   24.7226 C   0  0  0  0  0  0  0  0  0  0  0  0
  -24.9395  -11.8637   21.4587 C   0  0  0  0  0  0  0  0  0  0  0  0
  -25.0259  -13.5787   20.0854 C   0  0  0  0  0  0  0  0  0  0  0  0
  -30.3949  -22.3157   20.1453 C   0  0  0  0  0  0  0  0  0  0  0  0
  -22.7978  -13.2587   21.1724 C   0  0  0  0  0  0  0  0  0  0  0  0
  -24.2009  -31.9459   19.9060 C   0  0  0  0  0  0  0  0  0  0  0  0
  -24.7706  -32.2578   23.0841 C   0  0  0  0  0  0  0  0  0  0  0  0
  -29.4908  -24.6091   20.0106 C   0  0  0  0  0  0  0  0  0  0  0  0
  -26.3007  -31.0504   25.8854 C   0  0  0  0  0  0  0  0  0  0  0  0
  -30.0076  -15.8024   18.9715 C   0  0  0  0  0  0  0  0  0  0  0  0
  -20.8346  -33.7456   16.5167 C   0  0  0  0  0  0  0  0  0  0  0  0
  -23.6063  -29.6466   20.7519 C   0  0  0  0  0  0  0  0  0  0  0  0
  -26.1908  -30.5828   21.8421 C   0  0  0  0  0  0  0  0  0  0  0  0
  -21.3970  -34.2198   17.8543 C   0  0  0  0  0  0  0  0  0  0  0  0
  -29.6262  -12.3092   18.3980 C   0  0  0  0  0  0  0  0  0  0  0  0
  -22.9194  -34.1239   17.8575 C   0  0  0  0  0  0  0  0  0  0  0  0
  -28.3094  -11.9683   19.0994 C   0  0  0  0  0  0  0  0  0  0  0  0
  -30.4235  -13.3604   19.1681 C   0  0  0  0  0  0  0  0  0  0  0  0
  -28.3661  -14.2452   20.1946 C   0  0  0  0  0  0  0  0  0  0  0  0
  -23.3811  -32.6734   17.6722 C   0  0  1  0  0  0  0  0  0  0  0  0
  -23.8460  -31.1115   21.1041 C   0  0  1  0  0  0  0  0  0  0  0  0
  -27.4980  -13.2381   19.4227 C   0  0  2  0  0  0  0  0  0  0  0  0
  -26.6127  -31.5414   28.3265 C   0  0  0  0  0  0  0  0  0  0  0  0
  -26.7601  -34.4626   22.3838 C   0  0  0  0  0  0  0  0  0  0  0  0
  -27.7055  -34.2467   24.6920 C   0  0  0  0  0  0  0  0  0  0  0  0
  -25.3306  -34.9426   24.3789 C   0  0  0  0  0  0  0  0  0  0  0  0
  -25.0226  -28.5021   26.6802 C   0  0  0  0  0  0  0  0  0  0  0  0
  -28.2260  -25.3190   19.5757 C   0  0  0  0  0  0  0  0  0  1  0  0
  -25.9887  -32.5434   23.9289 C   0  0  1  0  0  0  0  0  0  0  0  0
  -25.7806  -30.8026   27.2899 C   0  0  2  0  0  0  0  0  0  0  0  0
  -26.4451  -34.0263   23.8286 C   0  0  0  0  0  0  0  0  0  0  0  0
  -26.1916  -11.8570   20.9935 N   0  0  0  0  0  0  0  0  0  0  0  0
  -26.2131  -12.9116   20.1607 N   0  0  0  0  0  0  0  0  0  0  0  0
  -24.9215  -31.2891   22.0818 N   0  0  0  0  0  0  0  0  0  0  0  0
  -29.5921  -14.5362   19.4349 N   0  0  0  0  0  0  0  0  0  0  0  0
  -24.8732  -14.6628   19.2954 N   0  0  0  0  0  0  0  0  0  0  0  0
  -22.0603  -12.4701   22.0660 N   0  0  0  0  0  0  0  0  0  0  0  0
  -29.1206  -16.8401   19.2559 N   0  0  0  0  0  0  0  0  0  0  0  0
  -29.3878  -23.2282   19.8356 N   0  0  0  0  0  0  0  0  0  0  0  0
  -23.2427  -31.9368   18.9103 N   0  0  0  0  0  0  0  0  0  0  0  0
  -25.6575  -32.1104   25.2821 N   0  0  0  0  0  0  0  0  0  0  0  0
  -25.8188  -29.3470   27.6072 N   0  3  0  0  0  0  0  0  0  0  0  0
  -31.4945  -22.6058   20.6087 O   0  0  0  0  0  0  0  0  0  0  0  0
  -22.2394  -14.2270   20.6031 O   0  0  0  0  0  0  0  0  0  0  0  0
  -25.2645  -32.5541   19.8869 O   0  0  0  0  0  0  0  0  0  0  0  0
  -23.7217  -32.8666   23.3099 O   0  0  0  0  0  0  0  0  0  0  0  0
  -30.4679  -25.2051   20.4553 O   0  0  0  0  0  0  0  0  0  0  0  0
  -27.1913  -30.3738   25.3759 O   0  0  0  0  0  0  0  0  0  0  0  0
  -31.0589  -15.9506   18.3431 O   0  0  0  0  0  0  0  0  0  0  0  0
  -23.2858   -7.9765   25.1223 O   0  0  0  0  0  0  0  0  0  0  0  0
  -28.3571  -26.7300   19.7443 O   0  0  0  0  0  0  0  0  0  1  0  0
  -18.3956   -5.5728   24.2788 F   0  0  0  0  0  0  0  0  0  0  0  0
  -23.0942   -5.2441   24.7483 F   0  0  0  0  0  0  0  0  0  0  0  0
  1  2  1  0  0  0  0
  1  7  2  0  0  0  0
  2  8  2  0  0  0  0
  3 12  2  0  0  0  0
  3 19  1  0  0  0  0
  4 13  1  0  0  0  0
  4 19  2  0  0  0  0
  5 10  2  0  0  0  0
  5 20  1  0  0  0  0
  6 11  1  0  0  0  0
  6 20  2  0  0  0  0
  7 22  1  0  0  0  0
  8 24  1  0  0  0  0
  9 14  2  0  0  0  0
  9 23  1  0  0  0  0
 10 26  1  0  0  0  0
 11 26  2  0  0  0  0
 12 27  1  0  0  0  0
 13 27  2  0  0  0  0
 14 28  1  0  0  0  0
 15 16  2  0  0  0  0
 15 29  1  0  0  0  0
 16 30  1  0  0  0  0
 17 25  1  0  0  0  0
 17 28  2  0  0  0  0
 18 30  2  0  0  0  0
 18 31  1  0  0  0  0
 19 32  1  0  0  0  0
 20 34  1  0  0  0  0
 21 32  1  0  0  0  0
 21 33  2  0  0  0  0
 21 35  1  0  0  0  0
 22 24  2  0  0  0  0
 22 41  1  0  0  0  0
 23 25  2  0  0  0  0
 23 42  1  0  0  0  0
 24 50  1  0  0  0  0
 25 43  1  0  0  0  0
 26 68  1  0  0  0  0
 27 80  1  0  0  0  0
 28 81  1  0  0  0  0
 29 31  2  0  0  0  0
 29 80  1  0  0  0  0
 30 82  1  0  0  0  0
 31 83  1  0  0  0  0
 32 62  2  0  0  0  0
 33 63  1  0  0  0  0
 33 66  1  0  0  0  0
 34 69  1  0  0  0  0
 34 73  2  0  0  0  0
 35 67  1  0  0  0  0
 35 74  2  0  0  0  0
 36 51  1  0  0  0  0
 36 70  1  0  0  0  0
 36 75  2  0  0  0  0
 37 59  1  0  0  0  0
 37 64  1  0  0  0  0
 37 76  2  0  0  0  0
 38 58  1  0  0  0  0
 38 69  1  0  0  0  0
 38 77  2  0  0  0  0
 39 60  1  0  0  0  0
 39 71  1  0  0  0  0
 39 78  2  0  0  0  0
 40 65  1  0  0  0  0
 40 68  1  0  0  0  0
 40 79  2  0  0  0  0
 41 44  1  0  0  0  0
 42 51  1  0  0  0  0
 43 64  1  0  0  0  0
 44 46  1  0  0  0  0
 45 47  1  0  0  0  0
 45 48  1  0  0  0  0
 46 50  1  0  0  0  0
 47 52  1  0  0  0  0
 48 65  1  0  0  0  0
 49 52  1  0  0  0  0
 49 65  1  0  0  0  0
 50 70  1  0  0  0  0
 51 64  1  0  0  0  0
 52 63  1  0  0  0  0
 53 60  1  0  0  0  0
 54 61  1  0  0  0  0
 55 61  1  0  0  0  0
 56 61  1  0  0  0  0
 57 72  1  0  0  0  0
 58 81  1  0  0  0  0
 59 61  1  0  0  0  0
 59 71  1  0  0  0  0
 60 72  1  0  0  0  0
 62 63  1  0  0  0  0
M  CHG  1  72   1
M  ISO  4  40 100  58 101  68 100  81 101
M  END
> <Batch ID>
0078

> <Smiles>
CNC(C)C(=O)NC(C(=O)N1Cc2cc([101O:1][101CH2:1]C(=O)NC(=O)c3ccc([100NH:0][100C:0](=O)N4CCCC(n5nc(-c6ccc(Oc7ccc(F)cc7F)cc6)c(C(N)=O)c5N)C4)cc3)ccc2CC1C(=O)NC1CCCc2ccccc21)C(C)(C)C

> <Shape>
0.330

> <Color>
0.168

> <Negative vol penalty>
0.000

$$$$

  -OEChem-04042323563D

 89 98  0     1  0  0  0  0  0999 V2000
  -27.8522  -37.1649   20.7070 C   0  0  0  0  0  0  0  0  0  0  0  0
  -28.2247  -35.8277   20.7998 C   0  0  0  0  0  0  0  0  0  0  0  0
  -23.0286  -10.0269   21.1850 C   0  0  0  0  0  0  0  0  0  0  0  0
  -21.1033   -9.8909   22.6383 C   0  0  0  0  0  0  0  0  0  0  0  0
  -26.7025  -37.6137   21.3556 C   0  0  0  0  0  0  0  0  0  0  0  0
  -27.4483  -34.9387   21.5423 C   0  0  0  0  0  0  0  0  0  0  0  0
  -26.6780  -30.5517   19.1328 C   0  0  0  0  0  0  0  0  0  0  0  0
  -22.9643   -8.6501   20.9709 C   0  0  0  0  0  0  0  0  0  0  0  0
  -21.0390   -8.5141   22.4242 C   0  0  0  0  0  0  0  0  0  0  0  0
  -27.7244  -29.6304   19.1375 C   0  0  0  0  0  0  0  0  0  0  0  0
  -20.5856   -4.9100   22.5464 C   0  0  0  0  0  0  0  0  0  0  0  0
  -20.3840   -4.0900   23.6565 C   0  0  0  0  0  0  0  0  0  0  0  0
  -28.1020  -19.6975   21.1090 C   0  0  0  0  0  0  0  0  0  0  0  0
  -26.6404  -28.4172   20.9185 C   0  0  0  0  0  0  0  0  0  0  0  0
  -22.4267   -4.9222   24.6423 C   0  0  0  0  0  0  0  0  0  0  0  0
  -26.7619  -21.3704   22.1396 C   0  0  0  0  0  0  0  0  0  0  0  0
  -22.0981  -10.6474   22.0187 C   0  0  0  0  0  0  0  0  0  0  0  0
  -27.3686  -18.7330   21.7910 C   0  0  0  0  0  0  0  0  0  0  0  0
  -21.5277  -13.0773   21.4919 C   0  0  0  0  0  0  0  0  0  0  0  0
  -25.9064  -36.7277   22.0985 C   0  0  0  0  0  0  0  0  0  0  0  0
  -25.6085  -30.4186   20.0299 C   0  0  0  0  0  0  0  0  0  0  0  0
  -26.2877  -35.3764   22.2026 C   0  0  0  0  0  0  0  0  0  0  0  0
  -25.5803  -29.3367   20.9215 C   0  0  0  0  0  0  0  0  0  0  0  0
  -27.7992  -21.0436   21.2811 C   0  0  0  0  0  0  0  0  0  0  0  0
  -21.9695   -7.8937   21.5905 C   0  0  0  0  0  0  0  0  0  0  0  0
  -27.7071  -28.5646   20.0324 C   0  0  0  0  0  0  0  0  0  0  0  0
  -21.7079   -5.7361   22.4841 C   0  0  0  0  0  0  0  0  0  0  0  0
  -21.3044   -4.0961   24.7045 C   0  0  0  0  0  0  0  0  0  0  0  0
  -22.6284   -5.7422   23.5321 C   0  0  0  0  0  0  0  0  0  0  0  0
  -22.1644  -12.0695   22.2407 C   0  0  0  0  0  0  0  0  0  0  0  0
  -26.3507  -19.1632   22.6268 C   0  0  0  0  0  0  0  0  0  0  0  0
  -21.9047  -14.2486   22.1023 C   0  0  0  0  0  0  0  0  0  0  0  0
  -29.2791  -24.0597   19.8387 C   0  0  0  0  0  0  0  0  0  0  0  0
  -30.0980  -23.0544   19.2091 C   0  0  0  0  0  0  0  0  0  0  0  0
  -28.2761  -23.4115   20.7289 C   0  0  0  0  0  0  0  0  0  0  0  0
  -31.1054  -23.2249   18.3463 C   0  0  0  0  0  0  0  0  0  0  0  0
  -28.8709  -16.7982   21.9127 C   0  0  0  0  0  0  0  0  0  0  0  0
  -27.6968  -17.3274   21.6003 C   0  0  0  0  0  0  0  0  0  0  0  0
  -29.3274  -25.3906   19.7141 C   0  0  0  0  0  0  0  0  0  0  0  0
  -20.6720  -12.9649   20.3470 C   0  0  0  0  0  0  0  0  0  0  0  0
  -24.4263  -32.1900   22.3897 C   0  0  0  0  0  0  0  0  0  0  0  0
  -22.1037  -29.9255   22.4030 C   0  0  0  0  0  0  0  0  0  0  0  0
  -21.1715  -26.7270   21.6629 C   0  0  0  0  0  0  0  0  0  0  0  0
  -26.1851  -17.2880   24.2551 C   0  0  0  0  0  0  0  0  0  0  0  0
  -24.6984  -37.2691   22.8213 C   0  0  0  0  0  0  0  0  0  0  0  0
  -24.4742  -31.4058   19.9941 C   0  0  0  0  0  0  0  0  0  0  0  0
  -24.4452  -29.1375   21.8911 C   0  0  0  0  0  0  0  0  0  0  0  0
  -29.6154  -21.7234   19.7011 C   0  0  0  0  0  0  0  0  0  0  0  0
  -23.7260  -36.1850   23.2790 C   0  0  0  0  0  0  0  0  0  0  0  0
  -24.2500  -15.0858   26.4946 C   0  0  0  0  0  0  0  0  0  0  0  0
  -24.4791  -35.0423   23.9528 C   0  0  0  0  0  0  0  0  0  0  0  0
  -23.5381  -14.1494   25.5197 C   0  0  0  0  0  0  0  0  0  0  0  0
  -25.5848  -15.5737   25.9396 C   0  0  0  0  0  0  0  0  0  0  0  0
  -24.7666  -15.2780   23.6216 C   0  0  0  0  0  0  0  0  0  0  0  0
  -25.4579  -34.3763   22.9782 C   0  0  1  0  0  0  0  0  0  0  0  0
  -23.6895  -31.4620   21.3012 C   0  0  1  0  0  0  0  0  0  0  0  0
  -23.3984  -14.8033   24.1340 C   0  0  1  0  0  0  0  0  0  0  0  0
  -19.2214  -25.1561   21.8249 C   0  0  0  0  0  0  0  0  0  0  0  0
  -22.6383  -29.5733   25.3863 C   0  0  0  0  0  0  0  0  0  0  0  0
  -21.3898  -27.4056   25.2831 C   0  0  0  0  0  0  0  0  0  0  0  0
  -20.2202  -29.5432   24.7491 C   0  0  0  0  0  0  0  0  0  0  0  0
  -24.1131  -18.2725   23.3025 C   0  0  0  0  0  0  0  0  0  0  0  0
  -21.0444  -26.3973   18.7245 C   0  0  0  0  0  0  0  0  0  0  0  0
  -28.4123  -26.3283   20.4294 C   0  0  0  0  0  0  0  0  0  1  0  0
  -21.9006  -28.6066   23.1087 C   0  0  1  0  0  0  0  0  0  0  0  0
  -19.9473  -26.1723   20.9572 C   0  0  2  0  0  0  0  0  0  0  0  0
  -21.5597  -28.7867   24.6150 C   0  0  0  0  0  0  0  0  0  0  0  0
  -26.0272  -20.4617   22.8193 N   0  0  0  0  0  0  0  0  0  0  0  0
  -22.8909  -12.5578   23.2496 N   0  0  0  0  0  0  0  0  0  0  0  0
  -22.7130  -13.8852   23.1390 N   0  0  0  0  0  0  0  0  0  0  0  0
  -28.5153  -22.0316   20.6127 N   0  0  0  0  0  0  0  0  0  0  0  0
  -23.3627  -30.1330   21.8218 N   0  0  0  0  0  0  0  0  0  0  0  0
  -25.4310  -16.1494   24.6030 N   0  0  0  0  0  0  0  0  0  0  0  0
  -21.6203  -15.5435   21.8480 N   0  0  0  0  0  0  0  0  0  0  0  0
  -20.3871  -11.6862   19.8488 N   0  0  0  0  0  0  0  0  0  0  0  0
  -24.7501  -33.4957   22.0739 N   0  0  0  0  0  0  0  0  0  0  0  0
  -20.8837  -27.8887   22.3477 N   0  0  0  0  0  0  0  0  0  0  0  0
  -25.5761  -18.1786   23.3447 N   0  0  0  0  0  0  0  0  0  0  0  0
  -20.3410  -25.5067   19.6833 N   0  3  0  0  0  0  0  0  0  0  0  0
  -27.4380  -23.9869   21.4028 O   0  0  0  0  0  0  0  0  0  0  0  0
  -20.1878  -13.9694   19.7726 O   0  0  0  0  0  0  0  0  0  0  0  0
  -24.6808  -31.6104   23.4390 O   0  0  0  0  0  0  0  0  0  0  0  0
  -21.1771  -30.7387   22.3625 O   0  0  0  0  0  0  0  0  0  0  0  0
  -22.2721  -26.1821   21.6149 O   0  0  0  0  0  0  0  0  0  0  0  0
  -27.3007  -17.5057   24.7427 O   0  0  0  0  0  0  0  0  0  0  0  0
  -21.9063   -6.5502   21.3816 O   0  0  0  0  0  0  0  0  0  0  0  0
  -28.7276  -27.6643   20.0394 O   0  0  0  0  0  0  0  0  0  1  0  0
  -21.1098   -3.3097   25.7713 F   0  0  0  0  0  0  0  0  0  0  0  0
  -23.7078   -6.5346   23.4785 F   0  0  0  0  0  0  0  0  0  0  0  0
  1  2  1  0  0  0  0
  1  5  2  0  0  0  0
  2  6  2  0  0  0  0
  3  8  2  0  0  0  0
  3 17  1  0  0  0  0
  4  9  1  0  0  0  0
  4 17  2  0  0  0  0
  5 20  1  0  0  0  0
  6 22  1  0  0  0  0
  7 10  2  0  0  0  0
  7 21  1  0  0  0  0
  8 25  1  0  0  0  0
  9 25  2  0  0  0  0
 10 26  1  0  0  0  0
 11 12  2  0  0  0  0
 11 27  1  0  0  0  0
 12 28  1  0  0  0  0
 13 18  1  0  0  0  0
 13 24  2  0  0  0  0
 14 23  1  0  0  0  0
 14 26  2  0  0  0  0
 15 28  2  0  0  0  0
 15 29  1  0  0  0  0
 16 24  1  0  0  0  0
 16 68  2  0  0  0  0
 17 30  1  0  0  0  0
 18 31  2  0  0  0  0
 18 38  1  0  0  0  0
 19 30  1  0  0  0  0
 19 32  2  0  0  0  0
 19 40  1  0  0  0  0
 20 22  2  0  0  0  0
 20 45  1  0  0  0  0
 21 23  2  0  0  0  0
 21 46  1  0  0  0  0
 22 55  1  0  0  0  0
 23 47  1  0  0  0  0
 24 71  1  0  0  0  0
 25 86  1  0  0  0  0
 26 87  1  0  0  0  0
 27 29  2  0  0  0  0
 27 86  1  0  0  0  0
 28 88  1  0  0  0  0
 29 89  1  0  0  0  0
 30 69  2  0  0  0  0
 31 68  1  0  0  0  0
 31 78  1  0  0  0  0
 32 70  1  0  0  0  0
 32 74  1  0  0  0  0
 33 34  1  0  0  0  0
 33 35  1  0  0  0  0
 33 39  2  0  0  0  0
 34 36  2  0  0  0  0
 34 48  1  0  0  0  0
 35 71  1  0  0  0  0
 35 80  2  0  0  0  0
 37 38  2  0  0  0  0
 39 64  1  0  0  0  0
 40 75  1  0  0  0  0
 40 81  2  0  0  0  0
 41 56  1  0  0  0  0
 41 76  1  0  0  0  0
 41 82  2  0  0  0  0
 42 65  1  0  0  0  0
 42 72  1  0  0  0  0
 42 83  2  0  0  0  0
 43 66  1  0  0  0  0
 43 77  1  0  0  0  0
 43 84  2  0  0  0  0
 44 73  1  0  0  0  0
 44 78  1  0  0  0  0
 44 85  2  0  0  0  0
 45 49  1  0  0  0  0
 46 56  1  0  0  0  0
 47 72  1  0  0  0  0
 48 71  1  0  0  0  0
 49 51  1  0  0  0  0
 50 52  1  0  0  0  0
 50 53  1  0  0  0  0
 51 55  1  0  0  0  0
 52 57  1  0  0  0  0
 53 73  1  0  0  0  0
 54 57  1  0  0  0  0
 54 73  1  0  0  0  0
 55 76  1  0  0  0  0
 56 72  1  0  0  0  0
 57 70  1  0  0  0  0
 58 66  1  0  0  0  0
 59 67  1  0  0  0  0
 60 67  1  0  0  0  0
 61 67  1  0  0  0  0
 62 78  1  0  0  0  0
 63 79  1  0  0  0  0
 64 87  1  0  0  0  0
 65 67  1  0  0  0  0
 65 77  1  0  0  0  0
 66 79  1  0  0  0  0
 69 70  1  0  0  0  0
M  CHG  1  79   1
M  ISO  4  44 100  64 101  78 100  87 101
M  END
> <Batch ID>
0078

> <Smiles>
C=Cc1cc(N2CC(=C)C(=C[101CH2:1][101O:1]c3ccc4c(c3)CN(C(=O)C(NC(=O)C(C)NC)C(C)(C)C)C(C(=O)NC3CCCc5ccccc53)C4)C2=O)cnc1[100N:0](C)[100C:0](=O)N1CCCC(n2nc(-c3ccc(Oc4ccc(F)cc4F)cc3)c(C(N)=O)c2N)C1

> <Shape>
0.281

> <Color>
0.070

> <Negative vol penalty>
0.000

$$$$

  -OEChem-04042323563D

 77 84  0     1  0  0  0  0  0999 V2000
  -23.7650  -17.8373   25.3620 C   0  0  0  0  0  0  0  0  0  0  0  0
  -24.4390  -18.7425   24.5486 C   0  0  0  0  0  0  0  0  0  0  0  0
  -24.6766  -13.8203   21.2196 C   0  0  0  0  0  0  0  0  0  0  0  0
  -26.4329  -13.2982   19.6447 C   0  0  0  0  0  0  0  0  0  0  0  0
  -22.3809  -17.9264   25.5046 C   0  0  0  0  0  0  0  0  0  0  0  0
  -23.7292  -19.7368   23.8764 C   0  0  0  0  0  0  0  0  0  0  0  0
  -25.9654  -24.2696   24.1898 C   0  0  0  0  0  0  0  0  0  0  0  0
  -24.0173  -12.6403   20.8756 C   0  0  0  0  0  0  0  0  0  0  0  0
  -25.7735  -12.1181   19.3007 C   0  0  0  0  0  0  0  0  0  0  0  0
  -27.0601  -24.4984   23.3573 C   0  0  0  0  0  0  0  0  0  0  0  0
  -24.2824   -9.3433   21.5771 C   0  0  0  0  0  0  0  0  0  0  0  0
  -23.7781   -8.5569   22.6128 C   0  0  0  0  0  0  0  0  0  0  0  0
  -25.6399  -25.7160   21.8343 C   0  0  0  0  0  0  0  0  0  0  0  0
  -21.5496   -8.7989   21.7115 C   0  0  0  0  0  0  0  0  0  0  0  0
  -25.8844  -14.1493   20.6041 C   0  0  0  0  0  0  0  0  0  0  0  0
  -27.5267  -15.5412   21.9728 C   0  0  0  0  0  0  0  0  0  0  0  0
  -21.6549  -18.9283   24.8414 C   0  0  0  0  0  0  0  0  0  0  0  0
  -24.6954  -24.7538   23.8447 C   0  0  0  0  0  0  0  0  0  0  0  0
  -22.3339  -19.8386   24.0091 C   0  0  0  0  0  0  0  0  0  0  0  0
  -24.5311  -25.4942   22.6654 C   0  0  0  0  0  0  0  0  0  0  0  0
  -24.5657  -11.7892   19.9162 C   0  0  0  0  0  0  0  0  0  0  0  0
  -26.8969  -25.2193   22.1780 C   0  0  0  0  0  0  0  0  0  0  0  0
  -23.4204   -9.8576   20.6085 C   0  0  0  0  0  0  0  0  0  0  0  0
  -22.4117   -8.2847   22.6801 C   0  0  0  0  0  0  0  0  0  0  0  0
  -22.0540   -9.5854   20.6757 C   0  0  0  0  0  0  0  0  0  0  0  0
  -26.5657  -15.3684   20.9587 C   0  0  0  0  0  0  0  0  0  0  0  0
  -27.8623  -16.8713   21.9048 C   0  0  0  0  0  0  0  0  0  0  0  0
  -29.0957  -23.5727   19.4799 C   0  0  0  0  0  0  0  0  0  0  0  0
  -28.0677  -14.5848   22.8938 C   0  0  0  0  0  0  0  0  0  0  0  0
  -21.8817  -23.4179   23.2106 C   0  0  0  0  0  0  0  0  0  0  0  0
  -30.1343  -25.8652   19.2888 C   0  0  0  0  0  0  0  0  0  0  0  0
  -20.8721  -26.4998   23.1435 C   0  0  0  0  0  0  0  0  0  0  0  0
  -21.6490  -29.7942   22.7069 C   0  0  0  0  0  0  0  0  0  0  0  0
  -29.2069  -21.3681   18.9917 C   0  0  0  0  0  0  0  0  0  0  0  0
  -20.1542  -18.9557   24.9889 C   0  0  0  0  0  0  0  0  0  0  0  0
  -23.5299  -24.5213   24.7668 C   0  0  0  0  0  0  0  0  0  0  0  0
  -23.1926  -26.0529   22.2597 C   0  0  0  0  0  0  0  0  0  0  0  0
  -19.5217  -20.2700   24.5385 C   0  0  0  0  0  0  0  0  0  0  0  0
  -25.7300  -20.6965   19.3779 C   0  0  0  0  0  0  0  0  0  0  0  0
  -20.0910  -20.7021   23.1909 C   0  0  0  0  0  0  0  0  0  0  0  0
  -25.7135  -19.2543   19.8891 C   0  0  0  0  0  0  0  0  0  0  0  0
  -26.8395  -20.9164   18.3528 C   0  0  0  0  0  0  0  0  0  0  0  0
  -28.1768  -19.0788   19.3343 C   0  0  0  0  0  0  0  0  0  0  0  0
  -21.6021  -20.9465   23.2831 C   0  0  1  0  0  0  0  0  0  0  0  0
  -22.1809  -24.6198   24.0611 C   0  0  1  0  0  0  0  0  0  0  0  0
  -27.1013  -18.8304   20.4056 C   0  0  2  0  0  0  0  0  0  0  0  0
  -30.0292  -27.3287   18.9349 C   0  0  0  0  0  0  0  0  0  0  0  0
  -20.6064  -32.0765   22.6750 C   0  0  0  0  0  0  0  0  0  0  0  0
  -19.7107  -25.9281   20.3805 C   0  0  0  0  0  0  0  0  0  0  0  0
  -19.5464  -28.3994   20.0148 C   0  0  0  0  0  0  0  0  0  0  0  0
  -18.2525  -27.3242   21.8566 C   0  0  0  0  0  0  0  0  0  0  0  0
  -23.3199  -30.7161   24.9690 C   0  0  0  0  0  0  0  0  0  0  0  0
  -27.6994  -25.5649   19.9663 C   0  0  0  0  0  0  0  0  0  1  0  0
  -28.8671  -25.0264   19.1382 C   0  0  2  0  0  0  0  0  0  0  0  0
  -20.7593  -27.5650   22.0797 C   0  0  1  0  0  0  0  0  0  0  0  0
  -21.3064  -31.0268   23.5240 C   0  0  2  0  0  0  0  0  0  0  0  0
  -19.5922  -27.2921   21.0893 C   0  0  0  0  0  0  0  0  0  0  0  0
  -26.3074  -16.4985   20.2952 N   0  0  0  0  0  0  0  0  0  0  0  0
  -28.9459  -22.6578   18.5794 N   0  0  0  0  0  0  0  0  0  0  0  0
  -27.1110  -17.3941   20.8937 N   0  0  0  0  0  0  0  0  0  0  0  0
  -22.0824  -25.7936   23.1913 N   0  0  0  0  0  0  0  0  0  0  0  0
  -28.1284  -20.4754   18.8849 N   0  0  0  0  0  0  0  0  0  0  0  0
  -28.7239  -17.6330   22.6119 N   0  0  0  0  0  0  0  0  0  0  0  0
  -27.6127  -13.2609   22.8265 N   0  0  0  0  0  0  0  0  0  0  0  0
  -21.8701  -22.2245   23.9072 N   0  0  0  0  0  0  0  0  0  0  0  0
  -20.6588  -28.8378   22.7854 N   0  0  0  0  0  0  0  0  0  0  0  0
  -22.5439  -31.6314   24.0932 N   0  3  0  0  0  0  0  0  0  0  0  0
  -28.9170  -14.8987   23.7620 O   0  0  0  0  0  0  0  0  0  0  0  0
  -21.6750  -23.5626   22.0114 O   0  0  0  0  0  0  0  0  0  0  0  0
  -31.1929  -25.3985   19.7096 O   0  0  0  0  0  0  0  0  0  0  0  0
  -19.9241  -26.3066   23.9087 O   0  0  0  0  0  0  0  0  0  0  0  0
  -22.6892  -29.6916   22.0604 O   0  0  0  0  0  0  0  0  0  0  0  0
  -30.3047  -21.0271   19.4356 O   0  0  0  0  0  0  0  0  0  0  0  0
  -23.9227  -10.6375   19.5804 O   0  0  0  0  0  0  0  0  0  0  0  0
  -27.9707  -25.4450   21.3579 O   0  0  0  0  0  0  0  0  0  1  0  0
  -21.9277   -7.5282   23.6739 F   0  0  0  0  0  0  0  0  0  0  0  0
  -21.2210  -10.0757   19.7475 F   0  0  0  0  0  0  0  0  0  0  0  0
  1  2  1  0  0  0  0
  1  5  2  0  0  0  0
  2  6  2  0  0  0  0
  3  8  2  0  0  0  0
  3 15  1  0  0  0  0
  4  9  1  0  0  0  0
  4 15  2  0  0  0  0
  5 17  1  0  0  0  0
  6 19  1  0  0  0  0
  7 10  2  0  0  0  0
  7 18  1  0  0  0  0
  8 21  1  0  0  0  0
  9 21  2  0  0  0  0
 10 22  1  0  0  0  0
 11 12  2  0  0  0  0
 11 23  1  0  0  0  0
 12 24  1  0  0  0  0
 13 20  1  0  0  0  0
 13 22  2  0  0  0  0
 14 24  2  0  0  0  0
 14 25  1  0  0  0  0
 15 26  1  0  0  0  0
 16 26  1  0  0  0  0
 16 27  2  0  0  0  0
 16 29  1  0  0  0  0
 17 19  2  0  0  0  0
 17 35  1  0  0  0  0
 18 20  2  0  0  0  0
 18 36  1  0  0  0  0
 19 44  1  0  0  0  0
 20 37  1  0  0  0  0
 21 74  1  0  0  0  0
 22 75  1  0  0  0  0
 23 25  2  0  0  0  0
 23 74  1  0  0  0  0
 24 76  1  0  0  0  0
 25 77  1  0  0  0  0
 26 58  2  0  0  0  0
 27 60  1  0  0  0  0
 27 63  1  0  0  0  0
 28 54  1  0  0  0  0
 28 59  2  0  0  0  0
 29 64  1  0  0  0  0
 29 68  2  0  0  0  0
 30 45  1  0  0  0  0
 30 65  1  0  0  0  0
 30 69  2  0  0  0  0
 31 47  1  0  0  0  0
 31 54  1  0  0  0  0
 31 70  2  0  0  0  0
 32 55  1  0  0  0  0
 32 61  1  0  0  0  0
 32 71  2  0  0  0  0
 33 56  1  0  0  0  0
 33 66  1  0  0  0  0
 33 72  2  0  0  0  0
 34 59  1  0  0  0  0
 34 62  1  0  0  0  0
 34 73  2  0  0  0  0
 35 38  1  0  0  0  0
 36 45  1  0  0  0  0
 37 61  1  0  0  0  0
 38 40  1  0  0  0  0
 39 41  1  0  0  0  0
 39 42  1  0  0  0  0
 40 44  1  0  0  0  0
 41 46  1  0  0  0  0
 42 62  1  0  0  0  0
 43 46  1  0  0  0  0
 43 62  1  0  0  0  0
 44 65  1  0  0  0  0
 45 61  1  0  0  0  0
 46 60  1  0  0  0  0
 48 56  1  0  0  0  0
 49 57  1  0  0  0  0
 50 57  1  0  0  0  0
 51 57  1  0  0  0  0
 52 67  1  0  0  0  0
 53 54  1  0  0  0  0
 53 75  1  0  0  0  0
 55 57  1  0  0  0  0
 55 66  1  0  0  0  0
 56 67  1  0  0  0  0
 58 60  1  0  0  0  0
M  CHG  1  67   1
M  ISO  4  34 100  53 101  59 100  75 101
M  END
> <Batch ID>
0078

> <Smiles>
CNC(C)C(=O)NC(C(=O)N1Cc2cc([101O:1][101CH2:1]C(=C[100NH:0][100C:0](=O)N3CCCC(n4nc(-c5ccc(Oc6ccc(F)cc6F)cc5)c(C(N)=O)c4N)C3)C(C)=O)ccc2CC1C(=O)NC1CCCc2ccccc21)C(C)(C)C

> <Shape>
0.209

> <Color>
0.076

> <Negative vol penalty>
0.000

$$$$

  -OEChem-04042323563D

 86 95  0     1  0  0  0  0  0999 V2000
  -27.6884  -20.5636   26.7232 C   0  0  0  0  0  0  0  0  0  0  0  0
  -27.9027  -21.2832   25.5521 C   0  0  0  0  0  0  0  0  0  0  0  0
  -24.7365  -13.3792   21.3487 C   0  0  0  0  0  0  0  0  0  0  0  0
  -26.7879  -12.7114   20.2611 C   0  0  0  0  0  0  0  0  0  0  0  0
  -26.3948  -20.4145   27.2215 C   0  0  0  0  0  0  0  0  0  0  0  0
  -26.8233  -21.8533   24.8779 C   0  0  0  0  0  0  0  0  0  0  0  0
  -27.7498  -26.6059   23.3949 C   0  0  0  0  0  0  0  0  0  0  0  0
  -29.5993  -24.2687   17.2899 C   0  0  0  0  0  0  0  0  0  0  0  0
  -29.8745  -25.6039   17.5850 C   0  0  0  0  0  0  0  0  0  0  0  0
  -24.1049  -12.2360   20.8593 C   0  0  0  0  0  0  0  0  0  0  0  0
  -26.1563  -11.5681   19.7717 C   0  0  0  0  0  0  0  0  0  0  0  0
  -28.5398  -26.7758   22.2588 C   0  0  0  0  0  0  0  0  0  0  0  0
  -23.9670   -8.9454   21.6247 C   0  0  0  0  0  0  0  0  0  0  0  0
  -23.1712   -8.2161   22.5081 C   0  0  0  0  0  0  0  0  0  0  0  0
  -26.5537  -27.1441   20.9402 C   0  0  0  0  0  0  0  0  0  0  0  0
  -32.0409  -24.9672   18.4445 C   0  0  0  0  0  0  0  0  0  0  0  0
  -21.2554   -8.5787   21.0814 C   0  0  0  0  0  0  0  0  0  0  0  0
  -26.0781  -13.6170   21.0496 C   0  0  0  0  0  0  0  0  0  0  0  0
  -27.4215  -14.9323   22.7738 C   0  0  0  0  0  0  0  0  0  0  0  0
  -25.3001  -20.9911   26.5584 C   0  0  0  0  0  0  0  0  0  0  0  0
  -26.3528  -26.6931   23.3100 C   0  0  0  0  0  0  0  0  0  0  0  0
  -25.5138  -21.7106   25.3671 C   0  0  0  0  0  0  0  0  0  0  0  0
  -25.7484  -26.9774   22.0771 C   0  0  0  0  0  0  0  0  0  0  0  0
  -30.5448  -23.2827   17.5721 C   0  0  0  0  0  0  0  0  0  0  0  0
  -31.0954  -25.9531   18.1623 C   0  0  0  0  0  0  0  0  0  0  0  0
  -24.8147  -11.3304   20.0709 C   0  0  0  0  0  0  0  0  0  0  0  0
  -27.9417  -27.0421   21.0306 C   0  0  0  0  0  0  0  0  0  0  0  0
  -23.4071   -9.4914   20.4697 C   0  0  0  0  0  0  0  0  0  0  0  0
  -21.8154   -8.0327   22.2365 C   0  0  0  0  0  0  0  0  0  0  0  0
  -31.7656  -23.6320   18.1493 C   0  0  0  0  0  0  0  0  0  0  0  0
  -22.0513   -9.3081   20.1981 C   0  0  0  0  0  0  0  0  0  0  0  0
  -26.7310  -14.7981   21.5543 C   0  0  0  0  0  0  0  0  0  0  0  0
  -27.8519  -16.2365   22.7829 C   0  0  0  0  0  0  0  0  0  0  0  0
  -31.8842  -29.0803   19.0759 C   0  0  0  0  0  0  0  0  0  0  0  0
  -30.7842  -28.1654   19.2311 C   0  0  0  0  0  0  0  0  0  0  0  0
  -32.1854  -30.3064   19.4984 C   0  0  0  0  0  0  0  0  0  0  0  0
  -29.6290  -28.2197   19.9184 C   0  0  0  0  0  0  0  0  0  1  0  0
  -27.6531  -13.9645   23.8060 C   0  0  0  0  0  0  0  0  0  0  0  0
  -23.9433  -24.6918   23.8508 C   0  0  0  0  0  0  0  0  0  0  0  0
  -22.1395  -27.3296   23.2938 C   0  0  0  0  0  0  0  0  0  0  0  0
  -21.8768  -30.4056   21.8392 C   0  0  0  0  0  0  0  0  0  0  0  0
  -29.0465  -20.0150   18.4067 C   0  0  0  0  0  0  0  0  0  0  0  0
  -23.9150  -20.7629   27.1097 C   0  0  0  0  0  0  0  0  0  0  0  0
  -25.5162  -26.5338   24.5498 C   0  0  0  0  0  0  0  0  0  0  0  0
  -24.2539  -27.1012   21.9365 C   0  0  0  0  0  0  0  0  0  0  0  0
  -32.5564  -28.0547   18.2330 C   0  0  0  0  0  0  0  0  0  0  0  0
  -22.8675  -21.7150   26.5384 C   0  0  0  0  0  0  0  0  0  0  0  0
  -26.7037  -20.5707   21.1085 C   0  0  0  0  0  0  0  0  0  0  0  0
  -23.0004  -21.8069   25.0216 C   0  0  0  0  0  0  0  0  0  0  0  0
  -26.5146  -19.1504   21.6441 C   0  0  0  0  0  0  0  0  0  0  0  0
  -26.8369  -20.5752   19.5885 C   0  0  0  0  0  0  0  0  0  0  0  0
  -27.7359  -18.2805   19.5967 C   0  0  0  0  0  0  0  0  0  0  0  0
  -24.3714  -22.3648   24.6207 C   0  0  1  0  0  0  0  0  0  0  0  0
  -24.0747  -26.1342   24.2506 C   0  0  1  0  0  0  0  0  0  0  0  0
  -27.6175  -18.2062   21.1299 C   0  0  2  0  0  0  0  0  0  0  0  0
  -29.9909  -21.6180   15.7600 C   0  0  0  0  0  0  0  0  0  0  0  0
  -20.2678  -32.3057   21.5261 C   0  0  0  0  0  0  0  0  0  0  0  0
  -20.6245  -25.6996   21.2063 C   0  0  0  0  0  0  0  0  0  0  0  0
  -19.7181  -27.8458   20.2896 C   0  0  0  0  0  0  0  0  0  0  0  0
  -19.1846  -27.1672   22.6300 C   0  0  0  0  0  0  0  0  0  0  0  0
  -23.6690  -32.3053   23.2313 C   0  0  0  0  0  0  0  0  0  0  0  0
  -30.2473  -21.8560   17.2552 C   0  0  2  0  0  0  0  0  0  0  0  0
  -21.5188  -27.9618   22.0715 C   0  0  1  0  0  0  0  0  0  0  0  0
  -21.3902  -31.7377   22.3806 C   0  0  2  0  0  0  0  0  0  0  0  0
  -20.2896  -27.1644   21.5513 C   0  0  0  0  0  0  0  0  0  0  0  0
  -26.7208  -15.9270   20.8406 N   0  0  0  0  0  0  0  0  0  0  0  0
  -27.4100  -16.7831   21.6141 N   0  0  0  0  0  0  0  0  0  0  0  0
  -31.3683  -27.2793   18.4549 N   0  0  0  0  0  0  0  0  0  0  0  0
  -23.4786  -26.9310   23.1764 N   0  0  0  0  0  0  0  0  0  0  0  0
  -27.9157  -19.6709   19.1657 N   0  0  0  0  0  0  0  0  0  0  0  0
  -28.5614  -16.9578   23.6767 N   0  0  0  0  0  0  0  0  0  0  0  0
  -27.1410  -12.6709   23.6361 N   0  0  0  0  0  0  0  0  0  0  0  0
  -24.4051  -23.8004   24.8004 N   0  0  0  0  0  0  0  0  0  0  0  0
  -21.2252  -29.3447   22.4316 N   0  0  0  0  0  0  0  0  0  0  0  0
  -29.1381  -21.3501   18.0329 N   0  0  0  0  0  0  0  0  0  0  0  0
  -22.5063  -32.7249   22.4072 N   0  3  0  0  0  0  0  0  0  0  0  0
  -28.2810  -14.2433   24.8555 O   0  0  0  0  0  0  0  0  0  0  0  0
  -23.4576  -24.4084   22.7620 O   0  0  0  0  0  0  0  0  0  0  0  0
  -21.4633  -27.2009   24.3174 O   0  0  0  0  0  0  0  0  0  0  0  0
  -22.7453  -30.3154   20.9742 O   0  0  0  0  0  0  0  0  0  0  0  0
  -29.9139  -19.1938   18.0898 O   0  0  0  0  0  0  0  0  0  0  0  0
  -24.1987  -10.2146   19.5933 O   0  0  0  0  0  0  0  0  0  0  0  0
  -28.7104  -27.2077   19.9200 O   0  0  0  0  0  0  0  0  0  1  0  0
  -21.0516   -7.3311   23.0840 F   0  0  0  0  0  0  0  0  0  0  0  0
  -32.6799  -22.6915   18.4252 F   0  0  0  0  0  0  0  0  0  0  0  0
  -21.5079   -9.8292   19.0895 F   0  0  0  0  0  0  0  0  0  0  0  0
  1  2  1  0  0  0  0
  1  5  2  0  0  0  0
  2  6  2  0  0  0  0
  3 10  2  0  0  0  0
  3 18  1  0  0  0  0
  4 11  1  0  0  0  0
  4 18  2  0  0  0  0
  5 20  1  0  0  0  0
  6 22  1  0  0  0  0
  7 12  2  0  0  0  0
  7 21  1  0  0  0  0
  8  9  2  0  0  0  0
  8 24  1  0  0  0  0
  9 25  1  0  0  0  0
 10 26  1  0  0  0  0
 11 26  2  0  0  0  0
 12 27  1  0  0  0  0
 13 14  2  0  0  0  0
 13 28  1  0  0  0  0
 14 29  1  0  0  0  0
 15 23  1  0  0  0  0
 15 27  2  0  0  0  0
 16 25  2  0  0  0  0
 16 30  1  0  0  0  0
 17 29  2  0  0  0  0
 17 31  1  0  0  0  0
 18 32  1  0  0  0  0
 19 32  1  0  0  0  0
 19 33  2  0  0  0  0
 19 38  1  0  0  0  0
 20 22  2  0  0  0  0
 20 43  1  0  0  0  0
 21 23  2  0  0  0  0
 21 44  1  0  0  0  0
 22 53  1  0  0  0  0
 23 45  1  0  0  0  0
 24 30  2  0  0  0  0
 24 62  1  0  0  0  0
 25 68  1  0  0  0  0
 26 82  1  0  0  0  0
 27 83  1  0  0  0  0
 28 31  2  0  0  0  0
 28 82  1  0  0  0  0
 29 84  1  0  0  0  0
 30 85  1  0  0  0  0
 31 86  1  0  0  0  0
 32 66  2  0  0  0  0
 33 67  1  0  0  0  0
 33 71  1  0  0  0  0
 34 35  1  0  0  0  0
 34 36  2  0  0  0  0
 34 46  1  0  0  0  0
 35 37  2  0  0  0  0
 35 68  1  0  0  0  0
 37 83  1  0  0  0  0
 38 72  1  0  0  0  0
 38 77  2  0  0  0  0
 39 54  1  0  0  0  0
 39 73  1  0  0  0  0
 39 78  2  0  0  0  0
 40 63  1  0  0  0  0
 40 69  1  0  0  0  0
 40 79  2  0  0  0  0
 41 64  1  0  0  0  0
 41 74  1  0  0  0  0
 41 80  2  0  0  0  0
 42 70  1  0  0  0  0
 42 75  1  0  0  0  0
 42 81  2  0  0  0  0
 43 47  1  0  0  0  0
 44 54  1  0  0  0  0
 45 69  1  0  0  0  0
 46 68  1  0  0  0  0
 47 49  1  0  0  0  0
 48 50  1  0  0  0  0
 48 51  1  0  0  0  0
 49 53  1  0  0  0  0
 50 55  1  0  0  0  0
 51 70  1  0  0  0  0
 52 55  1  0  0  0  0
 52 70  1  0  0  0  0
 53 73  1  0  0  0  0
 54 69  1  0  0  0  0
 55 67  1  0  0  0  0
 56 62  1  0  0  0  0
 57 64  1  0  0  0  0
 58 65  1  0  0  0  0
 59 65  1  0  0  0  0
 60 65  1  0  0  0  0
 61 76  1  0  0  0  0
 62 75  1  0  0  0  0
 63 65  1  0  0  0  0
 63 74  1  0  0  0  0
 64 76  1  0  0  0  0
 66 67  1  0  0  0  0
M  CHG  1  76   1
M  ISO  4  37 101  42 100  75 100  83 101
M  END
> <Batch ID>
0078

> <Smiles>
C=C1CN(c2ccc(C(C)[100NH:0][100C:0](=O)N3CCCC(n4nc(-c5ccc(Oc6ccc(F)cc6F)cc5)c(C(N)=O)c4N)C3)c(F)c2)C1=[101CH:1][101O:1]c1ccc2c(c1)CN(C(=O)C(NC(=O)C(C)NC)C(C)(C)C)C(C(=O)NC1CCCc3ccccc31)C2

> <Shape>
0.224

> <Color>
0.063

> <Negative vol penalty>
0.000

$$$$

  -OEChem-04042323563D

 87 96  0     1  0  0  0  0  0999 V2000
  -17.7412  -28.2657   24.3400 C   0  0  0  0  0  0  0  0  0  0  0  0
  -18.7091  -27.6443   23.5576 C   0  0  0  0  0  0  0  0  0  0  0  0
  -24.6988  -19.2099   17.7825 C   0  0  0  0  0  0  0  0  0  0  0  0
  -23.1649   -9.6797   19.8364 C   0  0  0  0  0  0  0  0  0  0  0  0
  -24.4830   -9.2508   21.8152 C   0  0  0  0  0  0  0  0  0  0  0  0
  -17.4396  -29.6115   24.1355 C   0  0  0  0  0  0  0  0  0  0  0  0
  -19.3754  -28.3681   22.5693 C   0  0  0  0  0  0  0  0  0  0  0  0
  -24.3682  -27.5213   22.5738 C   0  0  0  0  0  0  0  0  0  0  0  0
  -25.4191  -20.3865   17.9884 C   0  0  0  0  0  0  0  0  0  0  0  0
  -25.1296  -18.0176   18.3644 C   0  0  0  0  0  0  0  0  0  0  0  0
  -22.0717   -9.0461   20.4272 C   0  0  0  0  0  0  0  0  0  0  0  0
  -23.3897   -8.6173   22.4061 C   0  0  0  0  0  0  0  0  0  0  0  0
  -24.8131  -26.3340   21.9940 C   0  0  0  0  0  0  0  0  0  0  0  0
  -21.8586   -5.6082   22.2279 C   0  0  0  0  0  0  0  0  0  0  0  0
  -22.0860   -4.3954   22.8783 C   0  0  0  0  0  0  0  0  0  0  0  0
  -25.3930  -27.5388   19.9862 C   0  0  0  0  0  0  0  0  0  0  0  0
  -27.0010  -19.1785   19.3579 C   0  0  0  0  0  0  0  0  0  0  0  0
  -21.2832   -5.3537   24.9458 C   0  0  0  0  0  0  0  0  0  0  0  0
  -24.3706   -9.7820   20.5304 C   0  0  0  0  0  0  0  0  0  0  0  0
  -26.1494  -10.0726   18.7251 C   0  0  0  0  0  0  0  0  0  0  0  0
  -18.1093  -30.3547   23.1508 C   0  0  0  0  0  0  0  0  0  0  0  0
  -24.4223  -28.7265   21.8589 C   0  0  0  0  0  0  0  0  0  0  0  0
  -19.0815  -29.7248   22.3505 C   0  0  0  0  0  0  0  0  0  0  0  0
  -24.9504  -28.7405   20.5601 C   0  0  0  0  0  0  0  0  0  0  0  0
  -26.5702  -20.3708   18.7760 C   0  0  0  0  0  0  0  0  0  0  0  0
  -26.2807  -18.0019   19.1521 C   0  0  0  0  0  0  0  0  0  0  0  0
  -22.1841   -8.5149   21.7121 C   0  0  0  0  0  0  0  0  0  0  0  0
  -25.3229  -26.3421   20.6990 C   0  0  0  0  0  0  0  0  0  0  0  0
  -21.3435   -6.6937   22.9364 C   0  0  0  0  0  0  0  0  0  0  0  0
  -21.7984   -4.2682   24.2372 C   0  0  0  0  0  0  0  0  0  0  0  0
  -21.0558   -6.5665   24.2953 C   0  0  0  0  0  0  0  0  0  0  0  0
  -25.5004  -10.4358   19.9204 C   0  0  0  0  0  0  0  0  0  0  0  0
  -27.1513  -11.0012   18.5826 C   0  0  0  0  0  0  0  0  0  0  0  0
  -28.9946  -23.8755   18.7210 C   0  0  0  0  0  0  0  0  0  0  0  0
  -27.6008  -24.0202   19.1660 C   0  0  0  0  0  0  0  0  0  0  0  0
  -29.5332  -22.5134   18.5973 C   0  0  0  0  0  0  0  0  0  0  0  0
  -26.6698  -22.8434   18.9928 C   0  0  0  0  0  0  0  0  0  0  0  0
  -29.7529  -24.9551   18.4425 C   0  0  0  0  0  0  0  0  0  0  0  0
  -30.5960  -22.1495   17.8600 C   0  0  0  0  0  0  0  0  0  0  0  0
  -27.0642  -25.1116   19.7375 C   0  0  0  0  0  0  0  0  0  1  0  0
  -25.8713   -8.9925   17.8241 C   0  0  0  0  0  0  0  0  0  0  0  0
  -22.2664  -30.8258   20.8348 C   0  0  0  0  0  0  0  0  0  0  0  0
  -24.8962  -32.5201   19.9770 C   0  0  0  0  0  0  0  0  0  0  0  0
  -28.1020  -31.8251   18.4746 C   0  0  0  0  0  0  0  0  0  0  0  0
  -27.8378  -16.6009   20.5516 C   0  0  0  0  0  0  0  0  0  0  0  0
  -17.7157  -31.7945   22.9348 C   0  0  0  0  0  0  0  0  0  0  0  0
  -23.9631  -30.0031   22.5083 C   0  0  0  0  0  0  0  0  0  0  0  0
  -25.0490  -30.0113   19.7577 C   0  0  0  0  0  0  0  0  0  0  0  0
  -28.7345  -21.4897   19.3680 C   0  0  0  0  0  0  0  0  0  0  0  0
  -18.7327  -32.5882   22.1187 C   0  0  0  0  0  0  0  0  0  0  0  0
  -30.0127  -13.8482   21.1597 C   0  0  0  0  0  0  0  0  0  0  0  0
  -19.1624  -31.7977   20.8870 C   0  0  0  0  0  0  0  0  0  0  0  0
  -29.1635  -12.6280   20.7963 C   0  0  0  0  0  0  0  0  0  0  0  0
  -29.1790  -14.9415   21.8255 C   0  0  0  0  0  0  0  0  0  0  0  0
  -27.1343  -14.1323   20.7148 C   0  0  0  0  0  0  0  0  0  0  0  0
  -19.8435  -30.4828   21.2852 C   0  0  1  0  0  0  0  0  0  0  0  0
  -23.5884  -31.0851   21.5002 C   0  0  1  0  0  0  0  0  0  0  0  0
  -27.9178  -13.0305   19.9828 C   0  0  2  0  0  0  0  0  0  0  0  0
  -30.2926  -33.0333   18.6720 C   0  0  0  0  0  0  0  0  0  0  0  0
  -23.9948  -33.9680   17.4469 C   0  0  0  0  0  0  0  0  0  0  0  0
  -26.3621  -33.8795   16.6366 C   0  0  0  0  0  0  0  0  0  0  0  0
  -25.8058  -35.1277   18.7236 C   0  0  0  0  0  0  0  0  0  0  0  0
  -29.5086  -29.3722   19.3486 C   0  0  0  0  0  0  0  0  0  0  0  0
  -25.7605  -32.5999   18.7418 C   0  0  1  0  0  0  0  0  0  0  0  0
  -29.4550  -31.8624   19.1620 C   0  0  2  0  0  0  0  0  0  0  0  0
  -25.4670  -33.8699   17.8942 C   0  0  0  0  0  0  0  0  0  0  0  0
  -26.0445  -11.5111   20.4963 N   0  0  0  0  0  0  0  0  0  0  0  0
  -27.0460  -11.8315   19.6594 N   0  0  0  0  0  0  0  0  0  0  0  0
  -27.3138  -21.5874   18.9887 N   0  0  0  0  0  0  0  0  0  0  0  0
  -24.5813  -31.2325   20.4341 N   0  0  0  0  0  0  0  0  0  0  0  0
  -28.0187  -15.2740   20.9960 N   0  0  0  0  0  0  0  0  0  0  0  0
  -28.1035  -11.1802   17.6425 N   0  0  0  0  0  0  0  0  0  0  0  0
  -26.5061   -7.7618   18.0403 N   0  0  0  0  0  0  0  0  0  0  0  0
  -26.7177  -16.7904   19.7430 N   0  0  0  0  0  0  0  0  0  0  0  0
  -21.2041  -30.7278   21.7132 N   0  0  0  0  0  0  0  0  0  0  0  0
  -27.1409  -32.4946   19.2021 N   0  0  0  0  0  0  0  0  0  0  0  0
  -30.2062  -30.6031   18.8957 N   0  3  0  0  0  0  0  0  0  0  0  0
  -25.4576  -23.0315   18.8964 O   0  0  0  0  0  0  0  0  0  0  0  0
  -25.0958   -9.1199   16.8464 O   0  0  0  0  0  0  0  0  0  0  0  0
  -22.2137  -30.7237   19.6148 O   0  0  0  0  0  0  0  0  0  0  0  0
  -24.5203  -33.5617   20.5204 O   0  0  0  0  0  0  0  0  0  0  0  0
  -27.9171  -31.2617   17.3981 O   0  0  0  0  0  0  0  0  0  0  0  0
  -28.6341  -17.4971   20.8429 O   0  0  0  0  0  0  0  0  0  0  0  0
  -21.1175   -7.8969   22.2890 O   0  0  0  0  0  0  0  0  0  0  0  0
  -25.7573  -25.1846   20.1305 O   0  0  0  0  0  0  0  0  0  1  0  0
  -22.0154   -3.1030   24.8614 F   0  0  0  0  0  0  0  0  0  0  0  0
  -20.5597   -7.6055   24.9810 F   0  0  0  0  0  0  0  0  0  0  0  0
  1  2  1  0  0  0  0
  1  6  2  0  0  0  0
  2  7  2  0  0  0  0
  3  9  2  0  0  0  0
  3 10  1  0  0  0  0
  4 11  2  0  0  0  0
  4 19  1  0  0  0  0
  5 12  1  0  0  0  0
  5 19  2  0  0  0  0
  6 21  1  0  0  0  0
  7 23  1  0  0  0  0
  8 13  2  0  0  0  0
  8 22  1  0  0  0  0
  9 25  1  0  0  0  0
 10 26  2  0  0  0  0
 11 27  1  0  0  0  0
 12 27  2  0  0  0  0
 13 28  1  0  0  0  0
 14 15  2  0  0  0  0
 14 29  1  0  0  0  0
 15 30  1  0  0  0  0
 16 24  1  0  0  0  0
 16 28  2  0  0  0  0
 17 25  2  0  0  0  0
 17 26  1  0  0  0  0
 18 30  2  0  0  0  0
 18 31  1  0  0  0  0
 19 32  1  0  0  0  0
 20 32  1  0  0  0  0
 20 33  2  0  0  0  0
 20 41  1  0  0  0  0
 21 23  2  0  0  0  0
 21 46  1  0  0  0  0
 22 24  2  0  0  0  0
 22 47  1  0  0  0  0
 23 56  1  0  0  0  0
 24 48  1  0  0  0  0
 25 69  1  0  0  0  0
 26 74  1  0  0  0  0
 27 84  1  0  0  0  0
 28 85  1  0  0  0  0
 29 31  2  0  0  0  0
 29 84  1  0  0  0  0
 30 86  1  0  0  0  0
 31 87  1  0  0  0  0
 32 67  2  0  0  0  0
 33 68  1  0  0  0  0
 33 72  1  0  0  0  0
 34 35  1  0  0  0  0
 34 36  1  0  0  0  0
 34 38  2  0  0  0  0
 35 37  1  0  0  0  0
 35 40  2  0  0  0  0
 36 39  2  0  0  0  0
 36 49  1  0  0  0  0
 37 69  1  0  0  0  0
 37 78  2  0  0  0  0
 40 85  1  0  0  0  0
 41 73  1  0  0  0  0
 41 79  2  0  0  0  0
 42 57  1  0  0  0  0
 42 75  1  0  0  0  0
 42 80  2  0  0  0  0
 43 64  1  0  0  0  0
 43 70  1  0  0  0  0
 43 81  2  0  0  0  0
 44 65  1  0  0  0  0
 44 76  1  0  0  0  0
 44 82  2  0  0  0  0
 45 71  1  0  0  0  0
 45 74  1  0  0  0  0
 45 83  2  0  0  0  0
 46 50  1  0  0  0  0
 47 57  1  0  0  0  0
 48 70  1  0  0  0  0
 49 69  1  0  0  0  0
 50 52  1  0  0  0  0
 51 53  1  0  0  0  0
 51 54  1  0  0  0  0
 52 56  1  0  0  0  0
 53 58  1  0  0  0  0
 54 71  1  0  0  0  0
 55 58  1  0  0  0  0
 55 71  1  0  0  0  0
 56 75  1  0  0  0  0
 57 70  1  0  0  0  0
 58 68  1  0  0  0  0
 59 65  1  0  0  0  0
 60 66  1  0  0  0  0
 61 66  1  0  0  0  0
 62 66  1  0  0  0  0
 63 77  1  0  0  0  0
 64 66  1  0  0  0  0
 64 76  1  0  0  0  0
 65 77  1  0  0  0  0
 67 68  1  0  0  0  0
M  CHG  1  77   1
M  ISO  4  40 101  45 100  74 100  85 101
M  END
> <Batch ID>
0078

> <Smiles>
C=C1CN(c2cccc([100NH:0][100C:0](=O)N3CCCC(n4nc(-c5ccc(Oc6ccc(F)cc6F)cc5)c(C(N)=O)c4N)C3)c2)C(=O)C(=[101CH:1][101O:1]c2ccc3c(c2)CN(C(=O)C(NC(=O)C(C)NC)C(C)(C)C)C(C(=O)NC2CCCc4ccccc42)C3)C1=C

> <Shape>
0.258

> <Color>
0.092

> <Negative vol penalty>
0.000

$$$$

  -OEChem-04042323563D

 86 95  0     1  0  0  0  0  0999 V2000
  -19.8125  -30.4962   24.9371 C   0  0  0  0  0  0  0  0  0  0  0  0
  -21.1142  -30.2300   24.5248 C   0  0  0  0  0  0  0  0  0  0  0  0
  -33.0422  -22.0458   22.4873 C   0  0  0  0  0  0  0  0  0  0  0  0
  -24.6950  -13.8915   21.1142 C   0  0  0  0  0  0  0  0  0  0  0  0
  -26.6800  -13.3848   19.8335 C   0  0  0  0  0  0  0  0  0  0  0  0
  -18.7610  -29.7048   24.4767 C   0  0  0  0  0  0  0  0  0  0  0  0
  -21.3654  -29.1713   23.6526 C   0  0  0  0  0  0  0  0  0  0  0  0
  -24.5597  -30.4354   19.9320 C   0  0  0  0  0  0  0  0  0  0  0  0
  -32.8115  -23.4139   22.6309 C   0  0  0  0  0  0  0  0  0  0  0  0
  -32.2282  -21.2855   21.6477 C   0  0  0  0  0  0  0  0  0  0  0  0
  -24.1267  -12.6830   20.7116 C   0  0  0  0  0  0  0  0  0  0  0  0
  -26.1117  -12.1763   19.4309 C   0  0  0  0  0  0  0  0  0  0  0  0
  -25.9166  -30.4875   20.2480 C   0  0  0  0  0  0  0  0  0  0  0  0
  -24.3740   -9.4148   21.5427 C   0  0  0  0  0  0  0  0  0  0  0  0
  -23.7425   -8.6396   22.5153 C   0  0  0  0  0  0  0  0  0  0  0  0
  -26.2225  -28.3047   19.2676 C   0  0  0  0  0  0  0  0  0  0  0  0
  -30.9525  -23.2616   21.0953 C   0  0  0  0  0  0  0  0  0  0  0  0
  -21.6676   -8.7886   21.2866 C   0  0  0  0  0  0  0  0  0  0  0  0
  -25.9716  -14.2425   20.6751 C   0  0  0  0  0  0  0  0  0  0  0  0
  -27.3530  -15.7196   22.2300 C   0  0  0  0  0  0  0  0  0  0  0  0
  -18.9982  -28.6419   23.5909 C   0  0  0  0  0  0  0  0  0  0  0  0
  -24.0210  -29.3110   19.2901 C   0  0  0  0  0  0  0  0  0  0  0  0
  -20.3162  -28.3641   23.1810 C   0  0  0  0  0  0  0  0  0  0  0  0
  -24.8590  -28.2419   18.9423 C   0  0  0  0  0  0  0  0  0  0  0  0
  -31.7667  -24.0218   21.9349 C   0  0  0  0  0  0  0  0  0  0  0  0
  -31.1833  -21.8934   20.9517 C   0  0  0  0  0  0  0  0  0  0  0  0
  -24.8350  -11.8254   19.8699 C   0  0  0  0  0  0  0  0  0  0  0  0
  -26.7477  -29.4208   19.9184 C   0  0  0  0  0  0  0  0  0  0  0  0
  -23.6523   -9.8770   20.4421 C   0  0  0  0  0  0  0  0  0  0  0  0
  -22.3893   -8.3265   22.3872 C   0  0  0  0  0  0  0  0  0  0  0  0
  -22.2991   -9.5639   20.3141 C   0  0  0  0  0  0  0  0  0  0  0  0
  -26.5590  -15.4910   21.0902 C   0  0  0  0  0  0  0  0  0  0  0  0
  -27.6586  -17.0574   22.1728 C   0  0  0  0  0  0  0  0  0  0  0  0
  -30.6677  -27.5086   21.8874 C   0  0  0  0  0  0  0  0  0  0  0  0
  -31.7750  -27.6084   22.8048 C   0  0  0  0  0  0  0  0  0  0  0  0
  -30.5167  -26.1000   21.4271 C   0  0  0  0  0  0  0  0  0  0  0  0
  -32.2342  -28.6938   23.4369 C   0  0  0  0  0  0  0  0  0  0  0  0
  -29.8413  -28.4654   21.4509 C   0  0  0  0  0  0  0  0  0  0  0  0
  -27.7764  -14.8045   23.2492 C   0  0  0  0  0  0  0  0  0  0  0  0
  -21.8239  -27.1391   20.0379 C   0  0  0  0  0  0  0  0  0  0  0  0
  -22.3188  -26.1561   16.9865 C   0  0  0  0  0  0  0  0  0  0  0  0
  -24.4028  -26.0238   14.2872 C   0  0  0  0  0  0  0  0  0  0  0  0
  -29.2778  -21.5670   19.3365 C   0  0  0  0  0  0  0  0  0  0  0  0
  -17.8354  -27.7848   23.1575 C   0  0  0  0  0  0  0  0  0  0  0  0
  -22.5604  -29.2817   18.9321 C   0  0  0  0  0  0  0  0  0  0  0  0
  -24.3339  -27.0205   18.2345 C   0  0  0  0  0  0  0  0  0  0  0  0
  -32.3564  -26.2339   22.9429 C   0  0  0  0  0  0  0  0  0  0  0  0
  -18.1399  -26.9151   21.9405 C   0  0  0  0  0  0  0  0  0  0  0  0
  -25.8182  -20.7335   19.2195 C   0  0  0  0  0  0  0  0  0  0  0  0
  -19.4871  -26.2190   22.1055 C   0  0  0  0  0  0  0  0  0  0  0  0
  -25.7679  -19.3141   19.7895 C   0  0  0  0  0  0  0  0  0  0  0  0
  -27.0692  -20.9604   18.3726 C   0  0  0  0  0  0  0  0  0  0  0  0
  -28.2862  -19.2091   19.6058 C   0  0  0  0  0  0  0  0  0  0  0  0
  -20.6258  -27.2400   22.2163 C   0  0  1  0  0  0  0  0  0  0  0  0
  -22.0208  -27.8679   18.7388 C   0  0  1  0  0  0  0  0  0  0  0  0
  -27.0765  -18.9531   20.5194 C   0  0  2  0  0  0  0  0  0  0  0  0
  -24.5449  -25.1193   11.9507 C   0  0  0  0  0  0  0  0  0  0  0  0
  -22.8280  -23.3620   18.1017 C   0  0  0  0  0  0  0  0  0  0  0  0
  -23.8707  -22.7525   15.9087 C   0  0  0  0  0  0  0  0  0  0  0  0
  -21.4679  -23.4159   16.0037 C   0  0  0  0  0  0  0  0  0  0  0  0
  -24.6837  -28.7337   13.1311 C   0  0  0  0  0  0  0  0  0  0  0  0
  -28.7230  -28.2267   20.4913 C   0  0  0  0  0  0  0  0  0  1  0  0
  -23.2536  -25.1781   16.3167 C   0  0  1  0  0  0  0  0  0  0  0  0
  -24.1646  -26.3109   12.8157 C   0  0  2  0  0  0  0  0  0  0  0  0
  -22.8649  -23.6992   16.5977 C   0  0  0  0  0  0  0  0  0  0  0  0
  -26.3718  -16.5951   20.3623 N   0  0  0  0  0  0  0  0  0  0  0  0
  -27.0524  -17.5305   21.0463 N   0  0  0  0  0  0  0  0  0  0  0  0
  -31.5374  -25.3865   22.0783 N   0  0  0  0  0  0  0  0  0  0  0  0
  -22.8976  -27.0365   17.9115 N   0  0  0  0  0  0  0  0  0  0  0  0
  -28.2699  -20.6014   19.1304 N   0  0  0  0  0  0  0  0  0  0  0  0
  -28.3840  -17.8636   22.9768 N   0  0  0  0  0  0  0  0  0  0  0  0
  -27.3728  -13.4656   23.1547 N   0  0  0  0  0  0  0  0  0  0  0  0
  -30.3567  -21.1206   20.0988 N   0  0  0  0  0  0  0  0  0  0  0  0
  -20.9584  -27.7698   20.9112 N   0  0  0  0  0  0  0  0  0  0  0  0
  -23.2701  -25.5330   14.9017 N   0  0  0  0  0  0  0  0  0  0  0  0
  -24.9722  -27.4850   12.3797 N   0  3  0  0  0  0  0  0  0  0  0  0
  -29.6737  -25.6870   20.6485 O   0  0  0  0  0  0  0  0  0  0  0  0
  -28.4780  -15.1668   24.2239 O   0  0  0  0  0  0  0  0  0  0  0  0
  -22.4124  -26.0821   20.2329 O   0  0  0  0  0  0  0  0  0  0  0  0
  -21.1204  -26.1441   16.6943 O   0  0  0  0  0  0  0  0  0  0  0  0
  -25.4863  -26.2122   14.8357 O   0  0  0  0  0  0  0  0  0  0  0  0
  -29.1777  -22.7142   18.8939 O   0  0  0  0  0  0  0  0  0  0  0  0
  -24.2809  -10.6459   19.4771 O   0  0  0  0  0  0  0  0  0  0  0  0
  -28.0724  -29.4688   20.2263 O   0  0  0  0  0  0  0  0  0  1  0  0
  -21.7834   -7.5807   23.3204 F   0  0  0  0  0  0  0  0  0  0  0  0
  -21.6008  -10.0040   19.2584 F   0  0  0  0  0  0  0  0  0  0  0  0
  1  2  1  0  0  0  0
  1  6  2  0  0  0  0
  2  7  2  0  0  0  0
  3  9  2  0  0  0  0
  3 10  1  0  0  0  0
  4 11  2  0  0  0  0
  4 19  1  0  0  0  0
  5 12  1  0  0  0  0
  5 19  2  0  0  0  0
  6 21  1  0  0  0  0
  7 23  1  0  0  0  0
  8 13  2  0  0  0  0
  8 22  1  0  0  0  0
  9 25  1  0  0  0  0
 10 26  2  0  0  0  0
 11 27  1  0  0  0  0
 12 27  2  0  0  0  0
 13 28  1  0  0  0  0
 14 15  2  0  0  0  0
 14 29  1  0  0  0  0
 15 30  1  0  0  0  0
 16 24  1  0  0  0  0
 16 28  2  0  0  0  0
 17 25  2  0  0  0  0
 17 26  1  0  0  0  0
 18 30  2  0  0  0  0
 18 31  1  0  0  0  0
 19 32  1  0  0  0  0
 20 32  1  0  0  0  0
 20 33  2  0  0  0  0
 20 39  1  0  0  0  0
 21 23  2  0  0  0  0
 21 44  1  0  0  0  0
 22 24  2  0  0  0  0
 22 45  1  0  0  0  0
 23 54  1  0  0  0  0
 24 46  1  0  0  0  0
 25 68  1  0  0  0  0
 26 73  1  0  0  0  0
 27 83  1  0  0  0  0
 28 84  1  0  0  0  0
 29 31  2  0  0  0  0
 29 83  1  0  0  0  0
 30 85  1  0  0  0  0
 31 86  1  0  0  0  0
 32 66  2  0  0  0  0
 33 67  1  0  0  0  0
 33 71  1  0  0  0  0
 34 35  1  0  0  0  0
 34 36  1  0  0  0  0
 34 38  2  0  0  0  0
 35 37  2  0  0  0  0
 35 47  1  0  0  0  0
 36 68  1  0  0  0  0
 36 77  2  0  0  0  0
 38 62  1  0  0  0  0
 39 72  1  0  0  0  0
 39 78  2  0  0  0  0
 40 55  1  0  0  0  0
 40 74  1  0  0  0  0
 40 79  2  0  0  0  0
 41 63  1  0  0  0  0
 41 69  1  0  0  0  0
 41 80  2  0  0  0  0
 42 64  1  0  0  0  0
 42 75  1  0  0  0  0
 42 81  2  0  0  0  0
 43 70  1  0  0  0  0
 43 73  1  0  0  0  0
 43 82  2  0  0  0  0
 44 48  1  0  0  0  0
 45 55  1  0  0  0  0
 46 69  1  0  0  0  0
 47 68  1  0  0  0  0
 48 50  1  0  0  0  0
 49 51  1  0  0  0  0
 49 52  1  0  0  0  0
 50 54  1  0  0  0  0
 51 56  1  0  0  0  0
 52 70  1  0  0  0  0
 53 56  1  0  0  0  0
 53 70  1  0  0  0  0
 54 74  1  0  0  0  0
 55 69  1  0  0  0  0
 56 67  1  0  0  0  0
 57 64  1  0  0  0  0
 58 65  1  0  0  0  0
 59 65  1  0  0  0  0
 60 65  1  0  0  0  0
 61 76  1  0  0  0  0
 62 84  1  0  0  0  0
 63 65  1  0  0  0  0
 63 75  1  0  0  0  0
 64 76  1  0  0  0  0
 66 67  1  0  0  0  0
M  CHG  1  76   1
M  ISO  4  43 100  62 101  73 100  84 101
M  END
> <Batch ID>
0078

> <Smiles>
C=C1CN(c2cccc([100NH:0][100C:0](=O)N3CCCC(n4nc(-c5ccc(Oc6ccc(F)cc6F)cc5)c(C(N)=O)c4N)C3)c2)C(=O)C1=C[101CH2:1][101O:1]c1ccc2c(c1)CN(C(=O)C(NC(=O)C(C)NC)C(C)(C)C)C(C(=O)NC1CCCc3ccccc31)C2

> <Shape>
0.240

> <Color>
0.074

> <Negative vol penalty>
0.000

$$$$

  -OEChem-04042323563D

 80 87  0     1  0  0  0  0  0999 V2000
  -27.9659  -10.5993   19.9268 C   0  0  0  0  0  0  0  0  0  0  0  0
  -28.3423  -11.8030   19.3395 C   0  0  0  0  0  0  0  0  0  0  0  0
  -19.5152  -27.3717   21.1851 C   0  0  0  0  0  0  0  0  0  0  0  0
  -20.7923  -26.8081   23.1570 C   0  0  0  0  0  0  0  0  0  0  0  0
  -26.6969  -10.4658   20.4885 C   0  0  0  0  0  0  0  0  0  0  0  0
  -27.4492  -12.8736   19.3126 C   0  0  0  0  0  0  0  0  0  0  0  0
  -29.6363  -17.2601   20.5854 C   0  0  0  0  0  0  0  0  0  0  0  0
  -18.3457  -26.9622   21.8255 C   0  0  0  0  0  0  0  0  0  0  0  0
  -19.6228  -26.3986   23.7974 C   0  0  0  0  0  0  0  0  0  0  0  0
  -30.4109  -17.8912   19.6130 C   0  0  0  0  0  0  0  0  0  0  0  0
  -15.0715  -25.7277   22.8151 C   0  0  0  0  0  0  0  0  0  0  0  0
  -14.1803  -24.9323   22.0948 C   0  0  0  0  0  0  0  0  0  0  0  0
  -28.5737  -19.3752   19.1213 C   0  0  0  0  0  0  0  0  0  0  0  0
  -15.8963  -23.2529   21.8263 C   0  0  0  0  0  0  0  0  0  0  0  0
  -20.7385  -27.2947   21.8509 C   0  0  0  0  0  0  0  0  0  0  0  0
  -22.5116  -29.0066   21.1929 C   0  0  0  0  0  0  0  0  0  0  0  0
  -25.7913  -11.5384   20.4771 C   0  0  0  0  0  0  0  0  0  0  0  0
  -28.3187  -17.6755   20.8259 C   0  0  0  0  0  0  0  0  0  0  0  0
  -26.1664  -12.7539   19.8735 C   0  0  0  0  0  0  0  0  0  0  0  0
  -27.7854  -18.7494   20.0991 C   0  0  0  0  0  0  0  0  0  0  0  0
  -18.3995  -26.4756   23.1316 C   0  0  0  0  0  0  0  0  0  0  0  0
  -29.8786  -18.9470   18.8787 C   0  0  0  0  0  0  0  0  0  0  0  0
  -16.3751  -25.2857   23.0409 C   0  0  0  0  0  0  0  0  0  0  0  0
  -14.5927  -23.6949   21.6004 C   0  0  0  0  0  0  0  0  0  0  0  0
  -16.7874  -24.0482   22.5465 C   0  0  0  0  0  0  0  0  0  0  0  0
  -21.9471  -27.7170   21.1897 C   0  0  0  0  0  0  0  0  0  0  0  0
  -23.6448  -28.8873   20.4260 C   0  0  0  0  0  0  0  0  0  0  0  0
  -22.0528  -30.2052   21.8321 C   0  0  0  0  0  0  0  0  0  0  0  0
  -31.5050  -23.0928   16.8874 C   0  0  0  0  0  0  0  0  0  0  0  0
  -31.6234  -21.6307   17.2183 C   0  0  0  0  0  0  0  0  0  0  0  0
  -25.4587  -16.3072   20.5990 C   0  0  0  0  0  0  0  0  0  0  0  0
  -31.6620  -25.2656   17.6056 C   0  0  0  0  0  0  0  0  0  0  0  0
  -28.2520  -26.1459   19.1868 C   0  0  0  0  0  0  0  0  0  0  0  0
  -24.4566  -19.0791   21.9535 C   0  0  0  0  0  0  0  0  0  0  0  0
  -25.0316  -22.3920   22.5376 C   0  0  0  0  0  0  0  0  0  0  0  0
  -24.4136  -11.3315   21.0548 C   0  0  0  0  0  0  0  0  0  0  0  0
  -27.5054  -17.0018   21.8969 C   0  0  0  0  0  0  0  0  0  0  0  0
  -26.3831  -19.2467   20.3330 C   0  0  0  0  0  0  0  0  0  0  0  0
  -23.6616  -12.6336   21.3179 C   0  0  0  0  0  0  0  0  0  0  0  0
  -25.2283  -25.1390   17.4346 C   0  0  0  0  0  0  0  0  0  0  0  0
  -23.7735  -13.5668   20.1165 C   0  0  0  0  0  0  0  0  0  0  0  0
  -24.1469  -25.8079   18.2821 C   0  0  0  0  0  0  0  0  0  0  0  0
  -26.3956  -24.6575   18.2922 C   0  0  0  0  0  0  0  0  0  0  0  0
  -25.9243  -26.3989   19.9862 C   0  0  0  0  0  0  0  0  0  0  0  0
  -25.2346  -13.9461   19.8468 C   0  0  1  0  0  0  0  0  0  0  0  0
  -26.0020  -17.1718   21.7012 C   0  0  1  0  0  0  0  0  0  0  0  0
  -24.7428  -26.9261   19.1550 C   0  0  2  0  0  0  0  0  0  0  0  0
  -31.1512  -23.4425   15.4706 C   0  0  0  0  0  0  0  0  0  0  0  0
  -24.0151  -24.4029   23.6424 C   0  0  0  0  0  0  0  0  0  0  0  0
  -22.4873  -19.3523   19.6389 C   0  0  0  0  0  0  0  0  0  0  0  0
  -22.1976  -21.7600   20.2610 C   0  0  0  0  0  0  0  0  0  0  0  0
  -21.5587  -19.9705   21.8772 C   0  0  0  0  0  0  0  0  0  0  0  0
  -27.3237  -22.6784   24.3877 C   0  0  0  0  0  0  0  0  0  0  0  0
  -30.3665  -20.9449   17.6844 C   0  0  0  0  0  0  0  0  0  1  0  0
  -30.6294  -25.9491   18.4888 C   0  0  0  0  0  0  0  0  0  0  0  0
  -29.2225  -25.3939   18.3112 C   0  0  0  0  0  0  0  0  0  0  0  0
  -24.0060  -20.4222   21.4318 C   0  0  1  0  0  0  0  0  0  0  0  0
  -24.9550  -23.2188   23.8084 C   0  0  2  0  0  0  0  0  0  0  0  0
  -22.5882  -20.3659   20.7962 C   0  0  0  0  0  0  0  0  0  0  0  0
  -22.6625  -26.8428   20.4771 N   0  0  0  0  0  0  0  0  0  0  0  0
  -31.7561  -23.9159   17.8554 N   0  0  0  0  0  0  0  0  0  0  0  0
  -23.6882  -27.5843   20.0253 N   0  0  0  0  0  0  0  0  0  0  0  0
  -25.6254  -18.5515   21.3866 N   0  0  0  0  0  0  0  0  0  0  0  0
  -26.9171  -25.7449   19.1289 N   0  0  0  0  0  0  0  0  0  0  0  0
  -24.5982  -29.7709   20.0619 N   0  0  0  0  0  0  0  0  0  0  0  0
  -20.8700  -30.1518   22.5820 N   0  0  0  0  0  0  0  0  0  0  0  0
  -25.6763  -14.9554   20.7852 N   0  0  0  0  0  0  0  0  0  0  0  0
  -24.1238  -21.3541   22.5481 N   0  0  0  0  0  0  0  0  0  0  0  0
  -26.3043  -23.7371   24.1713 N   0  3  0  0  0  0  0  0  0  0  0  0
  -22.6646  -31.2953   21.7275 O   0  0  0  0  0  0  0  0  0  0  0  0
  -32.7131  -21.0991   17.0672 O   0  0  0  0  0  0  0  0  0  0  0  0
  -24.8832  -16.8278   19.6506 O   0  0  0  0  0  0  0  0  0  0  0  0
  -32.3604  -25.8783   16.8027 O   0  0  0  0  0  0  0  0  0  0  0  0
  -28.6693  -27.0636   19.8979 O   0  0  0  0  0  0  0  0  0  0  0  0
  -23.7997  -18.5220   22.8366 O   0  0  0  0  0  0  0  0  0  0  0  0
  -25.8155  -22.6439   21.6252 O   0  0  0  0  0  0  0  0  0  0  0  0
  -17.2584  -26.0761   23.7569 O   0  0  0  0  0  0  0  0  0  0  0  0
  -30.6323  -19.5642   17.9285 O   0  0  0  0  0  0  0  0  0  1  0  0
  -13.7363  -22.9306   20.9100 F   0  0  0  0  0  0  0  0  0  0  0  0
  -18.0382  -23.6177   22.7613 F   0  0  0  0  0  0  0  0  0  0  0  0
  1  2  1  0  0  0  0
  1  5  2  0  0  0  0
  2  6  2  0  0  0  0
  3  8  2  0  0  0  0
  3 15  1  0  0  0  0
  4  9  1  0  0  0  0
  4 15  2  0  0  0  0
  5 17  1  0  0  0  0
  6 19  1  0  0  0  0
  7 10  2  0  0  0  0
  7 18  1  0  0  0  0
  8 21  1  0  0  0  0
  9 21  2  0  0  0  0
 10 22  1  0  0  0  0
 11 12  2  0  0  0  0
 11 23  1  0  0  0  0
 12 24  1  0  0  0  0
 13 20  1  0  0  0  0
 13 22  2  0  0  0  0
 14 24  2  0  0  0  0
 14 25  1  0  0  0  0
 15 26  1  0  0  0  0
 16 26  1  0  0  0  0
 16 27  2  0  0  0  0
 16 28  1  0  0  0  0
 17 19  2  0  0  0  0
 17 36  1  0  0  0  0
 18 20  2  0  0  0  0
 18 37  1  0  0  0  0
 19 45  1  0  0  0  0
 20 38  1  0  0  0  0
 21 77  1  0  0  0  0
 22 78  1  0  0  0  0
 23 25  2  0  0  0  0
 23 77  1  0  0  0  0
 24 79  1  0  0  0  0
 25 80  1  0  0  0  0
 26 60  2  0  0  0  0
 27 62  1  0  0  0  0
 27 65  1  0  0  0  0
 28 66  1  0  0  0  0
 28 70  2  0  0  0  0
 29 30  1  0  0  0  0
 29 48  1  0  0  0  0
 29 61  2  0  0  0  0
 30 54  1  0  0  0  0
 30 71  2  0  0  0  0
 31 46  1  0  0  0  0
 31 67  1  0  0  0  0
 31 72  2  0  0  0  0
 32 55  1  0  0  0  0
 32 61  1  0  0  0  0
 32 73  2  0  0  0  0
 33 56  1  0  0  0  0
 33 64  1  0  0  0  0
 33 74  2  0  0  0  0
 34 57  1  0  0  0  0
 34 63  1  0  0  0  0
 34 75  2  0  0  0  0
 35 58  1  0  0  0  0
 35 68  1  0  0  0  0
 35 76  2  0  0  0  0
 36 39  1  0  0  0  0
 37 46  1  0  0  0  0
 38 63  1  0  0  0  0
 39 41  1  0  0  0  0
 40 42  1  0  0  0  0
 40 43  1  0  0  0  0
 41 45  1  0  0  0  0
 42 47  1  0  0  0  0
 43 64  1  0  0  0  0
 44 47  1  0  0  0  0
 44 64  1  0  0  0  0
 45 67  1  0  0  0  0
 46 63  1  0  0  0  0
 47 62  1  0  0  0  0
 49 58  1  0  0  0  0
 50 59  1  0  0  0  0
 51 59  1  0  0  0  0
 52 59  1  0  0  0  0
 53 69  1  0  0  0  0
 54 78  1  0  0  0  0
 55 56  1  0  0  0  0
 57 59  1  0  0  0  0
 57 68  1  0  0  0  0
 58 69  1  0  0  0  0
 60 62  1  0  0  0  0
M  CHG  1  69   1
M  ISO  4  33 100  54 101  56 100  78 101
M  END
> <Batch ID>
0078

> <Smiles>
CNC(C)C(=O)NC(C(=O)N1Cc2cc([101O:1][101CH2:1]C(=O)C(C)NC(=O)C=[100CH:0][100C:0](=O)N3CCCC(n4nc(-c5ccc(Oc6ccc(F)cc6F)cc5)c(C(N)=O)c4N)C3)ccc2CC1C(=O)NC1CCCc2ccccc21)C(C)(C)C

> <Shape>
0.223

> <Color>
0.064

> <Negative vol penalty>
0.000

$$$$

  -OEChem-04042323563D

 86 94  0     1  0  0  0  0  0999 V2000
  -17.1699  -29.9297   24.8732 C   0  0  0  0  0  0  0  0  0  0  0  0
  -17.5381  -28.6816   24.3814 C   0  0  0  0  0  0  0  0  0  0  0  0
  -30.7096  -19.9541   20.6530 C   0  0  0  0  0  0  0  0  0  0  0  0
  -23.5453  -15.3905   21.0423 C   0  0  0  0  0  0  0  0  0  0  0  0
  -23.6060  -14.9562   18.6664 C   0  0  0  0  0  0  0  0  0  0  0  0
  -17.7369  -31.0845   24.3357 C   0  0  0  0  0  0  0  0  0  0  0  0
  -18.4728  -28.5875   23.3509 C   0  0  0  0  0  0  0  0  0  0  0  0
  -22.6599  -24.1873   22.5687 C   0  0  0  0  0  0  0  0  0  0  0  0
  -29.4607  -20.4803   20.3228 C   0  0  0  0  0  0  0  0  0  0  0  0
  -30.9335  -18.5802   20.5631 C   0  0  0  0  0  0  0  0  0  0  0  0
  -22.7714  -16.5283   20.8146 C   0  0  0  0  0  0  0  0  0  0  0  0
  -22.8320  -16.0941   18.4387 C   0  0  0  0  0  0  0  0  0  0  0  0
  -22.6845  -23.0480   21.7654 C   0  0  0  0  0  0  0  0  0  0  0  0
  -20.5693  -18.6844   17.2602 C   0  0  0  0  0  0  0  0  0  0  0  0
  -19.5058  -18.5775   16.3640 C   0  0  0  0  0  0  0  0  0  0  0  0
  -23.9158  -24.2660   20.0862 C   0  0  0  0  0  0  0  0  0  0  0  0
  -28.6596  -18.2587   19.8129 C   0  0  0  0  0  0  0  0  0  0  0  0
  -18.5099  -16.8672   17.7497 C   0  0  0  0  0  0  0  0  0  0  0  0
  -23.9627  -14.6044   19.9682 C   0  0  0  0  0  0  0  0  0  0  0  0
  -24.3017  -12.1186   20.4303 C   0  0  0  0  0  0  0  0  0  0  0  0
  -18.6862  -31.0041   23.3047 C   0  0  0  0  0  0  0  0  0  0  0  0
  -23.2545  -25.3796   22.1313 C   0  0  0  0  0  0  0  0  0  0  0  0
  -19.0520  -29.7424   22.7981 C   0  0  0  0  0  0  0  0  0  0  0  0
  -23.8995  -25.4183   20.8869 C   0  0  0  0  0  0  0  0  0  0  0  0
  -28.4357  -19.6326   19.9027 C   0  0  0  0  0  0  0  0  0  0  0  0
  -29.9085  -17.7326   20.1431 C   0  0  0  0  0  0  0  0  0  0  0  0
  -22.4147  -16.8802   19.5128 C   0  0  0  0  0  0  0  0  0  0  0  0
  -23.3100  -23.0881   20.5227 C   0  0  0  0  0  0  0  0  0  0  0  0
  -20.6032  -17.8825   18.4011 C   0  0  0  0  0  0  0  0  0  0  0  0
  -18.4761  -17.6690   16.6088 C   0  0  0  0  0  0  0  0  0  0  0  0
  -19.5735  -16.9740   18.6459 C   0  0  0  0  0  0  0  0  0  0  0  0
  -24.7626  -13.4292   20.2027 C   0  0  0  0  0  0  0  0  0  0  0  0
  -25.4454  -11.3760   20.5943 C   0  0  0  0  0  0  0  0  0  0  0  0
  -24.3846  -21.1138   19.8761 C   0  0  0  0  0  0  0  0  0  1  0  0
  -22.9596  -11.6173   20.4881 C   0  0  0  0  0  0  0  0  0  0  0  0
  -24.8664  -20.3565   18.8811 C   0  0  0  0  0  0  0  0  0  0  0  0
  -26.0426  -19.4690   19.1541 C   0  0  0  0  0  0  0  0  0  0  0  0
  -22.2012  -28.3112   21.4991 C   0  0  0  0  0  0  0  0  0  0  0  0
  -25.3605  -28.9449   21.1257 C   0  0  0  0  0  0  0  0  0  0  0  0
  -31.4046  -15.7801   19.7586 C   0  0  0  0  0  0  0  0  0  0  0  0
  -28.4900  -27.7689   20.4397 C   0  0  0  0  0  0  0  0  0  0  0  0
  -29.1311  -15.4560   20.5446 C   0  0  0  0  0  0  0  0  0  0  0  0
  -19.2364  -32.2823   22.7232 C   0  0  0  0  0  0  0  0  0  0  0  0
  -23.2426  -26.5922   23.0211 C   0  0  0  0  0  0  0  0  0  0  0  0
  -24.5704  -26.6679   20.3799 C   0  0  0  0  0  0  0  0  0  0  0  0
  -20.4982  -32.0782   21.8887 C   0  0  0  0  0  0  0  0  0  0  0  0
  -28.8718  -12.5686   18.2567 C   0  0  0  0  0  0  0  0  0  0  0  0
  -20.3208  -30.9042   20.9310 C   0  0  0  0  0  0  0  0  0  0  0  0
  -28.5376  -11.4360   19.2202 C   0  0  0  0  0  0  0  0  0  0  0  0
  -29.7765  -13.6133   18.9018 C   0  0  0  0  0  0  0  0  0  0  0  0
  -28.8365  -13.0686   21.1446 C   0  0  0  0  0  0  0  0  0  0  0  0
  -20.0810  -29.5981   21.6979 C   0  0  1  0  0  0  0  0  0  0  0  0
  -23.4323  -27.8976   22.2547 C   0  0  1  0  0  0  0  0  0  0  0  0
  -27.9688  -11.9422   20.5546 C   0  0  1  0  0  0  0  0  0  0  0  0
  -24.3564  -20.3663   17.4735 C   0  0  0  0  0  0  0  0  0  0  0  0
  -32.1650  -16.4161   18.6151 C   0  0  0  0  0  0  0  0  0  0  0  0
  -30.8654  -28.5315   20.1687 C   0  0  0  0  0  0  0  0  0  0  0  0
  -24.6799  -30.0804   18.3767 C   0  0  0  0  0  0  0  0  0  0  0  0
  -27.1105  -29.9386   17.7933 C   0  0  0  0  0  0  0  0  0  0  0  0
  -26.3627  -31.4072   19.6659 C   0  0  0  0  0  0  0  0  0  0  0  0
  -29.4129  -26.0708   22.6810 C   0  0  0  0  0  0  0  0  0  0  0  0
  -26.3312  -28.8975   19.9704 C   0  0  1  0  0  0  0  0  0  0  0  0
  -29.8226  -27.9877   21.1330 C   0  0  2  0  0  0  0  0  0  0  0  0
  -26.1068  -30.0578   18.9600 C   0  0  0  0  0  0  0  0  0  0  0  0
  -26.0952  -13.5174   20.2201 N   0  0  0  0  0  0  0  0  0  0  0  0
  -26.4815  -12.2528   20.4606 N   0  0  0  0  0  0  0  0  0  0  0  0
  -24.5263  -27.8291   21.2838 N   0  0  0  0  0  0  0  0  0  0  0  0
  -29.2386  -14.0966   20.1800 N   0  0  0  0  0  0  0  0  0  0  0  0
  -25.6558  -10.0651   20.8386 N   0  0  0  0  0  0  0  0  0  0  0  0
  -21.9017  -12.5166   20.2975 N   0  0  0  0  0  0  0  0  0  0  0  0
  -27.1681  -20.1676   19.5671 N   0  0  0  0  0  0  0  0  0  0  0  0
  -21.3262  -29.0899   22.2323 N   0  0  0  0  0  0  0  0  0  0  0  0
  -27.6656  -28.8677   20.5594 N   0  0  0  0  0  0  0  0  0  0  0  0
  -30.1408  -16.3115   20.0503 N   0  0  0  0  0  0  0  0  0  0  0  0
  -30.3290  -26.7052   21.6985 N   0  3  0  0  0  0  0  0  0  0  0  0
  -22.7058  -10.4107   20.7187 O   0  0  0  0  0  0  0  0  0  0  0  0
  -25.9090  -18.2537   19.0493 O   0  0  0  0  0  0  0  0  0  0  0  0
  -22.0566  -27.9519   20.3365 O   0  0  0  0  0  0  0  0  0  0  0  0
  -25.3481  -29.9323   21.8650 O   0  0  0  0  0  0  0  0  0  0  0  0
  -31.8914  -14.8132   20.3515 O   0  0  0  0  0  0  0  0  0  0  0  0
  -28.2099  -26.7289   19.8477 O   0  0  0  0  0  0  0  0  0  0  0  0
  -28.2474  -15.8730   21.3036 O   0  0  0  0  0  0  0  0  0  0  0  0
  -21.6594  -17.9903   19.2902 O   0  0  0  0  0  0  0  0  0  0  0  0
  -23.3349  -21.9777   19.7364 O   0  0  0  0  0  0  0  0  0  1  0  0
  -17.4540  -17.5676   15.7489 F   0  0  0  0  0  0  0  0  0  0  0  0
  -19.6000  -16.2019   19.7408 F   0  0  0  0  0  0  0  0  0  0  0  0
  1  2  1  0  0  0  0
  1  6  2  0  0  0  0
  2  7  2  0  0  0  0
  3  9  2  0  0  0  0
  3 10  1  0  0  0  0
  4 11  2  0  0  0  0
  4 19  1  0  0  0  0
  5 12  1  0  0  0  0
  5 19  2  0  0  0  0
  6 21  1  0  0  0  0
  7 23  1  0  0  0  0
  8 13  2  0  0  0  0
  8 22  1  0  0  0  0
  9 25  1  0  0  0  0
 10 26  2  0  0  0  0
 11 27  1  0  0  0  0
 12 27  2  0  0  0  0
 13 28  1  0  0  0  0
 14 15  2  0  0  0  0
 14 29  1  0  0  0  0
 15 30  1  0  0  0  0
 16 24  1  0  0  0  0
 16 28  2  0  0  0  0
 17 25  2  0  0  0  0
 17 26  1  0  0  0  0
 18 30  2  0  0  0  0
 18 31  1  0  0  0  0
 19 32  1  0  0  0  0
 20 32  1  0  0  0  0
 20 33  2  0  0  0  0
 20 35  1  0  0  0  0
 21 23  2  0  0  0  0
 21 43  1  0  0  0  0
 22 24  2  0  0  0  0
 22 44  1  0  0  0  0
 23 52  1  0  0  0  0
 24 45  1  0  0  0  0
 25 71  1  0  0  0  0
 26 74  1  0  0  0  0
 27 83  1  0  0  0  0
 28 84  1  0  0  0  0
 29 31  2  0  0  0  0
 29 83  1  0  0  0  0
 30 85  1  0  0  0  0
 31 86  1  0  0  0  0
 32 65  2  0  0  0  0
 33 66  1  0  0  0  0
 33 69  1  0  0  0  0
 34 36  2  0  0  0  0
 34 84  1  0  0  0  0
 35 70  1  0  0  0  0
 35 76  2  0  0  0  0
 36 37  1  0  0  0  0
 36 55  1  0  0  0  0
 37 71  1  0  0  0  0
 37 77  2  0  0  0  0
 38 53  1  0  0  0  0
 38 72  1  0  0  0  0
 38 78  2  0  0  0  0
 39 62  1  0  0  0  0
 39 67  1  0  0  0  0
 39 79  2  0  0  0  0
 40 56  1  0  0  0  0
 40 74  1  0  0  0  0
 40 80  2  0  0  0  0
 41 63  1  0  0  0  0
 41 73  1  0  0  0  0
 41 81  2  0  0  0  0
 42 68  1  0  0  0  0
 42 74  1  0  0  0  0
 42 82  2  0  0  0  0
 43 46  1  0  0  0  0
 44 53  1  0  0  0  0
 45 67  1  0  0  0  0
 46 48  1  0  0  0  0
 47 49  1  0  0  0  0
 47 50  1  0  0  0  0
 48 52  1  0  0  0  0
 49 54  1  0  0  0  0
 50 68  1  0  0  0  0
 51 54  1  0  0  0  0
 51 68  1  0  0  0  0
 52 72  1  0  0  0  0
 53 67  1  0  0  0  0
 54 66  1  0  0  0  0
 57 63  1  0  0  0  0
 58 64  1  0  0  0  0
 59 64  1  0  0  0  0
 60 64  1  0  0  0  0
 61 75  1  0  0  0  0
 62 64  1  0  0  0  0
 62 73  1  0  0  0  0
 63 75  1  0  0  0  0
 65 66  1  0  0  0  0
M  CHG  1  75   1
M  ISO  4  34 101  42 100  74 100  84 101
M  END
> <Batch ID>
0078

> <Smiles>
CNC(C)C(=O)NC(C(=O)N1Cc2cc([101O:1][101CH:1]=C(C)C(=O)Nc3cccc([100N:0](C(C)=O)[100C:0](=O)N4CCCC(n5nc(-c6ccc(Oc7ccc(F)cc7F)cc6)c(C(N)=O)c5N)C4)c3)ccc2CC1C(=O)NC1CCCc2ccccc21)C(C)(C)C

> <Shape>
0.246

> <Color>
0.105

> <Negative vol penalty>
0.000

$$$$

  -OEChem-04042323563D

 88 97  0     1  0  0  0  0  0999 V2000
  -26.7025  -23.7691   14.1492 C   0  0  0  0  0  0  0  0  0  0  0  0
  -26.0000  -24.7115   14.8916 C   0  0  0  0  0  0  0  0  0  0  0  0
  -27.0499  -15.2852   19.4622 C   0  0  0  0  0  0  0  0  0  0  0  0
  -25.3444  -15.6599   21.1319 C   0  0  0  0  0  0  0  0  0  0  0  0
  -23.0055  -25.2978   24.7906 C   0  0  0  0  0  0  0  0  0  0  0  0
  -21.4854  -23.4620   24.3950 C   0  0  0  0  0  0  0  0  0  0  0  0
  -27.9329  -23.3027   14.6073 C   0  0  0  0  0  0  0  0  0  0  0  0
  -26.5332  -25.1968   16.0863 C   0  0  0  0  0  0  0  0  0  0  0  0
  -24.1310  -28.8955   18.2662 C   0  0  0  0  0  0  0  0  0  0  0  0
  -24.0864  -24.4196   24.7126 C   0  0  0  0  0  0  0  0  0  0  0  0
  -22.5663  -22.5838   24.3171 C   0  0  0  0  0  0  0  0  0  0  0  0
  -26.8896  -13.9073   19.6077 C   0  0  0  0  0  0  0  0  0  0  0  0
  -25.1840  -14.2819   21.2774 C   0  0  0  0  0  0  0  0  0  0  0  0
  -22.9047  -28.7240   18.9068 C   0  0  0  0  0  0  0  0  0  0  0  0
  -23.6458  -11.7668   19.6256 C   0  0  0  0  0  0  0  0  0  0  0  0
  -22.3437  -11.2686   19.6710 C   0  0  0  0  0  0  0  0  0  0  0  0
  -24.0174  -28.8059   21.0456 C   0  0  0  0  0  0  0  0  0  0  0  0
  -22.7654  -10.3672   21.8725 C   0  0  0  0  0  0  0  0  0  0  0  0
  -26.2773  -16.1615   20.2244 C   0  0  0  0  0  0  0  0  0  0  0  0
  -21.7050  -24.8190   24.6318 C   0  0  0  0  0  0  0  0  0  0  0  0
  -26.2577  -18.3441   18.9039 C   0  0  0  0  0  0  0  0  0  0  0  0
  -28.4749  -23.7738   15.8145 C   0  0  0  0  0  0  0  0  0  0  0  0
  -25.3131  -29.0128   19.0113 C   0  0  0  0  0  0  0  0  0  0  0  0
  -27.7847  -24.7562   16.5533 C   0  0  0  0  0  0  0  0  0  0  0  0
  -25.2571  -28.9814   20.4121 C   0  0  0  0  0  0  0  0  0  0  0  0
  -23.8668  -23.0626   24.4759 C   0  0  0  0  0  0  0  0  0  0  0  0
  -25.9567  -13.4056   20.5153 C   0  0  0  0  0  0  0  0  0  0  0  0
  -22.8481  -28.6763   20.2967 C   0  0  0  0  0  0  0  0  0  0  0  0
  -24.5077  -11.5652   20.7036 C   0  0  0  0  0  0  0  0  0  0  0  0
  -21.9035  -10.5689   20.7944 C   0  0  0  0  0  0  0  0  0  0  0  0
  -24.0675  -10.8654   21.8271 C   0  0  0  0  0  0  0  0  0  0  0  0
  -26.4428  -17.5851   20.0750 C   0  0  0  0  0  0  0  0  0  0  0  0
  -26.5365  -19.6344   19.2834 C   0  0  0  0  0  0  0  0  0  0  0  0
  -19.0594  -27.9451   22.2262 C   0  0  0  0  0  0  0  0  0  0  0  0
  -20.6327  -26.2147   22.2017 C   0  0  0  0  0  0  0  0  0  0  0  0
  -18.5406  -29.1520   21.9640 C   0  0  0  0  0  0  0  0  0  0  0  0
  -20.5655  -25.7446   24.7141 C   0  0  0  0  0  0  0  0  0  0  0  0
  -25.8683  -17.9208   17.5906 C   0  0  0  0  0  0  0  0  0  0  0  0
  -27.9981  -27.3268   19.2384 C   0  0  0  0  0  0  0  0  0  0  0  0
  -28.9249  -29.7900   21.1347 C   0  0  0  0  0  0  0  0  0  0  0  0
  -27.4421  -31.8283   23.7162 C   0  0  0  0  0  0  0  0  0  0  0  0
  -26.3180  -22.4837   24.5311 C   0  0  0  0  0  0  0  0  0  0  0  0
  -29.8139  -23.2408   16.2594 C   0  0  0  0  0  0  0  0  0  0  0  0
  -26.6247  -29.2241   18.3059 C   0  0  0  0  0  0  0  0  0  0  0  0
  -26.4949  -29.1228   21.2585 C   0  0  0  0  0  0  0  0  0  0  0  0
  -19.0866  -27.3558   23.5938 C   0  0  0  0  0  0  0  0  0  0  0  0
  -30.0854  -23.4777   17.7415 C   0  0  0  0  0  0  0  0  0  0  0  0
  -29.1602  -22.1325   22.4156 C   0  0  0  0  0  0  0  0  0  0  0  0
  -29.8086  -24.9313   18.0948 C   0  0  0  0  0  0  0  0  0  0  0  0
  -28.7666  -20.9996   21.4648 C   0  0  0  0  0  0  0  0  0  0  0  0
  -28.6283  -21.8977   23.8283 C   0  0  0  0  0  0  0  0  0  0  0  0
  -26.7925  -20.5017   22.9621 C   0  0  0  0  0  0  0  0  0  0  0  0
  -28.3306  -25.2757   17.8711 C   0  0  1  0  0  0  0  0  0  0  0  0
  -27.8290  -28.8171   19.1493 C   0  0  1  0  0  0  0  0  0  0  0  0
  -27.2506  -20.7256   21.5117 C   0  0  2  0  0  0  0  0  0  0  0  0
  -19.7705  -27.0410   21.2506 C   0  0  1  0  0  0  0  0  0  0  0  0
  -18.7795  -26.1059   20.5499 C   0  0  0  0  0  0  0  0  0  0  0  0
  -27.9631  -34.1725   24.4447 C   0  0  0  0  0  0  0  0  0  0  0  0
  -30.7238  -28.4404   23.1969 C   0  0  0  0  0  0  0  0  0  0  0  0
  -30.0166  -30.1818   24.8508 C   0  0  0  0  0  0  0  0  0  0  0  0
  -31.2391  -30.8522   22.7823 C   0  0  0  0  0  0  0  0  0  0  0  0
  -24.6412  -32.6979   23.3193 C   0  0  0  0  0  0  0  0  0  0  0  0
  -20.6532  -27.7630   20.2300 C   0  0  0  0  0  0  0  0  0  1  0  0
  -28.8324  -30.0970   22.6099 C   0  0  1  0  0  0  0  0  0  0  0  0
  -27.0505  -33.2909   23.6065 C   0  0  2  0  0  0  0  0  0  0  0  0
  -30.1836  -29.8766   23.3469 C   0  0  0  0  0  0  0  0  0  0  0  0
  -26.8110  -18.3309   21.1201 N   0  0  0  0  0  0  0  0  0  0  0  0
  -26.8595  -19.5720   20.6070 N   0  0  0  0  0  0  0  0  0  0  0  0
  -20.1333  -26.3592   23.5227 N   0  0  0  0  0  0  0  0  0  0  0  0
  -27.7541  -29.3212   20.5220 N   0  0  0  0  0  0  0  0  0  0  0  0
  -27.1854  -21.6492   23.7949 N   0  0  0  0  0  0  0  0  0  0  0  0
  -26.5346  -20.8047   18.6107 N   0  0  0  0  0  0  0  0  0  0  0  0
  -24.5030  -17.8923   17.2751 N   0  0  0  0  0  0  0  0  0  0  0  0
  -24.9656  -22.1714   24.3967 N   0  0  0  0  0  0  0  0  0  0  0  0
  -28.1517  -26.7037   18.0146 N   0  0  0  0  0  0  0  0  0  0  0  0
  -28.3107  -31.4555   22.7122 N   0  0  0  0  0  0  0  0  0  0  0  0
  -25.6487  -33.4881   24.0726 N   0  3  0  0  0  0  0  0  0  0  0  0
  -21.5805  -25.5307   21.8338 O   0  0  0  0  0  0  0  0  0  0  0  0
  -20.0696  -25.9304   25.8242 O   0  0  0  0  0  0  0  0  0  0  0  0
  -26.7053  -17.5623   16.7278 O   0  0  0  0  0  0  0  0  0  0  0  0
  -27.9913  -26.7825   20.3364 O   0  0  0  0  0  0  0  0  0  0  0  0
  -29.9945  -29.9666   20.5461 O   0  0  0  0  0  0  0  0  0  0  0  0
  -27.0227  -31.0913   24.6058 O   0  0  0  0  0  0  0  0  0  0  0  0
  -26.7416  -23.4243   25.2079 O   0  0  0  0  0  0  0  0  0  0  0  0
  -25.7998  -12.0611   20.6573 O   0  0  0  0  0  0  0  0  0  0  0  0
  -21.6525  -28.5083   20.9245 O   0  0  0  0  0  0  0  0  0  1  0  0
  -20.6527  -10.0918   20.8386 F   0  0  0  0  0  0  0  0  0  0  0  0
  -24.8906  -10.6695   22.8663 F   0  0  0  0  0  0  0  0  0  0  0  0
  1  2  1  0  0  0  0
  1  7  2  0  0  0  0
  2  8  2  0  0  0  0
  3 12  2  0  0  0  0
  3 19  1  0  0  0  0
  4 13  1  0  0  0  0
  4 19  2  0  0  0  0
  5 10  2  0  0  0  0
  5 20  1  0  0  0  0
  6 11  1  0  0  0  0
  6 20  2  0  0  0  0
  7 22  1  0  0  0  0
  8 24  1  0  0  0  0
  9 14  2  0  0  0  0
  9 23  1  0  0  0  0
 10 26  1  0  0  0  0
 11 26  2  0  0  0  0
 12 27  1  0  0  0  0
 13 27  2  0  0  0  0
 14 28  1  0  0  0  0
 15 16  2  0  0  0  0
 15 29  1  0  0  0  0
 16 30  1  0  0  0  0
 17 25  1  0  0  0  0
 17 28  2  0  0  0  0
 18 30  2  0  0  0  0
 18 31  1  0  0  0  0
 19 32  1  0  0  0  0
 20 37  1  0  0  0  0
 21 32  1  0  0  0  0
 21 33  2  0  0  0  0
 21 38  1  0  0  0  0
 22 24  2  0  0  0  0
 22 43  1  0  0  0  0
 23 25  2  0  0  0  0
 23 44  1  0  0  0  0
 24 53  1  0  0  0  0
 25 45  1  0  0  0  0
 26 74  1  0  0  0  0
 27 85  1  0  0  0  0
 28 86  1  0  0  0  0
 29 31  2  0  0  0  0
 29 85  1  0  0  0  0
 30 87  1  0  0  0  0
 31 88  1  0  0  0  0
 32 67  2  0  0  0  0
 33 68  1  0  0  0  0
 33 72  1  0  0  0  0
 34 36  2  0  0  0  0
 34 46  1  0  0  0  0
 34 56  1  0  0  0  0
 35 56  1  0  0  0  0
 35 69  1  0  0  0  0
 35 78  2  0  0  0  0
 37 69  1  0  0  0  0
 37 79  2  0  0  0  0
 38 73  1  0  0  0  0
 38 80  2  0  0  0  0
 39 54  1  0  0  0  0
 39 75  1  0  0  0  0
 39 81  2  0  0  0  0
 40 64  1  0  0  0  0
 40 70  1  0  0  0  0
 40 82  2  0  0  0  0
 41 65  1  0  0  0  0
 41 76  1  0  0  0  0
 41 83  2  0  0  0  0
 42 71  1  0  0  0  0
 42 74  1  0  0  0  0
 42 84  2  0  0  0  0
 43 47  1  0  0  0  0
 44 54  1  0  0  0  0
 45 70  1  0  0  0  0
 46 69  1  0  0  0  0
 47 49  1  0  0  0  0
 48 50  1  0  0  0  0
 48 51  1  0  0  0  0
 49 53  1  0  0  0  0
 50 55  1  0  0  0  0
 51 71  1  0  0  0  0
 52 55  1  0  0  0  0
 52 71  1  0  0  0  0
 53 75  1  0  0  0  0
 54 70  1  0  0  0  0
 55 68  1  0  0  0  0
 56 57  1  0  0  0  0
 56 63  1  0  0  0  0
 58 65  1  0  0  0  0
 59 66  1  0  0  0  0
 60 66  1  0  0  0  0
 61 66  1  0  0  0  0
 62 77  1  0  0  0  0
 63 86  1  0  0  0  0
 64 66  1  0  0  0  0
 64 76  1  0  0  0  0
 65 77  1  0  0  0  0
 67 68  1  0  0  0  0
M  CHG  1  77   1
M  ISO  4  42 100  63 101  74 100  86 101
M  END
> <Batch ID>
0078

> <Smiles>
C=C1CN(C(=O)c2ccc([100NH:0][100C:0](=O)N3CCCC(n4nc(-c5ccc(Oc6ccc(F)cc6F)cc5)c(C(N)=O)c4N)C3)cc2)C(=O)C1(C)[101CH2:1][101O:1]c1ccc2c(c1)CN(C(=O)C(NC(=O)C(C)NC)C(C)(C)C)C(C(=O)NC1CCCc3ccccc31)C2

> <Shape>
0.231

> <Color>
0.064

> <Negative vol penalty>
0.000

$$$$

  -OEChem-04042323563D

 90 99  0     1  0  0  0  0  0999 V2000
  -21.7519  -29.8051   21.4124 C   0  0  0  0  0  0  0  0  0  0  0  0
  -22.5610  -28.6900   21.6055 C   0  0  0  0  0  0  0  0  0  0  0  0
  -31.5753  -22.3069   20.4159 C   0  0  0  0  0  0  0  0  0  0  0  0
  -29.2667  -22.6144   19.7737 C   0  0  0  0  0  0  0  0  0  0  0  0
  -20.3829  -29.7236   21.6639 C   0  0  0  0  0  0  0  0  0  0  0  0
  -22.0018  -27.4930   22.0514 C   0  0  0  0  0  0  0  0  0  0  0  0
  -23.7257  -21.8233   20.5061 C   0  0  0  0  0  0  0  0  0  0  0  0
  -31.8299  -23.6512   20.1448 C   0  0  0  0  0  0  0  0  0  0  0  0
  -29.5211  -23.9588   19.5026 C   0  0  0  0  0  0  0  0  0  0  0  0
  -24.5341  -20.8825   21.1425 C   0  0  0  0  0  0  0  0  0  0  0  0
  -29.8822  -26.8262   21.2541 C   0  0  0  0  0  0  0  0  0  0  0  0
  -28.9633  -27.7654   21.7222 C   0  0  0  0  0  0  0  0  0  0  0  0
  -22.5710  -19.8357   22.0752 C   0  0  0  0  0  0  0  0  0  0  0  0
  -24.3860  -12.6229   21.3388 C   0  0  0  0  0  0  0  0  0  0  0  0
  -25.1887  -11.1387   19.6098 C   0  0  0  0  0  0  0  0  0  0  0  0
  -28.5569  -28.4972   19.4558 C   0  0  0  0  0  0  0  0  0  0  0  0
  -30.2937  -21.7884   20.2303 C   0  0  0  0  0  0  0  0  0  0  0  0
  -29.6154  -19.8426   21.7341 C   0  0  0  0  0  0  0  0  0  0  0  0
  -19.8051  -28.5223   22.1038 C   0  0  0  0  0  0  0  0  0  0  0  0
  -22.3323  -21.7839   20.6585 C   0  0  0  0  0  0  0  0  0  0  0  0
  -20.6240  -27.3957   22.3104 C   0  0  0  0  0  0  0  0  0  0  0  0
  -21.7471  -20.7756   21.4375 C   0  0  0  0  0  0  0  0  0  0  0  0
  -24.3535  -11.3835   20.6998 C   0  0  0  0  0  0  0  0  0  0  0  0
  -25.2537  -13.6176   20.8877 C   0  0  0  0  0  0  0  0  0  0  0  0
  -26.0889  -13.3728   19.7977 C   0  0  0  0  0  0  0  0  0  0  0  0
  -30.8028  -24.4772   19.6882 C   0  0  0  0  0  0  0  0  0  0  0  0
  -23.9570  -19.8902   21.9296 C   0  0  0  0  0  0  0  0  0  0  0  0
  -30.1386  -26.7226   19.8869 C   0  0  0  0  0  0  0  0  0  0  0  0
  -28.3006  -28.6008   20.8230 C   0  0  0  0  0  0  0  0  0  0  0  0
  -26.0564  -12.1333   19.1587 C   0  0  0  0  0  0  0  0  0  0  0  0
  -29.4759  -27.5580   18.9878 C   0  0  0  0  0  0  0  0  0  0  0  0
  -30.0304  -20.3996   20.5096 C   0  0  0  0  0  0  0  0  0  0  0  0
  -29.5060  -18.4973   21.4798 C   0  0  0  0  0  0  0  0  0  0  0  0
  -22.2558   -8.9801   21.8054 C   0  0  0  0  0  0  0  0  0  0  0  0
  -22.5951  -10.3601   22.1548 C   0  0  0  0  0  0  0  0  0  0  0  0
  -21.4072   -8.0847   22.2973 C   0  0  0  0  0  0  0  0  0  0  0  0
  -24.5582  -17.6521   22.2461 C   0  0  0  0  0  0  0  0  0  1  0  0
  -29.3521  -20.4840   22.9891 C   0  0  0  0  0  0  0  0  0  0  0  0
  -24.7840  -16.6471   23.1033 C   0  0  0  0  0  0  0  0  0  0  0  0
  -24.5142  -15.2427   22.6560 C   0  0  0  0  0  0  0  0  0  0  0  0
  -20.1504  -23.7591   21.8590 C   0  0  0  0  0  0  0  0  0  0  0  0
  -18.0774  -21.5541   20.6916 C   0  0  0  0  0  0  0  0  0  0  0  0
  -17.5184  -18.3289   19.7259 C   0  0  0  0  0  0  0  0  0  0  0  0
  -27.8649  -14.2680   18.2515 C   0  0  0  0  0  0  0  0  0  0  0  0
  -18.3281  -28.4957   22.4078 C   0  0  0  0  0  0  0  0  0  0  0  0
  -21.4725  -22.7900   19.9436 C   0  0  0  0  0  0  0  0  0  0  0  0
  -20.2548  -20.6774   21.6167 C   0  0  0  0  0  0  0  0  0  0  0  0
  -23.2667   -9.0443   20.6836 C   0  0  0  0  0  0  0  0  0  0  0  0
  -17.7544  -27.0855   22.5192 C   0  0  0  0  0  0  0  0  0  0  0  0
  -31.0032  -15.7669   17.4892 C   0  0  0  0  0  0  0  0  0  0  0  0
  -18.6536  -26.2104   23.3865 C   0  0  0  0  0  0  0  0  0  0  0  0
  -30.9958  -17.0600   18.3078 C   0  0  0  0  0  0  0  0  0  0  0  0
  -29.6179  -15.4383   16.9354 C   0  0  0  0  0  0  0  0  0  0  0  0
  -28.5340  -16.7005   18.7523 C   0  0  0  0  0  0  0  0  0  0  0  0
  -20.0506  -26.0726   22.7694 C   0  0  1  0  0  0  0  0  0  0  0  0
  -20.0992  -22.9650   20.5845 C   0  0  1  0  0  0  0  0  0  0  0  0
  -29.8937  -17.0386   19.3851 C   0  0  2  0  0  0  0  0  0  0  0  0
  -25.2358  -16.8159   24.5207 C   0  0  0  0  0  0  0  0  0  0  0  0
  -15.7145  -16.8185   18.8531 C   0  0  0  0  0  0  0  0  0  0  0  0
  -16.8419  -21.4235   23.4784 C   0  0  0  0  0  0  0  0  0  0  0  0
  -15.7303  -19.2823   22.8092 C   0  0  0  0  0  0  0  0  0  0  0  0
  -15.1887  -21.3970   21.6020 C   0  0  0  0  0  0  0  0  0  0  0  0
  -19.0248  -17.7743   17.2395 C   0  0  0  0  0  0  0  0  0  0  0  0
  -17.4357  -20.2988   21.2315 C   0  0  1  0  0  0  0  0  0  0  0  0
  -16.8611  -17.7479   18.4870 C   0  0  2  0  0  0  0  0  0  0  0  0
  -16.3274  -20.6031   22.2787 C   0  0  0  0  0  0  0  0  0  0  0  0
  -30.1750  -19.4831   19.5489 N   0  0  0  0  0  0  0  0  0  0  0  0
  -29.8492  -18.3365   20.1697 N   0  0  0  0  0  0  0  0  0  0  0  0
  -23.4857  -10.3880   21.1502 N   0  0  0  0  0  0  0  0  0  0  0  0
  -19.4571  -21.6880   20.9027 N   0  0  0  0  0  0  0  0  0  0  0  0
  -28.6265  -15.4316   18.0133 N   0  0  0  0  0  0  0  0  0  0  0  0
  -29.1509  -17.4481   22.2514 N   0  0  0  0  0  0  0  0  0  0  0  0
  -29.5137  -21.8735   23.0763 N   0  0  0  0  0  0  0  0  0  0  0  0
  -25.2687  -14.8675   21.5535 N   0  0  0  0  0  0  0  0  0  0  0  0
  -26.9777  -14.3688   19.3226 N   0  0  0  0  0  0  0  0  0  0  0  0
  -20.0292  -25.1235   21.6770 N   0  0  0  0  0  0  0  0  0  0  0  0
  -16.9710  -19.5464   20.0712 N   0  0  0  0  0  0  0  0  0  0  0  0
  -17.8542  -16.9767   17.6870 N   0  3  0  0  0  0  0  0  0  0  0  0
  -22.2264  -11.1488   23.0001 O   0  0  0  0  0  0  0  0  0  0  0  0
  -29.0004  -19.8418   24.0076 O   0  0  0  0  0  0  0  0  0  0  0  0
  -23.7289  -14.5529   23.2990 O   0  0  0  0  0  0  0  0  0  0  0  0
  -20.2881  -23.1770   22.9286 O   0  0  0  0  0  0  0  0  0  0  0  0
  -17.3816  -22.3818   20.0980 O   0  0  0  0  0  0  0  0  0  0  0  0
  -18.4242  -17.7579   20.3292 O   0  0  0  0  0  0  0  0  0  0  0  0
  -28.0099  -13.2474   17.5737 O   0  0  0  0  0  0  0  0  0  0  0  0
  -31.0507  -25.7891   19.4238 O   0  0  0  0  0  0  0  0  0  0  0  0
  -24.7438  -18.9710   22.5525 O   0  0  0  0  0  0  0  0  0  1  0  0
  -27.4170  -29.5016   21.2725 F   0  0  0  0  0  0  0  0  0  0  0  0
  -26.8541  -11.8857   18.1098 F   0  0  0  0  0  0  0  0  0  0  0  0
  -29.7172  -27.4623   17.6731 F   0  0  0  0  0  0  0  0  0  0  0  0
  1  2  1  0  0  0  0
  1  5  2  0  0  0  0
  2  6  2  0  0  0  0
  3  8  2  0  0  0  0
  3 17  1  0  0  0  0
  4  9  1  0  0  0  0
  4 17  2  0  0  0  0
  5 19  1  0  0  0  0
  6 21  1  0  0  0  0
  7 10  2  0  0  0  0
  7 20  1  0  0  0  0
  8 26  1  0  0  0  0
  9 26  2  0  0  0  0
 10 27  1  0  0  0  0
 11 12  2  0  0  0  0
 11 28  1  0  0  0  0
 12 29  1  0  0  0  0
 13 22  1  0  0  0  0
 13 27  2  0  0  0  0
 14 23  2  0  0  0  0
 14 24  1  0  0  0  0
 15 23  1  0  0  0  0
 15 30  2  0  0  0  0
 16 29  2  0  0  0  0
 16 31  1  0  0  0  0
 17 32  1  0  0  0  0
 18 32  1  0  0  0  0
 18 33  2  0  0  0  0
 18 38  1  0  0  0  0
 19 21  2  0  0  0  0
 19 45  1  0  0  0  0
 20 22  2  0  0  0  0
 20 46  1  0  0  0  0
 21 55  1  0  0  0  0
 22 47  1  0  0  0  0
 23 69  1  0  0  0  0
 24 25  2  0  0  0  0
 24 74  1  0  0  0  0
 25 30  1  0  0  0  0
 25 75  1  0  0  0  0
 26 86  1  0  0  0  0
 27 87  1  0  0  0  0
 28 31  2  0  0  0  0
 28 86  1  0  0  0  0
 29 88  1  0  0  0  0
 30 89  1  0  0  0  0
 31 90  1  0  0  0  0
 32 67  2  0  0  0  0
 33 68  1  0  0  0  0
 33 72  1  0  0  0  0
 34 35  1  0  0  0  0
 34 36  2  0  0  0  0
 34 48  1  0  0  0  0
 35 69  1  0  0  0  0
 35 79  2  0  0  0  0
 37 39  2  0  0  0  0
 37 87  1  0  0  0  0
 38 73  1  0  0  0  0
 38 80  2  0  0  0  0
 39 40  1  0  0  0  0
 39 58  1  0  0  0  0
 40 74  1  0  0  0  0
 40 81  2  0  0  0  0
 41 56  1  0  0  0  0
 41 76  1  0  0  0  0
 41 82  2  0  0  0  0
 42 64  1  0  0  0  0
 42 70  1  0  0  0  0
 42 83  2  0  0  0  0
 43 65  1  0  0  0  0
 43 77  1  0  0  0  0
 43 84  2  0  0  0  0
 44 71  1  0  0  0  0
 44 75  1  0  0  0  0
 44 85  2  0  0  0  0
 45 49  1  0  0  0  0
 46 56  1  0  0  0  0
 47 70  1  0  0  0  0
 48 69  1  0  0  0  0
 49 51  1  0  0  0  0
 50 52  1  0  0  0  0
 50 53  1  0  0  0  0
 51 55  1  0  0  0  0
 52 57  1  0  0  0  0
 53 71  1  0  0  0  0
 54 57  1  0  0  0  0
 54 71  1  0  0  0  0
 55 76  1  0  0  0  0
 56 70  1  0  0  0  0
 57 68  1  0  0  0  0
 59 65  1  0  0  0  0
 60 66  1  0  0  0  0
 61 66  1  0  0  0  0
 62 66  1  0  0  0  0
 63 78  1  0  0  0  0
 64 66  1  0  0  0  0
 64 77  1  0  0  0  0
 65 78  1  0  0  0  0
 67 68  1  0  0  0  0
M  CHG  1  78   1
M  ISO  4  37 101  44 100  75 100  87 101
M  END
> <Batch ID>
0078

> <Smiles>
C=C1CN(c2cc(F)c([100NH:0][100C:0](=O)N3CCCC(n4nc(-c5ccc(Oc6ccc(F)cc6F)cc5)c(C(N)=O)c4N)C3)c(NC(=O)C(C)=[101CH:1][101O:1]c3ccc4c(c3)CN(C(=O)C(NC(=O)C(C)NC)C(C)(C)C)C(C(=O)NC3CCCc5ccccc53)C4)c2)C1=O

> <Shape>
0.229

> <Color>
0.064

> <Negative vol penalty>
0.000

$$$$

  -OEChem-04042323563D

 86 94  0     1  0  0  0  0  0999 V2000
  -23.3665  -24.0270   20.8171 C   0  0  0  0  0  0  0  0  0  0  0  0
  -24.4956  -23.2263   20.9559 C   0  0  0  0  0  0  0  0  0  0  0  0
  -20.5267  -28.8002   21.2842 C   0  0  0  0  0  0  0  0  0  0  0  0
  -21.6428  -27.4387   22.9389 C   0  0  0  0  0  0  0  0  0  0  0  0
  -29.8443  -23.4547   22.1386 C   0  0  0  0  0  0  0  0  0  0  0  0
  -30.5383  -23.1084   19.8505 C   0  0  0  0  0  0  0  0  0  0  0  0
  -22.1197  -23.5471   21.2158 C   0  0  0  0  0  0  0  0  0  0  0  0
  -24.3787  -21.9454   21.4945 C   0  0  0  0  0  0  0  0  0  0  0  0
  -26.9931  -18.4897   18.8739 C   0  0  0  0  0  0  0  0  0  0  0  0
  -29.1811  -24.6222   21.7608 C   0  0  0  0  0  0  0  0  0  0  0  0
  -29.8750  -24.2759   19.4727 C   0  0  0  0  0  0  0  0  0  0  0  0
  -19.3167  -28.1756   21.5864 C   0  0  0  0  0  0  0  0  0  0  0  0
  -20.4327  -26.8141   23.2411 C   0  0  0  0  0  0  0  0  0  0  0  0
  -28.3712  -18.4427   19.0802 C   0  0  0  0  0  0  0  0  0  0  0  0
  -15.8668  -27.1928   22.1756 C   0  0  0  0  0  0  0  0  0  0  0  0
  -14.7394  -28.0005   22.3240 C   0  0  0  0  0  0  0  0  0  0  0  0
  -28.0795  -16.5600   20.5599 C   0  0  0  0  0  0  0  0  0  0  0  0
  -15.8187  -29.1734   24.1396 C   0  0  0  0  0  0  0  0  0  0  0  0
  -21.6898  -28.4317   21.9604 C   0  0  0  0  0  0  0  0  0  0  0  0
  -30.5230  -22.6979   21.1835 C   0  0  0  0  0  0  0  0  0  0  0  0
  -23.4710  -30.2357   22.2447 C   0  0  0  0  0  0  0  0  0  0  0  0
  -21.9859  -22.2561   21.7506 C   0  0  0  0  0  0  0  0  0  0  0  0
  -26.1454  -17.5775   19.5187 C   0  0  0  0  0  0  0  0  0  0  0  0
  -23.1290  -21.4483   21.9020 C   0  0  0  0  0  0  0  0  0  0  0  0
  -26.6913  -16.5959   20.3581 C   0  0  0  0  0  0  0  0  0  0  0  0
  -29.1964  -25.0328   20.4279 C   0  0  0  0  0  0  0  0  0  0  0  0
  -19.2697  -27.1826   22.5648 C   0  0  0  0  0  0  0  0  0  0  0  0
  -28.9143  -17.4797   19.9255 C   0  0  0  0  0  0  0  0  0  0  0  0
  -16.9702  -27.3753   23.0092 C   0  0  0  0  0  0  0  0  0  0  0  0
  -14.7153  -28.9908   23.3060 C   0  0  0  0  0  0  0  0  0  0  0  0
  -16.9461  -28.3656   23.9912 C   0  0  0  0  0  0  0  0  0  0  0  0
  -22.9402  -29.0762   21.6483 C   0  0  0  0  0  0  0  0  0  0  0  0
  -24.6685  -30.4348   21.6021 C   0  0  0  0  0  0  0  0  0  0  0  0
  -31.2296  -21.4545   21.5859 C   0  0  0  0  0  0  0  0  0  0  0  0
  -22.9301  -31.0591   23.2863 C   0  0  0  0  0  0  0  0  0  0  0  0
  -23.7663  -17.8202   21.6126 C   0  0  0  0  0  0  0  0  0  0  0  0
  -32.1839  -18.6434   20.9586 C   0  0  0  0  0  0  0  0  0  0  0  0
  -23.4883  -14.6330   21.0767 C   0  0  0  0  0  0  0  0  0  0  0  0
  -24.9664  -11.7230   20.0799 C   0  0  0  0  0  0  0  0  0  0  0  0
  -28.4385  -26.7677   18.7659 C   0  0  0  0  0  0  0  0  0  0  0  0
  -20.6246  -21.7987   22.2114 C   0  0  0  0  0  0  0  0  0  0  0  0
  -24.6636  -17.6244   19.2647 C   0  0  0  0  0  0  0  0  0  0  0  0
  -25.8264  -15.5808   21.0581 C   0  0  0  0  0  0  0  0  0  0  0  0
  -20.5291  -20.2903   22.4255 C   0  0  0  0  0  0  0  0  0  0  0  0
  -26.8446  -29.6479   17.4092 C   0  0  0  0  0  0  0  0  0  0  0  0
  -21.7314  -19.7863   23.2174 C   0  0  0  0  0  0  0  0  0  0  0  0
  -25.7145  -29.9373   18.3999 C   0  0  0  0  0  0  0  0  0  0  0  0
  -27.0646  -28.1478   17.2223 C   0  0  0  0  0  0  0  0  0  0  0  0
  -26.1343  -27.6795   19.4549 C   0  0  0  0  0  0  0  0  0  0  0  0
  -23.0390  -20.0440   22.4589 C   0  0  1  0  0  0  0  0  0  0  0  0
  -23.8461  -16.9716   20.3751 C   0  0  1  0  0  0  0  0  0  0  0  0
  -25.9186  -29.1775   19.7253 C   0  0  2  0  0  0  0  0  0  0  0  0
  -24.4971   -9.2755   19.7850 C   0  0  0  0  0  0  0  0  0  0  0  0
  -34.1719  -19.7629   19.9770 C   0  0  0  0  0  0  0  0  0  0  0  0
  -33.6995  -19.9769   22.4387 C   0  0  0  0  0  0  0  0  0  0  0  0
  -23.6743  -14.2360   24.0963 C   0  0  0  0  0  0  0  0  0  0  0  0
  -24.1552  -11.8148   23.6782 C   0  0  0  0  0  0  0  0  0  0  0  0
  -21.9774  -12.7946   22.9571 C   0  0  0  0  0  0  0  0  0  0  0  0
  -25.5194  -11.8484   17.1752 C   0  0  0  0  0  0  0  0  0  0  0  0
  -30.9732  -18.6643   20.0413 C   0  0  0  0  0  0  0  0  0  1  0  0
  -24.0838  -13.3896   21.6917 C   0  0  1  0  0  0  0  0  0  0  0  0
  -24.5126  -10.6413   19.1163 C   0  0  2  0  0  0  0  0  0  0  0  0
  -33.0792  -19.8926   21.0425 C   0  0  0  0  0  0  0  0  0  0  0  0
  -23.4890  -13.0789   23.0943 C   0  0  0  0  0  0  0  0  0  0  0  0
  -23.7351  -28.5741   20.6997 N   0  0  0  0  0  0  0  0  0  0  0  0
  -24.7776  -29.4221   20.6950 N   0  0  0  0  0  0  0  0  0  0  0  0
  -24.3830  -15.6717   20.7827 N   0  0  0  0  0  0  0  0  0  0  0  0
  -27.2549  -27.4951   18.5195 N   0  0  0  0  0  0  0  0  0  0  0  0
  -25.6281  -31.3756   21.7300 N   0  0  0  0  0  0  0  0  0  0  0  0
  -21.6888  -30.7113   23.8363 N   0  0  0  0  0  0  0  0  0  0  0  0
  -28.5222  -26.2188   20.0451 N   0  0  0  0  0  0  0  0  0  0  0  0
  -32.3059  -21.0902   20.7943 N   0  0  0  0  0  0  0  0  0  0  0  0
  -23.2119  -19.0686   21.4039 N   0  0  0  0  0  0  0  0  0  0  0  0
  -23.8989  -12.3222   20.7145 N   0  0  0  0  0  0  0  0  0  0  0  0
  -25.4262  -10.5786   17.9405 N   0  3  0  0  0  0  0  0  0  0  0  0
  -30.8238  -20.8213   22.5569 O   0  0  0  0  0  0  0  0  0  0  0  0
  -23.5221  -32.0825   23.7053 O   0  0  0  0  0  0  0  0  0  0  0  0
  -24.1758  -17.3746   22.6782 O   0  0  0  0  0  0  0  0  0  0  0  0
  -32.4744  -17.6225   21.5893 O   0  0  0  0  0  0  0  0  0  0  0  0
  -22.2750  -14.6782   20.8585 O   0  0  0  0  0  0  0  0  0  0  0  0
  -26.1496  -12.0054   20.2551 O   0  0  0  0  0  0  0  0  0  0  0  0
  -29.3256  -26.6639   17.9148 O   0  0  0  0  0  0  0  0  0  0  0  0
  -18.0891  -26.5731   22.8601 O   0  0  0  0  0  0  0  0  0  0  0  0
  -30.2589  -17.4321   20.1292 O   0  0  0  0  0  0  0  0  0  1  0  0
  -13.6332  -29.7674   23.4474 F   0  0  0  0  0  0  0  0  0  0  0  0
  -18.0036  -28.5465   24.7943 F   0  0  0  0  0  0  0  0  0  0  0  0
  1  2  1  0  0  0  0
  1  7  2  0  0  0  0
  2  8  2  0  0  0  0
  3 12  2  0  0  0  0
  3 19  1  0  0  0  0
  4 13  1  0  0  0  0
  4 19  2  0  0  0  0
  5 10  2  0  0  0  0
  5 20  1  0  0  0  0
  6 11  1  0  0  0  0
  6 20  2  0  0  0  0
  7 22  1  0  0  0  0
  8 24  1  0  0  0  0
  9 14  2  0  0  0  0
  9 23  1  0  0  0  0
 10 26  1  0  0  0  0
 11 26  2  0  0  0  0
 12 27  1  0  0  0  0
 13 27  2  0  0  0  0
 14 28  1  0  0  0  0
 15 16  2  0  0  0  0
 15 29  1  0  0  0  0
 16 30  1  0  0  0  0
 17 25  1  0  0  0  0
 17 28  2  0  0  0  0
 18 30  2  0  0  0  0
 18 31  1  0  0  0  0
 19 32  1  0  0  0  0
 20 34  1  0  0  0  0
 21 32  1  0  0  0  0
 21 33  2  0  0  0  0
 21 35  1  0  0  0  0
 22 24  2  0  0  0  0
 22 41  1  0  0  0  0
 23 25  2  0  0  0  0
 23 42  1  0  0  0  0
 24 50  1  0  0  0  0
 25 43  1  0  0  0  0
 26 71  1  0  0  0  0
 27 83  1  0  0  0  0
 28 84  1  0  0  0  0
 29 31  2  0  0  0  0
 29 83  1  0  0  0  0
 30 85  1  0  0  0  0
 31 86  1  0  0  0  0
 32 65  2  0  0  0  0
 33 66  1  0  0  0  0
 33 69  1  0  0  0  0
 34 72  1  0  0  0  0
 34 76  2  0  0  0  0
 35 70  1  0  0  0  0
 35 77  2  0  0  0  0
 36 51  1  0  0  0  0
 36 73  1  0  0  0  0
 36 78  2  0  0  0  0
 37 60  1  0  0  0  0
 37 63  1  0  0  0  0
 37 79  2  0  0  0  0
 38 61  1  0  0  0  0
 38 67  1  0  0  0  0
 38 80  2  0  0  0  0
 39 62  1  0  0  0  0
 39 74  1  0  0  0  0
 39 81  2  0  0  0  0
 40 68  1  0  0  0  0
 40 71  1  0  0  0  0
 40 82  2  0  0  0  0
 41 44  1  0  0  0  0
 42 51  1  0  0  0  0
 43 67  1  0  0  0  0
 44 46  1  0  0  0  0
 45 47  1  0  0  0  0
 45 48  1  0  0  0  0
 46 50  1  0  0  0  0
 47 52  1  0  0  0  0
 48 68  1  0  0  0  0
 49 52  1  0  0  0  0
 49 68  1  0  0  0  0
 50 73  1  0  0  0  0
 51 67  1  0  0  0  0
 52 66  1  0  0  0  0
 53 62  1  0  0  0  0
 54 63  1  0  0  0  0
 55 63  1  0  0  0  0
 56 64  1  0  0  0  0
 57 64  1  0  0  0  0
 58 64  1  0  0  0  0
 59 75  1  0  0  0  0
 60 84  1  0  0  0  0
 61 64  1  0  0  0  0
 61 74  1  0  0  0  0
 62 75  1  0  0  0  0
 63 72  1  0  0  0  0
 65 66  1  0  0  0  0
M  CHG  1  75   1
M  ISO  4  40 100  60 101  71 100  84 101
M  END
> <Batch ID>
0078

> <Smiles>
CNC(C)C(=O)NC(C(=O)N1Cc2cc([101O:1][101CH2:1]C(=O)C(C)(C)NC(=O)c3ccc([100NH:0][100C:0](=O)N4CCCC(n5nc(-c6ccc(Oc7ccc(F)cc7F)cc6)c(C(N)=O)c5N)C4)cc3)ccc2CC1C(=O)NC1CCCc2ccccc21)C(C)(C)C

> <Shape>
0.229

> <Color>
0.079

> <Negative vol penalty>
0.000

$$$$

  -OEChem-04042323563D

 90 99  0     1  0  0  0  0  0999 V2000
  -25.6057  -33.9803   14.8126 C   0  0  0  0  0  0  0  0  0  0  0  0
  -26.2730  -32.9279   15.4309 C   0  0  0  0  0  0  0  0  0  0  0  0
  -34.8696  -12.0255   18.7772 C   0  0  0  0  0  0  0  0  0  0  0  0
  -34.5713  -14.4173   18.6108 C   0  0  0  0  0  0  0  0  0  0  0  0
  -30.1087  -19.1334   18.1915 C   0  0  0  0  0  0  0  0  0  0  0  0
  -29.3193  -19.9639   20.3186 C   0  0  0  0  0  0  0  0  0  0  0  0
  -25.0766  -35.0164   15.5812 C   0  0  0  0  0  0  0  0  0  0  0  0
  -26.4127  -32.9114   16.8182 C   0  0  0  0  0  0  0  0  0  0  0  0
  -25.4174  -28.3661   18.8170 C   0  0  0  0  0  0  0  0  0  0  0  0
  -30.3120  -20.4427   17.7558 C   0  0  0  0  0  0  0  0  0  0  0  0
  -29.5227  -21.2732   19.8828 C   0  0  0  0  0  0  0  0  0  0  0  0
  -36.1539  -12.2210   19.2849 C   0  0  0  0  0  0  0  0  0  0  0  0
  -35.8557  -14.6128   19.1185 C   0  0  0  0  0  0  0  0  0  0  0  0
  -26.4107  -27.3933   18.7127 C   0  0  0  0  0  0  0  0  0  0  0  0
  -39.2211  -12.9707   18.0788 C   0  0  0  0  0  0  0  0  0  0  0  0
  -40.2485  -12.1811   17.5624 C   0  0  0  0  0  0  0  0  0  0  0  0
  -27.0765  -27.8377   20.9883 C   0  0  0  0  0  0  0  0  0  0  0  0
  -40.6752  -11.2935   19.7686 C   0  0  0  0  0  0  0  0  0  0  0  0
  -34.0782  -13.1237   18.4401 C   0  0  0  0  0  0  0  0  0  0  0  0
  -29.6123  -18.8940   19.4729 C   0  0  0  0  0  0  0  0  0  0  0  0
  -32.3979  -12.2304   16.7413 C   0  0  0  0  0  0  0  0  0  0  0  0
  -25.2014  -35.0077   16.9794 C   0  0  0  0  0  0  0  0  0  0  0  0
  -25.2531  -29.0908   20.0062 C   0  0  0  0  0  0  0  0  0  0  0  0
  -25.8860  -33.9489   17.6061 C   0  0  0  0  0  0  0  0  0  0  0  0
  -26.0787  -28.8174   21.1060 C   0  0  0  0  0  0  0  0  0  0  0  0
  -30.0191  -21.5126   18.6014 C   0  0  0  0  0  0  0  0  0  0  0  0
  -36.6470  -13.5146   19.4556 C   0  0  0  0  0  0  0  0  0  0  0  0
  -27.2423  -27.1310   19.7974 C   0  0  0  0  0  0  0  0  0  0  0  0
  -38.9209  -12.9218   19.4402 C   0  0  0  0  0  0  0  0  0  0  0  0
  -40.9755  -11.3424   18.4073 C   0  0  0  0  0  0  0  0  0  0  0  0
  -39.6479  -12.0832   20.2850 C   0  0  0  0  0  0  0  0  0  0  0  0
  -32.7516  -12.9224   17.9151 C   0  0  0  0  0  0  0  0  0  0  0  0
  -31.0286  -12.3236   16.6872 C   0  0  0  0  0  0  0  0  0  0  0  0
  -29.8006  -25.3162   18.1432 C   0  0  0  0  0  0  0  0  0  0  0  0
  -30.8246  -25.4964   17.1275 C   0  0  0  0  0  0  0  0  0  0  0  0
  -29.4320  -23.9300   18.6251 C   0  0  0  0  0  0  0  0  0  0  0  0
  -30.8250  -26.4795   16.2129 C   0  0  0  0  0  0  0  0  0  0  0  0
  -29.1765  -26.3456   18.7426 C   0  0  0  0  0  0  0  0  0  1  0  0
  -29.3972  -17.5103   19.9334 C   0  0  0  0  0  0  0  0  0  0  0  0
  -33.2324  -11.5629   15.7853 C   0  0  0  0  0  0  0  0  0  0  0  0
  -25.4646  -32.1586   20.8109 C   0  0  0  0  0  0  0  0  0  0  0  0
  -24.3649  -31.0831   23.6668 C   0  0  0  0  0  0  0  0  0  0  0  0
  -23.4962  -29.3138   26.4528 C   0  0  0  0  0  0  0  0  0  0  0  0
  -30.3087  -15.5340   21.0628 C   0  0  0  0  0  0  0  0  0  0  0  0
  -24.6543  -36.1735   17.7643 C   0  0  0  0  0  0  0  0  0  0  0  0
  -24.1595  -30.1182   20.1115 C   0  0  0  0  0  0  0  0  0  0  0  0
  -25.9301  -29.5534   22.4116 C   0  0  0  0  0  0  0  0  0  0  0  0
  -31.8799  -24.4374   17.1409 C   0  0  0  0  0  0  0  0  0  0  0  0
  -24.5186  -35.8918   19.2584 C   0  0  0  0  0  0  0  0  0  0  0  0
  -28.8929  -12.3132   20.4800 C   0  0  0  0  0  0  0  0  0  0  0  0
  -25.7852  -35.2321   19.7945 C   0  0  0  0  0  0  0  0  0  0  0  0
  -28.5510  -12.3030   18.9928 C   0  0  0  0  0  0  0  0  0  0  0  0
  -31.2128  -23.0746   17.0704 C   0  0  0  0  0  0  0  0  0  0  0  0
  -28.6537  -13.6892   21.0855 C   0  0  0  0  0  0  0  0  0  0  0  0
  -29.1389  -14.7927   18.9154 C   0  0  0  0  0  0  0  0  0  0  0  0
  -26.0363  -33.8828   19.1105 C   0  0  1  0  0  0  0  0  0  0  0  0
  -24.4166  -31.1550   21.2007 C   0  0  1  0  0  0  0  0  0  0  0  0
  -29.2470  -13.4261   18.2050 C   0  0  1  0  0  0  0  0  0  0  0  0
  -31.3486  -18.0378   22.5550 C   0  0  0  0  0  0  0  0  0  0  0  0
  -22.9571  -29.6098   28.8857 C   0  0  0  0  0  0  0  0  0  0  0  0
  -27.3293  -31.4755   24.2734 C   0  0  0  0  0  0  0  0  0  0  0  0
  -26.8601  -30.8177   26.6430 C   0  0  0  0  0  0  0  0  0  0  0  0
  -25.7857  -32.8523   25.6792 C   0  0  0  0  0  0  0  0  0  0  0  0
  -20.7733  -28.2082   26.1032 C   0  0  0  0  0  0  0  0  0  0  0  0
  -31.5887  -17.6142   21.1200 C   0  0  0  0  0  0  0  0  0  0  0  0
  -25.0045  -30.5665   24.9328 C   0  0  1  0  0  0  0  0  0  0  0  0
  -22.3942  -29.5227   27.4757 C   0  0  2  0  0  0  0  0  0  0  0  0
  -26.2382  -31.4106   25.3606 C   0  0  0  0  0  0  0  0  0  0  0  0
  -31.6925  -13.4187   18.5600 N   0  0  0  0  0  0  0  0  0  0  0  0
  -30.6599  -13.0383   17.7887 N   0  0  0  0  0  0  0  0  0  0  0  0
  -30.2305  -22.8698   18.1486 N   0  0  0  0  0  0  0  0  0  0  0  0
  -24.8504  -30.5530   22.4630 N   0  0  0  0  0  0  0  0  0  0  0  0
  -29.3898  -14.7261   20.3637 N   0  0  0  0  0  0  0  0  0  0  0  0
  -30.1161  -11.8633   15.8052 N   0  0  0  0  0  0  0  0  0  0  0  0
  -34.6184  -11.5629   15.9932 N   0  0  0  0  0  0  0  0  0  0  0  0
  -25.1660  -32.8667   19.6624 N   0  0  0  0  0  0  0  0  0  0  0  0
  -23.9435  -30.5099   25.9325 N   0  0  0  0  0  0  0  0  0  0  0  0
  -30.4597  -16.8520   20.5847 N   0  0  0  0  0  0  0  0  0  0  0  0
  -21.4216  -28.3946   27.4268 N   0  3  0  0  0  0  0  0  0  0  0  0
  -28.4573  -23.7947   19.3673 O   0  0  0  0  0  0  0  0  0  0  0  0
  -28.2847  -17.0266   19.7257 O   0  0  0  0  0  0  0  0  0  0  0  0
  -32.7641  -10.9977   14.7681 O   0  0  0  0  0  0  0  0  0  0  0  0
  -26.4691  -32.2826   21.5018 O   0  0  0  0  0  0  0  0  0  0  0  0
  -23.4626  -31.9207   23.7434 O   0  0  0  0  0  0  0  0  0  0  0  0
  -23.9206  -28.2012   26.1486 O   0  0  0  0  0  0  0  0  0  0  0  0
  -30.9324  -15.1322   22.0517 O   0  0  0  0  0  0  0  0  0  0  0  0
  -37.9002  -13.7058   19.9512 O   0  0  0  0  0  0  0  0  0  0  0  0
  -28.2131  -26.1825   19.6981 O   0  0  0  0  0  0  0  0  0  1  0  0
  -41.9610  -10.5831   17.9110 F   0  0  0  0  0  0  0  0  0  0  0  0
  -39.3633  -12.0310   21.5935 F   0  0  0  0  0  0  0  0  0  0  0  0
  1  2  1  0  0  0  0
  1  7  2  0  0  0  0
  2  8  2  0  0  0  0
  3 12  2  0  0  0  0
  3 19  1  0  0  0  0
  4 13  1  0  0  0  0
  4 19  2  0  0  0  0
  5 10  2  0  0  0  0
  5 20  1  0  0  0  0
  6 11  1  0  0  0  0
  6 20  2  0  0  0  0
  7 22  1  0  0  0  0
  8 24  1  0  0  0  0
  9 14  2  0  0  0  0
  9 23  1  0  0  0  0
 10 26  1  0  0  0  0
 11 26  2  0  0  0  0
 12 27  1  0  0  0  0
 13 27  2  0  0  0  0
 14 28  1  0  0  0  0
 15 16  2  0  0  0  0
 15 29  1  0  0  0  0
 16 30  1  0  0  0  0
 17 25  1  0  0  0  0
 17 28  2  0  0  0  0
 18 30  2  0  0  0  0
 18 31  1  0  0  0  0
 19 32  1  0  0  0  0
 20 39  1  0  0  0  0
 21 32  1  0  0  0  0
 21 33  2  0  0  0  0
 21 40  1  0  0  0  0
 22 24  2  0  0  0  0
 22 45  1  0  0  0  0
 23 25  2  0  0  0  0
 23 46  1  0  0  0  0
 24 56  1  0  0  0  0
 25 47  1  0  0  0  0
 26 71  1  0  0  0  0
 27 87  1  0  0  0  0
 28 88  1  0  0  0  0
 29 31  2  0  0  0  0
 29 87  1  0  0  0  0
 30 89  1  0  0  0  0
 31 90  1  0  0  0  0
 32 69  2  0  0  0  0
 33 70  1  0  0  0  0
 33 74  1  0  0  0  0
 34 35  1  0  0  0  0
 34 36  1  0  0  0  0
 34 38  2  0  0  0  0
 35 37  2  0  0  0  0
 35 48  1  0  0  0  0
 36 71  1  0  0  0  0
 36 80  2  0  0  0  0
 38 88  1  0  0  0  0
 39 78  1  0  0  0  0
 39 81  2  0  0  0  0
 40 75  1  0  0  0  0
 40 82  2  0  0  0  0
 41 57  1  0  0  0  0
 41 76  1  0  0  0  0
 41 83  2  0  0  0  0
 42 66  1  0  0  0  0
 42 72  1  0  0  0  0
 42 84  2  0  0  0  0
 43 67  1  0  0  0  0
 43 77  1  0  0  0  0
 43 85  2  0  0  0  0
 44 73  1  0  0  0  0
 44 78  1  0  0  0  0
 44 86  2  0  0  0  0
 45 49  1  0  0  0  0
 46 57  1  0  0  0  0
 47 72  1  0  0  0  0
 48 53  1  0  0  0  0
 49 51  1  0  0  0  0
 50 52  1  0  0  0  0
 50 54  1  0  0  0  0
 51 56  1  0  0  0  0
 52 58  1  0  0  0  0
 53 71  1  0  0  0  0
 54 73  1  0  0  0  0
 55 58  1  0  0  0  0
 55 73  1  0  0  0  0
 56 76  1  0  0  0  0
 57 72  1  0  0  0  0
 58 70  1  0  0  0  0
 59 65  1  0  0  0  0
 60 67  1  0  0  0  0
 61 68  1  0  0  0  0
 62 68  1  0  0  0  0
 63 68  1  0  0  0  0
 64 79  1  0  0  0  0
 65 78  1  0  0  0  0
 66 68  1  0  0  0  0
 66 77  1  0  0  0  0
 67 79  1  0  0  0  0
 69 70  1  0  0  0  0
M  CHG  1  79   1
M  ISO  4  38 101  44 100  78 100  88 101
M  END
> <Batch ID>
0078

> <Smiles>
C=C1CCN(c2ccc(C(=O)[100N:0](CC)[100C:0](=O)N3CCCC(n4nc(-c5ccc(Oc6ccc(F)cc6F)cc5)c(C(N)=O)c4N)C3)cc2)C(=O)C1=[101CH:1][101O:1]c1ccc2c(c1)CN(C(=O)C(NC(=O)C(C)NC)C(C)(C)C)C(C(=O)NC1CCCc3ccccc31)C2

> <Shape>
0.238

> <Color>
0.100

> <Negative vol penalty>
0.000

$$$$

  -OEChem-04042323563D

 87 96  0     1  0  0  0  0  0999 V2000
  -19.2069  -32.8616   24.9475 C   0  0  0  0  0  0  0  0  0  0  0  0
  -20.4277  -32.2512   24.6782 C   0  0  0  0  0  0  0  0  0  0  0  0
  -26.9183  -13.0718   20.9021 C   0  0  0  0  0  0  0  0  0  0  0  0
  -27.2102  -13.0847   18.5038 C   0  0  0  0  0  0  0  0  0  0  0  0
  -18.0176  -32.1736   24.7107 C   0  0  0  0  0  0  0  0  0  0  0  0
  -20.4599  -30.9520   24.1730 C   0  0  0  0  0  0  0  0  0  0  0  0
  -23.7452  -30.4334   20.3542 C   0  0  0  0  0  0  0  0  0  0  0  0
  -32.5801  -22.7060   17.2046 C   0  0  0  0  0  0  0  0  0  0  0  0
  -32.4200  -23.9778   17.7546 C   0  0  0  0  0  0  0  0  0  0  0  0
  -26.3438  -11.8031   20.8254 C   0  0  0  0  0  0  0  0  0  0  0  0
  -26.6357  -11.8159   18.4271 C   0  0  0  0  0  0  0  0  0  0  0  0
  -25.0956  -30.3303   20.6856 C   0  0  0  0  0  0  0  0  0  0  0  0
  -23.3478  -10.4715   20.0037 C   0  0  0  0  0  0  0  0  0  0  0  0
  -22.1860  -10.2413   20.7405 C   0  0  0  0  0  0  0  0  0  0  0  0
  -24.9726  -27.9362   20.4163 C   0  0  0  0  0  0  0  0  0  0  0  0
  -30.0798  -23.5168   18.1394 C   0  0  0  0  0  0  0  0  0  0  0  0
  -23.3072   -8.4819   21.9588 C   0  0  0  0  0  0  0  0  0  0  0  0
  -27.3515  -13.7126   19.7413 C   0  0  0  0  0  0  0  0  0  0  0  0
  -29.3080  -15.3310   19.9872 C   0  0  0  0  0  0  0  0  0  0  0  0
  -18.0350  -30.8688   24.1932 C   0  0  0  0  0  0  0  0  0  0  0  0
  -22.9945  -29.2857   20.0616 C   0  0  0  0  0  0  0  0  0  0  0  0
  -19.2698  -30.2453   23.9303 C   0  0  0  0  0  0  0  0  0  0  0  0
  -23.6136  -28.0277   20.0791 C   0  0  0  0  0  0  0  0  0  0  0  0
  -31.4900  -21.8396   17.1218 C   0  0  0  0  0  0  0  0  0  0  0  0
  -31.1699  -24.3832   18.2220 C   0  0  0  0  0  0  0  0  0  0  0  0
  -30.2399  -22.2450   17.5893 C   0  0  0  0  0  0  0  0  0  0  0  0
  -26.2026  -11.1751   19.5879 C   0  0  0  0  0  0  0  0  0  0  0  0
  -25.7087  -29.0813   20.7195 C   0  0  0  0  0  0  0  0  0  0  0  0
  -24.4893   -9.7068   20.2445 C   0  0  0  0  0  0  0  0  0  0  0  0
  -22.1657   -9.2465   21.7180 C   0  0  0  0  0  0  0  0  0  0  0  0
  -24.4690   -8.7120   21.2220 C   0  0  0  0  0  0  0  0  0  0  0  0
  -27.9445  -15.0235   19.8198 C   0  0  0  0  0  0  0  0  0  0  0  0
  -29.3514  -16.7038   19.9990 C   0  0  0  0  0  0  0  0  0  0  0  0
  -30.1211  -27.5373   19.7449 C   0  0  0  0  0  0  0  0  0  0  0  0
  -31.5163  -27.8207   19.5197 C   0  0  0  0  0  0  0  0  0  0  0  0
  -29.8005  -26.1622   19.2705 C   0  0  0  0  0  0  0  0  0  0  0  0
  -32.1931  -28.9384   19.8048 C   0  0  0  0  0  0  0  0  0  0  0  0
  -29.1764  -28.3139   20.2867 C   0  0  0  0  0  0  0  0  0  0  0  0
  -30.4346  -14.4542   20.1201 C   0  0  0  0  0  0  0  0  0  0  0  0
  -20.4537  -27.8778   21.3523 C   0  0  0  0  0  0  0  0  0  0  0  0
  -20.6889  -25.9488   18.7550 C   0  0  0  0  0  0  0  0  0  0  0  0
  -22.6502  -24.6328   16.2916 C   0  0  0  0  0  0  0  0  0  0  0  0
  -27.8184  -21.6435   17.9369 C   0  0  0  0  0  0  0  0  0  0  0  0
  -16.7248  -30.1477   23.9982 C   0  0  0  0  0  0  0  0  0  0  0  0
  -21.5455  -29.4164   19.6799 C   0  0  0  0  0  0  0  0  0  0  0  0
  -22.8568  -26.7669   19.7532 C   0  0  0  0  0  0  0  0  0  0  0  0
  -32.1150  -26.6024   18.8842 C   0  0  0  0  0  0  0  0  0  0  0  0
  -16.8363  -28.9117   23.1092 C   0  0  0  0  0  0  0  0  0  0  0  0
  -25.6227  -20.1149   20.2863 C   0  0  0  0  0  0  0  0  0  0  0  0
  -18.0361  -28.0645   23.5208 C   0  0  0  0  0  0  0  0  0  0  0  0
  -26.1432  -18.6794   20.3881 C   0  0  0  0  0  0  0  0  0  0  0  0
  -25.7333  -20.6587   18.8629 C   0  0  0  0  0  0  0  0  0  0  0  0
  -27.5885  -19.1172   18.3617 C   0  0  0  0  0  0  0  0  0  0  0  0
  -19.3452  -28.8463   23.3583 C   0  0  1  0  0  0  0  0  0  0  0  0
  -20.7511  -28.1330   19.9018 C   0  0  1  0  0  0  0  0  0  0  0  0
  -27.5576  -18.5490   19.7899 C   0  0  2  0  0  0  0  0  0  0  0  0
  -31.6908  -20.4833   16.5279 C   0  0  0  0  0  0  0  0  0  0  0  0
  -22.5697  -23.0568   14.3405 C   0  0  0  0  0  0  0  0  0  0  0  0
  -20.7018  -23.5765   20.6739 C   0  0  0  0  0  0  0  0  0  0  0  0
  -21.5639  -22.1558   18.8012 C   0  0  0  0  0  0  0  0  0  0  0  0
  -19.3267  -23.2429   18.6118 C   0  0  0  0  0  0  0  0  0  0  0  0
  -23.3974  -26.7701   14.3857 C   0  0  0  0  0  0  0  0  0  0  0  0
  -27.7544  -27.8956   20.4641 C   0  0  0  0  0  0  0  0  0  1  0  0
  -21.4125  -24.6615   18.4414 C   0  0  1  0  0  0  0  0  0  0  0  0
  -22.4349  -24.5019   14.7947 C   0  0  2  0  0  0  0  0  0  0  0  0
  -20.7653  -23.4325   19.1402 C   0  0  0  0  0  0  0  0  0  0  0  0
  -27.1771  -16.1132   19.7318 N   0  0  0  0  0  0  0  0  0  0  0  0
  -28.0615  -17.1189   19.8443 N   0  0  0  0  0  0  0  0  0  0  0  0
  -31.0107  -25.6518   18.7706 N   0  0  0  0  0  0  0  0  0  0  0  0
  -21.4408  -26.9461   19.3921 N   0  0  0  0  0  0  0  0  0  0  0  0
  -27.1016  -20.5056   18.3637 N   0  0  0  0  0  0  0  0  0  0  0  0
  -30.3667  -17.5842   20.1266 N   0  0  0  0  0  0  0  0  0  0  0  0
  -30.2123  -13.0709   20.0863 N   0  0  0  0  0  0  0  0  0  0  0  0
  -29.1206  -21.3794   17.5138 N   0  0  0  0  0  0  0  0  0  0  0  0
  -19.7392  -28.8887   21.9664 N   0  0  0  0  0  0  0  0  0  0  0  0
  -21.4612  -24.5646   16.9866 N   0  0  0  0  0  0  0  0  0  0  0  0
  -23.4342  -25.3226   14.0539 N   0  3  0  0  0  0  0  0  0  0  0  0
  -28.7075  -25.6236   19.3203 O   0  0  0  0  0  0  0  0  0  0  0  0
  -31.6018  -14.8847   20.2809 O   0  0  0  0  0  0  0  0  0  0  0  0
  -20.8424  -26.8400   21.8753 O   0  0  0  0  0  0  0  0  0  0  0  0
  -19.5023  -26.0678   18.4398 O   0  0  0  0  0  0  0  0  0  0  0  0
  -23.7623  -24.7771   16.7945 O   0  0  0  0  0  0  0  0  0  0  0  0
  -27.3234  -22.7730   17.9716 O   0  0  0  0  0  0  0  0  0  0  0  0
  -25.6423   -9.9370   19.5127 O   0  0  0  0  0  0  0  0  0  0  0  0
  -27.0265  -28.9778   21.0432 O   0  0  0  0  0  0  0  0  0  1  0  0
  -21.0504   -9.0267   22.4265 F   0  0  0  0  0  0  0  0  0  0  0  0
  -25.5629   -7.9749   21.4587 F   0  0  0  0  0  0  0  0  0  0  0  0
  1  2  1  0  0  0  0
  1  5  2  0  0  0  0
  2  6  2  0  0  0  0
  3 10  2  0  0  0  0
  3 18  1  0  0  0  0
  4 11  1  0  0  0  0
  4 18  2  0  0  0  0
  5 20  1  0  0  0  0
  6 22  1  0  0  0  0
  7 12  2  0  0  0  0
  7 21  1  0  0  0  0
  8  9  2  0  0  0  0
  8 24  1  0  0  0  0
  9 25  1  0  0  0  0
 10 27  1  0  0  0  0
 11 27  2  0  0  0  0
 12 28  1  0  0  0  0
 13 14  2  0  0  0  0
 13 29  1  0  0  0  0
 14 30  1  0  0  0  0
 15 23  1  0  0  0  0
 15 28  2  0  0  0  0
 16 25  2  0  0  0  0
 16 26  1  0  0  0  0
 17 30  2  0  0  0  0
 17 31  1  0  0  0  0
 18 32  1  0  0  0  0
 19 32  1  0  0  0  0
 19 33  2  0  0  0  0
 19 39  1  0  0  0  0
 20 22  2  0  0  0  0
 20 44  1  0  0  0  0
 21 23  2  0  0  0  0
 21 45  1  0  0  0  0
 22 54  1  0  0  0  0
 23 46  1  0  0  0  0
 24 26  2  0  0  0  0
 24 57  1  0  0  0  0
 25 69  1  0  0  0  0
 26 74  1  0  0  0  0
 27 84  1  0  0  0  0
 28 85  1  0  0  0  0
 29 31  2  0  0  0  0
 29 84  1  0  0  0  0
 30 86  1  0  0  0  0
 31 87  1  0  0  0  0
 32 67  2  0  0  0  0
 33 68  1  0  0  0  0
 33 72  1  0  0  0  0
 34 35  1  0  0  0  0
 34 36  1  0  0  0  0
 34 38  2  0  0  0  0
 35 37  2  0  0  0  0
 35 47  1  0  0  0  0
 36 69  1  0  0  0  0
 36 78  2  0  0  0  0
 38 63  1  0  0  0  0
 39 73  1  0  0  0  0
 39 79  2  0  0  0  0
 40 55  1  0  0  0  0
 40 75  1  0  0  0  0
 40 80  2  0  0  0  0
 41 64  1  0  0  0  0
 41 70  1  0  0  0  0
 41 81  2  0  0  0  0
 42 65  1  0  0  0  0
 42 76  1  0  0  0  0
 42 82  2  0  0  0  0
 43 71  1  0  0  0  0
 43 74  1  0  0  0  0
 43 83  2  0  0  0  0
 44 48  1  0  0  0  0
 45 55  1  0  0  0  0
 46 70  1  0  0  0  0
 47 69  1  0  0  0  0
 48 50  1  0  0  0  0
 49 51  1  0  0  0  0
 49 52  1  0  0  0  0
 50 54  1  0  0  0  0
 51 56  1  0  0  0  0
 52 71  1  0  0  0  0
 53 56  1  0  0  0  0
 53 71  1  0  0  0  0
 54 75  1  0  0  0  0
 55 70  1  0  0  0  0
 56 68  1  0  0  0  0
 58 65  1  0  0  0  0
 59 66  1  0  0  0  0
 60 66  1  0  0  0  0
 61 66  1  0  0  0  0
 62 77  1  0  0  0  0
 63 85  1  0  0  0  0
 64 66  1  0  0  0  0
 64 76  1  0  0  0  0
 65 77  1  0  0  0  0
 67 68  1  0  0  0  0
M  CHG  1  77   1
M  ISO  4  43 100  63 101  74 100  85 101
M  END
> <Batch ID>
0078

> <Smiles>
C=C1CN(c2ccc(C)c([100NH:0][100C:0](=O)N3CCCC(n4nc(-c5ccc(Oc6ccc(F)cc6F)cc5)c(C(N)=O)c4N)C3)c2)C(=O)C1=C[101CH2:1][101O:1]c1ccc2c(c1)CN(C(=O)C(NC(=O)C(C)NC)C(C)(C)C)C(C(=O)NC1CCCc3ccccc31)C2

> <Shape>
0.278

> <Color>
0.081

> <Negative vol penalty>
0.000

$$$$

  -OEChem-04042323563D

 83 91  0     1  0  0  0  0  0999 V2000
  -25.6290  -30.1241   30.0112 C   0  0  0  0  0  0  0  0  0  0  0  0
  -26.3334  -28.9338   29.8618 C   0  0  0  0  0  0  0  0  0  0  0  0
  -23.0753   -9.8688   19.9405 C   0  0  0  0  0  0  0  0  0  0  0  0
  -23.8349   -9.8748   22.2339 C   0  0  0  0  0  0  0  0  0  0  0  0
  -32.6536  -17.4886   23.4562 C   0  0  0  0  0  0  0  0  0  0  0  0
  -30.4705  -18.3389   24.0462 C   0  0  0  0  0  0  0  0  0  0  0  0
  -24.2426  -30.1355   29.8641 C   0  0  0  0  0  0  0  0  0  0  0  0
  -25.6517  -27.7539   29.5662 C   0  0  0  0  0  0  0  0  0  0  0  0
  -27.9238  -25.0554   25.9330 C   0  0  0  0  0  0  0  0  0  0  0  0
  -32.0650  -16.6051   22.5514 C   0  0  0  0  0  0  0  0  0  0  0  0
  -29.8819  -17.4554   23.1414 C   0  0  0  0  0  0  0  0  0  0  0  0
  -22.3309   -8.7159   20.1900 C   0  0  0  0  0  0  0  0  0  0  0  0
  -23.0905   -8.7219   22.4835 C   0  0  0  0  0  0  0  0  0  0  0  0
  -29.0425  -24.3086   26.2998 C   0  0  0  0  0  0  0  0  0  0  0  0
  -19.8619   -7.9253   23.0854 C   0  0  0  0  0  0  0  0  0  0  0  0
  -19.1048   -7.8853   24.2562 C   0  0  0  0  0  0  0  0  0  0  0  0
  -27.6755  -22.3238   26.4055 C   0  0  0  0  0  0  0  0  0  0  0  0
  -20.3453   -5.9472   24.9923 C   0  0  0  0  0  0  0  0  0  0  0  0
  -23.8274  -10.4482   20.9624 C   0  0  0  0  0  0  0  0  0  0  0  0
  -31.8563  -18.3555   24.2036 C   0  0  0  0  0  0  0  0  0  0  0  0
  -24.1703  -12.9733   20.8431 C   0  0  0  0  0  0  0  0  0  0  0  0
  -23.5445  -28.9569   29.5570 C   0  0  0  0  0  0  0  0  0  0  0  0
  -26.6683  -24.4430   25.8101 C   0  0  0  0  0  0  0  0  0  0  0  0
  -24.2545  -27.7492   29.4161 C   0  0  0  0  0  0  0  0  0  0  0  0
  -26.5429  -23.0646   26.0345 C   0  0  0  0  0  0  0  0  0  0  0  0
  -30.6792  -16.5885   22.3940 C   0  0  0  0  0  0  0  0  0  0  0  0
  -22.3385   -8.1424   21.4615 C   0  0  0  0  0  0  0  0  0  0  0  0
  -28.9179  -22.9432   26.5389 C   0  0  0  0  0  0  0  0  0  0  0  0
  -20.8607   -6.9761   22.8680 C   0  0  0  0  0  0  0  0  0  0  0  0
  -19.3465   -6.8963   25.2096 C   0  0  0  0  0  0  0  0  0  0  0  0
  -21.1024   -5.9871   23.8214 C   0  0  0  0  0  0  0  0  0  0  0  0
  -24.5970  -11.6389   20.7051 C   0  0  0  0  0  0  0  0  0  0  0  0
  -25.2628  -13.7224   20.4802 C   0  0  0  0  0  0  0  0  0  0  0  0
  -32.4803  -19.2921   25.1630 C   0  0  0  0  0  0  0  0  0  0  0  0
  -22.8999  -13.4895   21.2621 C   0  0  0  0  0  0  0  0  0  0  0  0
  -23.8593  -24.7745   27.2604 C   0  0  0  0  0  0  0  0  0  0  0  0
  -22.8826  -22.6622   25.0006 C   0  0  0  0  0  0  0  0  0  0  0  0
  -32.1721  -21.4828   26.2637 C   0  0  0  0  0  0  0  0  0  0  0  0
  -23.7037  -20.1798   22.8073 C   0  0  0  0  0  0  0  0  0  0  0  0
  -30.7294  -14.7656   20.6559 C   0  0  0  0  0  0  0  0  0  0  0  0
  -22.0407  -29.0098   29.4542 C   0  0  0  0  0  0  0  0  0  0  0  0
  -25.4765  -25.2575   25.3875 C   0  0  0  0  0  0  0  0  0  0  0  0
  -25.2213  -22.3556   25.8963 C   0  0  0  0  0  0  0  0  0  0  0  0
  -21.4336  -27.7870   28.7711 C   0  0  0  0  0  0  0  0  0  0  0  0
  -29.6143  -12.3530   18.2868 C   0  0  0  0  0  0  0  0  0  0  0  0
  -22.0428  -26.5054   29.3307 C   0  0  0  0  0  0  0  0  0  0  0  0
  -28.1744  -12.0619   18.7161 C   0  0  0  0  0  0  0  0  0  0  0  0
  -30.5293  -12.5810   19.4886 C   0  0  0  0  0  0  0  0  0  0  0  0
  -28.6225  -13.3059   20.8699 C   0  0  0  0  0  0  0  0  0  0  0  0
  -23.5532  -26.4534   29.0710 C   0  0  1  0  0  0  0  0  0  0  0  0
  -24.1478  -24.6271   25.7931 C   0  0  1  0  0  0  0  0  0  0  0  0
  -27.6497  -13.1334   19.6919 C   0  0  2  0  0  0  0  0  0  0  0  0
  -22.6851  -18.6210   21.1250 C   0  0  0  0  0  0  0  0  0  0  0  0
  -21.7896  -20.9352   27.2661 C   0  0  0  0  0  0  0  0  0  0  0  0
  -21.6597  -19.0245   25.6535 C   0  0  0  0  0  0  0  0  0  0  0  0
  -20.3065  -21.0824   25.2578 C   0  0  0  0  0  0  0  0  0  0  0  0
  -25.3229  -21.3131   20.6044 C   0  0  0  0  0  0  0  0  0  0  0  0
  -31.2743  -22.6499   26.4062 C   0  0  0  0  0  0  0  0  0  1  0  0
  -22.8088  -21.1574   24.9044 C   0  0  1  0  0  0  0  0  0  0  0  0
  -23.3517  -19.9700   21.3456 C   0  0  2  0  0  0  0  0  0  0  0  0
  -21.6658  -20.5633   25.7750 C   0  0  0  0  0  0  0  0  0  0  0  0
  -25.8618  -11.5426   20.2870 N   0  0  0  0  0  0  0  0  0  0  0  0
  -26.2393  -12.8261   20.1590 N   0  0  0  0  0  0  0  0  0  0  0  0
  -24.0841  -23.1965   25.4871 N   0  0  0  0  0  0  0  0  0  0  0  0
  -29.9707  -13.6119   20.3662 N   0  0  0  0  0  0  0  0  0  0  0  0
  -25.4738  -15.0538   20.4076 N   0  0  0  0  0  0  0  0  0  0  0  0
  -21.8876  -12.5807   21.5990 N   0  0  0  0  0  0  0  0  0  0  0  0
  -30.0823  -15.6907   21.4745 N   0  0  0  0  0  0  0  0  0  0  0  0
  -31.7610  -20.5117   25.4444 N   0  0  0  0  0  0  0  0  0  0  0  0
  -23.8173  -26.0850   27.6966 N   0  0  0  0  0  0  0  0  0  0  0  0
  -22.7023  -20.8439   23.4836 N   0  0  0  0  0  0  0  0  0  0  0  0
  -33.2969  -21.5111   26.9685 N   0  3  0  0  0  0  0  0  0  0  0  0
  -24.5796  -20.0308   20.5033 N   0  3  0  0  0  0  0  0  0  0  0  0
  -33.5627  -19.0619   25.6827 O   0  0  0  0  0  0  0  0  0  0  0  0
  -22.6642  -14.7202   21.3197 O   0  0  0  0  0  0  0  0  0  0  0  0
  -23.6861  -23.7734   27.9456 O   0  0  0  0  0  0  0  0  0  0  0  0
  -21.9127  -23.3389   24.6500 O   0  0  0  0  0  0  0  0  0  0  0  0
  -24.7597  -19.7899   23.3008 O   0  0  0  0  0  0  0  0  0  0  0  0
  -31.8586  -14.9340   20.1885 O   0  0  0  0  0  0  0  0  0  0  0  0
  -21.6120   -7.0176   21.7055 O   0  0  0  0  0  0  0  0  0  0  0  0
  -30.0082  -22.2120   26.8977 O   0  0  0  0  0  0  0  0  0  1  0  0
  -18.6204   -6.8590   26.3346 F   0  0  0  0  0  0  0  0  0  0  0  0
  -22.0614   -5.0733   23.6187 F   0  0  0  0  0  0  0  0  0  0  0  0
  1  2  1  0  0  0  0
  1  7  2  0  0  0  0
  2  8  2  0  0  0  0
  3 12  2  0  0  0  0
  3 19  1  0  0  0  0
  4 13  1  0  0  0  0
  4 19  2  0  0  0  0
  5 10  2  0  0  0  0
  5 20  1  0  0  0  0
  6 11  1  0  0  0  0
  6 20  2  0  0  0  0
  7 22  1  0  0  0  0
  8 24  1  0  0  0  0
  9 14  2  0  0  0  0
  9 23  1  0  0  0  0
 10 26  1  0  0  0  0
 11 26  2  0  0  0  0
 12 27  1  0  0  0  0
 13 27  2  0  0  0  0
 14 28  1  0  0  0  0
 15 16  2  0  0  0  0
 15 29  1  0  0  0  0
 16 30  1  0  0  0  0
 17 25  1  0  0  0  0
 17 28  2  0  0  0  0
 18 30  2  0  0  0  0
 18 31  1  0  0  0  0
 19 32  1  0  0  0  0
 20 34  1  0  0  0  0
 21 32  1  0  0  0  0
 21 33  2  0  0  0  0
 21 35  1  0  0  0  0
 22 24  2  0  0  0  0
 22 41  1  0  0  0  0
 23 25  2  0  0  0  0
 23 42  1  0  0  0  0
 24 50  1  0  0  0  0
 25 43  1  0  0  0  0
 26 68  1  0  0  0  0
 27 80  1  0  0  0  0
 28 81  1  0  0  0  0
 29 31  2  0  0  0  0
 29 80  1  0  0  0  0
 30 82  1  0  0  0  0
 31 83  1  0  0  0  0
 32 62  2  0  0  0  0
 33 63  1  0  0  0  0
 33 66  1  0  0  0  0
 34 69  1  0  0  0  0
 34 74  2  0  0  0  0
 35 67  1  0  0  0  0
 35 75  2  0  0  0  0
 36 51  1  0  0  0  0
 36 70  1  0  0  0  0
 36 76  2  0  0  0  0
 37 59  1  0  0  0  0
 37 64  1  0  0  0  0
 37 77  2  0  0  0  0
 38 58  1  0  0  0  0
 38 69  1  0  0  0  0
 38 72  2  0  0  0  0
 39 60  1  0  0  0  0
 39 71  1  0  0  0  0
 39 78  2  0  0  0  0
 40 65  1  0  0  0  0
 40 68  1  0  0  0  0
 40 79  2  0  0  0  0
 41 44  1  0  0  0  0
 42 51  1  0  0  0  0
 43 64  1  0  0  0  0
 44 46  1  0  0  0  0
 45 47  1  0  0  0  0
 45 48  1  0  0  0  0
 46 50  1  0  0  0  0
 47 52  1  0  0  0  0
 48 65  1  0  0  0  0
 49 52  1  0  0  0  0
 49 65  1  0  0  0  0
 50 70  1  0  0  0  0
 51 64  1  0  0  0  0
 52 63  1  0  0  0  0
 53 60  1  0  0  0  0
 54 61  1  0  0  0  0
 55 61  1  0  0  0  0
 56 61  1  0  0  0  0
 57 73  1  0  0  0  0
 58 81  1  0  0  0  0
 59 61  1  0  0  0  0
 59 71  1  0  0  0  0
 60 73  1  0  0  0  0
 62 63  1  0  0  0  0
M  CHG  2  72   1  73   1
M  ISO  4  40 100  58 101  68 100  81 101
M  END
> <Batch ID>
0078

> <Smiles>
CNC(C)C(=O)NC(C(=O)N1Cc2cc([101O:1][101CH2:1]C(N)=NC(=O)c3ccc([100NH:0][100C:0](=O)N4CCCC(n5nc(-c6ccc(Oc7ccc(F)cc7F)cc6)c(C(N)=O)c5N)C4)cc3)ccc2CC1C(=O)NC1CCCc2ccccc21)C(C)(C)C

> <Shape>
0.166

> <Color>
0.187

> <Negative vol penalty>
0.000

$$$$

  -OEChem-04042323563D

 89 98  0     1  0  0  0  0  0999 V2000
  -20.3342  -33.3201   24.7454 C   0  0  0  0  0  0  0  0  0  0  0  0
  -21.6228  -32.9380   24.3862 C   0  0  0  0  0  0  0  0  0  0  0  0
  -24.1886  -12.0007   22.1501 C   0  0  0  0  0  0  0  0  0  0  0  0
  -23.9988  -11.7508   19.7546 C   0  0  0  0  0  0  0  0  0  0  0  0
  -19.3165  -32.3689   24.8019 C   0  0  0  0  0  0  0  0  0  0  0  0
  -21.8945  -31.6040   24.0845 C   0  0  0  0  0  0  0  0  0  0  0  0
  -25.8705  -29.5065   19.9253 C   0  0  0  0  0  0  0  0  0  0  0  0
  -23.2922  -10.9475   22.3310 C   0  0  0  0  0  0  0  0  0  0  0  0
  -23.1024  -10.6975   19.9355 C   0  0  0  0  0  0  0  0  0  0  0  0
  -27.1763  -29.0301   20.0328 C   0  0  0  0  0  0  0  0  0  0  0  0
  -21.3319   -8.0886   23.4262 C   0  0  0  0  0  0  0  0  0  0  0  0
  -21.6485   -7.1248   24.3835 C   0  0  0  0  0  0  0  0  0  0  0  0
  -31.6925  -20.5746   16.7608 C   0  0  0  0  0  0  0  0  0  0  0  0
  -30.0949  -18.7710   16.5831 C   0  0  0  0  0  0  0  0  0  0  0  0
  -26.3391  -26.7690   20.1060 C   0  0  0  0  0  0  0  0  0  0  0  0
  -29.4441  -20.8658   17.5957 C   0  0  0  0  0  0  0  0  0  0  0  0
  -23.6815   -6.6038   23.1865 C   0  0  0  0  0  0  0  0  0  0  0  0
  -24.5418  -12.4025   20.8619 C   0  0  0  0  0  0  0  0  0  0  0  0
  -31.3769  -19.2751   16.3641 C   0  0  0  0  0  0  0  0  0  0  0  0
  -26.8688  -13.4069   20.5719 C   0  0  0  0  0  0  0  0  0  0  0  0
  -19.5738  -31.0243   24.4914 C   0  0  0  0  0  0  0  0  0  0  0  0
  -24.7866  -28.6168   19.9184 C   0  0  0  0  0  0  0  0  0  0  0  0
  -20.8796  -30.6336   24.1383 C   0  0  0  0  0  0  0  0  0  0  0  0
  -25.0206  -27.2364   19.9958 C   0  0  0  0  0  0  0  0  0  0  0  0
  -30.7261  -21.3699   17.3766 C   0  0  0  0  0  0  0  0  0  0  0  0
  -29.1285  -19.5663   17.1989 C   0  0  0  0  0  0  0  0  0  0  0  0
  -22.7492  -10.2958   21.2237 C   0  0  0  0  0  0  0  0  0  0  0  0
  -27.4106  -27.6614   20.1260 C   0  0  0  0  0  0  0  0  0  0  0  0
  -22.1900   -8.3100   22.3490 C   0  0  0  0  0  0  0  0  0  0  0  0
  -22.8233   -6.3824   24.2636 C   0  0  0  0  0  0  0  0  0  0  0  0
  -23.3648   -7.5676   22.2292 C   0  0  0  0  0  0  0  0  0  0  0  0
  -25.4673  -13.4908   20.6743 C   0  0  0  0  0  0  0  0  0  0  0  0
  -27.2791  -14.7067   20.4029 C   0  0  0  0  0  0  0  0  0  0  0  0
  -30.9273  -24.7998   18.6269 C   0  0  0  0  0  0  0  0  0  0  0  0
  -32.2711  -24.6353   18.1323 C   0  0  0  0  0  0  0  0  0  0  0  0
  -30.1473  -23.5514   18.3992 C   0  0  0  0  0  0  0  0  0  0  0  0
  -33.2756  -25.5180   18.1484 C   0  0  0  0  0  0  0  0  0  0  0  0
  -30.3657  -25.8621   19.2144 C   0  0  0  0  0  0  0  0  0  0  0  0
  -32.3844  -18.4461   15.7219 C   0  0  0  0  0  0  0  0  0  0  0  0
  -27.7233  -12.2568   20.6246 C   0  0  0  0  0  0  0  0  0  0  0  0
  -22.2678  -28.1352   21.7965 C   0  0  0  0  0  0  0  0  0  0  0  0
  -21.4281  -26.0320   19.4741 C   0  0  0  0  0  0  0  0  0  0  0  0
  -22.4072  -24.0063   16.9080 C   0  0  0  0  0  0  0  0  0  0  0  0
  -26.7507  -19.7106   18.0186 C   0  0  0  0  0  0  0  0  0  0  0  0
  -18.4518  -30.0237   24.6124 C   0  0  0  0  0  0  0  0  0  0  0  0
  -23.3856  -29.1450   19.7750 C   0  0  0  0  0  0  0  0  0  0  0  0
  -23.8928  -26.2384   19.9723 C   0  0  0  0  0  0  0  0  0  0  0  0
  -32.3657  -23.2491   17.5703 C   0  0  0  0  0  0  0  0  0  0  0  0
  -18.7406  -28.6973   23.9142 C   0  0  0  0  0  0  0  0  0  0  0  0
  -24.7293  -19.0538   20.8750 C   0  0  0  0  0  0  0  0  0  0  0  0
  -20.1432  -28.2069   24.2589 C   0  0  0  0  0  0  0  0  0  0  0  0
  -24.8564  -17.5410   21.0690 C   0  0  0  0  0  0  0  0  0  0  0  0
  -24.7009  -19.4355   19.3961 C   0  0  0  0  0  0  0  0  0  0  0  0
  -25.9412  -17.3947   18.7912 C   0  0  0  0  0  0  0  0  0  0  0  0
  -21.2084  -29.2006   23.7798 C   0  0  1  0  0  0  0  0  0  0  0  0
  -22.3263  -28.1785   20.2958 C   0  0  1  0  0  0  0  0  0  0  0  0
  -26.0393  -16.9671   20.2647 C   0  0  2  0  0  0  0  0  0  0  0  0
  -33.4356  -19.1398   14.9050 C   0  0  0  0  0  0  0  0  0  0  0  0
  -21.4996  -22.3824   15.2237 C   0  0  0  0  0  0  0  0  0  0  0  0
  -21.1647  -23.9176   21.6581 C   0  0  0  0  0  0  0  0  0  0  0  0
  -21.2013  -22.1659   19.8698 C   0  0  0  0  0  0  0  0  0  0  0  0
  -19.3656  -23.8541   19.9222 C   0  0  0  0  0  0  0  0  0  0  0  0
  -23.3214  -25.6709   14.6381 C   0  0  0  0  0  0  0  0  0  0  0  0
  -28.9496  -25.9027   19.6848 C   0  0  0  0  0  0  0  0  0  1  0  0
  -21.6855  -24.5673   19.2142 C   0  0  1  0  0  0  0  0  0  0  0  0
  -21.8673  -23.8320   15.4999 C   0  0  2  0  0  0  0  0  0  0  0  0
  -20.8756  -23.6449   20.1685 C   0  0  0  0  0  0  0  0  0  0  0  0
  -25.0174  -14.7448   20.5787 N   0  0  0  0  0  0  0  0  0  0  0  0
  -26.1428  -15.4608   20.4144 N   0  0  0  0  0  0  0  0  0  0  0  0
  -31.0408  -22.6661   17.7723 N   0  0  0  0  0  0  0  0  0  0  0  0
  -22.5405  -26.8045   19.8370 N   0  0  0  0  0  0  0  0  0  0  0  0
  -25.8535  -18.8605   18.6991 N   0  0  0  0  0  0  0  0  0  0  0  0
  -28.4976  -15.2667   20.2473 N   0  0  0  0  0  0  0  0  0  0  0  0
  -27.1369  -10.9964   20.8033 N   0  0  0  0  0  0  0  0  0  0  0  0
  -27.8262  -19.0541   17.4210 N   0  0  0  0  0  0  0  0  0  0  0  0
  -21.4162  -29.0701   22.3536 N   0  0  0  0  0  0  0  0  0  0  0  0
  -21.4115  -24.3497   17.7979 N   0  0  0  0  0  0  0  0  0  0  0  0
  -22.8855  -24.2576   14.4984 N   0  3  0  0  0  0  0  0  0  0  0  0
  -28.9807  -23.3694   18.7048 O   0  0  0  0  0  0  0  0  0  0  0  0
  -32.4380  -17.2165   15.7934 O   0  0  0  0  0  0  0  0  0  0  0  0
  -28.9711  -12.3459   20.5329 O   0  0  0  0  0  0  0  0  0  0  0  0
  -22.9439  -27.3134   22.4041 O   0  0  0  0  0  0  0  0  0  0  0  0
  -20.2837  -26.4758   19.3524 O   0  0  0  0  0  0  0  0  0  0  0  0
  -23.5929  -23.8496   17.1909 O   0  0  0  0  0  0  0  0  0  0  0  0
  -26.5926  -20.9338   17.9925 O   0  0  0  0  0  0  0  0  0  0  0  0
  -21.8747   -9.2678   21.3999 O   0  0  0  0  0  0  0  0  0  0  0  0
  -28.6842  -27.1938   20.2316 O   0  0  0  0  0  0  0  0  0  1  0  0
  -23.1280   -5.4580   25.1838 F   0  0  0  0  0  0  0  0  0  0  0  0
  -24.1937   -7.7767   21.1972 F   0  0  0  0  0  0  0  0  0  0  0  0
  1  2  1  0  0  0  0
  1  5  2  0  0  0  0
  2  6  2  0  0  0  0
  3  8  2  0  0  0  0
  3 18  1  0  0  0  0
  4  9  1  0  0  0  0
  4 18  2  0  0  0  0
  5 21  1  0  0  0  0
  6 23  1  0  0  0  0
  7 10  2  0  0  0  0
  7 22  1  0  0  0  0
  8 27  1  0  0  0  0
  9 27  2  0  0  0  0
 10 28  1  0  0  0  0
 11 12  2  0  0  0  0
 11 29  1  0  0  0  0
 12 30  1  0  0  0  0
 13 19  1  0  0  0  0
 13 25  2  0  0  0  0
 14 19  2  0  0  0  0
 14 26  1  0  0  0  0
 15 24  1  0  0  0  0
 15 28  2  0  0  0  0
 16 25  1  0  0  0  0
 16 26  2  0  0  0  0
 17 30  2  0  0  0  0
 17 31  1  0  0  0  0
 18 32  1  0  0  0  0
 19 39  1  0  0  0  0
 20 32  1  0  0  0  0
 20 33  2  0  0  0  0
 20 40  1  0  0  0  0
 21 23  2  0  0  0  0
 21 45  1  0  0  0  0
 22 24  2  0  0  0  0
 22 46  1  0  0  0  0
 23 55  1  0  0  0  0
 24 47  1  0  0  0  0
 25 70  1  0  0  0  0
 26 75  1  0  0  0  0
 27 86  1  0  0  0  0
 28 87  1  0  0  0  0
 29 31  2  0  0  0  0
 29 86  1  0  0  0  0
 30 88  1  0  0  0  0
 31 89  1  0  0  0  0
 32 68  2  0  0  0  0
 33 69  1  0  0  0  0
 33 73  1  0  0  0  0
 34 35  1  0  0  0  0
 34 36  1  0  0  0  0
 34 38  2  0  0  0  0
 35 37  2  0  0  0  0
 35 48  1  0  0  0  0
 36 70  1  0  0  0  0
 36 79  2  0  0  0  0
 38 64  1  0  0  0  0
 39 58  1  0  0  0  0
 39 80  2  0  0  0  0
 40 74  1  0  0  0  0
 40 81  2  0  0  0  0
 41 56  1  0  0  0  0
 41 76  1  0  0  0  0
 41 82  2  0  0  0  0
 42 65  1  0  0  0  0
 42 71  1  0  0  0  0
 42 83  2  0  0  0  0
 43 66  1  0  0  0  0
 43 77  1  0  0  0  0
 43 84  2  0  0  0  0
 44 72  1  0  0  0  0
 44 75  1  0  0  0  0
 44 85  2  0  0  0  0
 45 49  1  0  0  0  0
 46 56  1  0  0  0  0
 47 71  1  0  0  0  0
 48 70  1  0  0  0  0
 49 51  1  0  0  0  0
 50 52  1  0  0  0  0
 50 53  1  0  0  0  0
 51 55  1  0  0  0  0
 52 57  1  0  0  0  0
 53 72  1  0  0  0  0
 54 57  1  0  0  0  0
 54 72  1  0  0  0  0
 55 76  1  0  0  0  0
 56 71  1  0  0  0  0
 57 69  1  0  0  0  0
 59 66  1  0  0  0  0
 60 67  1  0  0  0  0
 61 67  1  0  0  0  0
 62 67  1  0  0  0  0
 63 78  1  0  0  0  0
 64 87  1  0  0  0  0
 65 67  1  0  0  0  0
 65 77  1  0  0  0  0
 66 78  1  0  0  0  0
 68 69  1  0  0  0  0
M  CHG  1  78   1
M  ISO  4  44 100  64 101  75 100  87 101
M  END
> <Batch ID>
0078

> <Smiles>
C=C1CN(c2cc([100NH:0][100C:0](=O)N3CCCC(n4nc(-c5ccc(Oc6ccc(F)cc6F)cc5)c(C(N)=O)c4N)C3)cc(C(C)=O)c2)C(=O)C1=C[101CH2:1][101O:1]c1ccc2c(c1)CN(C(=O)C(NC(=O)C(C)NC)C(C)(C)C)C(C(=O)NC1CCCc3ccccc31)C2

> <Shape>
0.241

> <Color>
0.081

> <Negative vol penalty>
0.000

$$$$

  -OEChem-04042323563D

 94103  0     1  0  0  0  0  0999 V2000
  -29.4470  -36.2007   18.1729 C   0  0  0  0  0  0  0  0  0  0  0  0
  -29.4147  -34.8156   18.0468 C   0  0  0  0  0  0  0  0  0  0  0  0
  -23.2048   -9.2328   19.8360 C   0  0  0  0  0  0  0  0  0  0  0  0
  -23.7968   -9.5022   22.1628 C   0  0  0  0  0  0  0  0  0  0  0  0
  -29.1073  -36.7971   19.3865 C   0  0  0  0  0  0  0  0  0  0  0  0
  -29.0436  -34.0261   19.1346 C   0  0  0  0  0  0  0  0  0  0  0  0
  -25.9250  -28.7581   18.9664 C   0  0  0  0  0  0  0  0  0  0  0  0
  -28.3011  -17.9452   20.1920 C   0  0  0  0  0  0  0  0  0  0  0  0
  -28.6786  -19.2496   19.8734 C   0  0  0  0  0  0  0  0  0  0  0  0
  -23.0621   -7.8591   20.0313 C   0  0  0  0  0  0  0  0  0  0  0  0
  -23.6540   -8.1285   22.3581 C   0  0  0  0  0  0  0  0  0  0  0  0
  -26.3313  -27.4255   19.0184 C   0  0  0  0  0  0  0  0  0  0  0  0
  -21.1286   -5.9253   22.7929 C   0  0  0  0  0  0  0  0  0  0  0  0
  -20.4332   -5.5021   23.9255 C   0  0  0  0  0  0  0  0  0  0  0  0
  -25.9018  -27.3934   21.3920 C   0  0  0  0  0  0  0  0  0  0  0  0
  -27.1642  -20.0984   21.5537 C   0  0  0  0  0  0  0  0  0  0  0  0
  -22.3963   -4.3185   24.6886 C   0  0  0  0  0  0  0  0  0  0  0  0
  -23.5723  -10.0544   20.9017 C   0  0  0  0  0  0  0  0  0  0  0  0
  -22.7260  -12.4601   20.8394 C   0  0  0  0  0  0  0  0  0  0  0  0
  -28.7225  -36.0150   20.4869 C   0  0  0  0  0  0  0  0  0  0  0  0
  -25.5137  -29.4227   20.1307 C   0  0  0  0  0  0  0  0  0  0  0  0
  -28.6997  -34.6125   20.3644 C   0  0  0  0  0  0  0  0  0  0  0  0
  -25.4883  -28.7337   21.3516 C   0  0  0  0  0  0  0  0  0  0  0  0
  -27.3551  -17.7173   21.1915 C   0  0  0  0  0  0  0  0  0  0  0  0
  -26.7867  -18.7939   21.8723 C   0  0  0  0  0  0  0  0  0  0  0  0
  -28.1102  -20.3262   20.5542 C   0  0  0  0  0  0  0  0  0  0  0  0
  -23.2866   -7.3070   21.2924 C   0  0  0  0  0  0  0  0  0  0  0  0
  -26.3225  -26.7437   20.2318 C   0  0  0  0  0  0  0  0  0  0  0  0
  -22.4579   -5.5450   22.6080 C   0  0  0  0  0  0  0  0  0  0  0  0
  -21.0671   -4.6988   24.8734 C   0  0  0  0  0  0  0  0  0  0  0  0
  -23.0918   -4.7416   23.5559 C   0  0  0  0  0  0  0  0  0  0  0  0
  -23.7204  -11.4734   20.7004 C   0  0  0  0  0  0  0  0  0  0  0  0
  -23.3668  -13.6378   20.5409 C   0  0  0  0  0  0  0  0  0  0  0  0
  -28.4889  -23.9050   19.9085 C   0  0  0  0  0  0  0  0  0  0  0  0
  -29.8010  -23.4431   19.5310 C   0  0  0  0  0  0  0  0  0  0  0  0
  -27.6564  -22.7541   20.3573 C   0  0  0  0  0  0  0  0  0  0  0  0
  -30.8349  -24.1599   19.0775 C   0  0  0  0  0  0  0  0  0  0  0  0
  -26.5715  -15.4152   25.3794 C   0  0  0  0  0  0  0  0  0  0  0  0
  -27.9947  -25.1429   19.8969 C   0  0  0  0  0  0  0  0  0  1  0  0
  -21.3465  -12.3244   21.2056 C   0  0  0  0  0  0  0  0  0  0  0  0
  -26.3387  -14.5091   24.4197 C   0  0  0  0  0  0  0  0  0  0  0  0
  -27.1787  -14.4221   23.1745 C   0  0  0  0  0  0  0  0  0  0  0  0
  -26.5528  -31.9477   21.7581 C   0  0  0  0  0  0  0  0  0  0  0  0
  -23.8564  -31.4513   23.4916 C   0  0  0  0  0  0  0  0  0  0  0  0
  -21.4386  -29.2780   24.5300 C   0  0  0  0  0  0  0  0  0  0  0  0
  -29.3646  -14.8698   20.7574 C   0  0  0  0  0  0  0  0  0  0  0  0
  -28.4096  -36.7026   21.7922 C   0  0  0  0  0  0  0  0  0  0  0  0
  -25.0529  -30.8525   20.0532 C   0  0  0  0  0  0  0  0  0  0  0  0
  -25.0362  -29.3958   22.6267 C   0  0  0  0  0  0  0  0  0  0  0  0
  -29.8209  -21.9588   19.7387 C   0  0  0  0  0  0  0  0  0  0  0  0
  -27.6660  -35.8137   22.7859 C   0  0  0  0  0  0  0  0  0  0  0  0
  -26.9893  -15.3955   17.9675 C   0  0  0  0  0  0  0  0  0  0  0  0
  -28.3237  -34.4400   22.8694 C   0  0  0  0  0  0  0  0  0  0  0  0
  -25.8300  -14.4723   18.3386 C   0  0  0  0  0  0  0  0  0  0  0  0
  -28.3173  -14.8896   18.5225 C   0  0  0  0  0  0  0  0  0  0  0  0
  -27.1446  -13.7259   20.3623 C   0  0  0  0  0  0  0  0  0  0  0  0
  -28.2785  -33.7234   21.5143 C   0  0  1  0  0  0  0  0  0  0  0  0
  -25.1426  -31.5824   21.3898 C   0  0  1  0  0  0  0  0  0  0  0  0
  -25.7849  -14.2318   19.8576 C   0  0  2  0  0  0  0  0  0  0  0  0
  -25.7736  -18.5739   22.9474 C   0  0  0  0  0  0  0  0  0  0  0  0
  -25.2046  -13.5308   24.5229 C   0  0  0  0  0  0  0  0  0  0  0  0
  -19.3890  -29.1541   25.9726 C   0  0  0  0  0  0  0  0  0  0  0  0
  -25.6160  -31.4114   25.9840 C   0  0  0  0  0  0  0  0  0  0  0  0
  -23.7125  -30.3616   27.2261 C   0  0  0  0  0  0  0  0  0  0  0  0
  -23.4562  -32.6435   26.2515 C   0  0  0  0  0  0  0  0  0  0  0  0
  -30.2789  -15.5275   22.9508 C   0  0  0  0  0  0  0  0  0  0  0  0
  -19.7234  -28.5476   22.2314 C   0  0  0  0  0  0  0  0  0  0  0  0
  -26.9662  -16.3120   21.5145 C   0  0  0  0  0  0  0  0  0  0  0  0
  -27.8404  -15.6772   22.6088 C   0  0  2  0  0  0  0  0  0  0  0  0
  -23.5058  -30.6373   24.7137 C   0  0  1  0  0  0  0  0  0  0  0  0
  -19.9260  -29.3987   24.5709 C   0  0  2  0  0  0  0  0  0  0  0  0
  -24.0830  -31.2513   26.0203 C   0  0  0  0  0  0  0  0  0  0  0  0
  -24.9030  -11.9801   20.3414 N   0  0  0  0  0  0  0  0  0  0  0  0
  -24.6557  -13.2980   20.2522 N   0  0  0  0  0  0  0  0  0  0  0  0
  -28.4879  -21.6274   20.2381 N   0  0  0  0  0  0  0  0  0  0  0  0
  -24.6011  -30.7966   22.5004 N   0  0  0  0  0  0  0  0  0  0  0  0
  -28.2339  -14.6282   19.9599 N   0  0  0  0  0  0  0  0  0  0  0  0
  -22.9477  -14.9204   20.4997 N   0  0  0  0  0  0  0  0  0  0  0  0
  -20.8509  -11.0422   21.4793 N   0  0  0  0  0  0  0  0  0  0  0  0
  -26.9600  -33.1768   21.2754 N   0  0  0  0  0  0  0  0  0  0  0  0
  -22.0534  -30.4992   24.7092 N   0  0  0  0  0  0  0  0  0  0  0  0
  -29.1385  -15.2546   22.0876 N   0  0  0  0  0  0  0  0  0  0  0  0
  -19.3022  -28.4077   23.6491 N   0  3  0  0  0  0  0  0  0  0  0  0
  -26.5003  -22.8125   20.7411 O   0  0  0  0  0  0  0  0  0  0  0  0
  -20.5720  -13.3089   21.2717 O   0  0  0  0  0  0  0  0  0  0  0  0
  -27.2944  -13.3320   22.6080 O   0  0  0  0  0  0  0  0  0  0  0  0
  -27.2214  -31.1725   22.4317 O   0  0  0  0  0  0  0  0  0  0  0  0
  -23.4771  -32.6227   23.4160 O   0  0  0  0  0  0  0  0  0  0  0  0
  -22.0171  -28.2071   24.3600 O   0  0  0  0  0  0  0  0  0  0  0  0
  -30.5106  -14.7579   20.3034 O   0  0  0  0  0  0  0  0  0  0  0  0
  -23.1472   -5.9666   21.4834 O   0  0  0  0  0  0  0  0  0  0  0  0
  -26.7192  -25.4431   20.2854 O   0  0  0  0  0  0  0  0  0  1  0  0
  -20.3996   -4.2938   25.9618 F   0  0  0  0  0  0  0  0  0  0  0  0
  -24.3690   -4.3741   23.3844 F   0  0  0  0  0  0  0  0  0  0  0  0
  1  2  1  0  0  0  0
  1  5  2  0  0  0  0
  2  6  2  0  0  0  0
  3 10  2  0  0  0  0
  3 18  1  0  0  0  0
  4 11  1  0  0  0  0
  4 18  2  0  0  0  0
  5 20  1  0  0  0  0
  6 22  1  0  0  0  0
  7 12  2  0  0  0  0
  7 21  1  0  0  0  0
  8  9  2  0  0  0  0
  8 24  1  0  0  0  0
  9 26  1  0  0  0  0
 10 27  1  0  0  0  0
 11 27  2  0  0  0  0
 12 28  1  0  0  0  0
 13 14  2  0  0  0  0
 13 29  1  0  0  0  0
 14 30  1  0  0  0  0
 15 23  1  0  0  0  0
 15 28  2  0  0  0  0
 16 25  1  0  0  0  0
 16 26  2  0  0  0  0
 17 30  2  0  0  0  0
 17 31  1  0  0  0  0
 18 32  1  0  0  0  0
 19 32  1  0  0  0  0
 19 33  2  0  0  0  0
 19 40  1  0  0  0  0
 20 22  2  0  0  0  0
 20 47  1  0  0  0  0
 21 23  2  0  0  0  0
 21 48  1  0  0  0  0
 22 57  1  0  0  0  0
 23 49  1  0  0  0  0
 24 25  2  0  0  0  0
 24 68  1  0  0  0  0
 25 60  1  0  0  0  0
 26 75  1  0  0  0  0
 27 91  1  0  0  0  0
 28 92  1  0  0  0  0
 29 31  2  0  0  0  0
 29 91  1  0  0  0  0
 30 93  1  0  0  0  0
 31 94  1  0  0  0  0
 32 73  2  0  0  0  0
 33 74  1  0  0  0  0
 33 78  1  0  0  0  0
 34 35  1  0  0  0  0
 34 36  1  0  0  0  0
 34 39  2  0  0  0  0
 35 37  2  0  0  0  0
 35 50  1  0  0  0  0
 36 75  1  0  0  0  0
 36 84  2  0  0  0  0
 38 41  2  0  0  0  0
 39 92  1  0  0  0  0
 40 79  1  0  0  0  0
 40 85  2  0  0  0  0
 41 42  1  0  0  0  0
 41 61  1  0  0  0  0
 42 69  1  0  0  0  0
 42 86  2  0  0  0  0
 43 58  1  0  0  0  0
 43 80  1  0  0  0  0
 43 87  2  0  0  0  0
 44 70  1  0  0  0  0
 44 76  1  0  0  0  0
 44 88  2  0  0  0  0
 45 71  1  0  0  0  0
 45 81  1  0  0  0  0
 45 89  2  0  0  0  0
 46 77  1  0  0  0  0
 46 82  1  0  0  0  0
 46 90  2  0  0  0  0
 47 51  1  0  0  0  0
 48 58  1  0  0  0  0
 49 76  1  0  0  0  0
 50 75  1  0  0  0  0
 51 53  1  0  0  0  0
 52 54  1  0  0  0  0
 52 55  1  0  0  0  0
 53 57  1  0  0  0  0
 54 59  1  0  0  0  0
 55 77  1  0  0  0  0
 56 59  1  0  0  0  0
 56 77  1  0  0  0  0
 57 80  1  0  0  0  0
 58 76  1  0  0  0  0
 59 74  1  0  0  0  0
 62 71  1  0  0  0  0
 63 72  1  0  0  0  0
 64 72  1  0  0  0  0
 65 72  1  0  0  0  0
 66 82  1  0  0  0  0
 67 83  1  0  0  0  0
 68 69  1  0  0  0  0
 69 82  1  0  0  0  0
 70 72  1  0  0  0  0
 70 81  1  0  0  0  0
 71 83  1  0  0  0  0
 73 74  1  0  0  0  0
M  CHG  1  83   1
M  ISO  4  39 101  46 100  82 100  92 101
M  END
> <Batch ID>
0078

> <Smiles>
C=C(C)C(=O)C(Cc1ccc(N2CC(=C)C(=[101CH:1][101O:1]c3ccc4c(c3)CN(C(=O)C(NC(=O)C(C)NC)C(C)(C)C)C(C(=O)NC3CCCc5ccccc53)C4)C2=O)cc1C)[100N:0](C)[100C:0](=O)N1CCCC(n2nc(-c3ccc(Oc4ccc(F)cc4F)cc3)c(C(N)=O)c2N)C1

> <Shape>
0.309

> <Color>
0.107

> <Negative vol penalty>
0.000

$$$$

  -OEChem-04042323563D

 84 93  0     1  0  0  0  0  0999 V2000
  -28.2142  -29.7924   10.8402 C   0  0  0  0  0  0  0  0  0  0  0  0
  -27.9480  -28.6001   11.5059 C   0  0  0  0  0  0  0  0  0  0  0  0
  -23.0138   -9.9441   19.9626 C   0  0  0  0  0  0  0  0  0  0  0  0
  -23.6457  -10.0146   22.2934 C   0  0  0  0  0  0  0  0  0  0  0  0
  -28.5849  -30.9254   11.5633 C   0  0  0  0  0  0  0  0  0  0  0  0
  -28.0534  -28.5399   12.8950 C   0  0  0  0  0  0  0  0  0  0  0  0
  -30.6571  -19.0718   22.9599 C   0  0  0  0  0  0  0  0  0  0  0  0
  -24.5999  -25.2177   16.7085 C   0  0  0  0  0  0  0  0  0  0  0  0
  -29.8763  -20.1711   22.5879 C   0  0  0  0  0  0  0  0  0  0  0  0
  -22.2241   -8.8215   20.2106 C   0  0  0  0  0  0  0  0  0  0  0  0
  -22.8560   -8.8919   22.5414 C   0  0  0  0  0  0  0  0  0  0  0  0
  -24.8063  -23.9864   17.3291 C   0  0  0  0  0  0  0  0  0  0  0  0
  -23.0806   -5.5450   22.1181 C   0  0  0  0  0  0  0  0  0  0  0  0
  -23.6255   -4.5305   22.9051 C   0  0  0  0  0  0  0  0  0  0  0  0
  -28.6777  -18.8344   20.9427 C   0  0  0  0  0  0  0  0  0  0  0  0
  -25.5813  -25.1221   19.3112 C   0  0  0  0  0  0  0  0  0  0  0  0
  -21.8382   -4.8124   24.5061 C   0  0  0  0  0  0  0  0  0  0  0  0
  -23.7247  -10.5407   21.0040 C   0  0  0  0  0  0  0  0  0  0  0  0
  -29.4603  -17.7646   21.3331 C   0  0  0  0  0  0  0  0  0  0  0  0
  -24.1458  -13.0496   20.8149 C   0  0  0  0  0  0  0  0  0  0  0  0
  -30.4350  -17.8668   22.3201 C   0  0  0  0  0  0  0  0  0  0  0  0
  -28.6855  -30.8815   12.9628 C   0  0  0  0  0  0  0  0  0  0  0  0
  -24.8935  -26.4122   17.3818 C   0  0  0  0  0  0  0  0  0  0  0  0
  -28.4271  -29.6730   13.6374 C   0  0  0  0  0  0  0  0  0  0  0  0
  -25.3754  -26.3673   18.6978 C   0  0  0  0  0  0  0  0  0  0  0  0
  -28.8949  -20.0530   21.5871 C   0  0  0  0  0  0  0  0  0  0  0  0
  -22.1451   -8.2953   21.5000 C   0  0  0  0  0  0  0  0  0  0  0  0
  -25.2998  -23.9384   18.6295 C   0  0  0  0  0  0  0  0  0  0  0  0
  -21.9146   -6.1934   22.5252 C   0  0  0  0  0  0  0  0  0  0  0  0
  -23.0043   -4.1641   24.0990 C   0  0  0  0  0  0  0  0  0  0  0  0
  -21.2934   -5.8270   23.7191 C   0  0  0  0  0  0  0  0  0  0  0  0
  -24.5410  -11.7001   20.7483 C   0  0  0  0  0  0  0  0  0  0  0  0
  -25.2776  -13.7555   20.4876 C   0  0  0  0  0  0  0  0  0  0  0  0
  -29.4540  -16.3880   20.8326 C   0  0  0  0  0  0  0  0  0  0  0  0
  -22.8696  -13.6145   21.1434 C   0  0  0  0  0  0  0  0  0  0  0  0
  -26.9045  -28.8254   16.8956 C   0  0  0  0  0  0  0  0  0  0  0  0
  -25.3485  -30.1213   19.4298 C   0  0  0  0  0  0  0  0  0  0  0  0
  -27.1161  -21.2529   20.2718 C   0  0  0  0  0  0  0  0  0  0  0  0
  -23.4821  -29.6287   22.2442 C   0  0  0  0  0  0  0  0  0  0  0  0
  -30.8556  -14.3537   21.3895 C   0  0  0  0  0  0  0  0  0  0  0  0
  -29.1356  -32.1195   13.6974 C   0  0  0  0  0  0  0  0  0  0  0  0
  -24.6401  -27.7329   16.7081 C   0  0  0  0  0  0  0  0  0  0  0  0
  -31.1212  -16.5619   22.5062 C   0  0  0  0  0  0  0  0  0  0  0  0
  -25.6871  -27.6215   19.4714 C   0  0  0  0  0  0  0  0  0  0  0  0
  -28.8602  -32.0712   15.1981 C   0  0  0  0  0  0  0  0  0  0  0  0
  -29.6968  -12.2425   18.5800 C   0  0  0  0  0  0  0  0  0  0  0  0
  -29.2941  -30.7285   15.7775 C   0  0  0  0  0  0  0  0  0  0  0  0
  -28.2412  -11.9632   18.9487 C   0  0  0  0  0  0  0  0  0  0  0  0
  -30.5600  -12.4723   19.8165 C   0  0  0  0  0  0  0  0  0  0  0  0
  -28.5875  -13.2672   21.0850 C   0  0  0  0  0  0  0  0  0  0  0  0
  -28.5065  -29.5745   15.1454 C   0  0  1  0  0  0  0  0  0  0  0  0
  -25.4591  -28.8742   17.3032 C   0  0  1  0  0  0  0  0  0  0  0  0
  -27.6866  -13.0744   19.8557 C   0  0  2  0  0  0  0  0  0  0  0  0
  -22.3924  -30.8772   24.1287 C   0  0  0  0  0  0  0  0  0  0  0  0
  -28.0742  -30.5115   20.7443 C   0  0  0  0  0  0  0  0  0  0  0  0
  -26.8952  -30.8532   22.9264 C   0  0  0  0  0  0  0  0  0  0  0  0
  -26.4927  -32.4271   21.0334 C   0  0  0  0  0  0  0  0  0  0  0  0
  -20.7903  -28.6649   21.4800 C   0  0  0  0  0  0  0  0  0  0  0  0
  -26.5396  -22.6548   20.2015 C   0  0  0  0  0  0  0  0  0  1  0  0
  -25.5335  -30.0903   20.9277 C   0  0  1  0  0  0  0  0  0  0  0  0
  -22.2086  -30.2918   22.7371 C   0  0  2  0  0  0  0  0  0  0  0  0
  -26.7450  -30.9467   21.3930 C   0  0  0  0  0  0  0  0  0  0  0  0
  -25.8238  -11.5548   20.4054 N   0  0  0  0  0  0  0  0  0  0  0  0
  -26.2443  -12.8222   20.2536 N   0  0  0  0  0  0  0  0  0  0  0  0
  -30.3861  -15.6607   21.6144 N   0  0  0  0  0  0  0  0  0  0  0  0
  -25.4286  -28.8882   18.7672 N   0  0  0  0  0  0  0  0  0  0  0  0
  -29.9876  -13.4929   20.6955 N   0  0  0  0  0  0  0  0  0  0  0  0
  -25.5303  -15.0772   20.3799 N   0  0  0  0  0  0  0  0  0  0  0  0
  -21.8146  -12.7460   21.4549 N   0  0  0  0  0  0  0  0  0  0  0  0
  -28.1326  -21.1678   21.2344 N   0  0  0  0  0  0  0  0  0  0  0  0
  -27.1799  -29.4945   15.7183 N   0  0  0  0  0  0  0  0  0  0  0  0
  -24.2571  -30.4974   21.5052 N   0  0  0  0  0  0  0  0  0  0  0  0
  -21.0953  -29.3024   22.7868 N   0  3  0  0  0  0  0  0  0  0  0  0
  -28.7576  -16.0224   19.9026 O   0  0  0  0  0  0  0  0  0  0  0  0
  -22.6664  -14.8524   21.1442 O   0  0  0  0  0  0  0  0  0  0  0  0
  -27.7104  -28.2264   17.5980 O   0  0  0  0  0  0  0  0  0  0  0  0
  -25.1334  -31.1988   18.8691 O   0  0  0  0  0  0  0  0  0  0  0  0
  -26.7023  -20.3512   19.5505 O   0  0  0  0  0  0  0  0  0  0  0  0
  -23.7633  -28.4585   22.4932 O   0  0  0  0  0  0  0  0  0  0  0  0
  -31.9898  -14.0112   21.7428 O   0  0  0  0  0  0  0  0  0  0  0  0
  -21.3744   -7.2000   21.7424 O   0  0  0  0  0  0  0  0  0  0  0  0
  -25.5049  -22.7254   19.2437 O   0  0  0  0  0  0  0  0  0  1  0  0
  -23.5268   -3.1887   24.8538 F   0  0  0  0  0  0  0  0  0  0  0  0
  -20.1723   -6.4454   24.1148 F   0  0  0  0  0  0  0  0  0  0  0  0
  1  2  1  0  0  0  0
  1  5  2  0  0  0  0
  2  6  2  0  0  0  0
  3 10  2  0  0  0  0
  3 18  1  0  0  0  0
  4 11  1  0  0  0  0
  4 18  2  0  0  0  0
  5 22  1  0  0  0  0
  6 24  1  0  0  0  0
  7  9  2  0  0  0  0
  7 21  1  0  0  0  0
  8 12  2  0  0  0  0
  8 23  1  0  0  0  0
  9 26  1  0  0  0  0
 10 27  1  0  0  0  0
 11 27  2  0  0  0  0
 12 28  1  0  0  0  0
 13 14  2  0  0  0  0
 13 29  1  0  0  0  0
 14 30  1  0  0  0  0
 15 19  1  0  0  0  0
 15 26  2  0  0  0  0
 16 25  1  0  0  0  0
 16 28  2  0  0  0  0
 17 30  2  0  0  0  0
 17 31  1  0  0  0  0
 18 32  1  0  0  0  0
 19 21  2  0  0  0  0
 19 34  1  0  0  0  0
 20 32  1  0  0  0  0
 20 33  2  0  0  0  0
 20 35  1  0  0  0  0
 21 43  1  0  0  0  0
 22 24  2  0  0  0  0
 22 41  1  0  0  0  0
 23 25  2  0  0  0  0
 23 42  1  0  0  0  0
 24 51  1  0  0  0  0
 25 44  1  0  0  0  0
 26 70  1  0  0  0  0
 27 81  1  0  0  0  0
 28 82  1  0  0  0  0
 29 31  2  0  0  0  0
 29 81  1  0  0  0  0
 30 83  1  0  0  0  0
 31 84  1  0  0  0  0
 32 63  2  0  0  0  0
 33 64  1  0  0  0  0
 33 68  1  0  0  0  0
 34 65  1  0  0  0  0
 34 74  2  0  0  0  0
 35 69  1  0  0  0  0
 35 75  2  0  0  0  0
 36 52  1  0  0  0  0
 36 71  1  0  0  0  0
 36 76  2  0  0  0  0
 37 60  1  0  0  0  0
 37 66  1  0  0  0  0
 37 77  2  0  0  0  0
 38 59  1  0  0  0  0
 38 70  1  0  0  0  0
 38 78  2  0  0  0  0
 39 61  1  0  0  0  0
 39 72  1  0  0  0  0
 39 79  2  0  0  0  0
 40 65  1  0  0  0  0
 40 67  1  0  0  0  0
 40 80  2  0  0  0  0
 41 45  1  0  0  0  0
 42 52  1  0  0  0  0
 43 65  1  0  0  0  0
 44 66  1  0  0  0  0
 45 47  1  0  0  0  0
 46 48  1  0  0  0  0
 46 49  1  0  0  0  0
 47 51  1  0  0  0  0
 48 53  1  0  0  0  0
 49 67  1  0  0  0  0
 50 53  1  0  0  0  0
 50 67  1  0  0  0  0
 51 71  1  0  0  0  0
 52 66  1  0  0  0  0
 53 64  1  0  0  0  0
 54 61  1  0  0  0  0
 55 62  1  0  0  0  0
 56 62  1  0  0  0  0
 57 62  1  0  0  0  0
 58 73  1  0  0  0  0
 59 82  1  0  0  0  0
 60 62  1  0  0  0  0
 60 72  1  0  0  0  0
 61 73  1  0  0  0  0
 63 64  1  0  0  0  0
M  CHG  1  73   1
M  ISO  4  40 100  59 101  65 100  82 101
M  END
> <Batch ID>
0078

> <Smiles>
CNC(C)C(=O)NC(C(=O)N1Cc2cc([101O:1][101CH2:1]C(=O)Nc3ccc4c(c3)C(=O)[100N:0]([100C:0](=O)N3CCCC(n5nc(-c6ccc(Oc7ccc(F)cc7F)cc6)c(C(N)=O)c5N)C3)C4)ccc2CC1C(=O)NC1CCCc2ccccc21)C(C)(C)C

> <Shape>
0.306

> <Color>
0.201

> <Negative vol penalty>
0.000

$$$$

  -OEChem-04042323563D

 86 95  0     1  0  0  0  0  0999 V2000
  -19.9447  -35.2540   17.9707 C   0  0  0  0  0  0  0  0  0  0  0  0
  -21.0039  -34.5202   17.4462 C   0  0  0  0  0  0  0  0  0  0  0  0
  -24.0081   -9.7105   21.3078 C   0  0  0  0  0  0  0  0  0  0  0  0
  -24.6697  -10.6984   23.4110 C   0  0  0  0  0  0  0  0  0  0  0  0
  -19.7044  -35.2448   19.3441 C   0  0  0  0  0  0  0  0  0  0  0  0
  -21.8242  -33.7777   18.2949 C   0  0  0  0  0  0  0  0  0  0  0  0
  -25.6697  -27.7363   18.4656 C   0  0  0  0  0  0  0  0  0  0  0  0
  -30.3125  -20.6262   19.2315 C   0  0  0  0  0  0  0  0  0  0  0  0
  -30.1441  -19.2422   19.2739 C   0  0  0  0  0  0  0  0  0  0  0  0
  -23.5738   -8.5686   21.9808 C   0  0  0  0  0  0  0  0  0  0  0  0
  -24.2353   -9.5564   24.0840 C   0  0  0  0  0  0  0  0  0  0  0  0
  -26.9540  -27.2852   18.7668 C   0  0  0  0  0  0  0  0  0  0  0  0
  -20.8805   -7.6165   23.7898 C   0  0  0  0  0  0  0  0  0  0  0  0
  -19.6439   -7.0821   23.4284 C   0  0  0  0  0  0  0  0  0  0  0  0
  -26.3955  -27.2808   21.1136 C   0  0  0  0  0  0  0  0  0  0  0  0
  -29.0184  -20.8457   21.2599 C   0  0  0  0  0  0  0  0  0  0  0  0
  -20.7191   -5.0060   22.8193 C   0  0  0  0  0  0  0  0  0  0  0  0
  -24.5562  -10.7754   22.0229 C   0  0  0  0  0  0  0  0  0  0  0  0
  -24.2497  -13.1038   21.0267 C   0  0  0  0  0  0  0  0  0  0  0  0
  -20.5162  -34.4941   20.2090 C   0  0  0  0  0  0  0  0  0  0  0  0
  -24.7405  -27.9739   19.4886 C   0  0  0  0  0  0  0  0  0  0  0  0
  -21.5953  -33.7596   19.6813 C   0  0  0  0  0  0  0  0  0  0  0  0
  -25.0992  -27.7325   20.8225 C   0  0  0  0  0  0  0  0  0  0  0  0
  -28.8500  -19.4617   21.3022 C   0  0  0  0  0  0  0  0  0  0  0  0
  -29.7497  -21.4280   20.2246 C   0  0  0  0  0  0  0  0  0  0  0  0
  -29.4128  -18.6600   20.3092 C   0  0  0  0  0  0  0  0  0  0  0  0
  -23.6874   -8.4915   23.3689 C   0  0  0  0  0  0  0  0  0  0  0  0
  -27.3181  -27.0602   20.0912 C   0  0  0  0  0  0  0  0  0  0  0  0
  -22.0365   -6.8457   23.6659 C   0  0  0  0  0  0  0  0  0  0  0  0
  -19.5631   -5.7768   22.9431 C   0  0  0  0  0  0  0  0  0  0  0  0
  -21.9558   -5.5405   23.1807 C   0  0  0  0  0  0  0  0  0  0  0  0
  -25.0056  -11.9551   21.3282 C   0  0  0  0  0  0  0  0  0  0  0  0
  -25.1267  -13.9278   20.3647 C   0  0  0  0  0  0  0  0  0  0  0  0
  -30.5754  -23.6133   19.3053 C   0  0  0  0  0  0  0  0  0  0  0  0
  -29.4859  -23.7985   21.0082 C   0  0  0  0  0  0  0  0  0  0  0  0
  -22.8775  -13.3995   21.3189 C   0  0  0  0  0  0  0  0  0  0  0  0
  -23.1653  -30.5268   20.5397 C   0  0  0  0  0  0  0  0  0  0  0  0
  -21.6878  -28.3503   22.4377 C   0  0  0  0  0  0  0  0  0  0  0  0
  -21.7897  -25.3070   23.9787 C   0  0  0  0  0  0  0  0  0  0  0  0
  -30.1406  -16.2931   19.8455 C   0  0  0  0  0  0  0  0  0  0  0  0
  -20.2463  -34.5529   21.6916 C   0  0  0  0  0  0  0  0  0  0  0  0
  -23.3506  -28.4348   19.1451 C   0  0  0  0  0  0  0  0  0  0  0  0
  -24.1323  -27.9528   21.9560 C   0  0  0  0  0  0  0  0  0  0  0  0
  -20.9335  -33.4413   22.4805 C   0  0  0  0  0  0  0  0  0  0  0  0
  -29.7492  -13.0134   18.5160 C   0  0  0  0  0  0  0  0  0  0  0  0
  -22.3899  -33.3023   22.0488 C   0  0  0  0  0  0  0  0  0  0  0  0
  -28.4181  -12.5402   19.1043 C   0  0  0  0  0  0  0  0  0  0  0  0
  -30.5385  -13.8633   19.5103 C   0  0  0  0  0  0  0  0  0  0  0  0
  -28.4682  -14.5222   20.6716 C   0  0  0  0  0  0  0  0  0  0  0  0
  -22.4922  -32.9220   20.5668 C   0  0  1  0  0  0  0  0  0  0  0  0
  -22.6496  -29.1352   20.3050 C   0  0  1  0  0  0  0  0  0  0  0  0
  -27.6083  -13.7165   19.6841 C   0  0  2  0  0  0  0  0  0  0  0  0
  -30.1739  -24.8655   20.1223 C   0  0  0  0  0  0  0  0  0  0  0  0
  -28.0637  -18.8647   22.4239 C   0  0  0  0  0  0  0  0  0  0  0  0
  -31.3358  -25.5926   20.7854 C   0  0  0  0  0  0  0  0  0  0  0  0
  -20.4508  -23.8200   25.4932 C   0  0  0  0  0  0  0  0  0  0  0  0
  -22.4429  -30.1009   24.8200 C   0  0  0  0  0  0  0  0  0  0  0  0
  -21.9462  -28.1567   26.3172 C   0  0  0  0  0  0  0  0  0  0  0  0
  -20.1336  -29.1458   24.9176 C   0  0  0  0  0  0  0  0  0  0  0  0
  -21.6396  -23.1687   21.9381 C   0  0  0  0  0  0  0  0  0  0  0  0
  -29.2232  -25.8093   19.4117 C   0  0  0  0  0  0  0  0  0  1  0  0
  -21.9478  -27.7770   23.8098 C   0  0  1  0  0  0  0  0  0  0  0  0
  -20.7748  -24.1804   24.0517 C   0  0  2  0  0  0  0  0  0  0  0  0
  -21.6367  -28.7927   24.9452 C   0  0  0  0  0  0  0  0  0  0  0  0
  -26.2657  -12.0382   20.8934 N   0  0  0  0  0  0  0  0  0  0  0  0
  -26.3084  -13.2490   20.3117 N   0  0  0  0  0  0  0  0  0  0  0  0
  -29.9180  -22.7919   20.1841 N   0  0  0  0  0  0  0  0  0  0  0  0
  -22.7872  -28.4098   21.5695 N   0  0  0  0  0  0  0  0  0  0  0  0
  -29.7093  -14.9603   20.0140 N   0  0  0  0  0  0  0  0  0  0  0  0
  -24.9946  -15.1597   19.8285 N   0  0  0  0  0  0  0  0  0  0  0  0
  -22.1194  -12.4418   22.0063 N   0  0  0  0  0  0  0  0  0  0  0  0
  -29.2545  -17.2521   20.3353 N   0  0  0  0  0  0  0  0  0  0  0  0
  -22.2108  -31.5140   20.3857 N   0  0  0  0  0  0  0  0  0  0  0  0
  -21.1787  -26.5397   23.8877 N   0  0  0  0  0  0  0  0  0  0  0  0
  -21.3011  -22.9641   23.3701 N   0  3  0  0  0  0  0  0  0  0  0  0
  -31.2089  -23.3955   18.2971 O   0  0  0  0  0  0  0  0  0  0  0  0
  -28.8255  -23.8005   22.0226 O   0  0  0  0  0  0  0  0  0  0  0  0
  -22.3351  -14.4741   20.9660 O   0  0  0  0  0  0  0  0  0  0  0  0
  -24.3418  -30.6925   20.8399 O   0  0  0  0  0  0  0  0  0  0  0  0
  -20.5496  -28.7247   22.1444 O   0  0  0  0  0  0  0  0  0  0  0  0
  -23.0031  -25.1131   24.0039 O   0  0  0  0  0  0  0  0  0  0  0  0
  -31.2039  -16.5649   19.2820 O   0  0  0  0  0  0  0  0  0  0  0  0
  -23.2634   -7.3775   24.0259 O   0  0  0  0  0  0  0  0  0  0  0  0
  -28.5712  -26.6205   20.3881 O   0  0  0  0  0  0  0  0  0  1  0  0
  -18.3753   -5.2632   22.5975 F   0  0  0  0  0  0  0  0  0  0  0  0
  -23.0627   -4.7948   23.0605 F   0  0  0  0  0  0  0  0  0  0  0  0
  1  2  1  0  0  0  0
  1  5  2  0  0  0  0
  2  6  2  0  0  0  0
  3 10  2  0  0  0  0
  3 18  1  0  0  0  0
  4 11  1  0  0  0  0
  4 18  2  0  0  0  0
  5 20  1  0  0  0  0
  6 22  1  0  0  0  0
  7 12  2  0  0  0  0
  7 21  1  0  0  0  0
  8  9  2  0  0  0  0
  8 25  1  0  0  0  0
  9 26  1  0  0  0  0
 10 27  1  0  0  0  0
 11 27  2  0  0  0  0
 12 28  1  0  0  0  0
 13 14  2  0  0  0  0
 13 29  1  0  0  0  0
 14 30  1  0  0  0  0
 15 23  1  0  0  0  0
 15 28  2  0  0  0  0
 16 24  1  0  0  0  0
 16 25  2  0  0  0  0
 17 30  2  0  0  0  0
 17 31  1  0  0  0  0
 18 32  1  0  0  0  0
 19 32  1  0  0  0  0
 19 33  2  0  0  0  0
 19 36  1  0  0  0  0
 20 22  2  0  0  0  0
 20 41  1  0  0  0  0
 21 23  2  0  0  0  0
 21 42  1  0  0  0  0
 22 50  1  0  0  0  0
 23 43  1  0  0  0  0
 24 26  2  0  0  0  0
 24 54  1  0  0  0  0
 25 67  1  0  0  0  0
 26 72  1  0  0  0  0
 27 83  1  0  0  0  0
 28 84  1  0  0  0  0
 29 31  2  0  0  0  0
 29 83  1  0  0  0  0
 30 85  1  0  0  0  0
 31 86  1  0  0  0  0
 32 65  2  0  0  0  0
 33 66  1  0  0  0  0
 33 70  1  0  0  0  0
 34 53  1  0  0  0  0
 34 67  1  0  0  0  0
 34 76  2  0  0  0  0
 35 53  1  0  0  0  0
 35 67  1  0  0  0  0
 35 77  2  0  0  0  0
 36 71  1  0  0  0  0
 36 78  2  0  0  0  0
 37 51  1  0  0  0  0
 37 73  1  0  0  0  0
 37 79  2  0  0  0  0
 38 62  1  0  0  0  0
 38 68  1  0  0  0  0
 38 80  2  0  0  0  0
 39 63  1  0  0  0  0
 39 74  1  0  0  0  0
 39 81  2  0  0  0  0
 40 69  1  0  0  0  0
 40 72  1  0  0  0  0
 40 82  2  0  0  0  0
 41 44  1  0  0  0  0
 42 51  1  0  0  0  0
 43 68  1  0  0  0  0
 44 46  1  0  0  0  0
 45 47  1  0  0  0  0
 45 48  1  0  0  0  0
 46 50  1  0  0  0  0
 47 52  1  0  0  0  0
 48 69  1  0  0  0  0
 49 52  1  0  0  0  0
 49 69  1  0  0  0  0
 50 73  1  0  0  0  0
 51 68  1  0  0  0  0
 52 66  1  0  0  0  0
 53 55  1  0  0  0  0
 53 61  1  0  0  0  0
 56 63  1  0  0  0  0
 57 64  1  0  0  0  0
 58 64  1  0  0  0  0
 59 64  1  0  0  0  0
 60 75  1  0  0  0  0
 61 84  1  0  0  0  0
 62 64  1  0  0  0  0
 62 74  1  0  0  0  0
 63 75  1  0  0  0  0
 65 66  1  0  0  0  0
M  CHG  1  75   1
M  ISO  4  40 100  61 101  72 100  84 101
M  END
> <Batch ID>
0078

> <Smiles>
CNC(C)C(=O)NC(C(=O)N1Cc2cc([101O:1][101CH2:1]C3(C)C(=O)N(c4ccc([100NH:0][100C:0](=O)N5CCCC(n6nc(-c7ccc(Oc8ccc(F)cc8F)cc7)c(C(N)=O)c6N)C5)c(C)c4)C3=O)ccc2CC1C(=O)NC1CCCc2ccccc21)C(C)(C)C

> <Shape>
0.306

> <Color>
0.131

> <Negative vol penalty>
0.000

$$$$

  -OEChem-04042323563D

 88 97  0     1  0  0  0  0  0999 V2000
  -26.6777  -31.6955   28.3113 C   0  0  0  0  0  0  0  0  0  0  0  0
  -26.9587  -30.7199   27.3601 C   0  0  0  0  0  0  0  0  0  0  0  0
  -32.4974  -18.4790   21.0422 C   0  0  0  0  0  0  0  0  0  0  0  0
  -23.1289   -9.8722   21.5989 C   0  0  0  0  0  0  0  0  0  0  0  0
  -23.8958  -10.9552   23.6178 C   0  0  0  0  0  0  0  0  0  0  0  0
  -25.3963  -32.2389   28.3934 C   0  0  0  0  0  0  0  0  0  0  0  0
  -25.9581  -30.2863   26.4912 C   0  0  0  0  0  0  0  0  0  0  0  0
  -27.5648  -29.9287   21.7021 C   0  0  0  0  0  0  0  0  0  0  0  0
  -31.6802  -19.5750   21.3186 C   0  0  0  0  0  0  0  0  0  0  0  0
  -31.9290  -17.2647   20.6571 C   0  0  0  0  0  0  0  0  0  0  0  0
  -22.4191   -8.9473   22.3646 C   0  0  0  0  0  0  0  0  0  0  0  0
  -23.1859  -10.0303   24.3836 C   0  0  0  0  0  0  0  0  0  0  0  0
  -28.3287  -28.8111   21.3685 C   0  0  0  0  0  0  0  0  0  0  0  0
  -23.0868   -6.1526   24.1446 C   0  0  0  0  0  0  0  0  0  0  0  0
  -23.1799   -4.8079   23.7859 C   0  0  0  0  0  0  0  0  0  0  0  0
  -26.3774  -27.7733   20.4018 C   0  0  0  0  0  0  0  0  0  0  0  0
  -20.7904   -4.7358   23.4357 C   0  0  0  0  0  0  0  0  0  0  0  0
  -23.8674  -10.8761   22.2255 C   0  0  0  0  0  0  0  0  0  0  0  0
  -24.1367  -13.0680   20.9485 C   0  0  0  0  0  0  0  0  0  0  0  0
  -24.3820  -31.8186   27.5186 C   0  0  0  0  0  0  0  0  0  0  0  0
  -26.1967  -29.9725   21.3972 C   0  0  0  0  0  0  0  0  0  0  0  0
  -24.6616  -30.8236   26.5625 C   0  0  0  0  0  0  0  0  0  0  0  0
  -25.5989  -28.8936   20.7302 C   0  0  0  0  0  0  0  0  0  0  0  0
  -30.2946  -19.4568   21.2101 C   0  0  0  0  0  0  0  0  0  0  0  0
  -30.5434  -17.1465   20.5486 C   0  0  0  0  0  0  0  0  0  0  0  0
  -22.4475   -9.0264   23.7569 C   0  0  0  0  0  0  0  0  0  0  0  0
  -27.7344  -27.7320   20.7209 C   0  0  0  0  0  0  0  0  0  0  0  0
  -21.8455   -6.7890   24.1489 C   0  0  0  0  0  0  0  0  0  0  0  0
  -22.0317   -4.0995   23.4315 C   0  0  0  0  0  0  0  0  0  0  0  0
  -20.6973   -6.0806   23.7944 C   0  0  0  0  0  0  0  0  0  0  0  0
  -29.7262  -18.2426   20.8251 C   0  0  0  0  0  0  0  0  0  0  0  0
  -24.6013  -11.8314   21.4351 C   0  0  0  0  0  0  0  0  0  0  0  0
  -25.2058  -13.5909   20.2629 C   0  0  0  0  0  0  0  0  0  0  0  0
  -28.6739  -22.6935   21.7252 C   0  0  0  0  0  0  0  0  0  0  0  0
  -27.6194  -21.8139   22.1632 C   0  0  0  0  0  0  0  0  0  0  0  0
  -29.8549  -21.8938   21.2957 C   0  0  0  0  0  0  0  0  0  0  0  0
  -26.4052  -22.1370   22.6211 C   0  0  0  0  0  0  0  0  0  0  0  0
  -28.6939  -24.0299   21.6714 C   0  0  0  0  0  0  0  0  0  0  0  0
  -22.8534  -13.6886   21.1025 C   0  0  0  0  0  0  0  0  0  0  0  0
  -23.5242  -30.1937   23.1038 C   0  0  0  0  0  0  0  0  0  0  0  0
  -22.1384  -30.4269   20.1802 C   0  0  0  0  0  0  0  0  0  0  0  0
  -22.3088  -29.7814   16.8334 C   0  0  0  0  0  0  0  0  0  0  0  0
  -30.6405  -14.7287   19.8477 C   0  0  0  0  0  0  0  0  0  0  0  0
  -22.9998  -32.4010   27.6766 C   0  0  0  0  0  0  0  0  0  0  0  0
  -25.3924  -31.1964   21.7398 C   0  0  0  0  0  0  0  0  0  0  0  0
  -24.1383  -28.8997   20.3625 C   0  0  0  0  0  0  0  0  0  0  0  0
  -28.1272  -20.4115   22.0153 C   0  0  0  0  0  0  0  0  0  0  0  0
  -22.0945  -32.1566   26.4720 C   0  0  0  0  0  0  0  0  0  0  0  0
  -29.5877  -11.4685   18.8785 C   0  0  0  0  0  0  0  0  0  0  0  0
  -22.1835  -30.7013   26.0239 C   0  0  0  0  0  0  0  0  0  0  0  0
  -28.1583  -11.3740   19.4172 C   0  0  0  0  0  0  0  0  0  0  0  0
  -30.4998  -12.2479   19.8242 C   0  0  0  0  0  0  0  0  0  0  0  0
  -28.5775  -13.4826   20.7458 C   0  0  0  0  0  0  0  0  0  0  0  0
  -23.6093  -30.3451   25.5859 C   0  0  1  0  0  0  0  0  0  0  0  0
  -23.8957  -30.9188   21.8413 C   0  0  1  0  0  0  0  0  0  0  0  0
  -27.6061  -12.7621   19.7966 C   0  0  2  0  0  0  0  0  0  0  0  0
  -21.0083  -30.0578   14.7051 C   0  0  0  0  0  0  0  0  0  0  0  0
  -20.3089  -28.1276   21.0024 C   0  0  0  0  0  0  0  0  0  0  0  0
  -19.7179  -27.8266   18.5882 C   0  0  0  0  0  0  0  0  0  0  0  0
  -19.1720  -29.9674   19.7466 C   0  0  0  0  0  0  0  0  0  0  0  0
  -24.4284  -31.4522   15.6189 C   0  0  0  0  0  0  0  0  0  0  0  0
  -29.8671  -24.8345   21.1902 C   0  0  0  0  0  0  0  0  0  0  0  0
  -29.5849  -26.3314   21.2405 C   0  0  0  0  0  0  0  0  0  1  0  0
  -21.5797  -29.4433   19.1804 C   0  0  1  0  0  0  0  0  0  0  0  0
  -22.0585  -30.6633   15.6234 C   0  0  2  0  0  0  0  0  0  0  0  0
  -20.2217  -28.8400   19.6379 C   0  0  0  0  0  0  0  0  0  0  0  0
  -25.8670  -11.5834   21.0880 N   0  0  0  0  0  0  0  0  0  0  0  0
  -26.2068  -12.6714   20.3759 N   0  0  0  0  0  0  0  0  0  0  0  0
  -29.4825  -20.5522   21.4864 N   0  0  0  0  0  0  0  0  0  0  0  0
  -23.3927  -30.1165   20.7243 N   0  0  0  0  0  0  0  0  0  0  0  0
  -29.9145  -13.5537   20.1358 N   0  0  0  0  0  0  0  0  0  0  0  0
  -25.3779  -14.7428   19.5805 N   0  0  0  0  0  0  0  0  0  0  0  0
  -21.8689  -13.0140   21.8374 N   0  0  0  0  0  0  0  0  0  0  0  0
  -29.9697  -15.9114   20.1573 N   0  0  0  0  0  0  0  0  0  0  0  0
  -23.8751  -30.8628   24.2608 N   0  0  0  0  0  0  0  0  0  0  0  0
  -21.5210  -30.1476   17.9041 N   0  0  0  0  0  0  0  0  0  0  0  0
  -23.3162  -30.8434   14.8446 N   0  3  0  0  0  0  0  0  0  0  0  0
  -30.9077  -22.3410   20.8726 O   0  0  0  0  0  0  0  0  0  0  0  0
  -22.5823  -14.8006   20.5894 O   0  0  0  0  0  0  0  0  0  0  0  0
  -22.9596  -29.1084   23.0334 O   0  0  0  0  0  0  0  0  0  0  0  0
  -21.4891  -31.4370   20.4624 O   0  0  0  0  0  0  0  0  0  0  0  0
  -23.1194  -28.8575   16.8280 O   0  0  0  0  0  0  0  0  0  0  0  0
  -31.7628  -14.6893   19.3369 O   0  0  0  0  0  0  0  0  0  0  0  0
  -21.7548   -8.1243   24.5044 O   0  0  0  0  0  0  0  0  0  0  0  0
  -28.4776  -26.6396   20.3948 O   0  0  0  0  0  0  0  0  0  1  0  0
  -22.1215   -2.8086   23.0856 F   0  0  0  0  0  0  0  0  0  0  0  0
  -19.5022   -6.6868   23.7956 F   0  0  0  0  0  0  0  0  0  0  0  0
  -28.3931  -18.1288   20.7216 F   0  0  0  0  0  0  0  0  0  0  0  0
  1  2  1  0  0  0  0
  1  6  2  0  0  0  0
  2  7  2  0  0  0  0
  3  9  2  0  0  0  0
  3 10  1  0  0  0  0
  4 11  2  0  0  0  0
  4 18  1  0  0  0  0
  5 12  1  0  0  0  0
  5 18  2  0  0  0  0
  6 20  1  0  0  0  0
  7 22  1  0  0  0  0
  8 13  2  0  0  0  0
  8 21  1  0  0  0  0
  9 24  1  0  0  0  0
 10 25  2  0  0  0  0
 11 26  1  0  0  0  0
 12 26  2  0  0  0  0
 13 27  1  0  0  0  0
 14 15  2  0  0  0  0
 14 28  1  0  0  0  0
 15 29  1  0  0  0  0
 16 23  1  0  0  0  0
 16 27  2  0  0  0  0
 17 29  2  0  0  0  0
 17 30  1  0  0  0  0
 18 32  1  0  0  0  0
 19 32  1  0  0  0  0
 19 33  2  0  0  0  0
 19 39  1  0  0  0  0
 20 22  2  0  0  0  0
 20 44  1  0  0  0  0
 21 23  2  0  0  0  0
 21 45  1  0  0  0  0
 22 54  1  0  0  0  0
 23 46  1  0  0  0  0
 24 31  2  0  0  0  0
 24 69  1  0  0  0  0
 25 31  1  0  0  0  0
 25 74  1  0  0  0  0
 26 84  1  0  0  0  0
 27 85  1  0  0  0  0
 28 30  2  0  0  0  0
 28 84  1  0  0  0  0
 29 86  1  0  0  0  0
 30 87  1  0  0  0  0
 31 88  1  0  0  0  0
 32 67  2  0  0  0  0
 33 68  1  0  0  0  0
 33 72  1  0  0  0  0
 34 35  1  0  0  0  0
 34 36  1  0  0  0  0
 34 38  2  0  0  0  0
 35 37  2  0  0  0  0
 35 47  1  0  0  0  0
 36 69  1  0  0  0  0
 36 78  2  0  0  0  0
 38 62  1  0  0  0  0
 39 73  1  0  0  0  0
 39 79  2  0  0  0  0
 40 55  1  0  0  0  0
 40 75  1  0  0  0  0
 40 80  2  0  0  0  0
 41 64  1  0  0  0  0
 41 70  1  0  0  0  0
 41 81  2  0  0  0  0
 42 65  1  0  0  0  0
 42 76  1  0  0  0  0
 42 82  2  0  0  0  0
 43 71  1  0  0  0  0
 43 74  1  0  0  0  0
 43 83  2  0  0  0  0
 44 48  1  0  0  0  0
 45 55  1  0  0  0  0
 46 70  1  0  0  0  0
 47 69  1  0  0  0  0
 48 50  1  0  0  0  0
 49 51  1  0  0  0  0
 49 52  1  0  0  0  0
 50 54  1  0  0  0  0
 51 56  1  0  0  0  0
 52 71  1  0  0  0  0
 53 56  1  0  0  0  0
 53 71  1  0  0  0  0
 54 75  1  0  0  0  0
 55 70  1  0  0  0  0
 56 68  1  0  0  0  0
 57 65  1  0  0  0  0
 58 66  1  0  0  0  0
 59 66  1  0  0  0  0
 60 66  1  0  0  0  0
 61 77  1  0  0  0  0
 62 63  1  0  0  0  0
 63 85  1  0  0  0  0
 64 66  1  0  0  0  0
 64 76  1  0  0  0  0
 65 77  1  0  0  0  0
 67 68  1  0  0  0  0
M  CHG  1  77   1
M  ISO  4  43 100  63 101  74 100  85 101
M  END
> <Batch ID>
0078

> <Smiles>
C=C1CN(c2cccc([100NH:0][100C:0](=O)N3CCCC(n4nc(-c5ccc(Oc6ccc(F)cc6F)cc5)c(C(N)=O)c4N)C3)c2F)C(=O)C1=CC[101CH2:1][101O:1]c1ccc2c(c1)CN(C(=O)C(NC(=O)C(C)NC)C(C)(C)C)C(C(=O)NC1CCCc3ccccc31)C2

> <Shape>
0.318

> <Color>
0.200

> <Negative vol penalty>
0.000

$$$$

  -OEChem-04042323563D

 88 97  0     1  0  0  0  0  0999 V2000
  -22.7924  -10.7112   19.4637 C   0  0  0  0  0  0  0  0  0  0  0  0
  -22.0744  -11.8642   19.7648 C   0  0  0  0  0  0  0  0  0  0  0  0
  -17.8642  -27.9328   22.6582 C   0  0  0  0  0  0  0  0  0  0  0  0
  -30.0275  -29.7467   22.4970 C   0  0  0  0  0  0  0  0  0  0  0  0
  -28.3894  -28.7083   23.9377 C   0  0  0  0  0  0  0  0  0  0  0  0
  -24.1624  -10.6586   19.7169 C   0  0  0  0  0  0  0  0  0  0  0  0
  -22.7259  -12.9648   20.3202 C   0  0  0  0  0  0  0  0  0  0  0  0
  -21.4677  -18.8753   19.3260 C   0  0  0  0  0  0  0  0  0  0  0  0
  -18.1036  -26.6517   23.1553 C   0  0  0  0  0  0  0  0  0  0  0  0
  -18.9345  -28.7648   22.3298 C   0  0  0  0  0  0  0  0  0  0  0  0
  -30.9598  -29.7145   23.5339 C   0  0  0  0  0  0  0  0  0  0  0  0
  -29.3218  -28.6761   24.9746 C   0  0  0  0  0  0  0  0  0  0  0  0
  -20.7347  -19.8133   20.0518 C   0  0  0  0  0  0  0  0  0  0  0  0
  -31.6364  -31.4881   26.3306 C   0  0  0  0  0  0  0  0  0  0  0  0
  -32.3936  -32.6376   26.5562 C   0  0  0  0  0  0  0  0  0  0  0  0
  -22.7716  -20.6063   21.0724 C   0  0  0  0  0  0  0  0  0  0  0  0
  -34.4177  -31.3862   26.1388 C   0  0  0  0  0  0  0  0  0  0  0  0
  -28.7422  -29.2436   22.6989 C   0  0  0  0  0  0  0  0  0  0  0  0
  -27.8870  -28.6610   20.3672 C   0  0  0  0  0  0  0  0  0  0  0  0
  -24.8329  -11.7626   20.2667 C   0  0  0  0  0  0  0  0  0  0  0  0
  -22.8592  -18.7884   19.4764 C   0  0  0  0  0  0  0  0  0  0  0  0
  -24.1060  -12.9264   20.5822 C   0  0  0  0  0  0  0  0  0  0  0  0
  -23.5202  -19.6681   20.3455 C   0  0  0  0  0  0  0  0  0  0  0  0
  -19.4134  -26.2026   23.3240 C   0  0  0  0  0  0  0  0  0  0  0  0
  -20.2443  -28.3157   22.4986 C   0  0  0  0  0  0  0  0  0  0  0  0
  -30.6070  -29.1792   24.7727 C   0  0  0  0  0  0  0  0  0  0  0  0
  -21.3863  -20.6770   20.9274 C   0  0  0  0  0  0  0  0  0  0  0  0
  -32.2699  -30.2876   26.0091 C   0  0  0  0  0  0  0  0  0  0  0  0
  -33.7843  -32.5866   26.4602 C   0  0  0  0  0  0  0  0  0  0  0  0
  -33.6605  -30.2366   25.9132 C   0  0  0  0  0  0  0  0  0  0  0  0
  -20.4837  -27.0346   22.9957 C   0  0  0  0  0  0  0  0  0  0  0  0
  -27.7784  -29.2771   21.6283 C   0  0  0  0  0  0  0  0  0  0  0  0
  -26.7197  -28.9903   19.7226 C   0  0  0  0  0  0  0  0  0  0  0  0
  -20.6433  -22.6139   25.2620 C   0  0  0  0  0  0  0  0  0  0  0  0
  -20.5977  -22.6104   23.7924 C   0  0  0  0  0  0  0  0  0  0  0  0
  -19.9967  -23.7336   25.9617 C   0  0  0  0  0  0  0  0  0  0  0  0
  -20.3715  -23.9239   23.0821 C   0  0  0  0  0  0  0  0  0  0  0  0
  -21.2541  -21.6225   25.9417 C   0  0  0  0  0  0  0  0  0  0  0  0
  -20.2471  -24.1265   27.2221 C   0  0  0  0  0  0  0  0  0  0  0  0
  -20.7247  -21.5312   23.0018 C   0  0  0  0  0  0  0  0  0  1  0  0
  -28.9481  -27.8625   19.8268 C   0  0  0  0  0  0  0  0  0  0  0  0
  -24.8711  -16.5398   20.4762 C   0  0  0  0  0  0  0  0  0  0  0  0
  -27.1186  -18.6725   19.5156 C   0  0  0  0  0  0  0  0  0  0  0  0
  -27.6154  -22.2409   19.7082 C   0  0  0  0  0  0  0  0  0  0  0  0
  -21.2619  -30.4620   21.6594 C   0  0  0  0  0  0  0  0  0  0  0  0
  -26.3060  -11.6418   20.5664 C   0  0  0  0  0  0  0  0  0  0  0  0
  -23.6385  -17.7890   18.6662 C   0  0  0  0  0  0  0  0  0  0  0  0
  -25.0147  -19.6290   20.5277 C   0  0  0  0  0  0  0  0  0  0  0  0
  -19.0064  -24.4778   25.0982 C   0  0  0  0  0  0  0  0  0  0  0  0
  -26.9904  -12.9846   20.8090 C   0  0  0  0  0  0  0  0  0  0  0  0
  -23.3712  -32.4099   19.5538 C   0  0  0  0  0  0  0  0  0  0  0  0
  -26.1607  -13.8427   21.7587 C   0  0  0  0  0  0  0  0  0  0  0  0
  -24.7495  -31.7677   19.7274 C   0  0  0  0  0  0  0  0  0  0  0  0
  -22.5781  -32.4121   20.8594 C   0  0  0  0  0  0  0  0  0  0  0  0
  -23.8338  -30.4609   21.6872 C   0  0  0  0  0  0  0  0  0  0  0  0
  -24.7817  -14.1498   21.1625 C   0  0  1  0  0  0  0  0  0  0  0  0
  -24.9908  -17.4446   19.2826 C   0  0  1  0  0  0  0  0  0  0  0  0
  -24.6446  -30.3771   20.3836 C   0  0  2  0  0  0  0  0  0  0  0  0
  -28.9040  -23.7917   18.2143 C   0  0  0  0  0  0  0  0  0  0  0  0
  -29.3952  -18.2220   21.4966 C   0  0  0  0  0  0  0  0  0  0  0  0
  -30.0059  -20.6361   21.2368 C   0  0  0  0  0  0  0  0  0  0  0  0
  -30.1101  -19.1063   19.2692 C   0  0  0  0  0  0  0  0  0  0  0  0
  -25.2522  -23.9672   19.2676 C   0  0  0  0  0  0  0  0  0  0  0  0
  -27.8567  -19.8154   20.1699 C   0  0  1  0  0  0  0  0  0  0  0  0
  -27.5330  -23.2330   18.5622 C   0  0  2  0  0  0  0  0  0  0  0  0
  -29.3158  -19.4375   20.5514 C   0  0  0  0  0  0  0  0  0  0  0  0
  -26.6327  -29.9472   21.7779 N   0  0  0  0  0  0  0  0  0  0  0  0
  -26.0107  -29.7542   20.6024 N   0  0  0  0  0  0  0  0  0  0  0  0
  -19.6570  -24.8780   23.8378 N   0  0  0  0  0  0  0  0  0  0  0  0
  -25.7319  -18.6301   19.7181 N   0  0  0  0  0  0  0  0  0  0  0  0
  -22.5170  -31.0609   21.4210 N   0  0  0  0  0  0  0  0  0  0  0  0
  -26.2409  -28.6982   18.4946 N   0  0  0  0  0  0  0  0  0  0  0  0
  -29.9772  -28.5051   19.1252 N   0  0  0  0  0  0  0  0  0  0  0  0
  -21.3290  -29.1638   22.1640 N   0  0  0  0  0  0  0  0  0  0  0  0
  -24.8833  -15.1935   20.1651 N   0  0  0  0  0  0  0  0  0  0  0  0
  -27.7523  -20.9462   19.2540 N   0  0  0  0  0  0  0  0  0  0  0  0
  -26.6403  -24.3701   18.9246 N   0  3  0  0  0  0  0  0  0  0  0  0
  -20.7788  -24.0750   21.9309 O   0  0  0  0  0  0  0  0  0  0  0  0
  -28.9740  -26.6142   19.9478 O   0  0  0  0  0  0  0  0  0  0  0  0
  -24.7762  -17.0270   21.5966 O   0  0  0  0  0  0  0  0  0  0  0  0
  -27.7482  -17.8518   18.8437 O   0  0  0  0  0  0  0  0  0  0  0  0
  -27.5671  -22.5808   20.8883 O   0  0  0  0  0  0  0  0  0  0  0  0
  -20.2054  -31.0470   21.4072 O   0  0  0  0  0  0  0  0  0  0  0  0
  -31.5167  -29.1474   25.7847 O   0  0  0  0  0  0  0  0  0  0  0  0
  -20.6732  -21.5930   21.6375 O   0  0  0  0  0  0  0  0  0  1  0  0
  -34.5112  -33.6909   26.6754 F   0  0  0  0  0  0  0  0  0  0  0  0
  -34.2746  -29.0865   25.6036 F   0  0  0  0  0  0  0  0  0  0  0  0
  -21.7438  -26.6028   23.1590 F   0  0  0  0  0  0  0  0  0  0  0  0
  1  2  1  0  0  0  0
  1  6  2  0  0  0  0
  2  7  2  0  0  0  0
  3  9  2  0  0  0  0
  3 10  1  0  0  0  0
  4 11  2  0  0  0  0
  4 18  1  0  0  0  0
  5 12  1  0  0  0  0
  5 18  2  0  0  0  0
  6 20  1  0  0  0  0
  7 22  1  0  0  0  0
  8 13  2  0  0  0  0
  8 21  1  0  0  0  0
  9 24  1  0  0  0  0
 10 25  2  0  0  0  0
 11 26  1  0  0  0  0
 12 26  2  0  0  0  0
 13 27  1  0  0  0  0
 14 15  2  0  0  0  0
 14 28  1  0  0  0  0
 15 29  1  0  0  0  0
 16 23  1  0  0  0  0
 16 27  2  0  0  0  0
 17 29  2  0  0  0  0
 17 30  1  0  0  0  0
 18 32  1  0  0  0  0
 19 32  1  0  0  0  0
 19 33  2  0  0  0  0
 19 41  1  0  0  0  0
 20 22  2  0  0  0  0
 20 46  1  0  0  0  0
 21 23  2  0  0  0  0
 21 47  1  0  0  0  0
 22 56  1  0  0  0  0
 23 48  1  0  0  0  0
 24 31  2  0  0  0  0
 24 69  1  0  0  0  0
 25 31  1  0  0  0  0
 25 74  1  0  0  0  0
 26 84  1  0  0  0  0
 27 85  1  0  0  0  0
 28 30  2  0  0  0  0
 28 84  1  0  0  0  0
 29 86  1  0  0  0  0
 30 87  1  0  0  0  0
 31 88  1  0  0  0  0
 32 67  2  0  0  0  0
 33 68  1  0  0  0  0
 33 72  1  0  0  0  0
 34 35  1  0  0  0  0
 34 36  1  0  0  0  0
 34 38  2  0  0  0  0
 35 37  1  0  0  0  0
 35 40  2  0  0  0  0
 36 39  2  0  0  0  0
 36 49  1  0  0  0  0
 37 69  1  0  0  0  0
 37 78  2  0  0  0  0
 40 85  1  0  0  0  0
 41 73  1  0  0  0  0
 41 79  2  0  0  0  0
 42 57  1  0  0  0  0
 42 75  1  0  0  0  0
 42 80  2  0  0  0  0
 43 64  1  0  0  0  0
 43 70  1  0  0  0  0
 43 81  2  0  0  0  0
 44 65  1  0  0  0  0
 44 76  1  0  0  0  0
 44 82  2  0  0  0  0
 45 71  1  0  0  0  0
 45 74  1  0  0  0  0
 45 83  2  0  0  0  0
 46 50  1  0  0  0  0
 47 57  1  0  0  0  0
 48 70  1  0  0  0  0
 49 69  1  0  0  0  0
 50 52  1  0  0  0  0
 51 53  1  0  0  0  0
 51 54  1  0  0  0  0
 52 56  1  0  0  0  0
 53 58  1  0  0  0  0
 54 71  1  0  0  0  0
 55 58  1  0  0  0  0
 55 71  1  0  0  0  0
 56 75  1  0  0  0  0
 57 70  1  0  0  0  0
 58 68  1  0  0  0  0
 59 65  1  0  0  0  0
 60 66  1  0  0  0  0
 61 66  1  0  0  0  0
 62 66  1  0  0  0  0
 63 77  1  0  0  0  0
 64 66  1  0  0  0  0
 64 76  1  0  0  0  0
 65 77  1  0  0  0  0
 67 68  1  0  0  0  0
M  CHG  1  77   1
M  ISO  4  40 101  45 100  74 100  85 101
M  END
> <Batch ID>
0078

> <Smiles>
C=C1CN(c2cccc([100NH:0][100C:0](=O)N3CCCC(n4nc(-c5ccc(Oc6ccc(F)cc6F)cc5)c(C(N)=O)c4N)C3)c2F)C(=O)C(=[101CH:1][101O:1]c2ccc3c(c2)CN(C(=O)C(NC(=O)C(C)NC)C(C)(C)C)C(C(=O)NC2CCCc4ccccc42)C3)C1=C

> <Shape>
0.217

> <Color>
0.081

> <Negative vol penalty>
0.000

$$$$

  -OEChem-04042323563D

 89 99  0     1  0  0  0  0  0999 V2000
  -29.8572  -20.1367   19.6234 C   0  0  0  0  0  0  0  0  0  0  0  0
  -29.7133  -20.8273   18.4254 C   0  0  0  0  0  0  0  0  0  0  0  0
  -25.4820  -16.0653   21.8654 C   0  0  0  0  0  0  0  0  0  0  0  0
  -25.5264  -17.7292   20.1142 C   0  0  0  0  0  0  0  0  0  0  0  0
  -28.9322  -20.3258   20.6480 C   0  0  0  0  0  0  0  0  0  0  0  0
  -28.6512  -21.7163   18.2560 C   0  0  0  0  0  0  0  0  0  0  0  0
  -25.0934  -28.2504   19.0395 C   0  0  0  0  0  0  0  0  0  0  0  0
  -18.1547  -28.0371   22.5861 C   0  0  0  0  0  0  0  0  0  0  0  0
  -19.2690  -28.6957   23.1137 C   0  0  0  0  0  0  0  0  0  0  0  0
  -26.0087  -15.1223   20.9828 C   0  0  0  0  0  0  0  0  0  0  0  0
  -26.0531  -16.7862   19.2316 C   0  0  0  0  0  0  0  0  0  0  0  0
  -24.6577  -29.0292   20.1107 C   0  0  0  0  0  0  0  0  0  0  0  0
  -29.0332  -14.3345   19.6927 C   0  0  0  0  0  0  0  0  0  0  0  0
  -30.0719  -13.5251   20.1527 C   0  0  0  0  0  0  0  0  0  0  0  0
  -20.7864  -26.9791   22.2447 C   0  0  0  0  0  0  0  0  0  0  0  0
  -26.8825  -28.9825   21.0419 C   0  0  0  0  0  0  0  0  0  0  0  0
  -28.7210  -11.5629   19.7506 C   0  0  0  0  0  0  0  0  0  0  0  0
  -25.2408  -17.3687   21.4311 C   0  0  0  0  0  0  0  0  0  0  0  0
  -25.2640  -18.7865   23.5517 C   0  0  0  0  0  0  0  0  0  0  0  0
  -27.8515  -21.2083   20.4856 C   0  0  0  0  0  0  0  0  0  0  0  0
  -26.4267  -27.8219   18.9670 C   0  0  0  0  0  0  0  0  0  0  0  0
  -27.7207  -21.9389   19.2871 C   0  0  0  0  0  0  0  0  0  0  0  0
  -19.6754  -26.3602   21.7383 C   0  0  0  0  0  0  0  0  0  0  0  0
  -27.3333  -28.2005   19.9674 C   0  0  0  0  0  0  0  0  0  0  0  0
  -18.4204  -26.8927   21.9024 C   0  0  0  0  0  0  0  0  0  0  0  0
  -20.5726  -28.1717   22.9459 C   0  0  0  0  0  0  0  0  0  0  0  0
  -26.2942  -15.4827   19.6659 C   0  0  0  0  0  0  0  0  0  0  0  0
  -25.5516  -29.3930   21.1135 C   0  0  0  0  0  0  0  0  0  0  0  0
  -27.8384  -13.7581   19.2616 C   0  0  0  0  0  0  0  0  0  0  0  0
  -29.9158  -12.1393   20.1817 C   0  0  0  0  0  0  0  0  0  0  0  0
  -27.6823  -12.3723   19.2906 C   0  0  0  0  0  0  0  0  0  0  0  0
  -24.6963  -18.3431   22.3422 C   0  0  0  0  0  0  0  0  0  0  0  0
  -24.3657  -19.7057   24.0360 C   0  0  0  0  0  0  0  0  0  0  0  0
  -25.0060  -29.9102   26.3475 C   0  0  0  0  0  0  0  0  0  0  0  0
  -26.4935  -18.4020   24.1810 C   0  0  0  0  0  0  0  0  0  0  0  0
  -23.0173  -28.5079   23.4305 C   0  0  0  0  0  0  0  0  0  0  0  0
  -27.8757  -24.9928   18.9452 C   0  0  0  0  0  0  0  0  0  0  0  0
  -30.5208  -26.7881   18.3947 C   0  0  0  0  0  0  0  0  0  0  0  0
  -32.0768  -29.8133   18.6652 C   0  0  0  0  0  0  0  0  0  0  0  0
  -20.4165  -23.1474   21.3293 C   0  0  0  0  0  0  0  0  0  0  0  0
  -26.8843  -21.3810   21.6301 C   0  0  0  0  0  0  0  0  0  0  0  0
  -26.8873  -27.0047   17.7913 C   0  0  0  0  0  0  0  0  0  0  0  0
  -28.7799  -27.7834   19.9258 C   0  0  0  0  0  0  0  0  0  0  0  0
  -26.3626  -30.0326   25.6964 C   0  0  0  0  0  0  0  0  0  0  0  0
  -23.9741  -29.0928   25.6053 C   0  0  0  0  0  0  0  0  0  0  0  0
  -25.5574  -21.9974   21.1992 C   0  0  0  0  0  0  0  0  0  0  0  0
  -26.2071  -30.4895   24.2565 C   0  0  0  0  0  0  0  0  0  0  0  0
  -19.7023  -20.7786   23.9691 C   0  0  0  0  0  0  0  0  0  0  0  0
  -25.8101  -23.2420   20.3615 C   0  0  0  0  0  0  0  0  0  0  0  0
  -20.9716  -19.9252   23.9609 C   0  0  0  0  0  0  0  0  0  0  0  0
  -19.2981  -21.1839   22.5544 C   0  0  0  0  0  0  0  0  0  0  0  0
  -21.6315  -21.0373   21.7784 C   0  0  0  0  0  0  0  0  0  0  0  0
  -26.5562  -22.8879   19.0688 C   0  0  1  0  0  0  0  0  0  0  0  0
  -19.0852  -25.2411   20.9409 C   0  0  2  0  0  0  0  0  0  0  0  0
  -23.8796  -29.5111   24.1393 C   0  0  1  0  0  0  0  0  0  0  0  0
  -28.1460  -26.1938   18.0836 C   0  0  1  0  0  0  0  0  0  0  0  0
  -22.1057  -20.6161   23.1811 C   0  0  2  0  0  0  0  0  0  0  0  0
  -25.2569  -29.5888   23.4658 C   0  0  1  0  0  0  0  0  0  1  0  0
  -34.2491  -30.9634   18.1595 C   0  0  0  0  0  0  0  0  0  0  0  0
  -31.8141  -25.3877   20.7772 C   0  0  0  0  0  0  0  0  0  0  0  0
  -33.5455  -27.1958   20.8112 C   0  0  0  0  0  0  0  0  0  0  0  0
  -33.3274  -25.7176   18.8137 C   0  0  0  0  0  0  0  0  0  0  0  0
  -30.7613  -31.7577   16.8630 C   0  0  0  0  0  0  0  0  0  0  0  0
  -31.5545  -27.4631   19.2635 C   0  0  1  0  0  0  0  0  0  0  0  0
  -32.8507  -30.6419   17.6557 C   0  0  2  0  0  0  0  0  0  0  0  0
  -32.5327  -26.4475   19.9185 C   0  0  0  0  0  0  0  0  0  0  0  0
  -23.5276  -18.9320   22.0747 N   0  0  0  0  0  0  0  0  0  0  0  0
  -23.3537  -19.7548   23.1229 N   0  0  0  0  0  0  0  0  0  0  0  0
  -17.8243  -25.8515   21.2948 N   0  0  0  0  0  0  0  0  0  0  0  0
  -29.1805  -26.9797   18.7591 N   0  0  0  0  0  0  0  0  0  0  0  0
  -20.4160  -21.8533   21.8737 N   0  0  0  0  0  0  0  0  0  0  0  0
  -24.3505  -20.4686   25.1496 N   0  0  0  0  0  0  0  0  0  0  0  0
  -27.2974  -17.4445   23.5476 N   0  0  0  0  0  0  0  0  0  0  0  0
  -21.6767  -28.8662   23.4947 N   0  0  0  0  0  0  0  0  0  0  0  0
  -26.9598  -24.1091   18.4071 N   0  0  0  0  0  0  0  0  0  0  0  0
  -32.2050  -28.4621   18.4225 N   0  0  0  0  0  0  0  0  0  0  0  0
  -19.2321  -23.8650   21.4584 N   0  0  0  0  0  0  0  0  0  0  0  0
  -32.1417  -31.9247   17.3862 N   0  3  0  0  0  0  0  0  0  0  0  0
  -24.7849  -30.3638   27.4692 O   0  0  0  0  0  0  0  0  0  0  0  0
  -26.8603  -18.8810   25.2809 O   0  0  0  0  0  0  0  0  0  0  0  0
  -23.5130  -27.5263   22.8868 O   0  0  0  0  0  0  0  0  0  0  0  0
  -28.4562  -24.8759   20.0180 O   0  0  0  0  0  0  0  0  0  0  0  0
  -30.8886  -26.1213   17.4243 O   0  0  0  0  0  0  0  0  0  0  0  0
  -31.4269  -30.3146   19.5800 O   0  0  0  0  0  0  0  0  0  0  0  0
  -21.4031  -23.6391   20.7702 O   0  0  0  0  0  0  0  0  0  0  0  0
  -26.8084  -14.5629   18.8044 O   0  0  0  0  0  0  0  0  0  0  0  0
  -25.1287  -30.1525   22.1605 O   0  0  0  0  0  0  0  0  0  1  0  0
  -30.9139  -11.3621   20.6220 F   0  0  0  0  0  0  0  0  0  0  0  0
  -26.5371  -11.8127   18.8766 F   0  0  0  0  0  0  0  0  0  0  0  0
  1  2  1  0  0  0  0
  1  5  2  0  0  0  0
  2  6  2  0  0  0  0
  3 10  2  0  0  0  0
  3 18  1  0  0  0  0
  4 11  1  0  0  0  0
  4 18  2  0  0  0  0
  5 20  1  0  0  0  0
  6 22  1  0  0  0  0
  7 12  2  0  0  0  0
  7 21  1  0  0  0  0
  8  9  2  0  0  0  0
  8 25  1  0  0  0  0
  9 26  1  0  0  0  0
 10 27  1  0  0  0  0
 11 27  2  0  0  0  0
 12 28  1  0  0  0  0
 13 14  2  0  0  0  0
 13 29  1  0  0  0  0
 14 30  1  0  0  0  0
 15 23  1  0  0  0  0
 15 26  2  0  0  0  0
 16 24  1  0  0  0  0
 16 28  2  0  0  0  0
 17 30  2  0  0  0  0
 17 31  1  0  0  0  0
 18 32  1  0  0  0  0
 19 32  1  0  0  0  0
 19 33  2  0  0  0  0
 19 35  1  0  0  0  0
 20 22  2  0  0  0  0
 20 41  1  0  0  0  0
 21 24  2  0  0  0  0
 21 42  1  0  0  0  0
 22 53  1  0  0  0  0
 23 25  2  0  0  0  0
 23 54  1  0  0  0  0
 24 43  1  0  0  0  0
 25 69  1  0  0  0  0
 26 74  1  0  0  0  0
 27 86  1  0  0  0  0
 28 87  1  0  0  0  0
 29 31  2  0  0  0  0
 29 86  1  0  0  0  0
 30 88  1  0  0  0  0
 31 89  1  0  0  0  0
 32 67  2  0  0  0  0
 33 68  1  0  0  0  0
 33 72  1  0  0  0  0
 34 44  1  0  0  0  0
 34 45  1  0  0  0  0
 34 79  2  0  0  0  0
 35 73  1  0  0  0  0
 35 80  2  0  0  0  0
 36 55  1  0  0  0  0
 36 74  1  0  0  0  0
 36 81  2  0  0  0  0
 37 56  1  0  0  0  0
 37 75  1  0  0  0  0
 37 82  2  0  0  0  0
 38 64  1  0  0  0  0
 38 70  1  0  0  0  0
 38 83  2  0  0  0  0
 39 65  1  0  0  0  0
 39 76  1  0  0  0  0
 39 84  2  0  0  0  0
 40 71  1  0  0  0  0
 40 77  1  0  0  0  0
 40 85  2  0  0  0  0
 41 46  1  0  0  0  0
 42 56  1  0  0  0  0
 43 70  1  0  0  0  0
 44 47  1  0  0  0  0
 45 55  1  0  0  0  0
 46 49  1  0  0  0  0
 47 58  1  0  0  0  0
 48 50  1  0  0  0  0
 48 51  1  0  0  0  0
 49 53  1  0  0  0  0
 50 57  1  0  0  0  0
 51 71  1  0  0  0  0
 52 57  1  0  0  0  0
 52 71  1  0  0  0  0
 53 75  1  0  0  0  0
 54 69  1  0  0  0  0
 54 77  1  0  0  0  0
 55 58  1  0  0  0  0
 56 70  1  0  0  0  0
 57 68  1  0  0  0  0
 58 87  1  0  0  0  0
 59 65  1  0  0  0  0
 60 66  1  0  0  0  0
 61 66  1  0  0  0  0
 62 66  1  0  0  0  0
 63 78  1  0  0  0  0
 64 66  1  0  0  0  0
 64 76  1  0  0  0  0
 65 78  1  0  0  0  0
 67 68  1  0  0  0  0
M  CHG  1  78   1
M  ISO  4  40 100  58 101  77 100  87 101
M  END
> <Batch ID>
0078

> <Smiles>
CNC(C)C(=O)NC(C(=O)N1Cc2cc([101O:1][101CH:1]3CCC(=O)CC3C(=O)Nc3ccc4c(c3)C([100NH:0][100C:0](=O)N3CCCC(n5nc(-c6ccc(Oc7ccc(F)cc7F)cc6)c(C(N)=O)c5N)C3)N4)ccc2CC1C(=O)NC1CCCc2ccccc21)C(C)(C)C

> <Shape>
0.239

> <Color>
0.056

> <Negative vol penalty>
0.000

$$$$

  -OEChem-04042323563D

 85 94  0     1  0  0  0  0  0999 V2000
  -17.0811  -26.8331   22.2952 C   0  0  0  0  0  0  0  0  0  0  0  0
  -18.3032  -26.2190   22.5497 C   0  0  0  0  0  0  0  0  0  0  0  0
  -24.2050   -9.5954   21.6056 C   0  0  0  0  0  0  0  0  0  0  0  0
  -24.6960  -10.7989   23.6422 C   0  0  0  0  0  0  0  0  0  0  0  0
  -17.0466  -28.1021   21.7185 C   0  0  0  0  0  0  0  0  0  0  0  0
  -19.4916  -26.8731   22.2267 C   0  0  0  0  0  0  0  0  0  0  0  0
  -24.7903  -26.6052   25.2857 C   0  0  0  0  0  0  0  0  0  0  0  0
  -30.8503  -20.4484   21.1428 C   0  0  0  0  0  0  0  0  0  0  0  0
  -30.6266  -19.1341   20.7325 C   0  0  0  0  0  0  0  0  0  0  0  0
  -23.7935   -8.4938   22.3558 C   0  0  0  0  0  0  0  0  0  0  0  0
  -24.2844   -9.6973   24.3924 C   0  0  0  0  0  0  0  0  0  0  0  0
  -25.9520  -25.8607   25.0861 C   0  0  0  0  0  0  0  0  0  0  0  0
  -21.0563   -7.5525   24.1034 C   0  0  0  0  0  0  0  0  0  0  0  0
  -19.8711   -6.9195   23.7290 C   0  0  0  0  0  0  0  0  0  0  0  0
  -26.9355  -27.7220   23.9083 C   0  0  0  0  0  0  0  0  0  0  0  0
  -28.4687  -20.7810   21.3760 C   0  0  0  0  0  0  0  0  0  0  0  0
  -21.0847   -4.8623   23.3653 C   0  0  0  0  0  0  0  0  0  0  0  0
  -24.6563  -10.7479   22.2488 C   0  0  0  0  0  0  0  0  0  0  0  0
  -24.2858  -12.9594   21.0324 C   0  0  0  0  0  0  0  0  0  0  0  0
  -18.2354  -28.7761   21.3972 C   0  0  0  0  0  0  0  0  0  0  0  0
  -24.6882  -27.9122   24.7878 C   0  0  0  0  0  0  0  0  0  0  0  0
  -19.4729  -28.1517   21.6440 C   0  0  0  0  0  0  0  0  0  0  0  0
  -25.7724  -28.4820   24.1051 C   0  0  0  0  0  0  0  0  0  0  0  0
  -29.7713  -21.2718   21.4646 C   0  0  0  0  0  0  0  0  0  0  0  0
  -29.3239  -18.6433   20.6438 C   0  0  0  0  0  0  0  0  0  0  0  0
  -23.8332   -8.5448   23.7491 C   0  0  0  0  0  0  0  0  0  0  0  0
  -27.0237  -26.4180   24.3948 C   0  0  0  0  0  0  0  0  0  0  0  0
  -22.2557   -6.8404   24.1087 C   0  0  0  0  0  0  0  0  0  0  0  0
  -19.8853   -5.5744   23.3599 C   0  0  0  0  0  0  0  0  0  0  0  0
  -28.2449  -19.4667   20.9656 C   0  0  0  0  0  0  0  0  0  0  0  0
  -22.2700   -5.4954   23.7397 C   0  0  0  0  0  0  0  0  0  0  0  0
  -25.0821  -11.8860   21.4745 C   0  0  0  0  0  0  0  0  0  0  0  0
  -25.1545  -13.7709   20.3444 C   0  0  0  0  0  0  0  0  0  0  0  0
  -30.9634  -24.5614   22.4566 C   0  0  0  0  0  0  0  0  0  0  0  0
  -29.6499  -24.7578   22.5895 C   0  0  0  0  0  0  0  0  0  0  0  0
  -28.9819  -23.4881   22.2178 C   0  0  0  0  0  0  0  0  0  0  0  0
  -22.8860  -13.2014   21.2263 C   0  0  0  0  0  0  0  0  0  0  0  0
  -22.8018  -29.3708   22.6860 C   0  0  0  0  0  0  0  0  0  0  0  0
  -24.3772  -32.0198   23.6975 C   0  0  0  0  0  0  0  0  0  0  0  0
  -27.1749  -33.3607   25.1193 C   0  0  0  0  0  0  0  0  0  0  0  0
  -30.0603  -16.3616   19.8706 C   0  0  0  0  0  0  0  0  0  0  0  0
  -18.1469  -30.1267   20.7318 C   0  0  0  0  0  0  0  0  0  0  0  0
  -23.4383  -28.7116   25.0346 C   0  0  0  0  0  0  0  0  0  0  0  0
  -25.7208  -29.8882   23.5681 C   0  0  0  0  0  0  0  0  0  0  0  0
  -31.3013  -23.1897   21.9982 C   0  0  0  0  0  0  0  0  0  0  0  0
  -19.4576  -30.9086   20.7641 C   0  0  0  0  0  0  0  0  0  0  0  0
  -29.9143  -12.9615   18.8241 C   0  0  0  0  0  0  0  0  0  0  0  0
  -20.6235  -30.0132   20.3569 C   0  0  0  0  0  0  0  0  0  0  0  0
  -28.5786  -12.4669   19.3839 C   0  0  0  0  0  0  0  0  0  0  0  0
  -30.6017  -13.9382   19.7766 C   0  0  0  0  0  0  0  0  0  0  0  0
  -28.4384  -14.5777   20.7666 C   0  0  0  0  0  0  0  0  0  0  0  0
  -20.7840  -28.8395   21.3305 C   0  0  1  0  0  0  0  0  0  0  0  0
  -23.2507  -29.8506   24.0372 C   0  0  1  0  0  0  0  0  0  0  0  0
  -27.6779  -13.6416   19.8132 C   0  0  2  0  0  0  0  0  0  0  0  0
  -28.1876  -35.5592   25.7813 C   0  0  0  0  0  0  0  0  0  0  0  0
  -25.0204  -32.6016   20.7721 C   0  0  0  0  0  0  0  0  0  0  0  0
  -26.7771  -34.2070   21.5501 C   0  0  0  0  0  0  0  0  0  0  0  0
  -24.3820  -34.6096   22.1192 C   0  0  0  0  0  0  0  0  0  0  0  0
  -27.2978  -32.5774   27.9706 C   0  0  0  0  0  0  0  0  0  0  0  0
  -28.9116  -25.9730   23.0187 C   0  0  0  0  0  0  0  0  0  1  0  0
  -25.6339  -32.7424   23.2761 C   0  0  1  0  0  0  0  0  0  0  0  0
  -27.3505  -34.3739   26.2360 C   0  0  2  0  0  0  0  0  0  0  0  0
  -25.4539  -33.5129   21.9377 C   0  0  0  0  0  0  0  0  0  0  0  0
  -26.3586  -12.0020   21.0988 N   0  0  0  0  0  0  0  0  0  0  0  0
  -26.3710  -13.1579   20.4133 N   0  0  0  0  0  0  0  0  0  0  0  0
  -29.9939  -22.5812   21.8728 N   0  0  0  0  0  0  0  0  0  0  0  0
  -24.4746  -30.6273   23.8295 N   0  0  0  0  0  0  0  0  0  0  0  0
  -29.6899  -15.0263   20.1364 N   0  0  0  0  0  0  0  0  0  0  0  0
  -24.9889  -14.9418   19.6933 N   0  0  0  0  0  0  0  0  0  0  0  0
  -22.1413  -12.2661   21.9577 N   0  0  0  0  0  0  0  0  0  0  0  0
  -29.0998  -17.3080   20.2262 N   0  0  0  0  0  0  0  0  0  0  0  0
  -21.4298  -29.2782   22.5490 N   0  0  0  0  0  0  0  0  0  0  0  0
  -26.0178  -33.5849   24.4036 N   0  0  0  0  0  0  0  0  0  0  0  0
  -28.0248  -33.7435   27.4060 N   0  3  0  0  0  0  0  0  0  0  0  0
  -27.7734  -23.3166   22.2273 O   0  0  0  0  0  0  0  0  0  0  0  0
  -22.3092  -14.2087   20.7507 O   0  0  0  0  0  0  0  0  0  0  0  0
  -23.6381  -29.1056   21.8304 O   0  0  0  0  0  0  0  0  0  0  0  0
  -23.3490  -32.6676   23.9088 O   0  0  0  0  0  0  0  0  0  0  0  0
  -27.9852  -32.4627   24.9011 O   0  0  0  0  0  0  0  0  0  0  0  0
  -31.1379  -16.6428   19.3400 O   0  0  0  0  0  0  0  0  0  0  0  0
  -23.4314   -7.4701   24.4815 O   0  0  0  0  0  0  0  0  0  0  0  0
  -28.1585  -25.6932   24.1981 O   0  0  0  0  0  0  0  0  0  1  0  0
  -18.7468   -4.9662   23.0019 F   0  0  0  0  0  0  0  0  0  0  0  0
  -26.9885  -19.0062   20.8826 F   0  0  0  0  0  0  0  0  0  0  0  0
  -23.4190   -4.8058   23.7439 F   0  0  0  0  0  0  0  0  0  0  0  0
  1  2  1  0  0  0  0
  1  5  2  0  0  0  0
  2  6  2  0  0  0  0
  3 10  2  0  0  0  0
  3 18  1  0  0  0  0
  4 11  1  0  0  0  0
  4 18  2  0  0  0  0
  5 20  1  0  0  0  0
  6 22  1  0  0  0  0
  7 12  2  0  0  0  0
  7 21  1  0  0  0  0
  8  9  2  0  0  0  0
  8 24  1  0  0  0  0
  9 25  1  0  0  0  0
 10 26  1  0  0  0  0
 11 26  2  0  0  0  0
 12 27  1  0  0  0  0
 13 14  2  0  0  0  0
 13 28  1  0  0  0  0
 14 29  1  0  0  0  0
 15 23  1  0  0  0  0
 15 27  2  0  0  0  0
 16 24  2  0  0  0  0
 16 30  1  0  0  0  0
 17 29  2  0  0  0  0
 17 31  1  0  0  0  0
 18 32  1  0  0  0  0
 19 32  1  0  0  0  0
 19 33  2  0  0  0  0
 19 37  1  0  0  0  0
 20 22  2  0  0  0  0
 20 42  1  0  0  0  0
 21 23  2  0  0  0  0
 21 43  1  0  0  0  0
 22 52  1  0  0  0  0
 23 44  1  0  0  0  0
 24 66  1  0  0  0  0
 25 30  2  0  0  0  0
 25 71  1  0  0  0  0
 26 81  1  0  0  0  0
 27 82  1  0  0  0  0
 28 31  2  0  0  0  0
 28 81  1  0  0  0  0
 29 83  1  0  0  0  0
 30 84  1  0  0  0  0
 31 85  1  0  0  0  0
 32 64  2  0  0  0  0
 33 65  1  0  0  0  0
 33 69  1  0  0  0  0
 34 35  2  0  0  0  0
 34 45  1  0  0  0  0
 35 36  1  0  0  0  0
 35 60  1  0  0  0  0
 36 66  1  0  0  0  0
 36 75  2  0  0  0  0
 37 70  1  0  0  0  0
 37 76  2  0  0  0  0
 38 53  1  0  0  0  0
 38 72  1  0  0  0  0
 38 77  2  0  0  0  0
 39 61  1  0  0  0  0
 39 67  1  0  0  0  0
 39 78  2  0  0  0  0
 40 62  1  0  0  0  0
 40 73  1  0  0  0  0
 40 79  2  0  0  0  0
 41 68  1  0  0  0  0
 41 71  1  0  0  0  0
 41 80  2  0  0  0  0
 42 46  1  0  0  0  0
 43 53  1  0  0  0  0
 44 67  1  0  0  0  0
 45 66  1  0  0  0  0
 46 48  1  0  0  0  0
 47 49  1  0  0  0  0
 47 50  1  0  0  0  0
 48 52  1  0  0  0  0
 49 54  1  0  0  0  0
 50 68  1  0  0  0  0
 51 54  1  0  0  0  0
 51 68  1  0  0  0  0
 52 72  1  0  0  0  0
 53 67  1  0  0  0  0
 54 65  1  0  0  0  0
 55 62  1  0  0  0  0
 56 63  1  0  0  0  0
 57 63  1  0  0  0  0
 58 63  1  0  0  0  0
 59 74  1  0  0  0  0
 60 82  1  0  0  0  0
 61 63  1  0  0  0  0
 61 73  1  0  0  0  0
 62 74  1  0  0  0  0
 64 65  1  0  0  0  0
M  CHG  1  74   1
M  ISO  4  41 100  60 101  71 100  82 101
M  END
> <Batch ID>
0078

> <Smiles>
CNC(C)C(=O)NC(C(=O)N1Cc2cc([101O:1][101CH2:1]C3=CCN(c4ccc([100NH:0][100C:0](=O)N5CCCC(n6nc(-c7ccc(Oc8ccc(F)cc8F)cc7)c(C(N)=O)c6N)C5)c(F)c4)C3=O)ccc2CC1C(=O)NC1CCCc2ccccc21)C(C)(C)C

> <Shape>
0.301

> <Color>
0.155

> <Negative vol penalty>
0.000

$$$$

  -OEChem-04042323563D

 89 98  0     1  0  0  0  0  0999 V2000
  -23.5655   -8.0022   21.7685 C   0  0  0  0  0  0  0  0  0  0  0  0
  -24.4203   -9.0150   21.3454 C   0  0  0  0  0  0  0  0  0  0  0  0
  -19.6212  -27.4431   20.6674 C   0  0  0  0  0  0  0  0  0  0  0  0
  -21.1249  -26.3288   22.1952 C   0  0  0  0  0  0  0  0  0  0  0  0
  -22.1962   -8.2442   21.8698 C   0  0  0  0  0  0  0  0  0  0  0  0
  -23.9060  -10.2702   21.0222 C   0  0  0  0  0  0  0  0  0  0  0  0
  -26.6512  -14.0543   22.9687 C   0  0  0  0  0  0  0  0  0  0  0  0
  -29.2576  -23.9923   19.6395 C   0  0  0  0  0  0  0  0  0  0  0  0
  -29.6437  -22.6865   19.9418 C   0  0  0  0  0  0  0  0  0  0  0  0
  -18.5346  -26.8243   21.2856 C   0  0  0  0  0  0  0  0  0  0  0  0
  -20.0384  -25.7100   22.8134 C   0  0  0  0  0  0  0  0  0  0  0  0
  -27.8388  -14.3808   22.3156 C   0  0  0  0  0  0  0  0  0  0  0  0
  -17.6514  -26.5341   25.0592 C   0  0  0  0  0  0  0  0  0  0  0  0
  -17.6247  -26.5166   26.4536 C   0  0  0  0  0  0  0  0  0  0  0  0
  -26.7301  -16.2325   21.2380 C   0  0  0  0  0  0  0  0  0  0  0  0
  -31.7189  -23.0246   18.7517 C   0  0  0  0  0  0  0  0  0  0  0  0
  -17.6072  -24.1009   26.4230 C   0  0  0  0  0  0  0  0  0  0  0  0
  -20.9164  -27.1953   21.1222 C   0  0  0  0  0  0  0  0  0  0  0  0
  -22.6165  -29.0729   20.8196 C   0  0  0  0  0  0  0  0  0  0  0  0
  -21.6660   -9.5058   21.5570 C   0  0  0  0  0  0  0  0  0  0  0  0
  -25.4893  -14.8092   22.7527 C   0  0  0  0  0  0  0  0  0  0  0  0
  -22.5281  -10.5289   21.1181 C   0  0  0  0  0  0  0  0  0  0  0  0
  -25.5297  -15.9151   21.8916 C   0  0  0  0  0  0  0  0  0  0  0  0
  -30.1021  -24.8142   18.8932 C   0  0  0  0  0  0  0  0  0  0  0  0
  -31.3327  -24.3304   18.4493 C   0  0  0  0  0  0  0  0  0  0  0  0
  -30.8744  -22.2026   19.4980 C   0  0  0  0  0  0  0  0  0  0  0  0
  -18.7432  -25.9578   22.3586 C   0  0  0  0  0  0  0  0  0  0  0  0
  -27.8777  -15.4683   21.4478 C   0  0  0  0  0  0  0  0  0  0  0  0
  -17.6559  -25.3350   24.3465 C   0  0  0  0  0  0  0  0  0  0  0  0
  -17.6027  -25.3000   27.1355 C   0  0  0  0  0  0  0  0  0  0  0  0
  -17.6338  -24.1184   25.0285 C   0  0  0  0  0  0  0  0  0  0  0  0
  -22.0392  -27.8337   20.4837 C   0  0  0  0  0  0  0  0  0  0  0  0
  -23.6444  -29.2275   19.9219 C   0  0  0  0  0  0  0  0  0  0  0  0
  -31.2422  -18.6513   20.2854 C   0  0  0  0  0  0  0  0  0  0  0  0
  -32.6274  -19.0499   20.2779 C   0  0  0  0  0  0  0  0  0  0  0  0
  -30.3758  -19.8244   19.9826 C   0  0  0  0  0  0  0  0  0  0  0  0
  -33.7094  -18.2966   20.5016 C   0  0  0  0  0  0  0  0  0  0  0  0
  -30.7096  -17.4461   20.5152 C   0  0  0  0  0  0  0  0  0  0  0  0
  -22.2559  -30.0013   21.8510 C   0  0  0  0  0  0  0  0  0  0  0  0
  -22.6025  -14.1951   21.5724 C   0  0  0  0  0  0  0  0  0  0  0  0
  -21.9962  -17.2383   22.5177 C   0  0  0  0  0  0  0  0  0  0  0  0
  -23.2155  -20.3357   23.2701 C   0  0  0  0  0  0  0  0  0  0  0  0
  -27.6514  -26.1134   17.1360 C   0  0  0  0  0  0  0  0  0  0  0  0
  -20.1733   -9.7060   21.6365 C   0  0  0  0  0  0  0  0  0  0  0  0
  -24.2230  -14.4602   23.4855 C   0  0  0  0  0  0  0  0  0  0  0  0
  -24.3151  -16.7698   21.6410 C   0  0  0  0  0  0  0  0  0  0  0  0
  -32.6611  -20.5151   19.9637 C   0  0  0  0  0  0  0  0  0  0  0  0
  -19.7546  -11.1740   21.6344 C   0  0  0  0  0  0  0  0  0  0  0  0
  -24.7242  -27.3054   15.4967 C   0  0  0  0  0  0  0  0  0  0  0  0
  -20.4967  -11.9392   20.5434 C   0  0  0  0  0  0  0  0  0  0  0  0
  -23.7871  -27.6784   16.6468 C   0  0  0  0  0  0  0  0  0  0  0  0
  -25.5515  -26.0640   15.8227 C   0  0  0  0  0  0  0  0  0  0  0  0
  -25.3662  -26.5089   18.2397 C   0  0  0  0  0  0  0  0  0  0  0  0
  -22.0112  -11.9110   20.7824 C   0  0  1  0  0  0  0  0  0  0  0  0
  -22.9687  -14.9874   22.7954 C   0  0  1  0  0  0  0  0  0  0  0  0
  -24.5513  -27.7874   17.9799 C   0  0  2  0  0  0  0  0  0  0  0  0
  -32.2541  -25.1929   17.6506 C   0  0  0  0  0  0  0  0  0  0  0  0
  -30.1121  -27.2220   19.6441 C   0  0  0  0  0  0  0  0  0  0  0  0
  -22.4733  -22.6274   23.9735 C   0  0  0  0  0  0  0  0  0  0  0  0
  -21.0357  -17.7968   19.6759 C   0  0  0  0  0  0  0  0  0  0  0  0
  -21.2160  -20.2444   20.1705 C   0  0  0  0  0  0  0  0  0  0  0  0
  -19.6316  -18.8241   21.4724 C   0  0  0  0  0  0  0  0  0  0  0  0
  -24.7696  -20.1938   25.7847 C   0  0  0  0  0  0  0  0  0  0  0  0
  -29.2437  -17.1647   20.4928 C   0  0  0  0  0  0  0  0  0  1  0  0
  -29.6666  -26.2084   18.5813 C   0  0  2  0  0  0  0  0  0  0  0  0
  -22.1170  -18.6005   21.8784 C   0  0  1  0  0  0  0  0  0  0  0  0
  -22.9545  -21.2633   24.4431 C   0  0  2  0  0  0  0  0  0  0  0  0
  -21.0226  -18.8494   20.8023 C   0  0  0  0  0  0  0  0  0  0  0  0
  -22.6496  -27.2430   19.4529 N   0  0  0  0  0  0  0  0  0  0  0  0
  -23.6211  -28.1149   19.1333 N   0  0  0  0  0  0  0  0  0  0  0  0
  -31.2608  -20.9009   19.8010 N   0  0  0  0  0  0  0  0  0  0  0  0
  -23.0991  -16.3843   22.3761 N   0  0  0  0  0  0  0  0  0  0  0  0
  -26.2523  -26.2327   17.0980 N   0  0  0  0  0  0  0  0  0  0  0  0
  -24.5569  -30.2052   19.7379 N   0  0  0  0  0  0  0  0  0  0  0  0
  -21.1743  -29.6866   22.6849 N   0  0  0  0  0  0  0  0  0  0  0  0
  -22.3772  -12.8540   21.8174 N   0  0  0  0  0  0  0  0  0  0  0  0
  -22.1107  -19.5665   22.9716 N   0  0  0  0  0  0  0  0  0  0  0  0
  -28.2369  -26.2940   18.3831 N   0  0  0  0  0  0  0  0  0  0  0  0
  -24.1991  -21.4529   25.2405 N   0  3  0  0  0  0  0  0  0  0  0  0
  -29.1581  -19.8174   19.9144 O   0  0  0  0  0  0  0  0  0  0  0  0
  -22.8641  -31.0857   22.0174 O   0  0  0  0  0  0  0  0  0  0  0  0
  -22.5285  -14.7591   20.4870 O   0  0  0  0  0  0  0  0  0  0  0  0
  -20.9641  -16.9454   23.1266 O   0  0  0  0  0  0  0  0  0  0  0  0
  -24.2905  -20.2999   22.6756 O   0  0  0  0  0  0  0  0  0  0  0  0
  -28.3290  -25.8697   16.1318 O   0  0  0  0  0  0  0  0  0  0  0  0
  -17.6831  -25.3540   22.9622 O   0  0  0  0  0  0  0  0  0  0  0  0
  -29.0355  -15.7887   20.8085 O   0  0  0  0  0  0  0  0  0  1  0  0
  -17.5786  -25.2833   28.4747 F   0  0  0  0  0  0  0  0  0  0  0  0
  -17.6393  -22.9631   24.3493 F   0  0  0  0  0  0  0  0  0  0  0  0
  1  2  1  0  0  0  0
  1  5  2  0  0  0  0
  2  6  2  0  0  0  0
  3 10  2  0  0  0  0
  3 18  1  0  0  0  0
  4 11  1  0  0  0  0
  4 18  2  0  0  0  0
  5 20  1  0  0  0  0
  6 22  1  0  0  0  0
  7 12  2  0  0  0  0
  7 21  1  0  0  0  0
  8  9  2  0  0  0  0
  8 24  1  0  0  0  0
  9 26  1  0  0  0  0
 10 27  1  0  0  0  0
 11 27  2  0  0  0  0
 12 28  1  0  0  0  0
 13 14  2  0  0  0  0
 13 29  1  0  0  0  0
 14 30  1  0  0  0  0
 15 23  1  0  0  0  0
 15 28  2  0  0  0  0
 16 25  1  0  0  0  0
 16 26  2  0  0  0  0
 17 30  2  0  0  0  0
 17 31  1  0  0  0  0
 18 32  1  0  0  0  0
 19 32  1  0  0  0  0
 19 33  2  0  0  0  0
 19 39  1  0  0  0  0
 20 22  2  0  0  0  0
 20 44  1  0  0  0  0
 21 23  2  0  0  0  0
 21 45  1  0  0  0  0
 22 54  1  0  0  0  0
 23 46  1  0  0  0  0
 24 25  2  0  0  0  0
 24 65  1  0  0  0  0
 25 57  1  0  0  0  0
 26 71  1  0  0  0  0
 27 86  1  0  0  0  0
 28 87  1  0  0  0  0
 29 31  2  0  0  0  0
 29 86  1  0  0  0  0
 30 88  1  0  0  0  0
 31 89  1  0  0  0  0
 32 69  2  0  0  0  0
 33 70  1  0  0  0  0
 33 74  1  0  0  0  0
 34 35  1  0  0  0  0
 34 36  1  0  0  0  0
 34 38  2  0  0  0  0
 35 37  2  0  0  0  0
 35 47  1  0  0  0  0
 36 71  1  0  0  0  0
 36 80  2  0  0  0  0
 38 64  1  0  0  0  0
 39 75  1  0  0  0  0
 39 81  2  0  0  0  0
 40 55  1  0  0  0  0
 40 76  1  0  0  0  0
 40 82  2  0  0  0  0
 41 66  1  0  0  0  0
 41 72  1  0  0  0  0
 41 83  2  0  0  0  0
 42 67  1  0  0  0  0
 42 77  1  0  0  0  0
 42 84  2  0  0  0  0
 43 73  1  0  0  0  0
 43 78  1  0  0  0  0
 43 85  2  0  0  0  0
 44 48  1  0  0  0  0
 45 55  1  0  0  0  0
 46 72  1  0  0  0  0
 47 71  1  0  0  0  0
 48 50  1  0  0  0  0
 49 51  1  0  0  0  0
 49 52  1  0  0  0  0
 50 54  1  0  0  0  0
 51 56  1  0  0  0  0
 52 73  1  0  0  0  0
 53 56  1  0  0  0  0
 53 73  1  0  0  0  0
 54 76  1  0  0  0  0
 55 72  1  0  0  0  0
 56 70  1  0  0  0  0
 58 65  1  0  0  0  0
 59 67  1  0  0  0  0
 60 68  1  0  0  0  0
 61 68  1  0  0  0  0
 62 68  1  0  0  0  0
 63 79  1  0  0  0  0
 64 87  1  0  0  0  0
 65 78  1  0  0  0  0
 66 68  1  0  0  0  0
 66 77  1  0  0  0  0
 67 79  1  0  0  0  0
 69 70  1  0  0  0  0
M  CHG  1  79   1
M  ISO  4  43 100  64 101  78 100  87 101
M  END
> <Batch ID>
0078

> <Smiles>
C=C1CN(c2ccc(C(C)[100NH:0][100C:0](=O)N3CCCC(n4nc(-c5ccc(Oc6ccc(F)cc6F)cc5)c(C(N)=O)c4N)C3)c(C)c2)C(=O)C1=C[101CH2:1][101O:1]c1ccc2c(c1)CN(C(=O)C(NC(=O)C(C)NC)C(C)(C)C)C(C(=O)NC1CCCc3ccccc31)C2

> <Shape>
0.211

> <Color>
0.083

> <Negative vol penalty>
0.000

$$$$

  -OEChem-04042323563D

 86 95  0     1  0  0  0  0  0999 V2000
  -27.8203  -34.4619   23.7637 C   0  0  0  0  0  0  0  0  0  0  0  0
  -28.0497  -33.1270   24.0814 C   0  0  0  0  0  0  0  0  0  0  0  0
  -23.4545   -9.6208   21.1032 C   0  0  0  0  0  0  0  0  0  0  0  0
  -24.0445  -10.4994   23.2751 C   0  0  0  0  0  0  0  0  0  0  0  0
  -31.8689  -19.1330   22.0527 C   0  0  0  0  0  0  0  0  0  0  0  0
  -29.5690  -19.8471   22.2469 C   0  0  0  0  0  0  0  0  0  0  0  0
  -26.5404  -34.8817   23.4040 C   0  0  0  0  0  0  0  0  0  0  0  0
  -26.9988  -32.2113   24.0406 C   0  0  0  0  0  0  0  0  0  0  0  0
  -28.2860  -27.8774   21.7592 C   0  0  0  0  0  0  0  0  0  0  0  0
  -31.4472  -17.9270   21.4928 C   0  0  0  0  0  0  0  0  0  0  0  0
  -29.1473  -18.6412   21.6870 C   0  0  0  0  0  0  0  0  0  0  0  0
  -22.8246   -8.5360   21.7131 C   0  0  0  0  0  0  0  0  0  0  0  0
  -23.4146   -9.4146   23.8850 C   0  0  0  0  0  0  0  0  0  0  0  0
  -29.0402  -26.9679   22.4992 C   0  0  0  0  0  0  0  0  0  0  0  0
  -19.8850   -7.9113   23.2628 C   0  0  0  0  0  0  0  0  0  0  0  0
  -18.6287   -7.5387   22.7850 C   0  0  0  0  0  0  0  0  0  0  0  0
  -27.0422  -25.6989   22.9647 C   0  0  0  0  0  0  0  0  0  0  0  0
  -19.4888   -5.3502   22.2300 C   0  0  0  0  0  0  0  0  0  0  0  0
  -24.0645  -10.6025   21.8842 C   0  0  0  0  0  0  0  0  0  0  0  0
  -30.9298  -20.0930   22.4298 C   0  0  0  0  0  0  0  0  0  0  0  0
  -24.1373  -12.9598   20.9118 C   0  0  0  0  0  0  0  0  0  0  0  0
  -25.4754  -33.9688   23.3494 C   0  0  0  0  0  0  0  0  0  0  0  0
  -26.9001  -27.7102   21.6252 C   0  0  0  0  0  0  0  0  0  0  0  0
  -25.7031  -32.6196   23.6811 C   0  0  0  0  0  0  0  0  0  0  0  0
  -26.2730  -26.6063   22.2203 C   0  0  0  0  0  0  0  0  0  0  0  0
  -30.0864  -17.6811   21.3099 C   0  0  0  0  0  0  0  0  0  0  0  0
  -22.8046   -8.4329   23.1040 C   0  0  0  0  0  0  0  0  0  0  0  0
  -28.4180  -25.8800   23.1045 C   0  0  0  0  0  0  0  0  0  0  0  0
  -20.9433   -7.0034   23.2241 C   0  0  0  0  0  0  0  0  0  0  0  0
  -18.4305   -6.2582   22.2687 C   0  0  0  0  0  0  0  0  0  0  0  0
  -20.7452   -5.7229   22.7078 C   0  0  0  0  0  0  0  0  0  0  0  0
  -24.7158  -11.7230   21.2547 C   0  0  0  0  0  0  0  0  0  0  0  0
  -25.1645  -13.6739   20.3448 C   0  0  0  0  0  0  0  0  0  0  0  0
  -32.5159  -21.9876   22.7723 C   0  0  0  0  0  0  0  0  0  0  0  0
  -31.3646  -21.3394   23.0073 C   0  0  0  0  0  0  0  0  0  0  0  0
  -30.6203  -22.1679   23.9958 C   0  0  0  0  0  0  0  0  0  0  0  0
  -22.7918  -13.4218   21.0899 C   0  0  0  0  0  0  0  0  0  0  0  0
  -24.3452  -29.4092   22.4554 C   0  0  0  0  0  0  0  0  0  0  0  0
  -22.7639  -27.1196   20.7881 C   0  0  0  0  0  0  0  0  0  0  0  0
  -22.7184  -23.9305   19.5740 C   0  0  0  0  0  0  0  0  0  0  0  0
  -30.4583  -15.3994   20.3090 C   0  0  0  0  0  0  0  0  0  0  0  0
  -24.0994  -34.4787   23.0009 C   0  0  0  0  0  0  0  0  0  0  0  0
  -26.1048  -28.6854   20.8014 C   0  0  0  0  0  0  0  0  0  0  0  0
  -24.7912  -26.3705   22.0898 C   0  0  0  0  0  0  0  0  0  0  0  0
  -32.6542  -23.2566   23.5367 C   0  0  0  0  0  0  0  0  0  0  0  0
  -23.1188  -33.3729   22.6188 C   0  0  0  0  0  0  0  0  0  0  0  0
  -29.7838  -12.2063   18.8855 C   0  0  0  0  0  0  0  0  0  0  0  0
  -23.1964  -32.2222   23.6171 C   0  0  0  0  0  0  0  0  0  0  0  0
  -28.3576  -11.8977   19.3468 C   0  0  0  0  0  0  0  0  0  0  0  0
  -30.5811  -12.9420   19.9611 C   0  0  0  0  0  0  0  0  0  0  0  0
  -28.5135  -13.8437   20.9517 C   0  0  0  0  0  0  0  0  0  0  0  0
  -24.5941  -31.5915   23.6244 C   0  0  1  0  0  0  0  0  0  0  0  0
  -24.6220  -28.7004   21.1598 C   0  0  1  0  0  0  0  0  0  0  0  0
  -27.6513  -13.1606   19.8776 C   0  0  2  0  0  0  0  0  0  0  0  0
  -21.2749  -22.3345   18.2830 C   0  0  0  0  0  0  0  0  0  0  0  0
  -29.9263  -26.6132   25.4354 C   0  0  0  0  0  0  0  0  0  0  0  0
  -21.0234  -26.6992   23.2587 C   0  0  0  0  0  0  0  0  0  0  0  0
  -20.2762  -24.5211   22.2759 C   0  0  0  0  0  0  0  0  0  0  0  0
  -19.7814  -26.6584   21.0884 C   0  0  0  0  0  0  0  0  0  0  0  0
  -24.7302  -23.6726   17.4187 C   0  0  0  0  0  0  0  0  0  0  0  0
  -31.0324  -24.3334   25.1746 C   0  0  0  0  0  0  0  0  0  0  0  0
  -22.1524  -25.7814   21.1259 C   0  0  1  0  0  0  0  0  0  0  0  0
  -22.3763  -23.3800   18.2013 C   0  0  2  0  0  0  0  0  0  0  0  0
  -30.3170  -25.4913   24.4823 C   0  0  1  0  0  0  0  0  0  1  0  0
  -20.8360  -25.9202   21.9415 C   0  0  0  0  0  0  0  0  0  0  0  0
  -26.0101  -11.6521   20.9324 N   0  0  0  0  0  0  0  0  0  0  0  0
  -26.2533  -12.8533   20.3809 N   0  0  0  0  0  0  0  0  0  0  0  0
  -31.4109  -23.2814   24.2688 N   0  0  0  0  0  0  0  0  0  0  0  0
  -24.0558  -27.3553   21.2794 N   0  0  0  0  0  0  0  0  0  0  0  0
  -29.8525  -14.1294   20.4129 N   0  0  0  0  0  0  0  0  0  0  0  0
  -25.2335  -14.9174   19.8238 N   0  0  0  0  0  0  0  0  0  0  0  0
  -21.8634  -12.5601   21.6899 N   0  0  0  0  0  0  0  0  0  0  0  0
  -29.6577  -16.4570   20.7393 N   0  0  0  0  0  0  0  0  0  0  0  0
  -24.7640  -30.7258   22.4771 N   0  0  0  0  0  0  0  0  0  0  0  0
  -21.9993  -25.0715   19.8605 N   0  0  0  0  0  0  0  0  0  0  0  0
  -23.5767  -22.7507   17.5817 N   0  3  0  0  0  0  0  0  0  0  0  0
  -29.5240  -21.8806   24.4480 O   0  0  0  0  0  0  0  0  0  0  0  0
  -22.4196  -14.5588   20.7129 O   0  0  0  0  0  0  0  0  0  0  0  0
  -23.7912  -28.8066   23.3674 O   0  0  0  0  0  0  0  0  0  0  0  0
  -22.1220  -27.9233   20.1073 O   0  0  0  0  0  0  0  0  0  0  0  0
  -23.5387  -23.3991   20.3193 O   0  0  0  0  0  0  0  0  0  0  0  0
  -31.5926  -15.5414   19.8453 O   0  0  0  0  0  0  0  0  0  0  0  0
  -22.1898   -7.3746   23.6995 O   0  0  0  0  0  0  0  0  0  0  0  0
  -29.1517  -24.9911   23.8279 O   0  0  0  0  0  0  0  0  0  1  0  0
  -17.2236   -5.9000   21.8114 F   0  0  0  0  0  0  0  0  0  0  0  0
  -21.7577   -4.8459   22.6691 F   0  0  0  0  0  0  0  0  0  0  0  0
  1  2  1  0  0  0  0
  1  7  2  0  0  0  0
  2  8  2  0  0  0  0
  3 12  2  0  0  0  0
  3 19  1  0  0  0  0
  4 13  1  0  0  0  0
  4 19  2  0  0  0  0
  5 10  2  0  0  0  0
  5 20  1  0  0  0  0
  6 11  1  0  0  0  0
  6 20  2  0  0  0  0
  7 22  1  0  0  0  0
  8 24  1  0  0  0  0
  9 14  2  0  0  0  0
  9 23  1  0  0  0  0
 10 26  1  0  0  0  0
 11 26  2  0  0  0  0
 12 27  1  0  0  0  0
 13 27  2  0  0  0  0
 14 28  1  0  0  0  0
 15 16  2  0  0  0  0
 15 29  1  0  0  0  0
 16 30  1  0  0  0  0
 17 25  1  0  0  0  0
 17 28  2  0  0  0  0
 18 30  2  0  0  0  0
 18 31  1  0  0  0  0
 19 32  1  0  0  0  0
 20 35  1  0  0  0  0
 21 32  1  0  0  0  0
 21 33  2  0  0  0  0
 21 37  1  0  0  0  0
 22 24  2  0  0  0  0
 22 42  1  0  0  0  0
 23 25  2  0  0  0  0
 23 43  1  0  0  0  0
 24 52  1  0  0  0  0
 25 44  1  0  0  0  0
 26 73  1  0  0  0  0
 27 83  1  0  0  0  0
 28 84  1  0  0  0  0
 29 31  2  0  0  0  0
 29 83  1  0  0  0  0
 30 85  1  0  0  0  0
 31 86  1  0  0  0  0
 32 66  2  0  0  0  0
 33 67  1  0  0  0  0
 33 71  1  0  0  0  0
 34 35  2  0  0  0  0
 34 45  1  0  0  0  0
 35 36  1  0  0  0  0
 36 68  1  0  0  0  0
 36 77  2  0  0  0  0
 37 72  1  0  0  0  0
 37 78  2  0  0  0  0
 38 53  1  0  0  0  0
 38 74  1  0  0  0  0
 38 79  2  0  0  0  0
 39 62  1  0  0  0  0
 39 69  1  0  0  0  0
 39 80  2  0  0  0  0
 40 63  1  0  0  0  0
 40 75  1  0  0  0  0
 40 81  2  0  0  0  0
 41 70  1  0  0  0  0
 41 73  1  0  0  0  0
 41 82  2  0  0  0  0
 42 46  1  0  0  0  0
 43 53  1  0  0  0  0
 44 69  1  0  0  0  0
 45 68  1  0  0  0  0
 46 48  1  0  0  0  0
 47 49  1  0  0  0  0
 47 50  1  0  0  0  0
 48 52  1  0  0  0  0
 49 54  1  0  0  0  0
 50 70  1  0  0  0  0
 51 54  1  0  0  0  0
 51 70  1  0  0  0  0
 52 74  1  0  0  0  0
 53 69  1  0  0  0  0
 54 67  1  0  0  0  0
 55 63  1  0  0  0  0
 56 64  1  0  0  0  0
 57 65  1  0  0  0  0
 58 65  1  0  0  0  0
 59 65  1  0  0  0  0
 60 76  1  0  0  0  0
 61 64  1  0  0  0  0
 61 68  1  0  0  0  0
 62 65  1  0  0  0  0
 62 75  1  0  0  0  0
 63 76  1  0  0  0  0
 64 84  1  0  0  0  0
 66 67  1  0  0  0  0
M  CHG  1  76   1
M  ISO  4  41 100  64 101  73 100  84 101
M  END
> <Batch ID>
0078

> <Smiles>
CNC(C)C(=O)NC(C(=O)N1Cc2cc([101O:1][101CH:1](C)CN3CC=C(c4ccc([100NH:0][100C:0](=O)N5CCCC(n6nc(-c7ccc(Oc8ccc(F)cc8F)cc7)c(C(N)=O)c6N)C5)cc4)C3=O)ccc2CC1C(=O)NC1CCCc2ccccc21)C(C)(C)C

> <Shape>
0.265

> <Color>
0.151

> <Negative vol penalty>
0.000

$$$$

  -OEChem-04042323563D

 85 94  0     1  0  0  0  0  0999 V2000
  -30.2581  -36.1302   19.7410 C   0  0  0  0  0  0  0  0  0  0  0  0
  -30.1399  -34.7855   19.4044 C   0  0  0  0  0  0  0  0  0  0  0  0
  -24.8352   -8.3493   21.5665 C   0  0  0  0  0  0  0  0  0  0  0  0
  -23.2798   -9.6072   20.2116 C   0  0  0  0  0  0  0  0  0  0  0  0
  -29.8023  -36.5803   20.9793 C   0  0  0  0  0  0  0  0  0  0  0  0
  -29.5667  -33.8899   20.3065 C   0  0  0  0  0  0  0  0  0  0  0  0
  -26.1150  -29.0130   18.9623 C   0  0  0  0  0  0  0  0  0  0  0  0
  -23.7862   -7.9373   22.3883 C   0  0  0  0  0  0  0  0  0  0  0  0
  -22.2307   -9.1951   21.0334 C   0  0  0  0  0  0  0  0  0  0  0  0
  -26.4098  -27.6540   18.8624 C   0  0  0  0  0  0  0  0  0  0  0  0
  -21.4665   -6.2623   24.6307 C   0  0  0  0  0  0  0  0  0  0  0  0
  -21.4187   -4.9169   24.9958 C   0  0  0  0  0  0  0  0  0  0  0  0
  -24.9609  -17.9101   18.7063 C   0  0  0  0  0  0  0  0  0  0  0  0
  -24.6432  -19.1042   19.4156 C   0  0  0  0  0  0  0  0  0  0  0  0
  -25.6609  -27.3308   21.1326 C   0  0  0  0  0  0  0  0  0  0  0  0
  -21.2612   -4.2908   22.6676 C   0  0  0  0  0  0  0  0  0  0  0  0
  -24.5820   -9.1843   20.4782 C   0  0  0  0  0  0  0  0  0  0  0  0
  -26.1467   -8.9635   18.4755 C   0  0  0  0  0  0  0  0  0  0  0  0
  -29.2144  -35.6916   21.8932 C   0  0  0  0  0  0  0  0  0  0  0  0
  -25.6002  -29.5439   20.1538 C   0  0  0  0  0  0  0  0  0  0  0  0
  -29.1038  -34.3284   21.5588 C   0  0  0  0  0  0  0  0  0  0  0  0
  -25.3580  -28.6964   21.2442 C   0  0  0  0  0  0  0  0  0  0  0  0
  -22.4839   -8.3601   22.1217 C   0  0  0  0  0  0  0  0  0  0  0  0
  -26.1855  -26.8132   19.9486 C   0  0  0  0  0  0  0  0  0  0  0  0
  -21.4116   -6.6220   23.2841 C   0  0  0  0  0  0  0  0  0  0  0  0
  -21.3160   -3.9312   24.0143 C   0  0  0  0  0  0  0  0  0  0  0  0
  -21.3090   -5.6362   22.3026 C   0  0  0  0  0  0  0  0  0  0  0  0
  -25.6653   -9.6108   19.6293 C   0  0  0  0  0  0  0  0  0  0  0  0
  -26.2069  -17.9711   18.1220 C   0  0  0  0  0  0  0  0  0  0  0  0
  -27.1739   -9.7628   18.0367 C   0  0  0  0  0  0  0  0  0  0  0  0
  -25.6588  -20.0326   19.3467 C   0  0  0  0  0  0  0  0  0  0  0  0
  -25.6214  -23.2723   19.9633 C   0  0  0  0  0  0  0  0  0  0  0  0
  -24.7264  -22.1239   20.1110 C   0  0  0  0  0  0  0  0  0  0  0  0
  -26.5891  -16.5883   14.8236 C   0  0  0  0  0  0  0  0  0  0  0  0
  -25.4545  -24.5930   20.0336 C   0  0  0  0  0  0  0  0  0  1  0  0
  -26.1156  -16.5230   16.0738 C   0  0  0  0  0  0  0  0  0  0  0  0
  -25.7047   -7.7485   17.8557 C   0  0  0  0  0  0  0  0  0  0  0  0
  -26.5946  -31.7080   22.2590 C   0  0  0  0  0  0  0  0  0  0  0  0
  -23.6583  -31.2291   23.5518 C   0  0  0  0  0  0  0  0  0  0  0  0
  -20.9665  -29.1683   23.9442 C   0  0  0  0  0  0  0  0  0  0  0  0
  -28.3967  -15.5823   18.7363 C   0  0  0  0  0  0  0  0  0  0  0  0
  -28.7795  -36.2162   23.2387 C   0  0  0  0  0  0  0  0  0  0  0  0
  -25.2624  -31.0073   20.2365 C   0  0  0  0  0  0  0  0  0  0  0  0
  -24.7878  -29.2133   22.5389 C   0  0  0  0  0  0  0  0  0  0  0  0
  -26.7613  -22.3154   19.6996 C   0  0  0  0  0  0  0  0  0  0  0  0
  -27.8436  -35.2708   23.9875 C   0  0  0  0  0  0  0  0  0  0  0  0
  -30.4741  -12.8347   19.6375 C   0  0  0  0  0  0  0  0  0  0  0  0
  -28.3794  -33.8433   23.9433 C   0  0  0  0  0  0  0  0  0  0  0  0
  -29.5207  -11.6385   19.6335 C   0  0  0  0  0  0  0  0  0  0  0  0
  -29.7899  -14.1001   20.1501 C   0  0  0  0  0  0  0  0  0  0  0  0
  -27.5826  -13.2541   19.4528 C   0  0  0  0  0  0  0  0  0  0  0  0
  -28.4652  -33.3307   22.5006 C   0  0  1  0  0  0  0  0  0  0  0  0
  -25.2241  -31.5316   21.6687 C   0  0  1  0  0  0  0  0  0  0  0  0
  -28.2115  -11.9675   18.8911 C   0  0  2  0  0  0  0  0  0  0  0  0
  -18.7366  -29.0366   25.0877 C   0  0  0  0  0  0  0  0  0  0  0  0
  -25.0554  -30.6764   26.2074 C   0  0  0  0  0  0  0  0  0  0  0  0
  -22.9279  -29.6464   27.0326 C   0  0  0  0  0  0  0  0  0  0  0  0
  -22.9774  -32.0560   26.3892 C   0  0  0  0  0  0  0  0  0  0  0  0
  -19.5294  -28.9304   21.3679 C   0  0  0  0  0  0  0  0  0  0  0  0
  -26.8932  -16.9450   17.3075 C   0  0  2  0  0  0  0  0  0  0  0  0
  -23.0852  -30.2888   24.5844 C   0  0  1  0  0  0  0  0  0  0  0  0
  -19.4755  -29.4233   23.8160 C   0  0  2  0  0  0  0  0  0  0  0  0
  -23.5240  -30.6572   26.0298 C   0  0  0  0  0  0  0  0  0  0  0  0
  -26.3321  -10.7345   19.9062 N   0  0  0  0  0  0  0  0  0  0  0  0
  -27.2429  -10.7996   18.9201 N   0  0  0  0  0  0  0  0  0  0  0  0
  -25.7599  -21.2784   19.8749 N   0  0  0  0  0  0  0  0  0  0  0  0
  -24.4797  -30.6525   22.5727 N   0  0  0  0  0  0  0  0  0  0  0  0
  -28.5558  -14.3565   19.4035 N   0  0  0  0  0  0  0  0  0  0  0  0
  -28.0158   -9.6728   16.9853 N   0  0  0  0  0  0  0  0  0  0  0  0
  -24.6363   -7.0522   18.4371 N   0  0  0  0  0  0  0  0  0  0  0  0
  -27.1542  -32.9488   22.0211 N   0  0  0  0  0  0  0  0  0  0  0  0
  -21.6407  -30.2893   24.3801 N   0  0  0  0  0  0  0  0  0  0  0  0
  -27.2005  -15.7414   18.0475 N   0  0  0  0  0  0  0  0  0  0  0  0
  -18.9103  -28.6338   22.6854 N   0  3  0  0  0  0  0  0  0  0  0  0
  -23.5324  -21.9869   20.2806 O   0  0  0  0  0  0  0  0  0  0  0  0
  -26.2520   -7.2852   16.8265 O   0  0  0  0  0  0  0  0  0  0  0  0
  -27.1057  -30.7870   22.8853 O   0  0  0  0  0  0  0  0  0  0  0  0
  -23.3814  -32.4299   23.6075 O   0  0  0  0  0  0  0  0  0  0  0  0
  -21.4810  -28.0821   23.6873 O   0  0  0  0  0  0  0  0  0  0  0  0
  -29.2592  -16.4671   18.7488 O   0  0  0  0  0  0  0  0  0  0  0  0
  -21.4600   -7.9580   22.9233 O   0  0  0  0  0  0  0  0  0  0  0  0
  -26.4730  -25.4864   19.8540 O   0  0  0  0  0  0  0  0  0  1  0  0
  -21.2716   -2.6392   24.3649 F   0  0  0  0  0  0  0  0  0  0  0  0
  -21.2570   -5.9756   21.0072 F   0  0  0  0  0  0  0  0  0  0  0  0
  -26.9882  -19.4636   18.4294 S   0  0  0  0  0  0  0  0  0  0  0  0
  1  2  1  0  0  0  0
  1  5  2  0  0  0  0
  2  6  2  0  0  0  0
  3  8  2  0  0  0  0
  3 17  1  0  0  0  0
  4  9  1  0  0  0  0
  4 17  2  0  0  0  0
  5 19  1  0  0  0  0
  6 21  1  0  0  0  0
  7 10  2  0  0  0  0
  7 20  1  0  0  0  0
  8 23  1  0  0  0  0
  9 23  2  0  0  0  0
 10 24  1  0  0  0  0
 11 12  2  0  0  0  0
 11 25  1  0  0  0  0
 12 26  1  0  0  0  0
 13 14  1  0  0  0  0
 13 29  2  0  0  0  0
 14 31  2  0  0  0  0
 15 22  1  0  0  0  0
 15 24  2  0  0  0  0
 16 26  2  0  0  0  0
 16 27  1  0  0  0  0
 17 28  1  0  0  0  0
 18 28  1  0  0  0  0
 18 30  2  0  0  0  0
 18 37  1  0  0  0  0
 19 21  2  0  0  0  0
 19 42  1  0  0  0  0
 20 22  2  0  0  0  0
 20 43  1  0  0  0  0
 21 52  1  0  0  0  0
 22 44  1  0  0  0  0
 23 81  1  0  0  0  0
 24 82  1  0  0  0  0
 25 27  2  0  0  0  0
 25 81  1  0  0  0  0
 26 83  1  0  0  0  0
 27 84  1  0  0  0  0
 28 64  2  0  0  0  0
 29 60  1  0  0  0  0
 29 85  1  0  0  0  0
 30 65  1  0  0  0  0
 30 69  1  0  0  0  0
 31 66  1  0  0  0  0
 31 85  1  0  0  0  0
 32 33  1  0  0  0  0
 32 35  2  0  0  0  0
 32 45  1  0  0  0  0
 33 66  1  0  0  0  0
 33 75  2  0  0  0  0
 34 36  2  0  0  0  0
 35 82  1  0  0  0  0
 36 60  1  0  0  0  0
 37 70  1  0  0  0  0
 37 76  2  0  0  0  0
 38 53  1  0  0  0  0
 38 71  1  0  0  0  0
 38 77  2  0  0  0  0
 39 61  1  0  0  0  0
 39 67  1  0  0  0  0
 39 78  2  0  0  0  0
 40 62  1  0  0  0  0
 40 72  1  0  0  0  0
 40 79  2  0  0  0  0
 41 68  1  0  0  0  0
 41 73  1  0  0  0  0
 41 80  2  0  0  0  0
 42 46  1  0  0  0  0
 43 53  1  0  0  0  0
 44 67  1  0  0  0  0
 45 66  1  0  0  0  0
 46 48  1  0  0  0  0
 47 49  1  0  0  0  0
 47 50  1  0  0  0  0
 48 52  1  0  0  0  0
 49 54  1  0  0  0  0
 50 68  1  0  0  0  0
 51 54  1  0  0  0  0
 51 68  1  0  0  0  0
 52 71  1  0  0  0  0
 53 67  1  0  0  0  0
 54 65  1  0  0  0  0
 55 62  1  0  0  0  0
 56 63  1  0  0  0  0
 57 63  1  0  0  0  0
 58 63  1  0  0  0  0
 59 74  1  0  0  0  0
 60 73  1  0  0  0  0
 61 63  1  0  0  0  0
 61 72  1  0  0  0  0
 62 74  1  0  0  0  0
 64 65  1  0  0  0  0
M  CHG  1  74   1
M  ISO  4  35 101  41 100  73 100  82 101
M  END
> <Batch ID>
0078

> <Smiles>
C=CC([100NH:0][100C:0](=O)N1CCCC(n2nc(-c3ccc(Oc4ccc(F)cc4F)cc3)c(C(N)=O)c2N)C1)c1ccc(N2CC(=[101CH:1][101O:1]c3ccc4c(c3)CN(C(=O)C(NC(=O)C(C)NC)C(C)(C)C)C(C(=O)NC3CCCc5ccccc53)C4)C2=O)s1

> <Shape>
0.237

> <Color>
0.105

> <Negative vol penalty>
0.000

$$$$

  -OEChem-04042323563D

 88 97  0     1  0  0  0  0  0999 V2000
  -29.1355  -36.1521   22.8445 C   0  0  0  0  0  0  0  0  0  0  0  0
  -29.0667  -34.7897   23.1176 C   0  0  0  0  0  0  0  0  0  0  0  0
  -23.5948  -10.0134   22.1014 C   0  0  0  0  0  0  0  0  0  0  0  0
  -22.7852  -12.2387   21.6220 C   0  0  0  0  0  0  0  0  0  0  0  0
  -27.9661  -36.9083   22.7774 C   0  0  0  0  0  0  0  0  0  0  0  0
  -27.8284  -34.1830   23.3249 C   0  0  0  0  0  0  0  0  0  0  0  0
  -27.3856  -29.7805   20.8618 C   0  0  0  0  0  0  0  0  0  0  0  0
  -22.6501   -9.8892   23.1201 C   0  0  0  0  0  0  0  0  0  0  0  0
  -21.8405  -12.1144   22.6407 C   0  0  0  0  0  0  0  0  0  0  0  0
  -28.0153  -28.6706   21.4233 C   0  0  0  0  0  0  0  0  0  0  0  0
  -19.3444   -9.2300   23.3850 C   0  0  0  0  0  0  0  0  0  0  0  0
  -18.6245   -8.0376   23.4596 C   0  0  0  0  0  0  0  0  0  0  0  0
  -25.9056  -27.9455   22.3411 C   0  0  0  0  0  0  0  0  0  0  0  0
  -30.1085  -18.0950   20.2594 C   0  0  0  0  0  0  0  0  0  0  0  0
  -27.8339  -18.2380   19.4579 C   0  0  0  0  0  0  0  0  0  0  0  0
  -19.4905   -7.6539   25.6822 C   0  0  0  0  0  0  0  0  0  0  0  0
  -23.6623  -11.1882   21.3523 C   0  0  0  0  0  0  0  0  0  0  0  0
  -24.4795  -10.9679   18.9458 C   0  0  0  0  0  0  0  0  0  0  0  0
  -26.7122  -36.3087   22.9743 C   0  0  0  0  0  0  0  0  0  0  0  0
  -26.0108  -29.9873   21.0452 C   0  0  0  0  0  0  0  0  0  0  0  0
  -26.6412  -34.9322   23.2617 C   0  0  0  0  0  0  0  0  0  0  0  0
  -25.2603  -29.0574   21.7787 C   0  0  0  0  0  0  0  0  0  0  0  0
  -28.9867  -20.2334   20.1835 C   0  0  0  0  0  0  0  0  0  0  0  0
  -28.9661  -17.4775   19.7505 C   0  0  0  0  0  0  0  0  0  0  0  0
  -21.7730  -10.9397   23.3898 C   0  0  0  0  0  0  0  0  0  0  0  0
  -27.2759  -27.7544   22.1655 C   0  0  0  0  0  0  0  0  0  0  0  0
  -20.1374   -9.6343   24.4589 C   0  0  0  0  0  0  0  0  0  0  0  0
  -30.1188  -19.4729   20.4760 C   0  0  0  0  0  0  0  0  0  0  0  0
  -18.6975   -7.2495   24.6082 C   0  0  0  0  0  0  0  0  0  0  0  0
  -27.8442  -19.6159   19.6744 C   0  0  0  0  0  0  0  0  0  0  0  0
  -20.2104   -8.8462   25.6075 C   0  0  0  0  0  0  0  0  0  0  0  0
  -24.6383  -11.3173   20.3003 C   0  0  0  0  0  0  0  0  0  0  0  0
  -25.6845  -11.2824   18.3665 C   0  0  0  0  0  0  0  0  0  0  0  0
  -29.0941  -23.7518   21.3337 C   0  0  0  0  0  0  0  0  0  0  0  0
  -29.1842  -22.2965   21.6265 C   0  0  0  0  0  0  0  0  0  0  0  0
  -29.1142  -24.6825   22.2908 C   0  0  0  0  0  0  0  0  0  0  0  0
  -23.3442  -10.4091   18.2716 C   0  0  0  0  0  0  0  0  0  0  0  0
  -24.2455  -32.2512   22.4098 C   0  0  0  0  0  0  0  0  0  0  0  0
  -21.7871  -30.5379   21.1675 C   0  0  0  0  0  0  0  0  0  0  0  0
  -20.6316  -27.5345   20.0313 C   0  0  0  0  0  0  0  0  0  0  0  0
  -29.9940  -15.1776   19.7668 C   0  0  0  0  0  0  0  0  0  0  0  0
  -25.4790  -37.1762   22.9388 C   0  0  0  0  0  0  0  0  0  0  0  0
  -25.3415  -31.1754   20.4105 C   0  0  0  0  0  0  0  0  0  0  0  0
  -23.7780  -29.2230   21.9879 C   0  0  0  0  0  0  0  0  0  0  0  0
  -28.9600  -23.9762   19.8682 C   0  0  0  0  0  0  0  0  0  0  0  0
  -24.1812  -36.3846   22.7999 C   0  0  0  0  0  0  0  0  0  0  0  0
  -30.3479  -11.6548   19.3903 C   0  0  0  0  0  0  0  0  0  0  0  0
  -24.1686  -35.2060   23.7682 C   0  0  0  0  0  0  0  0  0  0  0  0
  -28.9090  -11.1373   19.4516 C   0  0  0  0  0  0  0  0  0  0  0  0
  -28.6894  -22.5817   19.3279 C   0  0  0  0  0  0  0  0  0  0  0  0
  -30.5691  -12.8295   20.3416 C   0  0  0  0  0  0  0  0  0  0  0  0
  -28.1792  -13.4207   20.2519 C   0  0  0  0  0  0  0  0  0  0  0  0
  -25.3151  -34.2330   23.4678 C   0  0  1  0  0  0  0  0  0  0  0  0
  -24.0323  -31.5591   21.0933 C   0  0  1  0  0  0  0  0  0  0  0  0
  -27.8909  -12.2791   19.2633 C   0  0  2  0  0  0  0  0  0  0  0  0
  -18.5693  -26.4356   19.1167 C   0  0  0  0  0  0  0  0  0  0  0  0
  -20.5853  -30.4655   23.9712 C   0  0  0  0  0  0  0  0  0  0  0  0
  -19.0900  -28.6086   23.2067 C   0  0  0  0  0  0  0  0  0  0  0  0
  -18.9310  -30.8564   22.1368 C   0  0  0  0  0  0  0  0  0  0  0  0
  -21.9775  -26.8666   17.4815 C   0  0  0  0  0  0  0  0  0  0  0  0
  -32.2086  -20.5159   20.0278 C   0  0  0  0  0  0  0  0  0  0  0  0
  -29.0256  -26.1495   22.0289 C   0  0  0  0  0  0  0  0  0  1  0  0
  -20.9325  -29.3906   21.6495 C   0  0  1  0  0  0  0  0  0  0  0  0
  -19.8624  -27.1603   18.7772 C   0  0  2  0  0  0  0  0  0  0  0  0
  -19.9130  -29.8279   22.7389 C   0  0  0  0  0  0  0  0  0  0  0  0
  -25.8488  -11.8155   20.5657 N   0  0  0  0  0  0  0  0  0  0  0  0
  -26.4617  -11.7813   19.3702 N   0  0  0  0  0  0  0  0  0  0  0  0
  -28.9842  -21.6462   20.4020 N   0  0  0  0  0  0  0  0  0  0  0  0
  -23.1705  -30.4041   21.3527 N   0  0  0  0  0  0  0  0  0  0  0  0
  -29.5709  -13.8741   20.1023 N   0  0  0  0  0  0  0  0  0  0  0  0
  -26.1445  -11.1781   17.1017 N   0  0  0  0  0  0  0  0  0  0  0  0
  -22.1865  -10.1477   19.0169 N   0  0  0  0  0  0  0  0  0  0  0  0
  -28.9556  -16.0778   19.5302 N   0  0  0  0  0  0  0  0  0  0  0  0
  -24.9926  -33.4103   22.3217 N   0  0  0  0  0  0  0  0  0  0  0  0
  -20.3221  -28.8081   20.4593 N   0  0  0  0  0  0  0  0  0  0  0  0
  -20.6861  -26.2707   17.9104 N   0  3  0  0  0  0  0  0  0  0  0  0
  -29.3866  -21.8495   22.7433 O   0  0  0  0  0  0  0  0  0  0  0  0
  -23.3617  -10.1341   17.0478 O   0  0  0  0  0  0  0  0  0  0  0  0
  -23.7663  -31.7700   23.4299 O   0  0  0  0  0  0  0  0  0  0  0  0
  -21.2478  -31.5136   20.6396 O   0  0  0  0  0  0  0  0  0  0  0  0
  -21.4247  -26.7717   20.5788 O   0  0  0  0  0  0  0  0  0  0  0  0
  -31.1893  -15.4667   19.6679 O   0  0  0  0  0  0  0  0  0  0  0  0
  -20.8509  -10.8187   24.3836 O   0  0  0  0  0  0  0  0  0  0  0  0
  -31.2456  -20.0566   20.9737 O   0  0  0  0  0  0  0  0  0  0  0  0
  -27.8882  -26.6705   22.7153 O   0  0  0  0  0  0  0  0  0  1  0  0
  -18.0049   -6.1053   24.6803 F   0  0  0  0  0  0  0  0  0  0  0  0
  -26.7495  -20.3358   19.3891 F   0  0  0  0  0  0  0  0  0  0  0  0
  -20.9696   -9.2300   26.6429 F   0  0  0  0  0  0  0  0  0  0  0  0
  1  2  1  0  0  0  0
  1  5  2  0  0  0  0
  2  6  2  0  0  0  0
  3  8  2  0  0  0  0
  3 17  1  0  0  0  0
  4  9  1  0  0  0  0
  4 17  2  0  0  0  0
  5 19  1  0  0  0  0
  6 21  1  0  0  0  0
  7 10  2  0  0  0  0
  7 20  1  0  0  0  0
  8 25  1  0  0  0  0
  9 25  2  0  0  0  0
 10 26  1  0  0  0  0
 11 12  2  0  0  0  0
 11 27  1  0  0  0  0
 12 29  1  0  0  0  0
 13 22  1  0  0  0  0
 13 26  2  0  0  0  0
 14 24  2  0  0  0  0
 14 28  1  0  0  0  0
 15 24  1  0  0  0  0
 15 30  2  0  0  0  0
 16 29  2  0  0  0  0
 16 31  1  0  0  0  0
 17 32  1  0  0  0  0
 18 32  1  0  0  0  0
 18 33  2  0  0  0  0
 18 37  1  0  0  0  0
 19 21  2  0  0  0  0
 19 42  1  0  0  0  0
 20 22  2  0  0  0  0
 20 43  1  0  0  0  0
 21 53  1  0  0  0  0
 22 44  1  0  0  0  0
 23 28  2  0  0  0  0
 23 30  1  0  0  0  0
 23 68  1  0  0  0  0
 24 73  1  0  0  0  0
 25 83  1  0  0  0  0
 26 85  1  0  0  0  0
 27 31  2  0  0  0  0
 27 83  1  0  0  0  0
 28 84  1  0  0  0  0
 29 86  1  0  0  0  0
 30 87  1  0  0  0  0
 31 88  1  0  0  0  0
 32 66  2  0  0  0  0
 33 67  1  0  0  0  0
 33 71  1  0  0  0  0
 34 35  1  0  0  0  0
 34 36  2  0  0  0  0
 34 45  1  0  0  0  0
 35 68  1  0  0  0  0
 35 77  2  0  0  0  0
 36 62  1  0  0  0  0
 37 72  1  0  0  0  0
 37 78  2  0  0  0  0
 38 54  1  0  0  0  0
 38 74  1  0  0  0  0
 38 79  2  0  0  0  0
 39 63  1  0  0  0  0
 39 69  1  0  0  0  0
 39 80  2  0  0  0  0
 40 64  1  0  0  0  0
 40 75  1  0  0  0  0
 40 81  2  0  0  0  0
 41 70  1  0  0  0  0
 41 73  1  0  0  0  0
 41 82  2  0  0  0  0
 42 46  1  0  0  0  0
 43 54  1  0  0  0  0
 44 69  1  0  0  0  0
 45 50  1  0  0  0  0
 46 48  1  0  0  0  0
 47 49  1  0  0  0  0
 47 51  1  0  0  0  0
 48 53  1  0  0  0  0
 49 55  1  0  0  0  0
 50 68  1  0  0  0  0
 51 70  1  0  0  0  0
 52 55  1  0  0  0  0
 52 70  1  0  0  0  0
 53 74  1  0  0  0  0
 54 69  1  0  0  0  0
 55 67  1  0  0  0  0
 56 64  1  0  0  0  0
 57 65  1  0  0  0  0
 58 65  1  0  0  0  0
 59 65  1  0  0  0  0
 60 76  1  0  0  0  0
 61 84  1  0  0  0  0
 62 85  1  0  0  0  0
 63 65  1  0  0  0  0
 63 75  1  0  0  0  0
 64 76  1  0  0  0  0
 66 67  1  0  0  0  0
M  CHG  1  76   1
M  ISO  4  41 100  62 101  73 100  85 101
M  END
> <Batch ID>
0078

> <Smiles>
CNC(C)C(=O)NC(C(=O)N1Cc2cc([101O:1][101CH2:1]C=C3CCN(c4c(F)cc([100NH:0][100C:0](=O)N5CCCC(n6nc(-c7ccc(Oc8ccc(F)cc8F)cc7)c(C(N)=O)c6N)C5)cc4OC)C3=O)ccc2CC1C(=O)NC1CCCc2ccccc21)C(C)(C)C

> <Shape>
0.296

> <Color>
0.075

> <Negative vol penalty>
0.000

$$$$

  -OEChem-04042323563D

 84 93  0     1  0  0  0  0  0999 V2000
  -24.3376  -28.5432   17.0733 C   0  0  0  0  0  0  0  0  0  0  0  0
  -24.2938  -27.1685   17.2822 C   0  0  0  0  0  0  0  0  0  0  0  0
  -21.4930  -12.4354   21.8807 C   0  0  0  0  0  0  0  0  0  0  0  0
  -22.2056  -11.6335   20.9893 C   0  0  0  0  0  0  0  0  0  0  0  0
  -30.2329  -19.8722   19.4542 C   0  0  0  0  0  0  0  0  0  0  0  0
  -28.2338  -20.0718   20.7962 C   0  0  0  0  0  0  0  0  0  0  0  0
  -25.0506  -29.3582   17.9514 C   0  0  0  0  0  0  0  0  0  0  0  0
  -24.9640  -26.6079   18.3689 C   0  0  0  0  0  0  0  0  0  0  0  0
  -23.1993  -21.7718   21.6862 C   0  0  0  0  0  0  0  0  0  0  0  0
  -22.1518  -13.4291   22.6048 C   0  0  0  0  0  0  0  0  0  0  0  0
  -23.5771  -11.8252   20.8219 C   0  0  0  0  0  0  0  0  0  0  0  0
  -29.9703  -21.1150   18.8780 C   0  0  0  0  0  0  0  0  0  0  0  0
  -27.9712  -21.3147   20.2200 C   0  0  0  0  0  0  0  0  0  0  0  0
  -23.5626  -20.4263   21.6495 C   0  0  0  0  0  0  0  0  0  0  0  0
  -30.0189  -24.3977   17.3169 C   0  0  0  0  0  0  0  0  0  0  0  0
  -31.0816  -25.2926   17.1928 C   0  0  0  0  0  0  0  0  0  0  0  0
  -25.1669  -20.8177   23.4079 C   0  0  0  0  0  0  0  0  0  0  0  0
  -31.3819  -25.2685   19.5900 C   0  0  0  0  0  0  0  0  0  0  0  0
  -29.3647  -19.3506   20.4132 C   0  0  0  0  0  0  0  0  0  0  0  0
  -30.3887  -17.8095   22.1694 C   0  0  0  0  0  0  0  0  0  0  0  0
  -25.7219  -28.8084   19.0549 C   0  0  0  0  0  0  0  0  0  0  0  0
  -23.8259  -22.6542   22.5780 C   0  0  0  0  0  0  0  0  0  0  0  0
  -25.6878  -27.4162   19.2619 C   0  0  0  0  0  0  0  0  0  0  0  0
  -24.8080  -22.1734   23.4557 C   0  0  0  0  0  0  0  0  0  0  0  0
  -23.5233  -13.6208   22.4375 C   0  0  0  0  0  0  0  0  0  0  0  0
  -24.2359  -12.8188   21.5460 C   0  0  0  0  0  0  0  0  0  0  0  0
  -28.8394  -21.8363   19.2609 C   0  0  0  0  0  0  0  0  0  0  0  0
  -24.5486  -19.9496   22.5084 C   0  0  0  0  0  0  0  0  0  0  0  0
  -29.6376  -23.9382   18.5776 C   0  0  0  0  0  0  0  0  0  0  0  0
  -31.7631  -25.7280   18.3293 C   0  0  0  0  0  0  0  0  0  0  0  0
  -30.3191  -24.3736   19.7141 C   0  0  0  0  0  0  0  0  0  0  0  0
  -29.6352  -18.0665   21.0084 C   0  0  0  0  0  0  0  0  0  0  0  0
  -30.3463  -16.4439   22.3109 C   0  0  0  0  0  0  0  0  0  0  0  0
  -24.3401  -15.9222   22.8049 C   0  0  0  0  0  0  0  0  0  0  0  0
  -24.9957  -16.6196   23.7427 C   0  0  0  0  0  0  0  0  0  0  0  0
  -25.2952  -15.7244   24.8500 C   0  0  0  0  0  0  0  0  0  0  0  0
  -25.9366  -16.0176   25.9855 C   0  0  0  0  0  0  0  0  0  0  0  0
  -31.0662  -18.7233   23.0420 C   0  0  0  0  0  0  0  0  0  0  0  0
  -25.6080  -25.2678   22.2671 C   0  0  0  0  0  0  0  0  0  0  0  0
  -25.3395  -25.3630   25.4984 C   0  0  0  0  0  0  0  0  0  0  0  0
  -24.7869  -23.6719   28.4107 C   0  0  0  0  0  0  0  0  0  0  0  0
  -26.4662  -12.2718   20.5101 C   0  0  0  0  0  0  0  0  0  0  0  0
  -26.5188  -29.7242   19.9500 C   0  0  0  0  0  0  0  0  0  0  0  0
  -23.4038  -24.0971   22.6237 C   0  0  0  0  0  0  0  0  0  0  0  0
  -25.4967  -23.0754   24.4459 C   0  0  0  0  0  0  0  0  0  0  0  0
  -24.7395  -14.3565   24.4889 C   0  0  0  0  0  0  0  0  0  0  0  0
  -26.8911  -29.0940   21.2896 C   0  0  0  0  0  0  0  0  0  0  0  0
  -29.9392  -12.4237   19.7406 C   0  0  0  0  0  0  0  0  0  0  0  0
  -27.4360  -27.6843   21.0834 C   0  0  0  0  0  0  0  0  0  0  0  0
  -30.3253  -13.8628   20.0898 C   0  0  0  0  0  0  0  0  0  0  0  0
  -28.5374  -12.3427   19.1389 C   0  0  0  0  0  0  0  0  0  0  0  0
  -27.8674  -14.4171   20.2866 C   0  0  0  0  0  0  0  0  0  0  0  0
  -26.3814  -26.7734   20.4434 C   0  0  1  0  0  0  0  0  0  0  0  0
  -24.4706  -25.0133   23.2154 C   0  0  1  0  0  0  0  0  0  0  0  0
  -29.2460  -14.5416   20.9558 C   0  0  2  0  0  0  0  0  0  0  0  0
  -24.6674  -24.0124   30.8941 C   0  0  0  0  0  0  0  0  0  0  0  0
  -28.3845  -25.5145   25.6218 C   0  0  0  0  0  0  0  0  0  0  0  0
  -28.2474  -24.8985   28.0446 C   0  0  0  0  0  0  0  0  0  0  0  0
  -27.1992  -27.0127   27.2357 C   0  0  0  0  0  0  0  0  0  0  0  0
  -21.9636  -22.7903   28.5125 C   0  0  0  0  0  0  0  0  0  0  0  0
  -25.3662  -18.0571   23.6941 C   0  0  0  0  0  0  0  0  0  1  0  0
  -26.1292  -24.7972   26.6539 C   0  0  1  0  0  0  0  0  0  0  0  0
  -23.8820  -23.9701   29.5925 C   0  0  2  0  0  0  0  0  0  0  0  0
  -27.4787  -25.5389   26.8691 C   0  0  0  0  0  0  0  0  0  0  0  0
  -29.1498  -16.9536   20.4517 N   0  0  0  0  0  0  0  0  0  0  0  0
  -29.5994  -15.9840   21.2665 N   0  0  0  0  0  0  0  0  0  0  0  0
  -24.1510  -14.6040   23.1597 N   0  0  0  0  0  0  0  0  0  0  0  0
  -25.0537  -24.4794   24.4480 N   0  0  0  0  0  0  0  0  0  0  0  0
  -27.5674  -13.0024   20.0158 N   0  0  0  0  0  0  0  0  0  0  0  0
  -30.8755  -15.6038   23.2255 N   0  0  0  0  0  0  0  0  0  0  0  0
  -31.0082  -20.0930   22.7505 N   0  0  0  0  0  0  0  0  0  0  0  0
  -25.6296  -12.9945   21.3601 N   0  0  0  0  0  0  0  0  0  0  0  0
  -25.4120  -26.3507   21.4313 N   0  0  0  0  0  0  0  0  0  0  0  0
  -25.2398  -24.8274   27.8099 N   0  0  0  0  0  0  0  0  0  0  0  0
  -22.8270  -22.9245   29.7139 N   0  3  0  0  0  0  0  0  0  0  0  0
  -31.7179  -18.3354   24.0412 O   0  0  0  0  0  0  0  0  0  0  0  0
  -26.5912  -24.5369   22.2928 O   0  0  0  0  0  0  0  0  0  0  0  0
  -24.9831  -26.5435   25.5300 O   0  0  0  0  0  0  0  0  0  0  0  0
  -25.0672  -22.5284   28.0583 O   0  0  0  0  0  0  0  0  0  0  0  0
  -26.2940  -11.0843   20.2237 O   0  0  0  0  0  0  0  0  0  0  0  0
  -28.5829  -23.0492   18.6991 O   0  0  0  0  0  0  0  0  0  0  0  0
  -24.9055  -18.6369   22.4743 O   0  0  0  0  0  0  0  0  0  1  0  0
  -32.7846  -26.5861   18.2098 F   0  0  0  0  0  0  0  0  0  0  0  0
  -29.9582  -23.9348   20.9277 F   0  0  0  0  0  0  0  0  0  0  0  0
  1  2  1  0  0  0  0
  1  7  2  0  0  0  0
  2  8  2  0  0  0  0
  3  4  1  0  0  0  0
  3 10  2  0  0  0  0
  4 11  2  0  0  0  0
  5 12  2  0  0  0  0
  5 19  1  0  0  0  0
  6 13  1  0  0  0  0
  6 19  2  0  0  0  0
  7 21  1  0  0  0  0
  8 23  1  0  0  0  0
  9 14  2  0  0  0  0
  9 22  1  0  0  0  0
 10 25  1  0  0  0  0
 11 26  1  0  0  0  0
 12 27  1  0  0  0  0
 13 27  2  0  0  0  0
 14 28  1  0  0  0  0
 15 16  2  0  0  0  0
 15 29  1  0  0  0  0
 16 30  1  0  0  0  0
 17 24  1  0  0  0  0
 17 28  2  0  0  0  0
 18 30  2  0  0  0  0
 18 31  1  0  0  0  0
 19 32  1  0  0  0  0
 20 32  1  0  0  0  0
 20 33  2  0  0  0  0
 20 38  1  0  0  0  0
 21 23  2  0  0  0  0
 21 43  1  0  0  0  0
 22 24  2  0  0  0  0
 22 44  1  0  0  0  0
 23 53  1  0  0  0  0
 24 45  1  0  0  0  0
 25 26  2  0  0  0  0
 25 67  1  0  0  0  0
 26 72  1  0  0  0  0
 27 81  1  0  0  0  0
 28 82  1  0  0  0  0
 29 31  2  0  0  0  0
 29 81  1  0  0  0  0
 30 83  1  0  0  0  0
 31 84  1  0  0  0  0
 32 65  2  0  0  0  0
 33 66  1  0  0  0  0
 33 70  1  0  0  0  0
 34 35  2  0  0  0  0
 34 67  1  0  0  0  0
 35 36  1  0  0  0  0
 35 61  1  0  0  0  0
 36 37  2  0  0  0  0
 36 46  1  0  0  0  0
 38 71  1  0  0  0  0
 38 76  2  0  0  0  0
 39 54  1  0  0  0  0
 39 73  1  0  0  0  0
 39 77  2  0  0  0  0
 40 62  1  0  0  0  0
 40 68  1  0  0  0  0
 40 78  2  0  0  0  0
 41 63  1  0  0  0  0
 41 74  1  0  0  0  0
 41 79  2  0  0  0  0
 42 69  1  0  0  0  0
 42 72  1  0  0  0  0
 42 80  2  0  0  0  0
 43 47  1  0  0  0  0
 44 54  1  0  0  0  0
 45 68  1  0  0  0  0
 46 67  1  0  0  0  0
 47 49  1  0  0  0  0
 48 50  1  0  0  0  0
 48 51  1  0  0  0  0
 49 53  1  0  0  0  0
 50 55  1  0  0  0  0
 51 69  1  0  0  0  0
 52 55  1  0  0  0  0
 52 69  1  0  0  0  0
 53 73  1  0  0  0  0
 54 68  1  0  0  0  0
 55 66  1  0  0  0  0
 56 63  1  0  0  0  0
 57 64  1  0  0  0  0
 58 64  1  0  0  0  0
 59 64  1  0  0  0  0
 60 75  1  0  0  0  0
 61 82  1  0  0  0  0
 62 64  1  0  0  0  0
 62 74  1  0  0  0  0
 63 75  1  0  0  0  0
 65 66  1  0  0  0  0
M  CHG  1  75   1
M  ISO  4  42 100  61 101  72 100  82 101
M  END
> <Batch ID>
0078

> <Smiles>
C=C1CN(c2ccccc2[100NH:0][100C:0](=O)N2CCCC(n3nc(-c4ccc(Oc5ccc(F)cc5F)cc4)c(C(N)=O)c3N)C2)C=C1[101CH2:1][101O:1]c1ccc2c(c1)CN(C(=O)C(NC(=O)C(C)NC)C(C)(C)C)C(C(=O)NC1CCCc3ccccc31)C2

> <Shape>
0.207

> <Color>
0.055

> <Negative vol penalty>
0.000

$$$$

  -OEChem-04042323563D

 89 98  0     1  0  0  0  0  0999 V2000
  -23.8024  -36.2525   23.9782 C   0  0  0  0  0  0  0  0  0  0  0  0
  -23.6163  -34.9287   24.3601 C   0  0  0  0  0  0  0  0  0  0  0  0
  -23.8532   -8.4980   19.7279 C   0  0  0  0  0  0  0  0  0  0  0  0
  -22.4665   -9.4863   21.4418 C   0  0  0  0  0  0  0  0  0  0  0  0
  -23.4232  -36.6659   22.7029 C   0  0  0  0  0  0  0  0  0  0  0  0
  -23.0621  -34.0152   23.4627 C   0  0  0  0  0  0  0  0  0  0  0  0
  -25.2578  -28.0617   19.0363 C   0  0  0  0  0  0  0  0  0  0  0  0
  -24.0312   -7.3668   20.5242 C   0  0  0  0  0  0  0  0  0  0  0  0
  -22.6444   -8.3550   22.2381 C   0  0  0  0  0  0  0  0  0  0  0  0
  -26.5784  -27.6186   18.9600 C   0  0  0  0  0  0  0  0  0  0  0  0
  -22.4388   -5.5750   24.5721 C   0  0  0  0  0  0  0  0  0  0  0  0
  -21.3147   -5.0411   25.2022 C   0  0  0  0  0  0  0  0  0  0  0  0
  -27.1046  -20.5962   18.4705 C   0  0  0  0  0  0  0  0  0  0  0  0
  -27.1577  -28.9821   20.8713 C   0  0  0  0  0  0  0  0  0  0  0  0
  -20.2791   -4.6808   23.0493 C   0  0  0  0  0  0  0  0  0  0  0  0
  -28.8259  -19.5152   19.7055 C   0  0  0  0  0  0  0  0  0  0  0  0
  -23.0709   -9.5579   20.1867 C   0  0  0  0  0  0  0  0  0  0  0  0
  -27.6468  -19.4232   18.9836 C   0  0  0  0  0  0  0  0  0  0  0  0
  -22.3147  -10.7814   18.0798 C   0  0  0  0  0  0  0  0  0  0  0  0
  -22.8527  -35.7592   21.7944 C   0  0  0  0  0  0  0  0  0  0  0  0
  -24.8783  -28.9560   20.0412 C   0  0  0  0  0  0  0  0  0  0  0  0
  -22.6951  -34.4076   22.1628 C   0  0  0  0  0  0  0  0  0  0  0  0
  -25.8336  -29.4198   20.9604 C   0  0  0  0  0  0  0  0  0  0  0  0
  -23.4268   -7.2952   21.7793 C   0  0  0  0  0  0  0  0  0  0  0  0
  -27.5260  -28.0779   19.8751 C   0  0  0  0  0  0  0  0  0  0  0  0
  -22.4831   -5.6618   23.1806 C   0  0  0  0  0  0  0  0  0  0  0  0
  -20.2349   -4.5940   24.4408 C   0  0  0  0  0  0  0  0  0  0  0  0
  -27.7489  -21.8083   18.6918 C   0  0  0  0  0  0  0  0  0  0  0  0
  -21.4032   -5.2147   22.4192 C   0  0  0  0  0  0  0  0  0  0  0  0
  -22.8871  -10.7270   19.3648 C   0  0  0  0  0  0  0  0  0  0  0  0
  -28.9233  -21.7936   19.4269 C   0  0  0  0  0  0  0  0  0  0  0  0
  -22.3718  -12.1095   17.7345 C   0  0  0  0  0  0  0  0  0  0  0  0
  -29.0836  -24.2471   19.1620 C   0  0  0  0  0  0  0  0  0  0  0  0
  -29.6648  -25.4455   19.3465 C   0  0  0  0  0  0  0  0  0  0  0  0
  -31.1804  -24.3153   20.9867 C   0  0  0  0  0  0  0  0  0  0  0  0
  -31.5884  -24.3796   22.2634 C   0  0  0  0  0  0  0  0  0  0  0  0
  -26.9843  -18.1154   18.7650 C   0  0  0  0  0  0  0  0  0  0  0  0
  -21.7792   -9.7257   17.2708 C   0  0  0  0  0  0  0  0  0  0  0  0
  -22.1183  -30.9493   21.6175 C   0  0  0  0  0  0  0  0  0  0  0  0
  -23.8128  -29.8087   23.9061 C   0  0  0  0  0  0  0  0  0  0  0  0
  -22.0350  -26.9484   24.4495 C   0  0  0  0  0  0  0  0  0  0  0  0
  -24.9794  -16.9521   17.7200 C   0  0  0  0  0  0  0  0  0  0  0  0
  -22.4676  -36.2586   20.4241 C   0  0  0  0  0  0  0  0  0  0  0  0
  -23.4808  -29.5074   20.1238 C   0  0  0  0  0  0  0  0  0  0  0  0
  -25.3877  -30.4081   22.0032 C   0  0  0  0  0  0  0  0  0  0  0  0
  -30.9253  -25.5600   20.1684 C   0  0  0  0  0  0  0  0  0  0  0  0
  -30.8988  -22.9959   20.2998 C   0  0  0  0  0  0  0  0  0  0  0  0
  -21.4892  -35.3336   19.7075 C   0  0  0  0  0  0  0  0  0  0  0  0
  -24.4917  -15.1168   20.9775 C   0  0  0  0  0  0  0  0  0  0  0  0
  -21.9932  -33.8993   19.7645 C   0  0  0  0  0  0  0  0  0  0  0  0
  -23.1364  -14.7423   20.3775 C   0  0  0  0  0  0  0  0  0  0  0  0
  -25.2358  -16.1345   20.1080 C   0  0  0  0  0  0  0  0  0  0  0  0
  -24.6109  -14.5685   18.2907 C   0  0  0  0  0  0  0  0  0  0  0  0
  -22.0660  -33.4032   21.2142 C   0  0  1  0  0  0  0  0  0  0  0  0
  -23.0097  -29.7433   21.5701 C   0  0  1  0  0  0  0  0  0  0  0  0
  -23.2497  -14.2288   18.9222 C   0  0  1  0  0  0  0  0  0  0  0  0
  -23.0004  -25.5023   22.6400 C   0  0  0  0  0  0  0  0  0  0  0  0
  -20.5857  -31.0463   25.0516 C   0  0  0  0  0  0  0  0  0  0  0  0
  -20.3290  -29.8186   22.8848 C   0  0  0  0  0  0  0  0  0  0  0  0
  -22.0520  -31.6090   23.1053 C   0  0  0  0  0  0  0  0  0  0  0  0
  -25.4124  -19.3243   17.3481 C   0  0  0  0  0  0  0  0  0  0  0  0
  -19.5752  -24.7758   23.0904 C   0  0  0  0  0  0  0  0  0  0  0  0
  -29.1189  -26.7097   18.7577 C   0  0  0  0  0  0  0  0  0  1  0  0
  -22.4098  -29.3942   24.2709 C   0  0  1  0  0  0  0  0  0  0  0  0
  -21.8364  -25.7082   23.5968 C   0  0  2  0  0  0  0  0  0  0  0  0
  -21.3512  -30.4531   23.8519 C   0  0  0  0  0  0  0  0  0  0  0  0
  -29.4805  -20.6743   19.9412 N   0  0  0  0  0  0  0  0  0  0  0  0
  -23.2791  -11.9253   19.8058 N   0  0  0  0  0  0  0  0  0  0  0  0
  -22.9526  -12.7451   18.7922 N   0  0  0  0  0  0  0  0  0  0  0  0
  -29.5721  -23.0386   19.6466 N   0  0  0  0  0  0  0  0  0  0  0  0
  -24.0797  -30.0094   22.5464 N   0  0  0  0  0  0  0  0  0  0  0  0
  -25.0218  -15.9167   18.6712 N   0  0  0  0  0  0  0  0  0  0  0  0
  -21.9814  -12.7839   16.6321 N   0  0  0  0  0  0  0  0  0  0  0  0
  -20.4190   -9.4122   17.3961 N   0  0  0  0  0  0  0  0  0  0  0  0
  -22.7411  -32.1244   21.2421 N   0  0  0  0  0  0  0  0  0  0  0  0
  -22.2056  -28.0775   23.6767 N   0  0  0  0  0  0  0  0  0  0  0  0
  -25.7789  -18.0845   18.0174 N   0  0  0  0  0  0  0  0  0  0  0  0
  -20.5849  -25.8251   22.7962 N   0  3  0  0  0  0  0  0  0  0  0  0
  -27.5093  -17.1230   19.2701 O   0  0  0  0  0  0  0  0  0  0  0  0
  -22.4897   -9.0686   16.4727 O   0  0  0  0  0  0  0  0  0  0  0  0
  -20.9505  -30.8241   21.9673 O   0  0  0  0  0  0  0  0  0  0  0  0
  -24.6528  -29.9459   24.7999 O   0  0  0  0  0  0  0  0  0  0  0  0
  -22.0348  -26.9190   25.6782 O   0  0  0  0  0  0  0  0  0  0  0  0
  -24.3094  -16.8908   16.6837 O   0  0  0  0  0  0  0  0  0  0  0  0
  -23.6001   -6.1914   22.5565 O   0  0  0  0  0  0  0  0  0  0  0  0
  -28.8125  -27.6377   19.7976 O   0  0  0  0  0  0  0  0  0  1  0  0
  -19.1561   -4.0799   25.0459 F   0  0  0  0  0  0  0  0  0  0  0  0
  -27.2382  -22.9458   18.2036 F   0  0  0  0  0  0  0  0  0  0  0  0
  -21.4405   -5.2944   21.0820 F   0  0  0  0  0  0  0  0  0  0  0  0
  1  2  1  0  0  0  0
  1  5  2  0  0  0  0
  2  6  2  0  0  0  0
  3  8  2  0  0  0  0
  3 17  1  0  0  0  0
  4  9  1  0  0  0  0
  4 17  2  0  0  0  0
  5 20  1  0  0  0  0
  6 22  1  0  0  0  0
  7 10  2  0  0  0  0
  7 21  1  0  0  0  0
  8 24  1  0  0  0  0
  9 24  2  0  0  0  0
 10 25  1  0  0  0  0
 11 12  2  0  0  0  0
 11 26  1  0  0  0  0
 12 27  1  0  0  0  0
 13 18  2  0  0  0  0
 13 28  1  0  0  0  0
 14 23  1  0  0  0  0
 14 25  2  0  0  0  0
 15 27  2  0  0  0  0
 15 29  1  0  0  0  0
 16 18  1  0  0  0  0
 16 67  2  0  0  0  0
 17 30  1  0  0  0  0
 18 37  1  0  0  0  0
 19 30  1  0  0  0  0
 19 32  2  0  0  0  0
 19 38  1  0  0  0  0
 20 22  2  0  0  0  0
 20 43  1  0  0  0  0
 21 23  2  0  0  0  0
 21 44  1  0  0  0  0
 22 54  1  0  0  0  0
 23 45  1  0  0  0  0
 24 85  1  0  0  0  0
 25 86  1  0  0  0  0
 26 29  2  0  0  0  0
 26 85  1  0  0  0  0
 27 87  1  0  0  0  0
 28 31  2  0  0  0  0
 28 88  1  0  0  0  0
 29 89  1  0  0  0  0
 30 68  2  0  0  0  0
 31 67  1  0  0  0  0
 31 70  1  0  0  0  0
 32 69  1  0  0  0  0
 32 73  1  0  0  0  0
 33 34  2  0  0  0  0
 33 70  1  0  0  0  0
 34 46  1  0  0  0  0
 34 63  1  0  0  0  0
 35 36  2  0  0  0  0
 35 46  1  0  0  0  0
 35 47  1  0  0  0  0
 37 77  1  0  0  0  0
 37 79  2  0  0  0  0
 38 74  1  0  0  0  0
 38 80  2  0  0  0  0
 39 55  1  0  0  0  0
 39 75  1  0  0  0  0
 39 81  2  0  0  0  0
 40 64  1  0  0  0  0
 40 71  1  0  0  0  0
 40 82  2  0  0  0  0
 41 65  1  0  0  0  0
 41 76  1  0  0  0  0
 41 83  2  0  0  0  0
 42 72  1  0  0  0  0
 42 77  1  0  0  0  0
 42 84  2  0  0  0  0
 43 48  1  0  0  0  0
 44 55  1  0  0  0  0
 45 71  1  0  0  0  0
 47 70  1  0  0  0  0
 48 50  1  0  0  0  0
 49 51  1  0  0  0  0
 49 52  1  0  0  0  0
 50 54  1  0  0  0  0
 51 56  1  0  0  0  0
 52 72  1  0  0  0  0
 53 56  1  0  0  0  0
 53 72  1  0  0  0  0
 54 75  1  0  0  0  0
 55 71  1  0  0  0  0
 56 69  1  0  0  0  0
 57 65  1  0  0  0  0
 58 66  1  0  0  0  0
 59 66  1  0  0  0  0
 60 66  1  0  0  0  0
 61 77  1  0  0  0  0
 62 78  1  0  0  0  0
 63 86  1  0  0  0  0
 64 66  1  0  0  0  0
 64 76  1  0  0  0  0
 65 78  1  0  0  0  0
 68 69  1  0  0  0  0
M  CHG  1  78   1
M  ISO  4  42 100  63 101  77 100  86 101
M  END
> <Batch ID>
0078

> <Smiles>
C=C1CC([101CH2:1][101O:1]c2ccc3c(c2)CN(C(=O)C(NC(=O)C(C)NC)C(C)(C)C)C(C(=O)NC2CCCc4ccccc42)C3)=CN(c2ncc(C(=O)[100N:0](C)[100C:0](=O)N3CCCC(n4nc(-c5ccc(Oc6ccc(F)cc6F)cc5)c(C(N)=O)c4N)C3)cc2F)C1

> <Shape>
0.265

> <Color>
0.084

> <Negative vol penalty>
0.000

$$$$

  -OEChem-04042323563D

 88 97  0     1  0  0  0  0  0999 V2000
  -20.5057  -25.3421   25.3017 C   0  0  0  0  0  0  0  0  0  0  0  0
  -21.5719  -25.2480   24.4130 C   0  0  0  0  0  0  0  0  0  0  0  0
  -24.8915  -20.0923   19.6982 C   0  0  0  0  0  0  0  0  0  0  0  0
  -24.8233  -19.6242   22.0675 C   0  0  0  0  0  0  0  0  0  0  0  0
  -19.4623  -26.2306   25.0451 C   0  0  0  0  0  0  0  0  0  0  0  0
  -21.5948  -26.0415   23.2666 C   0  0  0  0  0  0  0  0  0  0  0  0
  -26.1264  -28.1507   22.4538 C   0  0  0  0  0  0  0  0  0  0  0  0
  -31.9839  -22.0728   16.7828 C   0  0  0  0  0  0  0  0  0  0  0  0
  -32.3239  -20.7208   16.7388 C   0  0  0  0  0  0  0  0  0  0  0  0
  -23.5790  -19.6378   19.5707 C   0  0  0  0  0  0  0  0  0  0  0  0
  -23.5108  -19.1697   21.9399 C   0  0  0  0  0  0  0  0  0  0  0  0
  -27.1170  -27.3389   21.9028 C   0  0  0  0  0  0  0  0  0  0  0  0
  -20.3676  -18.2638   18.5592 C   0  0  0  0  0  0  0  0  0  0  0  0
  -20.0747  -17.4145   17.4923 C   0  0  0  0  0  0  0  0  0  0  0  0
  -30.6464  -21.6723   18.7545 C   0  0  0  0  0  0  0  0  0  0  0  0
  -26.6910  -28.3023   19.7327 C   0  0  0  0  0  0  0  0  0  0  0  0
  -30.9141  -26.1106   17.6015 C   0  0  0  0  0  0  0  0  0  0  0  0
  -21.6836  -15.8153   18.3236 C   0  0  0  0  0  0  0  0  0  0  0  0
  -25.5137  -20.0855   20.9467 C   0  0  0  0  0  0  0  0  0  0  0  0
  -30.9864  -20.3202   18.7105 C   0  0  0  0  0  0  0  0  0  0  0  0
  -27.2916  -21.8696   21.3512 C   0  0  0  0  0  0  0  0  0  0  0  0
  -19.4770  -27.0424   23.8999 C   0  0  0  0  0  0  0  0  0  0  0  0
  -25.4020  -29.0381   21.6450 C   0  0  0  0  0  0  0  0  0  0  0  0
  -20.5499  -26.9407   22.9938 C   0  0  0  0  0  0  0  0  0  0  0  0
  -25.6936  -29.1261   20.2763 C   0  0  0  0  0  0  0  0  0  0  0  0
  -29.6699  -25.7797   18.1928 C   0  0  0  0  0  0  0  0  0  0  0  0
  -31.1452  -22.5486   17.7907 C   0  0  0  0  0  0  0  0  0  0  0  0
  -31.8251  -19.8445   17.7026 C   0  0  0  0  0  0  0  0  0  0  0  0
  -22.8886  -19.1765   20.6915 C   0  0  0  0  0  0  0  0  0  0  0  0
  -27.3974  -27.4125   20.5416 C   0  0  0  0  0  0  0  0  0  0  0  0
  -21.3186  -17.8890   19.5083 C   0  0  0  0  0  0  0  0  0  0  0  0
  -20.7326  -16.1902   17.3745 C   0  0  0  0  0  0  0  0  0  0  0  0
  -21.9766  -16.6647   19.3905 C   0  0  0  0  0  0  0  0  0  0  0  0
  -26.8697  -20.5544   21.0790 C   0  0  0  0  0  0  0  0  0  0  0  0
  -28.6627  -21.7920   21.3762 C   0  0  0  0  0  0  0  0  0  0  0  0
  -31.5954  -24.9322   17.3903 C   0  0  0  0  0  0  0  0  0  0  0  0
  -29.6289  -24.4092   18.3251 C   0  0  0  0  0  0  0  0  0  0  0  0
  -29.3127  -18.7636   19.5998 C   0  0  0  0  0  0  0  0  0  0  0  0
  -30.4461  -19.4343   19.7350 C   0  0  0  0  0  0  0  0  0  0  0  0
  -26.5138  -23.0553   21.5626 C   0  0  0  0  0  0  0  0  0  0  0  0
  -22.3408  -29.3614   20.8524 C   0  0  0  0  0  0  0  0  0  0  0  0
  -23.4037  -32.0636   19.4064 C   0  0  0  0  0  0  0  0  0  0  0  0
  -26.0077  -33.7676   18.0055 C   0  0  0  0  0  0  0  0  0  0  0  0
  -32.3033  -17.6220   18.7625 C   0  0  0  0  0  0  0  0  0  0  0  0
  -18.3035  -27.9536   23.6409 C   0  0  0  0  0  0  0  0  0  0  0  0
  -24.3551  -29.9262   22.2595 C   0  0  0  0  0  0  0  0  0  0  0  0
  -24.9585  -30.0769   19.3685 C   0  0  0  0  0  0  0  0  0  0  0  0
  -18.5867  -29.0292   22.5954 C   0  0  0  0  0  0  0  0  0  0  0  0
  -32.2499  -18.7654   22.2814 C   0  0  0  0  0  0  0  0  0  0  0  0
  -19.2710  -28.4208   21.3754 C   0  0  0  0  0  0  0  0  0  0  0  0
  -30.8626  -19.3910   22.4139 C   0  0  0  0  0  0  0  0  0  0  0  0
  -32.2727  -17.6544   21.2360 C   0  0  0  0  0  0  0  0  0  0  0  0
  -30.3882  -18.7158   20.0263 C   0  0  0  0  0  0  0  0  0  0  0  0
  -20.6228  -27.8026   21.7521 C   0  0  1  0  0  0  0  0  0  0  0  0
  -23.3261  -30.4242   21.2492 C   0  0  1  0  0  0  0  0  0  0  0  0
  -30.3484  -19.8651   21.0446 C   0  0  1  0  0  0  0  0  0  0  0  0
  -26.5607  -35.9390   16.8758 C   0  0  0  0  0  0  0  0  0  0  0  0
  -22.0717  -31.0688   16.8479 C   0  0  0  0  0  0  0  0  0  0  0  0
  -23.4302  -32.7414   15.5731 C   0  0  0  0  0  0  0  0  0  0  0  0
  -21.7910  -33.5148   17.2871 C   0  0  0  0  0  0  0  0  0  0  0  0
  -32.7293  -17.9505   16.3662 C   0  0  0  0  0  0  0  0  0  0  0  0
  -27.9458  -34.5061   20.1168 C   0  0  0  0  0  0  0  0  0  0  0  0
  -28.5984  -26.7481   18.5994 C   0  0  0  0  0  0  0  0  0  1  0  0
  -23.9355  -32.4040   18.0352 C   0  0  1  0  0  0  0  0  0  0  0  0
  -26.5004  -35.1905   18.1982 C   0  0  2  0  0  0  0  0  0  0  0  0
  -22.8198  -32.4128   16.9523 C   0  0  0  0  0  0  0  0  0  0  0  0
  -27.8901  -19.7037   20.9408 N   0  0  0  0  0  0  0  0  0  0  0  0
  -30.8047  -23.9046   17.8342 N   0  0  0  0  0  0  0  0  0  0  0  0
  -28.9668  -20.4861   21.1268 N   0  0  0  0  0  0  0  0  0  0  0  0
  -23.9394  -30.9199   20.0154 N   0  0  0  0  0  0  0  0  0  0  0  0
  -31.7248  -18.1032   19.9549 N   0  0  0  0  0  0  0  0  0  0  0  0
  -29.6258  -22.7143   21.5868 N   0  0  0  0  0  0  0  0  0  0  0  0
  -25.1169  -22.9576   21.5024 N   0  0  0  0  0  0  0  0  0  0  0  0
  -21.6243  -28.8353   21.9104 N   0  0  0  0  0  0  0  0  0  0  0  0
  -24.6426  -33.6724   18.1749 N   0  0  0  0  0  0  0  0  0  0  0  0
  -32.1953  -18.4521   17.6304 N   0  0  0  0  0  0  0  0  0  0  0  0
  -27.8636  -35.1896   18.8003 N   0  3  0  0  0  0  0  0  0  0  0  0
  -27.0422  -24.1716   21.7817 O   0  0  0  0  0  0  0  0  0  0  0  0
  -22.2372  -29.0434   19.6735 O   0  0  0  0  0  0  0  0  0  0  0  0
  -22.5499  -32.7898   19.9214 O   0  0  0  0  0  0  0  0  0  0  0  0
  -26.7583  -32.8346   17.7286 O   0  0  0  0  0  0  0  0  0  0  0  0
  -32.8312  -16.5052   18.6954 O   0  0  0  0  0  0  0  0  0  0  0  0
  -32.7950  -24.7138   16.8648 O   0  0  0  0  0  0  0  0  0  0  0  0
  -28.6857  -23.6161   18.8206 O   0  0  0  0  0  0  0  0  0  0  0  0
  -21.6078  -18.7330   20.5674 O   0  0  0  0  0  0  0  0  0  0  0  0
  -28.3633  -26.6208   20.0011 O   0  0  0  0  0  0  0  0  0  1  0  0
  -20.4501  -15.3739   16.3507 F   0  0  0  0  0  0  0  0  0  0  0  0
  -22.8903  -16.2987   20.2999 F   0  0  0  0  0  0  0  0  0  0  0  0
  1  2  1  0  0  0  0
  1  5  2  0  0  0  0
  2  6  2  0  0  0  0
  3 10  2  0  0  0  0
  3 19  1  0  0  0  0
  4 11  1  0  0  0  0
  4 19  2  0  0  0  0
  5 22  1  0  0  0  0
  6 24  1  0  0  0  0
  7 12  2  0  0  0  0
  7 23  1  0  0  0  0
  8  9  2  0  0  0  0
  8 27  1  0  0  0  0
  9 28  1  0  0  0  0
 10 29  1  0  0  0  0
 11 29  2  0  0  0  0
 12 30  1  0  0  0  0
 13 14  2  0  0  0  0
 13 31  1  0  0  0  0
 14 32  1  0  0  0  0
 15 20  1  0  0  0  0
 15 27  2  0  0  0  0
 16 25  1  0  0  0  0
 16 30  2  0  0  0  0
 17 26  1  0  0  0  0
 17 36  2  0  0  0  0
 18 32  2  0  0  0  0
 18 33  1  0  0  0  0
 19 34  1  0  0  0  0
 20 28  2  0  0  0  0
 20 39  1  0  0  0  0
 21 34  1  0  0  0  0
 21 35  2  0  0  0  0
 21 40  1  0  0  0  0
 22 24  2  0  0  0  0
 22 45  1  0  0  0  0
 23 25  2  0  0  0  0
 23 46  1  0  0  0  0
 24 54  1  0  0  0  0
 25 47  1  0  0  0  0
 26 37  2  0  0  0  0
 26 63  1  0  0  0  0
 27 68  1  0  0  0  0
 28 76  1  0  0  0  0
 29 85  1  0  0  0  0
 30 86  1  0  0  0  0
 31 33  2  0  0  0  0
 31 85  1  0  0  0  0
 32 87  1  0  0  0  0
 33 88  1  0  0  0  0
 34 67  2  0  0  0  0
 35 69  1  0  0  0  0
 35 72  1  0  0  0  0
 36 68  1  0  0  0  0
 36 83  1  0  0  0  0
 37 68  1  0  0  0  0
 37 84  1  0  0  0  0
 38 39  2  0  0  0  0
 40 73  1  0  0  0  0
 40 78  2  0  0  0  0
 41 55  1  0  0  0  0
 41 74  1  0  0  0  0
 41 79  2  0  0  0  0
 42 64  1  0  0  0  0
 42 70  1  0  0  0  0
 42 80  2  0  0  0  0
 43 65  1  0  0  0  0
 43 75  1  0  0  0  0
 43 81  2  0  0  0  0
 44 71  1  0  0  0  0
 44 76  1  0  0  0  0
 44 82  2  0  0  0  0
 45 48  1  0  0  0  0
 46 55  1  0  0  0  0
 47 70  1  0  0  0  0
 48 50  1  0  0  0  0
 49 51  1  0  0  0  0
 49 52  1  0  0  0  0
 50 54  1  0  0  0  0
 51 56  1  0  0  0  0
 52 71  1  0  0  0  0
 53 56  1  0  0  0  0
 53 71  1  0  0  0  0
 54 74  1  0  0  0  0
 55 70  1  0  0  0  0
 56 69  1  0  0  0  0
 57 65  1  0  0  0  0
 58 66  1  0  0  0  0
 59 66  1  0  0  0  0
 60 66  1  0  0  0  0
 61 76  1  0  0  0  0
 62 77  1  0  0  0  0
 63 86  1  0  0  0  0
 64 66  1  0  0  0  0
 64 75  1  0  0  0  0
 65 77  1  0  0  0  0
 67 69  1  0  0  0  0
M  CHG  1  77   1
M  ISO  4  44 100  63 101  76 100  86 101
M  END
> <Batch ID>
0078

> <Smiles>
C=Cc1cc(N2C(=O)CC([101CH2:1][101O:1]c3ccc4c(c3)CN(C(=O)C(NC(=O)C(C)NC)C(C)(C)C)C(C(=O)NC3CCCc5ccccc53)C4)C2=O)ccc1[100N:0](C)[100C:0](=O)N1CCCC(n2nc(-c3ccc(Oc4ccc(F)cc4F)cc3)c(C(N)=O)c2N)C1

> <Shape>
0.181

> <Color>
0.081

> <Negative vol penalty>
0.000

$$$$

  -OEChem-04042323563D

 86 95  0     1  0  0  0  0  0999 V2000
  -23.6926  -29.3196   20.3658 C   0  0  0  0  0  0  0  0  0  0  0  0
  -24.4418  -28.3183   20.9752 C   0  0  0  0  0  0  0  0  0  0  0  0
  -23.1325   -9.8046   20.1104 C   0  0  0  0  0  0  0  0  0  0  0  0
  -23.7833  -10.0722   22.4216 C   0  0  0  0  0  0  0  0  0  0  0  0
  -23.9913  -30.6592   20.6109 C   0  0  0  0  0  0  0  0  0  0  0  0
  -25.4911  -28.6561   21.8292 C   0  0  0  0  0  0  0  0  0  0  0  0
  -27.2698  -25.6339   26.8500 C   0  0  0  0  0  0  0  0  0  0  0  0
  -30.2201  -18.7965   23.5998 C   0  0  0  0  0  0  0  0  0  0  0  0
  -32.4394  -17.9265   23.2064 C   0  0  0  0  0  0  0  0  0  0  0  0
  -29.6864  -17.8099   22.7707 C   0  0  0  0  0  0  0  0  0  0  0  0
  -31.9057  -16.9399   22.3773 C   0  0  0  0  0  0  0  0  0  0  0  0
  -22.3915   -8.6728   20.4500 C   0  0  0  0  0  0  0  0  0  0  0  0
  -23.0422   -8.9404   22.7613 C   0  0  0  0  0  0  0  0  0  0  0  0
  -28.2929  -24.7147   27.0784 C   0  0  0  0  0  0  0  0  0  0  0  0
  -19.7990   -8.1577   23.2993 C   0  0  0  0  0  0  0  0  0  0  0  0
  -18.9883   -8.2316   24.4319 C   0  0  0  0  0  0  0  0  0  0  0  0
  -29.7105  -26.4985   27.8708 C   0  0  0  0  0  0  0  0  0  0  0  0
  -20.2166   -6.4064   25.4303 C   0  0  0  0  0  0  0  0  0  0  0  0
  -23.8285  -10.5043   21.0961 C   0  0  0  0  0  0  0  0  0  0  0  0
  -24.1454  -13.0072   20.7180 C   0  0  0  0  0  0  0  0  0  0  0  0
  -25.0386  -31.0136   21.4759 C   0  0  0  0  0  0  0  0  0  0  0  0
  -27.4635  -26.9962   27.1205 C   0  0  0  0  0  0  0  0  0  0  0  0
  -25.8050  -30.0017   22.0851 C   0  0  0  0  0  0  0  0  0  0  0  0
  -28.6875  -27.4326   27.6474 C   0  0  0  0  0  0  0  0  0  0  0  0
  -31.5967  -18.8548   23.8176 C   0  0  0  0  0  0  0  0  0  0  0  0
  -30.5292  -16.8816   22.1594 C   0  0  0  0  0  0  0  0  0  0  0  0
  -22.3463   -8.2407   21.7755 C   0  0  0  0  0  0  0  0  0  0  0  0
  -29.5144  -25.1473   27.5861 C   0  0  0  0  0  0  0  0  0  0  0  0
  -20.8186   -7.2080   23.2322 C   0  0  0  0  0  0  0  0  0  0  0  0
  -19.1971   -7.3560   25.4974 C   0  0  0  0  0  0  0  0  0  0  0  0
  -21.0273   -6.3324   24.2977 C   0  0  0  0  0  0  0  0  0  0  0  0
  -24.5946  -11.6733   20.7458 C   0  0  0  0  0  0  0  0  0  0  0  0
  -25.2445  -13.7314   20.3256 C   0  0  0  0  0  0  0  0  0  0  0  0
  -32.3691  -21.6360   26.0617 C   0  0  0  0  0  0  0  0  0  0  0  0
  -33.6968  -21.1234   25.8335 C   0  0  0  0  0  0  0  0  0  0  0  0
  -31.3752  -20.8216   25.3082 C   0  0  0  0  0  0  0  0  0  0  0  0
  -34.8562  -21.5720   26.3264 C   0  0  0  0  0  0  0  0  0  0  0  0
  -31.9793  -22.6721   26.8123 C   0  0  0  0  0  0  0  0  0  0  0  0
  -22.8506  -13.5436   21.0201 C   0  0  0  0  0  0  0  0  0  0  0  0
  -27.4470  -29.6538   25.3768 C   0  0  0  0  0  0  0  0  0  0  0  0
  -27.7547  -31.0893   28.2694 C   0  0  0  0  0  0  0  0  0  0  0  0
  -28.7438  -30.8588   31.5276 C   0  0  0  0  0  0  0  0  0  0  0  0
  -30.6835  -14.8824   20.6345 C   0  0  0  0  0  0  0  0  0  0  0  0
  -25.3542  -32.4752   21.6730 C   0  0  0  0  0  0  0  0  0  0  0  0
  -26.3408  -27.9712   26.8938 C   0  0  0  0  0  0  0  0  0  0  0  0
  -28.9390  -28.8813   27.9736 C   0  0  0  0  0  0  0  0  0  0  0  0
  -33.5621  -19.9500   24.9107 C   0  0  0  0  0  0  0  0  0  0  0  0
  -26.2424  -32.7485   22.8841 C   0  0  0  0  0  0  0  0  0  0  0  0
  -29.7108  -12.2083   18.4943 C   0  0  0  0  0  0  0  0  0  0  0  0
  -27.4189  -31.7780   22.9133 C   0  0  0  0  0  0  0  0  0  0  0  0
  -28.2561  -11.9404   18.8870 C   0  0  0  0  0  0  0  0  0  0  0  0
  -30.5655  -12.5811   19.7044 C   0  0  0  0  0  0  0  0  0  0  0  0
  -28.5870  -13.4180   20.9104 C   0  0  0  0  0  0  0  0  0  0  0  0
  -26.9351  -30.3282   23.0372 C   0  0  1  0  0  0  0  0  0  0  0  0
  -26.8232  -29.4083   26.7215 C   0  0  1  0  0  0  0  0  0  0  0  0
  -27.6729  -13.1021   19.7153 C   0  0  2  0  0  0  0  0  0  0  0  0
  -28.9060  -32.2081   33.6371 C   0  0  0  0  0  0  0  0  0  0  0  0
  -30.1906  -32.5450   27.1482 C   0  0  0  0  0  0  0  0  0  0  0  0
  -30.8477  -33.1093   29.4972 C   0  0  0  0  0  0  0  0  0  0  0  0
  -28.6935  -33.9576   28.5686 C   0  0  0  0  0  0  0  0  0  0  0  0
  -26.9272  -29.0262   32.9769 C   0  0  0  0  0  0  0  0  0  0  0  0
  -30.5582  -23.1026   26.9652 C   0  0  0  0  0  0  0  0  0  1  0  0
  -28.9170  -31.5046   29.1386 C   0  0  1  0  0  0  0  0  0  0  0  0
  -28.0517  -31.2510   32.8205 C   0  0  2  0  0  0  0  0  0  0  0  0
  -29.6584  -32.7520   28.5803 C   0  0  0  0  0  0  0  0  0  0  0  0
  -25.8788  -11.5543   20.3985 N   0  0  0  0  0  0  0  0  0  0  0  0
  -26.2460  -12.8227   20.1487 N   0  0  0  0  0  0  0  0  0  0  0  0
  -32.1293  -19.8390   24.6443 N   0  0  0  0  0  0  0  0  0  0  0  0
  -27.8126  -29.7970   27.7286 N   0  0  0  0  0  0  0  0  0  0  0  0
  -29.9535  -13.6910   20.4381 N   0  0  0  0  0  0  0  0  0  0  0  0
  -25.4422  -15.0506   20.1179 N   0  0  0  0  0  0  0  0  0  0  0  0
  -21.8348  -12.6591   21.4077 N   0  0  0  0  0  0  0  0  0  0  0  0
  -29.9873  -15.8793   21.3171 N   0  0  0  0  0  0  0  0  0  0  0  0
  -26.5475  -30.0395   24.4013 N   0  0  0  0  0  0  0  0  0  0  0  0
  -28.3788  -31.6815   30.4830 N   0  0  0  0  0  0  0  0  0  0  0  0
  -27.7775  -30.0426   33.6484 N   0  3  0  0  0  0  0  0  0  0  0  0
  -30.1685  -20.9978   25.2928 O   0  0  0  0  0  0  0  0  0  0  0  0
  -22.5972  -14.7690   20.9325 O   0  0  0  0  0  0  0  0  0  0  0  0
  -28.6552  -29.5059   25.2352 O   0  0  0  0  0  0  0  0  0  0  0  0
  -26.8261  -31.8796   28.0833 O   0  0  0  0  0  0  0  0  0  0  0  0
  -29.5324  -29.9191   31.4527 O   0  0  0  0  0  0  0  0  0  0  0  0
  -31.8313  -15.0187   20.2032 O   0  0  0  0  0  0  0  0  0  0  0  0
  -21.6231   -7.1364   22.1074 O   0  0  0  0  0  0  0  0  0  0  0  0
  -30.5149  -24.2523   27.8094 O   0  0  0  0  0  0  0  0  0  1  0  0
  -18.4194   -7.4282   26.5856 F   0  0  0  0  0  0  0  0  0  0  0  0
  -22.0060   -5.4188   24.2395 F   0  0  0  0  0  0  0  0  0  0  0  0
  1  2  1  0  0  0  0
  1  5  2  0  0  0  0
  2  6  2  0  0  0  0
  3 12  2  0  0  0  0
  3 19  1  0  0  0  0
  4 13  1  0  0  0  0
  4 19  2  0  0  0  0
  5 21  1  0  0  0  0
  6 23  1  0  0  0  0
  7 14  2  0  0  0  0
  7 22  1  0  0  0  0
  8 10  2  0  0  0  0
  8 25  1  0  0  0  0
  9 11  1  0  0  0  0
  9 25  2  0  0  0  0
 10 26  1  0  0  0  0
 11 26  2  0  0  0  0
 12 27  1  0  0  0  0
 13 27  2  0  0  0  0
 14 28  1  0  0  0  0
 15 16  2  0  0  0  0
 15 29  1  0  0  0  0
 16 30  1  0  0  0  0
 17 24  1  0  0  0  0
 17 28  2  0  0  0  0
 18 30  2  0  0  0  0
 18 31  1  0  0  0  0
 19 32  1  0  0  0  0
 20 32  1  0  0  0  0
 20 33  2  0  0  0  0
 20 39  1  0  0  0  0
 21 23  2  0  0  0  0
 21 44  1  0  0  0  0
 22 24  2  0  0  0  0
 22 45  1  0  0  0  0
 23 54  1  0  0  0  0
 24 46  1  0  0  0  0
 25 68  1  0  0  0  0
 26 73  1  0  0  0  0
 27 83  1  0  0  0  0
 28 84  1  0  0  0  0
 29 31  2  0  0  0  0
 29 83  1  0  0  0  0
 30 85  1  0  0  0  0
 31 86  1  0  0  0  0
 32 66  2  0  0  0  0
 33 67  1  0  0  0  0
 33 71  1  0  0  0  0
 34 35  1  0  0  0  0
 34 36  1  0  0  0  0
 34 38  2  0  0  0  0
 35 37  2  0  0  0  0
 35 47  1  0  0  0  0
 36 68  1  0  0  0  0
 36 77  2  0  0  0  0
 38 62  1  0  0  0  0
 39 72  1  0  0  0  0
 39 78  2  0  0  0  0
 40 55  1  0  0  0  0
 40 74  1  0  0  0  0
 40 79  2  0  0  0  0
 41 63  1  0  0  0  0
 41 69  1  0  0  0  0
 41 80  2  0  0  0  0
 42 64  1  0  0  0  0
 42 75  1  0  0  0  0
 42 81  2  0  0  0  0
 43 70  1  0  0  0  0
 43 73  1  0  0  0  0
 43 82  2  0  0  0  0
 44 48  1  0  0  0  0
 45 55  1  0  0  0  0
 46 69  1  0  0  0  0
 47 68  1  0  0  0  0
 48 50  1  0  0  0  0
 49 51  1  0  0  0  0
 49 52  1  0  0  0  0
 50 54  1  0  0  0  0
 51 56  1  0  0  0  0
 52 70  1  0  0  0  0
 53 56  1  0  0  0  0
 53 70  1  0  0  0  0
 54 74  1  0  0  0  0
 55 69  1  0  0  0  0
 56 67  1  0  0  0  0
 57 64  1  0  0  0  0
 58 65  1  0  0  0  0
 59 65  1  0  0  0  0
 60 65  1  0  0  0  0
 61 76  1  0  0  0  0
 62 84  1  0  0  0  0
 63 65  1  0  0  0  0
 63 75  1  0  0  0  0
 64 76  1  0  0  0  0
 66 67  1  0  0  0  0
M  CHG  1  76   1
M  ISO  4  43 100  62 101  73 100  84 101
M  END
> <Batch ID>
0078

> <Smiles>
C=C1CN(c2ccc([100NH:0][100C:0](=O)N3CCCC(n4nc(-c5ccc(Oc6ccc(F)cc6F)cc5)c(C(N)=O)c4N)C3)cc2)C(=O)C1=C[101CH2:1][101O:1]c1ccc2c(c1)CN(C(=O)C(NC(=O)C(C)NC)C(C)(C)C)C(C(=O)NC1CCCc3ccccc31)C2

> <Shape>
0.241

> <Color>
0.201

> <Negative vol penalty>
0.000

$$$$

  -OEChem-04042323563D

 89 98  0     1  0  0  0  0  0999 V2000
  -16.2282  -28.3777   21.1098 C   0  0  0  0  0  0  0  0  0  0  0  0
  -17.3882  -28.4162   20.3427 C   0  0  0  0  0  0  0  0  0  0  0  0
  -26.7326  -11.9740   21.4978 C   0  0  0  0  0  0  0  0  0  0  0  0
  -25.8196  -13.6610   20.0289 C   0  0  0  0  0  0  0  0  0  0  0  0
  -16.1791  -29.0479   22.3314 C   0  0  0  0  0  0  0  0  0  0  0  0
  -18.4994  -29.1260   20.7963 C   0  0  0  0  0  0  0  0  0  0  0  0
  -22.8198  -26.5481   20.2181 C   0  0  0  0  0  0  0  0  0  0  0  0
  -28.3845  -23.0772   17.6162 C   0  0  0  0  0  0  0  0  0  0  0  0
  -28.9302  -22.1308   18.4835 C   0  0  0  0  0  0  0  0  0  0  0  0
  -25.4702  -11.3922   21.6142 C   0  0  0  0  0  0  0  0  0  0  0  0
  -24.5572  -13.0791   20.1452 C   0  0  0  0  0  0  0  0  0  0  0  0
  -23.3737  -26.5124   18.9392 C   0  0  0  0  0  0  0  0  0  0  0  0
  -23.4845   -9.3616   19.7794 C   0  0  0  0  0  0  0  0  0  0  0  0
  -23.3982   -7.9735   19.6729 C   0  0  0  0  0  0  0  0  0  0  0  0
  -24.9256  -28.2483   19.5694 C   0  0  0  0  0  0  0  0  0  0  0  0
  -27.9900  -21.3471   15.9766 C   0  0  0  0  0  0  0  0  0  0  0  0
  -22.4728   -7.8600   21.9017 C   0  0  0  0  0  0  0  0  0  0  0  0
  -26.9073  -13.1085   20.7051 C   0  0  0  0  0  0  0  0  0  0  0  0
  -29.3825  -13.1084   20.0880 C   0  0  0  0  0  0  0  0  0  0  0  0
  -17.2936  -29.7582   22.8047 C   0  0  0  0  0  0  0  0  0  0  0  0
  -23.3083  -27.4433   21.1806 C   0  0  0  0  0  0  0  0  0  0  0  0
  -18.4648  -29.8075   22.0248 C   0  0  0  0  0  0  0  0  0  0  0  0
  -24.3779  -28.2916   20.8606 C   0  0  0  0  0  0  0  0  0  0  0  0
  -27.9143  -22.6853   16.3628 C   0  0  0  0  0  0  0  0  0  0  0  0
  -29.0059  -20.7926   18.0974 C   0  0  0  0  0  0  0  0  0  0  0  0
  -24.3826  -11.9447   20.9379 C   0  0  0  0  0  0  0  0  0  0  0  0
  -24.4248  -27.3646   18.6137 C   0  0  0  0  0  0  0  0  0  0  0  0
  -23.0651   -9.9989   20.9472 C   0  0  0  0  0  0  0  0  0  0  0  0
  -22.8923   -7.2227   20.7340 C   0  0  0  0  0  0  0  0  0  0  0  0
  -28.5358  -20.4007   16.8439 C   0  0  0  0  0  0  0  0  0  0  0  0
  -22.5591   -9.2481   22.0083 C   0  0  0  0  0  0  0  0  0  0  0  0
  -28.2109  -13.7103   20.5849 C   0  0  0  0  0  0  0  0  0  0  0  0
  -30.3393  -14.0893   20.1831 C   0  0  0  0  0  0  0  0  0  0  0  0
  -26.2133  -25.7467   14.8628 C   0  0  0  0  0  0  0  0  0  0  0  0
  -26.6869  -24.8136   15.9416 C   0  0  0  0  0  0  0  0  0  0  0  0
  -27.8194  -24.6244   13.3148 C   0  0  0  0  0  0  0  0  0  0  0  0
  -28.9311  -24.6793   12.5680 C   0  0  0  0  0  0  0  0  0  0  0  0
  -29.5876  -11.7814   19.5853 C   0  0  0  0  0  0  0  0  0  0  0  0
  -25.1357  -26.4997   15.1280 C   0  0  0  0  0  0  0  0  0  0  0  0
  -22.0741  -29.8756   22.8129 C   0  0  0  0  0  0  0  0  0  0  0  0
  -24.9425  -29.8083   24.3261 C   0  0  0  0  0  0  0  0  0  0  0  0
  -28.4018  -29.3799   23.3946 C   0  0  0  0  0  0  0  0  0  0  0  0
  -30.0728  -20.0582   20.2581 C   0  0  0  0  0  0  0  0  0  0  0  0
  -17.1772  -30.5063   24.1091 C   0  0  0  0  0  0  0  0  0  0  0  0
  -22.7177  -27.4508   22.5639 C   0  0  0  0  0  0  0  0  0  0  0  0
  -24.9522  -29.2569   21.8641 C   0  0  0  0  0  0  0  0  0  0  0  0
  -26.9347  -25.8158   13.5434 C   0  0  0  0  0  0  0  0  0  0  0  0
  -27.3707  -23.3837   14.0206 C   0  0  0  0  0  0  0  0  0  0  0  0
  -18.5239  -30.9246   24.6937 C   0  0  0  0  0  0  0  0  0  0  0  0
  -31.4925  -17.9585   22.7587 C   0  0  0  0  0  0  0  0  0  0  0  0
  -19.4029  -31.5499   23.6152 C   0  0  0  0  0  0  0  0  0  0  0  0
  -30.9235  -16.5749   22.4361 C   0  0  0  0  0  0  0  0  0  0  0  0
  -30.4719  -19.0656   22.5010 C   0  0  0  0  0  0  0  0  0  0  0  0
  -29.3029  -17.6736   20.8381 C   0  0  0  0  0  0  0  0  0  0  0  0
  -19.6992  -30.5461   22.4945 C   0  0  1  0  0  0  0  0  0  0  0  0
  -22.9534  -28.7620   23.3072 C   0  0  1  0  0  0  0  0  0  0  0  0
  -30.3158  -16.5315   21.0203 C   0  0  2  0  0  0  0  0  0  0  0  0
  -24.5826  -27.4636   14.1182 C   0  0  0  0  0  0  0  0  0  0  0  0
  -30.3494  -28.5026   24.7115 C   0  0  0  0  0  0  0  0  0  0  0  0
  -25.4539  -32.7452   24.9764 C   0  0  0  0  0  0  0  0  0  0  0  0
  -27.9078  -32.2896   24.7788 C   0  0  0  0  0  0  0  0  0  0  0  0
  -26.5616  -31.1253   26.5266 C   0  0  0  0  0  0  0  0  0  0  0  0
  -29.0136  -27.3331   21.3464 C   0  0  0  0  0  0  0  0  0  0  0  0
  -24.4096  -26.4007   16.4397 C   0  0  0  0  0  0  0  0  0  1  0  0
  -26.2847  -30.4622   24.1026 C   0  0  1  0  0  0  0  0  0  0  0  0
  -29.2781  -28.1745   23.6832 C   0  0  2  0  0  0  0  0  0  0  0  0
  -26.5344  -31.6499   25.0745 C   0  0  0  0  0  0  0  0  0  0  0  0
  -28.4035  -14.9754   20.9675 N   0  0  0  0  0  0  0  0  0  0  0  0
  -29.7073  -15.1765   20.7110 N   0  0  0  0  0  0  0  0  0  0  0  0
  -27.3511  -23.6629   15.4663 N   0  0  0  0  0  0  0  0  0  0  0  0
  -24.3365  -29.2310   23.2012 N   0  0  0  0  0  0  0  0  0  0  0  0
  -29.9425  -18.9640   21.1393 N   0  0  0  0  0  0  0  0  0  0  0  0
  -31.6511  -14.1191   19.8660 N   0  0  0  0  0  0  0  0  0  0  0  0
  -28.4971  -10.9014   19.5578 N   0  0  0  0  0  0  0  0  0  0  0  0
  -29.5613  -19.8337   18.9804 N   0  0  0  0  0  0  0  0  0  0  0  0
  -20.7215  -29.6103   22.9113 N   0  0  0  0  0  0  0  0  0  0  0  0
  -27.2777  -29.3972   24.1930 N   0  0  0  0  0  0  0  0  0  0  0  0
  -29.9498  -27.7118   22.4359 N   0  3  0  0  0  0  0  0  0  0  0  0
  -26.5440  -25.1386   17.1194 O   0  0  0  0  0  0  0  0  0  0  0  0
  -30.7086  -11.3825   19.1881 O   0  0  0  0  0  0  0  0  0  0  0  0
  -22.5849  -30.9002   22.3760 O   0  0  0  0  0  0  0  0  0  0  0  0
  -24.4532  -29.8034   25.4584 O   0  0  0  0  0  0  0  0  0  0  0  0
  -28.6878  -30.2240   22.5482 O   0  0  0  0  0  0  0  0  0  0  0  0
  -30.6237  -21.1069   20.6027 O   0  0  0  0  0  0  0  0  0  0  0  0
  -23.1507  -11.3771   21.0511 O   0  0  0  0  0  0  0  0  0  0  0  0
  -24.9669  -27.3323   17.3659 O   0  0  0  0  0  0  0  0  0  1  0  0
  -22.8080   -5.8899   20.6310 F   0  0  0  0  0  0  0  0  0  0  0  0
  -28.6048  -19.1174   16.4615 F   0  0  0  0  0  0  0  0  0  0  0  0
  -22.1535   -9.8548   23.1322 F   0  0  0  0  0  0  0  0  0  0  0  0
  1  2  1  0  0  0  0
  1  5  2  0  0  0  0
  2  6  2  0  0  0  0
  3 10  2  0  0  0  0
  3 18  1  0  0  0  0
  4 11  1  0  0  0  0
  4 18  2  0  0  0  0
  5 20  1  0  0  0  0
  6 22  1  0  0  0  0
  7 12  2  0  0  0  0
  7 21  1  0  0  0  0
  8  9  2  0  0  0  0
  8 24  1  0  0  0  0
  9 25  1  0  0  0  0
 10 26  1  0  0  0  0
 11 26  2  0  0  0  0
 12 27  1  0  0  0  0
 13 14  2  0  0  0  0
 13 28  1  0  0  0  0
 14 29  1  0  0  0  0
 15 23  1  0  0  0  0
 15 27  2  0  0  0  0
 16 24  2  0  0  0  0
 16 30  1  0  0  0  0
 17 29  2  0  0  0  0
 17 31  1  0  0  0  0
 18 32  1  0  0  0  0
 19 32  1  0  0  0  0
 19 33  2  0  0  0  0
 19 38  1  0  0  0  0
 20 22  2  0  0  0  0
 20 44  1  0  0  0  0
 21 23  2  0  0  0  0
 21 45  1  0  0  0  0
 22 55  1  0  0  0  0
 23 46  1  0  0  0  0
 24 70  1  0  0  0  0
 25 30  2  0  0  0  0
 25 75  1  0  0  0  0
 26 85  1  0  0  0  0
 27 86  1  0  0  0  0
 28 31  2  0  0  0  0
 28 85  1  0  0  0  0
 29 87  1  0  0  0  0
 30 88  1  0  0  0  0
 31 89  1  0  0  0  0
 32 68  2  0  0  0  0
 33 69  1  0  0  0  0
 33 73  1  0  0  0  0
 34 35  1  0  0  0  0
 34 39  2  0  0  0  0
 34 47  1  0  0  0  0
 35 70  1  0  0  0  0
 35 79  2  0  0  0  0
 36 37  2  0  0  0  0
 36 47  1  0  0  0  0
 36 48  1  0  0  0  0
 38 74  1  0  0  0  0
 38 80  2  0  0  0  0
 39 58  1  0  0  0  0
 39 64  1  0  0  0  0
 40 56  1  0  0  0  0
 40 76  1  0  0  0  0
 40 81  2  0  0  0  0
 41 65  1  0  0  0  0
 41 71  1  0  0  0  0
 41 82  2  0  0  0  0
 42 66  1  0  0  0  0
 42 77  1  0  0  0  0
 42 83  2  0  0  0  0
 43 72  1  0  0  0  0
 43 75  1  0  0  0  0
 43 84  2  0  0  0  0
 44 49  1  0  0  0  0
 45 56  1  0  0  0  0
 46 71  1  0  0  0  0
 48 70  1  0  0  0  0
 49 51  1  0  0  0  0
 50 52  1  0  0  0  0
 50 53  1  0  0  0  0
 51 55  1  0  0  0  0
 52 57  1  0  0  0  0
 53 72  1  0  0  0  0
 54 57  1  0  0  0  0
 54 72  1  0  0  0  0
 55 76  1  0  0  0  0
 56 71  1  0  0  0  0
 57 69  1  0  0  0  0
 59 66  1  0  0  0  0
 60 67  1  0  0  0  0
 61 67  1  0  0  0  0
 62 67  1  0  0  0  0
 63 78  1  0  0  0  0
 64 86  1  0  0  0  0
 65 67  1  0  0  0  0
 65 77  1  0  0  0  0
 66 78  1  0  0  0  0
 68 69  1  0  0  0  0
M  CHG  1  78   1
M  ISO  4  43 100  64 101  75 100  86 101
M  END
> <Batch ID>
0078

> <Smiles>
C=C1CC(=C(C)[101CH2:1][101O:1]c2ccc3c(c2)CN(C(=O)C(NC(=O)C(C)NC)C(C)(C)C)C(C(=O)NC2CCCc4ccccc42)C3)C(=O)N(c2ccc([100NH:0][100C:0](=O)N3CCCC(n4nc(-c5ccc(Oc6ccc(F)cc6F)cc5)c(C(N)=O)c4N)C3)c(F)c2)C1

> <Shape>
0.302

> <Color>
0.069

> <Negative vol penalty>
0.000

$$$$

  -OEChem-04042323563D

 86 95  0     1  0  0  0  0  0999 V2000
  -29.2437  -31.4678   26.7647 C   0  0  0  0  0  0  0  0  0  0  0  0
  -28.7920  -30.4006   25.9951 C   0  0  0  0  0  0  0  0  0  0  0  0
  -24.3956   -8.5795   21.2852 C   0  0  0  0  0  0  0  0  0  0  0  0
  -23.0947  -10.5840   20.9291 C   0  0  0  0  0  0  0  0  0  0  0  0
  -28.3829  -32.5225   27.0655 C   0  0  0  0  0  0  0  0  0  0  0  0
  -27.4786  -30.3870   25.5266 C   0  0  0  0  0  0  0  0  0  0  0  0
  -27.1647  -29.0086   20.6639 C   0  0  0  0  0  0  0  0  0  0  0  0
  -23.4774   -8.1541   22.2451 C   0  0  0  0  0  0  0  0  0  0  0  0
  -22.1764  -10.1585   21.8890 C   0  0  0  0  0  0  0  0  0  0  0  0
  -27.2726  -27.6480   20.3795 C   0  0  0  0  0  0  0  0  0  0  0  0
  -20.4169   -6.7176   22.3004 C   0  0  0  0  0  0  0  0  0  0  0  0
  -19.9995   -5.3876   22.2535 C   0  0  0  0  0  0  0  0  0  0  0  0
  -24.8720  -27.5030   20.1919 C   0  0  0  0  0  0  0  0  0  0  0  0
  -28.8540  -18.0856   20.3516 C   0  0  0  0  0  0  0  0  0  0  0  0
  -26.3127  -19.0793   19.7711 C   0  0  0  0  0  0  0  0  0  0  0  0
  -20.8645   -5.0375   24.4821 C   0  0  0  0  0  0  0  0  0  0  0  0
  -24.2043   -9.7945   20.6272 C   0  0  0  0  0  0  0  0  0  0  0  0
  -25.1226   -9.9699   18.2537 C   0  0  0  0  0  0  0  0  0  0  0  0
  -27.0612  -32.5265   26.5924 C   0  0  0  0  0  0  0  0  0  0  0  0
  -25.9068  -29.6254   20.7252 C   0  0  0  0  0  0  0  0  0  0  0  0
  -26.5989  -31.4421   25.8225 C   0  0  0  0  0  0  0  0  0  0  0  0
  -24.7510  -28.8721   20.4747 C   0  0  0  0  0  0  0  0  0  0  0  0
  -28.5321  -19.4052   20.6685 C   0  0  0  0  0  0  0  0  0  0  0  0
  -27.2614  -19.9021   20.3784 C   0  0  0  0  0  0  0  0  0  0  0  0
  -27.9053  -17.2628   19.7443 C   0  0  0  0  0  0  0  0  0  0  0  0
  -22.3678   -8.9436   22.5470 C   0  0  0  0  0  0  0  0  0  0  0  0
  -26.1260  -26.8944   20.1463 C   0  0  0  0  0  0  0  0  0  0  0  0
  -21.0583   -7.2077   23.4381 C   0  0  0  0  0  0  0  0  0  0  0  0
  -20.2232   -4.5475   23.3444 C   0  0  0  0  0  0  0  0  0  0  0  0
  -26.6347  -17.7596   19.4541 C   0  0  0  0  0  0  0  0  0  0  0  0
  -21.2820   -6.3676   24.5289 C   0  0  0  0  0  0  0  0  0  0  0  0
  -25.1528  -10.2348   19.6360 C   0  0  0  0  0  0  0  0  0  0  0  0
  -26.2351  -10.6048   17.7580 C   0  0  0  0  0  0  0  0  0  0  0  0
  -27.5234  -22.3529   20.2253 C   0  0  0  0  0  0  0  0  0  0  0  0
  -26.9513  -23.4590   20.7204 C   0  0  0  0  0  0  0  0  0  0  0  0
  -25.8639  -23.0553   21.5989 C   0  0  0  0  0  0  0  0  0  0  0  0
  -25.0390  -23.8461   22.2924 C   0  0  0  0  0  0  0  0  0  0  0  0
  -24.1738   -9.2172   17.4864 C   0  0  0  0  0  0  0  0  0  0  0  0
  -24.2502  -31.1216   22.9881 C   0  0  0  0  0  0  0  0  0  0  0  0
  -22.2018  -31.7225   20.5457 C   0  0  0  0  0  0  0  0  0  0  0  0
  -21.0076  -30.8227   17.4780 C   0  0  0  0  0  0  0  0  0  0  0  0
  -29.4499  -15.2752   19.6443 C   0  0  0  0  0  0  0  0  0  0  0  0
  -26.1537  -33.6660   26.9832 C   0  0  0  0  0  0  0  0  0  0  0  0
  -25.8091  -31.0997   21.0068 C   0  0  0  0  0  0  0  0  0  0  0  0
  -23.3783  -29.4910   20.5088 C   0  0  0  0  0  0  0  0  0  0  0  0
  -25.8208  -21.5359   21.5966 C   0  0  0  0  0  0  0  0  0  0  0  0
  -24.8881  -33.7553   26.1343 C   0  0  0  0  0  0  0  0  0  0  0  0
  -30.6430  -11.9769   19.0318 C   0  0  0  0  0  0  0  0  0  0  0  0
  -24.2453  -32.3797   25.9880 C   0  0  0  0  0  0  0  0  0  0  0  0
  -29.3673  -11.1327   18.9854 C   0  0  0  0  0  0  0  0  0  0  0  0
  -30.5496  -13.0888   20.0752 C   0  0  0  0  0  0  0  0  0  0  0  0
  -28.0915  -13.1076   19.9122 C   0  0  0  0  0  0  0  0  0  0  0  0
  -25.1885  -31.4030   25.2753 C   0  0  1  0  0  0  0  0  0  0  0  0
  -24.4458  -31.5149   21.5512 C   0  0  1  0  0  0  0  0  0  0  0  0
  -28.1130  -12.0150   18.8308 C   0  0  2  0  0  0  0  0  0  0  0  0
  -29.5674  -20.2646   21.3183 C   0  0  0  0  0  0  0  0  0  0  0  0
  -19.3077  -31.4837   15.7544 C   0  0  0  0  0  0  0  0  0  0  0  0
  -19.9891  -30.5262   22.2728 C   0  0  0  0  0  0  0  0  0  0  0  0
  -18.5788  -30.3377   20.2128 C   0  0  0  0  0  0  0  0  0  0  0  0
  -19.3295  -32.5800   21.0074 C   0  0  0  0  0  0  0  0  0  0  0  0
  -23.0945  -31.2999   15.4344 C   0  0  0  0  0  0  0  0  0  0  0  0
  -27.3334  -24.8667   20.4404 C   0  0  0  0  0  0  0  0  0  1  0  0
  -21.0092  -31.0129   19.9515 C   0  0  1  0  0  0  0  0  0  0  0  0
  -20.7474  -31.6331   16.2210 C   0  0  2  0  0  0  0  0  0  0  0  0
  -19.7522  -31.1018   20.8623 C   0  0  0  0  0  0  0  0  0  0  0  0
  -26.2015  -10.9799   19.9954 N   0  0  0  0  0  0  0  0  0  0  0  0
  -26.8406  -11.1885   18.8317 N   0  0  0  0  0  0  0  0  0  0  0  0
  -26.9276  -21.1975   20.6830 N   0  0  0  0  0  0  0  0  0  0  0  0
  -23.3344  -30.9345   20.7946 N   0  0  0  0  0  0  0  0  0  0  0  0
  -29.3392  -13.8858   19.8637 N   0  0  0  0  0  0  0  0  0  0  0  0
  -26.7447  -10.7152   16.5128 N   0  0  0  0  0  0  0  0  0  0  0  0
  -23.0895   -8.6311   18.1537 N   0  0  0  0  0  0  0  0  0  0  0  0
  -28.2348  -15.9226   19.4231 N   0  0  0  0  0  0  0  0  0  0  0  0
  -25.1912  -31.6523   23.8497 N   0  0  0  0  0  0  0  0  0  0  0  0
  -20.8221  -31.5752   18.6184 N   0  0  0  0  0  0  0  0  0  0  0  0
  -21.6470  -31.1853   15.1205 N   0  3  0  0  0  0  0  0  0  0  0  0
  -24.2931   -9.0549   16.2483 O   0  0  0  0  0  0  0  0  0  0  0  0
  -23.3140  -30.3920   23.2928 O   0  0  0  0  0  0  0  0  0  0  0  0
  -22.1334  -32.9329   20.7739 O   0  0  0  0  0  0  0  0  0  0  0  0
  -21.3385  -29.6393   17.4510 O   0  0  0  0  0  0  0  0  0  0  0  0
  -30.5445  -15.8439   19.6249 O   0  0  0  0  0  0  0  0  0  0  0  0
  -21.4714   -8.5286   23.4834 O   0  0  0  0  0  0  0  0  0  0  0  0
  -26.2284  -25.5660   19.8692 O   0  0  0  0  0  0  0  0  0  1  0  0
  -19.8209   -3.2707   23.2998 F   0  0  0  0  0  0  0  0  0  0  0  0
  -25.7149  -16.9779   18.8706 F   0  0  0  0  0  0  0  0  0  0  0  0
  -21.8965   -6.8330   25.6251 F   0  0  0  0  0  0  0  0  0  0  0  0
  1  2  1  0  0  0  0
  1  5  2  0  0  0  0
  2  6  2  0  0  0  0
  3  8  2  0  0  0  0
  3 17  1  0  0  0  0
  4  9  1  0  0  0  0
  4 17  2  0  0  0  0
  5 19  1  0  0  0  0
  6 21  1  0  0  0  0
  7 10  2  0  0  0  0
  7 20  1  0  0  0  0
  8 26  1  0  0  0  0
  9 26  2  0  0  0  0
 10 27  1  0  0  0  0
 11 12  2  0  0  0  0
 11 28  1  0  0  0  0
 12 29  1  0  0  0  0
 13 22  1  0  0  0  0
 13 27  2  0  0  0  0
 14 23  1  0  0  0  0
 14 25  2  0  0  0  0
 15 24  1  0  0  0  0
 15 30  2  0  0  0  0
 16 29  2  0  0  0  0
 16 31  1  0  0  0  0
 17 32  1  0  0  0  0
 18 32  1  0  0  0  0
 18 33  2  0  0  0  0
 18 38  1  0  0  0  0
 19 21  2  0  0  0  0
 19 43  1  0  0  0  0
 20 22  2  0  0  0  0
 20 44  1  0  0  0  0
 21 53  1  0  0  0  0
 22 45  1  0  0  0  0
 23 24  2  0  0  0  0
 23 56  1  0  0  0  0
 24 68  1  0  0  0  0
 25 30  1  0  0  0  0
 25 73  1  0  0  0  0
 26 82  1  0  0  0  0
 27 83  1  0  0  0  0
 28 31  2  0  0  0  0
 28 82  1  0  0  0  0
 29 84  1  0  0  0  0
 30 85  1  0  0  0  0
 31 86  1  0  0  0  0
 32 66  2  0  0  0  0
 33 67  1  0  0  0  0
 33 71  1  0  0  0  0
 34 35  2  0  0  0  0
 34 68  1  0  0  0  0
 35 36  1  0  0  0  0
 35 62  1  0  0  0  0
 36 37  2  0  0  0  0
 36 46  1  0  0  0  0
 38 72  1  0  0  0  0
 38 77  2  0  0  0  0
 39 54  1  0  0  0  0
 39 74  1  0  0  0  0
 39 78  2  0  0  0  0
 40 63  1  0  0  0  0
 40 69  1  0  0  0  0
 40 79  2  0  0  0  0
 41 64  1  0  0  0  0
 41 75  1  0  0  0  0
 41 80  2  0  0  0  0
 42 70  1  0  0  0  0
 42 73  1  0  0  0  0
 42 81  2  0  0  0  0
 43 47  1  0  0  0  0
 44 54  1  0  0  0  0
 45 69  1  0  0  0  0
 46 68  1  0  0  0  0
 47 49  1  0  0  0  0
 48 50  1  0  0  0  0
 48 51  1  0  0  0  0
 49 53  1  0  0  0  0
 50 55  1  0  0  0  0
 51 70  1  0  0  0  0
 52 55  1  0  0  0  0
 52 70  1  0  0  0  0
 53 74  1  0  0  0  0
 54 69  1  0  0  0  0
 55 67  1  0  0  0  0
 57 64  1  0  0  0  0
 58 65  1  0  0  0  0
 59 65  1  0  0  0  0
 60 65  1  0  0  0  0
 61 76  1  0  0  0  0
 62 83  1  0  0  0  0
 63 65  1  0  0  0  0
 63 75  1  0  0  0  0
 64 76  1  0  0  0  0
 66 67  1  0  0  0  0
M  CHG  1  76   1
M  ISO  4  42 100  62 101  73 100  83 101
M  END
> <Batch ID>
0078

> <Smiles>
C=C1CN(c2cc(F)c([100NH:0][100C:0](=O)N3CCCC(n4nc(-c5ccc(Oc6ccc(F)cc6F)cc5)c(C(N)=O)c4N)C3)cc2C)C=C1[101CH2:1][101O:1]c1ccc2c(c1)CN(C(=O)C(NC(=O)C(C)NC)C(C)(C)C)C(C(=O)NC1CCCc3ccccc31)C2

> <Shape>
0.276

> <Color>
0.086

> <Negative vol penalty>
0.000

$$$$

  -OEChem-04042323563D

 86 95  0     1  0  0  0  0  0999 V2000
  -30.9797  -26.3490   16.7254 C   0  0  0  0  0  0  0  0  0  0  0  0
  -29.6258  -26.0902   16.9137 C   0  0  0  0  0  0  0  0  0  0  0  0
  -24.5918  -15.2328   20.1538 C   0  0  0  0  0  0  0  0  0  0  0  0
  -26.7027  -14.9406   19.0155 C   0  0  0  0  0  0  0  0  0  0  0  0
  -31.7254  -26.9330   17.7485 C   0  0  0  0  0  0  0  0  0  0  0  0
  -29.0171  -26.4144   18.1256 C   0  0  0  0  0  0  0  0  0  0  0  0
  -23.7204  -22.9640   24.8243 C   0  0  0  0  0  0  0  0  0  0  0  0
  -23.2766  -28.3816   18.9520 C   0  0  0  0  0  0  0  0  0  0  0  0
  -22.8491  -23.5860   23.9310 C   0  0  0  0  0  0  0  0  0  0  0  0
  -24.6673  -13.9240   20.6299 C   0  0  0  0  0  0  0  0  0  0  0  0
  -26.7783  -13.6317   19.4918 C   0  0  0  0  0  0  0  0  0  0  0  0
  -22.1056  -27.7259   19.3296 C   0  0  0  0  0  0  0  0  0  0  0  0
  -24.1090  -10.8074   19.4469 C   0  0  0  0  0  0  0  0  0  0  0  0
  -22.9587  -10.0225   19.3680 C   0  0  0  0  0  0  0  0  0  0  0  0
  -24.7134  -24.1353   22.5031 C   0  0  0  0  0  0  0  0  0  0  0  0
  -22.4727  -28.4003   21.6165 C   0  0  0  0  0  0  0  0  0  0  0  0
  -22.9764   -9.7551   21.7691 C   0  0  0  0  0  0  0  0  0  0  0  0
  -25.6095  -15.7411   19.3465 C   0  0  0  0  0  0  0  0  0  0  0  0
  -24.5261  -17.6435   18.0369 C   0  0  0  0  0  0  0  0  0  0  0  0
  -31.1234  -27.2733   18.9701 C   0  0  0  0  0  0  0  0  0  0  0  0
  -25.0988  -22.9124   24.5633 C   0  0  0  0  0  0  0  0  0  0  0  0
  -24.0615  -29.0434   19.9072 C   0  0  0  0  0  0  0  0  0  0  0  0
  -29.7558  -27.0023   19.1665 C   0  0  0  0  0  0  0  0  0  0  0  0
  -25.6043  -23.5122   23.3936 C   0  0  0  0  0  0  0  0  0  0  0  0
  -23.6518  -29.0658   21.2480 C   0  0  0  0  0  0  0  0  0  0  0  0
  -23.3454  -24.1714   22.7707 C   0  0  0  0  0  0  0  0  0  0  0  0
  -25.7605  -13.1234   20.2990 C   0  0  0  0  0  0  0  0  0  0  0  0
  -21.7050  -27.7328   20.6625 C   0  0  0  0  0  0  0  0  0  0  0  0
  -24.6931  -11.0661   20.6869 C   0  0  0  0  0  0  0  0  0  0  0  0
  -22.3924   -9.4963   20.5291 C   0  0  0  0  0  0  0  0  0  0  0  0
  -24.1268  -10.5400   21.8480 C   0  0  0  0  0  0  0  0  0  0  0  0
  -25.5318  -17.0929   18.8538 C   0  0  0  0  0  0  0  0  0  0  0  0
  -24.9105  -18.9491   17.8519 C   0  0  0  0  0  0  0  0  0  0  0  0
  -23.3496  -17.0297   17.4940 C   0  0  0  0  0  0  0  0  0  0  0  0
  -27.0336  -28.7153   20.9854 C   0  0  0  0  0  0  0  0  0  0  0  0
  -26.3293  -31.4335   22.6095 C   0  0  0  0  0  0  0  0  0  0  0  0
  -23.9429  -33.4689   23.9546 C   0  0  0  0  0  0  0  0  0  0  0  0
  -21.0824  -24.9395   21.9784 C   0  0  0  0  0  0  0  0  0  0  0  0
  -28.3208  -22.6880   21.0521 C   0  0  0  0  0  0  0  0  0  0  0  0
  -31.9809  -27.8595   20.0636 C   0  0  0  0  0  0  0  0  0  0  0  0
  -26.0059  -22.2735   25.5854 C   0  0  0  0  0  0  0  0  0  0  0  0
  -25.3079  -29.7686   19.4793 C   0  0  0  0  0  0  0  0  0  0  0  0
  -24.4484  -29.7790   22.3088 C   0  0  0  0  0  0  0  0  0  0  0  0
  -31.1765  -28.5162   21.1825 C   0  0  0  0  0  0  0  0  0  0  0  0
  -27.4081  -21.9762   25.0595 C   0  0  0  0  0  0  0  0  0  0  0  0
  -28.8111  -21.7131   17.6630 C   0  0  0  0  0  0  0  0  0  0  0  0
  -30.0278  -27.6111   21.6162 C   0  0  0  0  0  0  0  0  0  0  0  0
  -27.9495  -23.1706   24.2822 C   0  0  0  0  0  0  0  0  0  0  0  0
  -27.9355  -20.4681   17.5102 C   0  0  0  0  0  0  0  0  0  0  0  0
  -29.4566  -21.7829   19.0452 C   0  0  0  0  0  0  0  0  0  0  0  0
  -27.6381  -20.4365   20.0220 C   0  0  0  0  0  0  0  0  0  0  0  0
  -29.0540  -27.3622   20.4580 C   0  0  1  0  0  0  0  0  0  0  0  0
  -27.0794  -23.4687   23.0542 C   0  0  1  0  0  0  0  0  0  0  0  0
  -26.3004  -29.9747   20.6194 C   0  0  1  0  0  0  0  0  0  0  0  0
  -26.9212  -20.3510   18.6637 C   0  0  2  0  0  0  0  0  0  0  0  0
  -23.6750  -35.5993   25.2533 C   0  0  0  0  0  0  0  0  0  0  0  0
  -19.0476  -25.2933   20.5314 C   0  0  0  0  0  0  0  0  0  0  0  0
  -27.1925  -29.9880   25.1542 C   0  0  0  0  0  0  0  0  0  0  0  0
  -26.0323  -31.7694   26.4765 C   0  0  0  0  0  0  0  0  0  0  0  0
  -27.9501  -32.3662   24.9972 C   0  0  0  0  0  0  0  0  0  0  0  0
  -22.3949  -34.7389   21.7752 C   0  0  0  0  0  0  0  0  0  0  0  0
  -25.7295  -31.7477   23.9588 C   0  0  1  0  0  0  0  0  0  0  0  0
  -23.7354  -34.9703   23.8701 C   0  0  2  0  0  0  0  0  0  0  0  0
  -20.4944  -25.6894   20.7859 C   0  0  1  0  0  0  0  0  0  1  0  0
  -26.7119  -31.4526   25.1272 C   0  0  0  0  0  0  0  0  0  0  0  0
  -26.4836  -17.9764   19.1660 N   0  0  0  0  0  0  0  0  0  0  0  0
  -26.0777  -19.0953   18.5420 N   0  0  0  0  0  0  0  0  0  0  0  0
  -25.6627  -30.4681   21.8417 N   0  0  0  0  0  0  0  0  0  0  0  0
  -28.4405  -21.6676   20.0942 N   0  0  0  0  0  0  0  0  0  0  0  0
  -24.3605  -19.9747   17.1678 N   0  0  0  0  0  0  0  0  0  0  0  0
  -23.4361  -16.4145   16.2377 N   0  0  0  0  0  0  0  0  0  0  0  0
  -22.4621  -24.8042   21.8644 N   0  0  0  0  0  0  0  0  0  0  0  0
  -28.1947  -28.5105   20.2646 N   0  0  0  0  0  0  0  0  0  0  0  0
  -25.2790  -33.1337   23.8925 N   0  0  0  0  0  0  0  0  0  0  0  0
  -27.3286  -22.5031   22.0071 N   0  0  0  0  0  0  0  0  0  0  0  0
  -22.4630  -35.2780   23.1579 N   0  3  0  0  0  0  0  0  0  0  0  0
  -22.2500  -17.0412   18.0976 O   0  0  0  0  0  0  0  0  0  0  0  0
  -26.5803  -27.9842   21.8582 O   0  0  0  0  0  0  0  0  0  0  0  0
  -27.3475  -32.0280   22.2471 O   0  0  0  0  0  0  0  0  0  0  0  0
  -23.0131  -32.6733   24.0684 O   0  0  0  0  0  0  0  0  0  0  0  0
  -20.3696  -24.5471   22.8977 O   0  0  0  0  0  0  0  0  0  0  0  0
  -29.0410  -23.6921   21.0527 O   0  0  0  0  0  0  0  0  0  0  0  0
  -25.8347  -11.8463   20.7637 O   0  0  0  0  0  0  0  0  0  0  0  0
  -20.5628  -27.0930   21.0339 O   0  0  0  0  0  0  0  0  0  1  0  0
  -21.2868   -8.7439   20.4533 F   0  0  0  0  0  0  0  0  0  0  0  0
  -24.6827  -10.7861   23.0423 F   0  0  0  0  0  0  0  0  0  0  0  0
  1  2  1  0  0  0  0
  1  5  2  0  0  0  0
  2  6  2  0  0  0  0
  3 10  2  0  0  0  0
  3 18  1  0  0  0  0
  4 11  1  0  0  0  0
  4 18  2  0  0  0  0
  5 20  1  0  0  0  0
  6 23  1  0  0  0  0
  7  9  2  0  0  0  0
  7 21  1  0  0  0  0
  8 12  2  0  0  0  0
  8 22  1  0  0  0  0
  9 26  1  0  0  0  0
 10 27  1  0  0  0  0
 11 27  2  0  0  0  0
 12 28  1  0  0  0  0
 13 14  2  0  0  0  0
 13 29  1  0  0  0  0
 14 30  1  0  0  0  0
 15 24  1  0  0  0  0
 15 26  2  0  0  0  0
 16 25  1  0  0  0  0
 16 28  2  0  0  0  0
 17 30  2  0  0  0  0
 17 31  1  0  0  0  0
 18 32  1  0  0  0  0
 19 32  1  0  0  0  0
 19 33  2  0  0  0  0
 19 34  1  0  0  0  0
 20 23  2  0  0  0  0
 20 40  1  0  0  0  0
 21 24  2  0  0  0  0
 21 41  1  0  0  0  0
 22 25  2  0  0  0  0
 22 42  1  0  0  0  0
 23 52  1  0  0  0  0
 24 53  1  0  0  0  0
 25 43  1  0  0  0  0
 26 72  1  0  0  0  0
 27 83  1  0  0  0  0
 28 84  1  0  0  0  0
 29 31  2  0  0  0  0
 29 83  1  0  0  0  0
 30 85  1  0  0  0  0
 31 86  1  0  0  0  0
 32 66  2  0  0  0  0
 33 67  1  0  0  0  0
 33 70  1  0  0  0  0
 34 71  1  0  0  0  0
 34 77  2  0  0  0  0
 35 54  1  0  0  0  0
 35 73  1  0  0  0  0
 35 78  2  0  0  0  0
 36 62  1  0  0  0  0
 36 68  1  0  0  0  0
 36 79  2  0  0  0  0
 37 63  1  0  0  0  0
 37 74  1  0  0  0  0
 37 80  2  0  0  0  0
 38 64  1  0  0  0  0
 38 72  1  0  0  0  0
 38 81  2  0  0  0  0
 39 69  1  0  0  0  0
 39 75  1  0  0  0  0
 39 82  2  0  0  0  0
 40 44  1  0  0  0  0
 41 45  1  0  0  0  0
 42 54  1  0  0  0  0
 43 68  1  0  0  0  0
 44 47  1  0  0  0  0
 45 48  1  0  0  0  0
 46 49  1  0  0  0  0
 46 50  1  0  0  0  0
 47 52  1  0  0  0  0
 48 53  1  0  0  0  0
 49 55  1  0  0  0  0
 50 69  1  0  0  0  0
 51 55  1  0  0  0  0
 51 69  1  0  0  0  0
 52 73  1  0  0  0  0
 53 75  1  0  0  0  0
 54 68  1  0  0  0  0
 55 67  1  0  0  0  0
 56 63  1  0  0  0  0
 57 64  1  0  0  0  0
 58 65  1  0  0  0  0
 59 65  1  0  0  0  0
 60 65  1  0  0  0  0
 61 76  1  0  0  0  0
 62 65  1  0  0  0  0
 62 74  1  0  0  0  0
 63 76  1  0  0  0  0
 64 84  1  0  0  0  0
 66 67  1  0  0  0  0
M  CHG  1  76   1
M  ISO  4  39 100  64 101  75 100  84 101
M  END
> <Batch ID>
0078

> <Smiles>
CNC(C)C(=O)NC(C(=O)N1Cc2cc([101O:1][101CH:1](C)C(=O)Nc3ccc4c(c3)C([100NH:0][100C:0](=O)N3CCCC(n5nc(-c6ccc(Oc7ccc(F)cc7F)cc6)c(C(N)=O)c5N)C3)CCC4)ccc2CC1C(=O)NC1CCCc2ccccc21)C(C)(C)C

> <Shape>
0.277

> <Color>
0.072

> <Negative vol penalty>
0.000

$$$$

  -OEChem-04042323563D

 87 96  0     1  0  0  0  0  0999 V2000
  -19.2732  -27.9975   16.4396 C   0  0  0  0  0  0  0  0  0  0  0  0
  -20.6606  -27.9296   16.5168 C   0  0  0  0  0  0  0  0  0  0  0  0
  -24.2554  -12.0205   24.0499 C   0  0  0  0  0  0  0  0  0  0  0  0
  -23.7635  -14.3341   23.5573 C   0  0  0  0  0  0  0  0  0  0  0  0
  -18.5977  -29.0837   16.9943 C   0  0  0  0  0  0  0  0  0  0  0  0
  -21.3734  -28.9485   17.1479 C   0  0  0  0  0  0  0  0  0  0  0  0
  -24.9749  -27.1757   20.2351 C   0  0  0  0  0  0  0  0  0  0  0  0
  -31.4676  -19.6477   19.1004 C   0  0  0  0  0  0  0  0  0  0  0  0
  -31.1208  -18.2968   19.0918 C   0  0  0  0  0  0  0  0  0  0  0  0
  -23.7178  -12.1782   25.3273 C   0  0  0  0  0  0  0  0  0  0  0  0
  -23.2259  -14.4917   24.8347 C   0  0  0  0  0  0  0  0  0  0  0  0
  -26.1550  -26.7258   19.6445 C   0  0  0  0  0  0  0  0  0  0  0  0
  -20.6486  -12.2945   26.7413 C   0  0  0  0  0  0  0  0  0  0  0  0
  -19.7890  -11.3011   27.2100 C   0  0  0  0  0  0  0  0  0  0  0  0
  -27.2236  -28.8154   20.2022 C   0  0  0  0  0  0  0  0  0  0  0  0
  -29.1278  -20.2487   19.0707 C   0  0  0  0  0  0  0  0  0  0  0  0
  -21.2841  -10.8803   29.0605 C   0  0  0  0  0  0  0  0  0  0  0  0
  -24.2783  -13.0985   23.1649 C   0  0  0  0  0  0  0  0  0  0  0  0
  -24.1521  -12.5431   20.6783 C   0  0  0  0  0  0  0  0  0  0  0  0
  -19.3018  -30.1116   17.6410 C   0  0  0  0  0  0  0  0  0  0  0  0
  -24.9070  -28.4551   20.8050 C   0  0  0  0  0  0  0  0  0  0  0  0
  -20.7067  -30.0501   17.7106 C   0  0  0  0  0  0  0  0  0  0  0  0
  -26.0422  -29.2781   20.8017 C   0  0  0  0  0  0  0  0  0  0  0  0
  -30.4711  -20.6238   19.0900 C   0  0  0  0  0  0  0  0  0  0  0  0
  -29.7774  -17.9217   19.0725 C   0  0  0  0  0  0  0  0  0  0  0  0
  -23.2031  -13.4138   25.7197 C   0  0  0  0  0  0  0  0  0  0  0  0
  -27.2787  -27.5468   19.6255 C   0  0  0  0  0  0  0  0  0  0  0  0
  -21.8261  -12.5808   27.4322 C   0  0  0  0  0  0  0  0  0  0  0  0
  -20.1067  -10.5940   28.3696 C   0  0  0  0  0  0  0  0  0  0  0  0
  -28.7809  -18.8977   19.0620 C   0  0  0  0  0  0  0  0  0  0  0  0
  -22.1439  -11.8737   28.5918 C   0  0  0  0  0  0  0  0  0  0  0  0
  -24.8340  -12.9364   21.8454 C   0  0  0  0  0  0  0  0  0  0  0  0
  -25.1172  -12.5411   19.7010 C   0  0  0  0  0  0  0  0  0  0  0  0
  -30.7277  -24.2709   19.1027 C   0  0  0  0  0  0  0  0  0  0  0  0
  -32.1262  -23.9223   19.1208 C   0  0  0  0  0  0  0  0  0  0  0  0
  -29.8975  -23.0342   19.0887 C   0  0  0  0  0  0  0  0  0  0  0  0
  -33.1852  -24.7388   19.1376 C   0  0  0  0  0  0  0  0  0  0  0  0
  -30.1569  -25.4805   19.0981 C   0  0  0  0  0  0  0  0  0  0  0  0
  -22.7699  -12.2095   20.4940 C   0  0  0  0  0  0  0  0  0  0  0  0
  -23.2000  -31.0758   20.2373 C   0  0  0  0  0  0  0  0  0  0  0  0
  -24.6620  -32.1404   22.9302 C   0  0  0  0  0  0  0  0  0  0  0  0
  -27.3154  -31.9234   25.0654 C   0  0  0  0  0  0  0  0  0  0  0  0
  -30.2951  -15.4563   19.0712 C   0  0  0  0  0  0  0  0  0  0  0  0
  -18.5314  -31.2891   18.1839 C   0  0  0  0  0  0  0  0  0  0  0  0
  -23.6345  -28.9153   21.4619 C   0  0  0  0  0  0  0  0  0  0  0  0
  -26.0273  -30.6523   21.4179 C   0  0  0  0  0  0  0  0  0  0  0  0
  -32.2059  -22.4256   19.1179 C   0  0  0  0  0  0  0  0  0  0  0  0
  -19.3329  -32.1416   19.1643 C   0  0  0  0  0  0  0  0  0  0  0  0
  -29.8272  -11.9267   19.0906 C   0  0  0  0  0  0  0  0  0  0  0  0
  -20.7262  -32.4238   18.6110 C   0  0  0  0  0  0  0  0  0  0  0  0
  -28.4292  -11.7496   19.6874 C   0  0  0  0  0  0  0  0  0  0  0  0
  -30.5816  -13.0820   19.7463 C   0  0  0  0  0  0  0  0  0  0  0  0
  -28.4659  -14.1860   20.3580 C   0  0  0  0  0  0  0  0  0  0  0  0
  -21.5133  -31.1235   18.4088 C   0  0  1  0  0  0  0  0  0  0  0  0
  -23.5261  -30.4341   21.5562 C   0  0  1  0  0  0  0  0  0  0  0  0
  -27.6431  -13.0754   19.6847 C   0  0  2  0  0  0  0  0  0  0  0  0
  -28.2505  -32.9491   27.1561 C   0  0  0  0  0  0  0  0  0  0  0  0
  -25.5531  -34.5815   21.3312 C   0  0  0  0  0  0  0  0  0  0  0  0
  -27.2235  -35.0648   23.1323 C   0  0  0  0  0  0  0  0  0  0  0  0
  -24.7851  -35.0821   23.6579 C   0  0  0  0  0  0  0  0  0  0  0  0
  -27.1954  -29.3492   26.5207 C   0  0  0  0  0  0  0  0  0  0  0  0
  -28.6814  -25.7057   19.0786 C   0  0  0  0  0  0  0  0  0  1  0  0
  -25.9452  -32.8768   23.2302 C   0  0  1  0  0  0  0  0  0  0  0  0
  -27.3856  -31.8390   26.5795 C   0  0  2  0  0  0  0  0  0  0  0  0
  -25.8768  -34.3762   22.8245 C   0  0  0  0  0  0  0  0  0  0  0  0
  -26.1320  -13.1673   21.6313 N   0  0  0  0  0  0  0  0  0  0  0  0
  -26.2735  -12.9183   20.3182 N   0  0  0  0  0  0  0  0  0  0  0  0
  -30.8169  -21.9713   19.0980 N   0  0  0  0  0  0  0  0  0  0  0  0
  -24.7577  -31.0594   22.0424 N   0  0  0  0  0  0  0  0  0  0  0  0
  -29.7778  -14.3055   19.7028 N   0  0  0  0  0  0  0  0  0  0  0  0
  -25.0811  -12.2535   18.3825 N   0  0  0  0  0  0  0  0  0  0  0  0
  -21.9158  -12.2635   21.6039 N   0  0  0  0  0  0  0  0  0  0  0  0
  -29.4281  -16.5485   19.0632 N   0  0  0  0  0  0  0  0  0  0  0  0
  -22.0171  -30.6356   19.6747 N   0  0  0  0  0  0  0  0  0  0  0  0
  -26.2234  -32.6526   24.6447 N   0  0  0  0  0  0  0  0  0  0  0  0
  -27.9602  -30.5295   26.9991 N   0  3  0  0  0  0  0  0  0  0  0  0
  -28.6789  -22.9893   19.0727 O   0  0  0  0  0  0  0  0  0  0  0  0
  -22.3094  -11.8577   19.3815 O   0  0  0  0  0  0  0  0  0  0  0  0
  -23.9642  -31.9097   19.7658 O   0  0  0  0  0  0  0  0  0  0  0  0
  -23.6146  -32.5062   23.4694 O   0  0  0  0  0  0  0  0  0  0  0  0
  -28.1481  -31.3983   24.3296 O   0  0  0  0  0  0  0  0  0  0  0  0
  -31.4133  -15.4633   18.5500 O   0  0  0  0  0  0  0  0  0  0  0  0
  -22.6782  -13.5679   26.9660 O   0  0  0  0  0  0  0  0  0  0  0  0
  -28.4316  -27.1104   19.0491 O   0  0  0  0  0  0  0  0  0  1  0  0
  -19.2803   -9.6412   28.8204 F   0  0  0  0  0  0  0  0  0  0  0  0
  -27.4864  -18.5489   19.0420 F   0  0  0  0  0  0  0  0  0  0  0  0
  -23.2730  -12.1451   29.2605 F   0  0  0  0  0  0  0  0  0  0  0  0
  1  2  1  0  0  0  0
  1  5  2  0  0  0  0
  2  6  2  0  0  0  0
  3 10  2  0  0  0  0
  3 18  1  0  0  0  0
  4 11  1  0  0  0  0
  4 18  2  0  0  0  0
  5 20  1  0  0  0  0
  6 22  1  0  0  0  0
  7 12  2  0  0  0  0
  7 21  1  0  0  0  0
  8  9  2  0  0  0  0
  8 24  1  0  0  0  0
  9 25  1  0  0  0  0
 10 26  1  0  0  0  0
 11 26  2  0  0  0  0
 12 27  1  0  0  0  0
 13 14  2  0  0  0  0
 13 28  1  0  0  0  0
 14 29  1  0  0  0  0
 15 23  1  0  0  0  0
 15 27  2  0  0  0  0
 16 24  2  0  0  0  0
 16 30  1  0  0  0  0
 17 29  2  0  0  0  0
 17 31  1  0  0  0  0
 18 32  1  0  0  0  0
 19 32  1  0  0  0  0
 19 33  2  0  0  0  0
 19 39  1  0  0  0  0
 20 22  2  0  0  0  0
 20 44  1  0  0  0  0
 21 23  2  0  0  0  0
 21 45  1  0  0  0  0
 22 54  1  0  0  0  0
 23 46  1  0  0  0  0
 24 68  1  0  0  0  0
 25 30  2  0  0  0  0
 25 73  1  0  0  0  0
 26 83  1  0  0  0  0
 27 84  1  0  0  0  0
 28 31  2  0  0  0  0
 28 83  1  0  0  0  0
 29 85  1  0  0  0  0
 30 86  1  0  0  0  0
 31 87  1  0  0  0  0
 32 66  2  0  0  0  0
 33 67  1  0  0  0  0
 33 71  1  0  0  0  0
 34 35  1  0  0  0  0
 34 36  1  0  0  0  0
 34 38  2  0  0  0  0
 35 37  2  0  0  0  0
 35 47  1  0  0  0  0
 36 68  1  0  0  0  0
 36 77  2  0  0  0  0
 38 62  1  0  0  0  0
 39 72  1  0  0  0  0
 39 78  2  0  0  0  0
 40 55  1  0  0  0  0
 40 74  1  0  0  0  0
 40 79  2  0  0  0  0
 41 63  1  0  0  0  0
 41 69  1  0  0  0  0
 41 80  2  0  0  0  0
 42 64  1  0  0  0  0
 42 75  1  0  0  0  0
 42 81  2  0  0  0  0
 43 70  1  0  0  0  0
 43 73  1  0  0  0  0
 43 82  2  0  0  0  0
 44 48  1  0  0  0  0
 45 55  1  0  0  0  0
 46 69  1  0  0  0  0
 47 68  1  0  0  0  0
 48 50  1  0  0  0  0
 49 51  1  0  0  0  0
 49 52  1  0  0  0  0
 50 54  1  0  0  0  0
 51 56  1  0  0  0  0
 52 70  1  0  0  0  0
 53 56  1  0  0  0  0
 53 70  1  0  0  0  0
 54 74  1  0  0  0  0
 55 69  1  0  0  0  0
 56 67  1  0  0  0  0
 57 64  1  0  0  0  0
 58 65  1  0  0  0  0
 59 65  1  0  0  0  0
 60 65  1  0  0  0  0
 61 76  1  0  0  0  0
 62 84  1  0  0  0  0
 63 65  1  0  0  0  0
 63 75  1  0  0  0  0
 64 76  1  0  0  0  0
 66 67  1  0  0  0  0
M  CHG  1  76   1
M  ISO  4  43 100  62 101  73 100  84 101
M  END
> <Batch ID>
0078

> <Smiles>
C=C1CN(c2ccc([100NH:0][100C:0](=O)N3CCCC(n4nc(-c5ccc(Oc6ccc(F)cc6F)cc5)c(C(N)=O)c4N)C3)c(F)c2)C(=O)C1=C[101CH2:1][101O:1]c1ccc2c(c1)CN(C(=O)C(NC(=O)C(C)NC)C(C)(C)C)C(C(=O)NC1CCCc3ccccc31)C2

> <Shape>
0.278

> <Color>
0.129

> <Negative vol penalty>
0.000

$$$$

  -OEChem-04042323563D

 86 95  0     1  0  0  0  0  0999 V2000
  -27.9783  -38.2458   20.7314 C   0  0  0  0  0  0  0  0  0  0  0  0
  -28.0094  -37.1710   19.8488 C   0  0  0  0  0  0  0  0  0  0  0  0
  -22.9181   -9.8841   20.4749 C   0  0  0  0  0  0  0  0  0  0  0  0
  -24.6542   -8.4612   21.3684 C   0  0  0  0  0  0  0  0  0  0  0  0
  -27.9341  -38.0165   22.1060 C   0  0  0  0  0  0  0  0  0  0  0  0
  -27.9975  -35.8661   20.3402 C   0  0  0  0  0  0  0  0  0  0  0  0
  -25.6239  -29.3072   18.7082 C   0  0  0  0  0  0  0  0  0  0  0  0
  -29.3814  -19.1119   20.1581 C   0  0  0  0  0  0  0  0  0  0  0  0
  -29.5218  -17.7242   20.1704 C   0  0  0  0  0  0  0  0  0  0  0  0
  -22.0088   -9.3468   21.3860 C   0  0  0  0  0  0  0  0  0  0  0  0
  -23.7450   -7.9239   22.2795 C   0  0  0  0  0  0  0  0  0  0  0  0
  -26.0816  -27.9962   18.5836 C   0  0  0  0  0  0  0  0  0  0  0  0
  -21.2566   -5.6351   22.2604 C   0  0  0  0  0  0  0  0  0  0  0  0
  -21.2490   -4.2504   22.4283 C   0  0  0  0  0  0  0  0  0  0  0  0
  -25.9243  -27.7205   20.9749 C   0  0  0  0  0  0  0  0  0  0  0  0
  -27.1217  -17.4802   20.0392 C   0  0  0  0  0  0  0  0  0  0  0  0
  -21.7858   -4.5311   24.7672 C   0  0  0  0  0  0  0  0  0  0  0  0
  -24.2408   -9.4413   20.4661 C   0  0  0  0  0  0  0  0  0  0  0  0
  -25.0962   -9.9624   18.1199 C   0  0  0  0  0  0  0  0  0  0  0  0
  -27.9120  -36.7082   22.6142 C   0  0  0  0  0  0  0  0  0  0  0  0
  -25.3228  -29.8391   19.9703 C   0  0  0  0  0  0  0  0  0  0  0  0
  -27.9544  -35.6191   21.7229 C   0  0  0  0  0  0  0  0  0  0  0  0
  -25.4605  -29.0377   21.1126 C   0  0  0  0  0  0  0  0  0  0  0  0
  -28.1112  -19.6838   20.0865 C   0  0  0  0  0  0  0  0  0  0  0  0
  -28.3920  -16.9083   20.1109 C   0  0  0  0  0  0  0  0  0  0  0  0
  -22.4222   -8.3667   22.2883 C   0  0  0  0  0  0  0  0  0  0  0  0
  -26.2346  -27.2036   19.7174 C   0  0  0  0  0  0  0  0  0  0  0  0
  -21.5289   -6.4678   23.3458 C   0  0  0  0  0  0  0  0  0  0  0  0
  -21.5135   -3.6984   23.6817 C   0  0  0  0  0  0  0  0  0  0  0  0
  -26.9814  -18.8679   20.0270 C   0  0  0  0  0  0  0  0  0  0  0  0
  -21.7934   -5.9158   24.5992 C   0  0  0  0  0  0  0  0  0  0  0  0
  -25.1804   -9.9955   19.5248 C   0  0  0  0  0  0  0  0  0  0  0  0
  -26.2239  -10.6199   17.6927 C   0  0  0  0  0  0  0  0  0  0  0  0
  -28.4305  -23.3006   20.9920 C   0  0  0  0  0  0  0  0  0  0  0  0
  -27.2779  -23.7733   20.4822 C   0  0  0  0  0  0  0  0  0  0  0  0
  -26.4806  -22.9326   19.5877 C   0  0  0  0  0  0  0  0  0  0  0  0
  -25.2041  -23.1882   19.2560 C   0  0  0  0  0  0  0  0  0  0  0  0
  -24.0887   -9.3885   17.2765 C   0  0  0  0  0  0  0  0  0  0  0  0
  -26.4468  -32.2457   21.7165 C   0  0  0  0  0  0  0  0  0  0  0  0
  -23.9831  -31.4618   23.6756 C   0  0  0  0  0  0  0  0  0  0  0  0
  -21.7786  -29.0890   24.7511 C   0  0  0  0  0  0  0  0  0  0  0  0
  -29.7221  -14.7704   20.1910 C   0  0  0  0  0  0  0  0  0  0  0  0
  -27.9118  -36.5101   24.1094 C   0  0  0  0  0  0  0  0  0  0  0  0
  -24.8047  -31.2465   20.0851 C   0  0  0  0  0  0  0  0  0  0  0  0
  -25.1316  -29.5548   22.4884 C   0  0  0  0  0  0  0  0  0  0  0  0
  -28.9604  -21.9118   20.7654 C   0  0  0  0  0  0  0  0  0  0  0  0
  -27.1905  -21.7223   19.0182 C   0  0  0  0  0  0  0  0  0  0  0  0
  -27.5235  -35.0969   24.5365 C   0  0  0  0  0  0  0  0  0  0  0  0
  -30.7304  -11.5674   19.0071 C   0  0  0  0  0  0  0  0  0  0  0  0
  -28.2730  -34.0624   23.7030 C   0  0  0  0  0  0  0  0  0  0  0  0
  -29.4134  -10.7998   18.8719 C   0  0  0  0  0  0  0  0  0  0  0  0
  -30.7235  -12.4963   20.2199 C   0  0  0  0  0  0  0  0  0  0  0  0
  -28.2656  -12.6507   20.1539 C   0  0  0  0  0  0  0  0  0  0  0  0
  -27.9178  -34.1890   22.2167 C   0  0  1  0  0  0  0  0  0  0  0  0
  -25.0182  -31.8508   21.4696 C   0  0  1  0  0  0  0  0  0  0  0  0
  -28.2007  -11.7503   18.9095 C   0  0  2  0  0  0  0  0  0  0  0  0
  -19.9109  -28.7333   26.3889 C   0  0  0  0  0  0  0  0  0  0  0  0
  -26.0133  -31.2701   25.9454 C   0  0  0  0  0  0  0  0  0  0  0  0
  -24.3015  -30.0196   27.2775 C   0  0  0  0  0  0  0  0  0  0  0  0
  -23.8542  -32.3685   26.5669 C   0  0  0  0  0  0  0  0  0  0  0  0
  -19.8425  -28.4984   22.5921 C   0  0  0  0  0  0  0  0  0  0  0  0
  -26.8152  -25.1682   20.8018 C   0  0  0  0  0  0  0  0  0  1  0  0
  -23.8025  -30.5207   24.8421 C   0  0  1  0  0  0  0  0  0  0  0  0
  -20.2769  -29.1339   24.9682 C   0  0  2  0  0  0  0  0  0  0  0  0
  -24.5010  -31.0353   26.1324 C   0  0  0  0  0  0  0  0  0  0  0  0
  -26.2751  -10.6243   19.9610 N   0  0  0  0  0  0  0  0  0  0  0  0
  -26.8892  -10.9922   18.8236 N   0  0  0  0  0  0  0  0  0  0  0  0
  -27.9738  -21.0736   20.0759 N   0  0  1  0  0  0  0  0  0  0  0  0
  -24.6345  -30.9392   22.5494 N   0  0  0  0  0  0  0  0  0  0  0  0
  -29.5487  -13.3701   20.1859 N   0  0  0  0  0  0  0  0  0  0  0  0
  -26.7013  -10.9102   16.4638 N   0  0  0  0  0  0  0  0  0  0  0  0
  -24.2364   -8.0549   16.8716 N   0  0  0  0  0  0  0  0  0  0  0  0
  -28.5348  -15.4986   20.1233 N   0  0  0  0  0  0  0  0  0  0  0  0
  -26.6244  -33.5953   21.9538 N   0  0  0  0  0  0  0  0  0  0  0  0
  -22.3650  -30.3154   24.9822 N   0  0  0  0  0  0  0  0  0  0  0  0
  -19.5893  -28.2059   24.0264 N   0  3  0  0  0  0  0  0  0  0  0  0
  -23.0956  -10.0442   16.8798 O   0  0  0  0  0  0  0  0  0  0  0  0
  -27.3228  -31.3890   21.6948 O   0  0  0  0  0  0  0  0  0  0  0  0
  -23.5555  -32.6159   23.7579 O   0  0  0  0  0  0  0  0  0  0  0  0
  -22.3727  -28.0672   24.4141 O   0  0  0  0  0  0  0  0  0  0  0  0
  -30.8427  -15.2854   20.2234 O   0  0  0  0  0  0  0  0  0  0  0  0
  -21.5353   -7.8423   23.1777 O   0  0  0  0  0  0  0  0  0  0  0  0
  -26.6819  -25.9238   19.5986 O   0  0  0  0  0  0  0  0  0  1  0  0
  -21.5047   -2.3687   23.8432 F   0  0  0  0  0  0  0  0  0  0  0  0
  -25.7559  -19.4074   19.9594 F   0  0  0  0  0  0  0  0  0  0  0  0
  -22.0545   -6.7108   25.6460 F   0  0  0  0  0  0  0  0  0  0  0  0
  1  2  1  0  0  0  0
  1  5  2  0  0  0  0
  2  6  2  0  0  0  0
  3 10  2  0  0  0  0
  3 18  1  0  0  0  0
  4 11  1  0  0  0  0
  4 18  2  0  0  0  0
  5 20  1  0  0  0  0
  6 22  1  0  0  0  0
  7 12  2  0  0  0  0
  7 21  1  0  0  0  0
  8  9  2  0  0  0  0
  8 24  1  0  0  0  0
  9 25  1  0  0  0  0
 10 26  1  0  0  0  0
 11 26  2  0  0  0  0
 12 27  1  0  0  0  0
 13 14  2  0  0  0  0
 13 28  1  0  0  0  0
 14 29  1  0  0  0  0
 15 23  1  0  0  0  0
 15 27  2  0  0  0  0
 16 25  2  0  0  0  0
 16 30  1  0  0  0  0
 17 29  2  0  0  0  0
 17 31  1  0  0  0  0
 18 32  1  0  0  0  0
 19 32  1  0  0  0  0
 19 33  2  0  0  0  0
 19 38  1  0  0  0  0
 20 22  2  0  0  0  0
 20 43  1  0  0  0  0
 21 23  2  0  0  0  0
 21 44  1  0  0  0  0
 22 54  1  0  0  0  0
 23 45  1  0  0  0  0
 24 30  2  0  0  0  0
 24 68  1  0  0  0  0
 25 73  1  0  0  0  0
 26 82  1  0  0  0  0
 27 83  1  0  0  0  0
 28 31  2  0  0  0  0
 28 82  1  0  0  0  0
 29 84  1  0  0  0  0
 30 85  1  0  0  0  0
 31 86  1  0  0  0  0
 32 66  2  0  0  0  0
 33 67  1  0  0  0  0
 33 71  1  0  0  0  0
 34 35  2  0  0  0  0
 34 46  1  0  0  0  0
 35 36  1  0  0  0  0
 35 62  1  0  0  0  0
 36 37  2  0  0  0  0
 36 47  1  0  0  0  0
 38 72  1  0  0  0  0
 38 77  2  0  0  0  0
 39 55  1  0  0  0  0
 39 74  1  0  0  0  0
 39 78  2  0  0  0  0
 40 63  1  0  0  0  0
 40 69  1  0  0  0  0
 40 79  2  0  0  0  0
 41 64  1  0  0  0  0
 41 75  1  0  0  0  0
 41 80  2  0  0  0  0
 42 70  1  0  0  0  0
 42 73  1  0  0  0  0
 42 81  2  0  0  0  0
 43 48  1  0  0  0  0
 44 55  1  0  0  0  0
 45 69  1  0  0  0  0
 46 68  1  0  0  0  0
 47 68  1  0  0  0  0
 48 50  1  0  0  0  0
 49 51  1  0  0  0  0
 49 52  1  0  0  0  0
 50 54  1  0  0  0  0
 51 56  1  0  0  0  0
 52 70  1  0  0  0  0
 53 56  1  0  0  0  0
 53 70  1  0  0  0  0
 54 74  1  0  0  0  0
 55 69  1  0  0  0  0
 56 67  1  0  0  0  0
 57 64  1  0  0  0  0
 58 65  1  0  0  0  0
 59 65  1  0  0  0  0
 60 65  1  0  0  0  0
 61 76  1  0  0  0  0
 62 83  1  0  0  0  0
 63 65  1  0  0  0  0
 63 75  1  0  0  0  0
 64 76  1  0  0  0  0
 66 67  1  0  0  0  0
M  CHG  1  76   1
M  ISO  4  42 100  62 101  73 100  83 101
M  END
> <Batch ID>
0078

> <Smiles>
C=C1CN(c2ccc([100NH:0][100C:0](=O)N3CCCC(n4nc(-c5ccc(Oc6ccc(F)cc6F)cc5)c(C(N)=O)c4N)C3)cc2F)CC=C1[101CH2:1][101O:1]c1ccc2c(c1)CN(C(=O)C(NC(=O)C(C)NC)C(C)(C)C)C(C(=O)NC1CCCc3ccccc31)C2

> <Shape>
0.307

> <Color>
0.106

> <Negative vol penalty>
0.000

$$$$

  -OEChem-04042323563D

 88 97  0     1  0  0  0  0  0999 V2000
  -31.2663  -25.1099   13.7833 C   0  0  0  0  0  0  0  0  0  0  0  0
  -30.6217  -24.2552   14.6718 C   0  0  0  0  0  0  0  0  0  0  0  0
  -31.0016  -17.2961   26.1294 C   0  0  0  0  0  0  0  0  0  0  0  0
  -22.8758  -16.1139   21.3362 C   0  0  0  0  0  0  0  0  0  0  0  0
  -22.2860  -14.9524   19.3014 C   0  0  0  0  0  0  0  0  0  0  0  0
  -31.5344  -16.7335   24.9696 C   0  0  0  0  0  0  0  0  0  0  0  0
  -31.6213  -26.3959   14.1883 C   0  0  0  0  0  0  0  0  0  0  0  0
  -30.3326  -24.6857   15.9662 C   0  0  0  0  0  0  0  0  0  0  0  0
  -25.4389  -23.1979   19.3342 C   0  0  0  0  0  0  0  0  0  0  0  0
  -29.7426  -17.8960   26.0989 C   0  0  0  0  0  0  0  0  0  0  0  0
  -21.8008  -16.9833   21.1515 C   0  0  0  0  0  0  0  0  0  0  0  0
  -21.2110  -15.8218   19.1168 C   0  0  0  0  0  0  0  0  0  0  0  0
  -25.2465  -22.2565   20.3444 C   0  0  0  0  0  0  0  0  0  0  0  0
  -21.0916  -19.7031   19.2742 C   0  0  0  0  0  0  0  0  0  0  0  0
  -21.3204  -21.0655   19.4667 C   0  0  0  0  0  0  0  0  0  0  0  0
  -29.5494  -17.3709   23.7486 C   0  0  0  0  0  0  0  0  0  0  0  0
  -25.6418  -23.9636   22.0023 C   0  0  0  0  0  0  0  0  0  0  0  0
  -19.6555  -21.0979   21.2171 C   0  0  0  0  0  0  0  0  0  0  0  0
  -23.1184  -15.0985   20.4111 C   0  0  0  0  0  0  0  0  0  0  0  0
  -30.8083  -16.7709   23.7792 C   0  0  0  0  0  0  0  0  0  0  0  0
  -24.2243  -12.9784   21.2998 C   0  0  0  0  0  0  0  0  0  0  0  0
  -31.3278  -26.8458   15.4853 C   0  0  0  0  0  0  0  0  0  0  0  0
  -25.7454  -24.5291   19.6508 C   0  0  0  0  0  0  0  0  0  0  0  0
  -30.6852  -25.9785   16.3894 C   0  0  0  0  0  0  0  0  0  0  0  0
  -25.8350  -24.9206   20.9943 C   0  0  0  0  0  0  0  0  0  0  0  0
  -29.0166  -17.9334   24.9085 C   0  0  0  0  0  0  0  0  0  0  0  0
  -20.9684  -16.8372   20.0418 C   0  0  0  0  0  0  0  0  0  0  0  0
  -25.3508  -22.6386   21.6786 C   0  0  0  0  0  0  0  0  0  0  0  0
  -20.1446  -19.0381   20.0532 C   0  0  0  0  0  0  0  0  0  0  0  0
  -20.6024  -21.7629   20.4381 C   0  0  0  0  0  0  0  0  0  0  0  0
  -19.4266  -19.7355   21.0246 C   0  0  0  0  0  0  0  0  0  0  0  0
  -24.2291  -14.2004   20.6010 C   0  0  0  0  0  0  0  0  0  0  0  0
  -25.5126  -12.5150   21.1899 C   0  0  0  0  0  0  0  0  0  0  0  0
  -27.2156  -19.1606   23.7493 C   0  0  0  0  0  0  0  0  0  0  0  0
  -25.9895  -19.6847   23.6129 C   0  0  0  0  0  0  0  0  0  0  0  0
  -25.0343  -19.5478   24.7478 C   0  0  0  0  0  0  0  0  0  0  0  0
  -25.5362  -18.8154   25.9470 C   0  0  0  0  0  0  0  0  0  0  0  0
  -24.6267  -18.3104   26.7930 C   0  0  0  0  0  0  0  0  0  0  0  0
  -31.3755  -16.1716   22.5439 C   0  0  0  0  0  0  0  0  0  0  0  0
  -23.1513  -12.3208   21.9867 C   0  0  0  0  0  0  0  0  0  0  0  0
  -28.2081  -26.4586   19.0887 C   0  0  0  0  0  0  0  0  0  0  0  0
  -26.2770  -28.6806   20.4510 C   0  0  0  0  0  0  0  0  0  0  0  0
  -23.6586  -29.3586   22.5322 C   0  0  0  0  0  0  0  0  0  0  0  0
  -30.7657  -15.1711   20.3643 C   0  0  0  0  0  0  0  0  0  0  0  0
  -31.7734  -28.2279   15.8925 C   0  0  0  0  0  0  0  0  0  0  0  0
  -25.9236  -25.5383   18.5498 C   0  0  0  0  0  0  0  0  0  0  0  0
  -26.1420  -26.3417   21.3874 C   0  0  0  0  0  0  0  0  0  0  0  0
  -27.0178  -18.6595   26.1584 C   0  0  0  0  0  0  0  0  0  0  0  0
  -31.0961  -28.7369   17.1623 C   0  0  0  0  0  0  0  0  0  0  0  0
  -29.3248  -12.6979   18.2896 C   0  0  0  0  0  0  0  0  0  0  0  0
  -31.1102  -27.6605   18.2430 C   0  0  0  0  0  0  0  0  0  0  0  0
  -27.8553  -12.6774   18.7193 C   0  0  0  0  0  0  0  0  0  0  0  0
  -29.8982  -14.1143   18.2963 C   0  0  0  0  0  0  0  0  0  0  0  0
  -28.2491  -14.8338   19.9759 C   0  0  0  0  0  0  0  0  0  0  0  0
  -30.3325  -26.4175   17.7940 C   0  0  1  0  0  0  0  0  0  0  0  0
  -26.7389  -26.7540   18.9798 C   0  0  1  0  0  0  0  0  0  0  0  0
  -27.6456  -13.4221   20.0531 C   0  0  1  0  0  0  0  0  0  0  0  0
  -22.3369  -31.2714   23.4764 C   0  0  0  0  0  0  0  0  0  0  0  0
  -28.5664  -29.3141   22.3661 C   0  0  0  0  0  0  0  0  0  0  0  0
  -26.9183  -30.4944   23.8353 C   0  0  0  0  0  0  0  0  0  0  0  0
  -27.3323  -31.3166   21.5168 C   0  0  0  0  0  0  0  0  0  0  0  0
  -21.1497  -28.3840   21.3016 C   0  0  0  0  0  0  0  0  0  0  0  0
  -25.5130  -20.3696   22.3722 C   0  0  0  0  0  0  0  0  0  1  0  0
  -26.0389  -29.1713   21.8587 C   0  0  1  0  0  0  0  0  0  0  0  0
  -22.4378  -30.2441   22.3595 C   0  0  2  0  0  0  0  0  0  0  0  0
  -27.2101  -30.0468   22.3871 C   0  0  0  0  0  0  0  0  0  0  0  0
  -25.4256  -14.4950   20.0855 N   0  0  0  0  0  0  0  0  0  0  0  0
  -26.1846  -13.4513   20.4607 N   0  0  0  0  0  0  0  0  0  0  0  0
  -27.7332  -18.5451   24.8775 N   0  0  0  0  0  0  0  0  0  0  0  0
  -26.3141  -27.2902   20.2746 N   0  0  0  0  0  0  0  0  0  0  0  0
  -29.6673  -14.7467   19.5963 N   0  0  0  0  0  0  0  0  0  0  0  0
  -26.1248  -11.4020   21.6470 N   0  0  0  0  0  0  0  0  0  0  0  0
  -21.8917  -12.9353   22.0019 N   0  0  0  0  0  0  0  0  0  0  0  0
  -30.4423  -15.7237   21.6085 N   0  0  0  0  0  0  0  0  0  0  0  0
  -28.9078  -26.6431   17.9114 N   0  0  0  0  0  0  0  0  0  0  0  0
  -24.7469  -29.8487   21.8418 N   0  0  0  0  0  0  0  0  0  0  0  0
  -21.1957  -29.4207   22.3646 N   0  3  0  0  0  0  0  0  0  0  0  0
  -23.8990  -20.0080   24.6812 O   0  0  0  0  0  0  0  0  0  0  0  0
  -32.5945  -16.1400   22.3997 O   0  0  0  0  0  0  0  0  0  0  0  0
  -23.3089  -11.2289   22.5837 O   0  0  0  0  0  0  0  0  0  0  0  0
  -28.6728  -26.0919   20.1616 O   0  0  0  0  0  0  0  0  0  0  0  0
  -26.4176  -29.5007   19.5404 O   0  0  0  0  0  0  0  0  0  0  0  0
  -23.6489  -28.3364   23.2145 O   0  0  0  0  0  0  0  0  0  0  0  0
  -31.9352  -15.0350   19.9914 O   0  0  0  0  0  0  0  0  0  0  0  0
  -19.9191  -17.6853   19.8614 O   0  0  0  0  0  0  0  0  0  0  0  0
  -25.1642  -21.7216   22.6666 O   0  0  0  0  0  0  0  0  0  1  0  0
  -20.8234  -23.0709   20.6239 F   0  0  0  0  0  0  0  0  0  0  0  0
  -18.5165  -19.1017   21.7768 F   0  0  0  0  0  0  0  0  0  0  0  0
  1  2  1  0  0  0  0
  1  7  2  0  0  0  0
  2  8  2  0  0  0  0
  3  6  1  0  0  0  0
  3 10  2  0  0  0  0
  4 11  2  0  0  0  0
  4 19  1  0  0  0  0
  5 12  1  0  0  0  0
  5 19  2  0  0  0  0
  6 20  2  0  0  0  0
  7 22  1  0  0  0  0
  8 24  1  0  0  0  0
  9 13  2  0  0  0  0
  9 23  1  0  0  0  0
 10 26  1  0  0  0  0
 11 27  1  0  0  0  0
 12 27  2  0  0  0  0
 13 28  1  0  0  0  0
 14 15  2  0  0  0  0
 14 29  1  0  0  0  0
 15 30  1  0  0  0  0
 16 20  1  0  0  0  0
 16 26  2  0  0  0  0
 17 25  1  0  0  0  0
 17 28  2  0  0  0  0
 18 30  2  0  0  0  0
 18 31  1  0  0  0  0
 19 32  1  0  0  0  0
 20 39  1  0  0  0  0
 21 32  1  0  0  0  0
 21 33  2  0  0  0  0
 21 40  1  0  0  0  0
 22 24  2  0  0  0  0
 22 45  1  0  0  0  0
 23 25  2  0  0  0  0
 23 46  1  0  0  0  0
 24 55  1  0  0  0  0
 25 47  1  0  0  0  0
 26 69  1  0  0  0  0
 27 85  1  0  0  0  0
 28 86  1  0  0  0  0
 29 31  2  0  0  0  0
 29 85  1  0  0  0  0
 30 87  1  0  0  0  0
 31 88  1  0  0  0  0
 32 67  2  0  0  0  0
 33 68  1  0  0  0  0
 33 72  1  0  0  0  0
 34 35  2  0  0  0  0
 34 69  1  0  0  0  0
 35 36  1  0  0  0  0
 35 63  1  0  0  0  0
 36 37  1  0  0  0  0
 36 78  2  0  0  0  0
 37 38  2  0  0  0  0
 37 48  1  0  0  0  0
 39 74  1  0  0  0  0
 39 79  2  0  0  0  0
 40 73  1  0  0  0  0
 40 80  2  0  0  0  0
 41 56  1  0  0  0  0
 41 75  1  0  0  0  0
 41 81  2  0  0  0  0
 42 64  1  0  0  0  0
 42 70  1  0  0  0  0
 42 82  2  0  0  0  0
 43 65  1  0  0  0  0
 43 76  1  0  0  0  0
 43 83  2  0  0  0  0
 44 71  1  0  0  0  0
 44 74  1  0  0  0  0
 44 84  2  0  0  0  0
 45 49  1  0  0  0  0
 46 56  1  0  0  0  0
 47 70  1  0  0  0  0
 48 69  1  0  0  0  0
 49 51  1  0  0  0  0
 50 52  1  0  0  0  0
 50 53  1  0  0  0  0
 51 55  1  0  0  0  0
 52 57  1  0  0  0  0
 53 71  1  0  0  0  0
 54 57  1  0  0  0  0
 54 71  1  0  0  0  0
 55 75  1  0  0  0  0
 56 70  1  0  0  0  0
 57 68  1  0  0  0  0
 58 65  1  0  0  0  0
 59 66  1  0  0  0  0
 60 66  1  0  0  0  0
 61 66  1  0  0  0  0
 62 77  1  0  0  0  0
 63 86  1  0  0  0  0
 64 66  1  0  0  0  0
 64 76  1  0  0  0  0
 65 77  1  0  0  0  0
 67 68  1  0  0  0  0
M  CHG  1  77   1
M  ISO  4  44 100  63 101  74 100  86 101
M  END
> <Batch ID>
0078

> <Smiles>
C=C1CN(c2cccc(C(=O)[100NH:0][100C:0](=O)N3CCCC(n4nc(-c5ccc(Oc6ccc(F)cc6F)cc5)c(C(N)=O)c4N)C3)c2)C=C([101CH2:1][101O:1]c2ccc3c(c2)CN(C(=O)C(NC(=O)C(C)NC)C(C)(C)C)C(C(=O)NC2CCCc4ccccc42)C3)C1=O

> <Shape>
0.198

> <Color>
0.111

> <Negative vol penalty>
0.000

$$$$
