
  -OEChem-04042323593D

 85 94  0     1  0  0  0  0  0999 V2000
  -24.1714   -6.0568   23.0567 C   0  0  0  0  0  0  0  0  0  0  0  0
  -25.3031   -6.1997   22.2604 C   0  0  0  0  0  0  0  0  0  0  0  0
  -25.0139  -31.5946   21.2004 C   0  0  0  0  0  0  0  0  0  0  0  0
  -24.4856  -31.7631   23.5519 C   0  0  0  0  0  0  0  0  0  0  0  0
  -23.1225   -6.9686   22.9455 C   0  0  0  0  0  0  0  0  0  0  0  0
  -25.3861   -7.2539   21.3514 C   0  0  0  0  0  0  0  0  0  0  0  0
  -30.8185  -12.8215   20.6318 C   0  0  0  0  0  0  0  0  0  0  0  0
  -28.2951  -20.8276   21.7767 C   0  0  0  0  0  0  0  0  0  0  0  0
  -28.6603  -22.4934   20.0653 C   0  0  0  0  0  0  0  0  0  0  0  0
  -27.4932  -21.7262   22.4802 C   0  0  0  0  0  0  0  0  0  0  0  0
  -27.8583  -23.3920   20.7688 C   0  0  0  0  0  0  0  0  0  0  0  0
  -25.6621  -32.8283   21.2576 C   0  0  0  0  0  0  0  0  0  0  0  0
  -25.1339  -32.9969   23.6091 C   0  0  0  0  0  0  0  0  0  0  0  0
  -31.6317  -13.9480   20.5059 C   0  0  0  0  0  0  0  0  0  0  0  0
  -24.4662  -36.2032   22.7699 C   0  0  0  0  0  0  0  0  0  0  0  0
  -23.8263  -37.2407   23.4478 C   0  0  0  0  0  0  0  0  0  0  0  0
  -29.7868  -15.1864   19.5518 C   0  0  0  0  0  0  0  0  0  0  0  0
  -25.6948  -37.3977   24.9714 C   0  0  0  0  0  0  0  0  0  0  0  0
  -24.4256  -31.0620   22.3475 C   0  0  0  0  0  0  0  0  0  0  0  0
  -22.6487  -29.4454   21.4891 C   0  0  0  0  0  0  0  0  0  0  0  0
  -23.1968   -8.0401   22.0416 C   0  0  0  0  0  0  0  0  0  0  0  0
  -29.4805  -12.8779   20.2320 C   0  0  0  0  0  0  0  0  0  0  0  0
  -24.3367   -8.1801   21.2270 C   0  0  0  0  0  0  0  0  0  0  0  0
  -28.9640  -14.0650   19.6871 C   0  0  0  0  0  0  0  0  0  0  0  0
  -28.8787  -21.2112   20.5692 C   0  0  0  0  0  0  0  0  0  0  0  0
  -27.2748  -23.0084   21.9763 C   0  0  0  0  0  0  0  0  0  0  0  0
  -25.7221  -33.5294   22.4619 C   0  0  0  0  0  0  0  0  0  0  0  0
  -31.1172  -15.1274   19.9670 C   0  0  0  0  0  0  0  0  0  0  0  0
  -25.7204  -35.7629   23.1927 C   0  0  0  0  0  0  0  0  0  0  0  0
  -24.4405  -37.8380   24.5485 C   0  0  0  0  0  0  0  0  0  0  0  0
  -26.3347  -36.3601   24.2934 C   0  0  0  0  0  0  0  0  0  0  0  0
  -23.7553  -29.7878   22.2890 C   0  0  0  0  0  0  0  0  0  0  0  0
  -22.3948  -28.1315   21.7985 C   0  0  0  0  0  0  0  0  0  0  0  0
  -31.3063  -18.4912   19.8285 C   0  0  0  0  0  0  0  0  0  0  0  0
  -21.9158  -30.2436   20.5502 C   0  0  0  0  0  0  0  0  0  0  0  0
  -31.5443  -17.3620   20.5120 C   0  0  0  0  0  0  0  0  0  1  0  0
  -26.2048  -11.0790   19.9006 C   0  0  0  0  0  0  0  0  0  0  0  0
  -25.5661  -13.9260   20.8476 C   0  0  0  0  0  0  0  0  0  0  0  0
  -25.3190  -17.0089   22.2871 C   0  0  0  0  0  0  0  0  0  0  0  0
  -25.8067  -23.7004   23.9030 C   0  0  0  0  0  0  0  0  0  0  0  0
  -22.0177   -8.9730   21.9231 C   0  0  0  0  0  0  0  0  0  0  0  0
  -28.5846  -11.6706   20.2922 C   0  0  0  0  0  0  0  0  0  0  0  0
  -27.5282  -14.0691   19.2383 C   0  0  0  0  0  0  0  0  0  0  0  0
  -31.4055  -18.5559   18.3302 C   0  0  0  0  0  0  0  0  0  0  0  0
  -30.8951  -19.7747   20.5052 C   0  0  0  0  0  0  0  0  0  0  0  0
  -22.3439  -10.2784   21.2021 C   0  0  0  0  0  0  0  0  0  0  0  0
  -30.0966  -19.0881   17.7572 C   0  0  0  0  0  0  0  0  0  0  0  0
  -22.8260  -24.9758   25.3748 C   0  0  0  0  0  0  0  0  0  0  0  0
  -23.1357  -10.0012   19.9281 C   0  0  0  0  0  0  0  0  0  0  0  0
  -22.6220  -26.3206   24.6734 C   0  0  0  0  0  0  0  0  0  0  0  0
  -29.6979  -20.4196   18.3956 C   0  0  0  0  0  0  0  0  0  0  0  0
  -24.3050  -24.6835   25.6216 C   0  0  0  0  0  0  0  0  0  0  0  0
  -24.9592  -26.1228   23.7323 C   0  0  0  0  0  0  0  0  0  0  0  0
  -24.4745   -9.3249   20.2469 C   0  0  1  0  0  0  0  0  0  0  0  0
  -27.1228  -12.0199   20.6242 C   0  0  1  0  0  0  0  0  0  0  0  0
  -23.4893  -26.4314   23.4040 C   0  0  2  0  0  0  0  0  0  0  0  0
  -31.4282  -17.2540   21.9984 C   0  0  0  0  0  0  0  0  0  0  0  0
  -23.6293  -18.6420   23.1676 C   0  0  0  0  0  0  0  0  0  0  0  0
  -24.8165  -14.6854   17.9901 C   0  0  0  0  0  0  0  0  0  0  0  0
  -23.9239  -16.8506   18.8751 C   0  0  0  0  0  0  0  0  0  0  0  0
  -22.9083  -14.6929   19.6067 C   0  0  0  0  0  0  0  0  0  0  0  0
  -26.4771  -16.9173   25.0091 C   0  0  0  0  0  0  0  0  0  0  0  0
  -25.1999  -15.3361   20.4590 C   0  0  1  0  0  0  0  0  0  0  0  0
  -24.5624  -17.4914   23.5115 C   0  0  2  0  0  0  0  0  0  0  0  0
  -24.2392  -15.3837   19.2375 C   0  0  0  0  0  0  0  0  0  0  0  0
  -24.1754  -28.7734   23.0496 N   0  0  0  0  0  0  0  0  0  0  0  0
  -23.3282  -27.7806   22.7290 N   0  0  0  0  0  0  0  0  0  0  0  0
  -29.6859  -20.3092   19.8632 N   0  0  2  0  0  0  0  0  0  0  0  0
  -26.6911  -13.3705   20.2262 N   0  0  0  0  0  0  0  0  0  0  0  0
  -25.0632  -24.8031   24.3744 N   0  0  0  0  0  0  0  0  0  0  0  0
  -21.4663  -27.2538   21.3629 N   0  0  0  0  0  0  0  0  0  0  0  0
  -22.3103  -31.5739   20.3529 N   0  0  0  0  0  0  0  0  0  0  0  0
  -26.4600  -23.9212   22.6910 N   0  0  0  0  0  0  0  0  0  0  0  0
  -25.4285  -10.2975   20.7350 N   0  0  0  0  0  0  0  0  0  0  0  0
  -24.6680  -15.9662   21.6626 N   0  0  0  0  0  0  0  0  0  0  0  0
  -25.5149  -17.9559   24.5593 N   0  3  0  0  0  0  0  0  0  0  0  0
  -20.9299  -29.7953   19.9174 O   0  0  0  0  0  0  0  0  0  0  0  0
  -26.1992  -11.0633   18.6753 O   0  0  0  0  0  0  0  0  0  0  0  0
  -24.8719  -13.3290   21.6752 O   0  0  0  0  0  0  0  0  0  0  0  0
  -26.3795  -17.5096   21.9193 O   0  0  0  0  0  0  0  0  0  0  0  0
  -25.8377  -22.6295   24.5147 O   0  0  0  0  0  0  0  0  0  0  0  0
  -26.3548  -34.7332   22.5181 O   0  0  0  0  0  0  0  0  0  0  0  0
  -31.9153  -16.2248   19.8511 O   0  0  0  0  0  0  0  0  0  1  0  0
  -23.8266  -38.8354   25.1985 F   0  0  0  0  0  0  0  0  0  0  0  0
  -27.5401  -35.9422   24.7036 F   0  0  0  0  0  0  0  0  0  0  0  0
  1  2  1  0  0  0  0
  1  5  2  0  0  0  0
  2  6  2  0  0  0  0
  3 12  2  0  0  0  0
  3 19  1  0  0  0  0
  4 13  1  0  0  0  0
  4 19  2  0  0  0  0
  5 21  1  0  0  0  0
  6 23  1  0  0  0  0
  7 14  2  0  0  0  0
  7 22  1  0  0  0  0
  8 10  2  0  0  0  0
  8 25  1  0  0  0  0
  9 11  1  0  0  0  0
  9 25  2  0  0  0  0
 10 26  1  0  0  0  0
 11 26  2  0  0  0  0
 12 27  1  0  0  0  0
 13 27  2  0  0  0  0
 14 28  1  0  0  0  0
 15 16  2  0  0  0  0
 15 29  1  0  0  0  0
 16 30  1  0  0  0  0
 17 24  1  0  0  0  0
 17 28  2  0  0  0  0
 18 30  2  0  0  0  0
 18 31  1  0  0  0  0
 19 32  1  0  0  0  0
 20 32  1  0  0  0  0
 20 33  2  0  0  0  0
 20 35  1  0  0  0  0
 21 23  2  0  0  0  0
 21 41  1  0  0  0  0
 22 24  2  0  0  0  0
 22 42  1  0  0  0  0
 23 54  1  0  0  0  0
 24 43  1  0  0  0  0
 25 68  1  0  0  0  0
 26 73  1  0  0  0  0
 27 82  1  0  0  0  0
 28 83  1  0  0  0  0
 29 31  2  0  0  0  0
 29 82  1  0  0  0  0
 30 84  1  0  0  0  0
 31 85  1  0  0  0  0
 32 66  2  0  0  0  0
 33 67  1  0  0  0  0
 33 71  1  0  0  0  0
 34 36  2  0  0  0  0
 34 44  1  0  0  0  0
 34 45  1  0  0  0  0
 35 72  1  0  0  0  0
 35 77  2  0  0  0  0
 36 57  1  0  0  0  0
 36 83  1  0  0  0  0
 37 55  1  0  0  0  0
 37 74  1  0  0  0  0
 37 78  2  0  0  0  0
 38 63  1  0  0  0  0
 38 69  1  0  0  0  0
 38 79  2  0  0  0  0
 39 64  1  0  0  0  0
 39 75  1  0  0  0  0
 39 80  2  0  0  0  0
 40 70  1  0  0  0  0
 40 73  1  0  0  0  0
 40 81  2  0  0  0  0
 41 46  1  0  0  0  0
 42 55  1  0  0  0  0
 43 69  1  0  0  0  0
 44 47  1  0  0  0  0
 45 68  1  0  0  0  0
 46 49  1  0  0  0  0
 47 51  1  0  0  0  0
 48 50  1  0  0  0  0
 48 52  1  0  0  0  0
 49 54  1  0  0  0  0
 50 56  1  0  0  0  0
 51 68  1  0  0  0  0
 52 70  1  0  0  0  0
 53 56  1  0  0  0  0
 53 70  1  0  0  0  0
 54 74  1  0  0  0  0
 55 69  1  0  0  0  0
 56 67  1  0  0  0  0
 58 64  1  0  0  0  0
 59 65  1  0  0  0  0
 60 65  1  0  0  0  0
 61 65  1  0  0  0  0
 62 76  1  0  0  0  0
 63 65  1  0  0  0  0
 63 75  1  0  0  0  0
 64 76  1  0  0  0  0
 66 67  1  0  0  0  0
M  CHG  1  76   1
M  ISO  4  36 101  40 100  73 100  83 101
M  END
> <Batch ID>
0079

> <Smiles>
CNC(C)C(=O)NC(C(=O)N1Cc2cc([101O:1][101C:1](C)=C3CCCN(c4ccc([100NH:0][100C:0](=O)N5CCCC(n6nc(-c7ccc(Oc8ccc(F)cc8F)cc7)c(C(N)=O)c6N)C5)cc4)C3)ccc2CC1C(=O)NC1CCCc2ccccc21)C(C)(C)C

> <Shape>
0.276

> <Color>
0.057

> <Negative vol penalty>
0.000

$$$$

  -OEChem-04042323593D

 95105  0     1  0  0  0  0  0999 V2000
  -10.8552  -31.0775   25.6944 C   0  0  0  0  0  0  0  0  0  0  0  0
  -11.7009  -29.9896   25.8861 C   0  0  0  0  0  0  0  0  0  0  0  0
  -23.1402   -9.8214   21.4573 C   0  0  0  0  0  0  0  0  0  0  0  0
  -23.7966  -10.7815   23.5750 C   0  0  0  0  0  0  0  0  0  0  0  0
  -26.4211  -23.9875   22.7295 C   0  0  0  0  0  0  0  0  0  0  0  0
  -10.9277  -31.8158   24.5139 C   0  0  0  0  0  0  0  0  0  0  0  0
  -12.6189  -29.6388   24.8969 C   0  0  0  0  0  0  0  0  0  0  0  0
  -18.2282  -27.3273   25.7327 C   0  0  0  0  0  0  0  0  0  0  0  0
  -25.1842  -23.8088   23.3511 C   0  0  0  0  0  0  0  0  0  0  0  0
  -22.4332   -8.8239   22.1287 C   0  0  0  0  0  0  0  0  0  0  0  0
  -23.0895   -9.7840   24.2464 C   0  0  0  0  0  0  0  0  0  0  0  0
  -18.7226  -26.0246   25.6851 C   0  0  0  0  0  0  0  0  0  0  0  0
  -20.7522   -5.8154   23.2892 C   0  0  0  0  0  0  0  0  0  0  0  0
  -20.8986   -4.5021   22.8427 C   0  0  0  0  0  0  0  0  0  0  0  0
  -25.6589  -21.4599   23.6204 C   0  0  0  0  0  0  0  0  0  0  0  0
  -19.4049  -26.3735   23.3977 C   0  0  0  0  0  0  0  0  0  0  0  0
  -31.3668  -19.7734   22.1887 C   0  0  0  0  0  0  0  0  0  0  0  0
  -29.4818  -18.4167   21.5233 C   0  0  0  0  0  0  0  0  0  0  0  0
  -31.7227  -17.5255   21.3780 C   0  0  0  0  0  0  0  0  0  0  0  0
  -23.2706   -4.6152   23.2880 C   0  0  0  0  0  0  0  0  0  0  0  0
  -23.8220  -10.8001   22.1804 C   0  0  0  0  0  0  0  0  0  0  0  0
  -27.2921  -22.9026   22.5404 C   0  0  0  0  0  0  0  0  0  0  0  0
  -26.9045  -21.6343   22.9988 C   0  0  0  0  0  0  0  0  0  0  0  0
  -24.0665  -13.0839   21.0703 C   0  0  0  0  0  0  0  0  0  0  0  0
  -11.8537  -31.4797   23.5138 C   0  0  0  0  0  0  0  0  0  0  0  0
  -18.3088  -28.1607   24.6078 C   0  0  0  0  0  0  0  0  0  0  0  0
  -12.7029  -30.3725   23.7013 C   0  0  0  0  0  0  0  0  0  0  0  0
  -18.9131  -27.6873   23.4344 C   0  0  0  0  0  0  0  0  0  0  0  0
  -29.9915  -19.6183   22.0153 C   0  0  0  0  0  0  0  0  0  0  0  0
  -24.8037  -22.5467   23.7955 C   0  0  0  0  0  0  0  0  0  0  0  0
  -32.2324  -18.7270   21.8700 C   0  0  0  0  0  0  0  0  0  0  0  0
  -30.3473  -17.3703   21.2046 C   0  0  0  0  0  0  0  0  0  0  0  0
  -22.4078   -8.8052   23.5232 C   0  0  0  0  0  0  0  0  0  0  0  0
  -19.3084  -25.5465   24.5166 C   0  0  0  0  0  0  0  0  0  0  0  0
  -21.8649   -6.5287   23.7350 C   0  0  0  0  0  0  0  0  0  0  0  0
  -22.1578   -3.9019   22.8422 C   0  0  0  0  0  0  0  0  0  0  0  0
  -23.1241   -5.9286   23.7344 C   0  0  0  0  0  0  0  0  0  0  0  0
  -24.5530  -11.8305   21.4875 C   0  0  0  0  0  0  0  0  0  0  0  0
  -25.1425  -13.6856   20.4648 C   0  0  0  0  0  0  0  0  0  0  0  0
  -28.6165  -23.0498   21.9193 C   0  0  0  0  0  0  0  0  0  0  0  0
  -27.7804  -20.4456   22.7877 C   0  0  0  0  0  0  0  0  0  0  0  0
  -28.8903  -23.9572   20.9689 C   0  0  0  0  0  0  0  0  0  0  0  0
  -22.7588  -13.6533   21.2169 C   0  0  0  0  0  0  0  0  0  0  0  0
  -16.1901  -29.6189   22.7399 C   0  0  0  0  0  0  0  0  0  0  0  0
  -18.8437  -30.9381   21.4206 C   0  0  0  0  0  0  0  0  0  0  0  0
  -22.5807  -23.3333   24.6805 C   0  0  0  0  0  0  0  0  0  0  0  0
  -22.1973  -30.7219   20.8261 C   0  0  0  0  0  0  0  0  0  0  0  0
  -30.5488  -15.0121   20.3417 C   0  0  0  0  0  0  0  0  0  0  0  0
  -11.8626  -32.2787   22.2346 C   0  0  0  0  0  0  0  0  0  0  0  0
  -17.7949  -29.5723   24.6838 C   0  0  0  0  0  0  0  0  0  0  0  0
  -19.0424  -28.5487   22.2057 C   0  0  0  0  0  0  0  0  0  0  0  0
  -29.6379  -22.0636   22.4067 C   0  0  0  0  0  0  0  0  0  0  0  0
  -13.1200  -32.0696   21.3946 C   0  0  0  0  0  0  0  0  0  0  0  0
  -29.6391  -11.7984   19.1081 C   0  0  0  0  0  0  0  0  0  0  0  0
  -13.4463  -30.5837   21.2830 C   0  0  0  0  0  0  0  0  0  0  0  0
  -28.1948  -11.6234   19.5828 C   0  0  0  0  0  0  0  0  0  0  0  0
  -30.4900  -12.5360   20.1404 C   0  0  0  0  0  0  0  0  0  0  0  0
  -28.4959  -13.6444   21.0700 C   0  0  0  0  0  0  0  0  0  0  0  0
  -13.7290  -29.9758   22.6621 C   0  0  1  0  0  0  0  0  0  0  0  0
  -17.4667  -30.1631   23.3161 C   0  0  1  0  0  0  0  0  0  0  0  0
  -27.5841  -12.9640   20.0359 C   0  0  2  0  0  0  0  0  0  0  0  0
  -24.0782  -31.9321   19.6882 C   0  0  0  0  0  0  0  0  0  0  0  0
  -17.8298  -29.9631   18.7130 C   0  0  0  0  0  0  0  0  0  0  0  0
  -20.1285  -30.3392   17.7950 C   0  0  0  0  0  0  0  0  0  0  0  0
  -18.8157  -32.2614   18.6918 C   0  0  0  0  0  0  0  0  0  0  0  0
  -23.6688  -31.0668   23.3706 C   0  0  0  0  0  0  0  0  0  0  0  0
  -21.3771  -22.7113   25.3794 C   0  0  0  0  0  0  0  0  0  0  0  0
  -20.2787  -23.7178   25.6871 C   0  0  0  0  0  0  0  0  0  1  0  0
  -19.7789  -30.5619   20.2968 C   0  0  1  0  0  0  0  0  0  0  0  0
  -23.3166  -31.7342   20.9896 C   0  0  2  0  0  0  0  0  0  0  0  0
  -19.1342  -30.7643   18.8965 C   0  0  0  0  0  0  0  0  0  0  0  0
  -25.8380  -11.6456   21.1735 N   0  0  0  0  0  0  0  0  0  0  0  0
  -26.1681  -12.7908   20.5525 N   0  0  0  0  0  0  0  0  0  0  0  0
  -29.0956  -20.6995   22.3459 N   0  0  0  0  0  0  0  0  0  0  0  0
  -18.5192  -29.9194   22.3277 N   0  0  0  0  0  0  0  0  0  0  0  0
  -29.8514  -13.7984   20.5190 N   0  0  0  0  0  0  0  0  0  0  0  0
  -33.6231  -18.8833   22.0451 N   0  0  0  0  0  0  0  0  0  0  0  0
  -25.3020  -14.8876   19.8713 N   0  0  0  0  0  0  0  0  0  0  0  0
  -21.7705  -12.8993   21.8643 N   0  0  0  0  0  0  0  0  0  0  0  0
  -23.5495  -22.3663   24.4257 N   0  0  0  0  0  0  0  0  0  0  0  0
  -29.8289  -16.1494   20.7063 N   0  0  0  0  0  0  0  0  0  0  0  0
  -15.0611  -30.3266   23.1057 N   0  0  0  0  0  0  0  0  0  0  0  0
  -21.0011  -31.3298   20.5086 N   0  0  0  0  0  0  0  0  0  0  0  0
  -24.2787  -31.2788   22.0326 N   0  3  0  0  0  0  0  0  0  0  0  0
  -27.3041  -19.3376   23.0268 O   0  0  0  0  0  0  0  0  0  0  0  0
  -22.4707  -14.7903   20.7721 O   0  0  0  0  0  0  0  0  0  0  0  0
  -16.2270  -28.6309   22.0159 O   0  0  0  0  0  0  0  0  0  0  0  0
  -18.4224  -32.0951   21.4951 O   0  0  0  0  0  0  0  0  0  0  0  0
  -22.6313  -24.5278   24.4068 O   0  0  0  0  0  0  0  0  0  0  0  0
  -22.3679  -29.5124   20.9625 O   0  0  0  0  0  0  0  0  0  0  0  0
  -31.6898  -15.0425   19.8735 O   0  0  0  0  0  0  0  0  0  0  0  0
  -21.7178   -7.8322   24.1787 O   0  0  0  0  0  0  0  0  0  0  0  0
  -19.7911  -24.2752   24.4673 O   0  0  0  0  0  0  0  0  0  1  0  0
  -22.2980   -2.6402   22.4149 F   0  0  0  0  0  0  0  0  0  0  0  0
  -24.1966   -6.6084   24.1627 F   0  0  0  0  0  0  0  0  0  0  0  0
  1  2  1  0  0  0  0
  1  6  2  0  0  0  0
  2  7  2  0  0  0  0
  3 10  2  0  0  0  0
  3 21  1  0  0  0  0
  4 11  1  0  0  0  0
  4 21  2  0  0  0  0
  5  9  2  0  0  0  0
  5 22  1  0  0  0  0
  6 25  1  0  0  0  0
  7 27  1  0  0  0  0
  8 12  2  0  0  0  0
  8 26  1  0  0  0  0
  9 30  1  0  0  0  0
 10 33  1  0  0  0  0
 11 33  2  0  0  0  0
 12 34  1  0  0  0  0
 13 14  2  0  0  0  0
 13 35  1  0  0  0  0
 14 36  1  0  0  0  0
 15 23  1  0  0  0  0
 15 30  2  0  0  0  0
 16 28  1  0  0  0  0
 16 34  2  0  0  0  0
 17 29  1  0  0  0  0
 17 31  2  0  0  0  0
 18 29  2  0  0  0  0
 18 32  1  0  0  0  0
 19 31  1  0  0  0  0
 19 32  2  0  0  0  0
 20 36  2  0  0  0  0
 20 37  1  0  0  0  0
 21 38  1  0  0  0  0
 22 23  2  0  0  0  0
 22 40  1  0  0  0  0
 23 41  1  0  0  0  0
 24 38  1  0  0  0  0
 24 39  2  0  0  0  0
 24 43  1  0  0  0  0
 25 27  2  0  0  0  0
 25 49  1  0  0  0  0
 26 28  2  0  0  0  0
 26 50  1  0  0  0  0
 27 59  1  0  0  0  0
 28 51  1  0  0  0  0
 29 74  1  0  0  0  0
 30 80  1  0  0  0  0
 31 77  1  0  0  0  0
 32 81  1  0  0  0  0
 33 92  1  0  0  0  0
 34 93  1  0  0  0  0
 35 37  2  0  0  0  0
 35 92  1  0  0  0  0
 36 94  1  0  0  0  0
 37 95  1  0  0  0  0
 38 72  2  0  0  0  0
 39 73  1  0  0  0  0
 39 78  1  0  0  0  0
 40 42  2  0  0  0  0
 40 52  1  0  0  0  0
 41 74  1  0  0  0  0
 41 85  2  0  0  0  0
 43 79  1  0  0  0  0
 43 86  2  0  0  0  0
 44 60  1  0  0  0  0
 44 82  1  0  0  0  0
 44 87  2  0  0  0  0
 45 69  1  0  0  0  0
 45 75  1  0  0  0  0
 45 88  2  0  0  0  0
 46 67  1  0  0  0  0
 46 80  1  0  0  0  0
 46 89  2  0  0  0  0
 47 70  1  0  0  0  0
 47 83  1  0  0  0  0
 47 90  2  0  0  0  0
 48 76  1  0  0  0  0
 48 81  1  0  0  0  0
 48 91  2  0  0  0  0
 49 53  1  0  0  0  0
 50 60  1  0  0  0  0
 51 75  1  0  0  0  0
 52 74  1  0  0  0  0
 53 55  1  0  0  0  0
 54 56  1  0  0  0  0
 54 57  1  0  0  0  0
 55 59  1  0  0  0  0
 56 61  1  0  0  0  0
 57 76  1  0  0  0  0
 58 61  1  0  0  0  0
 58 76  1  0  0  0  0
 59 82  1  0  0  0  0
 60 75  1  0  0  0  0
 61 73  1  0  0  0  0
 62 70  1  0  0  0  0
 63 71  1  0  0  0  0
 64 71  1  0  0  0  0
 65 71  1  0  0  0  0
 66 84  1  0  0  0  0
 67 68  1  0  0  0  0
 68 93  1  0  0  0  0
 69 71  1  0  0  0  0
 69 83  1  0  0  0  0
 70 84  1  0  0  0  0
 72 73  1  0  0  0  0
M  CHG  1  84   1
M  ISO  4  48 100  68 101  81 100  93 101
M  END
> <Batch ID>
0079

> <Smiles>
C=C1CN(c2cc(N)cc([100NH:0][100C:0](=O)N3CCCC(n4nc(-c5ccc(Oc6ccc(F)cc6F)cc5)c(C(N)=O)c4N)C3)c2)C(=O)c2cc(NC(=O)C[101CH2:1][101O:1]c3ccc4c(c3)CN(C(=O)C(NC(=O)C(C)NC)C(C)(C)C)C(C(=O)NC3CCCc5ccccc53)C4)ccc21

> <Shape>
0.242

> <Color>
0.149

> <Negative vol penalty>
0.000

$$$$

  -OEChem-04042323593D

 87 96  0     1  0  0  0  0  0999 V2000
  -32.4996  -16.7626   23.2162 C   0  0  0  0  0  0  0  0  0  0  0  0
  -31.3303  -17.5040   23.0800 C   0  0  0  0  0  0  0  0  0  0  0  0
  -19.4833  -25.5959   24.9195 C   0  0  0  0  0  0  0  0  0  0  0  0
  -28.3286  -26.5724   21.5654 C   0  0  0  0  0  0  0  0  0  0  0  0
  -29.6020  -28.4446   20.7224 C   0  0  0  0  0  0  0  0  0  0  0  0
  -19.3671  -26.8939   24.4221 C   0  0  0  0  0  0  0  0  0  0  0  0
  -32.5869  -15.4907   22.6519 C   0  0  0  0  0  0  0  0  0  0  0  0
  -30.2479  -16.9742   22.3784 C   0  0  0  0  0  0  0  0  0  0  0  0
  -25.8430  -17.6904   24.7719 C   0  0  0  0  0  0  0  0  0  0  0  0
  -20.4879  -24.7537   24.4429 C   0  0  0  0  0  0  0  0  0  0  0  0
  -29.1092  -25.7000   20.8070 C   0  0  0  0  0  0  0  0  0  0  0  0
  -30.3826  -27.5721   19.9640 C   0  0  0  0  0  0  0  0  0  0  0  0
  -25.2697  -18.9583   24.6846 C   0  0  0  0  0  0  0  0  0  0  0  0
  -32.1733  -24.2845   21.0078 C   0  0  0  0  0  0  0  0  0  0  0  0
  -32.6361  -23.1236   21.6273 C   0  0  0  0  0  0  0  0  0  0  0  0
  -21.2599  -26.5073   22.9712 C   0  0  0  0  0  0  0  0  0  0  0  0
  -23.7808  -18.1599   22.9628 C   0  0  0  0  0  0  0  0  0  0  0  0
  -31.4649  -21.7844   19.9927 C   0  0  0  0  0  0  0  0  0  0  0  0
  -28.5749  -27.9447   21.5230 C   0  0  0  0  0  0  0  0  0  0  0  0
  -20.2554  -27.3495   23.4479 C   0  0  0  0  0  0  0  0  0  0  0  0
  -28.0101  -29.2763   23.6244 C   0  0  0  0  0  0  0  0  0  0  0  0
  -31.5016  -14.9412   21.9512 C   0  0  0  0  0  0  0  0  0  0  0  0
  -25.3961  -16.6488   23.9462 C   0  0  0  0  0  0  0  0  0  0  0  0
  -30.3213  -15.6943   21.8030 C   0  0  0  0  0  0  0  0  0  0  0  0
  -24.3483  -16.8791   23.0433 C   0  0  0  0  0  0  0  0  0  0  0  0
  -21.3762  -25.2093   23.4688 C   0  0  0  0  0  0  0  0  0  0  0  0
  -30.1362  -26.1998   20.0063 C   0  0  0  0  0  0  0  0  0  0  0  0
  -24.2404  -19.1940   23.7780 C   0  0  0  0  0  0  0  0  0  0  0  0
  -31.3562  -24.1953   19.8808 C   0  0  0  0  0  0  0  0  0  0  0  0
  -32.2819  -21.8736   21.1198 C   0  0  0  0  0  0  0  0  0  0  0  0
  -31.0021  -22.9453   19.3732 C   0  0  0  0  0  0  0  0  0  0  0  0
  -27.7686  -28.8465   22.3057 C   0  0  0  0  0  0  0  0  0  0  0  0
  -26.9625  -30.1178   23.9086 C   0  0  0  0  0  0  0  0  0  0  0  0
  -23.7563  -22.5601   22.6417 C   0  0  0  0  0  0  0  0  0  0  0  0
  -24.2237  -23.5997   21.7595 C   0  0  0  0  0  0  0  0  0  0  0  0
  -22.5861  -23.0475   23.4238 C   0  0  0  0  0  0  0  0  0  0  0  0
  -25.2454  -23.5602   20.8976 C   0  0  0  0  0  0  0  0  0  0  0  0
  -24.2238  -21.3231   22.8098 C   0  0  0  0  0  0  0  0  0  1  0  0
  -20.1304  -28.7321   22.9190 C   0  0  0  0  0  0  0  0  0  0  0  0
  -29.0854  -28.9444   24.5129 C   0  0  0  0  0  0  0  0  0  0  0  0
  -26.7276  -14.8418   21.6955 C   0  0  0  0  0  0  0  0  0  0  0  0
  -23.8807  -13.2907   21.8050 C   0  0  0  0  0  0  0  0  0  0  0  0
  -20.5541  -13.3907   22.5604 C   0  0  0  0  0  0  0  0  0  0  0  0
  -21.4010  -30.5731   21.8607 C   0  0  0  0  0  0  0  0  0  0  0  0
  -31.6598  -13.5814   21.3182 C   0  0  0  0  0  0  0  0  0  0  0  0
  -26.0068  -15.2800   24.0713 C   0  0  0  0  0  0  0  0  0  0  0  0
  -23.8184  -15.7894   22.1487 C   0  0  0  0  0  0  0  0  0  0  0  0
  -23.3374  -24.7893   21.9740 C   0  0  0  0  0  0  0  0  0  0  0  0
  -30.3351  -12.9413   20.9110 C   0  0  0  0  0  0  0  0  0  0  0  0
  -23.8709  -33.1010   21.7823 C   0  0  0  0  0  0  0  0  0  0  0  0
  -29.4599  -13.9491   20.1726 C   0  0  0  0  0  0  0  0  0  0  0  0
  -25.1741  -32.3408   22.0434 C   0  0  0  0  0  0  0  0  0  0  0  0
  -22.9092  -32.2956   20.9098 C   0  0  0  0  0  0  0  0  0  0  0  0
  -23.9297  -30.1788   21.6419 C   0  0  0  0  0  0  0  0  0  0  0  0
  -29.1169  -15.1440   21.0704 C   0  0  1  0  0  0  0  0  0  0  0  0
  -25.8220  -14.4266   22.8203 C   0  0  1  0  0  0  0  0  0  0  0  0
  -24.9028  -30.9186   22.5739 C   0  0  1  0  0  0  0  0  0  0  0  0
  -18.4786  -11.9811   22.5066 C   0  0  0  0  0  0  0  0  0  0  0  0
  -23.6828  -13.7017   18.7881 C   0  0  0  0  0  0  0  0  0  0  0  0
  -21.2447  -13.1543   18.9437 C   0  0  0  0  0  0  0  0  0  0  0  0
  -22.9476  -11.4478   19.5843 C   0  0  0  0  0  0  0  0  0  0  0  0
  -20.2196  -13.5653   25.4958 C   0  0  0  0  0  0  0  0  0  0  0  0
  -22.5560  -13.4363   21.0959 C   0  0  1  0  0  0  0  0  0  0  0  0
  -19.6686  -12.4339   23.3382 C   0  0  2  0  0  0  0  0  0  0  0  0
  -22.6188  -12.9563   19.6184 C   0  0  0  0  0  0  0  0  0  0  0  0
  -26.6549  -29.3716   21.7881 N   0  0  0  0  0  0  0  0  0  0  0  0
  -26.1872  -30.1399   22.7867 N   0  0  0  0  0  0  0  0  0  0  0  0
  -22.3782  -24.3692   22.9937 N   0  0  0  0  0  0  0  0  0  0  0  0
  -24.4524  -14.4697   22.3040 N   0  0  0  0  0  0  0  0  0  0  0  0
  -22.6975  -30.9662   21.4854 N   0  0  0  0  0  0  0  0  0  0  0  0
  -26.6381  -30.8337   25.0062 N   0  0  0  0  0  0  0  0  0  0  0  0
  -30.0783  -28.0646   24.0609 N   0  0  0  0  0  0  0  0  0  0  0  0
  -21.3100  -29.3025   22.4398 N   0  0  0  0  0  0  0  0  0  0  0  0
  -28.0727  -14.7887   22.0074 N   0  0  0  0  0  0  0  0  0  0  0  0
  -21.5758  -12.7289   21.9128 N   0  0  0  0  0  0  0  0  0  0  0  0
  -19.1558  -13.0910   24.5737 N   0  3  0  0  0  0  0  0  0  0  0  0
  -21.9629  -22.4082   24.2546 O   0  0  0  0  0  0  0  0  0  0  0  0
  -19.0248  -29.2659   22.8960 O   0  0  0  0  0  0  0  0  0  0  0  0
  -29.1546  -29.4014   25.6790 O   0  0  0  0  0  0  0  0  0  0  0  0
  -26.2419  -15.1834   20.6236 O   0  0  0  0  0  0  0  0  0  0  0  0
  -24.3861  -12.1712   21.9186 O   0  0  0  0  0  0  0  0  0  0  0  0
  -20.3569  -14.6033   22.5275 O   0  0  0  0  0  0  0  0  0  0  0  0
  -20.4150  -31.3048   21.7271 O   0  0  0  0  0  0  0  0  0  0  0  0
  -30.8982  -25.3488   19.2664 O   0  0  0  0  0  0  0  0  0  0  0  0
  -23.6796  -20.4307   23.6903 O   0  0  0  0  0  0  0  0  0  1  0  0
  -32.7276  -20.7589   21.7139 F   0  0  0  0  0  0  0  0  0  0  0  0
  -30.2184  -22.8533   18.2901 F   0  0  0  0  0  0  0  0  0  0  0  0
  1  2  1  0  0  0  0
  1  7  2  0  0  0  0
  2  8  2  0  0  0  0
  3  6  1  0  0  0  0
  3 10  2  0  0  0  0
  4 11  2  0  0  0  0
  4 19  1  0  0  0  0
  5 12  1  0  0  0  0
  5 19  2  0  0  0  0
  6 20  2  0  0  0  0
  7 22  1  0  0  0  0
  8 24  1  0  0  0  0
  9 13  2  0  0  0  0
  9 23  1  0  0  0  0
 10 26  1  0  0  0  0
 11 27  1  0  0  0  0
 12 27  2  0  0  0  0
 13 28  1  0  0  0  0
 14 15  2  0  0  0  0
 14 29  1  0  0  0  0
 15 30  1  0  0  0  0
 16 20  1  0  0  0  0
 16 26  2  0  0  0  0
 17 25  1  0  0  0  0
 17 28  2  0  0  0  0
 18 30  2  0  0  0  0
 18 31  1  0  0  0  0
 19 32  1  0  0  0  0
 20 39  1  0  0  0  0
 21 32  1  0  0  0  0
 21 33  2  0  0  0  0
 21 40  1  0  0  0  0
 22 24  2  0  0  0  0
 22 45  1  0  0  0  0
 23 25  2  0  0  0  0
 23 46  1  0  0  0  0
 24 55  1  0  0  0  0
 25 47  1  0  0  0  0
 26 68  1  0  0  0  0
 27 84  1  0  0  0  0
 28 85  1  0  0  0  0
 29 31  2  0  0  0  0
 29 84  1  0  0  0  0
 30 86  1  0  0  0  0
 31 87  1  0  0  0  0
 32 66  2  0  0  0  0
 33 67  1  0  0  0  0
 33 71  1  0  0  0  0
 34 35  1  0  0  0  0
 34 36  1  0  0  0  0
 34 38  2  0  0  0  0
 35 37  2  0  0  0  0
 35 48  1  0  0  0  0
 36 68  1  0  0  0  0
 36 77  2  0  0  0  0
 38 85  1  0  0  0  0
 39 73  1  0  0  0  0
 39 78  2  0  0  0  0
 40 72  1  0  0  0  0
 40 79  2  0  0  0  0
 41 56  1  0  0  0  0
 41 74  1  0  0  0  0
 41 80  2  0  0  0  0
 42 63  1  0  0  0  0
 42 69  1  0  0  0  0
 42 81  2  0  0  0  0
 43 64  1  0  0  0  0
 43 75  1  0  0  0  0
 43 82  2  0  0  0  0
 44 70  1  0  0  0  0
 44 73  1  0  0  0  0
 44 83  2  0  0  0  0
 45 49  1  0  0  0  0
 46 56  1  0  0  0  0
 47 69  1  0  0  0  0
 48 68  1  0  0  0  0
 49 51  1  0  0  0  0
 50 52  1  0  0  0  0
 50 53  1  0  0  0  0
 51 55  1  0  0  0  0
 52 57  1  0  0  0  0
 53 70  1  0  0  0  0
 54 57  1  0  0  0  0
 54 70  1  0  0  0  0
 55 74  1  0  0  0  0
 56 69  1  0  0  0  0
 57 67  1  0  0  0  0
 58 64  1  0  0  0  0
 59 65  1  0  0  0  0
 60 65  1  0  0  0  0
 61 65  1  0  0  0  0
 62 76  1  0  0  0  0
 63 65  1  0  0  0  0
 63 75  1  0  0  0  0
 64 76  1  0  0  0  0
 66 67  1  0  0  0  0
M  CHG  1  76   1
M  ISO  4  38 101  44 100  73 100  85 101
M  END
> <Batch ID>
0079

> <Smiles>
C=C1CN(c2cccc(C(=O)[100NH:0][100C:0](=O)N3CCCC(n4nc(-c5ccc(Oc6ccc(F)cc6F)cc5)c(C(N)=O)c4N)C3)c2)C(=O)C1=[101CH:1][101O:1]c1ccc2c(c1)CN(C(=O)C(NC(=O)C(C)NC)C(C)(C)C)C(C(=O)NC1CCCc3ccccc31)C2

> <Shape>
0.226

> <Color>
0.060

> <Negative vol penalty>
0.000

$$$$

  -OEChem-04042323593D

 85 93  0     1  0  0  0  0  0999 V2000
  -22.2223  -29.7085   29.7105 C   0  0  0  0  0  0  0  0  0  0  0  0
  -23.0834  -30.0986   28.6899 C   0  0  0  0  0  0  0  0  0  0  0  0
  -31.0248  -23.6175   17.4772 C   0  0  0  0  0  0  0  0  0  0  0  0
  -26.7916  -12.9149   21.1070 C   0  0  0  0  0  0  0  0  0  0  0  0
  -26.5183  -13.4460   18.7660 C   0  0  0  0  0  0  0  0  0  0  0  0
  -30.6993  -24.9439   17.7605 C   0  0  0  0  0  0  0  0  0  0  0  0
  -21.6348  -28.4444   29.6803 C   0  0  0  0  0  0  0  0  0  0  0  0
  -23.3584  -29.2244   27.6389 C   0  0  0  0  0  0  0  0  0  0  0  0
  -24.3595  -30.7080   21.7821 C   0  0  0  0  0  0  0  0  0  0  0  0
  -30.2114  -22.5848   17.9440 C   0  0  0  0  0  0  0  0  0  0  0  0
  -26.1997  -11.6701   20.8938 C   0  0  0  0  0  0  0  0  0  0  0  0
  -25.9264  -12.2011   18.5527 C   0  0  0  0  0  0  0  0  0  0  0  0
  -25.5302  -30.8697   21.0424 C   0  0  0  0  0  0  0  0  0  0  0  0
  -23.0789  -10.4284   20.5156 C   0  0  0  0  0  0  0  0  0  0  0  0
  -22.1174  -10.0031   21.4323 C   0  0  0  0  0  0  0  0  0  0  0  0
  -28.7473  -24.2051   18.9775 C   0  0  0  0  0  0  0  0  0  0  0  0
  -25.3322  -28.6018   20.2446 C   0  0  0  0  0  0  0  0  0  0  0  0
  -23.4697   -8.0702   21.9539 C   0  0  0  0  0  0  0  0  0  0  0  0
  -26.9508  -13.8030   20.0431 C   0  0  0  0  0  0  0  0  0  0  0  0
  -29.5606  -25.2377   18.5106 C   0  0  0  0  0  0  0  0  0  0  0  0
  -28.9304  -15.4066   20.1749 C   0  0  0  0  0  0  0  0  0  0  0  0
  -21.8952  -27.5579   28.6235 C   0  0  0  0  0  0  0  0  0  0  0  0
  -23.6712  -29.4863   21.7672 C   0  0  0  0  0  0  0  0  0  0  0  0
  -22.7749  -27.9467   27.5953 C   0  0  0  0  0  0  0  0  0  0  0  0
  -24.1517  -28.4279   20.9830 C   0  0  0  0  0  0  0  0  0  0  0  0
  -29.0728  -22.8786   18.6941 C   0  0  0  0  0  0  0  0  0  0  0  0
  -25.7671  -11.3131   19.6166 C   0  0  0  0  0  0  0  0  0  0  0  0
  -26.0183  -29.8156   20.2758 C   0  0  0  0  0  0  0  0  0  0  0  0
  -24.2357   -9.6744   20.3180 C   0  0  0  0  0  0  0  0  0  0  0  0
  -22.3128   -8.8241   22.1515 C   0  0  0  0  0  0  0  0  0  0  0  0
  -24.4311   -8.4954   21.0372 C   0  0  0  0  0  0  0  0  0  0  0  0
  -27.5617  -15.0893   20.2629 C   0  0  0  0  0  0  0  0  0  0  0  0
  -28.9920  -16.7464   20.4708 C   0  0  0  0  0  0  0  0  0  0  0  0
  -27.0921  -29.8100   18.1979 C   0  0  0  0  0  0  0  0  0  1  0  0
  -29.2152  -26.6510   18.8115 C   0  0  0  0  0  0  0  0  0  0  0  0
  -30.0463  -14.5655   19.8542 C   0  0  0  0  0  0  0  0  0  0  0  0
  -28.1017  -29.3652   17.4314 C   0  0  0  0  0  0  0  0  0  0  0  0
  -22.9147  -27.3111   23.9580 C   0  0  0  0  0  0  0  0  0  0  0  0
  -21.2544  -25.9865   21.5062 C   0  0  0  0  0  0  0  0  0  0  0  0
  -20.8545  -25.6317   18.1356 C   0  0  0  0  0  0  0  0  0  0  0  0
  -27.0816  -21.9480   19.9252 C   0  0  0  0  0  0  0  0  0  0  0  0
  -21.2738  -26.1841   28.6586 C   0  0  0  0  0  0  0  0  0  0  0  0
  -22.3953  -29.3366   22.5496 C   0  0  0  0  0  0  0  0  0  0  0  0
  -23.4390  -27.1027   20.9170 C   0  0  0  0  0  0  0  0  0  0  0  0
  -21.3237  -25.4585   27.3164 C   0  0  0  0  0  0  0  0  0  0  0  0
  -25.4737  -19.8739   22.3315 C   0  0  0  0  0  0  0  0  0  0  0  0
  -22.7143  -25.5718   26.6998 C   0  0  0  0  0  0  0  0  0  0  0  0
  -25.9862  -18.4704   22.0006 C   0  0  0  0  0  0  0  0  0  0  0  0
  -25.2571  -20.7103   21.0716 C   0  0  0  0  0  0  0  0  0  0  0  0
  -26.9262  -19.3820   19.8391 C   0  0  0  0  0  0  0  0  0  0  0  0
  -23.0785  -27.0359   26.4255 C   0  0  1  0  0  0  0  0  0  0  0  0
  -22.0556  -27.8834   22.8662 C   0  0  1  0  0  0  0  0  0  0  0  0
  -27.2212  -18.5238   21.0801 C   0  0  2  0  0  0  0  0  0  0  0  0
  -27.9651  -29.2089   15.9393 C   0  0  0  0  0  0  0  0  0  0  0  0
  -30.5992  -29.8233   17.5170 C   0  0  0  0  0  0  0  0  0  0  0  0
  -19.4352  -24.4547   16.4334 C   0  0  0  0  0  0  0  0  0  0  0  0
  -22.7392  -23.3819   22.0728 C   0  0  0  0  0  0  0  0  0  0  0  0
  -22.0183  -22.5620   19.8198 C   0  0  0  0  0  0  0  0  0  0  0  0
  -20.3086  -23.1053   21.5532 C   0  0  0  0  0  0  0  0  0  0  0  0
  -19.9085  -28.1893   16.9855 C   0  0  0  0  0  0  0  0  0  0  0  0
  -29.4320  -29.0071   18.0648 C   0  0  2  0  0  0  0  0  0  0  0  0
  -21.5670  -24.9838   20.4219 C   0  0  1  0  0  0  0  0  0  0  0  0
  -19.6233  -25.7223   17.2523 C   0  0  2  0  0  0  0  0  0  0  0  0
  -21.6730  -23.5325   20.9695 C   0  0  0  0  0  0  0  0  0  0  0  0
  -26.8081  -16.1427   20.5894 N   0  0  0  0  0  0  0  0  0  0  0  0
  -27.7065  -17.1350   20.7091 N   0  0  0  0  0  0  0  0  0  0  0  0
  -22.1990  -27.0035   21.7045 N   0  0  0  0  0  0  0  0  0  0  0  0
  -26.4699  -20.7189   20.2508 N   0  0  0  0  0  0  0  0  0  0  0  0
  -30.0198  -17.6183   20.5478 N   0  0  0  0  0  0  0  0  0  0  0  0
  -29.8055  -13.2130   19.5763 N   0  0  0  0  0  0  0  0  0  0  0  0
  -28.2466  -21.8295   19.1679 N   0  0  0  0  0  0  0  0  0  0  0  0
  -29.6662  -27.5928   17.8988 N   0  0  0  0  0  0  0  0  0  0  0  0
  -22.4123  -27.5072   25.2303 N   0  0  0  0  0  0  0  0  0  0  0  0
  -20.5463  -25.1618   19.3948 N   0  0  0  0  0  0  0  0  0  0  0  0
  -19.7422  -26.8743   16.3145 N   0  3  0  0  0  0  0  0  0  0  0  0
  -28.5846  -26.9101   19.8332 O   0  0  0  0  0  0  0  0  0  0  0  0
  -31.2241  -14.9966   19.8314 O   0  0  0  0  0  0  0  0  0  0  0  0
  -23.9555  -26.7331   23.6677 O   0  0  0  0  0  0  0  0  0  0  0  0
  -20.2072  -25.8758   22.1486 O   0  0  0  0  0  0  0  0  0  0  0  0
  -21.9780  -25.9429   17.7463 O   0  0  0  0  0  0  0  0  0  0  0  0
  -26.6220  -23.0247   20.3142 O   0  0  0  0  0  0  0  0  0  0  0  0
  -25.1897  -10.0983   19.4081 O   0  0  0  0  0  0  0  0  0  0  0  0
  -27.1610  -29.9706   19.5533 O   0  0  0  0  0  0  0  0  0  1  0  0
  -21.3901   -8.4167   23.0329 F   0  0  0  0  0  0  0  0  0  0  0  0
  -25.5410   -7.7675   20.8525 F   0  0  0  0  0  0  0  0  0  0  0  0
  1  2  1  0  0  0  0
  1  7  2  0  0  0  0
  2  8  2  0  0  0  0
  3  6  2  0  0  0  0
  3 10  1  0  0  0  0
  4 11  2  0  0  0  0
  4 19  1  0  0  0  0
  5 12  1  0  0  0  0
  5 19  2  0  0  0  0
  6 20  1  0  0  0  0
  7 22  1  0  0  0  0
  8 24  1  0  0  0  0
  9 13  2  0  0  0  0
  9 23  1  0  0  0  0
 10 26  2  0  0  0  0
 11 27  1  0  0  0  0
 12 27  2  0  0  0  0
 13 28  1  0  0  0  0
 14 15  2  0  0  0  0
 14 29  1  0  0  0  0
 15 30  1  0  0  0  0
 16 20  2  0  0  0  0
 16 26  1  0  0  0  0
 17 25  1  0  0  0  0
 17 28  2  0  0  0  0
 18 30  2  0  0  0  0
 18 31  1  0  0  0  0
 19 32  1  0  0  0  0
 20 35  1  0  0  0  0
 21 32  1  0  0  0  0
 21 33  2  0  0  0  0
 21 36  1  0  0  0  0
 22 24  2  0  0  0  0
 22 42  1  0  0  0  0
 23 25  2  0  0  0  0
 23 43  1  0  0  0  0
 24 51  1  0  0  0  0
 25 44  1  0  0  0  0
 26 71  1  0  0  0  0
 27 82  1  0  0  0  0
 28 83  1  0  0  0  0
 29 31  2  0  0  0  0
 29 82  1  0  0  0  0
 30 84  1  0  0  0  0
 31 85  1  0  0  0  0
 32 65  2  0  0  0  0
 33 66  1  0  0  0  0
 33 69  1  0  0  0  0
 34 37  2  0  0  0  0
 34 83  1  0  0  0  0
 35 72  1  0  0  0  0
 35 76  2  0  0  0  0
 36 70  1  0  0  0  0
 36 77  2  0  0  0  0
 37 54  1  0  0  0  0
 37 61  1  0  0  0  0
 38 52  1  0  0  0  0
 38 73  1  0  0  0  0
 38 78  2  0  0  0  0
 39 62  1  0  0  0  0
 39 67  1  0  0  0  0
 39 79  2  0  0  0  0
 40 63  1  0  0  0  0
 40 74  1  0  0  0  0
 40 80  2  0  0  0  0
 41 68  1  0  0  0  0
 41 71  1  0  0  0  0
 41 81  2  0  0  0  0
 42 45  1  0  0  0  0
 43 52  1  0  0  0  0
 44 67  1  0  0  0  0
 45 47  1  0  0  0  0
 46 48  1  0  0  0  0
 46 49  1  0  0  0  0
 47 51  1  0  0  0  0
 48 53  1  0  0  0  0
 49 68  1  0  0  0  0
 50 53  1  0  0  0  0
 50 68  1  0  0  0  0
 51 73  1  0  0  0  0
 52 67  1  0  0  0  0
 53 66  1  0  0  0  0
 55 61  1  0  0  0  0
 56 63  1  0  0  0  0
 57 64  1  0  0  0  0
 58 64  1  0  0  0  0
 59 64  1  0  0  0  0
 60 75  1  0  0  0  0
 61 72  1  0  0  0  0
 62 64  1  0  0  0  0
 62 74  1  0  0  0  0
 63 75  1  0  0  0  0
 65 66  1  0  0  0  0
M  CHG  1  75   1
M  ISO  4  34 101  41 100  71 100  83 101
M  END
> <Batch ID>
0079

> <Smiles>
CNC(C)C(=O)NC(C(=O)N1Cc2cc([101O:1][101CH:1]=C(C)C(C)NC(=O)c3cccc([100NH:0][100C:0](=O)N4CCCC(n5nc(-c6ccc(Oc7ccc(F)cc7F)cc6)c(C(N)=O)c5N)C4)c3)ccc2CC1C(=O)NC1CCCc2ccccc21)C(C)(C)C

> <Shape>
0.215

> <Color>
0.079

> <Negative vol penalty>
0.000

$$$$

  -OEChem-04042323593D

 85 93  0     1  0  0  0  0  0999 V2000
  -29.8699  -35.7042   25.6282 C   0  0  0  0  0  0  0  0  0  0  0  0
  -29.6444  -34.3440   25.4423 C   0  0  0  0  0  0  0  0  0  0  0  0
  -23.9343   -9.8788   22.4074 C   0  0  0  0  0  0  0  0  0  0  0  0
  -24.2883  -11.6652   23.9951 C   0  0  0  0  0  0  0  0  0  0  0  0
  -28.4924  -20.4188   19.0326 C   0  0  0  0  0  0  0  0  0  0  0  0
  -30.8763  -20.0367   19.1218 C   0  0  0  0  0  0  0  0  0  0  0  0
  -28.7917  -36.5859   25.6930 C   0  0  0  0  0  0  0  0  0  0  0  0
  -28.3405  -33.8646   25.3222 C   0  0  0  0  0  0  0  0  0  0  0  0
  -27.8382  -30.5263   21.5475 C   0  0  0  0  0  0  0  0  0  0  0  0
  -28.2714  -19.0416   19.0393 C   0  0  0  0  0  0  0  0  0  0  0  0
  -30.6553  -18.6595   19.1286 C   0  0  0  0  0  0  0  0  0  0  0  0
  -23.4336   -9.0708   23.4282 C   0  0  0  0  0  0  0  0  0  0  0  0
  -23.7876  -10.8572   25.0159 C   0  0  0  0  0  0  0  0  0  0  0  0
  -28.2865  -29.2273   21.7825 C   0  0  0  0  0  0  0  0  0  0  0  0
  -20.5383   -8.7284   25.1407 C   0  0  0  0  0  0  0  0  0  0  0  0
  -19.3715   -8.0085   24.8842 C   0  0  0  0  0  0  0  0  0  0  0  0
  -26.0175  -28.5278   22.2087 C   0  0  0  0  0  0  0  0  0  0  0  0
  -20.5559   -5.9429   25.2936 C   0  0  0  0  0  0  0  0  0  0  0  0
  -24.3617  -11.1760   22.6909 C   0  0  0  0  0  0  0  0  0  0  0  0
  -29.7949  -20.9164   19.0738 C   0  0  0  0  0  0  0  0  0  0  0  0
  -24.1509  -12.8888   20.8121 C   0  0  0  0  0  0  0  0  0  0  0  0
  -27.4744  -36.1183   25.5639 C   0  0  0  0  0  0  0  0  0  0  0  0
  -26.4752  -30.8388   21.6522 C   0  0  0  0  0  0  0  0  0  0  0  0
  -27.2437  -34.7407   25.3866 C   0  0  0  0  0  0  0  0  0  0  0  0
  -25.5542  -29.8310   21.9720 C   0  0  0  0  0  0  0  0  0  0  0  0
  -29.3528  -18.1620   19.0874 C   0  0  0  0  0  0  0  0  0  0  0  0
  -23.3602   -9.5599   24.7324 C   0  0  0  0  0  0  0  0  0  0  0  0
  -27.3765  -28.2284   22.1160 C   0  0  0  0  0  0  0  0  0  0  0  0
  -21.7140   -8.0556   25.4736 C   0  0  0  0  0  0  0  0  0  0  0  0
  -19.3803   -6.6158   24.9607 C   0  0  0  0  0  0  0  0  0  0  0  0
  -21.7228   -6.6629   25.5500 C   0  0  0  0  0  0  0  0  0  0  0  0
  -24.8796  -12.0110   21.6370 C   0  0  0  0  0  0  0  0  0  0  0  0
  -25.0944  -13.4416   19.9810 C   0  0  0  0  0  0  0  0  0  0  0  0
  -28.4611  -26.3086   21.3357 C   0  0  0  0  0  0  0  0  0  1  0  0
  -30.0292  -22.3754   19.0665 C   0  0  0  0  0  0  0  0  0  0  0  0
  -22.7468  -13.1786   20.7985 C   0  0  0  0  0  0  0  0  0  0  0  0
  -28.9385  -25.0587   21.4334 C   0  0  0  0  0  0  0  0  0  0  0  0
  -29.6224  -24.5351   20.2150 C   0  0  0  0  0  0  0  0  0  0  0  0
  -24.7530  -32.7772   23.4908 C   0  0  0  0  0  0  0  0  0  0  0  0
  -22.3385  -31.8543   21.5310 C   0  0  0  0  0  0  0  0  0  0  0  0
  -21.0812  -29.5174   19.3851 C   0  0  0  0  0  0  0  0  0  0  0  0
  -30.0894  -15.7534   19.1394 C   0  0  0  0  0  0  0  0  0  0  0  0
  -26.3390  -37.1033   25.6878 C   0  0  0  0  0  0  0  0  0  0  0  0
  -26.0045  -32.2391   21.3694 C   0  0  0  0  0  0  0  0  0  0  0  0
  -24.0779  -30.1103   22.0772 C   0  0  0  0  0  0  0  0  0  0  0  0
  -25.0058  -36.5635   25.1765 C   0  0  0  0  0  0  0  0  0  0  0  0
  -29.9397  -12.1968   19.2096 C   0  0  0  0  0  0  0  0  0  0  0  0
  -24.7599  -35.1557   25.7099 C   0  0  0  0  0  0  0  0  0  0  0  0
  -28.5500  -11.9036   19.7795 C   0  0  0  0  0  0  0  0  0  0  0  0
  -30.5723  -13.4252   19.8612 C   0  0  0  0  0  0  0  0  0  0  0  0
  -28.3528  -14.3433   20.4087 C   0  0  0  0  0  0  0  0  0  0  0  0
  -25.8449  -34.1855   25.2272 C   0  0  1  0  0  0  0  0  0  0  0  0
  -24.6557  -32.5564   22.0077 C   0  0  1  0  0  0  0  0  0  0  0  0
  -27.6485  -13.1530   19.7373 C   0  0  2  0  0  0  0  0  0  0  0  0
  -28.8229  -24.2291   22.6749 C   0  0  0  0  0  0  0  0  0  0  0  0
  -19.0689  -29.0231   17.9696 C   0  0  0  0  0  0  0  0  0  0  0  0
  -20.7737  -31.0756   24.0319 C   0  0  0  0  0  0  0  0  0  0  0  0
  -19.2337  -29.7485   22.5705 C   0  0  0  0  0  0  0  0  0  0  0  0
  -19.4189  -32.2176   22.2671 C   0  0  0  0  0  0  0  0  0  0  0  0
  -22.6887  -29.5018   16.9002 C   0  0  0  0  0  0  0  0  0  0  0  0
  -21.3288  -30.7321   21.5340 C   0  0  1  0  0  0  0  0  0  0  0  0
  -20.4550  -29.6475   18.0084 C   0  0  2  0  0  0  0  0  0  0  0  0
  -20.2167  -30.9383   22.6009 C   0  0  0  0  0  0  0  0  0  0  0  0
  -26.1852  -12.0032   21.3554 N   0  0  0  0  0  0  0  0  0  0  0  0
  -26.2844  -12.8829   20.3442 N   0  0  0  0  0  0  0  0  0  0  0  0
  -23.6676  -31.4963   21.7978 N   0  0  0  0  0  0  0  0  0  0  0  0
  -29.6633  -14.5705   19.7796 N   0  0  0  0  0  0  0  0  0  0  0  0
  -25.0138  -14.3463   18.9823 N   0  0  0  0  0  0  0  0  0  0  0  0
  -21.9201  -12.5220   21.7204 N   0  0  0  0  0  0  0  0  0  0  0  0
  -29.1284  -16.7629   19.0943 N   0  0  0  0  0  0  0  0  0  0  0  0
  -29.5084  -23.1030   20.0663 N   0  0  0  0  0  0  0  0  0  0  0  0
  -25.6054  -33.8030   23.8522 N   0  0  0  0  0  0  0  0  0  0  0  0
  -20.8323  -30.6260   20.1662 N   0  0  0  0  0  0  0  0  0  0  0  0
  -30.7492  -22.8809   18.0652 N   0  3  0  0  0  0  0  0  0  0  0  0
  -21.3039  -28.9711   16.9872 N   0  3  0  0  0  0  0  0  0  0  0  0
  -22.2379  -13.9832   19.9818 O   0  0  0  0  0  0  0  0  0  0  0  0
  -30.2295  -25.2168   19.4028 O   0  0  0  0  0  0  0  0  0  0  0  0
  -24.1018  -32.0702   24.2509 O   0  0  0  0  0  0  0  0  0  0  0  0
  -21.9630  -33.0050   21.2934 O   0  0  0  0  0  0  0  0  0  0  0  0
  -21.7235  -28.5294   19.7340 O   0  0  0  0  0  0  0  0  0  0  0  0
  -31.2140  -15.8532   18.6421 O   0  0  0  0  0  0  0  0  0  0  0  0
  -22.8714   -8.7718   25.7287 O   0  0  0  0  0  0  0  0  0  0  0  0
  -27.8115  -26.9597   22.3465 O   0  0  0  0  0  0  0  0  0  1  0  0
  -18.2593   -5.9246   24.7159 F   0  0  0  0  0  0  0  0  0  0  0  0
  -22.8490   -6.0110   25.8705 F   0  0  0  0  0  0  0  0  0  0  0  0
  1  2  1  0  0  0  0
  1  7  2  0  0  0  0
  2  8  2  0  0  0  0
  3 12  2  0  0  0  0
  3 19  1  0  0  0  0
  4 13  1  0  0  0  0
  4 19  2  0  0  0  0
  5 10  2  0  0  0  0
  5 20  1  0  0  0  0
  6 11  1  0  0  0  0
  6 20  2  0  0  0  0
  7 22  1  0  0  0  0
  8 24  1  0  0  0  0
  9 14  2  0  0  0  0
  9 23  1  0  0  0  0
 10 26  1  0  0  0  0
 11 26  2  0  0  0  0
 12 27  1  0  0  0  0
 13 27  2  0  0  0  0
 14 28  1  0  0  0  0
 15 16  2  0  0  0  0
 15 29  1  0  0  0  0
 16 30  1  0  0  0  0
 17 25  1  0  0  0  0
 17 28  2  0  0  0  0
 18 30  2  0  0  0  0
 18 31  1  0  0  0  0
 19 32  1  0  0  0  0
 20 35  1  0  0  0  0
 21 32  1  0  0  0  0
 21 33  2  0  0  0  0
 21 36  1  0  0  0  0
 22 24  2  0  0  0  0
 22 43  1  0  0  0  0
 23 25  2  0  0  0  0
 23 44  1  0  0  0  0
 24 52  1  0  0  0  0
 25 45  1  0  0  0  0
 26 70  1  0  0  0  0
 27 82  1  0  0  0  0
 28 83  1  0  0  0  0
 29 31  2  0  0  0  0
 29 82  1  0  0  0  0
 30 84  1  0  0  0  0
 31 85  1  0  0  0  0
 32 64  2  0  0  0  0
 33 65  1  0  0  0  0
 33 68  1  0  0  0  0
 34 37  2  0  0  0  0
 34 83  1  0  0  0  0
 35 71  1  0  0  0  0
 35 74  2  0  0  0  0
 36 69  1  0  0  0  0
 36 76  2  0  0  0  0
 37 38  1  0  0  0  0
 37 55  1  0  0  0  0
 38 71  1  0  0  0  0
 38 77  2  0  0  0  0
 39 53  1  0  0  0  0
 39 72  1  0  0  0  0
 39 78  2  0  0  0  0
 40 61  1  0  0  0  0
 40 66  1  0  0  0  0
 40 79  2  0  0  0  0
 41 62  1  0  0  0  0
 41 73  1  0  0  0  0
 41 80  2  0  0  0  0
 42 67  1  0  0  0  0
 42 70  1  0  0  0  0
 42 81  2  0  0  0  0
 43 46  1  0  0  0  0
 44 53  1  0  0  0  0
 45 66  1  0  0  0  0
 46 48  1  0  0  0  0
 47 49  1  0  0  0  0
 47 50  1  0  0  0  0
 48 52  1  0  0  0  0
 49 54  1  0  0  0  0
 50 67  1  0  0  0  0
 51 54  1  0  0  0  0
 51 67  1  0  0  0  0
 52 72  1  0  0  0  0
 53 66  1  0  0  0  0
 54 65  1  0  0  0  0
 56 62  1  0  0  0  0
 57 63  1  0  0  0  0
 58 63  1  0  0  0  0
 59 63  1  0  0  0  0
 60 75  1  0  0  0  0
 61 63  1  0  0  0  0
 61 73  1  0  0  0  0
 62 75  1  0  0  0  0
 64 65  1  0  0  0  0
M  CHG  2  74   1  75   1
M  ISO  4  34 101  42 100  70 100  83 101
M  END
> <Batch ID>
0079

> <Smiles>
CNC(C)C(=O)NC(C(=O)N1Cc2cc([101O:1][101CH:1]=C(C)C(=O)NC(=N)c3ccc([100NH:0][100C:0](=O)N4CCCC(n5nc(-c6ccc(Oc7ccc(F)cc7F)cc6)c(C(N)=O)c5N)C4)cc3)ccc2CC1C(=O)NC1CCCc2ccccc21)C(C)(C)C

> <Shape>
0.289

> <Color>
0.114

> <Negative vol penalty>
0.000

$$$$

  -OEChem-04042323593D

 85 94  0     1  0  0  0  0  0999 V2000
  -43.0660  -25.5400   28.9010 C   0  0  0  0  0  0  0  0  0  0  0  0
  -42.1172  -24.5808   28.5620 C   0  0  0  0  0  0  0  0  0  0  0  0
  -23.0765   -9.8681   19.9402 C   0  0  0  0  0  0  0  0  0  0  0  0
  -23.8359   -9.8742   22.2337 C   0  0  0  0  0  0  0  0  0  0  0  0
  -43.1454  -26.7275   28.1748 C   0  0  0  0  0  0  0  0  0  0  0  0
  -41.2463  -24.8090   27.4971 C   0  0  0  0  0  0  0  0  0  0  0  0
  -40.7636  -20.7690   24.4821 C   0  0  0  0  0  0  0  0  0  0  0  0
  -22.3325   -8.7150   20.1895 C   0  0  0  0  0  0  0  0  0  0  0  0
  -23.0918   -8.7210   22.4831 C   0  0  0  0  0  0  0  0  0  0  0  0
  -39.9378  -19.7376   24.9270 C   0  0  0  0  0  0  0  0  0  0  0  0
  -19.8635   -7.9232   23.0847 C   0  0  0  0  0  0  0  0  0  0  0  0
  -19.1063   -7.8829   24.2554 C   0  0  0  0  0  0  0  0  0  0  0  0
  -38.1673  -20.5494   23.5037 C   0  0  0  0  0  0  0  0  0  0  0  0
  -31.8533  -18.3600   24.2031 C   0  0  0  0  0  0  0  0  0  0  0  0
  -32.0636  -16.6078   22.5531 C   0  0  0  0  0  0  0  0  0  0  0  0
  -29.8798  -17.4576   23.1411 C   0  0  0  0  0  0  0  0  0  0  0  0
  -20.3474   -5.9451   24.9914 C   0  0  0  0  0  0  0  0  0  0  0  0
  -23.8283  -10.4478   20.9623 C   0  0  0  0  0  0  0  0  0  0  0  0
  -24.1703  -12.9729   20.8433 C   0  0  0  0  0  0  0  0  0  0  0  0
  -42.2815  -26.9663   27.0943 C   0  0  0  0  0  0  0  0  0  0  0  0
  -40.2931  -21.7064   23.5513 C   0  0  0  0  0  0  0  0  0  0  0  0
  -41.3134  -26.0014   26.7565 C   0  0  0  0  0  0  0  0  0  0  0  0
  -38.9900  -21.5903   23.0467 C   0  0  0  0  0  0  0  0  0  0  0  0
  -32.6513  -17.4926   23.4571 C   0  0  0  0  0  0  0  0  0  0  0  0
  -30.4675  -18.3424   24.0451 C   0  0  0  0  0  0  0  0  0  0  0  0
  -30.6778  -16.5903   22.3950 C   0  0  0  0  0  0  0  0  0  0  0  0
  -22.3401   -8.1414   21.4610 C   0  0  0  0  0  0  0  0  0  0  0  0
  -38.6385  -19.6293   24.4400 C   0  0  0  0  0  0  0  0  0  0  0  0
  -20.8626   -6.9744   22.8672 C   0  0  0  0  0  0  0  0  0  0  0  0
  -19.3483   -6.8939   25.2087 C   0  0  0  0  0  0  0  0  0  0  0  0
  -21.1046   -5.9854   23.8206 C   0  0  0  0  0  0  0  0  0  0  0  0
  -24.5975  -11.6387   20.7051 C   0  0  0  0  0  0  0  0  0  0  0  0
  -25.2626  -13.7225   20.4805 C   0  0  0  0  0  0  0  0  0  0  0  0
  -36.0091  -17.6168   23.7783 C   0  0  0  0  0  0  0  0  0  0  0  0
  -34.8422  -18.2473   24.3967 C   0  0  0  0  0  0  0  0  0  0  0  0
  -22.8998  -13.4887   21.2621 C   0  0  0  0  0  0  0  0  0  0  0  0
  -37.3465  -17.7430   23.9468 C   0  0  0  0  0  0  0  0  0  1  0  0
  -39.8359  -24.8519   23.5709 C   0  0  0  0  0  0  0  0  0  0  0  0
  -39.1530  -24.3797   20.4351 C   0  0  0  0  0  0  0  0  0  0  0  0
  -38.1235  -22.2392   17.9845 C   0  0  0  0  0  0  0  0  0  0  0  0
  -30.7288  -14.7676   20.6568 C   0  0  0  0  0  0  0  0  0  0  0  0
  -42.3739  -28.2852   26.3688 C   0  0  0  0  0  0  0  0  0  0  0  0
  -41.2053  -22.7973   23.0614 C   0  0  0  0  0  0  0  0  0  0  0  0
  -38.4437  -22.5590   22.0311 C   0  0  0  0  0  0  0  0  0  0  0  0
  -35.0759  -16.8051   22.9093 C   0  0  0  0  0  0  0  0  0  0  0  0
  -41.6623  -28.2886   25.0182 C   0  0  0  0  0  0  0  0  0  0  0  0
  -29.6147  -12.3547   18.2874 C   0  0  0  0  0  0  0  0  0  0  0  0
  -40.2758  -27.6652   25.1437 C   0  0  0  0  0  0  0  0  0  0  0  0
  -28.1750  -12.0631   18.7165 C   0  0  0  0  0  0  0  0  0  0  0  0
  -30.5296  -12.5830   19.4893 C   0  0  0  0  0  0  0  0  0  0  0  0
  -28.6224  -13.3071   20.8704 C   0  0  0  0  0  0  0  0  0  0  0  0
  -40.3675  -26.2017   25.5923 C   0  0  1  0  0  0  0  0  0  0  0  0
  -40.4517  -23.9984   22.4984 C   0  0  1  0  0  0  0  0  0  0  0  0
  -27.6498  -13.1344   19.6923 C   0  0  2  0  0  0  0  0  0  0  0  0
  -38.3718  -16.9711   23.1785 C   0  0  0  0  0  0  0  0  0  0  0  0
  -37.6260  -22.1519   15.5264 C   0  0  0  0  0  0  0  0  0  0  0  0
  -36.5137  -25.8318   20.9201 C   0  0  0  0  0  0  0  0  0  0  0  0
  -35.6804  -24.8952   18.7530 C   0  0  0  0  0  0  0  0  0  0  0  0
  -37.6511  -26.4244   18.7732 C   0  0  0  0  0  0  0  0  0  0  0  0
  -40.2209  -20.2048   17.5143 C   0  0  0  0  0  0  0  0  0  0  0  0
  -37.9032  -24.0660   19.6485 C   0  0  1  0  0  0  0  0  0  0  0  0
  -38.6805  -21.9471   16.6029 C   0  0  2  0  0  0  0  0  0  0  0  0
  -36.9464  -25.2871   19.5443 C   0  0  0  0  0  0  0  0  0  0  0  0
  -25.8624  -11.5429   20.2871 N   0  0  0  0  0  0  0  0  0  0  0  0
  -26.2394  -12.8265   20.1593 N   0  0  0  0  0  0  0  0  0  0  0  0
  -34.0181  -17.5102   23.6115 N   0  0  0  0  0  0  0  0  0  0  0  0
  -39.3721  -23.6121   21.5877 N   0  0  0  0  0  0  0  0  0  0  0  0
  -29.9705  -13.6136   20.3669 N   0  0  0  0  0  0  0  0  0  0  0  0
  -29.6601  -19.2192   24.7991 N   0  0  0  0  0  0  0  0  0  0  0  0
  -25.4731  -15.0539   20.4080 N   0  0  0  0  0  0  0  0  0  0  0  0
  -21.8877  -12.5794   21.5988 N   0  0  0  0  0  0  0  0  0  0  0  0
  -30.0813  -15.6924   21.4754 N   0  0  0  0  0  0  0  0  0  0  0  0
  -40.7457  -25.3552   24.4810 N   0  0  0  0  0  0  0  0  0  0  0  0
  -38.3510  -23.5460   18.3611 N   0  0  0  0  0  0  0  0  0  0  0  0
  -39.1632  -20.5392   16.5261 N   0  3  0  0  0  0  0  0  0  0  0  0
  -34.6731  -19.0926   25.2507 O   0  0  0  0  0  0  0  0  0  0  0  0
  -22.6636  -14.7193   21.3199 O   0  0  0  0  0  0  0  0  0  0  0  0
  -38.6251  -25.0410   23.5716 O   0  0  0  0  0  0  0  0  0  0  0  0
  -39.9107  -25.2682   20.0374 O   0  0  0  0  0  0  0  0  0  0  0  0
  -37.5413  -21.3939   18.6605 O   0  0  0  0  0  0  0  0  0  0  0  0
  -31.8580  -14.9364   20.1895 O   0  0  0  0  0  0  0  0  0  0  0  0
  -21.6140   -7.0162   21.7048 O   0  0  0  0  0  0  0  0  0  0  0  0
  -37.8300  -18.6239   24.8730 O   0  0  0  0  0  0  0  0  0  1  0  0
  -18.6221   -6.8562   26.3337 F   0  0  0  0  0  0  0  0  0  0  0  0
  -22.0639   -5.0719   23.6178 F   0  0  0  0  0  0  0  0  0  0  0  0
  1  2  1  0  0  0  0
  1  5  2  0  0  0  0
  2  6  2  0  0  0  0
  3  8  2  0  0  0  0
  3 18  1  0  0  0  0
  4  9  1  0  0  0  0
  4 18  2  0  0  0  0
  5 20  1  0  0  0  0
  6 22  1  0  0  0  0
  7 10  2  0  0  0  0
  7 21  1  0  0  0  0
  8 27  1  0  0  0  0
  9 27  2  0  0  0  0
 10 28  1  0  0  0  0
 11 12  2  0  0  0  0
 11 29  1  0  0  0  0
 12 30  1  0  0  0  0
 13 23  1  0  0  0  0
 13 28  2  0  0  0  0
 14 24  1  0  0  0  0
 14 25  2  0  0  0  0
 15 24  2  0  0  0  0
 15 26  1  0  0  0  0
 16 25  1  0  0  0  0
 16 26  2  0  0  0  0
 17 30  2  0  0  0  0
 17 31  1  0  0  0  0
 18 32  1  0  0  0  0
 19 32  1  0  0  0  0
 19 33  2  0  0  0  0
 19 36  1  0  0  0  0
 20 22  2  0  0  0  0
 20 42  1  0  0  0  0
 21 23  2  0  0  0  0
 21 43  1  0  0  0  0
 22 52  1  0  0  0  0
 23 44  1  0  0  0  0
 24 66  1  0  0  0  0
 25 69  1  0  0  0  0
 26 72  1  0  0  0  0
 27 82  1  0  0  0  0
 28 83  1  0  0  0  0
 29 31  2  0  0  0  0
 29 82  1  0  0  0  0
 30 84  1  0  0  0  0
 31 85  1  0  0  0  0
 32 64  2  0  0  0  0
 33 65  1  0  0  0  0
 33 70  1  0  0  0  0
 34 35  1  0  0  0  0
 34 37  2  0  0  0  0
 34 45  1  0  0  0  0
 35 66  1  0  0  0  0
 35 76  2  0  0  0  0
 36 71  1  0  0  0  0
 36 77  2  0  0  0  0
 37 55  1  0  0  0  0
 37 83  1  0  0  0  0
 38 53  1  0  0  0  0
 38 73  1  0  0  0  0
 38 78  2  0  0  0  0
 39 61  1  0  0  0  0
 39 67  1  0  0  0  0
 39 79  2  0  0  0  0
 40 62  1  0  0  0  0
 40 74  1  0  0  0  0
 40 80  2  0  0  0  0
 41 68  1  0  0  0  0
 41 72  1  0  0  0  0
 41 81  2  0  0  0  0
 42 46  1  0  0  0  0
 43 53  1  0  0  0  0
 44 67  1  0  0  0  0
 45 66  1  0  0  0  0
 46 48  1  0  0  0  0
 47 49  1  0  0  0  0
 47 50  1  0  0  0  0
 48 52  1  0  0  0  0
 49 54  1  0  0  0  0
 50 68  1  0  0  0  0
 51 54  1  0  0  0  0
 51 68  1  0  0  0  0
 52 73  1  0  0  0  0
 53 67  1  0  0  0  0
 54 65  1  0  0  0  0
 56 62  1  0  0  0  0
 57 63  1  0  0  0  0
 58 63  1  0  0  0  0
 59 63  1  0  0  0  0
 60 75  1  0  0  0  0
 61 63  1  0  0  0  0
 61 74  1  0  0  0  0
 62 75  1  0  0  0  0
 64 65  1  0  0  0  0
M  CHG  1  75   1
M  ISO  4  37 101  41 100  72 100  83 101
M  END
> <Batch ID>
0079

> <Smiles>
CNC(C)C(=O)NC(C(=O)N1Cc2cc([101O:1][101C:1](C)=C3CN(c4cc(N)cc([100NH:0][100C:0](=O)N5CCCC(n6nc(-c7ccc(Oc8ccc(F)cc8F)cc7)c(C(N)=O)c6N)C5)c4)C3=O)ccc2CC1C(=O)NC1CCCc2ccccc21)C(C)(C)C

> <Shape>
0.164

> <Color>
0.184

> <Negative vol penalty>
0.000

$$$$

  -OEChem-04042323593D

 85 93  0     1  0  0  0  0  0999 V2000
  -17.6235  -25.6616   21.7059 C   0  0  0  0  0  0  0  0  0  0  0  0
  -18.9340  -25.5246   21.2595 C   0  0  0  0  0  0  0  0  0  0  0  0
  -23.4431  -10.3378   22.1665 C   0  0  0  0  0  0  0  0  0  0  0  0
  -22.8001  -12.5633   21.4806 C   0  0  0  0  0  0  0  0  0  0  0  0
  -30.6251  -19.2379   20.1935 C   0  0  0  0  0  0  0  0  0  0  0  0
  -28.4057  -19.4552   19.2640 C   0  0  0  0  0  0  0  0  0  0  0  0
  -17.1144  -26.9277   21.9914 C   0  0  0  0  0  0  0  0  0  0  0  0
  -19.7358  -26.6538   21.0973 C   0  0  0  0  0  0  0  0  0  0  0  0
  -24.3952  -26.0140   22.9750 C   0  0  0  0  0  0  0  0  0  0  0  0
  -30.5372  -17.8505   20.0791 C   0  0  0  0  0  0  0  0  0  0  0  0
  -28.3178  -18.0679   19.1495 C   0  0  0  0  0  0  0  0  0  0  0  0
  -22.4441  -10.3491   23.1399 C   0  0  0  0  0  0  0  0  0  0  0  0
  -21.8010  -12.5746   22.4540 C   0  0  0  0  0  0  0  0  0  0  0  0
  -25.2945  -25.2742   22.2084 C   0  0  0  0  0  0  0  0  0  0  0  0
  -19.0943   -9.9097   23.2764 C   0  0  0  0  0  0  0  0  0  0  0  0
  -18.2977   -8.7715   23.4009 C   0  0  0  0  0  0  0  0  0  0  0  0
  -26.2950  -27.3217   21.4172 C   0  0  0  0  0  0  0  0  0  0  0  0
  -19.0286   -8.5102   25.6889 C   0  0  0  0  0  0  0  0  0  0  0  0
  -23.6212  -11.4449   21.3369 C   0  0  0  0  0  0  0  0  0  0  0  0
  -29.5594  -20.0402   19.7860 C   0  0  0  0  0  0  0  0  0  0  0  0
  -24.5388  -10.9909   19.0004 C   0  0  0  0  0  0  0  0  0  0  0  0
  -17.9134  -28.0722   21.8420 C   0  0  0  0  0  0  0  0  0  0  0  0
  -24.4320  -27.4157   22.9600 C   0  0  0  0  0  0  0  0  0  0  0  0
  -19.2364  -27.9366   21.3799 C   0  0  0  0  0  0  0  0  0  0  0  0
  -25.3967  -28.0769   22.1865 C   0  0  0  0  0  0  0  0  0  0  0  0
  -29.3835  -17.2655   19.5571 C   0  0  0  0  0  0  0  0  0  0  0  0
  -21.6230  -11.4675   23.2836 C   0  0  0  0  0  0  0  0  0  0  0  0
  -26.2428  -25.9281   21.4271 C   0  0  0  0  0  0  0  0  0  0  0  0
  -19.8582  -10.3481   24.3581 C   0  0  0  0  0  0  0  0  0  0  0  0
  -18.2648   -8.0718   24.6072 C   0  0  0  0  0  0  0  0  0  0  0  0
  -19.8253   -9.6484   25.5643 C   0  0  0  0  0  0  0  0  0  0  0  0
  -24.6533  -11.4341   20.3316 C   0  0  0  0  0  0  0  0  0  0  0  0
  -25.7880  -11.1876   18.4643 C   0  0  0  0  0  0  0  0  0  0  0  0
  -26.7627  -24.8862   19.3986 C   0  0  0  0  0  0  0  0  0  1  0  0
  -29.6530  -21.5179   19.9080 C   0  0  0  0  0  0  0  0  0  0  0  0
  -23.4046  -10.4500   18.3100 C   0  0  0  0  0  0  0  0  0  0  0  0
  -27.5278  -24.1826   18.5475 C   0  0  0  0  0  0  0  0  0  0  0  0
  -22.4011  -29.7038   22.0976 C   0  0  0  0  0  0  0  0  0  0  0  0
  -24.6784  -31.6530   23.3372 C   0  0  0  0  0  0  0  0  0  0  0  0
  -27.9559  -32.1172   24.1674 C   0  0  0  0  0  0  0  0  0  0  0  0
  -30.2620  -14.9168   19.7989 C   0  0  0  0  0  0  0  0  0  0  0  0
  -17.3041  -29.4240   22.1179 C   0  0  0  0  0  0  0  0  0  0  0  0
  -23.4722  -28.1987   23.8133 C   0  0  0  0  0  0  0  0  0  0  0  0
  -25.4911  -29.5797   22.1513 C   0  0  0  0  0  0  0  0  0  0  0  0
  -18.3371  -30.5365   22.2780 C   0  0  0  0  0  0  0  0  0  0  0  0
  -30.4103  -11.3607   19.7046 C   0  0  0  0  0  0  0  0  0  0  0  0
  -19.3782  -30.4624   21.1656 C   0  0  0  0  0  0  0  0  0  0  0  0
  -28.9403  -10.9358   19.7274 C   0  0  0  0  0  0  0  0  0  0  0  0
  -30.6588  -12.5903   20.5765 C   0  0  0  0  0  0  0  0  0  0  0  0
  -28.3183  -13.3136   20.3159 C   0  0  0  0  0  0  0  0  0  0  0  0
  -20.1451  -29.1355   21.2152 C   0  0  1  0  0  0  0  0  0  0  0  0
  -23.2670  -29.6288   23.3233 C   0  0  1  0  0  0  0  0  0  0  0  0
  -28.0068  -12.1180   19.4009 C   0  0  2  0  0  0  0  0  0  0  0  0
  -27.0770  -23.8580   17.1472 C   0  0  0  0  0  0  0  0  0  0  0  0
  -30.0315  -24.2237   18.1180 C   0  0  0  0  0  0  0  0  0  0  0  0
  -29.5217  -33.8272   25.1273 C   0  0  0  0  0  0  0  0  0  0  0  0
  -24.6550  -33.1601   20.6843 C   0  0  0  0  0  0  0  0  0  0  0  0
  -26.8358  -34.2023   21.3370 C   0  0  0  0  0  0  0  0  0  0  0  0
  -24.7960  -34.6182   22.7113 C   0  0  0  0  0  0  0  0  0  0  0  0
  -28.6450  -30.3714   26.4557 C   0  0  0  0  0  0  0  0  0  0  0  0
  -28.8942  -23.6928   18.9860 C   0  0  2  0  0  0  0  0  0  0  0  0
  -25.9036  -32.3470   22.7928 C   0  0  1  0  0  0  0  0  0  0  0  0
  -28.6096  -32.6486   25.4302 C   0  0  2  0  0  0  0  0  0  0  0  0
  -25.5448  -33.5536   21.8803 C   0  0  0  0  0  0  0  0  0  0  0  0
  -25.8786  -11.8786   20.6235 N   0  0  0  0  0  0  0  0  0  0  0  0
  -26.5454  -11.7157   19.4681 N   0  0  0  0  0  0  0  0  0  0  0  0
  -24.5265  -30.3011   22.9980 N   0  0  0  0  0  0  0  0  0  0  0  0
  -29.7415  -13.6706   20.2074 N   0  0  0  0  0  0  0  0  0  0  0  0
  -26.3014  -10.9585   17.2370 N   0  0  0  0  0  0  0  0  0  0  0  0
  -22.1977  -10.3162   19.0099 N   0  0  0  0  0  0  0  0  0  0  0  0
  -29.2953  -15.8561   19.4412 N   0  0  0  0  0  0  0  0  0  0  0  0
  -28.8910  -22.2498   19.0095 N   0  0  0  0  0  0  0  0  0  0  0  0
  -21.1396  -29.1655   22.2662 N   0  0  0  0  0  0  0  0  0  0  0  0
  -26.7231  -32.6948   23.9486 N   0  0  0  0  0  0  0  0  0  0  0  0
  -29.4209  -31.5818   26.0819 N   0  3  0  0  0  0  0  0  0  0  0  0
  -30.3936  -22.0040   20.7587 O   0  0  0  0  0  0  0  0  0  0  0  0
  -23.4641  -10.0805   17.1127 O   0  0  0  0  0  0  0  0  0  0  0  0
  -22.8441  -30.2136   21.0751 O   0  0  0  0  0  0  0  0  0  0  0  0
  -23.8890  -32.2851   24.0436 O   0  0  0  0  0  0  0  0  0  0  0  0
  -28.4875  -31.2768   23.4452 O   0  0  0  0  0  0  0  0  0  0  0  0
  -31.4765  -15.1259   19.7427 O   0  0  0  0  0  0  0  0  0  0  0  0
  -20.6479  -11.4787   24.2331 O   0  0  0  0  0  0  0  0  0  0  0  0
  -27.1214  -25.2085   20.6773 O   0  0  0  0  0  0  0  0  0  1  0  0
  -17.4986   -6.9797   24.7271 F   0  0  0  0  0  0  0  0  0  0  0  0
  -20.5560  -10.0655   26.6073 F   0  0  0  0  0  0  0  0  0  0  0  0
  1  2  1  0  0  0  0
  1  7  2  0  0  0  0
  2  8  2  0  0  0  0
  3 12  2  0  0  0  0
  3 19  1  0  0  0  0
  4 13  1  0  0  0  0
  4 19  2  0  0  0  0
  5 10  2  0  0  0  0
  5 20  1  0  0  0  0
  6 11  1  0  0  0  0
  6 20  2  0  0  0  0
  7 22  1  0  0  0  0
  8 24  1  0  0  0  0
  9 14  2  0  0  0  0
  9 23  1  0  0  0  0
 10 26  1  0  0  0  0
 11 26  2  0  0  0  0
 12 27  1  0  0  0  0
 13 27  2  0  0  0  0
 14 28  1  0  0  0  0
 15 16  2  0  0  0  0
 15 29  1  0  0  0  0
 16 30  1  0  0  0  0
 17 25  1  0  0  0  0
 17 28  2  0  0  0  0
 18 30  2  0  0  0  0
 18 31  1  0  0  0  0
 19 32  1  0  0  0  0
 20 35  1  0  0  0  0
 21 32  1  0  0  0  0
 21 33  2  0  0  0  0
 21 36  1  0  0  0  0
 22 24  2  0  0  0  0
 22 42  1  0  0  0  0
 23 25  2  0  0  0  0
 23 43  1  0  0  0  0
 24 51  1  0  0  0  0
 25 44  1  0  0  0  0
 26 71  1  0  0  0  0
 27 82  1  0  0  0  0
 28 83  1  0  0  0  0
 29 31  2  0  0  0  0
 29 82  1  0  0  0  0
 30 84  1  0  0  0  0
 31 85  1  0  0  0  0
 32 65  2  0  0  0  0
 33 66  1  0  0  0  0
 33 69  1  0  0  0  0
 34 37  2  0  0  0  0
 34 83  1  0  0  0  0
 35 72  1  0  0  0  0
 35 76  2  0  0  0  0
 36 70  1  0  0  0  0
 36 77  2  0  0  0  0
 37 54  1  0  0  0  0
 37 61  1  0  0  0  0
 38 52  1  0  0  0  0
 38 73  1  0  0  0  0
 38 78  2  0  0  0  0
 39 62  1  0  0  0  0
 39 67  1  0  0  0  0
 39 79  2  0  0  0  0
 40 63  1  0  0  0  0
 40 74  1  0  0  0  0
 40 80  2  0  0  0  0
 41 68  1  0  0  0  0
 41 71  1  0  0  0  0
 41 81  2  0  0  0  0
 42 45  1  0  0  0  0
 43 52  1  0  0  0  0
 44 67  1  0  0  0  0
 45 47  1  0  0  0  0
 46 48  1  0  0  0  0
 46 49  1  0  0  0  0
 47 51  1  0  0  0  0
 48 53  1  0  0  0  0
 49 68  1  0  0  0  0
 50 53  1  0  0  0  0
 50 68  1  0  0  0  0
 51 73  1  0  0  0  0
 52 67  1  0  0  0  0
 53 66  1  0  0  0  0
 55 61  1  0  0  0  0
 56 63  1  0  0  0  0
 57 64  1  0  0  0  0
 58 64  1  0  0  0  0
 59 64  1  0  0  0  0
 60 75  1  0  0  0  0
 61 72  1  0  0  0  0
 62 64  1  0  0  0  0
 62 74  1  0  0  0  0
 63 75  1  0  0  0  0
 65 66  1  0  0  0  0
M  CHG  1  75   1
M  ISO  4  34 101  41 100  71 100  83 101
M  END
> <Batch ID>
0079

> <Smiles>
CNC(C)C(=O)NC(C(=O)N1Cc2cc([101O:1][101CH:1]=C(C)C(C)NC(=O)c3ccc([100NH:0][100C:0](=O)N4CCCC(n5nc(-c6ccc(Oc7ccc(F)cc7F)cc6)c(C(N)=O)c5N)C4)cc3)ccc2CC1C(=O)NC1CCCc2ccccc21)C(C)(C)C

> <Shape>
0.290

> <Color>
0.080

> <Negative vol penalty>
0.000

$$$$

  -OEChem-04042323593D

 85 93  0     1  0  0  0  0  0999 V2000
  -20.2164  -34.2515   22.6907 C   0  0  0  0  0  0  0  0  0  0  0  0
  -21.4776  -33.8071   22.3068 C   0  0  0  0  0  0  0  0  0  0  0  0
  -33.3876  -20.6478   22.7128 C   0  0  0  0  0  0  0  0  0  0  0  0
  -25.7705  -12.0907   20.8569 C   0  0  0  0  0  0  0  0  0  0  0  0
  -25.7260  -14.2837   19.8440 C   0  0  0  0  0  0  0  0  0  0  0  0
  -32.7557  -21.4498   21.7625 C   0  0  0  0  0  0  0  0  0  0  0  0
  -19.3681  -33.4060   23.4045 C   0  0  0  0  0  0  0  0  0  0  0  0
  -21.8916  -32.5173   22.6374 C   0  0  0  0  0  0  0  0  0  0  0  0
  -25.4554  -28.8246   19.2953 C   0  0  0  0  0  0  0  0  0  0  0  0
  -33.2954  -19.2587   22.6255 C   0  0  0  0  0  0  0  0  0  0  0  0
  -24.4077  -12.1921   21.1364 C   0  0  0  0  0  0  0  0  0  0  0  0
  -24.3632  -14.3851   20.1234 C   0  0  0  0  0  0  0  0  0  0  0  0
  -26.8177  -28.5335   19.3509 C   0  0  0  0  0  0  0  0  0  0  0  0
  -22.4133  -15.0868   22.7948 C   0  0  0  0  0  0  0  0  0  0  0  0
  -21.9497  -16.2870   23.3335 C   0  0  0  0  0  0  0  0  0  0  0  0
  -31.9391  -19.4736   20.6377 C   0  0  0  0  0  0  0  0  0  0  0  0
  -26.3388  -26.5738   20.6735 C   0  0  0  0  0  0  0  0  0  0  0  0
  -20.4865  -16.5749   21.4326 C   0  0  0  0  0  0  0  0  0  0  0  0
  -26.4297  -13.1365   20.2107 C   0  0  0  0  0  0  0  0  0  0  0  0
  -32.0314  -20.8627   20.7250 C   0  0  0  0  0  0  0  0  0  0  0  0
  -28.4303  -12.5073   18.7585 C   0  0  0  0  0  0  0  0  0  0  0  0
  -19.7682  -32.1018   23.7356 C   0  0  0  0  0  0  0  0  0  0  0  0
  -24.5239  -27.9972   19.9387 C   0  0  0  0  0  0  0  0  0  0  0  0
  -21.0483  -31.6540   23.3574 C   0  0  0  0  0  0  0  0  0  0  0  0
  -24.9650  -26.8552   20.6225 C   0  0  0  0  0  0  0  0  0  0  0  0
  -32.5711  -18.6716   21.5880 C   0  0  0  0  0  0  0  0  0  0  0  0
  -23.7040  -13.3393   20.7697 C   0  0  0  0  0  0  0  0  0  0  0  0
  -27.2598  -27.4095   20.0425 C   0  0  0  0  0  0  0  0  0  0  0  0
  -21.9135  -14.6306   21.5750 C   0  0  0  0  0  0  0  0  0  0  0  0
  -20.9863  -17.0311   22.6524 C   0  0  0  0  0  0  0  0  0  0  0  0
  -20.9501  -15.3747   20.8940 C   0  0  0  0  0  0  0  0  0  0  0  0
  -27.8375  -13.0326   19.9223 C   0  0  0  0  0  0  0  0  0  0  0  0
  -29.7809  -12.6349   18.9734 C   0  0  0  0  0  0  0  0  0  0  0  0
  -29.0125  -25.9294   19.5863 C   0  0  0  0  0  0  0  0  0  1  0  0
  -31.3591  -21.7179   19.7138 C   0  0  0  0  0  0  0  0  0  0  0  0
  -27.8152  -11.9535   17.5877 C   0  0  0  0  0  0  0  0  0  0  0  0
  -30.0800  -25.2536   20.0396 C   0  0  0  0  0  0  0  0  0  0  0  0
  -30.3838  -23.9527   19.3441 C   0  0  0  0  0  0  0  0  0  0  0  0
  -22.4149  -28.3933   22.2837 C   0  0  0  0  0  0  0  0  0  0  0  0
  -21.5486  -25.3700   21.4890 C   0  0  0  0  0  0  0  0  0  0  0  0
  -22.4125  -22.3844   20.0794 C   0  0  0  0  0  0  0  0  0  0  0  0
  -33.0451  -16.3207   22.3594 C   0  0  0  0  0  0  0  0  0  0  0  0
  -18.8348  -31.2407   24.5492 C   0  0  0  0  0  0  0  0  0  0  0  0
  -23.0556  -28.3103   19.8468 C   0  0  0  0  0  0  0  0  0  0  0  0
  -24.0038  -25.9236   21.3129 C   0  0  0  0  0  0  0  0  0  0  0  0
  -19.2045  -29.7597   24.5349 C   0  0  0  0  0  0  0  0  0  0  0  0
  -33.0154  -12.7632   22.5027 C   0  0  0  0  0  0  0  0  0  0  0  0
  -20.6993  -29.5802   24.7797 C   0  0  0  0  0  0  0  0  0  0  0  0
  -31.7413  -12.3806   21.7461 C   0  0  0  0  0  0  0  0  0  0  0  0
  -32.8274  -14.0396   23.3208 C   0  0  0  0  0  0  0  0  0  0  0  0
  -31.0391  -14.8074   21.8103 C   0  0  0  0  0  0  0  0  0  0  0  0
  -21.5239  -30.2531   23.6758 C   0  0  1  0  0  0  0  0  0  0  0  0
  -22.2391  -27.6820   20.9719 C   0  0  1  0  0  0  0  0  0  0  0  0
  -31.1992  -13.5639   20.9206 C   0  0  2  0  0  0  0  0  0  0  0  0
  -30.9294  -25.7421   21.1754 C   0  0  0  0  0  0  0  0  0  0  0  0
  -21.5066  -20.0915   19.6114 C   0  0  0  0  0  0  0  0  0  0  0  0
  -21.9284  -24.6236   24.4231 C   0  0  0  0  0  0  0  0  0  0  0  0
  -21.9485  -22.2162   23.7359 C   0  0  0  0  0  0  0  0  0  0  0  0
  -19.9161  -23.6075   23.3402 C   0  0  0  0  0  0  0  0  0  0  0  0
  -22.7214  -22.7324   17.1567 C   0  0  0  0  0  0  0  0  0  0  0  0
  -21.9738  -23.9874   21.9212 C   0  0  1  0  0  0  0  0  0  0  0  0
  -21.6972  -21.5010   19.0733 C   0  0  2  0  0  0  0  0  0  0  0  0
  -21.4602  -23.6271   23.3439 C   0  0  0  0  0  0  0  0  0  0  0  0
  -28.7377  -13.4619   20.8107 N   0  0  0  0  0  0  0  0  0  0  0  0
  -29.9099  -13.2064   20.2051 N   0  0  0  0  0  0  0  0  0  0  0  0
  -22.5788  -26.2760   21.1997 N   0  0  0  0  0  0  0  0  0  0  0  0
  -32.3158  -15.1181   22.4723 N   0  0  0  0  0  0  0  0  0  0  0  0
  -30.8588  -12.3129   18.2272 N   0  0  0  0  0  0  0  0  0  0  0  0
  -26.4159  -11.8981   17.5310 N   0  0  0  0  0  0  0  0  0  0  0  0
  -32.4778  -17.2605   21.4994 N   0  0  0  0  0  0  0  0  0  0  0  0
  -30.9945  -22.9925   20.1492 N   0  0  0  0  0  0  0  0  0  0  0  0
  -21.5306  -29.4366   22.4810 N   0  0  0  0  0  0  0  0  0  0  0  0
  -21.5236  -23.0761   20.8748 N   0  0  0  0  0  0  0  0  0  0  0  0
  -22.4795  -21.4191   17.8075 N   0  3  0  0  0  0  0  0  0  0  0  0
  -31.1923  -21.2797   18.5789 O   0  0  0  0  0  0  0  0  0  0  0  0
  -28.4867  -11.5056   16.6276 O   0  0  0  0  0  0  0  0  0  0  0  0
  -30.1002  -23.7780   18.1597 O   0  0  0  0  0  0  0  0  0  0  0  0
  -23.2873  -28.0220   23.0601 O   0  0  0  0  0  0  0  0  0  0  0  0
  -20.3467  -25.6341   21.4041 O   0  0  0  0  0  0  0  0  0  0  0  0
  -23.6374  -22.4512   20.1549 O   0  0  0  0  0  0  0  0  0  0  0  0
  -34.1096  -16.4929   22.9588 O   0  0  0  0  0  0  0  0  0  0  0  0
  -22.3742  -13.4384   21.0420 O   0  0  0  0  0  0  0  0  0  0  0  0
  -28.5891  -27.1234   20.0989 O   0  0  0  0  0  0  0  0  0  1  0  0
  -20.5402  -18.1829   23.1705 F   0  0  0  0  0  0  0  0  0  0  0  0
  -20.4654  -14.9410   19.7223 F   0  0  0  0  0  0  0  0  0  0  0  0
  1  2  1  0  0  0  0
  1  7  2  0  0  0  0
  2  8  2  0  0  0  0
  3  6  2  0  0  0  0
  3 10  1  0  0  0  0
  4 11  2  0  0  0  0
  4 19  1  0  0  0  0
  5 12  1  0  0  0  0
  5 19  2  0  0  0  0
  6 20  1  0  0  0  0
  7 22  1  0  0  0  0
  8 24  1  0  0  0  0
  9 13  2  0  0  0  0
  9 23  1  0  0  0  0
 10 26  2  0  0  0  0
 11 27  1  0  0  0  0
 12 27  2  0  0  0  0
 13 28  1  0  0  0  0
 14 15  2  0  0  0  0
 14 29  1  0  0  0  0
 15 30  1  0  0  0  0
 16 20  2  0  0  0  0
 16 26  1  0  0  0  0
 17 25  1  0  0  0  0
 17 28  2  0  0  0  0
 18 30  2  0  0  0  0
 18 31  1  0  0  0  0
 19 32  1  0  0  0  0
 20 35  1  0  0  0  0
 21 32  1  0  0  0  0
 21 33  2  0  0  0  0
 21 36  1  0  0  0  0
 22 24  2  0  0  0  0
 22 43  1  0  0  0  0
 23 25  2  0  0  0  0
 23 44  1  0  0  0  0
 24 52  1  0  0  0  0
 25 45  1  0  0  0  0
 26 70  1  0  0  0  0
 27 82  1  0  0  0  0
 28 83  1  0  0  0  0
 29 31  2  0  0  0  0
 29 82  1  0  0  0  0
 30 84  1  0  0  0  0
 31 85  1  0  0  0  0
 32 64  2  0  0  0  0
 33 65  1  0  0  0  0
 33 68  1  0  0  0  0
 34 37  2  0  0  0  0
 34 83  1  0  0  0  0
 35 71  1  0  0  0  0
 35 75  2  0  0  0  0
 36 69  1  0  0  0  0
 36 76  2  0  0  0  0
 37 38  1  0  0  0  0
 37 55  1  0  0  0  0
 38 71  1  0  0  0  0
 38 77  2  0  0  0  0
 39 53  1  0  0  0  0
 39 72  1  0  0  0  0
 39 78  2  0  0  0  0
 40 61  1  0  0  0  0
 40 66  1  0  0  0  0
 40 79  2  0  0  0  0
 41 62  1  0  0  0  0
 41 73  1  0  0  0  0
 41 80  2  0  0  0  0
 42 67  1  0  0  0  0
 42 70  1  0  0  0  0
 42 81  2  0  0  0  0
 43 46  1  0  0  0  0
 44 53  1  0  0  0  0
 45 66  1  0  0  0  0
 46 48  1  0  0  0  0
 47 49  1  0  0  0  0
 47 50  1  0  0  0  0
 48 52  1  0  0  0  0
 49 54  1  0  0  0  0
 50 67  1  0  0  0  0
 51 54  1  0  0  0  0
 51 67  1  0  0  0  0
 52 72  1  0  0  0  0
 53 66  1  0  0  0  0
 54 65  1  0  0  0  0
 56 62  1  0  0  0  0
 57 63  1  0  0  0  0
 58 63  1  0  0  0  0
 59 63  1  0  0  0  0
 60 74  1  0  0  0  0
 61 63  1  0  0  0  0
 61 73  1  0  0  0  0
 62 74  1  0  0  0  0
 64 65  1  0  0  0  0
M  CHG  1  74   1
M  ISO  4  34 101  42 100  70 100  83 101
M  END
> <Batch ID>
0079

> <Smiles>
CNC(C)C(=O)NC(C(=O)N1Cc2cc([101O:1][101CH:1]=C(C)C(=O)NC(=O)c3cccc([100NH:0][100C:0](=O)N4CCCC(n5nc(-c6ccc(Oc7ccc(F)cc7F)cc6)c(C(N)=O)c5N)C4)c3)ccc2CC1C(=O)NC1CCCc2ccccc21)C(C)(C)C

> <Shape>
0.216

> <Color>
0.093

> <Negative vol penalty>
0.000

$$$$

  -OEChem-04042323593D

 86 95  0     1  0  0  0  0  0999 V2000
  -35.9141  -33.1970   19.9836 C   0  0  0  0  0  0  0  0  0  0  0  0
  -35.1485  -32.0457   20.1383 C   0  0  0  0  0  0  0  0  0  0  0  0
  -23.6889   -9.6469   20.3531 C   0  0  0  0  0  0  0  0  0  0  0  0
  -24.2485  -10.1464   22.6498 C   0  0  0  0  0  0  0  0  0  0  0  0
  -35.5783  -34.3552   20.6834 C   0  0  0  0  0  0  0  0  0  0  0  0
  -34.0473  -32.0517   20.9937 C   0  0  0  0  0  0  0  0  0  0  0  0
  -29.9852  -29.8260   18.9466 C   0  0  0  0  0  0  0  0  0  0  0  0
  -30.2409  -20.4259   22.5151 C   0  0  0  0  0  0  0  0  0  0  0  0
  -29.2822  -20.2399   20.3052 C   0  0  0  0  0  0  0  0  0  0  0  0
  -30.2642  -19.0354   22.6221 C   0  0  0  0  0  0  0  0  0  0  0  0
  -29.3055  -18.8493   20.4122 C   0  0  0  0  0  0  0  0  0  0  0  0
  -23.1610   -8.4180   20.7490 C   0  0  0  0  0  0  0  0  0  0  0  0
  -23.7205   -8.9175   23.0457 C   0  0  0  0  0  0  0  0  0  0  0  0
  -29.9605  -28.4320   18.9362 C   0  0  0  0  0  0  0  0  0  0  0  0
  -20.3126   -7.2702   22.1640 C   0  0  0  0  0  0  0  0  0  0  0  0
  -19.0814   -6.8911   21.6293 C   0  0  0  0  0  0  0  0  0  0  0  0
  -28.5175  -28.4493   20.8693 C   0  0  0  0  0  0  0  0  0  0  0  0
  -20.1047   -4.9257   20.6664 C   0  0  0  0  0  0  0  0  0  0  0  0
  -24.2327  -10.5111   21.3035 C   0  0  0  0  0  0  0  0  0  0  0  0
  -24.0954  -13.0071   20.7949 C   0  0  0  0  0  0  0  0  0  0  0  0
  -34.4666  -34.3783   21.5403 C   0  0  0  0  0  0  0  0  0  0  0  0
  -29.2840  -30.5430   19.9266 C   0  0  0  0  0  0  0  0  0  0  0  0
  -33.6971  -33.2110   21.7065 C   0  0  0  0  0  0  0  0  0  0  0  0
  -28.5329  -29.8523   20.8884 C   0  0  0  0  0  0  0  0  0  0  0  0
  -29.7499  -21.0282   21.3566 C   0  0  0  0  0  0  0  0  0  0  0  0
  -29.7965  -18.2471   21.5707 C   0  0  0  0  0  0  0  0  0  0  0  0
  -23.1768   -8.0533   22.0953 C   0  0  0  0  0  0  0  0  0  0  0  0
  -29.2289  -27.7434   19.8994 C   0  0  0  0  0  0  0  0  0  0  0  0
  -21.4400   -6.4771   21.9498 C   0  0  0  0  0  0  0  0  0  0  0  0
  -18.9774   -5.7188   20.8805 C   0  0  0  0  0  0  0  0  0  0  0  0
  -21.3360   -5.3048   21.2011 C   0  0  0  0  0  0  0  0  0  0  0  0
  -24.7787  -11.7804   20.8951 C   0  0  0  0  0  0  0  0  0  0  0  0
  -25.0501  -13.8982   20.3694 C   0  0  0  0  0  0  0  0  0  0  0  0
  -29.6927  -24.3834   21.0984 C   0  0  0  0  0  0  0  0  0  0  0  0
  -30.1072  -23.4006   22.0939 C   0  0  0  0  0  0  0  0  0  0  0  0
  -29.3143  -23.2464   20.2660 C   0  0  0  0  0  0  0  0  0  0  0  0
  -29.0038  -16.6634   23.9237 C   0  0  0  0  0  0  0  0  0  0  0  0
  -29.6699  -25.7246   20.9951 C   0  0  0  0  0  0  0  0  0  1  0  0
  -29.6973  -16.1578   22.9013 C   0  0  0  0  0  0  0  0  0  0  0  0
  -22.7207  -13.3137   21.0627 C   0  0  0  0  0  0  0  0  0  0  0  0
  -30.0993  -32.5617   22.2427 C   0  0  0  0  0  0  0  0  0  0  0  0
  -26.8870  -32.8631   22.5780 C   0  0  0  0  0  0  0  0  0  0  0  0
  -23.7871  -31.5098   22.1244 C   0  0  0  0  0  0  0  0  0  0  0  0
  -30.1359  -16.0343   20.5311 C   0  0  0  0  0  0  0  0  0  0  0  0
  -34.1708  -35.6400   22.3118 C   0  0  0  0  0  0  0  0  0  0  0  0
  -29.2991  -32.0470   19.9080 C   0  0  0  0  0  0  0  0  0  0  0  0
  -27.7464  -30.5757   21.9498 C   0  0  0  0  0  0  0  0  0  0  0  0
  -32.7673  -35.6724   22.9113 C   0  0  0  0  0  0  0  0  0  0  0  0
  -29.7260  -13.1423   18.6187 C   0  0  0  0  0  0  0  0  0  0  0  0
  -32.4516  -34.3501   23.6031 C   0  0  0  0  0  0  0  0  0  0  0  0
  -28.3501  -12.6196   19.0304 C   0  0  0  0  0  0  0  0  0  0  0  0
  -30.4889  -13.6820   19.8231 C   0  0  0  0  0  0  0  0  0  0  0  0
  -28.3790  -14.2422   20.9885 C   0  0  0  0  0  0  0  0  0  0  0  0
  -32.4805  -33.1853   22.6061 C   0  0  1  0  0  0  0  0  0  0  0  0
  -28.9653  -32.6647   21.2624 C   0  0  1  0  0  0  0  0  0  0  0  0
  -27.5609  -13.6909   19.8035 C   0  0  2  0  0  0  0  0  0  0  0  0
  -21.3554  -31.9751   22.5338 C   0  0  0  0  0  0  0  0  0  0  0  0
  -27.2580  -32.1904   25.5310 C   0  0  0  0  0  0  0  0  0  0  0  0
  -24.7993  -31.7380   25.6651 C   0  0  0  0  0  0  0  0  0  0  0  0
  -25.6154  -34.0206   25.0763 C   0  0  0  0  0  0  0  0  0  0  0  0
  -23.1654  -31.4297   19.2319 C   0  0  0  0  0  0  0  0  0  0  0  0
  -25.8250  -32.1544   23.3836 C   0  0  1  0  0  0  0  0  0  0  0  0
  -22.5084  -32.0916   21.5491 C   0  0  2  0  0  0  0  0  0  0  0  0
  -25.8907  -32.5119   24.8953 C   0  0  0  0  0  0  0  0  0  0  0  0
  -26.0679  -11.8794   20.5600 N   0  0  0  0  0  0  0  0  0  0  0  0
  -26.2022  -13.1790   20.2450 N   0  0  0  0  0  0  0  0  0  0  0  0
  -29.7266  -22.3986   21.2511 N   0  0  0  0  0  0  0  0  0  0  0  0
  -27.7978  -32.0459   21.8935 N   0  0  0  0  0  0  0  0  0  0  0  0
  -29.7044  -14.6928   20.5331 N   0  0  0  0  0  0  0  0  0  0  0  0
  -25.0080  -15.2189   20.0931 N   0  0  0  0  0  0  0  0  0  0  0  0
  -21.8770  -12.2803   21.4923 N   0  0  0  0  0  0  0  0  0  0  0  0
  -31.2674  -33.1650   21.8172 N   0  0  0  0  0  0  0  0  0  0  0  0
  -24.5507  -32.4732   22.7490 N   0  0  0  0  0  0  0  0  0  0  0  0
  -29.8205  -16.8031   21.6815 N   0  0  0  0  0  0  0  0  0  0  0  0
  -22.1313  -31.3763   20.2972 N   0  3  0  0  0  0  0  0  0  0  0  0
  -30.5890  -23.4450   23.2065 O   0  0  0  0  0  0  0  0  0  0  0  0
  -28.8341  -23.1037   19.1611 O   0  0  0  0  0  0  0  0  0  0  0  0
  -22.2504  -14.4665   20.9094 O   0  0  0  0  0  0  0  0  0  0  0  0
  -29.9269  -31.9792   23.3070 O   0  0  0  0  0  0  0  0  0  0  0  0
  -26.9034  -34.0962   22.5512 O   0  0  0  0  0  0  0  0  0  0  0  0
  -24.0776  -30.3191   22.0323 O   0  0  0  0  0  0  0  0  0  0  0  0
  -30.7750  -16.5113   19.5843 O   0  0  0  0  0  0  0  0  0  0  0  0
  -22.6615   -6.8544   22.4820 O   0  0  0  0  0  0  0  0  0  0  0  0
  -29.2036  -26.3828   19.8920 O   0  0  0  0  0  0  0  0  0  1  0  0
  -17.7946   -5.3541   20.3684 F   0  0  0  0  0  0  0  0  0  0  0  0
  -22.4152   -4.5382   20.9930 F   0  0  0  0  0  0  0  0  0  0  0  0
  1  2  1  0  0  0  0
  1  5  2  0  0  0  0
  2  6  2  0  0  0  0
  3 12  2  0  0  0  0
  3 19  1  0  0  0  0
  4 13  1  0  0  0  0
  4 19  2  0  0  0  0
  5 21  1  0  0  0  0
  6 23  1  0  0  0  0
  7 14  2  0  0  0  0
  7 22  1  0  0  0  0
  8 10  2  0  0  0  0
  8 25  1  0  0  0  0
  9 11  1  0  0  0  0
  9 25  2  0  0  0  0
 10 26  1  0  0  0  0
 11 26  2  0  0  0  0
 12 27  1  0  0  0  0
 13 27  2  0  0  0  0
 14 28  1  0  0  0  0
 15 16  2  0  0  0  0
 15 29  1  0  0  0  0
 16 30  1  0  0  0  0
 17 24  1  0  0  0  0
 17 28  2  0  0  0  0
 18 30  2  0  0  0  0
 18 31  1  0  0  0  0
 19 32  1  0  0  0  0
 20 32  1  0  0  0  0
 20 33  2  0  0  0  0
 20 40  1  0  0  0  0
 21 23  2  0  0  0  0
 21 45  1  0  0  0  0
 22 24  2  0  0  0  0
 22 46  1  0  0  0  0
 23 54  1  0  0  0  0
 24 47  1  0  0  0  0
 25 67  1  0  0  0  0
 26 74  1  0  0  0  0
 27 83  1  0  0  0  0
 28 84  1  0  0  0  0
 29 31  2  0  0  0  0
 29 83  1  0  0  0  0
 30 85  1  0  0  0  0
 31 86  1  0  0  0  0
 32 65  2  0  0  0  0
 33 66  1  0  0  0  0
 33 70  1  0  0  0  0
 34 35  1  0  0  0  0
 34 36  1  0  0  0  0
 34 38  2  0  0  0  0
 35 67  1  0  0  0  0
 35 76  2  0  0  0  0
 36 67  1  0  0  0  0
 36 77  2  0  0  0  0
 37 39  2  0  0  0  0
 38 84  1  0  0  0  0
 39 74  1  0  0  0  0
 40 71  1  0  0  0  0
 40 78  2  0  0  0  0
 41 55  1  0  0  0  0
 41 72  1  0  0  0  0
 41 79  2  0  0  0  0
 42 62  1  0  0  0  0
 42 68  1  0  0  0  0
 42 80  2  0  0  0  0
 43 63  1  0  0  0  0
 43 73  1  0  0  0  0
 43 81  2  0  0  0  0
 44 69  1  0  0  0  0
 44 74  1  0  0  0  0
 44 82  2  0  0  0  0
 45 48  1  0  0  0  0
 46 55  1  0  0  0  0
 47 68  1  0  0  0  0
 48 50  1  0  0  0  0
 49 51  1  0  0  0  0
 49 52  1  0  0  0  0
 50 54  1  0  0  0  0
 51 56  1  0  0  0  0
 52 69  1  0  0  0  0
 53 56  1  0  0  0  0
 53 69  1  0  0  0  0
 54 72  1  0  0  0  0
 55 68  1  0  0  0  0
 56 66  1  0  0  0  0
 57 63  1  0  0  0  0
 58 64  1  0  0  0  0
 59 64  1  0  0  0  0
 60 64  1  0  0  0  0
 61 75  1  0  0  0  0
 62 64  1  0  0  0  0
 62 73  1  0  0  0  0
 63 75  1  0  0  0  0
 65 66  1  0  0  0  0
M  CHG  1  75   1
M  ISO  4  38 101  44 100  74 100  84 101
M  END
> <Batch ID>
0079

> <Smiles>
C=C[100N:0](c1ccc(N2C(=O)C(=[101CH:1][101O:1]c3ccc4c(c3)CN(C(=O)C(NC(=O)C(C)NC)C(C)(C)C)C(C(=O)NC3CCCc5ccccc53)C4)C2=O)cc1)[100C:0](=O)N1CCCC(n2nc(-c3ccc(Oc4ccc(F)cc4F)cc3)c(C(N)=O)c2N)C1

> <Shape>
0.307

> <Color>
0.172

> <Negative vol penalty>
0.000

$$$$

  -OEChem-04042323593D

 84 92  0     1  0  0  0  0  0999 V2000
  -21.6014  -12.0868   20.2096 C   0  0  0  0  0  0  0  0  0  0  0  0
  -21.7010  -13.1537   21.0968 C   0  0  0  0  0  0  0  0  0  0  0  0
  -25.0656  -27.2056   18.9707 C   0  0  0  0  0  0  0  0  0  0  0  0
  -25.2501  -26.1485   21.1353 C   0  0  0  0  0  0  0  0  0  0  0  0
  -22.7563  -11.5036   19.6900 C   0  0  0  0  0  0  0  0  0  0  0  0
  -22.9557  -13.6373   21.4659 C   0  0  0  0  0  0  0  0  0  0  0  0
  -23.1863  -18.6957   21.3935 C   0  0  0  0  0  0  0  0  0  0  0  0
  -26.4468  -27.3991   18.9474 C   0  0  0  0  0  0  0  0  0  0  0  0
  -26.6313  -26.3419   21.1120 C   0  0  0  0  0  0  0  0  0  0  0  0
  -22.6161  -19.3745   22.4696 C   0  0  0  0  0  0  0  0  0  0  0  0
  -28.8019  -28.8745   21.6648 C   0  0  0  0  0  0  0  0  0  0  0  0
  -29.4079  -29.3598   22.8236 C   0  0  0  0  0  0  0  0  0  0  0  0
  -20.0963  -23.7019   26.6452 C   0  0  0  0  0  0  0  0  0  0  0  0
  -19.7091  -23.6604   29.0296 C   0  0  0  0  0  0  0  0  0  0  0  0
  -24.8051  -19.6575   23.4431 C   0  0  0  0  0  0  0  0  0  0  0  0
  -18.9082  -25.5175   27.7078 C   0  0  0  0  0  0  0  0  0  0  0  0
  -30.7692  -27.3676   22.9460 C   0  0  0  0  0  0  0  0  0  0  0  0
  -24.4673  -26.5803   20.0647 C   0  0  0  0  0  0  0  0  0  0  0  0
  -20.2342  -23.0691   27.8806 C   0  0  0  0  0  0  0  0  0  0  0  0
  -22.2689  -25.6452   19.1701 C   0  0  0  0  0  0  0  0  0  0  0  0
  -24.0256  -11.9865   20.0454 C   0  0  0  0  0  0  0  0  0  0  0  0
  -24.5713  -18.4828   21.3395 C   0  0  0  0  0  0  0  0  0  0  0  0
  -24.1287  -13.0592   20.9516 C   0  0  0  0  0  0  0  0  0  0  0  0
  -25.3906  -18.9779   22.3640 C   0  0  0  0  0  0  0  0  0  0  0  0
  -19.4333  -24.9261   26.5588 C   0  0  0  0  0  0  0  0  0  0  0  0
  -27.2296  -26.9672   20.0181 C   0  0  0  0  0  0  0  0  0  0  0  0
  -23.4252  -19.8530   23.4960 C   0  0  0  0  0  0  0  0  0  0  0  0
  -29.1795  -27.6357   21.1466 C   0  0  0  0  0  0  0  0  0  0  0  0
  -30.3916  -28.6063   23.4642 C   0  0  0  0  0  0  0  0  0  0  0  0
  -19.0461  -24.8846   28.9432 C   0  0  0  0  0  0  0  0  0  0  0  0
  -30.1632  -26.8823   21.7872 C   0  0  0  0  0  0  0  0  0  0  0  0
  -23.0405  -26.3807   20.0895 C   0  0  0  0  0  0  0  0  0  0  0  0
  -20.9809  -25.7609   19.6327 C   0  0  0  0  0  0  0  0  0  0  0  0
  -20.9395  -21.7722   27.9732 C   0  0  0  0  0  0  0  0  0  0  0  0
  -22.6797  -24.9219   18.0023 C   0  0  0  0  0  0  0  0  0  0  0  0
  -26.4462  -15.9164   21.2959 C   0  0  0  0  0  0  0  0  0  0  0  0
  -28.7857  -18.1144   20.8291 C   0  0  0  0  0  0  0  0  0  0  0  0
  -22.6630  -20.3789   26.8737 C   0  0  0  0  0  0  0  0  0  0  0  0
  -29.8433  -21.3397   21.1836 C   0  0  0  0  0  0  0  0  0  0  0  0
  -18.6637  -26.7862   25.0442 C   0  0  0  0  0  0  0  0  0  0  0  0
  -25.2465  -11.2932   19.4946 C   0  0  0  0  0  0  0  0  0  0  0  0
  -25.1737  -17.7720   20.1587 C   0  0  0  0  0  0  0  0  0  0  0  0
  -26.8852  -18.7933   22.3433 C   0  0  0  0  0  0  0  0  0  0  0  0
  -26.5291  -12.1071   19.6452 C   0  0  0  0  0  0  0  0  0  0  0  0
  -18.1408  -28.7223   22.1022 C   0  0  0  0  0  0  0  0  0  0  0  0
  -26.6366  -12.6778   21.0558 C   0  0  0  0  0  0  0  0  0  0  0  0
  -19.2641  -28.2702   21.1663 C   0  0  0  0  0  0  0  0  0  0  0  0
  -18.6024  -28.7764   23.5575 C   0  0  0  0  0  0  0  0  0  0  0  0
  -20.3458  -27.0910   23.1224 C   0  0  0  0  0  0  0  0  0  0  0  0
  -25.4713  -13.6280   21.3568 C   0  0  1  0  0  0  0  0  0  0  0  0
  -26.5390  -17.1623   20.4612 C   0  0  1  0  0  0  0  0  0  0  0  0
  -19.9103  -26.9586   21.6539 C   0  0  2  0  0  0  0  0  0  0  0  0
  -22.9468  -19.6774   28.1498 C   0  0  0  0  0  0  0  0  0  0  0  0
  -31.8163  -22.8258   20.7408 C   0  0  0  0  0  0  0  0  0  0  0  0
  -30.2432  -16.8850   23.2113 C   0  0  0  0  0  0  0  0  0  0  0  0
  -31.6687  -18.9407   23.3111 C   0  0  0  0  0  0  0  0  0  0  0  0
  -31.7182  -17.4880   21.2838 C   0  0  0  0  0  0  0  0  0  0  0  0
  -28.2691  -23.0908   19.3907 C   0  0  0  0  0  0  0  0  0  0  0  0
  -29.6863  -18.9249   21.7297 C   0  0  1  0  0  0  0  0  0  0  0  0
  -30.4942  -22.2997   20.2042 C   0  0  2  0  0  0  0  0  0  0  0  0
  -30.8008  -18.0616   22.3856 C   0  0  0  0  0  0  0  0  0  0  0  0
  -22.3041  -26.9237   21.0626 N   0  0  0  0  0  0  0  0  0  0  0  0
  -21.0563  -26.5291   20.7571 N   0  0  0  0  0  0  0  0  0  0  0  0
  -27.4261  -18.0864   21.1706 N   0  0  0  0  0  0  0  0  0  0  0  0
  -19.1999  -27.4984   23.9505 N   0  0  0  0  0  0  0  0  0  0  0  0
  -19.8024  -25.2795   19.1833 N   0  0  0  0  0  0  0  0  0  0  0  0
  -23.0250  -23.5706   18.1404 N   0  0  0  0  0  0  0  0  0  0  0  0
  -19.2929  -25.5692   25.3041 N   0  0  0  0  0  0  0  0  0  0  0  0
  -21.9399  -21.5001   26.9666 N   0  0  0  0  0  0  0  0  0  0  0  0
  -25.6893  -14.9114   20.7244 N   0  0  0  0  0  0  0  0  0  0  0  0
  -30.1859  -20.0304   20.9195 N   0  0  0  0  0  0  0  0  0  0  0  0
  -23.1370  -19.8580   25.7447 N   0  3  0  0  0  0  0  0  0  1  0  0
  -29.5973  -23.4610   19.9436 N   0  3  0  0  0  0  0  0  0  0  0  0
  -20.6791  -20.9551   28.8446 O   0  0  0  0  0  0  0  0  0  0  0  0
  -22.7546  -25.4623   16.8727 O   0  0  0  0  0  0  0  0  0  0  0  0
  -27.0201  -15.8697   22.3776 O   0  0  0  0  0  0  0  0  0  0  0  0
  -29.2696  -17.5335   19.8544 O   0  0  0  0  0  0  0  0  0  0  0  0
  -29.1077  -21.7141   22.0942 O   0  0  0  0  0  0  0  0  0  0  0  0
  -17.6988  -27.2110   25.6849 O   0  0  0  0  0  0  0  0  0  0  0  0
  -28.5774  -27.1556   19.9956 O   0  0  0  0  0  0  0  0  0  0  0  0
  -22.8712  -20.5153   24.5478 O   0  0  0  0  0  0  0  0  0  1  0  0
  -30.9745  -29.0732   24.5761 F   0  0  0  0  0  0  0  0  0  0  0  0
  -18.5444  -25.4540   30.0469 F   0  0  0  0  0  0  0  0  0  0  0  0
  -30.5310  -25.6920   21.2934 F   0  0  0  0  0  0  0  0  0  0  0  0
  1  2  1  0  0  0  0
  1  5  2  0  0  0  0
  2  6  2  0  0  0  0
  3  8  2  0  0  0  0
  3 18  1  0  0  0  0
  4  9  1  0  0  0  0
  4 18  2  0  0  0  0
  5 21  1  0  0  0  0
  6 23  1  0  0  0  0
  7 10  2  0  0  0  0
  7 22  1  0  0  0  0
  8 26  1  0  0  0  0
  9 26  2  0  0  0  0
 10 27  1  0  0  0  0
 11 12  2  0  0  0  0
 11 28  1  0  0  0  0
 12 29  1  0  0  0  0
 13 19  2  0  0  0  0
 13 25  1  0  0  0  0
 14 19  1  0  0  0  0
 14 30  2  0  0  0  0
 15 24  1  0  0  0  0
 15 27  2  0  0  0  0
 16 25  2  0  0  0  0
 16 30  1  0  0  0  0
 17 29  2  0  0  0  0
 17 31  1  0  0  0  0
 18 32  1  0  0  0  0
 19 34  1  0  0  0  0
 20 32  1  0  0  0  0
 20 33  2  0  0  0  0
 20 35  1  0  0  0  0
 21 23  2  0  0  0  0
 21 41  1  0  0  0  0
 22 24  2  0  0  0  0
 22 42  1  0  0  0  0
 23 50  1  0  0  0  0
 24 43  1  0  0  0  0
 25 68  1  0  0  0  0
 26 80  1  0  0  0  0
 27 81  1  0  0  0  0
 28 31  2  0  0  0  0
 28 80  1  0  0  0  0
 29 82  1  0  0  0  0
 30 83  1  0  0  0  0
 31 84  1  0  0  0  0
 32 62  2  0  0  0  0
 33 63  1  0  0  0  0
 33 66  1  0  0  0  0
 34 69  1  0  0  0  0
 34 74  2  0  0  0  0
 35 67  1  0  0  0  0
 35 75  2  0  0  0  0
 36 51  1  0  0  0  0
 36 70  1  0  0  0  0
 36 76  2  0  0  0  0
 37 59  1  0  0  0  0
 37 64  1  0  0  0  0
 37 77  2  0  0  0  0
 38 53  1  0  0  0  0
 38 69  1  0  0  0  0
 38 72  2  0  0  0  0
 39 60  1  0  0  0  0
 39 71  1  0  0  0  0
 39 78  2  0  0  0  0
 40 65  1  0  0  0  0
 40 68  1  0  0  0  0
 40 79  2  0  0  0  0
 41 44  1  0  0  0  0
 42 51  1  0  0  0  0
 43 64  1  0  0  0  0
 44 46  1  0  0  0  0
 45 47  1  0  0  0  0
 45 48  1  0  0  0  0
 46 50  1  0  0  0  0
 47 52  1  0  0  0  0
 48 65  1  0  0  0  0
 49 52  1  0  0  0  0
 49 65  1  0  0  0  0
 50 70  1  0  0  0  0
 51 64  1  0  0  0  0
 52 63  1  0  0  0  0
 54 60  1  0  0  0  0
 55 61  1  0  0  0  0
 56 61  1  0  0  0  0
 57 61  1  0  0  0  0
 58 73  1  0  0  0  0
 59 61  1  0  0  0  0
 59 71  1  0  0  0  0
 60 73  1  0  0  0  0
 62 63  1  0  0  0  0
 72 81  1  0  0  0  0
M  CHG  2  72   1  73   1
M  ISO  4  40 100  68 100  72 101  81 101
M  END
> <Batch ID>
0079

> <Smiles>
CNC(C)C(=O)NC(C(=O)N1Cc2cc([101O:1][101N:1]=C(C)NC(=O)c3cc(F)cc([100NH:0][100C:0](=O)N4CCCC(n5nc(-c6ccc(Oc7ccc(F)cc7F)cc6)c(C(N)=O)c5N)C4)c3)ccc2CC1C(=O)NC1CCCc2ccccc21)C(C)(C)C

> <Shape>
0.192

> <Color>
0.074

> <Negative vol penalty>
0.000

$$$$

  -OEChem-04042323593D

 88 97  0     1  0  0  0  0  0999 V2000
  -18.0563  -34.2904   20.4606 C   0  0  0  0  0  0  0  0  0  0  0  0
  -18.3201  -32.9310   20.3280 C   0  0  0  0  0  0  0  0  0  0  0  0
  -22.7237  -10.3814   20.2626 C   0  0  0  0  0  0  0  0  0  0  0  0
  -24.3915   -9.3678   21.6868 C   0  0  0  0  0  0  0  0  0  0  0  0
  -27.7370  -19.9373   17.5839 C   0  0  0  0  0  0  0  0  0  0  0  0
  -26.3500  -18.0160   17.1131 C   0  0  0  0  0  0  0  0  0  0  0  0
  -19.0017  -35.2267   20.0442 C   0  0  0  0  0  0  0  0  0  0  0  0
  -19.5293  -32.5070   19.7778 C   0  0  0  0  0  0  0  0  0  0  0  0
  -22.7304  -27.5205   21.3251 C   0  0  0  0  0  0  0  0  0  0  0  0
  -26.6071  -20.7552   17.5749 C   0  0  0  0  0  0  0  0  0  0  0  0
  -25.2201  -18.8338   17.1041 C   0  0  0  0  0  0  0  0  0  0  0  0
  -21.9630   -9.2138   20.3225 C   0  0  0  0  0  0  0  0  0  0  0  0
  -23.6308   -8.2002   21.7467 C   0  0  0  0  0  0  0  0  0  0  0  0
  -22.8193  -26.2498   20.7585 C   0  0  0  0  0  0  0  0  0  0  0  0
  -20.8997   -7.0907   23.3992 C   0  0  0  0  0  0  0  0  0  0  0  0
  -20.7341   -6.4902   24.6472 C   0  0  0  0  0  0  0  0  0  0  0  0
  -24.8011  -26.9284   19.5622 C   0  0  0  0  0  0  0  0  0  0  0  0
  -21.7891   -4.4802   23.8200 C   0  0  0  0  0  0  0  0  0  0  0  0
  -23.9381  -10.4584   20.9448 C   0  0  0  0  0  0  0  0  0  0  0  0
  -27.6084  -18.5677   17.3529 C   0  0  0  0  0  0  0  0  0  0  0  0
  -24.3397  -12.9525   21.2993 C   0  0  0  0  0  0  0  0  0  0  0  0
  -20.2271  -34.8139   19.4975 C   0  0  0  0  0  0  0  0  0  0  0  0
  -23.6715  -28.5097   21.0055 C   0  0  0  0  0  0  0  0  0  0  0  0
  -20.4915  -33.4386   19.3525 C   0  0  0  0  0  0  0  0  0  0  0  0
  -24.7234  -28.2101   20.1281 C   0  0  0  0  0  0  0  0  0  0  0  0
  -25.3487  -20.2035   17.3351 C   0  0  0  0  0  0  0  0  0  0  0  0
  -22.4165   -8.1232   21.0645 C   0  0  0  0  0  0  0  0  0  0  0  0
  -23.8531  -25.9544   19.8747 C   0  0  0  0  0  0  0  0  0  0  0  0
  -21.5099   -6.3860   22.3615 C   0  0  0  0  0  0  0  0  0  0  0  0
  -21.1788   -5.1850   24.8576 C   0  0  0  0  0  0  0  0  0  0  0  0
  -21.9546   -5.0808   22.5720 C   0  0  0  0  0  0  0  0  0  0  0  0
  -24.7246  -11.6640   20.8829 C   0  0  0  0  0  0  0  0  0  0  0  0
  -25.4321  -13.7407   21.0313 C   0  0  0  0  0  0  0  0  0  0  0  0
  -22.8752  -23.0694   17.9622 C   0  0  0  0  0  0  0  0  0  0  0  0
  -21.7596  -22.6070   17.1533 C   0  0  0  0  0  0  0  0  0  0  0  0
  -24.1165  -22.2181   18.1175 C   0  0  0  0  0  0  0  0  0  0  0  0
  -20.4708  -22.8917   17.4002 C   0  0  0  0  0  0  0  0  0  0  0  0
  -22.8960  -24.2748   18.5580 C   0  0  0  0  0  0  0  0  0  1  0  0
  -28.8118  -17.6967   17.3622 C   0  0  0  0  0  0  0  0  0  0  0  0
  -23.1050  -13.3972   21.8768 C   0  0  0  0  0  0  0  0  0  0  0  0
  -23.5396  -31.3674   19.6199 C   0  0  0  0  0  0  0  0  0  0  0  0
  -26.6720  -31.4850   20.4549 C   0  0  0  0  0  0  0  0  0  0  0  0
  -29.5277  -29.7877   21.2365 C   0  0  0  0  0  0  0  0  0  0  0  0
  -29.5745  -15.3720   17.7333 C   0  0  0  0  0  0  0  0  0  0  0  0
  -21.1984  -35.8634   19.0180 C   0  0  0  0  0  0  0  0  0  0  0  0
  -23.5771  -29.8674   21.6459 C   0  0  0  0  0  0  0  0  0  0  0  0
  -25.7710  -29.2307   19.7681 C   0  0  0  0  0  0  0  0  0  0  0  0
  -22.1631  -21.7144   16.0239 C   0  0  0  0  0  0  0  0  0  0  0  0
  -22.6099  -35.3285   18.7908 C   0  0  0  0  0  0  0  0  0  0  0  0
  -30.1534  -12.4871   19.6927 C   0  0  0  0  0  0  0  0  0  0  0  0
  -22.5653  -34.0198   18.0083 C   0  0  0  0  0  0  0  0  0  0  0  0
  -28.7626  -12.1235   20.2198 C   0  0  0  0  0  0  0  0  0  0  0  0
  -23.0062  -20.5757   16.5714 C   0  0  0  0  0  0  0  0  0  0  0  0
  -30.0982  -13.0060   18.2565 C   0  0  0  0  0  0  0  0  0  0  0  0
  -27.7677  -13.7404   18.5525 C   0  0  0  0  0  0  0  0  0  0  0  0
  -21.8018  -32.9393   18.7834 C   0  0  1  0  0  0  0  0  0  0  0  0
  -24.2949  -30.9541   20.8514 C   0  0  1  0  0  0  0  0  0  0  0  0
  -27.7617  -13.2790   20.0189 C   0  0  1  0  0  0  0  0  0  0  0  0
  -31.9368  -30.1557   21.8349 C   0  0  0  0  0  0  0  0  0  0  0  0
  -27.2967  -32.1231   17.5373 C   0  0  0  0  0  0  0  0  0  0  0  0
  -29.6888  -31.5432   17.9952 C   0  0  0  0  0  0  0  0  0  0  0  0
  -28.6158  -33.4458   19.2000 C   0  0  0  0  0  0  0  0  0  0  0  0
  -29.1966  -28.4689   23.8652 C   0  0  0  0  0  0  0  0  0  0  0  0
  -27.9691  -31.0764   19.7996 C   0  0  1  0  0  0  0  0  0  0  0  0
  -30.5255  -29.9618   22.3672 C   0  0  2  0  0  0  0  0  0  0  0  0
  -28.3719  -32.0282   18.6381 C   0  0  0  0  0  0  0  0  0  0  0  0
  -25.9647  -11.6312   20.3878 N   0  0  0  0  0  0  0  0  0  0  0  0
  -26.3684  -12.9089   20.4913 N   0  0  0  0  0  0  0  0  0  0  0  0
  -24.1778  -21.0524   17.3262 N   0  0  0  0  0  0  0  0  0  0  0  0
  -25.6318  -30.5457   20.4154 N   0  0  0  0  0  0  0  0  0  0  0  0
  -29.1355  -14.1040   18.1527 N   0  0  0  0  0  0  0  0  0  0  0  0
  -25.6735  -15.0572   21.2071 N   0  0  0  0  0  0  0  0  0  0  0  0
  -22.9729  -13.3729   23.2719 N   0  0  0  0  0  0  0  0  0  0  0  0
  -28.5877  -16.3637   17.7079 N   0  0  0  0  0  0  0  0  0  0  0  0
  -22.6322  -32.3877   19.8324 N   0  0  0  0  0  0  0  0  0  0  0  0
  -28.9569  -30.9880   20.8696 N   0  0  0  0  0  0  0  0  0  0  0  0
  -30.5180  -28.7639   23.2537 N   0  3  0  0  0  0  0  0  0  0  0  0
  -24.9779  -22.5596   18.9302 O   0  0  0  0  0  0  0  0  0  0  0  0
  -29.8965  -18.1717   17.0372 O   0  0  0  0  0  0  0  0  0  0  0  0
  -22.1413  -13.7885   21.1757 O   0  0  0  0  0  0  0  0  0  0  0  0
  -23.7646  -30.8035   18.5555 O   0  0  0  0  0  0  0  0  0  0  0  0
  -26.5871  -32.5938   20.9886 O   0  0  0  0  0  0  0  0  0  0  0  0
  -29.2821  -28.6965   20.7270 O   0  0  0  0  0  0  0  0  0  0  0  0
  -30.7511  -15.6103   17.4431 O   0  0  0  0  0  0  0  0  0  0  0  0
  -21.6743   -6.9838   21.1233 O   0  0  0  0  0  0  0  0  0  0  0  0
  -23.9418  -24.7150   19.3197 O   0  0  0  0  0  0  0  0  0  1  0  0
  -21.0211   -4.6090   26.0566 F   0  0  0  0  0  0  0  0  0  0  0  0
  -22.5427   -4.3991   21.5793 F   0  0  0  0  0  0  0  0  0  0  0  0
  1  2  1  0  0  0  0
  1  7  2  0  0  0  0
  2  8  2  0  0  0  0
  3 12  2  0  0  0  0
  3 19  1  0  0  0  0
  4 13  1  0  0  0  0
  4 19  2  0  0  0  0
  5 10  2  0  0  0  0
  5 20  1  0  0  0  0
  6 11  1  0  0  0  0
  6 20  2  0  0  0  0
  7 22  1  0  0  0  0
  8 24  1  0  0  0  0
  9 14  2  0  0  0  0
  9 23  1  0  0  0  0
 10 26  1  0  0  0  0
 11 26  2  0  0  0  0
 12 27  1  0  0  0  0
 13 27  2  0  0  0  0
 14 28  1  0  0  0  0
 15 16  2  0  0  0  0
 15 29  1  0  0  0  0
 16 30  1  0  0  0  0
 17 25  1  0  0  0  0
 17 28  2  0  0  0  0
 18 30  2  0  0  0  0
 18 31  1  0  0  0  0
 19 32  1  0  0  0  0
 20 39  1  0  0  0  0
 21 32  1  0  0  0  0
 21 33  2  0  0  0  0
 21 40  1  0  0  0  0
 22 24  2  0  0  0  0
 22 45  1  0  0  0  0
 23 25  2  0  0  0  0
 23 46  1  0  0  0  0
 24 56  1  0  0  0  0
 25 47  1  0  0  0  0
 26 69  1  0  0  0  0
 27 85  1  0  0  0  0
 28 86  1  0  0  0  0
 29 31  2  0  0  0  0
 29 85  1  0  0  0  0
 30 87  1  0  0  0  0
 31 88  1  0  0  0  0
 32 67  2  0  0  0  0
 33 68  1  0  0  0  0
 33 72  1  0  0  0  0
 34 35  1  0  0  0  0
 34 36  1  0  0  0  0
 34 38  2  0  0  0  0
 35 37  2  0  0  0  0
 35 48  1  0  0  0  0
 36 69  1  0  0  0  0
 36 78  2  0  0  0  0
 38 86  1  0  0  0  0
 39 74  1  0  0  0  0
 39 79  2  0  0  0  0
 40 73  1  0  0  0  0
 40 80  2  0  0  0  0
 41 57  1  0  0  0  0
 41 75  1  0  0  0  0
 41 81  2  0  0  0  0
 42 64  1  0  0  0  0
 42 70  1  0  0  0  0
 42 82  2  0  0  0  0
 43 65  1  0  0  0  0
 43 76  1  0  0  0  0
 43 83  2  0  0  0  0
 44 71  1  0  0  0  0
 44 74  1  0  0  0  0
 44 84  2  0  0  0  0
 45 49  1  0  0  0  0
 46 57  1  0  0  0  0
 47 70  1  0  0  0  0
 48 53  1  0  0  0  0
 49 51  1  0  0  0  0
 50 52  1  0  0  0  0
 50 54  1  0  0  0  0
 51 56  1  0  0  0  0
 52 58  1  0  0  0  0
 53 69  1  0  0  0  0
 54 71  1  0  0  0  0
 55 58  1  0  0  0  0
 55 71  1  0  0  0  0
 56 75  1  0  0  0  0
 57 70  1  0  0  0  0
 58 68  1  0  0  0  0
 59 65  1  0  0  0  0
 60 66  1  0  0  0  0
 61 66  1  0  0  0  0
 62 66  1  0  0  0  0
 63 77  1  0  0  0  0
 64 66  1  0  0  0  0
 64 76  1  0  0  0  0
 65 77  1  0  0  0  0
 67 68  1  0  0  0  0
M  CHG  1  77   1
M  ISO  4  38 101  44 100  74 100  86 101
M  END
> <Batch ID>
0079

> <Smiles>
C=C1CCN(c2ccc(C(=O)[100NH:0][100C:0](=O)N3CCCC(n4nc(-c5ccc(Oc6ccc(F)cc6F)cc5)c(C(N)=O)c4N)C3)cc2)C(=O)C1=[101CH:1][101O:1]c1ccc2c(c1)CN(C(=O)C(NC(=O)C(C)NC)C(C)(C)C)C(C(=O)NC1CCCc3ccccc31)C2

> <Shape>
0.224

> <Color>
0.145

> <Negative vol penalty>
0.000

$$$$

  -OEChem-04042323593D

 82 90  0     1  0  0  0  0  0999 V2000
  -28.5955  -34.4515   24.4906 C   0  0  0  0  0  0  0  0  0  0  0  0
  -28.6754  -33.1033   24.1569 C   0  0  0  0  0  0  0  0  0  0  0  0
  -24.1702  -10.1465   22.7952 C   0  0  0  0  0  0  0  0  0  0  0  0
  -24.4745  -12.1335   24.1354 C   0  0  0  0  0  0  0  0  0  0  0  0
  -27.9185  -20.4288   17.9530 C   0  0  0  0  0  0  0  0  0  0  0  0
  -30.3236  -20.2001   17.9752 C   0  0  0  0  0  0  0  0  0  0  0  0
  -27.3626  -35.0164   24.8145 C   0  0  0  0  0  0  0  0  0  0  0  0
  -27.5226  -32.3188   24.1481 C   0  0  0  0  0  0  0  0  0  0  0  0
  -27.2308  -29.3402   20.0630 C   0  0  0  0  0  0  0  0  0  0  0  0
  -27.7860  -19.0526   18.1374 C   0  0  0  0  0  0  0  0  0  0  0  0
  -30.1910  -18.8239   18.1596 C   0  0  0  0  0  0  0  0  0  0  0  0
  -23.7622   -9.4441   23.9291 C   0  0  0  0  0  0  0  0  0  0  0  0
  -24.0665  -11.4311   25.2694 C   0  0  0  0  0  0  0  0  0  0  0  0
  -28.0092  -28.1835   20.0615 C   0  0  0  0  0  0  0  0  0  0  0  0
  -20.9646   -9.1516   25.8054 C   0  0  0  0  0  0  0  0  0  0  0  0
  -19.8359   -8.3397   25.6937 C   0  0  0  0  0  0  0  0  0  0  0  0
  -26.0736  -26.8874   20.6881 C   0  0  0  0  0  0  0  0  0  0  0  0
  -21.1629   -6.4123   26.2947 C   0  0  0  0  0  0  0  0  0  0  0  0
  -24.5264  -11.4912   22.8983 C   0  0  0  0  0  0  0  0  0  0  0  0
  -29.1873  -21.0026   17.8718 C   0  0  0  0  0  0  0  0  0  0  0  0
  -24.1340  -12.9425   20.8374 C   0  0  0  0  0  0  0  0  0  0  0  0
  -26.1927  -34.2407   24.8003 C   0  0  0  0  0  0  0  0  0  0  0  0
  -25.8681  -29.2806   20.3883 C   0  0  0  0  0  0  0  0  0  0  0  0
  -26.2731  -32.8736   24.4735 C   0  0  0  0  0  0  0  0  0  0  0  0
  -25.2795  -28.0444   20.6905 C   0  0  0  0  0  0  0  0  0  0  0  0
  -28.9222  -18.2501   18.2407 C   0  0  0  0  0  0  0  0  0  0  0  0
  -23.7103  -10.0864   25.1662 C   0  0  0  0  0  0  0  0  0  0  0  0
  -27.4313  -26.9573   20.3769 C   0  0  0  0  0  0  0  0  0  0  0  0
  -22.1925   -8.5938   26.1616 C   0  0  0  0  0  0  0  0  0  0  0  0
  -19.9350   -6.9701   25.9384 C   0  0  0  0  0  0  0  0  0  0  0  0
  -22.2916   -7.2242   26.4063 C   0  0  0  0  0  0  0  0  0  0  0  0
  -24.9486  -12.2171   21.7275 C   0  0  0  0  0  0  0  0  0  0  0  0
  -25.0071  -13.4410   19.9016 C   0  0  0  0  0  0  0  0  0  0  0  0
  -28.5354  -23.7117   19.3887 C   0  0  0  0  0  0  0  0  0  0  0  0
  -29.3289  -22.4716   17.6748 C   0  0  0  0  0  0  0  0  0  0  0  0
  -22.7151  -13.1473   20.8550 C   0  0  0  0  0  0  0  0  0  0  0  0
  -24.0525  -30.5268   22.6806 C   0  0  0  0  0  0  0  0  0  0  0  0
  -21.6451  -29.2065   20.9532 C   0  0  0  0  0  0  0  0  0  0  0  0
  -20.6542  -26.8413   18.7014 C   0  0  0  0  0  0  0  0  0  0  0  0
  -29.8098  -15.9129   18.5502 C   0  0  0  0  0  0  0  0  0  0  0  0
  -24.8899  -34.8846   25.2037 C   0  0  0  0  0  0  0  0  0  0  0  0
  -25.0362  -30.5335   20.3593 C   0  0  0  0  0  0  0  0  0  0  0  0
  -23.8164  -27.9237   21.0269 C   0  0  0  0  0  0  0  0  0  0  0  0
  -23.6601  -34.0720   24.8065 C   0  0  0  0  0  0  0  0  0  0  0  0
  -29.8863  -12.3898   19.0591 C   0  0  0  0  0  0  0  0  0  0  0  0
  -23.8483  -32.6040   25.1757 C   0  0  0  0  0  0  0  0  0  0  0  0
  -28.5415  -12.0904   19.7255 C   0  0  0  0  0  0  0  0  0  0  0  0
  -30.4661  -13.7238   19.5260 C   0  0  0  0  0  0  0  0  0  0  0  0
  -28.2170  -14.5741   20.0621 C   0  0  0  0  0  0  0  0  0  0  0  0
  -25.0413  -31.9957   24.4286 C   0  0  1  0  0  0  0  0  0  0  0  0
  -23.7723  -30.4313   21.2075 C   0  0  1  0  0  0  0  0  0  0  0  0
  -27.5625  -13.2712   19.5744 C   0  0  2  0  0  0  0  0  0  0  0  0
  -18.6172  -25.9844   17.5123 C   0  0  0  0  0  0  0  0  0  0  0  0
  -20.7382  -27.8166   23.5136 C   0  0  0  0  0  0  0  0  0  0  0  0
  -19.3455  -26.2846   22.1060 C   0  0  0  0  0  0  0  0  0  0  0  0
  -18.8822  -28.7357   22.1119 C   0  0  0  0  0  0  0  0  0  0  0  0
  -21.7949  -27.4766   16.0454 C   0  0  0  0  0  0  0  0  0  0  0  0
  -27.5301  -24.6035   20.0517 C   0  0  0  0  0  0  0  0  0  1  0  0
  -20.9478  -27.8676   20.9408 C   0  0  1  0  0  0  0  0  0  0  0  0
  -19.8008  -26.9372   17.4496 C   0  0  2  0  0  0  0  0  0  0  0  0
  -20.0064  -27.6784   22.1637 C   0  0  0  0  0  0  0  0  0  0  0  0
  -26.2398  -12.2493   21.3875 N   0  0  0  0  0  0  0  0  0  0  0  0
  -28.3513  -23.2961   18.1775 N   0  0  0  0  0  0  0  0  0  0  0  0
  -26.2433  -13.0008   20.2734 N   0  0  0  0  0  0  0  0  0  0  0  0
  -23.0464  -29.1780   20.9913 N   0  0  0  0  0  0  0  0  0  0  0  0
  -29.4845  -14.7961   19.3488 N   0  0  0  0  0  0  0  0  0  0  0  0
  -24.8302  -14.2085   18.8053 N   0  0  0  0  0  0  0  0  0  0  0  0
  -21.9685  -12.5641   21.8879 N   0  0  0  0  0  0  0  0  0  0  0  0
  -28.7864  -16.8522   18.4282 N   0  0  0  0  0  0  0  0  0  0  0  0
  -24.6812  -31.6977   23.0589 N   0  0  0  0  0  0  0  0  0  0  0  0
  -20.2767  -27.7689   19.6492 N   0  0  0  0  0  0  0  0  0  0  0  0
  -30.3072  -22.9894   17.0196 N   0  3  0  0  0  0  0  0  0  0  0  0
  -20.6103  -26.6023   16.2440 N   0  3  0  0  0  0  0  0  0  0  0  0
  -22.1245  -13.8139   19.9715 O   0  0  0  0  0  0  0  0  0  0  0  0
  -23.7214  -29.6070   23.4195 O   0  0  0  0  0  0  0  0  0  0  0  0
  -20.9716  -30.2395   20.9228 O   0  0  0  0  0  0  0  0  0  0  0  0
  -21.5622  -26.0227   18.8274 O   0  0  0  0  0  0  0  0  0  0  0  0
  -30.9053  -16.0144   17.9919 O   0  0  0  0  0  0  0  0  0  0  0  0
  -23.3120   -9.4013   26.2728 O   0  0  0  0  0  0  0  0  0  0  0  0
  -28.1889  -25.8269   20.3768 O   0  0  0  0  0  0  0  0  0  1  0  0
  -18.8507   -6.1908   25.8327 F   0  0  0  0  0  0  0  0  0  0  0  0
  -23.4683   -6.6828   26.7500 F   0  0  0  0  0  0  0  0  0  0  0  0
  1  2  1  0  0  0  0
  1  7  2  0  0  0  0
  2  8  2  0  0  0  0
  3 12  2  0  0  0  0
  3 19  1  0  0  0  0
  4 13  1  0  0  0  0
  4 19  2  0  0  0  0
  5 10  2  0  0  0  0
  5 20  1  0  0  0  0
  6 11  1  0  0  0  0
  6 20  2  0  0  0  0
  7 22  1  0  0  0  0
  8 24  1  0  0  0  0
  9 14  2  0  0  0  0
  9 23  1  0  0  0  0
 10 26  1  0  0  0  0
 11 26  2  0  0  0  0
 12 27  1  0  0  0  0
 13 27  2  0  0  0  0
 14 28  1  0  0  0  0
 15 16  2  0  0  0  0
 15 29  1  0  0  0  0
 16 30  1  0  0  0  0
 17 25  1  0  0  0  0
 17 28  2  0  0  0  0
 18 30  2  0  0  0  0
 18 31  1  0  0  0  0
 19 32  1  0  0  0  0
 20 35  1  0  0  0  0
 21 32  1  0  0  0  0
 21 33  2  0  0  0  0
 21 36  1  0  0  0  0
 22 24  2  0  0  0  0
 22 41  1  0  0  0  0
 23 25  2  0  0  0  0
 23 42  1  0  0  0  0
 24 50  1  0  0  0  0
 25 43  1  0  0  0  0
 26 69  1  0  0  0  0
 27 79  1  0  0  0  0
 28 80  1  0  0  0  0
 29 31  2  0  0  0  0
 29 79  1  0  0  0  0
 30 81  1  0  0  0  0
 31 82  1  0  0  0  0
 32 62  2  0  0  0  0
 33 64  1  0  0  0  0
 33 67  1  0  0  0  0
 34 58  1  0  0  0  0
 34 63  2  0  0  0  0
 35 63  1  0  0  0  0
 35 72  2  0  0  0  0
 36 68  1  0  0  0  0
 36 74  2  0  0  0  0
 37 51  1  0  0  0  0
 37 70  1  0  0  0  0
 37 75  2  0  0  0  0
 38 59  1  0  0  0  0
 38 65  1  0  0  0  0
 38 76  2  0  0  0  0
 39 60  1  0  0  0  0
 39 71  1  0  0  0  0
 39 77  2  0  0  0  0
 40 66  1  0  0  0  0
 40 69  1  0  0  0  0
 40 78  2  0  0  0  0
 41 44  1  0  0  0  0
 42 51  1  0  0  0  0
 43 65  1  0  0  0  0
 44 46  1  0  0  0  0
 45 47  1  0  0  0  0
 45 48  1  0  0  0  0
 46 50  1  0  0  0  0
 47 52  1  0  0  0  0
 48 66  1  0  0  0  0
 49 52  1  0  0  0  0
 49 66  1  0  0  0  0
 50 70  1  0  0  0  0
 51 65  1  0  0  0  0
 52 64  1  0  0  0  0
 53 60  1  0  0  0  0
 54 61  1  0  0  0  0
 55 61  1  0  0  0  0
 56 61  1  0  0  0  0
 57 73  1  0  0  0  0
 58 80  1  0  0  0  0
 59 61  1  0  0  0  0
 59 71  1  0  0  0  0
 60 73  1  0  0  0  0
 62 64  1  0  0  0  0
M  CHG  2  72   1  73   1
M  ISO  4  40 100  58 101  69 100  80 101
M  END
> <Batch ID>
0079

> <Smiles>
CNC(C)C(=O)NC(C(=O)N1Cc2cc([101O:1][101CH:1]=CNC(=N)c3ccc([100NH:0][100C:0](=O)N4CCCC(n5nc(-c6ccc(Oc7ccc(F)cc7F)cc6)c(C(N)=O)c5N)C4)cc3)ccc2CC1C(=O)NC1CCCc2ccccc21)C(C)(C)C

> <Shape>
0.285

> <Color>
0.107

> <Negative vol penalty>
0.000

$$$$

  -OEChem-04042323593D

 90 99  0     1  0  0  0  0  0999 V2000
  -29.2854  -33.8538   24.9172 C   0  0  0  0  0  0  0  0  0  0  0  0
  -29.0664  -32.4977   24.6968 C   0  0  0  0  0  0  0  0  0  0  0  0
  -24.8007   -8.8499   21.7088 C   0  0  0  0  0  0  0  0  0  0  0  0
  -23.2533  -10.0101   20.2608 C   0  0  0  0  0  0  0  0  0  0  0  0
  -28.2078  -34.7382   24.9397 C   0  0  0  0  0  0  0  0  0  0  0  0
  -27.7694  -32.0251   24.4998 C   0  0  0  0  0  0  0  0  0  0  0  0
  -27.4585  -28.7520   20.6482 C   0  0  0  0  0  0  0  0  0  0  0  0
  -24.2441  -18.4222   16.7895 C   0  0  0  0  0  0  0  0  0  0  0  0
  -25.0093  -17.3022   17.1142 C   0  0  0  0  0  0  0  0  0  0  0  0
  -23.7328   -8.3778   22.4718 C   0  0  0  0  0  0  0  0  0  0  0  0
  -22.1854   -9.5381   21.0239 C   0  0  0  0  0  0  0  0  0  0  0  0
  -27.8902  -27.4476   20.8847 C   0  0  0  0  0  0  0  0  0  0  0  0
  -21.4043   -5.9356   22.2556 C   0  0  0  0  0  0  0  0  0  0  0  0
  -21.4140   -4.5896   22.6214 C   0  0  0  0  0  0  0  0  0  0  0  0
  -25.5999  -26.7494   21.1784 C   0  0  0  0  0  0  0  0  0  0  0  0
  -26.5225  -18.7014   18.3749 C   0  0  0  0  0  0  0  0  0  0  0  0
  -21.4010   -5.2232   24.9529 C   0  0  0  0  0  0  0  0  0  0  0  0
  -24.5610   -9.6661   20.6033 C   0  0  0  0  0  0  0  0  0  0  0  0
  -26.2477   -9.5346   18.6940 C   0  0  0  0  0  0  0  0  0  0  0  0
  -26.8979  -34.2776   24.7332 C   0  0  0  0  0  0  0  0  0  0  0  0
  -26.0927  -29.0676   20.6858 C   0  0  0  0  0  0  0  0  0  0  0  0
  -26.6731  -32.9040   24.5208 C   0  0  0  0  0  0  0  0  0  0  0  0
  -25.1533  -28.0580   20.9395 C   0  0  0  0  0  0  0  0  0  0  0  0
  -24.6181  -19.6820   17.2574 C   0  0  0  0  0  0  0  0  0  0  0  0
  -26.1485  -17.4417   17.9069 C   0  0  0  0  0  0  0  0  0  0  0  0
  -25.7573  -19.8215   18.0501 C   0  0  0  0  0  0  0  0  0  0  0  0
  -22.4251   -8.7219   22.1294 C   0  0  0  0  0  0  0  0  0  0  0  0
  -26.9610  -26.4466   21.1527 C   0  0  0  0  0  0  0  0  0  0  0  0
  -21.3931   -6.9254   23.2384 C   0  0  0  0  0  0  0  0  0  0  0  0
  -21.4123   -4.2334   23.9700 C   0  0  0  0  0  0  0  0  0  0  0  0
  -21.3914   -6.5692   24.5870 C   0  0  0  0  0  0  0  0  0  0  0  0
  -25.6638  -10.1545   19.8150 C   0  0  0  0  0  0  0  0  0  0  0  0
  -27.2491  -10.3926   18.3099 C   0  0  0  0  0  0  0  0  0  0  0  0
  -22.2177  -22.4245   16.9870 C   0  0  0  0  0  0  0  0  0  0  0  0
  -23.0234  -22.6286   15.7977 C   0  0  0  0  0  0  0  0  0  0  0  0
  -21.1743  -23.1530   17.4031 C   0  0  0  0  0  0  0  0  0  0  0  0
  -22.8876  -23.5864   14.8721 C   0  0  0  0  0  0  0  0  0  0  0  0
  -25.9146   -8.2942   18.0567 C   0  0  0  0  0  0  0  0  0  0  0  0
  -24.2810  -30.9814   22.4631 C   0  0  0  0  0  0  0  0  0  0  0  0
  -21.9711  -30.1000   20.3630 C   0  0  0  0  0  0  0  0  0  0  0  0
  -27.2605  -21.3849   19.3304 C   0  0  0  0  0  0  0  0  0  0  0  0
  -20.8228  -27.8038   18.1146 C   0  0  0  0  0  0  0  0  0  0  0  0
  -28.0837  -16.2676   19.0126 C   0  0  0  0  0  0  0  0  0  0  0  0
  -25.7603  -35.2645   24.8134 C   0  0  0  0  0  0  0  0  0  0  0  0
  -25.6415  -30.4742   20.4021 C   0  0  0  0  0  0  0  0  0  0  0  0
  -23.6743  -28.3408   20.9712 C   0  0  0  0  0  0  0  0  0  0  0  0
  -22.7358  -21.2272   17.7308 C   0  0  0  0  0  0  0  0  0  0  0  0
  -24.0862  -21.5692   15.7377 C   0  0  0  0  0  0  0  0  0  0  0  0
  -24.4545  -34.7382   24.2232 C   0  0  0  0  0  0  0  0  0  0  0  0
  -30.2629  -13.6639   20.0847 C   0  0  0  0  0  0  0  0  0  0  0  0
  -24.1769  -33.3227   24.7191 C   0  0  0  0  0  0  0  0  0  0  0  0
  -29.3857  -12.4111   20.0293 C   0  0  0  0  0  0  0  0  0  0  0  0
  -29.4738  -14.8890   20.5431 C   0  0  0  0  0  0  0  0  0  0  0  0
  -27.3681  -13.9031   19.7288 C   0  0  0  0  0  0  0  0  0  0  0  0
  -25.2832  -32.3567   24.2783 C   0  0  1  0  0  0  0  0  0  0  0  0
  -24.2617  -30.7857   20.9735 C   0  0  1  0  0  0  0  0  0  0  0  0
  -28.1036  -12.6567   19.2099 C   0  0  2  0  0  0  0  0  0  0  0  0
  -18.8870  -27.3404   16.5865 C   0  0  0  0  0  0  0  0  0  0  0  0
  -20.2738  -29.2855   22.7642 C   0  0  0  0  0  0  0  0  0  0  0  0
  -18.8098  -27.9886   21.2012 C   0  0  0  0  0  0  0  0  0  0  0  0
  -19.0176  -30.4617   20.9496 C   0  0  0  0  0  0  0  0  0  0  0  0
  -22.5597  -27.8237   15.7184 C   0  0  0  0  0  0  0  0  0  0  0  0
  -27.3214  -22.8770   19.6261 C   0  0  0  0  0  0  0  0  0  0  0  0
  -28.5154  -23.2553   20.4956 C   0  0  0  0  0  0  0  0  0  0  0  0
  -28.5816  -24.7562   20.7378 C   0  0  0  0  0  0  0  0  0  1  0  0
  -20.9595  -28.9816   20.2937 C   0  0  1  0  0  0  0  0  0  0  0  0
  -20.2708  -27.9591   16.7090 C   0  0  2  0  0  0  0  0  0  0  0  0
  -19.7931  -29.1741   21.3036 C   0  0  0  0  0  0  0  0  0  0  0  0
  -26.2459  -11.3164   20.1232 N   0  0  0  0  0  0  0  0  0  0  0  0
  -27.2060  -11.4335   19.1902 N   0  0  0  0  0  0  0  0  0  0  0  0
  -23.8288  -20.8028   16.9151 N   0  0  0  0  0  0  0  0  0  0  0  0
  -23.2832  -29.7328   20.6937 N   0  0  0  0  0  0  0  0  0  0  0  0
  -28.2756  -15.0612   19.7188 N   0  0  0  0  0  0  0  0  0  0  0  0
  -28.1535  -10.3507   17.3086 N   0  0  0  0  0  0  0  0  0  0  0  0
  -24.8579   -7.5367   18.5802 N   0  0  0  0  0  0  0  0  0  0  0  0
  -26.1564  -21.0895   18.5356 N   0  0  0  0  0  0  0  0  0  0  0  0
  -26.9254  -16.3037   18.2370 N   0  0  0  0  0  0  0  0  0  0  0  0
  -25.1158  -31.9980   22.8862 N   0  0  0  0  0  0  0  0  0  0  0  0
  -20.5360  -28.9002   18.9000 N   0  0  0  0  0  0  0  0  0  0  0  0
  -21.1707  -27.2967   15.7230 N   0  3  0  0  0  0  0  0  0  0  0  0
  -26.5462   -7.8622   17.0628 O   0  0  0  0  0  0  0  0  0  0  0  0
  -23.5884  -30.2642   23.1757 O   0  0  0  0  0  0  0  0  0  0  0  0
  -21.6119  -31.2559   20.1253 O   0  0  0  0  0  0  0  0  0  0  0  0
  -28.0988  -20.6007   19.7623 O   0  0  0  0  0  0  0  0  0  0  0  0
  -21.4431  -26.8078   18.4804 O   0  0  0  0  0  0  0  0  0  0  0  0
  -28.9015  -17.1895   19.0688 O   0  0  0  0  0  0  0  0  0  0  0  0
  -21.3828   -8.2613   22.8736 O   0  0  0  0  0  0  0  0  0  0  0  0
  -27.3797  -25.1727   21.3846 O   0  0  0  0  0  0  0  0  0  1  0  0
  -21.4200   -2.9408   24.3212 F   0  0  0  0  0  0  0  0  0  0  0  0
  -21.3795   -7.5156   25.5357 F   0  0  0  0  0  0  0  0  0  0  0  0
  1  2  1  0  0  0  0
  1  5  2  0  0  0  0
  2  6  2  0  0  0  0
  3 10  2  0  0  0  0
  3 18  1  0  0  0  0
  4 11  1  0  0  0  0
  4 18  2  0  0  0  0
  5 20  1  0  0  0  0
  6 22  1  0  0  0  0
  7 12  2  0  0  0  0
  7 21  1  0  0  0  0
  8  9  2  0  0  0  0
  8 24  1  0  0  0  0
  9 25  1  0  0  0  0
 10 27  1  0  0  0  0
 11 27  2  0  0  0  0
 12 28  1  0  0  0  0
 13 14  2  0  0  0  0
 13 29  1  0  0  0  0
 14 30  1  0  0  0  0
 15 23  1  0  0  0  0
 15 28  2  0  0  0  0
 16 25  2  0  0  0  0
 16 26  1  0  0  0  0
 17 30  2  0  0  0  0
 17 31  1  0  0  0  0
 18 32  1  0  0  0  0
 19 32  1  0  0  0  0
 19 33  2  0  0  0  0
 19 38  1  0  0  0  0
 20 22  2  0  0  0  0
 20 44  1  0  0  0  0
 21 23  2  0  0  0  0
 21 45  1  0  0  0  0
 22 55  1  0  0  0  0
 23 46  1  0  0  0  0
 24 26  2  0  0  0  0
 24 71  1  0  0  0  0
 25 77  1  0  0  0  0
 26 76  1  0  0  0  0
 27 87  1  0  0  0  0
 28 88  1  0  0  0  0
 29 31  2  0  0  0  0
 29 87  1  0  0  0  0
 30 89  1  0  0  0  0
 31 90  1  0  0  0  0
 32 69  2  0  0  0  0
 33 70  1  0  0  0  0
 33 74  1  0  0  0  0
 34 35  1  0  0  0  0
 34 36  2  0  0  0  0
 34 47  1  0  0  0  0
 35 37  2  0  0  0  0
 35 48  1  0  0  0  0
 38 75  1  0  0  0  0
 38 81  2  0  0  0  0
 39 56  1  0  0  0  0
 39 78  1  0  0  0  0
 39 82  2  0  0  0  0
 40 66  1  0  0  0  0
 40 72  1  0  0  0  0
 40 83  2  0  0  0  0
 41 63  1  0  0  0  0
 41 76  1  0  0  0  0
 41 84  2  0  0  0  0
 42 67  1  0  0  0  0
 42 79  1  0  0  0  0
 42 85  2  0  0  0  0
 43 73  1  0  0  0  0
 43 77  1  0  0  0  0
 43 86  2  0  0  0  0
 44 49  1  0  0  0  0
 45 56  1  0  0  0  0
 46 72  1  0  0  0  0
 47 71  1  0  0  0  0
 48 71  1  0  0  0  0
 49 51  1  0  0  0  0
 50 52  1  0  0  0  0
 50 53  1  0  0  0  0
 51 55  1  0  0  0  0
 52 57  1  0  0  0  0
 53 73  1  0  0  0  0
 54 57  1  0  0  0  0
 54 73  1  0  0  0  0
 55 78  1  0  0  0  0
 56 72  1  0  0  0  0
 57 70  1  0  0  0  0
 58 67  1  0  0  0  0
 59 68  1  0  0  0  0
 60 68  1  0  0  0  0
 61 68  1  0  0  0  0
 62 80  1  0  0  0  0
 63 64  1  0  0  0  0
 64 65  1  0  0  0  0
 65 88  1  0  0  0  0
 66 68  1  0  0  0  0
 66 79  1  0  0  0  0
 67 80  1  0  0  0  0
 69 70  1  0  0  0  0
M  CHG  1  80   1
M  ISO  4  43 100  65 101  77 100  88 101
M  END
> <Batch ID>
0079

> <Smiles>
C=C1CN(c2ccc([100NH:0][100C:0](=O)N3CCCC(n4nc(-c5ccc(Oc6ccc(F)cc6F)cc5)c(C(N)=O)c4N)C3)cc2NC(=O)CC[101CH2:1][101O:1]c2ccc3c(c2)CN(C(=O)C(NC(=O)C(C)NC)C(C)(C)C)C(C(=O)NC2CCCc4ccccc42)C3)CC1=C

> <Shape>
0.277

> <Color>
0.075

> <Negative vol penalty>
0.000

$$$$

  -OEChem-04042323593D

 85 93  0     1  0  0  0  0  0999 V2000
  -28.5172  -31.3802   27.3946 C   0  0  0  0  0  0  0  0  0  0  0  0
  -28.4370  -30.3737   26.4376 C   0  0  0  0  0  0  0  0  0  0  0  0
  -31.3452  -18.6964   21.7741 C   0  0  0  0  0  0  0  0  0  0  0  0
  -23.5230  -10.1285   22.0730 C   0  0  0  0  0  0  0  0  0  0  0  0
  -23.0510  -12.4946   22.1984 C   0  0  0  0  0  0  0  0  0  0  0  0
  -30.3327  -19.6554   21.7988 C   0  0  0  0  0  0  0  0  0  0  0  0
  -27.3662  -32.0647   27.7827 C   0  0  0  0  0  0  0  0  0  0  0  0
  -27.2056  -30.0504   25.8688 C   0  0  0  0  0  0  0  0  0  0  0  0
  -27.4747  -29.4865   20.8434 C   0  0  0  0  0  0  0  0  0  0  0  0
  -31.0886  -17.4244   21.2623 C   0  0  0  0  0  0  0  0  0  0  0  0
  -22.6643   -9.9002   23.1482 C   0  0  0  0  0  0  0  0  0  0  0  0
  -22.1923  -12.2664   23.2736 C   0  0  0  0  0  0  0  0  0  0  0  0
  -28.0024  -28.2881   20.3646 C   0  0  0  0  0  0  0  0  0  0  0  0
  -19.3315   -9.6654   23.6681 C   0  0  0  0  0  0  0  0  0  0  0  0
  -18.4349   -8.6017   23.5671 C   0  0  0  0  0  0  0  0  0  0  0  0
  -28.8070  -18.0704   20.8002 C   0  0  0  0  0  0  0  0  0  0  0  0
  -25.7681  -27.4709   19.9653 C   0  0  0  0  0  0  0  0  0  0  0  0
  -19.4185   -7.5865   25.5264 C   0  0  0  0  0  0  0  0  0  0  0  0
  -23.7164  -11.4257   21.5981 C   0  0  0  0  0  0  0  0  0  0  0  0
  -29.0636  -19.3425   21.3119 C   0  0  0  0  0  0  0  0  0  0  0  0
  -24.2710  -11.6686   19.1200 C   0  0  0  0  0  0  0  0  0  0  0  0
  -26.1216  -31.7562   27.2114 C   0  0  0  0  0  0  0  0  0  0  0  0
  -26.0872  -29.6821   20.8971 C   0  0  0  0  0  0  0  0  0  0  0  0
  -26.0367  -30.7305   26.2506 C   0  0  0  0  0  0  0  0  0  0  0  0
  -25.2255  -28.6736   20.4429 C   0  0  0  0  0  0  0  0  0  0  0  0
  -29.8195  -17.1114   20.7754 C   0  0  0  0  0  0  0  0  0  0  0  0
  -21.9989  -10.9691   23.7485 C   0  0  0  0  0  0  0  0  0  0  0  0
  -27.1490  -27.2790   19.9281 C   0  0  0  0  0  0  0  0  0  0  0  0
  -20.2717   -9.6896   24.6982 C   0  0  0  0  0  0  0  0  0  0  0  0
  -18.4783   -7.5623   24.4962 C   0  0  0  0  0  0  0  0  0  0  0  0
  -20.3152   -8.6502   25.6274 C   0  0  0  0  0  0  0  0  0  0  0  0
  -24.6038  -11.6623   20.4878 C   0  0  0  0  0  0  0  0  0  0  0  0
  -25.4555  -11.9396   18.4796 C   0  0  0  0  0  0  0  0  0  0  0  0
  -27.3202  -24.9532   20.1069 C   0  0  0  0  0  0  0  0  0  1  0  0
  -27.9904  -20.3580   21.3372 C   0  0  0  0  0  0  0  0  0  0  0  0
  -23.0044  -11.4491   18.4850 C   0  0  0  0  0  0  0  0  0  0  0  0
  -27.7558  -23.7361   19.7480 C   0  0  0  0  0  0  0  0  0  0  0  0
  -27.2582  -22.6037   20.5827 C   0  0  0  0  0  0  0  0  0  0  0  0
  -23.9850  -30.2126   23.2216 C   0  0  0  0  0  0  0  0  0  0  0  0
  -21.9252  -30.5832   20.7432 C   0  0  0  0  0  0  0  0  0  0  0  0
  -21.1565  -29.9033   17.4884 C   0  0  0  0  0  0  0  0  0  0  0  0
  -30.4529  -14.7525   20.1585 C   0  0  0  0  0  0  0  0  0  0  0  0
  -24.8976  -32.4914   27.6973 C   0  0  0  0  0  0  0  0  0  0  0  0
  -25.5345  -30.9908   21.3914 C   0  0  0  0  0  0  0  0  0  0  0  0
  -23.7288  -28.8418   20.4608 C   0  0  0  0  0  0  0  0  0  0  0  0
  -23.6915  -32.3434   26.7734 C   0  0  0  0  0  0  0  0  0  0  0  0
  -30.1885  -11.4045   18.9760 C   0  0  0  0  0  0  0  0  0  0  0  0
  -23.5052  -30.8847   26.3680 C   0  0  0  0  0  0  0  0  0  0  0  0
  -28.6952  -11.0933   19.0993 C   0  0  0  0  0  0  0  0  0  0  0  0
  -30.6827  -12.2783   20.1274 C   0  0  0  0  0  0  0  0  0  0  0  0
  -28.4240  -13.2018   20.4660 C   0  0  0  0  0  0  0  0  0  0  0  0
  -24.7231  -30.3678   25.5926 C   0  0  1  0  0  0  0  0  0  0  0  0
  -24.0938  -30.8839   21.8817 C   0  0  1  0  0  0  0  0  0  0  0  0
  -27.8660  -12.3779   19.2939 C   0  0  2  0  0  0  0  0  0  0  0  0
  -28.6656  -23.4991   18.5822 C   0  0  0  0  0  0  0  0  0  0  0  0
  -19.3884  -30.3119   15.7552 C   0  0  0  0  0  0  0  0  0  0  0  0
  -20.1341  -28.5092   22.0848 C   0  0  0  0  0  0  0  0  0  0  0  0
  -18.9116  -28.2626   19.9139 C   0  0  0  0  0  0  0  0  0  0  0  0
  -18.9158  -30.4579   21.0985 C   0  0  0  0  0  0  0  0  0  0  0  0
  -23.0575  -31.3179   15.7154 C   0  0  0  0  0  0  0  0  0  0  0  0
  -21.0255  -29.6630   19.9541 C   0  0  1  0  0  0  0  0  0  0  0  0
  -20.6985  -30.8007   16.3529 C   0  0  2  0  0  0  0  0  0  0  0  0
  -19.7749  -29.2190   20.7642 C   0  0  0  0  0  0  0  0  0  0  0  0
  -25.8983  -11.9095   20.7047 N   0  0  0  0  0  0  0  0  0  0  0  0
  -26.3894  -12.0736   19.4645 N   0  0  0  0  0  0  0  0  0  0  0  0
  -23.2367  -30.1368   20.9590 N   0  0  0  0  0  0  0  0  0  0  0  0
  -29.8526  -13.4788   20.2489 N   0  0  0  0  0  0  0  0  0  0  0  0
  -25.7788  -12.0739   17.1759 N   0  0  0  0  0  0  0  0  0  0  0  0
  -21.8896  -11.1832   19.2918 N   0  0  0  0  0  0  0  0  0  0  0  0
  -29.5598  -15.8190   20.2558 N   0  0  0  0  0  0  0  0  0  0  0  0
  -28.1855  -21.4991   20.6589 N   0  0  0  0  0  0  0  0  0  0  0  0
  -24.6921  -30.8446   24.2266 N   0  0  0  0  0  0  0  0  0  0  0  0
  -20.7154  -30.3620   18.7117 N   0  0  0  0  0  0  0  0  0  0  0  0
  -26.8886  -20.0759   22.0322 N   0  3  0  0  0  0  0  0  0  0  0  0
  -21.7246  -30.8336   15.2727 N   0  3  0  0  0  0  0  0  0  0  0  0
  -22.8685  -11.4714   17.2381 O   0  0  0  0  0  0  0  0  0  0  0  0
  -26.1803  -22.5757   21.1575 O   0  0  0  0  0  0  0  0  0  0  0  0
  -23.3083  -29.1973   23.3355 O   0  0  0  0  0  0  0  0  0  0  0  0
  -21.4829  -31.6616   21.1469 O   0  0  0  0  0  0  0  0  0  0  0  0
  -21.8343  -28.8941   17.3080 O   0  0  0  0  0  0  0  0  0  0  0  0
  -31.6660  -14.8869   19.9787 O   0  0  0  0  0  0  0  0  0  0  0  0
  -21.1607  -10.7467   24.7976 O   0  0  0  0  0  0  0  0  0  0  0  0
  -27.6614  -26.1081   19.4608 O   0  0  0  0  0  0  0  0  0  1  0  0
  -17.6162   -6.5417   24.4000 F   0  0  0  0  0  0  0  0  0  0  0  0
  -21.2154   -8.6686   26.6199 F   0  0  0  0  0  0  0  0  0  0  0  0
  1  2  1  0  0  0  0
  1  7  2  0  0  0  0
  2  8  2  0  0  0  0
  3  6  2  0  0  0  0
  3 10  1  0  0  0  0
  4 11  2  0  0  0  0
  4 19  1  0  0  0  0
  5 12  1  0  0  0  0
  5 19  2  0  0  0  0
  6 20  1  0  0  0  0
  7 22  1  0  0  0  0
  8 24  1  0  0  0  0
  9 13  2  0  0  0  0
  9 23  1  0  0  0  0
 10 26  2  0  0  0  0
 11 27  1  0  0  0  0
 12 27  2  0  0  0  0
 13 28  1  0  0  0  0
 14 15  2  0  0  0  0
 14 29  1  0  0  0  0
 15 30  1  0  0  0  0
 16 20  2  0  0  0  0
 16 26  1  0  0  0  0
 17 25  1  0  0  0  0
 17 28  2  0  0  0  0
 18 30  2  0  0  0  0
 18 31  1  0  0  0  0
 19 32  1  0  0  0  0
 20 35  1  0  0  0  0
 21 32  1  0  0  0  0
 21 33  2  0  0  0  0
 21 36  1  0  0  0  0
 22 24  2  0  0  0  0
 22 43  1  0  0  0  0
 23 25  2  0  0  0  0
 23 44  1  0  0  0  0
 24 52  1  0  0  0  0
 25 45  1  0  0  0  0
 26 70  1  0  0  0  0
 27 82  1  0  0  0  0
 28 83  1  0  0  0  0
 29 31  2  0  0  0  0
 29 82  1  0  0  0  0
 30 84  1  0  0  0  0
 31 85  1  0  0  0  0
 32 64  2  0  0  0  0
 33 65  1  0  0  0  0
 33 68  1  0  0  0  0
 34 37  2  0  0  0  0
 34 83  1  0  0  0  0
 35 71  1  0  0  0  0
 35 74  2  0  0  0  0
 36 69  1  0  0  0  0
 36 76  2  0  0  0  0
 37 38  1  0  0  0  0
 37 55  1  0  0  0  0
 38 71  1  0  0  0  0
 38 77  2  0  0  0  0
 39 53  1  0  0  0  0
 39 72  1  0  0  0  0
 39 78  2  0  0  0  0
 40 61  1  0  0  0  0
 40 66  1  0  0  0  0
 40 79  2  0  0  0  0
 41 62  1  0  0  0  0
 41 73  1  0  0  0  0
 41 80  2  0  0  0  0
 42 67  1  0  0  0  0
 42 70  1  0  0  0  0
 42 81  2  0  0  0  0
 43 46  1  0  0  0  0
 44 53  1  0  0  0  0
 45 66  1  0  0  0  0
 46 48  1  0  0  0  0
 47 49  1  0  0  0  0
 47 50  1  0  0  0  0
 48 52  1  0  0  0  0
 49 54  1  0  0  0  0
 50 67  1  0  0  0  0
 51 54  1  0  0  0  0
 51 67  1  0  0  0  0
 52 72  1  0  0  0  0
 53 66  1  0  0  0  0
 54 65  1  0  0  0  0
 56 62  1  0  0  0  0
 57 63  1  0  0  0  0
 58 63  1  0  0  0  0
 59 63  1  0  0  0  0
 60 75  1  0  0  0  0
 61 63  1  0  0  0  0
 61 73  1  0  0  0  0
 62 75  1  0  0  0  0
 64 65  1  0  0  0  0
M  CHG  2  74   1  75   1
M  ISO  4  34 101  42 100  70 100  83 101
M  END
> <Batch ID>
0079

> <Smiles>
CNC(C)C(=O)NC(C(=O)N1Cc2cc([101O:1][101CH:1]=C(C)C(=O)NC(=N)c3cccc([100NH:0][100C:0](=O)N4CCCC(n5nc(-c6ccc(Oc7ccc(F)cc7F)cc6)c(C(N)=O)c5N)C4)c3)ccc2CC1C(=O)NC1CCCc2ccccc21)C(C)(C)C

> <Shape>
0.276

> <Color>
0.105

> <Negative vol penalty>
0.000

$$$$

  -OEChem-04042323593D

 84 92  0     1  0  0  0  0  0999 V2000
  -25.6431  -32.3854   26.1805 C   0  0  0  0  0  0  0  0  0  0  0  0
  -26.2468  -31.1827   25.8277 C   0  0  0  0  0  0  0  0  0  0  0  0
  -23.3598   -9.9717   21.8239 C   0  0  0  0  0  0  0  0  0  0  0  0
  -24.1279  -11.1620   23.7811 C   0  0  0  0  0  0  0  0  0  0  0  0
  -30.0494  -19.8515   20.8961 C   0  0  0  0  0  0  0  0  0  0  0  0
  -32.2936  -18.9776   20.7039 C   0  0  0  0  0  0  0  0  0  0  0  0
  -24.3424  -32.6607   25.7605 C   0  0  0  0  0  0  0  0  0  0  0  0
  -25.5497  -30.2541   25.0556 C   0  0  0  0  0  0  0  0  0  0  0  0
  -28.3764  -28.3131   21.3291 C   0  0  0  0  0  0  0  0  0  0  0  0
  -29.5331  -18.5975   20.5698 C   0  0  0  0  0  0  0  0  0  0  0  0
  -31.7773  -17.7235   20.3776 C   0  0  0  0  0  0  0  0  0  0  0  0
  -22.7141   -9.0441   22.6414 C   0  0  0  0  0  0  0  0  0  0  0  0
  -23.4821  -10.2344   24.5986 C   0  0  0  0  0  0  0  0  0  0  0  0
  -29.2955  -27.3238   21.6762 C   0  0  0  0  0  0  0  0  0  0  0  0
  -19.8482   -8.8669   24.4269 C   0  0  0  0  0  0  0  0  0  0  0  0
  -18.5471   -8.4974   24.0860 C   0  0  0  0  0  0  0  0  0  0  0  0
  -27.7627  -25.6336   20.8932 C   0  0  0  0  0  0  0  0  0  0  0  0
  -19.2576   -6.1987   23.8662 C   0  0  0  0  0  0  0  0  0  0  0  0
  -24.0668  -11.0306   22.3938 C   0  0  0  0  0  0  0  0  0  0  0  0
  -31.4297  -20.0416   20.9631 C   0  0  0  0  0  0  0  0  0  0  0  0
  -24.2001  -13.1842   21.0329 C   0  0  0  0  0  0  0  0  0  0  0  0
  -23.6325  -31.7391   24.9749 C   0  0  0  0  0  0  0  0  0  0  0  0
  -27.1371  -27.9689   20.7705 C   0  0  0  0  0  0  0  0  0  0  0  0
  -24.2378  -30.5167   24.6259 C   0  0  0  0  0  0  0  0  0  0  0  0
  -26.8307  -26.6206   20.5375 C   0  0  0  0  0  0  0  0  0  0  0  0
  -30.3970  -17.5335   20.3106 C   0  0  0  0  0  0  0  0  0  0  0  0
  -22.7753   -9.1755   24.0287 C   0  0  0  0  0  0  0  0  0  0  0  0
  -28.9875  -25.9837   21.4610 C   0  0  0  0  0  0  0  0  0  0  0  0
  -20.8540   -7.9024   24.4874 C   0  0  0  0  0  0  0  0  0  0  0  0
  -18.2518   -7.1633   23.8057 C   0  0  0  0  0  0  0  0  0  0  0  0
  -20.5587   -6.5683   24.2070 C   0  0  0  0  0  0  0  0  0  0  0  0
  -24.7345  -11.9888   21.5499 C   0  0  0  0  0  0  0  0  0  0  0  0
  -25.2254  -13.7298   20.2997 C   0  0  0  0  0  0  0  0  0  0  0  0
  -31.9856  -21.3916   21.3142 C   0  0  0  0  0  0  0  0  0  0  0  0
  -22.8937  -13.7507   21.2004 C   0  0  0  0  0  0  0  0  0  0  0  0
  -31.6923  -23.6321   21.2388 C   0  0  0  0  0  0  0  0  0  0  0  0
  -30.7515  -24.7016   20.7694 C   0  0  0  0  0  0  0  0  0  1  0  0
  -24.1029  -28.3443   21.6401 C   0  0  0  0  0  0  0  0  0  0  0  0
  -23.5139  -27.1125   18.6976 C   0  0  0  0  0  0  0  0  0  0  0  0
  -24.6084  -25.2204   16.0768 C   0  0  0  0  0  0  0  0  0  0  0  0
  -30.5884  -15.0986   19.6934 C   0  0  0  0  0  0  0  0  0  0  0  0
  -22.2116  -32.0607   24.5844 C   0  0  0  0  0  0  0  0  0  0  0  0
  -26.1676  -29.0494   20.3769 C   0  0  0  0  0  0  0  0  0  0  0  0
  -25.5222  -26.1996   19.9219 C   0  0  0  0  0  0  0  0  0  0  0  0
  -21.6774  -31.1846   23.4543 C   0  0  0  0  0  0  0  0  0  0  0  0
  -29.6637  -11.7603   18.8700 C   0  0  0  0  0  0  0  0  0  0  0  0
  -22.0069  -29.7181   23.7142 C   0  0  0  0  0  0  0  0  0  0  0  0
  -28.2549  -11.6205   19.4513 C   0  0  0  0  0  0  0  0  0  0  0  0
  -30.5629  -12.6147   19.7617 C   0  0  0  0  0  0  0  0  0  0  0  0
  -28.6099  -13.7934   20.6921 C   0  0  0  0  0  0  0  0  0  0  0  0
  -23.5231  -29.4947   23.7688 C   0  0  1  0  0  0  0  0  0  0  0  0
  -24.7265  -28.5563   20.2896 C   0  0  1  0  0  0  0  0  0  0  0  0
  -27.6487  -12.9949   19.7964 C   0  0  2  0  0  0  0  0  0  0  0  0
  -23.8899  -24.3636   13.8302 C   0  0  0  0  0  0  0  0  0  0  0  0
  -21.7411  -25.0357   20.0593 C   0  0  0  0  0  0  0  0  0  0  0  0
  -21.8298  -23.6822   17.9549 C   0  0  0  0  0  0  0  0  0  0  0  0
  -20.8157  -25.9611   17.9281 C   0  0  0  0  0  0  0  0  0  0  0  0
  -26.8174  -26.6317   14.7030 C   0  0  0  0  0  0  0  0  0  0  0  0
  -23.3239  -25.7230   18.1387 C   0  0  1  0  0  0  0  0  0  0  0  0
  -24.6068  -25.4754   14.5803 C   0  0  2  0  0  0  0  0  0  0  0  0
  -21.9516  -25.1080   18.5337 C   0  0  0  0  0  0  0  0  0  0  0  0
  -26.0008  -11.7863   21.1767 N   0  0  0  0  0  0  0  0  0  0  0  0
  -31.2214  -22.4235   20.9390 N   0  5  0  0  0  0  0  0  0  0  0  0
  -26.2707  -12.8617   20.4173 N   0  0  0  0  0  0  0  0  0  0  0  0
  -24.6047  -27.2926   19.5599 N   0  0  0  0  0  0  0  0  0  0  0  0
  -29.9257  -13.9030   20.0431 N   0  0  0  0  0  0  0  0  0  0  0  0
  -25.3257  -14.8626   19.5723 N   0  0  0  0  0  0  0  0  0  0  0  0
  -21.9613  -13.0593   21.9859 N   0  0  0  0  0  0  0  0  0  0  0  0
  -29.8714  -16.2600   19.9794 N   0  0  0  0  0  0  0  0  0  0  0  0
  -24.0796  -29.4758   22.4330 N   0  0  0  0  0  0  0  0  0  0  0  0
  -23.5393  -25.8289   16.6997 N   0  0  0  0  0  0  0  0  0  0  0  0
  -26.0036  -25.5631   14.0683 N   0  3  0  0  0  0  0  0  0  0  0  0
  -33.0686  -21.4186   21.8965 O   0  0  0  0  0  0  0  0  0  0  0  0
  -22.5577  -14.8297   20.6559 O   0  0  0  0  0  0  0  0  0  0  0  0
  -32.7191  -24.0147   21.7856 O   0  0  0  0  0  0  0  0  0  0  0  0
  -30.8337  -25.1755   19.6526 O   0  0  0  0  0  0  0  0  0  0  0  0
  -23.6732  -27.2365   21.9400 O   0  0  0  0  0  0  0  0  0  0  0  0
  -22.7279  -28.0068   18.3752 O   0  0  0  0  0  0  0  0  0  0  0  0
  -25.4696  -24.5454   16.6365 O   0  0  0  0  0  0  0  0  0  0  0  0
  -31.6975  -15.0918   19.1533 O   0  0  0  0  0  0  0  0  0  0  0  0
  -22.1451   -8.2707   24.8267 O   0  0  0  0  0  0  0  0  0  0  0  0
  -29.8825  -25.0160   21.7995 O   0  0  0  0  0  0  0  0  0  1  0  0
  -17.0020   -6.8084   23.4798 F   0  0  0  0  0  0  0  0  0  0  0  0
  -21.5205   -5.6369   24.2647 F   0  0  0  0  0  0  0  0  0  0  0  0
  1  2  1  0  0  0  0
  1  7  2  0  0  0  0
  2  8  2  0  0  0  0
  3 12  2  0  0  0  0
  3 19  1  0  0  0  0
  4 13  1  0  0  0  0
  4 19  2  0  0  0  0
  5 10  2  0  0  0  0
  5 20  1  0  0  0  0
  6 11  1  0  0  0  0
  6 20  2  0  0  0  0
  7 22  1  0  0  0  0
  8 24  1  0  0  0  0
  9 14  2  0  0  0  0
  9 23  1  0  0  0  0
 10 26  1  0  0  0  0
 11 26  2  0  0  0  0
 12 27  1  0  0  0  0
 13 27  2  0  0  0  0
 14 28  1  0  0  0  0
 15 16  2  0  0  0  0
 15 29  1  0  0  0  0
 16 30  1  0  0  0  0
 17 25  1  0  0  0  0
 17 28  2  0  0  0  0
 18 30  2  0  0  0  0
 18 31  1  0  0  0  0
 19 32  1  0  0  0  0
 20 34  1  0  0  0  0
 21 32  1  0  0  0  0
 21 33  2  0  0  0  0
 21 35  1  0  0  0  0
 22 24  2  0  0  0  0
 22 42  1  0  0  0  0
 23 25  2  0  0  0  0
 23 43  1  0  0  0  0
 24 51  1  0  0  0  0
 25 44  1  0  0  0  0
 26 69  1  0  0  0  0
 27 81  1  0  0  0  0
 28 82  1  0  0  0  0
 29 31  2  0  0  0  0
 29 81  1  0  0  0  0
 30 83  1  0  0  0  0
 31 84  1  0  0  0  0
 32 62  2  0  0  0  0
 33 64  1  0  0  0  0
 33 67  1  0  0  0  0
 34 63  1  0  0  0  0
 34 73  2  0  0  0  0
 35 68  1  0  0  0  0
 35 74  2  0  0  0  0
 36 37  1  0  0  0  0
 36 63  1  0  0  0  0
 36 75  2  0  0  0  0
 37 76  2  0  0  0  0
 37 82  1  0  0  0  0
 38 52  1  0  0  0  0
 38 70  1  0  0  0  0
 38 77  2  0  0  0  0
 39 59  1  0  0  0  0
 39 65  1  0  0  0  0
 39 78  2  0  0  0  0
 40 60  1  0  0  0  0
 40 71  1  0  0  0  0
 40 79  2  0  0  0  0
 41 66  1  0  0  0  0
 41 69  1  0  0  0  0
 41 80  2  0  0  0  0
 42 45  1  0  0  0  0
 43 52  1  0  0  0  0
 44 65  1  0  0  0  0
 45 47  1  0  0  0  0
 46 48  1  0  0  0  0
 46 49  1  0  0  0  0
 47 51  1  0  0  0  0
 48 53  1  0  0  0  0
 49 66  1  0  0  0  0
 50 53  1  0  0  0  0
 50 66  1  0  0  0  0
 51 70  1  0  0  0  0
 52 65  1  0  0  0  0
 53 64  1  0  0  0  0
 54 60  1  0  0  0  0
 55 61  1  0  0  0  0
 56 61  1  0  0  0  0
 57 61  1  0  0  0  0
 58 72  1  0  0  0  0
 59 61  1  0  0  0  0
 59 71  1  0  0  0  0
 60 72  1  0  0  0  0
 62 64  1  0  0  0  0
M  CHG  2  63  -1  72   1
M  ISO  4  37 101  41 100  69 100  82 101
M  END
> <Batch ID>
0079

> <Smiles>
CNC(C)C(=O)NC(C(=O)N1Cc2cc([101O:1][101C:1](=O)C(=O)NC(=O)c3ccc([100NH:0][100C:0](=O)N4CCCC(n5nc(-c6ccc(Oc7ccc(F)cc7F)cc6)c(C(N)=O)c5N)C4)cc3)ccc2CC1C(=O)NC1CCCc2ccccc21)C(C)(C)C

> <Shape>
0.254

> <Color>
0.146

> <Negative vol penalty>
0.000

$$$$

  -OEChem-04042323593D

 85 94  0     1  0  0  0  0  0999 V2000
  -18.8815  -30.5524   15.2549 C   0  0  0  0  0  0  0  0  0  0  0  0
  -19.9190  -29.6766   15.5579 C   0  0  0  0  0  0  0  0  0  0  0  0
  -23.2546  -10.7887   21.1899 C   0  0  0  0  0  0  0  0  0  0  0  0
  -24.8258   -9.0147   21.6603 C   0  0  0  0  0  0  0  0  0  0  0  0
  -19.0135  -31.9116   15.5363 C   0  0  0  0  0  0  0  0  0  0  0  0
  -21.0897  -30.1596   16.1416 C   0  0  0  0  0  0  0  0  0  0  0  0
  -24.6165  -27.2859   20.2415 C   0  0  0  0  0  0  0  0  0  0  0  0
  -28.6445  -20.4717   20.0664 C   0  0  0  0  0  0  0  0  0  0  0  0
  -29.1811  -20.5157   17.7111 C   0  0  0  0  0  0  0  0  0  0  0  0
  -28.7153  -19.0787   20.0565 C   0  0  0  0  0  0  0  0  0  0  0  0
  -29.2520  -19.1226   17.7013 C   0  0  0  0  0  0  0  0  0  0  0  0
  -22.2078   -9.8672   21.2110 C   0  0  0  0  0  0  0  0  0  0  0  0
  -23.7789   -8.0931   21.6814 C   0  0  0  0  0  0  0  0  0  0  0  0
  -25.7984  -26.5573   20.1152 C   0  0  0  0  0  0  0  0  0  0  0  0
  -21.3574   -7.1256   23.8311 C   0  0  0  0  0  0  0  0  0  0  0  0
  -21.3373   -6.1937   24.8687 C   0  0  0  0  0  0  0  0  0  0  0  0
  -27.0676  -28.5303   20.6769 C   0  0  0  0  0  0  0  0  0  0  0  0
  -21.4581   -4.3973   23.2576 C   0  0  0  0  0  0  0  0  0  0  0  0
  -24.5637  -10.3624   21.4145 C   0  0  0  0  0  0  0  0  0  0  0  0
  -26.1523  -12.0505   22.4795 C   0  0  0  0  0  0  0  0  0  0  0  0
  -20.1825  -32.4101   16.1326 C   0  0  0  0  0  0  0  0  0  0  0  0
  -24.6518  -28.6472   20.5763 C   0  0  0  0  0  0  0  0  0  0  0  0
  -21.2380  -31.5269   16.4300 C   0  0  0  0  0  0  0  0  0  0  0  0
  -25.8846  -29.2733   20.8094 C   0  0  0  0  0  0  0  0  0  0  0  0
  -28.8774  -21.1902   18.8937 C   0  0  0  0  0  0  0  0  0  0  0  0
  -29.0191  -18.4041   18.8740 C   0  0  0  0  0  0  0  0  0  0  0  0
  -22.4699   -8.5194   21.4568 C   0  0  0  0  0  0  0  0  0  0  0  0
  -27.0243  -27.1802   20.3301 C   0  0  0  0  0  0  0  0  0  0  0  0
  -21.4278   -6.6935   22.5067 C   0  0  0  0  0  0  0  0  0  0  0  0
  -21.3876   -4.8295   24.5819 C   0  0  0  0  0  0  0  0  0  0  0  0
  -21.4782   -5.3293   22.2199 C   0  0  0  0  0  0  0  0  0  0  0  0
  -25.6456  -11.3138   21.3922 C   0  0  0  0  0  0  0  0  0  0  0  0
  -27.1661  -12.8044   21.9408 C   0  0  0  0  0  0  0  0  0  0  0  0
  -28.6061  -24.5545   18.9137 C   0  0  0  0  0  0  0  0  0  0  0  0
  -28.5384  -23.4610   19.8839 C   0  0  0  0  0  0  0  0  0  0  0  0
  -25.7431  -12.0531   23.8537 C   0  0  0  0  0  0  0  0  0  0  0  0
  -28.4563  -25.8975   18.9978 C   0  0  0  0  0  0  0  0  0  1  0  0
  -23.7369  -31.3338   19.1450 C   0  0  0  0  0  0  0  0  0  0  0  0
  -24.5722  -32.6696   21.9805 C   0  0  0  0  0  0  0  0  0  0  0  0
  -26.4231  -32.4753   24.8411 C   0  0  0  0  0  0  0  0  0  0  0  0
  -28.7745  -16.2203   17.7052 C   0  0  0  0  0  0  0  0  0  0  0  0
  -20.2979  -33.8942   16.3746 C   0  0  0  0  0  0  0  0  0  0  0  0
  -23.3667  -29.4125   20.7349 C   0  0  0  0  0  0  0  0  0  0  0  0
  -25.9759  -30.7275   21.1909 C   0  0  0  0  0  0  0  0  0  0  0  0
  -28.9024  -23.5406   17.8326 C   0  0  0  0  0  0  0  0  0  0  0  0
  -21.4219  -34.2688   17.3372 C   0  0  0  0  0  0  0  0  0  0  0  0
  -29.4016  -12.5961   17.4183 C   0  0  0  0  0  0  0  0  0  0  0  0
  -22.7043  -33.5265   16.9752 C   0  0  0  0  0  0  0  0  0  0  0  0
  -28.4690  -12.0046   18.4740 C   0  0  0  0  0  0  0  0  0  0  0  0
  -28.8534  -13.8990   16.8438 C   0  0  0  0  0  0  0  0  0  0  0  0
  -27.6008  -14.3324   18.9351 C   0  0  0  0  0  0  0  0  0  0  0  0
  -22.5135  -32.0090   17.0863 C   0  0  1  0  0  0  0  0  0  0  0  0
  -23.5452  -30.9193   20.5765 C   0  0  1  0  0  0  0  0  0  0  0  0
  -28.1463  -13.0414   19.5639 C   0  0  1  0  0  0  0  0  0  0  0  0
  -28.5742  -26.8354   17.8386 C   0  0  0  0  0  0  0  0  0  0  0  0
  -26.9242  -33.7355   26.9526 C   0  0  0  0  0  0  0  0  0  0  0  0
  -26.3481  -34.5904   20.4098 C   0  0  0  0  0  0  0  0  0  0  0  0
  -27.5108  -35.1578   22.5532 C   0  0  0  0  0  0  0  0  0  0  0  0
  -25.0784  -35.6439   22.2892 C   0  0  0  0  0  0  0  0  0  0  0  0
  -29.7356  -16.2858   19.9947 C   0  0  0  0  0  0  0  0  0  0  0  0
  -25.3845  -30.2814   26.5344 C   0  0  0  0  0  0  0  0  0  0  0  0
  -25.8418  -33.2486   22.5567 C   0  0  1  0  0  0  0  0  0  0  0  0
  -26.0492  -32.6775   26.2985 C   0  0  2  0  0  0  0  0  0  0  0  0
  -26.1935  -34.6332   21.9432 C   0  0  0  0  0  0  0  0  0  0  0  0
  -26.2848  -11.5760   20.2491 N   0  0  0  0  0  0  0  0  0  0  0  0
  -27.2034  -12.4861   20.6151 N   0  0  0  0  0  0  0  0  0  0  0  0
  -28.8072  -22.5640   18.9031 N   0  0  0  0  0  0  0  0  0  0  0  0
  -24.6918  -31.4347   21.3274 N   0  0  0  0  0  0  0  0  0  0  0  0
  -28.5122  -14.8497   17.9027 N   0  0  0  0  0  0  0  0  0  0  0  0
  -28.0204  -13.7020   22.4765 N   0  0  0  0  0  0  0  0  0  0  0  0
  -24.6846  -11.2184   24.2372 N   0  0  0  0  0  0  0  0  0  0  0  0
  -22.5584  -31.5941   18.4720 N   0  0  0  0  0  0  0  0  0  0  0  0
  -25.6627  -33.2646   24.0045 N   0  0  0  0  0  0  0  0  0  0  0  0
  -29.0925  -16.9622   18.8634 N   0  0  0  0  0  0  0  0  0  0  0  0
  -26.2071  -31.4034   27.0553 N   0  3  0  0  0  0  0  0  0  0  0  0
  -28.3186  -23.3802   21.0745 O   0  0  0  0  0  0  0  0  0  0  0  0
  -26.2889  -12.7865   24.7127 O   0  0  0  0  0  0  0  0  0  0  0  0
  -24.8701  -31.4130   18.6855 O   0  0  0  0  0  0  0  0  0  0  0  0
  -23.5122  -33.2867   22.1114 O   0  0  0  0  0  0  0  0  0  0  0  0
  -27.3043  -31.6979   24.4812 O   0  0  0  0  0  0  0  0  0  0  0  0
  -28.7552  -16.7327   16.5798 O   0  0  0  0  0  0  0  0  0  0  0  0
  -21.4485   -7.6200   21.4777 O   0  0  0  0  0  0  0  0  0  0  0  0
  -28.1795  -26.4715   20.2068 O   0  0  0  0  0  0  0  0  0  1  0  0
  -21.3699   -3.9347   25.5785 F   0  0  0  0  0  0  0  0  0  0  0  0
  -21.5471   -4.9082   20.9496 F   0  0  0  0  0  0  0  0  0  0  0  0
  1  2  1  0  0  0  0
  1  5  2  0  0  0  0
  2  6  2  0  0  0  0
  3 12  2  0  0  0  0
  3 19  1  0  0  0  0
  4 13  1  0  0  0  0
  4 19  2  0  0  0  0
  5 21  1  0  0  0  0
  6 23  1  0  0  0  0
  7 14  2  0  0  0  0
  7 22  1  0  0  0  0
  8 10  2  0  0  0  0
  8 25  1  0  0  0  0
  9 11  1  0  0  0  0
  9 25  2  0  0  0  0
 10 26  1  0  0  0  0
 11 26  2  0  0  0  0
 12 27  1  0  0  0  0
 13 27  2  0  0  0  0
 14 28  1  0  0  0  0
 15 16  2  0  0  0  0
 15 29  1  0  0  0  0
 16 30  1  0  0  0  0
 17 24  1  0  0  0  0
 17 28  2  0  0  0  0
 18 30  2  0  0  0  0
 18 31  1  0  0  0  0
 19 32  1  0  0  0  0
 20 32  1  0  0  0  0
 20 33  2  0  0  0  0
 20 36  1  0  0  0  0
 21 23  2  0  0  0  0
 21 42  1  0  0  0  0
 22 24  2  0  0  0  0
 22 43  1  0  0  0  0
 23 52  1  0  0  0  0
 24 44  1  0  0  0  0
 25 67  1  0  0  0  0
 26 74  1  0  0  0  0
 27 82  1  0  0  0  0
 28 83  1  0  0  0  0
 29 31  2  0  0  0  0
 29 82  1  0  0  0  0
 30 84  1  0  0  0  0
 31 85  1  0  0  0  0
 32 65  2  0  0  0  0
 33 66  1  0  0  0  0
 33 70  1  0  0  0  0
 34 35  1  0  0  0  0
 34 37  2  0  0  0  0
 34 45  1  0  0  0  0
 35 67  1  0  0  0  0
 35 76  2  0  0  0  0
 36 71  1  0  0  0  0
 36 77  2  0  0  0  0
 37 55  1  0  0  0  0
 37 83  1  0  0  0  0
 38 53  1  0  0  0  0
 38 72  1  0  0  0  0
 38 78  2  0  0  0  0
 39 62  1  0  0  0  0
 39 68  1  0  0  0  0
 39 79  2  0  0  0  0
 40 63  1  0  0  0  0
 40 73  1  0  0  0  0
 40 80  2  0  0  0  0
 41 69  1  0  0  0  0
 41 74  1  0  0  0  0
 41 81  2  0  0  0  0
 42 46  1  0  0  0  0
 43 53  1  0  0  0  0
 44 68  1  0  0  0  0
 45 67  1  0  0  0  0
 46 48  1  0  0  0  0
 47 49  1  0  0  0  0
 47 50  1  0  0  0  0
 48 52  1  0  0  0  0
 49 54  1  0  0  0  0
 50 69  1  0  0  0  0
 51 54  1  0  0  0  0
 51 69  1  0  0  0  0
 52 72  1  0  0  0  0
 53 68  1  0  0  0  0
 54 66  1  0  0  0  0
 56 63  1  0  0  0  0
 57 64  1  0  0  0  0
 58 64  1  0  0  0  0
 59 64  1  0  0  0  0
 60 74  1  0  0  0  0
 61 75  1  0  0  0  0
 62 64  1  0  0  0  0
 62 73  1  0  0  0  0
 63 75  1  0  0  0  0
 65 66  1  0  0  0  0
M  CHG  1  75   1
M  ISO  4  37 101  41 100  74 100  83 101
M  END
> <Batch ID>
0079

> <Smiles>
CNC(C)C(=O)NC(C(=O)N1Cc2cc([101O:1][101C:1](C)=C3CN(c4ccc([100N:0](C)[100C:0](=O)N5CCCC(n6nc(-c7ccc(Oc8ccc(F)cc8F)cc7)c(C(N)=O)c6N)C5)cc4)C3=O)ccc2CC1C(=O)NC1CCCc2ccccc21)C(C)(C)C

> <Shape>
0.332

> <Color>
0.129

> <Negative vol penalty>
0.000

$$$$

  -OEChem-04042323593D

 84 93  0     1  0  0  0  0  0999 V2000
  -25.6694  -32.5117   21.9345 C   0  0  0  0  0  0  0  0  0  0  0  0
  -25.7398  -31.1287   21.8018 C   0  0  0  0  0  0  0  0  0  0  0  0
  -23.0073   -9.9431   19.9061 C   0  0  0  0  0  0  0  0  0  0  0  0
  -24.0505   -9.6043   22.0588 C   0  0  0  0  0  0  0  0  0  0  0  0
  -29.1152  -17.1381   20.2323 C   0  0  0  0  0  0  0  0  0  0  0  0
  -28.9553  -17.4119   22.6274 C   0  0  0  0  0  0  0  0  0  0  0  0
  -24.5354  -33.1005   22.4924 C   0  0  0  0  0  0  0  0  0  0  0  0
  -24.6766  -30.3335   22.2281 C   0  0  0  0  0  0  0  0  0  0  0  0
  -23.4892  -26.7215   18.8831 C   0  0  0  0  0  0  0  0  0  0  0  0
  -28.3500  -18.2899   20.0495 C   0  0  0  0  0  0  0  0  0  0  0  0
  -28.1901  -18.5637   22.4447 C   0  0  0  0  0  0  0  0  0  0  0  0
  -22.3071   -8.7463   20.0570 C   0  0  0  0  0  0  0  0  0  0  0  0
  -23.3502   -8.4074   22.2098 C   0  0  0  0  0  0  0  0  0  0  0  0
  -24.3082  -25.5939   18.8460 C   0  0  0  0  0  0  0  0  0  0  0  0
  -20.2282   -7.4416   23.0704 C   0  0  0  0  0  0  0  0  0  0  0  0
  -19.6253   -7.1964   24.3041 C   0  0  0  0  0  0  0  0  0  0  0  0
  -22.6928  -24.3844   20.1677 C   0  0  0  0  0  0  0  0  0  0  0  0
  -20.9600   -5.1988   24.5594 C   0  0  0  0  0  0  0  0  0  0  0  0
  -23.8790  -10.3721   20.9070 C   0  0  0  0  0  0  0  0  0  0  0  0
  -29.4178  -16.6991   21.5213 C   0  0  0  0  0  0  0  0  0  0  0  0
  -24.1895  -12.8921   21.1542 C   0  0  0  0  0  0  0  0  0  0  0  0
  -23.4537  -32.3128   22.9168 C   0  0  0  0  0  0  0  0  0  0  0  0
  -22.2687  -26.6924   19.5732 C   0  0  0  0  0  0  0  0  0  0  0  0
  -23.5276  -30.9122   22.7934 C   0  0  0  0  0  0  0  0  0  0  0  0
  -21.8589  -25.5122   20.2099 C   0  0  0  0  0  0  0  0  0  0  0  0
  -27.8874  -19.0027   21.1557 C   0  0  0  0  0  0  0  0  0  0  0  0
  -22.4785   -7.9784   21.2088 C   0  0  0  0  0  0  0  0  0  0  0  0
  -23.9115  -24.4260   19.4908 C   0  0  0  0  0  0  0  0  0  0  0  0
  -21.1970   -6.5654   22.5812 C   0  0  0  0  0  0  0  0  0  0  0  0
  -19.9912   -6.0750   25.0486 C   0  0  0  0  0  0  0  0  0  0  0  0
  -21.5629   -5.4440   23.3257 C   0  0  0  0  0  0  0  0  0  0  0  0
  -24.6031  -11.6081   20.7514 C   0  0  0  0  0  0  0  0  0  0  0  0
  -25.2231  -13.7175   20.7842 C   0  0  0  0  0  0  0  0  0  0  0  0
  -25.9545  -21.7369   20.7306 C   0  0  0  0  0  0  0  0  0  0  0  0
  -26.5638  -21.0091   21.8444 C   0  0  0  0  0  0  0  0  0  0  0  0
  -25.1614  -22.8202   20.6439 C   0  0  0  0  0  0  0  0  0  1  0  0
  -30.2155  -15.4981   21.7118 C   0  0  0  0  0  0  0  0  0  0  0  0
  -22.9793  -13.3020   21.8046 C   0  0  0  0  0  0  0  0  0  0  0  0
  -30.7222  -14.7180   20.5594 C   0  0  0  0  0  0  0  0  0  0  0  0
  -21.0573  -28.2653   22.0555 C   0  0  0  0  0  0  0  0  0  0  0  0
  -18.3620  -26.6384   21.2738 C   0  0  0  0  0  0  0  0  0  0  0  0
  -16.9532  -23.9196   19.7671 C   0  0  0  0  0  0  0  0  0  0  0  0
  -22.2687  -32.9913   23.5571 C   0  0  0  0  0  0  0  0  0  0  0  0
  -21.3843  -27.9089   19.5812 C   0  0  0  0  0  0  0  0  0  0  0  0
  -20.5486  -25.4229   20.9472 C   0  0  0  0  0  0  0  0  0  0  0  0
  -26.5946  -20.7559   19.7752 C   0  0  0  0  0  0  0  0  0  0  0  0
  -21.0297  -32.1034   23.6398 C   0  0  0  0  0  0  0  0  0  0  0  0
  -29.2549  -12.8590   17.8673 C   0  0  0  0  0  0  0  0  0  0  0  0
  -21.3990  -30.7192   24.1636 C   0  0  0  0  0  0  0  0  0  0  0  0
  -27.8956  -12.4406   18.4267 C   0  0  0  0  0  0  0  0  0  0  0  0
  -30.3215  -12.8903   18.9571 C   0  0  0  0  0  0  0  0  0  0  0  0
  -28.6041  -13.3400   20.6883 C   0  0  0  0  0  0  0  0  0  0  0  0
  -22.3845  -30.0176   23.2212 C   0  0  1  0  0  0  0  0  0  0  0  0
  -20.4009  -27.9250   20.7474 C   0  0  1  0  0  0  0  0  0  0  0  0
  -27.4950  -13.3236   19.6219 C   0  0  2  0  0  0  0  0  0  0  0  0
  -14.7294  -22.8444   19.3248 C   0  0  0  0  0  0  0  0  0  0  0  0
  -18.2573  -25.6710   24.1657 C   0  0  0  0  0  0  0  0  0  0  0  0
  -16.6361  -23.9053   23.4431 C   0  0  0  0  0  0  0  0  0  0  0  0
  -16.0421  -26.3159   23.2006 C   0  0  0  0  0  0  0  0  0  0  0  0
  -17.3035  -24.1312   16.8360 C   0  0  0  0  0  0  0  0  0  0  0  0
  -17.7699  -25.3037   21.6571 C   0  0  1  0  0  0  0  0  0  0  0  0
  -15.7928  -23.7944   18.7964 C   0  0  2  0  0  0  0  0  0  0  0  0
  -17.2020  -25.3009   23.1045 C   0  0  0  0  0  0  0  0  0  0  0  0
  -25.8055  -11.6125   20.1700 N   0  0  0  0  0  0  0  0  0  0  0  0
  -30.5381  -15.0311   22.8878 N   0  0  0  0  0  0  0  0  0  0  0  0
  -26.1564  -12.9093   20.2046 N   0  0  0  0  0  0  0  0  0  0  0  0
  -27.1330  -20.1386   20.9743 N   0  0  0  0  0  0  0  0  0  0  0  0
  -29.8945  -13.7071   20.0913 N   0  0  0  0  0  0  0  0  0  0  0  0
  -19.7217  -26.6409   20.9318 N   0  0  0  0  0  0  0  0  0  0  0  0
  -25.4155  -15.0485   20.9012 N   0  0  0  0  0  0  0  0  0  0  0  0
  -22.0229  -12.3251   22.1135 N   0  0  0  0  0  0  0  0  0  0  0  0
  -21.6912  -29.4931   22.0642 N   0  0  0  0  0  0  0  0  0  0  0  0
  -16.7860  -24.9832   20.6286 N   0  0  0  0  0  0  0  0  0  0  0  0
  -16.2705  -23.2807   17.4816 N   0  3  0  0  0  0  0  0  0  0  0  0
  -26.5563  -21.1227   23.0525 O   0  0  0  0  0  0  0  0  0  0  0  0
  -22.7456  -14.5013   22.0883 O   0  0  0  0  0  0  0  0  0  0  0  0
  -31.8235  -15.0502   20.1411 O   0  0  0  0  0  0  0  0  0  0  0  0
  -20.9921  -27.4733   22.9883 O   0  0  0  0  0  0  0  0  0  0  0  0
  -17.6428  -27.6406   21.2709 O   0  0  0  0  0  0  0  0  0  0  0  0
  -17.9103  -23.1486   19.7641 O   0  0  0  0  0  0  0  0  0  0  0  0
  -21.7952   -6.8106   21.3566 O   0  0  0  0  0  0  0  0  0  0  0  0
  -24.7093  -23.3242   19.4567 O   0  0  0  0  0  0  0  0  0  1  0  0
  -19.4132   -5.8406   26.2340 F   0  0  0  0  0  0  0  0  0  0  0  0
  -22.4938   -4.5992   22.8614 F   0  0  0  0  0  0  0  0  0  0  0  0
  1  2  1  0  0  0  0
  1  7  2  0  0  0  0
  2  8  2  0  0  0  0
  3 12  2  0  0  0  0
  3 19  1  0  0  0  0
  4 13  1  0  0  0  0
  4 19  2  0  0  0  0
  5 10  2  0  0  0  0
  5 20  1  0  0  0  0
  6 11  1  0  0  0  0
  6 20  2  0  0  0  0
  7 22  1  0  0  0  0
  8 24  1  0  0  0  0
  9 14  2  0  0  0  0
  9 23  1  0  0  0  0
 10 26  1  0  0  0  0
 11 26  2  0  0  0  0
 12 27  1  0  0  0  0
 13 27  2  0  0  0  0
 14 28  1  0  0  0  0
 15 16  2  0  0  0  0
 15 29  1  0  0  0  0
 16 30  1  0  0  0  0
 17 25  1  0  0  0  0
 17 28  2  0  0  0  0
 18 30  2  0  0  0  0
 18 31  1  0  0  0  0
 19 32  1  0  0  0  0
 20 37  1  0  0  0  0
 21 32  1  0  0  0  0
 21 33  2  0  0  0  0
 21 38  1  0  0  0  0
 22 24  2  0  0  0  0
 22 43  1  0  0  0  0
 23 25  2  0  0  0  0
 23 44  1  0  0  0  0
 24 53  1  0  0  0  0
 25 45  1  0  0  0  0
 26 67  1  0  0  0  0
 27 81  1  0  0  0  0
 28 82  1  0  0  0  0
 29 31  2  0  0  0  0
 29 81  1  0  0  0  0
 30 83  1  0  0  0  0
 31 84  1  0  0  0  0
 32 64  2  0  0  0  0
 33 66  1  0  0  0  0
 33 70  1  0  0  0  0
 34 35  1  0  0  0  0
 34 36  2  0  0  0  0
 34 46  1  0  0  0  0
 35 67  1  0  0  0  0
 35 75  2  0  0  0  0
 36 82  1  0  0  0  0
 37 39  1  0  0  0  0
 37 65  2  0  0  0  0
 38 71  1  0  0  0  0
 38 76  2  0  0  0  0
 39 68  1  0  0  0  0
 39 77  2  0  0  0  0
 40 54  1  0  0  0  0
 40 72  1  0  0  0  0
 40 78  2  0  0  0  0
 41 61  1  0  0  0  0
 41 69  1  0  0  0  0
 41 79  2  0  0  0  0
 42 62  1  0  0  0  0
 42 73  1  0  0  0  0
 42 80  2  0  0  0  0
 43 47  1  0  0  0  0
 44 54  1  0  0  0  0
 45 69  1  0  0  0  0
 46 67  1  0  0  0  0
 47 49  1  0  0  0  0
 48 50  1  0  0  0  0
 48 51  1  0  0  0  0
 49 53  1  0  0  0  0
 50 55  1  0  0  0  0
 51 68  1  0  0  0  0
 52 55  1  0  0  0  0
 52 68  1  0  0  0  0
 53 72  1  0  0  0  0
 54 69  1  0  0  0  0
 55 66  1  0  0  0  0
 56 62  1  0  0  0  0
 57 63  1  0  0  0  0
 58 63  1  0  0  0  0
 59 63  1  0  0  0  0
 60 74  1  0  0  0  0
 61 63  1  0  0  0  0
 61 73  1  0  0  0  0
 62 74  1  0  0  0  0
 64 66  1  0  0  0  0
M  CHG  1  74   1
M  ISO  4  36 101  37 100  39 100  82 101
M  END
> <Batch ID>
0079

> <Smiles>
CNC(C)C(=O)NC(C(=O)N1Cc2cc([101O:1][101CH:1]=C3CN(c4ccc([100C:0](=N)[100C:0](=O)N5CCCC(n6nc(-c7ccc(Oc8ccc(F)cc8F)cc7)c(C(N)=O)c6N)C5)cc4)C3=O)ccc2CC1C(=O)NC1CCCc2ccccc21)C(C)(C)C

> <Shape>
0.311

> <Color>
0.182

> <Negative vol penalty>
0.000

$$$$

  -OEChem-04042323593D

 86 95  0     1  0  0  0  0  0999 V2000
  -19.2694  -24.2947   21.3983 C   0  0  0  0  0  0  0  0  0  0  0  0
  -20.2719  -24.8380   20.6013 C   0  0  0  0  0  0  0  0  0  0  0  0
  -28.9226  -20.4443   14.3359 C   0  0  0  0  0  0  0  0  0  0  0  0
  -27.3497  -11.4993   20.4466 C   0  0  0  0  0  0  0  0  0  0  0  0
  -26.7071  -12.8722   18.5653 C   0  0  0  0  0  0  0  0  0  0  0  0
  -18.5407  -25.1168   22.2569 C   0  0  0  0  0  0  0  0  0  0  0  0
  -20.5456  -26.2040   20.6616 C   0  0  0  0  0  0  0  0  0  0  0  0
  -25.5102  -27.1840   20.8546 C   0  0  0  0  0  0  0  0  0  0  0  0
  -28.5451  -21.7772   14.4983 C   0  0  0  0  0  0  0  0  0  0  0  0
  -29.3001  -19.6862   15.4443 C   0  0  0  0  0  0  0  0  0  0  0  0
  -26.2077  -10.7187   20.2671 C   0  0  0  0  0  0  0  0  0  0  0  0
  -25.5651  -12.0917   18.3858 C   0  0  0  0  0  0  0  0  0  0  0  0
  -26.2225  -27.1014   19.6589 C   0  0  0  0  0  0  0  0  0  0  0  0
  -22.9096  -10.9310   20.9752 C   0  0  0  0  0  0  0  0  0  0  0  0
  -22.1668  -10.6002   22.1085 C   0  0  0  0  0  0  0  0  0  0  0  0
  -26.1325  -29.5026   19.4466 C   0  0  0  0  0  0  0  0  0  0  0  0
  -28.9228  -21.5941   16.8776 C   0  0  0  0  0  0  0  0  0  0  0  0
  -22.5318   -8.2539   21.6628 C   0  0  0  0  0  0  0  0  0  0  0  0
  -27.5994  -12.5761   19.5957 C   0  0  0  0  0  0  0  0  0  0  0  0
  -30.1186  -12.9544   19.7307 C   0  0  0  0  0  0  0  0  0  0  0  0
  -18.8121  -26.4919   22.3348 C   0  0  0  0  0  0  0  0  0  0  0  0
  -25.0936  -28.4277   21.3505 C   0  0  0  0  0  0  0  0  0  0  0  0
  -19.8189  -27.0454   21.5210 C   0  0  0  0  0  0  0  0  0  0  0  0
  -25.4173  -29.5985   20.6501 C   0  0  0  0  0  0  0  0  0  0  0  0
  -28.5452  -22.3521   15.7692 C   0  0  0  0  0  0  0  0  0  0  0  0
  -29.3002  -20.2612   16.7152 C   0  0  0  0  0  0  0  0  0  0  0  0
  -25.3154  -11.0149   19.2367 C   0  0  0  0  0  0  0  0  0  0  0  0
  -26.5312  -28.2606   18.9532 C   0  0  0  0  0  0  0  0  0  0  0  0
  -23.4633   -9.9233   20.1855 C   0  0  0  0  0  0  0  0  0  0  0  0
  -21.9780   -9.2617   22.4523 C   0  0  0  0  0  0  0  0  0  0  0  0
  -23.2745   -8.5847   20.5293 C   0  0  0  0  0  0  0  0  0  0  0  0
  -28.7786  -13.3831   19.7810 C   0  0  0  0  0  0  0  0  0  0  0  0
  -30.8518  -14.0911   19.9688 C   0  0  0  0  0  0  0  0  0  0  0  0
  -28.6349  -25.9607   16.7400 C   0  0  0  0  0  0  0  0  0  0  0  0
  -27.3363  -26.4077   16.2534 C   0  0  0  0  0  0  0  0  0  0  0  0
  -29.6773  -26.7939   16.8907 C   0  0  0  0  0  0  0  0  0  0  0  0
  -30.6527  -11.6458   19.4901 C   0  0  0  0  0  0  0  0  0  0  0  0
  -26.6806  -27.4635   16.7594 C   0  0  0  0  0  0  0  0  0  1  0  0
  -22.2781  -29.7662   21.9712 C   0  0  0  0  0  0  0  0  0  0  0  0
  -24.1161  -32.1452   23.1896 C   0  0  0  0  0  0  0  0  0  0  0  0
  -27.1282  -33.7492   23.2273 C   0  0  0  0  0  0  0  0  0  0  0  0
  -29.7407  -19.9077   19.1702 C   0  0  0  0  0  0  0  0  0  0  0  0
  -17.9660  -27.3484   23.2432 C   0  0  0  0  0  0  0  0  0  0  0  0
  -24.3492  -28.5019   22.6554 C   0  0  0  0  0  0  0  0  0  0  0  0
  -25.0108  -30.9598   21.1501 C   0  0  0  0  0  0  0  0  0  0  0  0
  -26.7656  -25.5573   15.1503 C   0  0  0  0  0  0  0  0  0  0  0  0
  -28.7508  -24.4801   17.0252 C   0  0  0  0  0  0  0  0  0  0  0  0
  -18.5707  -28.7220   23.5225 C   0  0  0  0  0  0  0  0  0  0  0  0
  -30.5999  -18.3046   22.2311 C   0  0  0  0  0  0  0  0  0  0  0  0
  -19.0604  -29.3629   22.2278 C   0  0  0  0  0  0  0  0  0  0  0  0
  -30.3581  -16.8210   21.9436 C   0  0  0  0  0  0  0  0  0  0  0  0
  -26.8122  -24.0688   15.4978 C   0  0  0  0  0  0  0  0  0  0  0  0
  -29.5638  -19.1917   21.5432 C   0  0  0  0  0  0  0  0  0  0  0  0
  -29.1720  -17.4829   19.8124 C   0  0  0  0  0  0  0  0  0  0  0  0
  -20.1621  -28.5183   21.5764 C   0  0  1  0  0  0  0  0  0  0  0  0
  -23.5290  -29.7797   22.8036 C   0  0  1  0  0  0  0  0  0  0  0  0
  -30.2291  -16.5537   20.4312 C   0  0  2  0  0  0  0  0  0  0  0  0
  -25.3483  -27.9257   16.2636 C   0  0  0  0  0  0  0  0  0  0  0  0
  -28.3171  -35.6826   24.2977 C   0  0  0  0  0  0  0  0  0  0  0  0
  -22.5847  -34.0784   21.3930 C   0  0  0  0  0  0  0  0  0  0  0  0
  -24.3966  -35.7627   21.7789 C   0  0  0  0  0  0  0  0  0  0  0  0
  -23.0373  -34.9336   23.6992 C   0  0  0  0  0  0  0  0  0  0  0  0
  -29.1683  -31.9768   24.4337 C   0  0  0  0  0  0  0  0  0  0  0  0
  -24.7442  -33.4013   22.6358 C   0  0  1  0  0  0  0  0  0  0  0  0
  -28.0185  -34.1934   24.3738 C   0  0  2  0  0  0  0  0  0  0  0  0
  -23.6968  -34.5184   22.3660 C   0  0  0  0  0  0  0  0  0  0  0  0
  -28.6643  -14.6900   20.0316 N   0  0  0  0  0  0  0  0  0  0  0  0
  -29.9419  -15.0924   20.1409 N   0  0  0  0  0  0  0  0  0  0  0  0
  -28.1656  -23.6902   15.9321 N   0  0  2  0  0  0  0  0  0  0  0  0
  -24.2792  -30.9797   22.4275 N   0  0  0  0  0  0  0  0  0  0  0  0
  -29.4999  -18.8855   20.1125 N   0  0  0  0  0  0  0  0  0  0  0  0
  -32.1797  -14.3218   20.0458 N   0  0  0  0  0  0  0  0  0  0  0  0
  -30.9312  -11.2703   18.1688 N   0  0  0  0  0  0  0  0  0  0  0  0
  -29.6850  -19.4911   17.8406 N   0  0  0  0  0  0  0  0  0  0  0  0
  -21.4228  -28.7194   22.2579 N   0  0  0  0  0  0  0  0  0  0  0  0
  -25.7942  -33.7809   23.5748 N   0  0  0  0  0  0  0  0  0  0  0  0
  -29.3113  -33.4527   24.3426 N   0  3  0  0  0  0  0  0  0  0  0  0
  -30.8610  -10.8275   20.4178 O   0  0  0  0  0  0  0  0  0  0  0  0
  -22.1013  -30.6416   21.1321 O   0  0  0  0  0  0  0  0  0  0  0  0
  -23.5094  -32.1949   24.2625 O   0  0  0  0  0  0  0  0  0  0  0  0
  -27.5714  -33.4118   22.1318 O   0  0  0  0  0  0  0  0  0  0  0  0
  -30.0057  -21.0614   19.5178 O   0  0  0  0  0  0  0  0  0  0  0  0
  -24.2011  -10.2533   19.0611 O   0  0  0  0  0  0  0  0  0  0  0  0
  -27.2258  -28.1828   17.7856 O   0  0  0  0  0  0  0  0  0  1  0  0
  -21.2660   -8.9442   23.5416 F   0  0  0  0  0  0  0  0  0  0  0  0
  -23.8050   -7.6122   19.7753 F   0  0  0  0  0  0  0  0  0  0  0  0
  1  2  1  0  0  0  0
  1  6  2  0  0  0  0
  2  7  2  0  0  0  0
  3  9  2  0  0  0  0
  3 10  1  0  0  0  0
  4 11  2  0  0  0  0
  4 19  1  0  0  0  0
  5 12  1  0  0  0  0
  5 19  2  0  0  0  0
  6 21  1  0  0  0  0
  7 23  1  0  0  0  0
  8 13  2  0  0  0  0
  8 22  1  0  0  0  0
  9 25  1  0  0  0  0
 10 26  2  0  0  0  0
 11 27  1  0  0  0  0
 12 27  2  0  0  0  0
 13 28  1  0  0  0  0
 14 15  2  0  0  0  0
 14 29  1  0  0  0  0
 15 30  1  0  0  0  0
 16 24  1  0  0  0  0
 16 28  2  0  0  0  0
 17 25  2  0  0  0  0
 17 26  1  0  0  0  0
 18 30  2  0  0  0  0
 18 31  1  0  0  0  0
 19 32  1  0  0  0  0
 20 32  1  0  0  0  0
 20 33  2  0  0  0  0
 20 37  1  0  0  0  0
 21 23  2  0  0  0  0
 21 43  1  0  0  0  0
 22 24  2  0  0  0  0
 22 44  1  0  0  0  0
 23 55  1  0  0  0  0
 24 45  1  0  0  0  0
 25 69  1  0  0  0  0
 26 74  1  0  0  0  0
 27 83  1  0  0  0  0
 28 84  1  0  0  0  0
 29 31  2  0  0  0  0
 29 83  1  0  0  0  0
 30 85  1  0  0  0  0
 31 86  1  0  0  0  0
 32 67  2  0  0  0  0
 33 68  1  0  0  0  0
 33 72  1  0  0  0  0
 34 35  1  0  0  0  0
 34 36  2  0  0  0  0
 34 47  1  0  0  0  0
 35 38  2  0  0  0  0
 35 46  1  0  0  0  0
 37 73  1  0  0  0  0
 37 78  2  0  0  0  0
 38 58  1  0  0  0  0
 38 84  1  0  0  0  0
 39 56  1  0  0  0  0
 39 75  1  0  0  0  0
 39 79  2  0  0  0  0
 40 64  1  0  0  0  0
 40 70  1  0  0  0  0
 40 80  2  0  0  0  0
 41 65  1  0  0  0  0
 41 76  1  0  0  0  0
 41 81  2  0  0  0  0
 42 71  1  0  0  0  0
 42 74  1  0  0  0  0
 42 82  2  0  0  0  0
 43 48  1  0  0  0  0
 44 56  1  0  0  0  0
 45 70  1  0  0  0  0
 46 52  1  0  0  0  0
 47 69  1  0  0  0  0
 48 50  1  0  0  0  0
 49 51  1  0  0  0  0
 49 53  1  0  0  0  0
 50 55  1  0  0  0  0
 51 57  1  0  0  0  0
 52 69  1  0  0  0  0
 53 71  1  0  0  0  0
 54 57  1  0  0  0  0
 54 71  1  0  0  0  0
 55 75  1  0  0  0  0
 56 70  1  0  0  0  0
 57 68  1  0  0  0  0
 59 65  1  0  0  0  0
 60 66  1  0  0  0  0
 61 66  1  0  0  0  0
 62 66  1  0  0  0  0
 63 77  1  0  0  0  0
 64 66  1  0  0  0  0
 64 76  1  0  0  0  0
 65 77  1  0  0  0  0
 67 68  1  0  0  0  0
M  CHG  1  77   1
M  ISO  4  38 101  42 100  74 100  84 101
M  END
> <Batch ID>
0079

> <Smiles>
C=C1CN(c2cccc([100NH:0][100C:0](=O)N3CCCC(n4nc(-c5ccc(Oc6ccc(F)cc6F)cc5)c(C(N)=O)c4N)C3)c2)CCC1=[101C:1](C)[101O:1]c1ccc2c(c1)CN(C(=O)C(NC(=O)C(C)NC)C(C)(C)C)C(C(=O)NC1CCCc3ccccc31)C2

> <Shape>
0.301

> <Color>
0.129

> <Negative vol penalty>
0.000

$$$$

  -OEChem-04042323593D

 89 98  0     1  0  0  0  0  0999 V2000
  -29.5945  -31.9665   25.5759 C   0  0  0  0  0  0  0  0  0  0  0  0
  -29.3304  -30.7914   24.8796 C   0  0  0  0  0  0  0  0  0  0  0  0
  -21.9960  -13.7340   21.2606 C   0  0  0  0  0  0  0  0  0  0  0  0
  -22.9401  -12.4222   23.0565 C   0  0  0  0  0  0  0  0  0  0  0  0
  -28.5420  -32.7210   26.0923 C   0  0  0  0  0  0  0  0  0  0  0  0
  -28.0135  -30.3695   24.7004 C   0  0  0  0  0  0  0  0  0  0  0  0
  -27.0963  -28.8232   19.9662 C   0  0  0  0  0  0  0  0  0  0  0  0
  -20.8017  -13.8484   21.9720 C   0  0  0  0  0  0  0  0  0  0  0  0
  -21.7458  -12.5367   23.7679 C   0  0  0  0  0  0  0  0  0  0  0  0
  -27.5443  -27.5507   19.6139 C   0  0  0  0  0  0  0  0  0  0  0  0
  -18.6805  -11.1104   23.7360 C   0  0  0  0  0  0  0  0  0  0  0  0
  -18.1709   -9.9591   24.3362 C   0  0  0  0  0  0  0  0  0  0  0  0
  -25.3160  -26.6841   19.9346 C   0  0  0  0  0  0  0  0  0  0  0  0
  -30.1796  -20.9686   19.3056 C   0  0  0  0  0  0  0  0  0  0  0  0
  -28.5305  -19.2426   19.6777 C   0  0  0  0  0  0  0  0  0  0  0  0
  -30.7982  -18.9338   20.4519 C   0  0  0  0  0  0  0  0  0  0  0  0
  -18.3126  -11.0245   26.5000 C   0  0  0  0  0  0  0  0  0  0  0  0
  -23.0652  -13.0209   21.8028 C   0  0  0  0  0  0  0  0  0  0  0  0
  -24.4793  -12.3239   19.7973 C   0  0  0  0  0  0  0  0  0  0  0  0
  -27.2110  -32.3132   25.9110 C   0  0  0  0  0  0  0  0  0  0  0  0
  -25.7549  -29.0338   20.3164 C   0  0  0  0  0  0  0  0  0  0  0  0
  -26.9422  -31.1186   25.2160 C   0  0  0  0  0  0  0  0  0  0  0  0
  -24.8530  -27.9606   20.2884 C   0  0  0  0  0  0  0  0  0  0  0  0
  -28.8740  -20.4962   19.1715 C   0  0  0  0  0  0  0  0  0  0  0  0
  -31.1417  -20.1874   19.9458 C   0  0  0  0  0  0  0  0  0  0  0  0
  -29.4926  -18.4614   20.3179 C   0  0  0  0  0  0  0  0  0  0  0  0
  -20.6765  -13.2498   23.2257 C   0  0  0  0  0  0  0  0  0  0  0  0
  -26.6547  -26.4804   19.6009 C   0  0  0  0  0  0  0  0  0  0  0  0
  -19.0062  -12.2188   24.5177 C   0  0  0  0  0  0  0  0  0  0  0  0
  -17.9869   -9.9161   25.7182 C   0  0  0  0  0  0  0  0  0  0  0  0
  -18.8222  -12.1759   25.8997 C   0  0  0  0  0  0  0  0  0  0  0  0
  -24.2990  -12.9019   21.0682 C   0  0  0  0  0  0  0  0  0  0  0  0
  -25.8229  -12.4589   19.5461 C   0  0  0  0  0  0  0  0  0  0  0  0
  -26.2841  -22.6938   16.6006 C   0  0  0  0  0  0  0  0  0  0  0  0
  -26.8653  -23.4057   17.7482 C   0  0  0  0  0  0  0  0  0  0  0  0
  -26.3969  -21.2282   16.5788 C   0  0  0  0  0  0  0  0  0  0  0  0
  -27.9446  -22.7129   18.5460 C   0  0  0  0  0  0  0  0  0  0  0  0
  -26.2938  -20.4450   15.4919 C   0  0  0  0  0  0  0  0  0  0  0  0
  -25.6669  -23.3634   15.6062 C   0  0  0  0  0  0  0  0  0  0  0  0
  -26.5151  -24.6303   18.1767 C   0  0  0  0  0  0  0  0  0  1  0  0
  -23.5182  -11.7192   18.9219 C   0  0  0  0  0  0  0  0  0  0  0  0
  -24.2493  -30.0251   22.9345 C   0  0  0  0  0  0  0  0  0  0  0  0
  -21.6427  -29.9115   21.0070 C   0  0  0  0  0  0  0  0  0  0  0  0
  -20.3295  -27.6941   18.4819 C   0  0  0  0  0  0  0  0  0  0  0  0
  -29.9757  -16.2875   21.4957 C   0  0  0  0  0  0  0  0  0  0  0  0
  -26.1088  -33.1370   26.5283 C   0  0  0  0  0  0  0  0  0  0  0  0
  -25.2817  -30.4176   20.6682 C   0  0  0  0  0  0  0  0  0  0  0  0
  -23.3984  -28.1379   20.6365 C   0  0  0  0  0  0  0  0  0  0  0  0
  -26.6965  -20.6379   17.9361 C   0  0  0  0  0  0  0  0  0  0  0  0
  -24.7240  -32.8168   25.9714 C   0  0  0  0  0  0  0  0  0  0  0  0
  -30.0427  -12.7401   21.7930 C   0  0  0  0  0  0  0  0  0  0  0  0
  -24.5081  -31.3079   25.9126 C   0  0  0  0  0  0  0  0  0  0  0  0
  -28.5950  -12.3259   21.5192 C   0  0  0  0  0  0  0  0  0  0  0  0
  -30.1196  -14.0522   22.5716 C   0  0  0  0  0  0  0  0  0  0  0  0
  -27.9215  -14.7544   21.7088 C   0  0  0  0  0  0  0  0  0  0  0  0
  -25.5259  -30.6409   24.9795 C   0  0  1  0  0  0  0  0  0  0  0  0
  -24.0059  -30.4181   21.5048 C   0  0  1  0  0  0  0  0  0  0  0  0
  -27.7941  -13.4719   20.8705 C   0  0  2  0  0  0  0  0  0  0  0  0
  -25.0601  -22.7036   14.4212 C   0  0  0  0  0  0  0  0  0  0  0  0
  -18.8233  -28.1559   16.5285 C   0  0  0  0  0  0  0  0  0  0  0  0
  -19.4019  -29.1077   22.9157 C   0  0  0  0  0  0  0  0  0  0  0  0
  -18.2732  -27.9619   20.9970 C   0  0  0  0  0  0  0  0  0  0  0  0
  -18.6549  -30.4260   20.9261 C   0  0  0  0  0  0  0  0  0  0  0  0
  -22.2584  -26.5204   16.5685 C   0  0  0  0  0  0  0  0  0  0  0  0
  -20.6200  -28.8590   20.6528 C   0  0  1  0  0  0  0  0  0  0  0  0
  -20.2592  -27.9577   16.9885 C   0  0  2  0  0  0  0  0  0  0  0  0
  -19.2641  -29.0817   21.3803 C   0  0  0  0  0  0  0  0  0  0  0  0
  -25.4371  -13.3691   21.5883 N   0  0  0  0  0  0  0  0  0  0  0  0
  -26.3454  -13.0848   20.6395 N   0  0  0  0  0  0  0  0  0  0  0  0
  -27.8789  -21.3034   18.5112 N   0  0  0  0  0  0  0  0  0  0  0  0
  -22.9854  -29.5087   20.9798 N   0  0  0  0  0  0  0  0  0  0  0  0
  -29.3412  -15.0924   21.8956 N   0  0  0  0  0  0  0  0  0  0  0  0
  -32.4619  -20.6645   20.0816 N   0  0  0  0  0  0  0  0  0  0  0  0
  -26.5965  -12.1020   18.4990 N   0  0  0  0  0  0  0  0  0  0  0  0
  -23.2786  -10.3435   19.0410 N   0  0  0  0  0  0  0  0  0  0  0  0
  -29.1428  -17.1887   20.8334 N   0  0  0  0  0  0  0  0  0  0  0  0
  -25.1489  -30.8389   23.5963 N   0  0  0  0  0  0  0  0  0  0  0  0
  -20.5238  -28.8569   19.1971 N   0  0  0  0  0  0  0  0  0  0  0  0
  -20.8411  -26.8128   16.2325 N   0  3  0  0  0  0  0  0  0  0  0  0
  -28.7659  -23.3807   19.1732 O   0  0  0  0  0  0  0  0  0  0  0  0
  -22.9024  -12.3763   18.0486 O   0  0  0  0  0  0  0  0  0  0  0  0
  -23.6631  -29.0563   23.4029 O   0  0  0  0  0  0  0  0  0  0  0  0
  -21.2645  -31.0510   21.2902 O   0  0  0  0  0  0  0  0  0  0  0  0
  -20.2191  -26.5698   18.9657 O   0  0  0  0  0  0  0  0  0  0  0  0
  -31.1763  -16.4846   21.6999 O   0  0  0  0  0  0  0  0  0  0  0  0
  -19.5114  -13.3614   23.9202 O   0  0  0  0  0  0  0  0  0  0  0  0
  -27.0895  -25.2373   19.2581 O   0  0  0  0  0  0  0  0  0  1  0  0
  -17.4961   -8.8110   26.2943 F   0  0  0  0  0  0  0  0  0  0  0  0
  -19.1322  -13.2379   26.6558 F   0  0  0  0  0  0  0  0  0  0  0  0
  1  2  1  0  0  0  0
  1  5  2  0  0  0  0
  2  6  2  0  0  0  0
  3  8  2  0  0  0  0
  3 18  1  0  0  0  0
  4  9  1  0  0  0  0
  4 18  2  0  0  0  0
  5 20  1  0  0  0  0
  6 22  1  0  0  0  0
  7 10  2  0  0  0  0
  7 21  1  0  0  0  0
  8 27  1  0  0  0  0
  9 27  2  0  0  0  0
 10 28  1  0  0  0  0
 11 12  2  0  0  0  0
 11 29  1  0  0  0  0
 12 30  1  0  0  0  0
 13 23  1  0  0  0  0
 13 28  2  0  0  0  0
 14 24  1  0  0  0  0
 14 25  2  0  0  0  0
 15 24  2  0  0  0  0
 15 26  1  0  0  0  0
 16 25  1  0  0  0  0
 16 26  2  0  0  0  0
 17 30  2  0  0  0  0
 17 31  1  0  0  0  0
 18 32  1  0  0  0  0
 19 32  1  0  0  0  0
 19 33  2  0  0  0  0
 19 41  1  0  0  0  0
 20 22  2  0  0  0  0
 20 46  1  0  0  0  0
 21 23  2  0  0  0  0
 21 47  1  0  0  0  0
 22 56  1  0  0  0  0
 23 48  1  0  0  0  0
 24 70  1  0  0  0  0
 25 73  1  0  0  0  0
 26 76  1  0  0  0  0
 27 86  1  0  0  0  0
 28 87  1  0  0  0  0
 29 31  2  0  0  0  0
 29 86  1  0  0  0  0
 30 88  1  0  0  0  0
 31 89  1  0  0  0  0
 32 68  2  0  0  0  0
 33 69  1  0  0  0  0
 33 74  1  0  0  0  0
 34 35  1  0  0  0  0
 34 36  1  0  0  0  0
 34 39  2  0  0  0  0
 35 37  1  0  0  0  0
 35 40  2  0  0  0  0
 36 38  2  0  0  0  0
 36 49  1  0  0  0  0
 37 70  1  0  0  0  0
 37 80  2  0  0  0  0
 39 59  1  0  0  0  0
 40 87  1  0  0  0  0
 41 75  1  0  0  0  0
 41 81  2  0  0  0  0
 42 57  1  0  0  0  0
 42 77  1  0  0  0  0
 42 82  2  0  0  0  0
 43 65  1  0  0  0  0
 43 71  1  0  0  0  0
 43 83  2  0  0  0  0
 44 66  1  0  0  0  0
 44 78  1  0  0  0  0
 44 84  2  0  0  0  0
 45 72  1  0  0  0  0
 45 76  1  0  0  0  0
 45 85  2  0  0  0  0
 46 50  1  0  0  0  0
 47 57  1  0  0  0  0
 48 71  1  0  0  0  0
 49 70  1  0  0  0  0
 50 52  1  0  0  0  0
 51 53  1  0  0  0  0
 51 54  1  0  0  0  0
 52 56  1  0  0  0  0
 53 58  1  0  0  0  0
 54 72  1  0  0  0  0
 55 58  1  0  0  0  0
 55 72  1  0  0  0  0
 56 77  1  0  0  0  0
 57 71  1  0  0  0  0
 58 69  1  0  0  0  0
 60 66  1  0  0  0  0
 61 67  1  0  0  0  0
 62 67  1  0  0  0  0
 63 67  1  0  0  0  0
 64 79  1  0  0  0  0
 65 67  1  0  0  0  0
 65 78  1  0  0  0  0
 66 79  1  0  0  0  0
 68 69  1  0  0  0  0
M  CHG  1  79   1
M  ISO  4  40 101  45 100  76 100  87 101
M  END
> <Batch ID>
0079

> <Smiles>
C=C1CN(c2cc(N)cc([100NH:0][100C:0](=O)N3CCCC(n4nc(-c5ccc(Oc6ccc(F)cc6F)cc5)c(C(N)=O)c4N)C3)c2)C(=O)C(=[101CH:1][101O:1]c2ccc3c(c2)CN(C(=O)C(NC(=O)C(C)NC)C(C)(C)C)C(C(=O)NC2CCCc4ccccc42)C3)C1=CC

> <Shape>
0.275

> <Color>
0.068

> <Negative vol penalty>
0.000

$$$$

  -OEChem-04042323593D

 89 98  0     1  0  0  0  0  0999 V2000
  -30.7869  -17.7662   38.8566 C   0  0  0  0  0  0  0  0  0  0  0  0
  -30.6412  -17.3305   37.5434 C   0  0  0  0  0  0  0  0  0  0  0  0
  -23.3069  -10.2167   22.2385 C   0  0  0  0  0  0  0  0  0  0  0  0
  -23.5997   -9.5299   19.9407 C   0  0  0  0  0  0  0  0  0  0  0  0
  -30.0932  -18.8924   39.2972 C   0  0  0  0  0  0  0  0  0  0  0  0
  -29.8008  -18.0204   36.6704 C   0  0  0  0  0  0  0  0  0  0  0  0
  -32.3281  -20.8400   30.5423 C   0  0  0  0  0  0  0  0  0  0  0  0
  -32.3676  -18.5649   22.0069 C   0  0  0  0  0  0  0  0  0  0  0  0
  -31.8679  -17.3419   21.5597 C   0  0  0  0  0  0  0  0  0  0  0  0
  -22.5612   -9.0646   22.4879 C   0  0  0  0  0  0  0  0  0  0  0  0
  -22.8540   -8.3777   20.1901 C   0  0  0  0  0  0  0  0  0  0  0  0
  -32.6909  -21.2255   29.2516 C   0  0  0  0  0  0  0  0  0  0  0  0
  -19.4095   -7.9717   21.9435 C   0  0  0  0  0  0  0  0  0  0  0  0
  -18.2264   -8.1108   22.6690 C   0  0  0  0  0  0  0  0  0  0  0  0
  -30.4728  -22.1154   28.8825 C   0  0  0  0  0  0  0  0  0  0  0  0
  -30.3041  -18.9736   23.1952 C   0  0  0  0  0  0  0  0  0  0  0  0
  -19.0903   -6.6211   24.3635 C   0  0  0  0  0  0  0  0  0  0  0  0
  -23.8261  -10.4494   20.9649 C   0  0  0  0  0  0  0  0  0  0  0  0
  -24.1694  -12.9742   20.8425 C   0  0  0  0  0  0  0  0  0  0  0  0
  -29.2513  -19.6021   38.4265 C   0  0  0  0  0  0  0  0  0  0  0  0
  -31.0394  -21.1049   31.0140 C   0  0  0  0  0  0  0  0  0  0  0  0
  -29.0941  -19.1565   37.1002 C   0  0  0  0  0  0  0  0  0  0  0  0
  -30.1075  -21.7428   30.1788 C   0  0  0  0  0  0  0  0  0  0  0  0
  -31.5857  -19.3808   22.8247 C   0  0  0  0  0  0  0  0  0  0  0  0
  -30.5863  -16.9346   21.9303 C   0  0  0  0  0  0  0  0  0  0  0  0
  -22.3348   -8.1451   21.4637 C   0  0  0  0  0  0  0  0  0  0  0  0
  -31.7654  -21.8614   28.4237 C   0  0  0  0  0  0  0  0  0  0  0  0
  -20.4330   -7.1572   22.4279 C   0  0  0  0  0  0  0  0  0  0  0  0
  -18.0668   -7.4356   23.8790 C   0  0  0  0  0  0  0  0  0  0  0  0
  -29.8044  -17.7505   22.7480 C   0  0  0  0  0  0  0  0  0  0  0  0
  -20.2734   -6.4819   23.6379 C   0  0  0  0  0  0  0  0  0  0  0  0
  -24.5961  -11.6396   20.7065 C   0  0  0  0  0  0  0  0  0  0  0  0
  -25.2623  -13.7227   20.4793 C   0  0  0  0  0  0  0  0  0  0  0  0
  -31.5490  -22.8245   24.0333 C   0  0  0  0  0  0  0  0  0  0  0  0
  -33.7998  -21.9248   24.4491 C   0  0  0  0  0  0  0  0  0  0  0  0
  -30.5171  -23.6309   24.3425 C   0  0  0  0  0  0  0  0  0  0  0  0
  -22.8989  -13.4911   21.2600 C   0  0  0  0  0  0  0  0  0  0  0  0
  -28.6057  -20.8619   33.8589 C   0  0  0  0  0  0  0  0  0  0  0  0
  -28.2125  -23.6239   32.5834 C   0  0  0  0  0  0  0  0  0  0  0  0
  -26.6595  -26.5463   31.7558 C   0  0  0  0  0  0  0  0  0  0  0  0
  -32.6595  -23.5343   27.0779 C   0  0  0  0  0  0  0  0  0  1  0  0
  -30.7289  -14.7656   20.6570 C   0  0  0  0  0  0  0  0  0  0  0  0
  -28.4855  -20.7861   38.9616 C   0  0  0  0  0  0  0  0  0  0  0  0
  -30.5861  -20.6524   32.3755 C   0  0  0  0  0  0  0  0  0  0  0  0
  -28.7221  -21.9762   30.7164 C   0  0  0  0  0  0  0  0  0  0  0  0
  -31.3795  -21.8276   22.9192 C   0  0  0  0  0  0  0  0  0  0  0  0
  -33.5111  -20.7702   23.5100 C   0  0  0  0  0  0  0  0  0  0  0  0
  -27.9050  -21.6803   37.8690 C   0  0  0  0  0  0  0  0  0  0  0  0
  -29.6149  -12.3499   18.2904 C   0  0  0  0  0  0  0  0  0  0  0  0
  -27.2159  -20.8382   36.8000 C   0  0  0  0  0  0  0  0  0  0  0  0
  -28.1748  -12.0596   18.7192 C   0  0  0  0  0  0  0  0  0  0  0  0
  -30.5293  -12.5795   19.4925 C   0  0  0  0  0  0  0  0  0  0  0  0
  -28.6217  -13.3064   20.8716 C   0  0  0  0  0  0  0  0  0  0  0  0
  -28.2109  -19.8927   36.1163 C   0  0  1  0  0  0  0  0  0  0  0  0
  -29.5999  -21.6304   33.0390 C   0  0  1  0  0  0  0  0  0  0  0  0
  -27.6496  -13.1324   19.6932 C   0  0  2  0  0  0  0  0  0  0  0  0
  -24.7722  -28.0424   32.4610 C   0  0  0  0  0  0  0  0  0  0  0  0
  -26.2131  -21.6719   31.3606 C   0  0  0  0  0  0  0  0  0  0  0  0
  -24.5678  -23.5540   31.2225 C   0  0  0  0  0  0  0  0  0  0  0  0
  -25.4224  -22.8072   33.4439 C   0  0  0  0  0  0  0  0  0  0  0  0
  -28.4933  -28.8121   32.2680 C   0  0  0  0  0  0  0  0  0  0  0  0
  -33.0495  -23.9176   25.6681 C   0  0  0  0  0  0  0  0  0  0  0  0
  -26.9548  -24.0870   31.8927 C   0  0  1  0  0  0  0  0  0  0  0  0
  -26.2580  -27.7465   32.5942 C   0  0  2  0  0  0  0  0  0  0  0  0
  -25.8150  -23.0321   31.9674 C   0  0  0  0  0  0  0  0  0  0  0  0
  -25.8612  -11.5426   20.2893 N   0  0  0  0  0  0  0  0  0  0  0  0
  -26.2389  -12.8259   20.1599 N   0  0  0  0  0  0  0  0  0  0  0  0
  -32.0865  -20.6054   23.2729 N   0  0  2  0  0  0  0  0  0  0  0  0
  -32.7861  -22.8620   24.6850 N   0  0  0  0  0  0  0  0  0  0  0  0
  -28.7959  -22.4425   32.1099 N   0  0  0  0  0  0  0  0  0  0  0  0
  -29.9702  -13.6115   20.3684 N   0  0  0  0  0  0  0  0  0  0  0  0
  -25.4734  -15.0540   20.4051 N   0  0  0  0  0  0  0  0  0  0  0  0
  -21.8863  -12.5829   21.5974 N   0  0  0  0  0  0  0  0  0  0  0  0
  -30.0814  -15.6918   21.4740 N   0  0  0  0  0  0  0  0  0  0  0  0
  -29.0161  -20.6154   35.1551 N   0  0  0  0  0  0  0  0  0  0  0  0
  -26.6152  -25.3765   32.4844 N   0  0  0  0  0  0  0  0  0  0  0  0
  -27.0181  -28.9548   32.1664 N   0  3  0  0  0  0  0  0  0  0  0  0
  -34.9255  -21.9892   24.9562 O   0  0  0  0  0  0  0  0  0  0  0  0
  -22.6633  -14.7219   21.3159 O   0  0  0  0  0  0  0  0  0  0  0  0
  -27.5431  -20.5185   33.3543 O   0  0  0  0  0  0  0  0  0  0  0  0
  -28.6645  -24.2868   33.5214 O   0  0  0  0  0  0  0  0  0  0  0  0
  -26.9768  -26.6370   30.5719 O   0  0  0  0  0  0  0  0  0  0  0  0
  -32.8020  -24.2975   28.0279 O   0  0  0  0  0  0  0  0  0  0  0  0
  -31.8584  -14.9332   20.1901 O   0  0  0  0  0  0  0  0  0  0  0  0
  -21.6074   -7.0207   21.7068 O   0  0  0  0  0  0  0  0  0  0  0  0
  -32.1275  -22.2391   27.1663 O   0  0  0  0  0  0  0  0  0  1  0  0
  -16.9311   -7.5705   24.5764 F   0  0  0  0  0  0  0  0  0  0  0  0
  -28.5711  -17.3692   23.1099 F   0  0  0  0  0  0  0  0  0  0  0  0
  -21.2537   -5.6989   24.1090 F   0  0  0  0  0  0  0  0  0  0  0  0
  1  2  1  0  0  0  0
  1  5  2  0  0  0  0
  2  6  2  0  0  0  0
  3 10  2  0  0  0  0
  3 18  1  0  0  0  0
  4 11  1  0  0  0  0
  4 18  2  0  0  0  0
  5 20  1  0  0  0  0
  6 22  1  0  0  0  0
  7 12  2  0  0  0  0
  7 21  1  0  0  0  0
  8  9  2  0  0  0  0
  8 24  1  0  0  0  0
  9 25  1  0  0  0  0
 10 26  1  0  0  0  0
 11 26  2  0  0  0  0
 12 27  1  0  0  0  0
 13 14  2  0  0  0  0
 13 28  1  0  0  0  0
 14 29  1  0  0  0  0
 15 23  1  0  0  0  0
 15 27  2  0  0  0  0
 16 24  2  0  0  0  0
 16 30  1  0  0  0  0
 17 29  2  0  0  0  0
 17 31  1  0  0  0  0
 18 32  1  0  0  0  0
 19 32  1  0  0  0  0
 19 33  2  0  0  0  0
 19 37  1  0  0  0  0
 20 22  2  0  0  0  0
 20 43  1  0  0  0  0
 21 23  2  0  0  0  0
 21 44  1  0  0  0  0
 22 54  1  0  0  0  0
 23 45  1  0  0  0  0
 24 68  1  0  0  0  0
 25 30  2  0  0  0  0
 25 74  1  0  0  0  0
 26 85  1  0  0  0  0
 27 86  1  0  0  0  0
 28 31  2  0  0  0  0
 28 85  1  0  0  0  0
 29 87  1  0  0  0  0
 30 88  1  0  0  0  0
 31 89  1  0  0  0  0
 32 66  2  0  0  0  0
 33 67  1  0  0  0  0
 33 72  1  0  0  0  0
 34 36  2  0  0  0  0
 34 46  1  0  0  0  0
 34 69  1  0  0  0  0
 35 47  1  0  0  0  0
 35 69  1  0  0  0  0
 35 78  2  0  0  0  0
 37 73  1  0  0  0  0
 37 79  2  0  0  0  0
 38 55  1  0  0  0  0
 38 75  1  0  0  0  0
 38 80  2  0  0  0  0
 39 63  1  0  0  0  0
 39 70  1  0  0  0  0
 39 81  2  0  0  0  0
 40 64  1  0  0  0  0
 40 76  1  0  0  0  0
 40 82  2  0  0  0  0
 41 62  1  0  0  0  0
 41 83  2  0  0  0  0
 41 86  1  0  0  0  0
 42 71  1  0  0  0  0
 42 74  1  0  0  0  0
 42 84  2  0  0  0  0
 43 48  1  0  0  0  0
 44 55  1  0  0  0  0
 45 70  1  0  0  0  0
 46 68  1  0  0  0  0
 47 68  1  0  0  0  0
 48 50  1  0  0  0  0
 49 51  1  0  0  0  0
 49 52  1  0  0  0  0
 50 54  1  0  0  0  0
 51 56  1  0  0  0  0
 52 71  1  0  0  0  0
 53 56  1  0  0  0  0
 53 71  1  0  0  0  0
 54 75  1  0  0  0  0
 55 70  1  0  0  0  0
 56 67  1  0  0  0  0
 57 64  1  0  0  0  0
 58 65  1  0  0  0  0
 59 65  1  0  0  0  0
 60 65  1  0  0  0  0
 61 77  1  0  0  0  0
 62 69  1  0  0  0  0
 63 65  1  0  0  0  0
 63 76  1  0  0  0  0
 64 77  1  0  0  0  0
 66 67  1  0  0  0  0
M  CHG  1  77   1
M  ISO  4  41 101  42 100  74 100  86 101
M  END
> <Batch ID>
0079

> <Smiles>
C=C1CN(c2ccc([100NH:0][100C:0](=O)N3CCCC(n4nc(-c5ccc(Oc6ccc(F)cc6F)cc5)c(C(N)=O)c4N)C3)c(F)c2)CC(=O)N1C[101C:1](=O)[101O:1]c1ccc2c(c1)CN(C(=O)C(NC(=O)C(C)NC)C(C)(C)C)C(C(=O)NC1CCCc3ccccc31)C2

> <Shape>
0.153

> <Color>
0.191

> <Negative vol penalty>
0.000

$$$$

  -OEChem-04042323593D

 88 97  0     1  0  0  0  0  0999 V2000
  -24.6402  -11.1274   20.0556 C   0  0  0  0  0  0  0  0  0  0  0  0
  -23.9277  -12.3220   20.0832 C   0  0  0  0  0  0  0  0  0  0  0  0
  -30.6537  -30.9297   21.2606 C   0  0  0  0  0  0  0  0  0  0  0  0
  -30.1531  -29.8114   23.3429 C   0  0  0  0  0  0  0  0  0  0  0  0
  -25.9241  -11.0703   20.5961 C   0  0  0  0  0  0  0  0  0  0  0  0
  -24.4983  -13.4599   20.6524 C   0  0  0  0  0  0  0  0  0  0  0  0
  -23.7396  -19.2596   18.8376 C   0  0  0  0  0  0  0  0  0  0  0  0
  -31.9515  -31.1794   21.7067 C   0  0  0  0  0  0  0  0  0  0  0  0
  -31.4509  -30.0611   23.7890 C   0  0  0  0  0  0  0  0  0  0  0  0
  -22.9147  -20.2857   19.2963 C   0  0  0  0  0  0  0  0  0  0  0  0
  -34.5369  -28.7666   23.3186 C   0  0  0  0  0  0  0  0  0  0  0  0
  -35.2219  -27.7188   23.9338 C   0  0  0  0  0  0  0  0  0  0  0  0
  -18.2949  -26.7848   22.3787 C   0  0  0  0  0  0  0  0  0  0  0  0
  -19.2253  -29.0111   22.4989 C   0  0  0  0  0  0  0  0  0  0  0  0
  -24.7287  -21.1349   20.6406 C   0  0  0  0  0  0  0  0  0  0  0  0
  -20.6910  -27.0943   22.3786 C   0  0  0  0  0  0  0  0  0  0  0  0
  -35.4277  -29.0363   25.9485 C   0  0  0  0  0  0  0  0  0  0  0  0
  -29.7544  -30.2458   22.0788 C   0  0  0  0  0  0  0  0  0  0  0  0
  -18.1165  -28.1658   22.4589 C   0  0  0  0  0  0  0  0  0  0  0  0
  -27.9612  -28.8618   20.9054 C   0  0  0  0  0  0  0  0  0  0  0  0
  -26.5145  -12.2105   21.1636 C   0  0  0  0  0  0  0  0  0  0  0  0
  -25.0642  -19.1569   19.2861 C   0  0  0  0  0  0  0  0  0  0  0  0
  -25.7908  -13.4176   21.2022 C   0  0  0  0  0  0  0  0  0  0  0  0
  -25.5691  -20.1081   20.1841 C   0  0  0  0  0  0  0  0  0  0  0  0
  -19.5822  -26.2490   22.3386 C   0  0  0  0  0  0  0  0  0  0  0  0
  -20.5126  -28.4754   22.4587 C   0  0  0  0  0  0  0  0  0  0  0  0
  -32.3501  -30.7451   22.9709 C   0  0  0  0  0  0  0  0  0  0  0  0
  -23.4083  -21.2219   20.2001 C   0  0  0  0  0  0  0  0  0  0  0  0
  -34.2974  -29.9493   24.0183 C   0  0  0  0  0  0  0  0  0  0  0  0
  -35.6673  -27.8536   25.2488 C   0  0  0  0  0  0  0  0  0  0  0  0
  -34.7427  -30.0841   25.3332 C   0  0  0  0  0  0  0  0  0  0  0  0
  -28.4135  -29.9881   21.6187 C   0  0  0  0  0  0  0  0  0  0  0  0
  -26.6219  -29.0947   20.7094 C   0  0  0  0  0  0  0  0  0  0  0  0
  -20.6050  -22.7798   21.8035 C   0  0  0  0  0  0  0  0  0  0  0  0
  -19.3741  -22.5688   22.5230 C   0  0  0  0  0  0  0  0  0  0  0  0
  -20.8502  -24.2395   21.6363 C   0  0  0  0  0  0  0  0  0  0  0  0
  -18.8055  -21.4104   22.8740 C   0  0  0  0  0  0  0  0  0  0  0  0
  -21.4637  -21.8823   21.3196 C   0  0  0  0  0  0  0  0  0  1  0  0
  -16.7744  -28.7244   22.5005 C   0  0  0  0  0  0  0  0  0  0  0  0
  -28.6869  -27.7083   20.4598 C   0  0  0  0  0  0  0  0  0  0  0  0
  -26.7222  -16.9809   20.9046 C   0  0  0  0  0  0  0  0  0  0  0  0
  -29.2132  -18.9477   20.2348 C   0  0  0  0  0  0  0  0  0  0  0  0
  -30.2956  -22.0872   19.4485 C   0  0  0  0  0  0  0  0  0  0  0  0
  -21.6371  -30.7265   22.5780 C   0  0  0  0  0  0  0  0  0  0  0  0
  -27.8865  -12.0881   21.7779 C   0  0  0  0  0  0  0  0  0  0  0  0
  -25.9492  -18.0598   18.7612 C   0  0  0  0  0  0  0  0  0  0  0  0
  -26.9900  -20.0541   20.6807 C   0  0  0  0  0  0  0  0  0  0  0  0
  -18.8069  -23.9220   22.8294 C   0  0  0  0  0  0  0  0  0  0  0  0
  -28.5650  -13.4329   22.0260 C   0  0  0  0  0  0  0  0  0  0  0  0
  -23.8607  -33.2708   21.4559 C   0  0  0  0  0  0  0  0  0  0  0  0
  -27.5954  -14.4055   22.6899 C   0  0  0  0  0  0  0  0  0  0  0  0
  -25.2062  -32.5509   21.3396 C   0  0  0  0  0  0  0  0  0  0  0  0
  -23.0504  -32.7691   22.6499 C   0  0  0  0  0  0  0  0  0  0  0  0
  -24.2057  -30.5941   22.5874 C   0  0  0  0  0  0  0  0  0  0  0  0
  -26.3854  -14.6796   21.7887 C   0  0  1  0  0  0  0  0  0  0  0  0
  -27.1274  -17.7514   19.6800 C   0  0  1  0  0  0  0  0  0  0  0  0
  -25.0299  -31.0199   21.3614 C   0  0  2  0  0  0  0  0  0  0  0  0
  -32.3906  -23.3941   19.0007 C   0  0  0  0  0  0  0  0  0  0  0  0
  -29.8281  -18.9811   23.2232 C   0  0  0  0  0  0  0  0  0  0  0  0
  -31.2719  -20.9889   22.8328 C   0  0  0  0  0  0  0  0  0  0  0  0
  -31.8394  -18.8164   21.7461 C   0  0  0  0  0  0  0  0  0  0  0  0
  -29.4237  -22.7665   16.7031 C   0  0  0  0  0  0  0  0  0  0  0  0
  -29.8498  -20.1360   20.9142 C   0  0  1  0  0  0  0  0  0  0  0  0
  -31.2600  -22.5837   18.3863 C   0  0  2  0  0  0  0  0  0  0  0  0
  -30.6699  -19.7307   22.1714 C   0  0  0  0  0  0  0  0  0  0  0  0
  -27.4405  -30.8708   21.8595 N   0  0  0  0  0  0  0  0  0  0  0  0
  -26.3635  -30.2994   21.2942 N   0  0  0  0  0  0  0  0  0  0  0  0
  -19.7602  -24.8715   22.2587 N   0  0  0  0  0  0  0  0  0  0  0  0
  -27.8142  -18.9589   20.1431 N   0  0  0  0  0  0  0  0  0  0  0  0
  -22.9210  -31.3111   22.6015 N   0  0  0  0  0  0  0  0  0  0  0  0
  -25.6518  -28.3844   20.0955 N   0  0  0  0  0  0  0  0  0  0  0  0
  -16.6512  -30.1085   22.5804 N   0  0  0  0  0  0  0  0  0  0  0  0
  -30.0567  -27.6291   20.7458 N   0  0  0  0  0  0  0  0  0  0  0  0
  -21.6388  -29.3343   22.4990 N   0  0  0  0  0  0  0  0  0  0  0  0
  -26.7385  -15.6093   20.7373 N   0  0  0  0  0  0  0  0  0  0  0  0
  -30.6278  -20.8237   19.8894 N   0  0  0  0  0  0  0  0  0  0  0  0
  -30.5467  -23.4442   17.4006 N   0  3  0  0  0  0  0  0  0  0  0  0
  -21.8060  -24.7457   21.0725 O   0  0  0  0  0  0  0  0  0  0  0  0
  -15.7676  -27.9946   22.4827 O   0  0  0  0  0  0  0  0  0  0  0  0
  -28.1403  -26.7832   19.8126 O   0  0  0  0  0  0  0  0  0  0  0  0
  -26.4187  -17.5859   21.9262 O   0  0  0  0  0  0  0  0  0  0  0  0
  -29.9313  -18.0462   19.7951 O   0  0  0  0  0  0  0  0  0  0  0  0
  -29.3451  -22.7551   19.8497 O   0  0  0  0  0  0  0  0  0  0  0  0
  -20.6115  -31.4119   22.5971 O   0  0  0  0  0  0  0  0  0  0  0  0
  -33.6165  -30.9883   23.4064 O   0  0  0  0  0  0  0  0  0  0  0  0
  -22.6050  -22.2240   20.6500 O   0  0  0  0  0  0  0  0  0  1  0  0
  -36.3237  -26.8467   25.8399 F   0  0  0  0  0  0  0  0  0  0  0  0
  -34.5145  -31.2174   26.0109 F   0  0  0  0  0  0  0  0  0  0  0  0
  1  2  1  0  0  0  0
  1  5  2  0  0  0  0
  2  6  2  0  0  0  0
  3  8  2  0  0  0  0
  3 18  1  0  0  0  0
  4  9  1  0  0  0  0
  4 18  2  0  0  0  0
  5 21  1  0  0  0  0
  6 23  1  0  0  0  0
  7 10  2  0  0  0  0
  7 22  1  0  0  0  0
  8 27  1  0  0  0  0
  9 27  2  0  0  0  0
 10 28  1  0  0  0  0
 11 12  2  0  0  0  0
 11 29  1  0  0  0  0
 12 30  1  0  0  0  0
 13 19  1  0  0  0  0
 13 25  2  0  0  0  0
 14 19  2  0  0  0  0
 14 26  1  0  0  0  0
 15 24  1  0  0  0  0
 15 28  2  0  0  0  0
 16 25  1  0  0  0  0
 16 26  2  0  0  0  0
 17 30  2  0  0  0  0
 17 31  1  0  0  0  0
 18 32  1  0  0  0  0
 19 39  1  0  0  0  0
 20 32  1  0  0  0  0
 20 33  2  0  0  0  0
 20 40  1  0  0  0  0
 21 23  2  0  0  0  0
 21 45  1  0  0  0  0
 22 24  2  0  0  0  0
 22 46  1  0  0  0  0
 23 55  1  0  0  0  0
 24 47  1  0  0  0  0
 25 68  1  0  0  0  0
 26 74  1  0  0  0  0
 27 85  1  0  0  0  0
 28 86  1  0  0  0  0
 29 31  2  0  0  0  0
 29 85  1  0  0  0  0
 30 87  1  0  0  0  0
 31 88  1  0  0  0  0
 32 66  2  0  0  0  0
 33 67  1  0  0  0  0
 33 71  1  0  0  0  0
 34 35  1  0  0  0  0
 34 36  1  0  0  0  0
 34 38  2  0  0  0  0
 35 37  2  0  0  0  0
 35 48  1  0  0  0  0
 36 68  1  0  0  0  0
 36 78  2  0  0  0  0
 38 86  1  0  0  0  0
 39 72  1  0  0  0  0
 39 79  2  0  0  0  0
 40 73  1  0  0  0  0
 40 80  2  0  0  0  0
 41 56  1  0  0  0  0
 41 75  1  0  0  0  0
 41 81  2  0  0  0  0
 42 63  1  0  0  0  0
 42 69  1  0  0  0  0
 42 82  2  0  0  0  0
 43 64  1  0  0  0  0
 43 76  1  0  0  0  0
 43 83  2  0  0  0  0
 44 70  1  0  0  0  0
 44 74  1  0  0  0  0
 44 84  2  0  0  0  0
 45 49  1  0  0  0  0
 46 56  1  0  0  0  0
 47 69  1  0  0  0  0
 48 68  1  0  0  0  0
 49 51  1  0  0  0  0
 50 52  1  0  0  0  0
 50 53  1  0  0  0  0
 51 55  1  0  0  0  0
 52 57  1  0  0  0  0
 53 70  1  0  0  0  0
 54 57  1  0  0  0  0
 54 70  1  0  0  0  0
 55 75  1  0  0  0  0
 56 69  1  0  0  0  0
 57 67  1  0  0  0  0
 58 64  1  0  0  0  0
 59 65  1  0  0  0  0
 60 65  1  0  0  0  0
 61 65  1  0  0  0  0
 62 77  1  0  0  0  0
 63 65  1  0  0  0  0
 63 76  1  0  0  0  0
 64 77  1  0  0  0  0
 66 67  1  0  0  0  0
M  CHG  1  77   1
M  ISO  4  38 101  44 100  74 100  86 101
M  END
> <Batch ID>
0079

> <Smiles>
C=C1CN(c2cc([100NH:0][100C:0](=O)N3CCCC(n4nc(-c5ccc(Oc6ccc(F)cc6F)cc5)c(C(N)=O)c4N)C3)cc(C(N)=O)c2)C(=O)C1=[101CH:1][101O:1]c1ccc2c(c1)CN(C(=O)C(NC(=O)C(C)NC)C(C)(C)C)C(C(=O)NC1CCCc3ccccc31)C2

> <Shape>
0.239

> <Color>
0.091

> <Negative vol penalty>
0.000

$$$$

  -OEChem-04042323593D

 86 94  0     1  0  0  0  0  0999 V2000
  -28.3326  -33.3468   25.5324 C   0  0  0  0  0  0  0  0  0  0  0  0
  -28.3944  -32.0792   24.9625 C   0  0  0  0  0  0  0  0  0  0  0  0
  -24.5330   -9.6558   21.7656 C   0  0  0  0  0  0  0  0  0  0  0  0
  -23.3565  -10.9560   20.1036 C   0  0  0  0  0  0  0  0  0  0  0  0
  -27.0994  -33.8886   25.8923 C   0  0  0  0  0  0  0  0  0  0  0  0
  -27.2230  -31.3522   24.7531 C   0  0  0  0  0  0  0  0  0  0  0  0
  -27.0786  -29.1749   20.1833 C   0  0  0  0  0  0  0  0  0  0  0  0
  -26.2769  -18.0430   17.3838 C   0  0  0  0  0  0  0  0  0  0  0  0
  -25.6830  -19.2300   16.9551 C   0  0  0  0  0  0  0  0  0  0  0  0
  -23.3161   -9.2885   22.3398 C   0  0  0  0  0  0  0  0  0  0  0  0
  -22.1395  -10.5887   20.6778 C   0  0  0  0  0  0  0  0  0  0  0  0
  -27.8242  -28.0097   20.0093 C   0  0  0  0  0  0  0  0  0  0  0  0
  -20.8340   -7.0786   21.7168 C   0  0  0  0  0  0  0  0  0  0  0  0
  -20.6576   -5.7383   22.0604 C   0  0  0  0  0  0  0  0  0  0  0  0
  -27.6908  -19.2945   18.8909 C   0  0  0  0  0  0  0  0  0  0  0  0
  -25.8223  -26.6937   20.2913 C   0  0  0  0  0  0  0  0  0  0  0  0
  -20.3272   -6.3735   24.3679 C   0  0  0  0  0  0  0  0  0  0  0  0
  -24.5533  -10.4896   20.6475 C   0  0  0  0  0  0  0  0  0  0  0  0
  -27.0970  -20.4817   18.4622 C   0  0  0  0  0  0  0  0  0  0  0  0
  -26.5068  -10.1956   19.0335 C   0  0  0  0  0  0  0  0  0  0  0  0
  -25.9114  -33.1719   25.6783 C   0  0  0  0  0  0  0  0  0  0  0  0
  -25.6987  -29.1076   20.4238 C   0  0  0  0  0  0  0  0  0  0  0  0
  -25.9729  -31.8845   25.1116 C   0  0  0  0  0  0  0  0  0  0  0  0
  -25.0610  -27.8595   20.4655 C   0  0  0  0  0  0  0  0  0  0  0  0
  -27.2807  -18.0752   18.3518 C   0  0  0  0  0  0  0  0  0  0  0  0
  -26.0931  -20.4494   17.4943 C   0  0  0  0  0  0  0  0  0  0  0  0
  -22.1193   -9.7550   21.7959 C   0  0  0  0  0  0  0  0  0  0  0  0
  -27.1966  -26.7688   20.0661 C   0  0  0  0  0  0  0  0  0  0  0  0
  -20.7570   -8.0663   22.6987 C   0  0  0  0  0  0  0  0  0  0  0  0
  -20.4042   -5.3857   23.3860 C   0  0  0  0  0  0  0  0  0  0  0  0
  -20.5036   -7.7138   24.0243 C   0  0  0  0  0  0  0  0  0  0  0  0
  -25.8101  -10.8698   20.0543 C   0  0  0  0  0  0  0  0  0  0  0  0
  -27.6333  -10.9540   18.8280 C   0  0  0  0  0  0  0  0  0  0  0  0
  -28.5904  -25.4618   18.7171 C   0  0  0  0  0  0  0  0  0  1  0  0
  -27.5555  -21.7635   19.0569 C   0  0  0  0  0  0  0  0  0  0  0  0
  -26.1660   -8.9916   18.3335 C   0  0  0  0  0  0  0  0  0  0  0  0
  -29.3428  -24.3910   18.4138 C   0  0  0  0  0  0  0  0  0  0  0  0
  -23.7928  -29.9842   22.8118 C   0  0  0  0  0  0  0  0  0  0  0  0
  -21.4504  -29.0878   20.7546 C   0  0  0  0  0  0  0  0  0  0  0  0
  -20.5227  -27.2073   18.0621 C   0  0  0  0  0  0  0  0  0  0  0  0
  -28.8923  -16.7238   19.7385 C   0  0  0  0  0  0  0  0  0  0  0  0
  -24.6061  -33.7796   26.1271 C   0  0  0  0  0  0  0  0  0  0  0  0
  -24.9041  -30.3747   20.5828 C   0  0  0  0  0  0  0  0  0  0  0  0
  -23.5787  -27.7339   20.7008 C   0  0  0  0  0  0  0  0  0  0  0  0
  -23.3788  -33.0981   25.5274 C   0  0  0  0  0  0  0  0  0  0  0  0
  -30.6145  -13.9262   21.1112 C   0  0  0  0  0  0  0  0  0  0  0  0
  -23.5063  -31.5816   25.6311 C   0  0  0  0  0  0  0  0  0  0  0  0
  -29.6439  -12.7624   20.8976 C   0  0  0  0  0  0  0  0  0  0  0  0
  -29.8804  -15.2214   21.4536 C   0  0  0  0  0  0  0  0  0  0  0  0
  -27.8510  -14.4392   20.2966 C   0  0  0  0  0  0  0  0  0  0  0  0
  -24.7221  -31.0751   24.8458 C   0  0  1  0  0  0  0  0  0  0  0  0
  -23.5925  -30.1672   21.3340 C   0  0  1  0  0  0  0  0  0  0  0  0
  -28.5401  -13.1277   19.8857 C   0  0  2  0  0  0  0  0  0  0  0  0
  -30.0568  -24.2625   17.0936 C   0  0  0  0  0  0  0  0  0  0  0  0
  -30.9465  -23.0152   19.8245 C   0  0  0  0  0  0  0  0  0  0  0  0
  -18.5326  -26.6553   16.6365 C   0  0  0  0  0  0  0  0  0  0  0  0
  -20.3650  -27.2918   22.9696 C   0  0  0  0  0  0  0  0  0  0  0  0
  -19.0118  -26.0921   21.2381 C   0  0  0  0  0  0  0  0  0  0  0  0
  -18.6155  -28.5171   21.6687 C   0  0  0  0  0  0  0  0  0  0  0  0
  -21.8263  -28.2704   15.6271 C   0  0  0  0  0  0  0  0  0  0  0  0
  -29.4971  -23.2655   19.4180 C   0  0  2  0  0  0  0  0  0  0  0  0
  -20.7188  -27.7999   20.4631 C   0  0  1  0  0  0  0  0  0  0  0  0
  -19.7433  -27.5595   16.8079 C   0  0  2  0  0  0  0  0  0  0  0  0
  -19.7060  -27.4272   21.5823 C   0  0  0  0  0  0  0  0  0  0  0  0
  -26.4414  -11.9715   20.4686 N   0  0  0  0  0  0  0  0  0  0  0  0
  -27.5465  -11.9955   19.7044 N   0  0  0  0  0  0  0  0  0  0  0  0
  -22.8461  -29.0014   20.8566 N   0  0  0  0  0  0  0  0  0  0  0  0
  -28.8530  -15.5057   20.4494 N   0  0  0  0  0  0  0  0  0  0  0  0
  -25.4793  -21.6402   17.0458 N   0  0  0  0  0  0  0  0  0  0  0  0
  -28.6799  -10.8248   17.9851 N   0  0  0  0  0  0  0  0  0  0  0  0
  -24.9720   -8.3388   18.6691 N   0  0  0  0  0  0  0  0  0  0  0  0
  -27.8834  -16.8689   18.7868 N   0  0  0  0  0  0  0  0  0  0  0  0
  -28.8966  -22.0690   18.8789 N   0  0  0  0  0  0  0  0  0  0  0  0
  -24.4309  -31.0434   23.4286 N   0  0  0  0  0  0  0  0  0  0  0  0
  -20.1183  -27.9613   19.1433 N   0  0  0  0  0  0  0  0  0  0  0  0
  -20.6093  -27.4188   15.6032 N   0  3  0  0  0  0  0  0  0  0  0  0
  -26.7539  -22.4585   19.6757 O   0  0  0  0  0  0  0  0  0  0  0  0
  -26.9066   -8.5001   17.4485 O   0  0  0  0  0  0  0  0  0  0  0  0
  -23.3962  -28.9587   23.3528 O   0  0  0  0  0  0  0  0  0  0  0  0
  -20.8078  -30.1333   20.8799 O   0  0  0  0  0  0  0  0  0  0  0  0
  -21.3998  -26.3465   18.0815 O   0  0  0  0  0  0  0  0  0  0  0  0
  -29.7733  -17.5639   19.9387 O   0  0  0  0  0  0  0  0  0  0  0  0
  -20.9316   -9.3966   22.3558 O   0  0  0  0  0  0  0  0  0  0  0  0
  -27.9221  -25.6299   19.8973 O   0  0  0  0  0  0  0  0  0  1  0  0
  -20.2333   -4.0987   23.7156 F   0  0  0  0  0  0  0  0  0  0  0  0
  -20.4274   -8.6583   24.9718 F   0  0  0  0  0  0  0  0  0  0  0  0
  1  2  1  0  0  0  0
  1  5  2  0  0  0  0
  2  6  2  0  0  0  0
  3 10  2  0  0  0  0
  3 18  1  0  0  0  0
  4 11  1  0  0  0  0
  4 18  2  0  0  0  0
  5 21  1  0  0  0  0
  6 23  1  0  0  0  0
  7 12  2  0  0  0  0
  7 22  1  0  0  0  0
  8  9  2  0  0  0  0
  8 25  1  0  0  0  0
  9 26  1  0  0  0  0
 10 27  1  0  0  0  0
 11 27  2  0  0  0  0
 12 28  1  0  0  0  0
 13 14  2  0  0  0  0
 13 29  1  0  0  0  0
 14 30  1  0  0  0  0
 15 19  1  0  0  0  0
 15 25  2  0  0  0  0
 16 24  1  0  0  0  0
 16 28  2  0  0  0  0
 17 30  2  0  0  0  0
 17 31  1  0  0  0  0
 18 32  1  0  0  0  0
 19 26  2  0  0  0  0
 19 35  1  0  0  0  0
 20 32  1  0  0  0  0
 20 33  2  0  0  0  0
 20 36  1  0  0  0  0
 21 23  2  0  0  0  0
 21 42  1  0  0  0  0
 22 24  2  0  0  0  0
 22 43  1  0  0  0  0
 23 51  1  0  0  0  0
 24 44  1  0  0  0  0
 25 72  1  0  0  0  0
 26 69  1  0  0  0  0
 27 83  1  0  0  0  0
 28 84  1  0  0  0  0
 29 31  2  0  0  0  0
 29 83  1  0  0  0  0
 30 85  1  0  0  0  0
 31 86  1  0  0  0  0
 32 65  2  0  0  0  0
 33 66  1  0  0  0  0
 33 70  1  0  0  0  0
 34 37  2  0  0  0  0
 34 84  1  0  0  0  0
 35 73  1  0  0  0  0
 35 77  2  0  0  0  0
 36 71  1  0  0  0  0
 36 78  2  0  0  0  0
 37 54  1  0  0  0  0
 37 61  1  0  0  0  0
 38 52  1  0  0  0  0
 38 74  1  0  0  0  0
 38 79  2  0  0  0  0
 39 62  1  0  0  0  0
 39 67  1  0  0  0  0
 39 80  2  0  0  0  0
 40 63  1  0  0  0  0
 40 75  1  0  0  0  0
 40 81  2  0  0  0  0
 41 68  1  0  0  0  0
 41 72  1  0  0  0  0
 41 82  2  0  0  0  0
 42 45  1  0  0  0  0
 43 52  1  0  0  0  0
 44 67  1  0  0  0  0
 45 47  1  0  0  0  0
 46 48  1  0  0  0  0
 46 49  1  0  0  0  0
 47 51  1  0  0  0  0
 48 53  1  0  0  0  0
 49 68  1  0  0  0  0
 50 53  1  0  0  0  0
 50 68  1  0  0  0  0
 51 74  1  0  0  0  0
 52 67  1  0  0  0  0
 53 66  1  0  0  0  0
 55 61  1  0  0  0  0
 56 63  1  0  0  0  0
 57 64  1  0  0  0  0
 58 64  1  0  0  0  0
 59 64  1  0  0  0  0
 60 76  1  0  0  0  0
 61 73  1  0  0  0  0
 62 64  1  0  0  0  0
 62 75  1  0  0  0  0
 63 76  1  0  0  0  0
 65 66  1  0  0  0  0
M  CHG  1  76   1
M  ISO  4  34 101  41 100  72 100  84 101
M  END
> <Batch ID>
0079

> <Smiles>
CNC(C)C(=O)NC(C(=O)N1Cc2cc([101O:1][101CH:1]=C(C)C(C)NC(=O)c3cc([100NH:0][100C:0](=O)N4CCCC(n5nc(-c6ccc(Oc7ccc(F)cc7F)cc6)c(C(N)=O)c5N)C4)ccc3N)ccc2CC1C(=O)NC1CCCc2ccccc21)C(C)(C)C

> <Shape>
0.325

> <Color>
0.075

> <Negative vol penalty>
0.000

$$$$

  -OEChem-04042323593D

 84 92  0     1  0  0  0  0  0999 V2000
  -17.9420  -30.9209   23.2009 C   0  0  0  0  0  0  0  0  0  0  0  0
  -19.3255  -31.0631   23.1660 C   0  0  0  0  0  0  0  0  0  0  0  0
  -28.2145  -12.3259   21.6088 C   0  0  0  0  0  0  0  0  0  0  0  0
  -26.4092  -13.0981   20.2010 C   0  0  0  0  0  0  0  0  0  0  0  0
  -29.2950  -23.7020   18.8774 C   0  0  0  0  0  0  0  0  0  0  0  0
  -29.5252  -24.6274   21.0973 C   0  0  0  0  0  0  0  0  0  0  0  0
  -17.3691  -29.6560   23.0754 C   0  0  0  0  0  0  0  0  0  0  0  0
  -20.1369  -29.9403   23.0068 C   0  0  0  0  0  0  0  0  0  0  0  0
  -25.4540  -29.6395   19.9828 C   0  0  0  0  0  0  0  0  0  0  0  0
  -28.5313  -22.6548   19.3931 C   0  0  0  0  0  0  0  0  0  0  0  0
  -28.7615  -23.5802   21.6130 C   0  0  0  0  0  0  0  0  0  0  0  0
  -27.7035  -11.0292   21.5529 C   0  0  0  0  0  0  0  0  0  0  0  0
  -25.8982  -11.8014   20.1450 C   0  0  0  0  0  0  0  0  0  0  0  0
  -26.7802  -29.6840   20.4107 C   0  0  0  0  0  0  0  0  0  0  0  0
  -23.9161   -8.7629   19.9256 C   0  0  0  0  0  0  0  0  0  0  0  0
  -22.5416   -8.5997   20.0976 C   0  0  0  0  0  0  0  0  0  0  0  0
  -26.8539  -27.2728   20.4133 C   0  0  0  0  0  0  0  0  0  0  0  0
  -22.6990   -9.5905   22.2955 C   0  0  0  0  0  0  0  0  0  0  0  0
  -27.5673  -13.3604   20.9329 C   0  0  0  0  0  0  0  0  0  0  0  0
  -29.7919  -24.6882   19.7295 C   0  0  0  0  0  0  0  0  0  0  0  0
  -29.0279  -15.2850   20.1143 C   0  0  0  0  0  0  0  0  0  0  0  0
  -18.1735  -28.5182   22.9048 C   0  0  0  0  0  0  0  0  0  0  0  0
  -24.8133  -28.4091   19.7772 C   0  0  0  0  0  0  0  0  0  0  0  0
  -19.5742  -28.6588   22.8803 C   0  0  0  0  0  0  0  0  0  0  0  0
  -25.5203  -27.2154   19.9804 C   0  0  0  0  0  0  0  0  0  0  0  0
  -28.2646  -22.5940   20.7609 C   0  0  0  0  0  0  0  0  0  0  0  0
  -26.5454  -10.7670   20.8210 C   0  0  0  0  0  0  0  0  0  0  0  0
  -27.4794  -28.5006   20.6287 C   0  0  0  0  0  0  0  0  0  0  0  0
  -24.6822   -9.3398   20.9386 C   0  0  0  0  0  0  0  0  0  0  0  0
  -21.9330   -9.0136   21.2826 C   0  0  0  0  0  0  0  0  0  0  0  0
  -24.0736   -9.7536   22.1235 C   0  0  0  0  0  0  0  0  0  0  0  0
  -28.0944  -14.7001   20.9908 C   0  0  0  0  0  0  0  0  0  0  0  0
  -29.1977  -16.5605   20.5948 C   0  0  0  0  0  0  0  0  0  0  0  0
  -30.6051  -25.8031   19.1805 C   0  0  0  0  0  0  0  0  0  0  0  0
  -29.6829  -14.7254   18.9682 C   0  0  0  0  0  0  0  0  0  0  0  0
  -22.2950  -26.9502   21.0551 C   0  0  0  0  0  0  0  0  0  0  0  0
  -22.8620  -24.7716   18.7197 C   0  0  0  0  0  0  0  0  0  0  0  0
  -31.2845  -28.1455   19.5767 C   0  0  0  0  0  0  0  0  0  0  0  0
  -25.0908  -23.3556   16.5577 C   0  0  0  0  0  0  0  0  0  0  0  0
  -27.1312  -21.3198   22.6151 C   0  0  0  0  0  0  0  0  0  0  0  0
  -17.5103  -27.1663   22.8210 C   0  0  0  0  0  0  0  0  0  0  0  0
  -23.3907  -28.3783   19.2899 C   0  0  0  0  0  0  0  0  0  0  0  0
  -24.8845  -25.8689   19.7546 C   0  0  0  0  0  0  0  0  0  0  0  0
  -18.4259  -26.0713   22.2797 C   0  0  0  0  0  0  0  0  0  0  0  0
  -27.6775  -18.6749   24.9353 C   0  0  0  0  0  0  0  0  0  0  0  0
  -19.7894  -26.1304   22.9610 C   0  0  0  0  0  0  0  0  0  0  0  0
  -27.9115  -17.4531   24.0438 C   0  0  0  0  0  0  0  0  0  0  0  0
  -26.6240  -19.6122   24.3478 C   0  0  0  0  0  0  0  0  0  0  0  0
  -27.1014  -18.8065   22.0692 C   0  0  0  0  0  0  0  0  0  0  0  0
  -20.4869  -27.4677   22.6842 C   0  0  1  0  0  0  0  0  0  0  0  0
  -22.6787  -27.0669   19.6071 C   0  0  1  0  0  0  0  0  0  0  0  0
  -28.2013  -17.8655   22.5873 C   0  0  2  0  0  0  0  0  0  0  0  0
  -25.2704  -21.5723   14.8012 C   0  0  0  0  0  0  0  0  0  0  0  0
  -22.9083  -22.6348   20.8973 C   0  0  0  0  0  0  0  0  0  0  0  0
  -24.0080  -21.0909   19.2618 C   0  0  0  0  0  0  0  0  0  0  0  0
  -21.7169  -21.9645   18.8031 C   0  0  0  0  0  0  0  0  0  0  0  0
  -25.8168  -25.3230   14.4693 C   0  0  0  0  0  0  0  0  0  0  0  0
  -31.0193  -29.2645   20.5721 C   0  0  0  0  0  0  0  0  0  0  0  0
  -29.5534  -29.6644   20.6384 C   0  0  0  0  0  0  0  0  0  1  0  0
  -23.6995  -23.5208   18.6049 C   0  0  1  0  0  0  0  0  0  0  0  0
  -24.9964  -23.0429   15.0752 C   0  0  2  0  0  0  0  0  0  0  0  0
  -23.0948  -22.3279   19.3980 C   0  0  0  0  0  0  0  0  0  0  0  0
  -27.6990  -15.5354   21.9552 N   0  0  0  0  0  0  0  0  0  0  0  0
  -28.3874  -16.6581   21.6875 N   0  0  0  0  0  0  0  0  0  0  0  0
  -23.4896  -25.8911   19.2842 N   0  0  0  0  0  0  0  0  0  0  0  0
  -26.9670  -19.9636   22.9680 N   0  0  0  0  0  0  0  0  0  0  0  0
  -29.9596  -17.5968   20.1850 N   0  0  0  0  0  0  0  0  0  0  0  0
  -29.3935  -13.4007   18.6138 N   0  0  0  0  0  0  0  0  0  0  0  0
  -27.4886  -21.5299   21.2837 N   0  0  0  0  0  0  0  0  0  0  0  0
  -30.5682  -26.9920   19.9071 N   0  0  0  0  0  0  0  0  0  0  0  0
  -21.0523  -27.4767   21.3520 N   0  0  0  0  0  0  0  0  0  0  0  0
  -23.8622  -23.2680   17.1773 N   0  0  0  0  0  0  0  0  0  0  0  0
  -25.9844  -23.8554   14.3105 N   0  3  0  0  0  0  0  0  0  0  0  0
  -31.2669  -25.6157   18.1631 O   0  0  0  0  0  0  0  0  0  0  0  0
  -30.5129  -15.3755   18.2885 O   0  0  0  0  0  0  0  0  0  0  0  0
  -23.0684  -26.4204   21.8443 O   0  0  0  0  0  0  0  0  0  0  0  0
  -21.6963  -24.7580   18.3166 O   0  0  0  0  0  0  0  0  0  0  0  0
  -32.0346  -28.2647   18.6120 O   0  0  0  0  0  0  0  0  0  0  0  0
  -26.1493  -23.6448   17.1114 O   0  0  0  0  0  0  0  0  0  0  0  0
  -26.9936  -22.2263   23.4405 O   0  0  0  0  0  0  0  0  0  0  0  0
  -26.0466   -9.5018   20.7659 O   0  0  0  0  0  0  0  0  0  0  0  0
  -28.7738  -28.5412   21.0469 O   0  0  0  0  0  0  0  0  0  1  0  0
  -20.6128   -8.8582   21.4470 F   0  0  0  0  0  0  0  0  0  0  0  0
  -24.8042  -10.3096   23.0997 F   0  0  0  0  0  0  0  0  0  0  0  0
  1  2  1  0  0  0  0
  1  7  2  0  0  0  0
  2  8  2  0  0  0  0
  3 12  2  0  0  0  0
  3 19  1  0  0  0  0
  4 13  1  0  0  0  0
  4 19  2  0  0  0  0
  5 10  2  0  0  0  0
  5 20  1  0  0  0  0
  6 11  1  0  0  0  0
  6 20  2  0  0  0  0
  7 22  1  0  0  0  0
  8 24  1  0  0  0  0
  9 14  2  0  0  0  0
  9 23  1  0  0  0  0
 10 26  1  0  0  0  0
 11 26  2  0  0  0  0
 12 27  1  0  0  0  0
 13 27  2  0  0  0  0
 14 28  1  0  0  0  0
 15 16  2  0  0  0  0
 15 29  1  0  0  0  0
 16 30  1  0  0  0  0
 17 25  1  0  0  0  0
 17 28  2  0  0  0  0
 18 30  2  0  0  0  0
 18 31  1  0  0  0  0
 19 32  1  0  0  0  0
 20 34  1  0  0  0  0
 21 32  1  0  0  0  0
 21 33  2  0  0  0  0
 21 35  1  0  0  0  0
 22 24  2  0  0  0  0
 22 41  1  0  0  0  0
 23 25  2  0  0  0  0
 23 42  1  0  0  0  0
 24 50  1  0  0  0  0
 25 43  1  0  0  0  0
 26 69  1  0  0  0  0
 27 81  1  0  0  0  0
 28 82  1  0  0  0  0
 29 31  2  0  0  0  0
 29 81  1  0  0  0  0
 30 83  1  0  0  0  0
 31 84  1  0  0  0  0
 32 63  2  0  0  0  0
 33 64  1  0  0  0  0
 33 67  1  0  0  0  0
 34 70  1  0  0  0  0
 34 74  2  0  0  0  0
 35 68  1  0  0  0  0
 35 75  2  0  0  0  0
 36 51  1  0  0  0  0
 36 71  1  0  0  0  0
 36 76  2  0  0  0  0
 37 60  1  0  0  0  0
 37 65  1  0  0  0  0
 37 77  2  0  0  0  0
 38 58  1  0  0  0  0
 38 70  1  0  0  0  0
 38 78  2  0  0  0  0
 39 61  1  0  0  0  0
 39 72  1  0  0  0  0
 39 79  2  0  0  0  0
 40 66  1  0  0  0  0
 40 69  1  0  0  0  0
 40 80  2  0  0  0  0
 41 44  1  0  0  0  0
 42 51  1  0  0  0  0
 43 65  1  0  0  0  0
 44 46  1  0  0  0  0
 45 47  1  0  0  0  0
 45 48  1  0  0  0  0
 46 50  1  0  0  0  0
 47 52  1  0  0  0  0
 48 66  1  0  0  0  0
 49 52  1  0  0  0  0
 49 66  1  0  0  0  0
 50 71  1  0  0  0  0
 51 65  1  0  0  0  0
 52 64  1  0  0  0  0
 53 61  1  0  0  0  0
 54 62  1  0  0  0  0
 55 62  1  0  0  0  0
 56 62  1  0  0  0  0
 57 73  1  0  0  0  0
 58 59  1  0  0  0  0
 59 82  1  0  0  0  0
 60 62  1  0  0  0  0
 60 72  1  0  0  0  0
 61 73  1  0  0  0  0
 63 64  1  0  0  0  0
M  CHG  1  73   1
M  ISO  4  40 100  59 101  69 100  82 101
M  END
> <Batch ID>
0079

> <Smiles>
CNC(C)C(=O)NC(C(=O)N1Cc2cc([101O:1][101CH2:1]CC(=O)NC(=O)c3ccc([100NH:0][100C:0](=O)N4CCCC(n5nc(-c6ccc(Oc7ccc(F)cc7F)cc6)c(C(N)=O)c5N)C4)cc3)ccc2CC1C(=O)NC1CCCc2ccccc21)C(C)(C)C

> <Shape>
0.264

> <Color>
0.076

> <Negative vol penalty>
0.000

$$$$

  -OEChem-04042323593D

 85 94  0     1  0  0  0  0  0999 V2000
  -26.8522  -36.3739   21.5521 C   0  0  0  0  0  0  0  0  0  0  0  0
  -27.6733  -35.2510   21.5322 C   0  0  0  0  0  0  0  0  0  0  0  0
  -23.5756   -9.7808   21.9248 C   0  0  0  0  0  0  0  0  0  0  0  0
  -24.4152  -11.1015   23.7654 C   0  0  0  0  0  0  0  0  0  0  0  0
  -25.5077  -36.2468   21.8990 C   0  0  0  0  0  0  0  0  0  0  0  0
  -27.1507  -34.0006   21.8603 C   0  0  0  0  0  0  0  0  0  0  0  0
  -28.7406  -28.5989   19.4519 C   0  0  0  0  0  0  0  0  0  0  0  0
  -31.8003  -19.2535   19.7356 C   0  0  0  0  0  0  0  0  0  0  0  0
  -29.5269  -19.9983   20.0729 C   0  0  0  0  0  0  0  0  0  0  0  0
  -31.3410  -17.9573   19.5020 C   0  0  0  0  0  0  0  0  0  0  0  0
  -29.0676  -18.7021   19.8392 C   0  0  0  0  0  0  0  0  0  0  0  0
  -23.0561   -8.8530   22.8274 C   0  0  0  0  0  0  0  0  0  0  0  0
  -23.8957  -10.1737   24.6681 C   0  0  0  0  0  0  0  0  0  0  0  0
  -29.5967  -27.5908   19.8930 C   0  0  0  0  0  0  0  0  0  0  0  0
  -24.2124   -6.3006   24.7176 C   0  0  0  0  0  0  0  0  0  0  0  0
  -24.4203   -4.9480   24.4474 C   0  0  0  0  0  0  0  0  0  0  0  0
  -27.7140  -26.4119   20.8337 C   0  0  0  0  0  0  0  0  0  0  0  0
  -22.0313   -4.5968   24.3672 C   0  0  0  0  0  0  0  0  0  0  0  0
  -24.2552  -10.9050   22.3937 C   0  0  0  0  0  0  0  0  0  0  0  0
  -24.1442  -13.0000   20.9423 C   0  0  0  0  0  0  0  0  0  0  0  0
  -24.9661  -34.9926   22.2222 C   0  0  0  0  0  0  0  0  0  0  0  0
  -27.3639  -28.5263   19.7084 C   0  0  0  0  0  0  0  0  0  0  0  0
  -25.7981  -33.8568   22.2132 C   0  0  0  0  0  0  0  0  0  0  0  0
  -26.8423  -27.4191   20.3926 C   0  0  0  0  0  0  0  0  0  0  0  0
  -30.8932  -20.2740   20.0212 C   0  0  0  0  0  0  0  0  0  0  0  0
  -29.9747  -17.6816   19.5537 C   0  0  0  0  0  0  0  0  0  0  0  0
  -23.2161   -9.0494   24.1991 C   0  0  0  0  0  0  0  0  0  0  0  0
  -29.0839  -26.4985   20.5865 C   0  0  0  0  0  0  0  0  0  0  0  0
  -22.9139   -6.8012   24.8127 C   0  0  0  0  0  0  0  0  0  0  0  0
  -23.3298   -4.0961   24.2721 C   0  0  0  0  0  0  0  0  0  0  0  0
  -21.8234   -5.9493   24.6375 C   0  0  0  0  0  0  0  0  0  0  0  0
  -24.7926  -11.8635   21.4617 C   0  0  0  0  0  0  0  0  0  0  0  0
  -25.0724  -13.5737   20.1083 C   0  0  0  0  0  0  0  0  0  0  0  0
  -32.6440  -23.3547   20.8624 C   0  0  0  0  0  0  0  0  0  0  0  0
  -31.5044  -23.8504   20.3846 C   0  0  0  0  0  0  0  0  0  0  0  0
  -32.5760  -21.8877   20.8021 C   0  0  0  0  0  0  0  0  0  0  0  0
  -30.6478  -22.7213   19.9730 C   0  0  0  0  0  0  0  0  0  0  0  0
  -22.8211  -13.4929   21.1916 C   0  0  0  0  0  0  0  0  0  0  0  0
  -25.2869  -30.3061   21.3277 C   0  0  0  0  0  0  0  0  0  0  0  0
  -23.1252  -28.2526   20.0499 C   0  0  0  0  0  0  0  0  0  0  0  0
  -22.4879  -25.1763   18.7170 C   0  0  0  0  0  0  0  0  0  0  0  0
  -30.2733  -15.2378   19.0201 C   0  0  0  0  0  0  0  0  0  0  0  0
  -23.5183  -34.9122   22.6367 C   0  0  0  0  0  0  0  0  0  0  0  0
  -26.4503  -29.6089   19.2026 C   0  0  0  0  0  0  0  0  0  0  0  0
  -25.3692  -27.2838   20.6756 C   0  0  0  0  0  0  0  0  0  0  0  0
  -22.9542  -33.4940   22.6075 C   0  0  0  0  0  0  0  0  0  0  0  0
  -29.5036  -11.8161   18.4063 C   0  0  0  0  0  0  0  0  0  0  0  0
  -23.9195  -32.5217   23.2780 C   0  0  0  0  0  0  0  0  0  0  0  0
  -28.1560  -11.6169   19.1038 C   0  0  0  0  0  0  0  0  0  0  0  0
  -30.4126  -12.7625   19.1885 C   0  0  0  0  0  0  0  0  0  0  0  0
  -28.4661  -13.8604   20.2251 C   0  0  0  0  0  0  0  0  0  0  0  0
  -25.2624  -32.4795   22.5388 C   0  0  1  0  0  0  0  0  0  0  0  0
  -25.1330  -29.6851   19.9682 C   0  0  1  0  0  0  0  0  0  0  0  0
  -27.4915  -12.9659   19.4417 C   0  0  2  0  0  0  0  0  0  0  0  0
  -20.6185  -23.7755   17.8001 C   0  0  0  0  0  0  0  0  0  0  0  0
  -22.1172  -27.7465   22.8850 C   0  0  0  0  0  0  0  0  0  0  0  0
  -20.9538  -25.7005   22.0314 C   0  0  0  0  0  0  0  0  0  0  0  0
  -20.3188  -27.9496   21.1591 C   0  0  0  0  0  0  0  0  0  0  0  0
  -23.7895  -24.9666   16.0673 C   0  0  0  0  0  0  0  0  0  0  0  0
  -31.0916  -25.2703   20.2452 C   0  0  0  0  0  0  0  0  0  1  0  0
  -22.5279  -26.9314   20.4699 C   0  0  1  0  0  0  0  0  0  0  0  0
  -21.7328  -24.7561   17.4689 C   0  0  2  0  0  0  0  0  0  0  0  0
  -21.5075  -27.0852   21.6329 C   0  0  0  0  0  0  0  0  0  0  0  0
  -26.0366  -11.7220   20.9964 N   0  0  0  0  0  0  0  0  0  0  0  0
  -26.1772  -12.7769   20.1759 N   0  0  0  0  0  0  0  0  0  0  0  0
  -31.3509  -21.5659   20.2545 N   0  0  0  0  0  0  0  0  0  0  0  0
  -24.5174  -28.3712   20.1662 N   0  0  0  0  0  0  0  0  0  0  0  0
  -29.7179  -14.0209   19.4688 N   0  0  0  0  0  0  0  0  0  0  0  0
  -25.0431  -14.6770   19.3309 N   0  0  0  0  0  0  0  0  0  0  0  0
  -21.9987  -12.7818   22.0760 N   0  0  0  0  0  0  0  0  0  0  0  0
  -29.5078  -16.3650   19.3164 N   0  0  0  0  0  0  0  0  0  0  0  0
  -25.1526  -31.6814   21.3365 N   0  0  0  0  0  0  0  0  0  0  0  0
  -21.9709  -26.3328   19.2616 N   0  0  0  0  0  0  0  0  0  0  0  0
  -22.6579  -24.1058   16.4982 N   0  3  0  0  0  0  0  0  0  0  0  0
  -33.4726  -21.1518   21.1813 O   0  0  0  0  0  0  0  0  0  0  0  0
  -29.5360  -22.8444   19.4845 O   0  0  0  0  0  0  0  0  0  0  0  0
  -22.3754  -14.5242   20.6335 O   0  0  0  0  0  0  0  0  0  0  0  0
  -25.5095  -29.5904   22.2972 O   0  0  0  0  0  0  0  0  0  0  0  0
  -22.3847  -29.1441   19.6274 O   0  0  0  0  0  0  0  0  0  0  0  0
  -23.4388  -24.5401   19.1661 O   0  0  0  0  0  0  0  0  0  0  0  0
  -31.3354  -15.2744   18.3934 O   0  0  0  0  0  0  0  0  0  0  0  0
  -22.7091   -8.1444   25.0802 O   0  0  0  0  0  0  0  0  0  0  0  0
  -29.9173  -25.5134   21.0187 O   0  0  0  0  0  0  0  0  0  1  0  0
  -23.5297   -2.7976   24.0111 F   0  0  0  0  0  0  0  0  0  0  0  0
  -20.5736   -6.4247   24.7265 F   0  0  0  0  0  0  0  0  0  0  0  0
  1  2  1  0  0  0  0
  1  5  2  0  0  0  0
  2  6  2  0  0  0  0
  3 12  2  0  0  0  0
  3 19  1  0  0  0  0
  4 13  1  0  0  0  0
  4 19  2  0  0  0  0
  5 21  1  0  0  0  0
  6 23  1  0  0  0  0
  7 14  2  0  0  0  0
  7 22  1  0  0  0  0
  8 10  2  0  0  0  0
  8 25  1  0  0  0  0
  9 11  1  0  0  0  0
  9 25  2  0  0  0  0
 10 26  1  0  0  0  0
 11 26  2  0  0  0  0
 12 27  1  0  0  0  0
 13 27  2  0  0  0  0
 14 28  1  0  0  0  0
 15 16  2  0  0  0  0
 15 29  1  0  0  0  0
 16 30  1  0  0  0  0
 17 24  1  0  0  0  0
 17 28  2  0  0  0  0
 18 30  2  0  0  0  0
 18 31  1  0  0  0  0
 19 32  1  0  0  0  0
 20 32  1  0  0  0  0
 20 33  2  0  0  0  0
 20 38  1  0  0  0  0
 21 23  2  0  0  0  0
 21 43  1  0  0  0  0
 22 24  2  0  0  0  0
 22 44  1  0  0  0  0
 23 52  1  0  0  0  0
 24 45  1  0  0  0  0
 25 66  1  0  0  0  0
 26 71  1  0  0  0  0
 27 82  1  0  0  0  0
 28 83  1  0  0  0  0
 29 31  2  0  0  0  0
 29 82  1  0  0  0  0
 30 84  1  0  0  0  0
 31 85  1  0  0  0  0
 32 64  2  0  0  0  0
 33 65  1  0  0  0  0
 33 69  1  0  0  0  0
 34 35  2  0  0  0  0
 34 36  1  0  0  0  0
 35 37  1  0  0  0  0
 35 60  1  0  0  0  0
 36 66  1  0  0  0  0
 36 75  2  0  0  0  0
 37 66  1  0  0  0  0
 37 76  2  0  0  0  0
 38 70  1  0  0  0  0
 38 77  2  0  0  0  0
 39 53  1  0  0  0  0
 39 72  1  0  0  0  0
 39 78  2  0  0  0  0
 40 61  1  0  0  0  0
 40 67  1  0  0  0  0
 40 79  2  0  0  0  0
 41 62  1  0  0  0  0
 41 73  1  0  0  0  0
 41 80  2  0  0  0  0
 42 68  1  0  0  0  0
 42 71  1  0  0  0  0
 42 81  2  0  0  0  0
 43 46  1  0  0  0  0
 44 53  1  0  0  0  0
 45 67  1  0  0  0  0
 46 48  1  0  0  0  0
 47 49  1  0  0  0  0
 47 50  1  0  0  0  0
 48 52  1  0  0  0  0
 49 54  1  0  0  0  0
 50 68  1  0  0  0  0
 51 54  1  0  0  0  0
 51 68  1  0  0  0  0
 52 72  1  0  0  0  0
 53 67  1  0  0  0  0
 54 65  1  0  0  0  0
 55 62  1  0  0  0  0
 56 63  1  0  0  0  0
 57 63  1  0  0  0  0
 58 63  1  0  0  0  0
 59 74  1  0  0  0  0
 60 83  1  0  0  0  0
 61 63  1  0  0  0  0
 61 73  1  0  0  0  0
 62 74  1  0  0  0  0
 64 65  1  0  0  0  0
M  CHG  1  74   1
M  ISO  4  42 100  60 101  71 100  83 101
M  END
> <Batch ID>
0079

> <Smiles>
CNC(C)C(=O)NC(C(=O)N1Cc2cc([101O:1][101CH2:1]C3=CC(=O)N(c4ccc([100NH:0][100C:0](=O)N5CCCC(n6nc(-c7ccc(Oc8ccc(F)cc8F)cc7)c(C(N)=O)c6N)C5)cc4)C3=O)ccc2CC1C(=O)NC1CCCc2ccccc21)C(C)(C)C

> <Shape>
0.296

> <Color>
0.133

> <Negative vol penalty>
0.000

$$$$

  -OEChem-04042323593D

 90 99  0     1  0  0  0  0  0999 V2000
  -20.6926  -33.9087   15.3824 C   0  0  0  0  0  0  0  0  0  0  0  0
  -21.5158  -32.7922   15.4878 C   0  0  0  0  0  0  0  0  0  0  0  0
  -22.9369  -11.5935   21.5569 C   0  0  0  0  0  0  0  0  0  0  0  0
  -22.9242  -13.9899   21.2499 C   0  0  0  0  0  0  0  0  0  0  0  0
  -20.9069  -35.0118   16.2076 C   0  0  0  0  0  0  0  0  0  0  0  0
  -22.5546  -32.7786   16.4179 C   0  0  0  0  0  0  0  0  0  0  0  0
  -24.6101  -27.9476   19.5710 C   0  0  0  0  0  0  0  0  0  0  0  0
  -21.9231  -11.7099   22.5077 C   0  0  0  0  0  0  0  0  0  0  0  0
  -21.9103  -14.1063   22.2008 C   0  0  0  0  0  0  0  0  0  0  0  0
  -25.6948  -27.0935   19.3770 C   0  0  0  0  0  0  0  0  0  0  0  0
  -18.5703  -12.1470   22.5334 C   0  0  0  0  0  0  0  0  0  0  0  0
  -17.5029  -11.2525   22.4557 C   0  0  0  0  0  0  0  0  0  0  0  0
  -27.0054  -28.4202   20.9072 C   0  0  0  0  0  0  0  0  0  0  0  0
  -31.4568  -19.6082   20.9080 C   0  0  0  0  0  0  0  0  0  0  0  0
  -31.8223  -17.2210   20.8416 C   0  0  0  0  0  0  0  0  0  0  0  0
  -29.7870  -18.1570   19.9369 C   0  0  0  0  0  0  0  0  0  0  0  0
  -18.0176  -10.4458   24.6741 C   0  0  0  0  0  0  0  0  0  0  0  0
  -23.4375  -12.7335   20.9280 C   0  0  0  0  0  0  0  0  0  0  0  0
  -24.3330  -12.4356   18.5580 C   0  0  0  0  0  0  0  0  0  0  0  0
  -21.9428  -35.0080   17.1550 C   0  0  0  0  0  0  0  0  0  0  0  0
  -24.7185  -29.0526   20.4276 C   0  0  0  0  0  0  0  0  0  0  0  0
  -22.7838  -33.8833   17.2557 C   0  0  0  0  0  0  0  0  0  0  0  0
  -25.9198  -29.2853   21.1123 C   0  0  0  0  0  0  0  0  0  0  0  0
  -32.2571  -18.5005   21.1875 C   0  0  0  0  0  0  0  0  0  0  0  0
  -30.2218  -19.4365   20.2828 C   0  0  0  0  0  0  0  0  0  0  0  0
  -30.5873  -17.0493   20.2163 C   0  0  0  0  0  0  0  0  0  0  0  0
  -21.4097  -12.9663   22.8297 C   0  0  0  0  0  0  0  0  0  0  0  0
  -26.8936  -27.3313   20.0429 C   0  0  0  0  0  0  0  0  0  0  0  0
  -19.3614  -12.1909   23.6814 C   0  0  0  0  0  0  0  0  0  0  0  0
  -17.2265  -10.4019   23.5260 C   0  0  0  0  0  0  0  0  0  0  0  0
  -19.0850  -11.3403   24.7518 C   0  0  0  0  0  0  0  0  0  0  0  0
  -24.4852  -12.6140   19.9461 C   0  0  0  0  0  0  0  0  0  0  0  0
  -25.6180  -12.3815   18.0759 C   0  0  0  0  0  0  0  0  0  0  0  0
  -35.3168  -19.6574   22.8171 C   0  0  0  0  0  0  0  0  0  0  0  0
  -35.5355  -18.2236   22.7786 C   0  0  0  0  0  0  0  0  0  0  0  0
  -36.1300  -20.5957   23.3181 C   0  0  0  0  0  0  0  0  0  0  0  0
  -36.5957  -17.5453   23.2351 C   0  0  0  0  0  0  0  0  0  0  0  0
  -23.1371  -12.3284   17.7744 C   0  0  0  0  0  0  0  0  0  0  0  0
  -24.4992  -32.2027   20.0639 C   0  0  0  0  0  0  0  0  0  0  0  0
  -24.7599  -32.2023   23.2973 C   0  0  0  0  0  0  0  0  0  0  0  0
  -29.6871  -21.8975   20.2713 C   0  0  0  0  0  0  0  0  0  0  0  0
  -25.8155  -30.5984   26.1186 C   0  0  0  0  0  0  0  0  0  0  0  0
  -30.8197  -14.5452   20.0673 C   0  0  0  0  0  0  0  0  0  0  0  0
  -22.1653  -36.2424   17.9925 C   0  0  0  0  0  0  0  0  0  0  0  0
  -23.5308  -29.9491   20.6466 C   0  0  0  0  0  0  0  0  0  0  0  0
  -26.0813  -30.4461   22.0584 C   0  0  0  0  0  0  0  0  0  0  0  0
  -33.9880  -19.9679   22.1903 C   0  0  0  0  0  0  0  0  0  0  0  0
  -34.3542  -17.5648   22.1259 C   0  0  0  0  0  0  0  0  0  0  0  0
  -23.0535  -36.0004   19.2102 C   0  0  0  0  0  0  0  0  0  0  0  0
  -30.0561  -11.1371   19.3755 C   0  0  0  0  0  0  0  0  0  0  0  0
  -24.2913  -35.2002   18.8174 C   0  0  0  0  0  0  0  0  0  0  0  0
  -28.5272  -11.1140   19.3110 C   0  0  0  0  0  0  0  0  0  0  0  0
  -30.5640  -12.1025   20.4450 C   0  0  0  0  0  0  0  0  0  0  0  0
  -28.5049  -13.4455   20.2859 C   0  0  0  0  0  0  0  0  0  0  0  0
  -23.9056  -33.8209   18.2695 C   0  0  1  0  0  0  0  0  0  0  0  0
  -23.9150  -31.3386   21.1456 C   0  0  1  0  0  0  0  0  0  0  0  0
  -27.9472  -12.5359   19.1791 C   0  0  2  0  0  0  0  0  0  0  0  0
  -25.9238  -30.8635   28.6116 C   0  0  0  0  0  0  0  0  0  0  0  0
  -27.0763  -34.1637   22.9857 C   0  0  0  0  0  0  0  0  0  0  0  0
  -27.7337  -33.6544   25.3472 C   0  0  0  0  0  0  0  0  0  0  0  0
  -25.5135  -34.6854   24.8672 C   0  0  0  0  0  0  0  0  0  0  0  0
  -24.1470  -28.1947   26.5630 C   0  0  0  0  0  0  0  0  0  0  0  0
  -28.5442  -22.7859   19.7998 C   0  0  0  0  0  0  0  0  0  0  0  0
  -28.7971  -24.2641   20.0754 C   0  0  0  0  0  0  0  0  0  0  0  0
  -27.6640  -25.1353   19.5531 C   0  0  0  0  0  0  0  0  0  1  0  0
  -25.9067  -32.2585   24.2774 C   0  0  1  0  0  0  0  0  0  0  0  0
  -25.1207  -30.3213   27.4395 C   0  0  2  0  0  0  0  0  0  0  0  0
  -26.5555  -33.6696   24.3501 C   0  0  0  0  0  0  0  0  0  0  0  0
  -25.7658  -12.6694   20.3215 N   0  0  0  0  0  0  0  0  0  0  0  0
  -26.4301  -12.5249   19.1622 N   0  0  0  0  0  0  0  0  0  0  0  0
  -33.5061  -18.6740   21.8198 N   0  0  0  0  0  0  0  0  0  0  0  0
  -24.8933  -31.2977   22.2344 N   0  0  0  0  0  0  0  0  0  0  0  0
  -29.9758  -13.4300   20.2541 N   0  0  0  0  0  0  0  0  0  0  0  0
  -26.1212  -12.2257   16.8329 N   0  0  0  0  0  0  0  0  0  0  0  0
  -21.9003  -12.4050   18.4292 N   0  0  0  0  0  0  0  0  0  0  0  0
  -29.4106  -20.5607   19.9986 N   0  0  0  0  0  0  0  0  0  0  0  0
  -30.1470  -15.7496   19.8632 N   0  0  0  0  0  0  0  0  0  0  0  0
  -23.5604  -32.9253   19.3526 N   0  0  0  0  0  0  0  0  0  0  0  0
  -25.3802  -31.7766   25.5498 N   0  0  0  0  0  0  0  0  0  0  0  0
  -24.9399  -28.8546   27.6321 N   0  3  0  0  0  0  0  0  0  0  0  0
  -23.1646  -12.1531   16.5327 O   0  0  0  0  0  0  0  0  0  0  0  0
  -25.7120  -32.2141   19.8887 O   0  0  0  0  0  0  0  0  0  0  0  0
  -23.7785  -32.9289   23.4724 O   0  0  0  0  0  0  0  0  0  0  0  0
  -30.6883  -22.3562   20.8113 O   0  0  0  0  0  0  0  0  0  0  0  0
  -26.6626  -29.8468   25.6410 O   0  0  0  0  0  0  0  0  0  0  0  0
  -32.0485  -14.4352   20.0598 O   0  0  0  0  0  0  0  0  0  0  0  0
  -20.4202  -13.0802   23.7573 O   0  0  0  0  0  0  0  0  0  0  0  0
  -27.9541  -26.4995   19.8549 O   0  0  0  0  0  0  0  0  0  1  0  0
  -16.2005   -9.5439   23.4519 F   0  0  0  0  0  0  0  0  0  0  0  0
  -19.8407  -11.3788   25.8578 F   0  0  0  0  0  0  0  0  0  0  0  0
  1  2  1  0  0  0  0
  1  5  2  0  0  0  0
  2  6  2  0  0  0  0
  3  8  2  0  0  0  0
  3 18  1  0  0  0  0
  4  9  1  0  0  0  0
  4 18  2  0  0  0  0
  5 20  1  0  0  0  0
  6 22  1  0  0  0  0
  7 10  2  0  0  0  0
  7 21  1  0  0  0  0
  8 27  1  0  0  0  0
  9 27  2  0  0  0  0
 10 28  1  0  0  0  0
 11 12  2  0  0  0  0
 11 29  1  0  0  0  0
 12 30  1  0  0  0  0
 13 23  1  0  0  0  0
 13 28  2  0  0  0  0
 14 24  1  0  0  0  0
 14 25  2  0  0  0  0
 15 24  2  0  0  0  0
 15 26  1  0  0  0  0
 16 25  1  0  0  0  0
 16 26  2  0  0  0  0
 17 30  2  0  0  0  0
 17 31  1  0  0  0  0
 18 32  1  0  0  0  0
 19 32  1  0  0  0  0
 19 33  2  0  0  0  0
 19 38  1  0  0  0  0
 20 22  2  0  0  0  0
 20 44  1  0  0  0  0
 21 23  2  0  0  0  0
 21 45  1  0  0  0  0
 22 55  1  0  0  0  0
 23 46  1  0  0  0  0
 24 71  1  0  0  0  0
 25 76  1  0  0  0  0
 26 77  1  0  0  0  0
 27 87  1  0  0  0  0
 28 88  1  0  0  0  0
 29 31  2  0  0  0  0
 29 87  1  0  0  0  0
 30 89  1  0  0  0  0
 31 90  1  0  0  0  0
 32 69  2  0  0  0  0
 33 70  1  0  0  0  0
 33 74  1  0  0  0  0
 34 35  1  0  0  0  0
 34 36  2  0  0  0  0
 34 47  1  0  0  0  0
 35 37  2  0  0  0  0
 35 48  1  0  0  0  0
 38 75  1  0  0  0  0
 38 81  2  0  0  0  0
 39 56  1  0  0  0  0
 39 78  1  0  0  0  0
 39 82  2  0  0  0  0
 40 66  1  0  0  0  0
 40 72  1  0  0  0  0
 40 83  2  0  0  0  0
 41 63  1  0  0  0  0
 41 76  1  0  0  0  0
 41 84  2  0  0  0  0
 42 67  1  0  0  0  0
 42 79  1  0  0  0  0
 42 85  2  0  0  0  0
 43 73  1  0  0  0  0
 43 77  1  0  0  0  0
 43 86  2  0  0  0  0
 44 49  1  0  0  0  0
 45 56  1  0  0  0  0
 46 72  1  0  0  0  0
 47 71  1  0  0  0  0
 48 71  1  0  0  0  0
 49 51  1  0  0  0  0
 50 52  1  0  0  0  0
 50 53  1  0  0  0  0
 51 55  1  0  0  0  0
 52 57  1  0  0  0  0
 53 73  1  0  0  0  0
 54 57  1  0  0  0  0
 54 73  1  0  0  0  0
 55 78  1  0  0  0  0
 56 72  1  0  0  0  0
 57 70  1  0  0  0  0
 58 67  1  0  0  0  0
 59 68  1  0  0  0  0
 60 68  1  0  0  0  0
 61 68  1  0  0  0  0
 62 80  1  0  0  0  0
 63 64  1  0  0  0  0
 64 65  1  0  0  0  0
 65 88  1  0  0  0  0
 66 68  1  0  0  0  0
 66 79  1  0  0  0  0
 67 80  1  0  0  0  0
 69 70  1  0  0  0  0
M  CHG  1  80   1
M  ISO  4  43 100  65 101  77 100  88 101
M  END
> <Batch ID>
0079

> <Smiles>
C=C1CN(c2cc(NC(=O)CC[101CH2:1][101O:1]c3ccc4c(c3)CN(C(=O)C(NC(=O)C(C)NC)C(C)(C)C)C(C(=O)NC3CCCc5ccccc53)C4)cc([100NH:0][100C:0](=O)N3CCCC(n4nc(-c5ccc(Oc6ccc(F)cc6F)cc5)c(C(N)=O)c4N)C3)c2)CC1=C

> <Shape>
0.266

> <Color>
0.099

> <Negative vol penalty>
0.000

$$$$

  -OEChem-04042323593D

 86 95  0     1  0  0  0  0  0999 V2000
  -29.3820  -31.2586   26.7083 C   0  0  0  0  0  0  0  0  0  0  0  0
  -29.0329  -30.2282   25.8413 C   0  0  0  0  0  0  0  0  0  0  0  0
  -23.1183  -10.1097   20.7524 C   0  0  0  0  0  0  0  0  0  0  0  0
  -24.6138   -8.8435   22.1656 C   0  0  0  0  0  0  0  0  0  0  0  0
  -28.4057  -32.1404   27.1701 C   0  0  0  0  0  0  0  0  0  0  0  0
  -27.7069  -30.0782   25.4365 C   0  0  0  0  0  0  0  0  0  0  0  0
  -27.2797  -29.2076   20.4661 C   0  0  0  0  0  0  0  0  0  0  0  0
  -27.8338  -20.4549   19.1400 C   0  0  0  0  0  0  0  0  0  0  0  0
  -28.0419  -19.8217   16.8178 C   0  0  0  0  0  0  0  0  0  0  0  0
  -28.0805  -19.1362   19.5217 C   0  0  0  0  0  0  0  0  0  0  0  0
  -28.2887  -18.5030   17.1995 C   0  0  0  0  0  0  0  0  0  0  0  0
  -22.2657   -9.0091   20.6684 C   0  0  0  0  0  0  0  0  0  0  0  0
  -23.7612   -7.7428   22.0816 C   0  0  0  0  0  0  0  0  0  0  0  0
  -27.5544  -27.9155   20.0201 C   0  0  0  0  0  0  0  0  0  0  0  0
  -20.8582   -6.7302   23.4845 C   0  0  0  0  0  0  0  0  0  0  0  0
  -20.5723   -6.0425   24.6638 C   0  0  0  0  0  0  0  0  0  0  0  0
  -25.1891  -27.4504   19.9295 C   0  0  0  0  0  0  0  0  0  0  0  0
  -21.5125   -4.0283   23.7171 C   0  0  0  0  0  0  0  0  0  0  0  0
  -24.2924  -10.0270   21.5009 C   0  0  0  0  0  0  0  0  0  0  0  0
  -25.1408  -12.1938   22.5462 C   0  0  0  0  0  0  0  0  0  0  0  0
  -27.0689  -32.0070   26.7631 C   0  0  0  0  0  0  0  0  0  0  0  0
  -25.9557  -29.6279   20.6579 C   0  0  0  0  0  0  0  0  0  0  0  0
  -26.7116  -30.9582   25.8944 C   0  0  0  0  0  0  0  0  0  0  0  0
  -24.9002  -28.7491   20.3756 C   0  0  0  0  0  0  0  0  0  0  0  0
  -27.8145  -20.7977   17.7881 C   0  0  0  0  0  0  0  0  0  0  0  0
  -28.3079  -18.1602   18.5515 C   0  0  0  0  0  0  0  0  0  0  0  0
  -22.5871   -7.8256   21.3330 C   0  0  0  0  0  0  0  0  0  0  0  0
  -26.5092  -27.0357   19.7545 C   0  0  0  0  0  0  0  0  0  0  0  0
  -21.4712   -6.0670   22.4214 C   0  0  0  0  0  0  0  0  0  0  0  0
  -20.8994   -4.6915   24.7802 C   0  0  0  0  0  0  0  0  0  0  0  0
  -21.7984   -4.7161   22.5378 C   0  0  0  0  0  0  0  0  0  0  0  0
  -25.1739  -11.1634   21.5876 C   0  0  0  0  0  0  0  0  0  0  0  0
  -26.1772  -13.0236   22.1944 C   0  0  0  0  0  0  0  0  0  0  0  0
  -27.1206  -24.3701   17.4358 C   0  0  0  0  0  0  0  0  0  0  0  0
  -27.2439  -24.0018   16.0477 C   0  0  0  0  0  0  0  0  0  0  0  0
  -27.3265  -23.1729   18.2977 C   0  0  0  0  0  0  0  0  0  0  0  0
  -27.1290  -24.7827   14.9681 C   0  0  0  0  0  0  0  0  0  0  0  0
  -26.8651  -25.5633   17.9724 C   0  0  0  0  0  0  0  0  0  1  0  0
  -24.2526  -12.3838   23.6556 C   0  0  0  0  0  0  0  0  0  0  0  0
  -24.2555  -30.6164   23.1551 C   0  0  0  0  0  0  0  0  0  0  0  0
  -21.9950  -31.1812   20.8983 C   0  0  0  0  0  0  0  0  0  0  0  0
  -20.7448  -30.4598   17.8058 C   0  0  0  0  0  0  0  0  0  0  0  0
  -28.7969  -15.7859   17.9870 C   0  0  0  0  0  0  0  0  0  0  0  0
  -26.0405  -32.9558   27.3263 C   0  0  0  0  0  0  0  0  0  0  0  0
  -25.6753  -31.0335   21.1140 C   0  0  0  0  0  0  0  0  0  0  0  0
  -23.4607  -29.1580   20.5459 C   0  0  0  0  0  0  0  0  0  0  0  0
  -27.5359  -22.5322   16.0074 C   0  0  0  0  0  0  0  0  0  0  0  0
  -24.7238  -32.9553   26.5539 C   0  0  0  0  0  0  0  0  0  0  0  0
  -29.9428  -12.3973   18.8895 C   0  0  0  0  0  0  0  0  0  0  0  0
  -24.2671  -31.5263   26.2783 C   0  0  0  0  0  0  0  0  0  0  0  0
  -28.7679  -11.8435   19.6939 C   0  0  0  0  0  0  0  0  0  0  0  0
  -29.4865  -13.4108   17.8443 C   0  0  0  0  0  0  0  0  0  0  0  0
  -27.5010  -13.9760   19.2113 C   0  0  0  0  0  0  0  0  0  0  0  0
  -25.2883  -30.7779   25.4130 C   0  0  1  0  0  0  0  0  0  0  0  0
  -24.3049  -31.1879   21.7663 C   0  0  1  0  0  0  0  0  0  0  0  0
  -27.9331  -12.9840   20.3017 C   0  0  1  0  0  0  0  0  0  0  0  0
  -18.8657  -31.0551   16.2527 C   0  0  0  0  0  0  0  0  0  0  0  0
  -20.0793  -29.5000   22.5756 C   0  0  0  0  0  0  0  0  0  0  0  0
  -18.5814  -29.3376   20.5760 C   0  0  0  0  0  0  0  0  0  0  0  0
  -19.0672  -31.5640   21.5909 C   0  0  0  0  0  0  0  0  0  0  0  0
  -28.8196  -16.5123   20.3623 C   0  0  0  0  0  0  0  0  0  0  0  0
  -22.6145  -31.4502   15.7364 C   0  0  0  0  0  0  0  0  0  0  0  0
  -20.8756  -30.3775   20.2817 C   0  0  1  0  0  0  0  0  0  0  0  0
  -20.2979  -31.3569   16.6656 C   0  0  2  0  0  0  0  0  0  0  0  0
  -19.6779  -30.1861   21.2546 C   0  0  0  0  0  0  0  0  0  0  0  0
  -26.1537  -11.3221   20.6937 N   0  0  0  0  0  0  0  0  0  0  0  0
  -26.7457  -12.4619   21.0892 N   0  0  0  0  0  0  0  0  0  0  0  0
  -27.5680  -22.1129   17.4072 N   0  0  0  0  0  0  0  0  0  0  0  0
  -23.2381  -30.5407   21.0001 N   0  0  0  0  0  0  0  0  0  0  0  0
  -28.6572  -14.4588   18.4406 N   0  0  0  0  0  0  0  0  0  0  0  0
  -26.6485  -14.1717   22.7256 N   0  0  0  0  0  0  0  0  0  0  0  0
  -23.2433  -11.4361   23.8734 N   0  0  0  0  0  0  0  0  0  0  0  0
  -25.1674  -31.1790   24.0277 N   0  0  0  0  0  0  0  0  0  0  0  0
  -20.5302  -31.0493   19.0336 N   0  0  0  0  0  0  0  0  0  0  0  0
  -28.5633  -16.7950   18.9462 N   0  0  0  0  0  0  0  0  0  0  0  0
  -21.1794  -31.1649   15.4794 N   0  3  0  0  0  0  0  0  0  0  0  0
  -27.2870  -23.1520   19.5165 O   0  0  0  0  0  0  0  0  0  0  0  0
  -24.3409  -13.3736   24.4212 O   0  0  0  0  0  0  0  0  0  0  0  0
  -23.4488  -29.7317   23.4160 O   0  0  0  0  0  0  0  0  0  0  0  0
  -21.7764  -32.3372   21.2691 O   0  0  0  0  0  0  0  0  0  0  0  0
  -21.2319  -29.3459   17.6253 O   0  0  0  0  0  0  0  0  0  0  0  0
  -29.1329  -16.0465   16.8257 O   0  0  0  0  0  0  0  0  0  0  0  0
  -21.7552   -6.7514   21.2515 O   0  0  0  0  0  0  0  0  0  0  0  0
  -26.7745  -25.7738   19.3197 O   0  0  0  0  0  0  0  0  0  1  0  0
  -20.6262   -4.0316   25.9133 F   0  0  0  0  0  0  0  0  0  0  0  0
  -22.3885   -4.0739   21.5203 F   0  0  0  0  0  0  0  0  0  0  0  0
  1  2  1  0  0  0  0
  1  5  2  0  0  0  0
  2  6  2  0  0  0  0
  3 12  2  0  0  0  0
  3 19  1  0  0  0  0
  4 13  1  0  0  0  0
  4 19  2  0  0  0  0
  5 21  1  0  0  0  0
  6 23  1  0  0  0  0
  7 14  2  0  0  0  0
  7 22  1  0  0  0  0
  8 10  2  0  0  0  0
  8 25  1  0  0  0  0
  9 11  1  0  0  0  0
  9 25  2  0  0  0  0
 10 26  1  0  0  0  0
 11 26  2  0  0  0  0
 12 27  1  0  0  0  0
 13 27  2  0  0  0  0
 14 28  1  0  0  0  0
 15 16  2  0  0  0  0
 15 29  1  0  0  0  0
 16 30  1  0  0  0  0
 17 24  1  0  0  0  0
 17 28  2  0  0  0  0
 18 30  2  0  0  0  0
 18 31  1  0  0  0  0
 19 32  1  0  0  0  0
 20 32  1  0  0  0  0
 20 33  2  0  0  0  0
 20 39  1  0  0  0  0
 21 23  2  0  0  0  0
 21 44  1  0  0  0  0
 22 24  2  0  0  0  0
 22 45  1  0  0  0  0
 23 54  1  0  0  0  0
 24 46  1  0  0  0  0
 25 68  1  0  0  0  0
 26 75  1  0  0  0  0
 27 83  1  0  0  0  0
 28 84  1  0  0  0  0
 29 31  2  0  0  0  0
 29 83  1  0  0  0  0
 30 85  1  0  0  0  0
 31 86  1  0  0  0  0
 32 66  2  0  0  0  0
 33 67  1  0  0  0  0
 33 71  1  0  0  0  0
 34 35  1  0  0  0  0
 34 36  1  0  0  0  0
 34 38  2  0  0  0  0
 35 37  2  0  0  0  0
 35 47  1  0  0  0  0
 36 68  1  0  0  0  0
 36 77  2  0  0  0  0
 38 84  1  0  0  0  0
 39 72  1  0  0  0  0
 39 78  2  0  0  0  0
 40 55  1  0  0  0  0
 40 73  1  0  0  0  0
 40 79  2  0  0  0  0
 41 63  1  0  0  0  0
 41 69  1  0  0  0  0
 41 80  2  0  0  0  0
 42 64  1  0  0  0  0
 42 74  1  0  0  0  0
 42 81  2  0  0  0  0
 43 70  1  0  0  0  0
 43 75  1  0  0  0  0
 43 82  2  0  0  0  0
 44 48  1  0  0  0  0
 45 55  1  0  0  0  0
 46 69  1  0  0  0  0
 47 68  1  0  0  0  0
 48 50  1  0  0  0  0
 49 51  1  0  0  0  0
 49 52  1  0  0  0  0
 50 54  1  0  0  0  0
 51 56  1  0  0  0  0
 52 70  1  0  0  0  0
 53 56  1  0  0  0  0
 53 70  1  0  0  0  0
 54 73  1  0  0  0  0
 55 69  1  0  0  0  0
 56 67  1  0  0  0  0
 57 64  1  0  0  0  0
 58 65  1  0  0  0  0
 59 65  1  0  0  0  0
 60 65  1  0  0  0  0
 61 75  1  0  0  0  0
 62 76  1  0  0  0  0
 63 65  1  0  0  0  0
 63 74  1  0  0  0  0
 64 76  1  0  0  0  0
 66 67  1  0  0  0  0
M  CHG  1  76   1
M  ISO  4  38 101  43 100  75 100  84 101
M  END
> <Batch ID>
0079

> <Smiles>
C=C1CN(c2ccc([100N:0](C)[100C:0](=O)N3CCCC(n4nc(-c5ccc(Oc6ccc(F)cc6F)cc5)c(C(N)=O)c4N)C3)cc2)C(=O)C1=[101CH:1][101O:1]c1ccc2c(c1)CN(C(=O)C(NC(=O)C(C)NC)C(C)(C)C)C(C(=O)NC1CCCc3ccccc31)C2

> <Shape>
0.306

> <Color>
0.135

> <Negative vol penalty>
0.000

$$$$

  -OEChem-04042323593D

 79 87  0     1  0  0  0  0  0999 V2000
  -29.4518  -19.5243   24.3598 C   0  0  0  0  0  0  0  0  0  0  0  0
  -28.7427  -20.3063   24.9322 C   0  0  0  0  0  0  0  0  0  1  0  0
  -24.4942  -31.8506   26.8816 C   0  0  0  0  0  0  0  0  0  0  0  0
  -24.8163  -30.5361   27.2038 C   0  0  0  0  0  0  0  0  0  0  0  0
  -32.5023  -17.7320   23.1976 C   0  0  0  0  0  0  0  0  0  0  0  0
  -31.6783  -18.6405   23.8618 C   0  0  0  0  0  0  0  0  0  0  0  0
  -23.0968   -9.7404   20.0596 C   0  0  0  0  0  0  0  0  0  0  0  0
  -23.8078   -9.9249   22.3612 C   0  0  0  0  0  0  0  0  0  0  0  0
  -24.1996  -32.1916   25.5622 C   0  0  0  0  0  0  0  0  0  0  0  0
  -24.8429  -29.5616   26.2068 C   0  0  0  0  0  0  0  0  0  0  0  0
  -28.6258  -24.7584   25.8536 C   0  0  0  0  0  0  0  0  0  0  0  0
  -31.9446  -16.7755   22.3492 C   0  0  0  0  0  0  0  0  0  0  0  0
  -22.3618   -8.5985   20.3781 C   0  0  0  0  0  0  0  0  0  0  0  0
  -23.0727   -8.7830   22.6798 C   0  0  0  0  0  0  0  0  0  0  0  0
  -28.4730  -23.4166   26.2002 C   0  0  0  0  0  0  0  0  0  0  0  0
  -21.0931   -6.1240   24.1726 C   0  0  0  0  0  0  0  0  0  0  0  0
  -20.3127   -6.1556   25.3283 C   0  0  0  0  0  0  0  0  0  0  0  0
  -29.7387  -17.6360   22.8294 C   0  0  0  0  0  0  0  0  0  0  0  0
  -27.8953  -22.8986   23.9161 C   0  0  0  0  0  0  0  0  0  0  0  0
  -19.0606   -8.0173   24.4319 C   0  0  0  0  0  0  0  0  0  0  0  0
  -30.2965  -18.5925   23.6778 C   0  0  0  0  0  0  0  0  0  0  0  0
  -23.8199  -10.4036   21.0511 C   0  0  0  0  0  0  0  0  0  0  0  0
  -24.1336  -12.9176   20.7536 C   0  0  0  0  0  0  0  0  0  0  0  0
  -24.2320  -31.2227   24.5470 C   0  0  0  0  0  0  0  0  0  0  0  0
  -28.4034  -25.1828   24.5357 C   0  0  0  0  0  0  0  0  0  0  0  0
  -24.5471  -29.8897   24.8728 C   0  0  0  0  0  0  0  0  0  0  0  0
  -28.0484  -24.2459   23.5548 C   0  0  0  0  0  0  0  0  0  0  0  0
  -30.5627  -16.7275   22.1652 C   0  0  0  0  0  0  0  0  0  0  0  0
  -22.3497   -8.1199   21.6882 C   0  0  0  0  0  0  0  0  0  0  0  0
  -28.1049  -22.4870   25.2321 C   0  0  0  0  0  0  0  0  0  0  0  0
  -20.8573   -7.0390   23.1466 C   0  0  0  0  0  0  0  0  0  0  0  0
  -19.2965   -7.1023   25.4580 C   0  0  0  0  0  0  0  0  0  0  0  0
  -19.8411   -7.9857   23.2762 C   0  0  0  0  0  0  0  0  0  0  0  0
  -24.5798  -11.5828   20.7226 C   0  0  0  0  0  0  0  0  0  0  0  0
  -25.2241  -13.6534   20.3586 C   0  0  0  0  0  0  0  0  0  0  0  0
  -22.8484  -13.4453   21.1078 C   0  0  0  0  0  0  0  0  0  0  0  0
  -26.3677  -27.1833   23.1367 C   0  0  0  0  0  0  0  0  0  0  0  0
  -28.1636  -26.5565   20.5092 C   0  0  0  0  0  0  0  0  0  0  0  0
  -30.2861  -24.4301   18.8904 C   0  0  0  0  0  0  0  0  0  0  0  0
  -30.6724  -14.7832   20.5671 C   0  0  0  0  0  0  0  0  0  0  0  0
  -23.8599  -31.6295   23.1431 C   0  0  0  0  0  0  0  0  0  0  0  0
  -28.5984  -26.6293   24.1724 C   0  0  0  0  0  0  0  0  0  0  0  0
  -27.8178  -24.6470   22.1215 C   0  0  0  0  0  0  0  0  0  0  0  0
  -24.2761  -30.6123   22.0837 C   0  0  0  0  0  0  0  0  0  0  0  0
  -29.6376  -12.1882   18.3597 C   0  0  0  0  0  0  0  0  0  0  0  0
  -23.8924  -29.2014   22.5183 C   0  0  0  0  0  0  0  0  0  0  0  0
  -28.1928  -11.9091   18.7802 C   0  0  0  0  0  0  0  0  0  0  0  0
  -30.5242  -12.5164   19.5597 C   0  0  0  0  0  0  0  0  0  0  0  0
  -28.5798  -13.3137   20.8453 C   0  0  0  0  0  0  0  0  0  0  0  0
  -24.6106  -28.8092   23.8151 C   0  0  1  0  0  0  0  0  0  0  0  0
  -27.8454  -27.0348   22.9091 C   0  0  1  0  0  0  0  0  0  0  0  0
  -27.6343  -13.0418   19.6638 C   0  0  2  0  0  0  0  0  0  0  0  0
  -31.5561  -24.1720   16.7415 C   0  0  0  0  0  0  0  0  0  0  0  0
  -25.5770  -25.8109   19.0728 C   0  0  0  0  0  0  0  0  0  0  0  0
  -26.9594  -24.6851   17.3151 C   0  0  0  0  0  0  0  0  0  0  0  0
  -27.1884  -27.1395   17.6972 C   0  0  0  0  0  0  0  0  0  0  0  0
  -32.8883  -24.3807   20.2992 C   0  0  0  0  0  0  0  0  0  0  0  0
  -28.1214  -25.5267   19.4061 C   0  0  1  0  0  0  0  0  0  0  0  0
  -31.6040  -24.6720   18.1769 C   0  0  2  0  0  0  0  0  0  0  0  0
  -26.9639  -25.7830   18.4001 C   0  0  0  0  0  0  0  0  0  0  0  0
  -25.8543  -11.4739   20.3381 N   0  0  0  0  0  0  0  0  0  0  0  0
  -26.2183  -12.7497   20.1239 N   0  0  0  0  0  0  0  0  0  0  0  0
  -28.0148  -26.0739   21.8171 N   0  0  0  0  0  0  0  0  0  0  0  0
  -29.9344  -13.6008   20.3478 N   0  0  0  0  0  0  0  0  0  0  0  0
  -25.4199  -14.9787   20.1926 N   0  0  0  0  0  0  0  0  0  0  0  0
  -21.8406  -12.5495   21.4901 N   0  0  0  0  0  0  0  0  0  0  0  0
  -29.9967  -15.7565   21.3023 N   0  0  0  0  0  0  0  0  0  0  0  0
  -25.9852  -28.4477   23.5422 N   0  0  0  0  0  0  0  0  0  0  0  0
  -29.4489  -25.5220   18.8010 N   0  0  0  0  0  0  0  0  0  0  0  0
  -32.7120  -23.9685   18.8829 N   0  3  0  0  0  0  0  0  0  0  0  0
  -22.5962  -14.6735   21.0701 O   0  0  0  0  0  0  0  0  0  0  0  0
  -25.6290  -26.2223   22.9563 O   0  0  0  0  0  0  0  0  0  0  0  0
  -28.3300  -27.7444   20.2214 O   0  0  0  0  0  0  0  0  0  0  0  0
  -30.0239  -23.3763   19.4661 O   0  0  0  0  0  0  0  0  0  0  0  0
  -31.8090  -14.9327   20.1113 O   0  0  0  0  0  0  0  0  0  0  0  0
  -27.9544  -21.1768   25.5678 O   0  0  0  0  0  0  0  0  0  1  0  0
  -21.6324   -7.0058   21.9995 O   0  0  0  0  0  0  0  0  0  0  0  0
  -18.5462   -7.1316   26.5672 F   0  0  0  0  0  0  0  0  0  0  0  0
  -19.6090   -8.8666   22.2933 F   0  0  0  0  0  0  0  0  0  0  0  0
  1  2  3  0  0  0  0
  1 21  1  0  0  0  0
  2 76  1  0  0  0  0
  3  4  1  0  0  0  0
  3  9  2  0  0  0  0
  4 10  2  0  0  0  0
  5  6  2  0  0  0  0
  5 12  1  0  0  0  0
  6 21  1  0  0  0  0
  7 13  2  0  0  0  0
  7 22  1  0  0  0  0
  8 14  1  0  0  0  0
  8 22  2  0  0  0  0
  9 24  1  0  0  0  0
 10 26  1  0  0  0  0
 11 15  2  0  0  0  0
 11 25  1  0  0  0  0
 12 28  2  0  0  0  0
 13 29  1  0  0  0  0
 14 29  2  0  0  0  0
 15 30  1  0  0  0  0
 16 17  2  0  0  0  0
 16 31  1  0  0  0  0
 17 32  1  0  0  0  0
 18 21  2  0  0  0  0
 18 28  1  0  0  0  0
 19 27  1  0  0  0  0
 19 30  2  0  0  0  0
 20 32  2  0  0  0  0
 20 33  1  0  0  0  0
 22 34  1  0  0  0  0
 23 34  1  0  0  0  0
 23 35  2  0  0  0  0
 23 36  1  0  0  0  0
 24 26  2  0  0  0  0
 24 41  1  0  0  0  0
 25 27  2  0  0  0  0
 25 42  1  0  0  0  0
 26 50  1  0  0  0  0
 27 43  1  0  0  0  0
 28 67  1  0  0  0  0
 29 77  1  0  0  0  0
 30 76  1  0  0  0  0
 31 33  2  0  0  0  0
 31 77  1  0  0  0  0
 32 78  1  0  0  0  0
 33 79  1  0  0  0  0
 34 61  2  0  0  0  0
 35 62  1  0  0  0  0
 35 65  1  0  0  0  0
 36 66  1  0  0  0  0
 36 71  2  0  0  0  0
 37 51  1  0  0  0  0
 37 68  1  0  0  0  0
 37 72  2  0  0  0  0
 38 58  1  0  0  0  0
 38 63  1  0  0  0  0
 38 73  2  0  0  0  0
 39 59  1  0  0  0  0
 39 69  1  0  0  0  0
 39 74  2  0  0  0  0
 40 64  1  0  0  0  0
 40 67  1  0  0  0  0
 40 75  2  0  0  0  0
 41 44  1  0  0  0  0
 42 51  1  0  0  0  0
 43 63  1  0  0  0  0
 44 46  1  0  0  0  0
 45 47  1  0  0  0  0
 45 48  1  0  0  0  0
 46 50  1  0  0  0  0
 47 52  1  0  0  0  0
 48 64  1  0  0  0  0
 49 52  1  0  0  0  0
 49 64  1  0  0  0  0
 50 68  1  0  0  0  0
 51 63  1  0  0  0  0
 52 62  1  0  0  0  0
 53 59  1  0  0  0  0
 54 60  1  0  0  0  0
 55 60  1  0  0  0  0
 56 60  1  0  0  0  0
 57 70  1  0  0  0  0
 58 60  1  0  0  0  0
 58 69  1  0  0  0  0
 59 70  1  0  0  0  0
 61 62  1  0  0  0  0
M  CHG  1  70   1
M  ISO  4   2 101  40 100  67 100  76 101
M  END
> <Batch ID>
0079

> <Smiles>
CNC(C)C(=O)NC(C(=O)N1Cc2cc([101O:1][101C:1]#Cc3cccc([100NH:0][100C:0](=O)N4CCCC(n5nc(-c6ccc(Oc7ccc(F)cc7F)cc6)c(C(N)=O)c5N)C4)c3)ccc2CC1C(=O)NC1CCCc2ccccc21)C(C)(C)C

> <Shape>
0.272

> <Color>
0.209

> <Negative vol penalty>
0.000

$$$$

  -OEChem-04042323593D

 85 93  0     1  0  0  0  0  0999 V2000
  -29.7452  -34.6142   26.1851 C   0  0  0  0  0  0  0  0  0  0  0  0
  -29.2962  -33.3500   25.8168 C   0  0  0  0  0  0  0  0  0  0  0  0
  -24.2786   -8.5156   20.3978 C   0  0  0  0  0  0  0  0  0  0  0  0
  -22.9296  -10.4430   20.9477 C   0  0  0  0  0  0  0  0  0  0  0  0
  -29.4344  -20.1584   20.2188 C   0  0  0  0  0  0  0  0  0  0  0  0
  -28.1251  -19.6449   18.2544 C   0  0  0  0  0  0  0  0  0  0  0  0
  -28.8419  -35.6714   26.2863 C   0  0  0  0  0  0  0  0  0  0  0  0
  -27.9434  -33.1421   25.5504 C   0  0  0  0  0  0  0  0  0  0  0  0
  -27.1876  -30.3938   21.3646 C   0  0  0  0  0  0  0  0  0  0  0  0
  -29.4962  -18.8007   20.5326 C   0  0  0  0  0  0  0  0  0  0  0  0
  -28.1869  -18.2871   18.5681 C   0  0  0  0  0  0  0  0  0  0  0  0
  -23.2756   -7.6756   20.8816 C   0  0  0  0  0  0  0  0  0  0  0  0
  -21.9266   -9.6030   21.4315 C   0  0  0  0  0  0  0  0  0  0  0  0
  -27.3721  -29.0156   21.4659 C   0  0  0  0  0  0  0  0  0  0  0  0
  -22.1630   -6.5993   23.8863 C   0  0  0  0  0  0  0  0  0  0  0  0
  -22.5467   -5.5393   24.7077 C   0  0  0  0  0  0  0  0  0  0  0  0
  -24.9854  -28.7156   21.6480 C   0  0  0  0  0  0  0  0  0  0  0  0
  -21.6053   -3.9735   23.1269 C   0  0  0  0  0  0  0  0  0  0  0  0
  -24.1056   -9.8993   20.4309 C   0  0  0  0  0  0  0  0  0  0  0  0
  -28.7488  -20.5805   19.0797 C   0  0  0  0  0  0  0  0  0  0  0  0
  -25.2888  -11.2463   18.6162 C   0  0  0  0  0  0  0  0  0  0  0  0
  -27.4788  -35.4786   26.0116 C   0  0  0  0  0  0  0  0  0  0  0  0
  -25.8992  -30.9451   21.4153 C   0  0  0  0  0  0  0  0  0  0  0  0
  -27.0207  -34.1974   25.6492 C   0  0  0  0  0  0  0  0  0  0  0  0
  -24.7871  -30.1009   21.5446 C   0  0  0  0  0  0  0  0  0  0  0  0
  -28.8724  -17.8651   19.7072 C   0  0  0  0  0  0  0  0  0  0  0  0
  -22.0996   -8.2192   21.3984 C   0  0  0  0  0  0  0  0  0  0  0  0
  -26.2711  -28.1765   21.6105 C   0  0  0  0  0  0  0  0  0  0  0  0
  -21.5003   -6.3464   22.6852 C   0  0  0  0  0  0  0  0  0  0  0  0
  -22.2679   -4.2264   24.3280 C   0  0  0  0  0  0  0  0  0  0  0  0
  -21.2215   -5.0335   22.3055 C   0  0  0  0  0  0  0  0  0  0  0  0
  -25.1415  -10.7676   19.9318 C   0  0  0  0  0  0  0  0  0  0  0  0
  -26.4187  -12.0260   18.6590 C   0  0  0  0  0  0  0  0  0  0  0  0
  -27.0579  -26.1836   20.6724 C   0  0  0  0  0  0  0  0  0  1  0  0
  -28.6833  -22.0183   18.7473 C   0  0  0  0  0  0  0  0  0  0  0  0
  -24.4768  -11.0076   17.4589 C   0  0  0  0  0  0  0  0  0  0  0  0
  -27.2830  -24.8650   20.6638 C   0  0  0  0  0  0  0  0  0  0  0  0
  -27.9515  -24.2708   19.4822 C   0  0  0  0  0  0  0  0  0  0  0  0
  -24.3968  -32.9607   23.3605 C   0  0  0  0  0  0  0  0  0  0  0  0
  -22.0404  -32.7320   21.1430 C   0  0  0  0  0  0  0  0  0  0  0  0
  -20.5798  -30.9250   18.6433 C   0  0  0  0  0  0  0  0  0  0  0  0
  -29.5737  -15.8993   21.1180 C   0  0  0  0  0  0  0  0  0  0  0  0
  -26.5327  -36.6410   26.1803 C   0  0  0  0  0  0  0  0  0  0  0  0
  -25.7153  -32.4316   21.2778 C   0  0  0  0  0  0  0  0  0  0  0  0
  -23.3818  -30.6412   21.5840 C   0  0  0  0  0  0  0  0  0  0  0  0
  -25.1752  -36.4226   25.5171 C   0  0  0  0  0  0  0  0  0  0  0  0
  -29.9246  -12.5495   22.2724 C   0  0  0  0  0  0  0  0  0  0  0  0
  -24.6334  -35.0369   25.8536 C   0  0  0  0  0  0  0  0  0  0  0  0
  -28.7236  -11.8266   21.6582 C   0  0  0  0  0  0  0  0  0  0  0  0
  -29.5742  -13.9761   22.6916 C   0  0  0  0  0  0  0  0  0  0  0  0
  -27.7613  -14.0765   21.0266 C   0  0  0  0  0  0  0  0  0  0  0  0
  -25.5648  -33.9379   25.3281 C   0  0  1  0  0  0  0  0  0  0  0  0
  -24.3941  -32.9264   21.8583 C   0  0  1  0  0  0  0  0  0  0  0  0
  -28.0826  -12.6577   20.5294 C   0  0  2  0  0  0  0  0  0  0  0  0
  -18.6459  -30.9787   17.0451 C   0  0  0  0  0  0  0  0  0  0  0  0
  -20.1441  -31.9938   23.4165 C   0  0  0  0  0  0  0  0  0  0  0  0
  -18.5272  -31.1507   21.7010 C   0  0  0  0  0  0  0  0  0  0  0  0
  -19.1799  -33.5582   21.7202 C   0  0  0  0  0  0  0  0  0  0  0  0
  -22.3736  -30.8782   16.2898 C   0  0  0  0  0  0  0  0  0  0  0  0
  -20.8490  -31.8277   20.9383 C   0  0  1  0  0  0  0  0  0  0  0  0
  -20.1127  -31.3215   17.2544 C   0  0  2  0  0  0  0  0  0  0  0  0
  -19.7015  -32.1223   21.9453 C   0  0  0  0  0  0  0  0  0  0  0  0
  -26.1012  -11.2063   20.7507 N   0  0  0  0  0  0  0  0  0  0  0  0
  -26.8624  -11.9688   19.9474 N   0  0  0  0  0  0  0  0  0  0  0  0
  -23.2542  -32.1019   21.4521 N   0  0  0  0  0  0  0  0  0  0  0  0
  -28.9756  -14.7042   21.5708 N   0  0  0  0  0  0  0  0  0  0  0  0
  -27.0661  -12.7479   17.7198 N   0  0  0  0  0  0  0  0  0  0  0  0
  -23.3520  -10.1818   17.5906 N   0  0  0  0  0  0  0  0  0  0  0  0
  -28.9351  -16.4858   20.0259 N   0  0  0  0  0  0  0  0  0  0  0  0
  -28.1163  -22.8467   19.6356 N   0  0  0  0  0  0  0  0  0  0  0  0
  -25.3841  -33.7608   23.9032 N   0  0  0  0  0  0  0  0  0  0  0  0
  -20.4657  -31.9682   19.5377 N   0  0  0  0  0  0  0  0  0  0  0  0
  -29.1951  -22.4095   17.5808 N   0  3  0  0  0  0  0  0  0  0  0  0
  -20.9137  -30.6128   16.2166 N   0  3  0  0  0  0  0  0  0  0  0  0
  -24.7501  -11.4984   16.3373 O   0  0  0  0  0  0  0  0  0  0  0  0
  -28.3279  -24.8750   18.4913 O   0  0  0  0  0  0  0  0  0  0  0  0
  -23.5638  -32.3107   23.9812 O   0  0  0  0  0  0  0  0  0  0  0  0
  -21.9008  -33.9520   21.0256 O   0  0  0  0  0  0  0  0  0  0  0  0
  -21.0001  -29.8011   18.9092 O   0  0  0  0  0  0  0  0  0  0  0  0
  -30.5941  -16.3533   21.6420 O   0  0  0  0  0  0  0  0  0  0  0  0
  -26.9220  -24.0341   21.7016 O   0  0  0  0  0  0  0  0  0  0  0  0
  -21.1207   -7.3998   21.8704 O   0  0  0  0  0  0  0  0  0  0  0  0
  -26.4484  -26.8310   21.7103 O   0  0  0  0  0  0  0  0  0  1  0  0
  -22.6379   -3.2085   25.1162 F   0  0  0  0  0  0  0  0  0  0  0  0
  -20.5863   -4.7843   21.1521 F   0  0  0  0  0  0  0  0  0  0  0  0
  1  2  1  0  0  0  0
  1  7  2  0  0  0  0
  2  8  2  0  0  0  0
  3 12  2  0  0  0  0
  3 19  1  0  0  0  0
  4 13  1  0  0  0  0
  4 19  2  0  0  0  0
  5 10  2  0  0  0  0
  5 20  1  0  0  0  0
  6 11  1  0  0  0  0
  6 20  2  0  0  0  0
  7 22  1  0  0  0  0
  8 24  1  0  0  0  0
  9 14  2  0  0  0  0
  9 23  1  0  0  0  0
 10 26  1  0  0  0  0
 11 26  2  0  0  0  0
 12 27  1  0  0  0  0
 13 27  2  0  0  0  0
 14 28  1  0  0  0  0
 15 16  2  0  0  0  0
 15 29  1  0  0  0  0
 16 30  1  0  0  0  0
 17 25  1  0  0  0  0
 17 28  2  0  0  0  0
 18 30  2  0  0  0  0
 18 31  1  0  0  0  0
 19 32  1  0  0  0  0
 20 35  1  0  0  0  0
 21 32  1  0  0  0  0
 21 33  2  0  0  0  0
 21 36  1  0  0  0  0
 22 24  2  0  0  0  0
 22 43  1  0  0  0  0
 23 25  2  0  0  0  0
 23 44  1  0  0  0  0
 24 52  1  0  0  0  0
 25 45  1  0  0  0  0
 26 69  1  0  0  0  0
 27 82  1  0  0  0  0
 28 83  1  0  0  0  0
 29 31  2  0  0  0  0
 29 82  1  0  0  0  0
 30 84  1  0  0  0  0
 31 85  1  0  0  0  0
 32 63  2  0  0  0  0
 33 64  1  0  0  0  0
 33 67  1  0  0  0  0
 34 37  2  0  0  0  0
 34 83  1  0  0  0  0
 35 70  1  0  0  0  0
 35 73  2  0  0  0  0
 36 68  1  0  0  0  0
 36 75  2  0  0  0  0
 37 38  1  0  0  0  0
 37 81  1  0  0  0  0
 38 70  1  0  0  0  0
 38 76  2  0  0  0  0
 39 53  1  0  0  0  0
 39 71  1  0  0  0  0
 39 77  2  0  0  0  0
 40 60  1  0  0  0  0
 40 65  1  0  0  0  0
 40 78  2  0  0  0  0
 41 61  1  0  0  0  0
 41 72  1  0  0  0  0
 41 79  2  0  0  0  0
 42 66  1  0  0  0  0
 42 69  1  0  0  0  0
 42 80  2  0  0  0  0
 43 46  1  0  0  0  0
 44 53  1  0  0  0  0
 45 65  1  0  0  0  0
 46 48  1  0  0  0  0
 47 49  1  0  0  0  0
 47 50  1  0  0  0  0
 48 52  1  0  0  0  0
 49 54  1  0  0  0  0
 50 66  1  0  0  0  0
 51 54  1  0  0  0  0
 51 66  1  0  0  0  0
 52 71  1  0  0  0  0
 53 65  1  0  0  0  0
 54 64  1  0  0  0  0
 55 61  1  0  0  0  0
 56 62  1  0  0  0  0
 57 62  1  0  0  0  0
 58 62  1  0  0  0  0
 59 74  1  0  0  0  0
 60 62  1  0  0  0  0
 60 72  1  0  0  0  0
 61 74  1  0  0  0  0
 63 64  1  0  0  0  0
M  CHG  2  73   1  74   1
M  ISO  4  34 101  42 100  69 100  83 101
M  END
> <Batch ID>
0079

> <Smiles>
CNC(C)C(=O)NC(C(=O)N1Cc2cc([101O:1][101CH2:1]C(=O)C(=O)NC(=N)c3ccc([100NH:0][100C:0](=O)N4CCCC(n5nc(-c6ccc(Oc7ccc(F)cc7F)cc6)c(C(N)=O)c5N)C4)cc3)ccc2CC1C(=O)NC1CCCc2ccccc21)C(C)(C)C

> <Shape>
0.279

> <Color>
0.098

> <Negative vol penalty>
0.000

$$$$

  -OEChem-04042323593D

 87 96  0     1  0  0  0  0  0999 V2000
  -17.7412  -28.2657   24.3400 C   0  0  0  0  0  0  0  0  0  0  0  0
  -18.7091  -27.6443   23.5576 C   0  0  0  0  0  0  0  0  0  0  0  0
  -24.6988  -19.2099   17.7825 C   0  0  0  0  0  0  0  0  0  0  0  0
  -23.1649   -9.6797   19.8364 C   0  0  0  0  0  0  0  0  0  0  0  0
  -24.4830   -9.2508   21.8152 C   0  0  0  0  0  0  0  0  0  0  0  0
  -17.4396  -29.6115   24.1355 C   0  0  0  0  0  0  0  0  0  0  0  0
  -19.3754  -28.3681   22.5693 C   0  0  0  0  0  0  0  0  0  0  0  0
  -24.3682  -27.5213   22.5738 C   0  0  0  0  0  0  0  0  0  0  0  0
  -25.4191  -20.3865   17.9884 C   0  0  0  0  0  0  0  0  0  0  0  0
  -25.1296  -18.0176   18.3644 C   0  0  0  0  0  0  0  0  0  0  0  0
  -22.0717   -9.0461   20.4272 C   0  0  0  0  0  0  0  0  0  0  0  0
  -23.3897   -8.6173   22.4061 C   0  0  0  0  0  0  0  0  0  0  0  0
  -24.8131  -26.3340   21.9940 C   0  0  0  0  0  0  0  0  0  0  0  0
  -21.8586   -5.6082   22.2279 C   0  0  0  0  0  0  0  0  0  0  0  0
  -22.0860   -4.3954   22.8783 C   0  0  0  0  0  0  0  0  0  0  0  0
  -25.3930  -27.5388   19.9862 C   0  0  0  0  0  0  0  0  0  0  0  0
  -27.0010  -19.1785   19.3579 C   0  0  0  0  0  0  0  0  0  0  0  0
  -21.2832   -5.3537   24.9458 C   0  0  0  0  0  0  0  0  0  0  0  0
  -24.3706   -9.7820   20.5304 C   0  0  0  0  0  0  0  0  0  0  0  0
  -26.1494  -10.0726   18.7251 C   0  0  0  0  0  0  0  0  0  0  0  0
  -18.1093  -30.3547   23.1508 C   0  0  0  0  0  0  0  0  0  0  0  0
  -24.4223  -28.7265   21.8589 C   0  0  0  0  0  0  0  0  0  0  0  0
  -19.0815  -29.7248   22.3505 C   0  0  0  0  0  0  0  0  0  0  0  0
  -24.9504  -28.7405   20.5601 C   0  0  0  0  0  0  0  0  0  0  0  0
  -26.5702  -20.3708   18.7760 C   0  0  0  0  0  0  0  0  0  0  0  0
  -26.2807  -18.0019   19.1521 C   0  0  0  0  0  0  0  0  0  0  0  0
  -22.1841   -8.5149   21.7121 C   0  0  0  0  0  0  0  0  0  0  0  0
  -25.3229  -26.3421   20.6990 C   0  0  0  0  0  0  0  0  0  0  0  0
  -21.3435   -6.6937   22.9364 C   0  0  0  0  0  0  0  0  0  0  0  0
  -21.7984   -4.2682   24.2372 C   0  0  0  0  0  0  0  0  0  0  0  0
  -21.0558   -6.5665   24.2953 C   0  0  0  0  0  0  0  0  0  0  0  0
  -25.5004  -10.4358   19.9204 C   0  0  0  0  0  0  0  0  0  0  0  0
  -27.1513  -11.0012   18.5826 C   0  0  0  0  0  0  0  0  0  0  0  0
  -28.9946  -23.8755   18.7210 C   0  0  0  0  0  0  0  0  0  0  0  0
  -27.6008  -24.0202   19.1660 C   0  0  0  0  0  0  0  0  0  0  0  0
  -29.5332  -22.5134   18.5973 C   0  0  0  0  0  0  0  0  0  0  0  0
  -26.6698  -22.8434   18.9928 C   0  0  0  0  0  0  0  0  0  0  0  0
  -29.7529  -24.9551   18.4425 C   0  0  0  0  0  0  0  0  0  0  0  0
  -30.5960  -22.1495   17.8600 C   0  0  0  0  0  0  0  0  0  0  0  0
  -27.0642  -25.1116   19.7375 C   0  0  0  0  0  0  0  0  0  1  0  0
  -25.8713   -8.9925   17.8241 C   0  0  0  0  0  0  0  0  0  0  0  0
  -22.2664  -30.8258   20.8348 C   0  0  0  0  0  0  0  0  0  0  0  0
  -24.8962  -32.5201   19.9770 C   0  0  0  0  0  0  0  0  0  0  0  0
  -28.1020  -31.8251   18.4746 C   0  0  0  0  0  0  0  0  0  0  0  0
  -27.8378  -16.6009   20.5516 C   0  0  0  0  0  0  0  0  0  0  0  0
  -17.7157  -31.7945   22.9348 C   0  0  0  0  0  0  0  0  0  0  0  0
  -23.9631  -30.0031   22.5083 C   0  0  0  0  0  0  0  0  0  0  0  0
  -25.0490  -30.0113   19.7577 C   0  0  0  0  0  0  0  0  0  0  0  0
  -28.7345  -21.4897   19.3680 C   0  0  0  0  0  0  0  0  0  0  0  0
  -18.7327  -32.5882   22.1187 C   0  0  0  0  0  0  0  0  0  0  0  0
  -30.0127  -13.8482   21.1597 C   0  0  0  0  0  0  0  0  0  0  0  0
  -19.1624  -31.7977   20.8870 C   0  0  0  0  0  0  0  0  0  0  0  0
  -29.1635  -12.6280   20.7963 C   0  0  0  0  0  0  0  0  0  0  0  0
  -29.1790  -14.9415   21.8255 C   0  0  0  0  0  0  0  0  0  0  0  0
  -27.1343  -14.1323   20.7148 C   0  0  0  0  0  0  0  0  0  0  0  0
  -19.8435  -30.4828   21.2852 C   0  0  1  0  0  0  0  0  0  0  0  0
  -23.5884  -31.0851   21.5002 C   0  0  1  0  0  0  0  0  0  0  0  0
  -27.9178  -13.0305   19.9828 C   0  0  2  0  0  0  0  0  0  0  0  0
  -30.2926  -33.0333   18.6720 C   0  0  0  0  0  0  0  0  0  0  0  0
  -23.9948  -33.9680   17.4469 C   0  0  0  0  0  0  0  0  0  0  0  0
  -26.3621  -33.8795   16.6366 C   0  0  0  0  0  0  0  0  0  0  0  0
  -25.8058  -35.1277   18.7236 C   0  0  0  0  0  0  0  0  0  0  0  0
  -29.5086  -29.3722   19.3486 C   0  0  0  0  0  0  0  0  0  0  0  0
  -25.7605  -32.5999   18.7418 C   0  0  1  0  0  0  0  0  0  0  0  0
  -29.4550  -31.8624   19.1620 C   0  0  2  0  0  0  0  0  0  0  0  0
  -25.4670  -33.8699   17.8942 C   0  0  0  0  0  0  0  0  0  0  0  0
  -26.0445  -11.5111   20.4963 N   0  0  0  0  0  0  0  0  0  0  0  0
  -27.0460  -11.8315   19.6594 N   0  0  0  0  0  0  0  0  0  0  0  0
  -27.3138  -21.5874   18.9887 N   0  0  0  0  0  0  0  0  0  0  0  0
  -24.5813  -31.2325   20.4341 N   0  0  0  0  0  0  0  0  0  0  0  0
  -28.0187  -15.2740   20.9960 N   0  0  0  0  0  0  0  0  0  0  0  0
  -28.1035  -11.1802   17.6425 N   0  0  0  0  0  0  0  0  0  0  0  0
  -26.5061   -7.7618   18.0403 N   0  0  0  0  0  0  0  0  0  0  0  0
  -26.7177  -16.7904   19.7430 N   0  0  0  0  0  0  0  0  0  0  0  0
  -21.2041  -30.7278   21.7132 N   0  0  0  0  0  0  0  0  0  0  0  0
  -27.1409  -32.4946   19.2021 N   0  0  0  0  0  0  0  0  0  0  0  0
  -30.2062  -30.6031   18.8957 N   0  3  0  0  0  0  0  0  0  0  0  0
  -25.4576  -23.0315   18.8964 O   0  0  0  0  0  0  0  0  0  0  0  0
  -25.0958   -9.1199   16.8464 O   0  0  0  0  0  0  0  0  0  0  0  0
  -22.2137  -30.7237   19.6148 O   0  0  0  0  0  0  0  0  0  0  0  0
  -24.5203  -33.5617   20.5204 O   0  0  0  0  0  0  0  0  0  0  0  0
  -27.9171  -31.2617   17.3981 O   0  0  0  0  0  0  0  0  0  0  0  0
  -28.6341  -17.4971   20.8429 O   0  0  0  0  0  0  0  0  0  0  0  0
  -21.1175   -7.8969   22.2890 O   0  0  0  0  0  0  0  0  0  0  0  0
  -25.7573  -25.1846   20.1305 O   0  0  0  0  0  0  0  0  0  1  0  0
  -22.0154   -3.1030   24.8614 F   0  0  0  0  0  0  0  0  0  0  0  0
  -20.5597   -7.6055   24.9810 F   0  0  0  0  0  0  0  0  0  0  0  0
  1  2  1  0  0  0  0
  1  6  2  0  0  0  0
  2  7  2  0  0  0  0
  3  9  2  0  0  0  0
  3 10  1  0  0  0  0
  4 11  2  0  0  0  0
  4 19  1  0  0  0  0
  5 12  1  0  0  0  0
  5 19  2  0  0  0  0
  6 21  1  0  0  0  0
  7 23  1  0  0  0  0
  8 13  2  0  0  0  0
  8 22  1  0  0  0  0
  9 25  1  0  0  0  0
 10 26  2  0  0  0  0
 11 27  1  0  0  0  0
 12 27  2  0  0  0  0
 13 28  1  0  0  0  0
 14 15  2  0  0  0  0
 14 29  1  0  0  0  0
 15 30  1  0  0  0  0
 16 24  1  0  0  0  0
 16 28  2  0  0  0  0
 17 25  2  0  0  0  0
 17 26  1  0  0  0  0
 18 30  2  0  0  0  0
 18 31  1  0  0  0  0
 19 32  1  0  0  0  0
 20 32  1  0  0  0  0
 20 33  2  0  0  0  0
 20 41  1  0  0  0  0
 21 23  2  0  0  0  0
 21 46  1  0  0  0  0
 22 24  2  0  0  0  0
 22 47  1  0  0  0  0
 23 56  1  0  0  0  0
 24 48  1  0  0  0  0
 25 69  1  0  0  0  0
 26 74  1  0  0  0  0
 27 84  1  0  0  0  0
 28 85  1  0  0  0  0
 29 31  2  0  0  0  0
 29 84  1  0  0  0  0
 30 86  1  0  0  0  0
 31 87  1  0  0  0  0
 32 67  2  0  0  0  0
 33 68  1  0  0  0  0
 33 72  1  0  0  0  0
 34 35  1  0  0  0  0
 34 36  1  0  0  0  0
 34 38  2  0  0  0  0
 35 37  1  0  0  0  0
 35 40  2  0  0  0  0
 36 39  2  0  0  0  0
 36 49  1  0  0  0  0
 37 69  1  0  0  0  0
 37 78  2  0  0  0  0
 40 85  1  0  0  0  0
 41 73  1  0  0  0  0
 41 79  2  0  0  0  0
 42 57  1  0  0  0  0
 42 75  1  0  0  0  0
 42 80  2  0  0  0  0
 43 64  1  0  0  0  0
 43 70  1  0  0  0  0
 43 81  2  0  0  0  0
 44 65  1  0  0  0  0
 44 76  1  0  0  0  0
 44 82  2  0  0  0  0
 45 71  1  0  0  0  0
 45 74  1  0  0  0  0
 45 83  2  0  0  0  0
 46 50  1  0  0  0  0
 47 57  1  0  0  0  0
 48 70  1  0  0  0  0
 49 69  1  0  0  0  0
 50 52  1  0  0  0  0
 51 53  1  0  0  0  0
 51 54  1  0  0  0  0
 52 56  1  0  0  0  0
 53 58  1  0  0  0  0
 54 71  1  0  0  0  0
 55 58  1  0  0  0  0
 55 71  1  0  0  0  0
 56 75  1  0  0  0  0
 57 70  1  0  0  0  0
 58 68  1  0  0  0  0
 59 65  1  0  0  0  0
 60 66  1  0  0  0  0
 61 66  1  0  0  0  0
 62 66  1  0  0  0  0
 63 77  1  0  0  0  0
 64 66  1  0  0  0  0
 64 76  1  0  0  0  0
 65 77  1  0  0  0  0
 67 68  1  0  0  0  0
M  CHG  1  77   1
M  ISO  4  40 101  45 100  74 100  85 101
M  END
> <Batch ID>
0079

> <Smiles>
C=C1CN(c2cccc([100NH:0][100C:0](=O)N3CCCC(n4nc(-c5ccc(Oc6ccc(F)cc6F)cc5)c(C(N)=O)c4N)C3)c2)C(=O)C(=[101CH:1][101O:1]c2ccc3c(c2)CN(C(=O)C(NC(=O)C(C)NC)C(C)(C)C)C(C(=O)NC2CCCc4ccccc42)C3)C1=C

> <Shape>
0.258

> <Color>
0.092

> <Negative vol penalty>
0.000

$$$$

  -OEChem-04042323593D

 87 96  0     1  0  0  0  0  0999 V2000
  -17.7412  -28.2657   24.3400 C   0  0  0  0  0  0  0  0  0  0  0  0
  -18.7091  -27.6443   23.5576 C   0  0  0  0  0  0  0  0  0  0  0  0
  -24.6988  -19.2099   17.7825 C   0  0  0  0  0  0  0  0  0  0  0  0
  -23.1649   -9.6797   19.8364 C   0  0  0  0  0  0  0  0  0  0  0  0
  -24.4830   -9.2508   21.8152 C   0  0  0  0  0  0  0  0  0  0  0  0
  -17.4396  -29.6115   24.1355 C   0  0  0  0  0  0  0  0  0  0  0  0
  -19.3754  -28.3681   22.5693 C   0  0  0  0  0  0  0  0  0  0  0  0
  -24.3682  -27.5213   22.5738 C   0  0  0  0  0  0  0  0  0  0  0  0
  -25.4191  -20.3865   17.9884 C   0  0  0  0  0  0  0  0  0  0  0  0
  -25.1296  -18.0176   18.3644 C   0  0  0  0  0  0  0  0  0  0  0  0
  -22.0717   -9.0461   20.4272 C   0  0  0  0  0  0  0  0  0  0  0  0
  -23.3897   -8.6173   22.4061 C   0  0  0  0  0  0  0  0  0  0  0  0
  -24.8131  -26.3340   21.9940 C   0  0  0  0  0  0  0  0  0  0  0  0
  -21.8586   -5.6082   22.2279 C   0  0  0  0  0  0  0  0  0  0  0  0
  -22.0860   -4.3954   22.8783 C   0  0  0  0  0  0  0  0  0  0  0  0
  -25.3930  -27.5388   19.9862 C   0  0  0  0  0  0  0  0  0  0  0  0
  -27.0010  -19.1785   19.3579 C   0  0  0  0  0  0  0  0  0  0  0  0
  -21.2832   -5.3537   24.9458 C   0  0  0  0  0  0  0  0  0  0  0  0
  -24.3706   -9.7820   20.5304 C   0  0  0  0  0  0  0  0  0  0  0  0
  -26.1494  -10.0726   18.7251 C   0  0  0  0  0  0  0  0  0  0  0  0
  -18.1093  -30.3547   23.1508 C   0  0  0  0  0  0  0  0  0  0  0  0
  -24.4223  -28.7265   21.8589 C   0  0  0  0  0  0  0  0  0  0  0  0
  -19.0815  -29.7248   22.3505 C   0  0  0  0  0  0  0  0  0  0  0  0
  -24.9504  -28.7405   20.5601 C   0  0  0  0  0  0  0  0  0  0  0  0
  -26.5702  -20.3708   18.7760 C   0  0  0  0  0  0  0  0  0  0  0  0
  -26.2807  -18.0019   19.1521 C   0  0  0  0  0  0  0  0  0  0  0  0
  -22.1841   -8.5149   21.7121 C   0  0  0  0  0  0  0  0  0  0  0  0
  -25.3229  -26.3421   20.6990 C   0  0  0  0  0  0  0  0  0  0  0  0
  -21.3435   -6.6937   22.9364 C   0  0  0  0  0  0  0  0  0  0  0  0
  -21.7984   -4.2682   24.2372 C   0  0  0  0  0  0  0  0  0  0  0  0
  -21.0558   -6.5665   24.2953 C   0  0  0  0  0  0  0  0  0  0  0  0
  -25.5004  -10.4358   19.9204 C   0  0  0  0  0  0  0  0  0  0  0  0
  -27.1513  -11.0012   18.5826 C   0  0  0  0  0  0  0  0  0  0  0  0
  -28.9946  -23.8755   18.7210 C   0  0  0  0  0  0  0  0  0  0  0  0
  -27.6008  -24.0202   19.1660 C   0  0  0  0  0  0  0  0  0  0  0  0
  -29.5332  -22.5134   18.5973 C   0  0  0  0  0  0  0  0  0  0  0  0
  -26.6698  -22.8434   18.9928 C   0  0  0  0  0  0  0  0  0  0  0  0
  -29.7529  -24.9551   18.4425 C   0  0  0  0  0  0  0  0  0  0  0  0
  -30.5960  -22.1495   17.8600 C   0  0  0  0  0  0  0  0  0  0  0  0
  -27.0642  -25.1116   19.7375 C   0  0  0  0  0  0  0  0  0  1  0  0
  -25.8713   -8.9925   17.8241 C   0  0  0  0  0  0  0  0  0  0  0  0
  -22.2664  -30.8258   20.8348 C   0  0  0  0  0  0  0  0  0  0  0  0
  -24.8962  -32.5201   19.9770 C   0  0  0  0  0  0  0  0  0  0  0  0
  -28.1020  -31.8251   18.4746 C   0  0  0  0  0  0  0  0  0  0  0  0
  -27.8378  -16.6009   20.5516 C   0  0  0  0  0  0  0  0  0  0  0  0
  -17.7157  -31.7945   22.9348 C   0  0  0  0  0  0  0  0  0  0  0  0
  -23.9631  -30.0031   22.5083 C   0  0  0  0  0  0  0  0  0  0  0  0
  -25.0490  -30.0113   19.7577 C   0  0  0  0  0  0  0  0  0  0  0  0
  -28.7345  -21.4897   19.3680 C   0  0  0  0  0  0  0  0  0  0  0  0
  -18.7327  -32.5882   22.1187 C   0  0  0  0  0  0  0  0  0  0  0  0
  -30.0127  -13.8482   21.1597 C   0  0  0  0  0  0  0  0  0  0  0  0
  -19.1624  -31.7977   20.8870 C   0  0  0  0  0  0  0  0  0  0  0  0
  -29.1635  -12.6280   20.7963 C   0  0  0  0  0  0  0  0  0  0  0  0
  -29.1790  -14.9415   21.8255 C   0  0  0  0  0  0  0  0  0  0  0  0
  -27.1343  -14.1323   20.7148 C   0  0  0  0  0  0  0  0  0  0  0  0
  -19.8435  -30.4828   21.2852 C   0  0  1  0  0  0  0  0  0  0  0  0
  -23.5884  -31.0851   21.5002 C   0  0  1  0  0  0  0  0  0  0  0  0
  -27.9178  -13.0305   19.9828 C   0  0  2  0  0  0  0  0  0  0  0  0
  -30.2926  -33.0333   18.6720 C   0  0  0  0  0  0  0  0  0  0  0  0
  -23.9948  -33.9680   17.4469 C   0  0  0  0  0  0  0  0  0  0  0  0
  -26.3621  -33.8795   16.6366 C   0  0  0  0  0  0  0  0  0  0  0  0
  -25.8058  -35.1277   18.7236 C   0  0  0  0  0  0  0  0  0  0  0  0
  -29.5086  -29.3722   19.3486 C   0  0  0  0  0  0  0  0  0  0  0  0
  -25.7605  -32.5999   18.7418 C   0  0  1  0  0  0  0  0  0  0  0  0
  -29.4550  -31.8624   19.1620 C   0  0  2  0  0  0  0  0  0  0  0  0
  -25.4670  -33.8699   17.8942 C   0  0  0  0  0  0  0  0  0  0  0  0
  -26.0445  -11.5111   20.4963 N   0  0  0  0  0  0  0  0  0  0  0  0
  -27.0460  -11.8315   19.6594 N   0  0  0  0  0  0  0  0  0  0  0  0
  -27.3138  -21.5874   18.9887 N   0  0  0  0  0  0  0  0  0  0  0  0
  -24.5813  -31.2325   20.4341 N   0  0  0  0  0  0  0  0  0  0  0  0
  -28.0187  -15.2740   20.9960 N   0  0  0  0  0  0  0  0  0  0  0  0
  -28.1035  -11.1802   17.6425 N   0  0  0  0  0  0  0  0  0  0  0  0
  -26.5061   -7.7618   18.0403 N   0  0  0  0  0  0  0  0  0  0  0  0
  -26.7177  -16.7904   19.7430 N   0  0  0  0  0  0  0  0  0  0  0  0
  -21.2041  -30.7278   21.7132 N   0  0  0  0  0  0  0  0  0  0  0  0
  -27.1409  -32.4946   19.2021 N   0  0  0  0  0  0  0  0  0  0  0  0
  -30.2062  -30.6031   18.8957 N   0  3  0  0  0  0  0  0  0  0  0  0
  -25.4576  -23.0315   18.8964 O   0  0  0  0  0  0  0  0  0  0  0  0
  -25.0958   -9.1199   16.8464 O   0  0  0  0  0  0  0  0  0  0  0  0
  -22.2137  -30.7237   19.6148 O   0  0  0  0  0  0  0  0  0  0  0  0
  -24.5203  -33.5617   20.5204 O   0  0  0  0  0  0  0  0  0  0  0  0
  -27.9171  -31.2617   17.3981 O   0  0  0  0  0  0  0  0  0  0  0  0
  -28.6341  -17.4971   20.8429 O   0  0  0  0  0  0  0  0  0  0  0  0
  -21.1175   -7.8969   22.2890 O   0  0  0  0  0  0  0  0  0  0  0  0
  -25.7573  -25.1846   20.1305 O   0  0  0  0  0  0  0  0  0  1  0  0
  -22.0154   -3.1030   24.8614 F   0  0  0  0  0  0  0  0  0  0  0  0
  -20.5597   -7.6055   24.9810 F   0  0  0  0  0  0  0  0  0  0  0  0
  1  2  1  0  0  0  0
  1  6  2  0  0  0  0
  2  7  2  0  0  0  0
  3  9  2  0  0  0  0
  3 10  1  0  0  0  0
  4 11  2  0  0  0  0
  4 19  1  0  0  0  0
  5 12  1  0  0  0  0
  5 19  2  0  0  0  0
  6 21  1  0  0  0  0
  7 23  1  0  0  0  0
  8 13  2  0  0  0  0
  8 22  1  0  0  0  0
  9 25  1  0  0  0  0
 10 26  2  0  0  0  0
 11 27  1  0  0  0  0
 12 27  2  0  0  0  0
 13 28  1  0  0  0  0
 14 15  2  0  0  0  0
 14 29  1  0  0  0  0
 15 30  1  0  0  0  0
 16 24  1  0  0  0  0
 16 28  2  0  0  0  0
 17 25  2  0  0  0  0
 17 26  1  0  0  0  0
 18 30  2  0  0  0  0
 18 31  1  0  0  0  0
 19 32  1  0  0  0  0
 20 32  1  0  0  0  0
 20 33  2  0  0  0  0
 20 41  1  0  0  0  0
 21 23  2  0  0  0  0
 21 46  1  0  0  0  0
 22 24  2  0  0  0  0
 22 47  1  0  0  0  0
 23 56  1  0  0  0  0
 24 48  1  0  0  0  0
 25 69  1  0  0  0  0
 26 74  1  0  0  0  0
 27 84  1  0  0  0  0
 28 85  1  0  0  0  0
 29 31  2  0  0  0  0
 29 84  1  0  0  0  0
 30 86  1  0  0  0  0
 31 87  1  0  0  0  0
 32 67  2  0  0  0  0
 33 68  1  0  0  0  0
 33 72  1  0  0  0  0
 34 35  1  0  0  0  0
 34 36  1  0  0  0  0
 34 38  2  0  0  0  0
 35 37  1  0  0  0  0
 35 40  2  0  0  0  0
 36 39  2  0  0  0  0
 36 49  1  0  0  0  0
 37 69  1  0  0  0  0
 37 78  2  0  0  0  0
 40 85  1  0  0  0  0
 41 73  1  0  0  0  0
 41 79  2  0  0  0  0
 42 57  1  0  0  0  0
 42 75  1  0  0  0  0
 42 80  2  0  0  0  0
 43 64  1  0  0  0  0
 43 70  1  0  0  0  0
 43 81  2  0  0  0  0
 44 65  1  0  0  0  0
 44 76  1  0  0  0  0
 44 82  2  0  0  0  0
 45 71  1  0  0  0  0
 45 74  1  0  0  0  0
 45 83  2  0  0  0  0
 46 50  1  0  0  0  0
 47 57  1  0  0  0  0
 48 70  1  0  0  0  0
 49 69  1  0  0  0  0
 50 52  1  0  0  0  0
 51 53  1  0  0  0  0
 51 54  1  0  0  0  0
 52 56  1  0  0  0  0
 53 58  1  0  0  0  0
 54 71  1  0  0  0  0
 55 58  1  0  0  0  0
 55 71  1  0  0  0  0
 56 75  1  0  0  0  0
 57 70  1  0  0  0  0
 58 68  1  0  0  0  0
 59 65  1  0  0  0  0
 60 66  1  0  0  0  0
 61 66  1  0  0  0  0
 62 66  1  0  0  0  0
 63 77  1  0  0  0  0
 64 66  1  0  0  0  0
 64 76  1  0  0  0  0
 65 77  1  0  0  0  0
 67 68  1  0  0  0  0
M  CHG  1  77   1
M  ISO  4  40 101  45 100  74 100  85 101
M  END
> <Batch ID>
0079

> <Smiles>
C=C1CN(c2cccc([100NH:0][100C:0](=O)N3CCCC(n4nc(-c5ccc(Oc6ccc(F)cc6F)cc5)c(C(N)=O)c4N)C3)c2)C(=O)C(=[101CH:1][101O:1]c2ccc3c(c2)CN(C(=O)C(NC(=O)C(C)NC)C(C)(C)C)C(C(=O)NC2CCCc4ccccc42)C3)C1=C

> <Shape>
0.258

> <Color>
0.092

> <Negative vol penalty>
0.000

$$$$

  -OEChem-04042323593D

 84 92  0     1  0  0  0  0  0999 V2000
  -28.7532  -11.2560   21.6708 C   0  0  0  0  0  0  0  0  0  0  0  0
  -29.0279  -12.5339   21.1944 C   0  0  0  0  0  0  0  0  0  0  0  0
  -29.9581  -27.8932   22.7683 C   0  0  0  0  0  0  0  0  0  0  0  0
  -20.0064  -28.5262   23.9574 C   0  0  0  0  0  0  0  0  0  0  0  0
  -20.5608  -27.2318   21.9942 C   0  0  0  0  0  0  0  0  0  0  0  0
  -29.2502  -28.8153   21.9976 C   0  0  0  0  0  0  0  0  0  0  0  0
  -27.4716  -10.7237   21.5365 C   0  0  0  0  0  0  0  0  0  0  0  0
  -28.0212  -13.2799   20.5824 C   0  0  0  0  0  0  0  0  0  0  0  0
  -27.9230  -18.0859   22.1754 C   0  0  0  0  0  0  0  0  0  0  0  0
  -30.1267  -26.5859   22.3117 C   0  0  0  0  0  0  0  0  0  0  0  0
  -18.6490  -28.3700   23.6771 C   0  0  0  0  0  0  0  0  0  0  0  0
  -19.2034  -27.0754   21.7139 C   0  0  0  0  0  0  0  0  0  0  0  0
  -28.8777  -18.9522   21.6447 C   0  0  0  0  0  0  0  0  0  0  0  0
  -16.6415  -25.1591   22.8025 C   0  0  0  0  0  0  0  0  0  0  0  0
  -16.1982  -23.8868   22.4415 C   0  0  0  0  0  0  0  0  0  0  0  0
  -28.8793  -27.1230   20.3136 C   0  0  0  0  0  0  0  0  0  0  0  0
  -27.2309  -19.8161   20.1082 C   0  0  0  0  0  0  0  0  0  0  0  0
  -15.4352  -24.7547   20.3198 C   0  0  0  0  0  0  0  0  0  0  0  0
  -20.9623  -27.9572   23.1159 C   0  0  0  0  0  0  0  0  0  0  0  0
  -28.7108  -28.4302   20.7702 C   0  0  0  0  0  0  0  0  0  0  0  0
  -23.1738  -27.2752   24.1891 C   0  0  0  0  0  0  0  0  0  0  0  0
  -26.4463  -11.4673   20.9312 C   0  0  0  0  0  0  0  0  0  0  0  0
  -26.6157  -18.0704   21.6683 C   0  0  0  0  0  0  0  0  0  0  0  0
  -26.7250  -12.7565   20.4386 C   0  0  0  0  0  0  0  0  0  0  0  0
  -26.2608  -18.9504   20.6360 C   0  0  0  0  0  0  0  0  0  0  0  0
  -29.5872  -26.2009   21.0844 C   0  0  0  0  0  0  0  0  0  0  0  0
  -18.2474  -27.6446   22.5554 C   0  0  0  0  0  0  0  0  0  0  0  0
  -28.5325  -19.8155   20.6090 C   0  0  0  0  0  0  0  0  0  0  0  0
  -16.4816  -26.2293   21.9222 C   0  0  0  0  0  0  0  0  0  0  0  0
  -15.5950  -23.6846   21.2002 C   0  0  0  0  0  0  0  0  0  0  0  0
  -15.8785  -26.0270   20.6808 C   0  0  0  0  0  0  0  0  0  0  0  0
  -22.3647  -28.1187   23.4046 C   0  0  0  0  0  0  0  0  0  0  0  0
  -24.4160  -27.8601   24.1532 C   0  0  0  0  0  0  0  0  0  0  0  0
  -29.2192  -22.0048   20.1551 C   0  0  0  0  0  0  0  0  0  1  0  0
  -27.9730  -29.3927   19.9677 C   0  0  0  0  0  0  0  0  0  0  0  0
  -22.8331  -26.0704   24.8878 C   0  0  0  0  0  0  0  0  0  0  0  0
  -29.6681  -22.8908   19.2556 C   0  0  0  0  0  0  0  0  0  0  0  0
  -27.7766  -30.7878   20.4240 C   0  0  0  0  0  0  0  0  0  0  0  0
  -29.3080  -24.3356   19.4239 C   0  0  0  0  0  0  0  0  0  0  0  0
  -24.7930  -15.8993   20.2304 C   0  0  0  0  0  0  0  0  0  0  0  0
  -22.5143  -18.1899   20.5187 C   0  0  0  0  0  0  0  0  0  0  0  0
  -21.7616  -21.5008   20.8617 C   0  0  0  0  0  0  0  0  0  0  0  0
  -25.0887  -10.8314   20.7662 C   0  0  0  0  0  0  0  0  0  0  0  0
  -25.5905  -17.1487   22.2698 C   0  0  0  0  0  0  0  0  0  0  0  0
  -24.8655  -18.9872   20.0700 C   0  0  0  0  0  0  0  0  0  0  0  0
  -23.9827  -11.8323   20.4417 C   0  0  0  0  0  0  0  0  0  0  0  0
  -26.1232  -32.3855   23.1754 C   0  0  0  0  0  0  0  0  0  0  0  0
  -24.4346  -12.7900   19.3438 C   0  0  0  0  0  0  0  0  0  0  0  0
  -25.0368  -31.3835   23.5646 C   0  0  0  0  0  0  0  0  0  0  0  0
  -26.3724  -32.3824   21.6707 C   0  0  0  0  0  0  0  0  0  0  0  0
  -25.6198  -30.0256   21.5050 C   0  0  0  0  0  0  0  0  0  0  0  0
  -25.6533  -13.6063   19.7911 C   0  0  1  0  0  0  0  0  0  0  0  0
  -24.4255  -16.8558   21.3293 C   0  0  1  0  0  0  0  0  0  0  0  0
  -25.3596  -29.9803   23.0209 C   0  0  2  0  0  0  0  0  0  0  0  0
  -30.4663  -22.5444   18.0372 C   0  0  0  0  0  0  0  0  0  0  0  0
  -19.8108  -23.0703   21.0310 C   0  0  0  0  0  0  0  0  0  0  0  0
  -22.0359  -17.9150   17.5177 C   0  0  0  0  0  0  0  0  0  0  0  0
  -20.8133  -20.0988   17.5832 C   0  0  0  0  0  0  0  0  0  0  0  0
  -19.9573  -18.1527   18.8880 C   0  0  0  0  0  0  0  0  0  0  0  0
  -22.5864  -22.4208   23.5510 C   0  0  0  0  0  0  0  0  0  0  0  0
  -22.0461  -19.3452   19.6672 C   0  0  1  0  0  0  0  0  0  0  0  0
  -20.8151  -22.2266   21.8007 C   0  0  2  0  0  0  0  0  0  0  0  0
  -21.2400  -18.8761   18.4232 C   0  0  0  0  0  0  0  0  0  0  0  0
  -23.0363  -29.1604   22.9068 N   0  0  0  0  0  0  0  0  0  0  0  0
  -27.4429  -29.1038   18.8098 N   0  0  0  0  0  0  0  0  0  0  0  0
  -24.2806  -28.9753   23.3797 N   0  0  0  0  0  0  0  0  0  0  0  0
  -26.6398  -31.0312   21.1820 N   0  0  0  0  0  0  0  0  0  0  0  0
  -23.9004  -18.0625   20.6872 N   0  0  0  0  0  0  0  0  0  0  0  0
  -25.5999  -27.5243   24.7081 N   0  0  0  0  0  0  0  0  0  0  0  0
  -21.5113  -25.6095   24.8194 N   0  0  0  0  0  0  0  0  0  0  0  0
  -29.7587  -24.8737   20.6209 N   0  0  0  0  0  0  0  0  0  0  0  0
  -25.2478  -14.6742   20.6797 N   0  0  0  0  0  0  0  0  0  0  0  0
  -21.3077  -20.2350   20.5569 N   0  0  0  0  0  0  0  0  0  0  0  0
  -21.5783  -23.1223   22.7152 N   0  3  0  0  0  0  0  0  0  0  0  0
  -23.6719  -25.4308   25.5666 O   0  0  0  0  0  0  0  0  0  0  0  0
  -28.6430  -31.5817   20.0813 O   0  0  0  0  0  0  0  0  0  0  0  0
  -28.7214  -24.9134   18.5141 O   0  0  0  0  0  0  0  0  0  0  0  0
  -24.6715  -16.2464   19.0615 O   0  0  0  0  0  0  0  0  0  0  0  0
  -21.6806  -17.4326   21.0217 O   0  0  0  0  0  0  0  0  0  0  0  0
  -22.7980  -22.0076   20.4378 O   0  0  0  0  0  0  0  0  0  0  0  0
  -16.9230  -27.4916   22.2817 O   0  0  0  0  0  0  0  0  0  0  0  0
  -29.4627  -20.6617   20.0887 O   0  0  0  0  0  0  0  0  0  1  0  0
  -15.1707  -22.4625   20.8530 F   0  0  0  0  0  0  0  0  0  0  0  0
  -15.7232  -27.0510   19.8304 F   0  0  0  0  0  0  0  0  0  0  0  0
  1  2  1  0  0  0  0
  1  7  2  0  0  0  0
  2  8  2  0  0  0  0
  3  6  1  0  0  0  0
  3 10  2  0  0  0  0
  4 11  2  0  0  0  0
  4 19  1  0  0  0  0
  5 12  1  0  0  0  0
  5 19  2  0  0  0  0
  6 20  2  0  0  0  0
  7 22  1  0  0  0  0
  8 24  1  0  0  0  0
  9 13  2  0  0  0  0
  9 23  1  0  0  0  0
 10 26  1  0  0  0  0
 11 27  1  0  0  0  0
 12 27  2  0  0  0  0
 13 28  1  0  0  0  0
 14 15  2  0  0  0  0
 14 29  1  0  0  0  0
 15 30  1  0  0  0  0
 16 20  1  0  0  0  0
 16 26  2  0  0  0  0
 17 25  1  0  0  0  0
 17 28  2  0  0  0  0
 18 30  2  0  0  0  0
 18 31  1  0  0  0  0
 19 32  1  0  0  0  0
 20 35  1  0  0  0  0
 21 32  1  0  0  0  0
 21 33  2  0  0  0  0
 21 36  1  0  0  0  0
 22 24  2  0  0  0  0
 22 43  1  0  0  0  0
 23 25  2  0  0  0  0
 23 44  1  0  0  0  0
 24 52  1  0  0  0  0
 25 45  1  0  0  0  0
 26 71  1  0  0  0  0
 27 81  1  0  0  0  0
 28 82  1  0  0  0  0
 29 31  2  0  0  0  0
 29 81  1  0  0  0  0
 30 83  1  0  0  0  0
 31 84  1  0  0  0  0
 32 64  2  0  0  0  0
 33 66  1  0  0  0  0
 33 69  1  0  0  0  0
 34 37  2  0  0  0  0
 34 82  1  0  0  0  0
 35 38  1  0  0  0  0
 35 65  2  0  0  0  0
 36 70  1  0  0  0  0
 36 75  2  0  0  0  0
 37 39  1  0  0  0  0
 37 55  1  0  0  0  0
 38 67  1  0  0  0  0
 38 76  2  0  0  0  0
 39 71  1  0  0  0  0
 39 77  2  0  0  0  0
 40 53  1  0  0  0  0
 40 72  1  0  0  0  0
 40 78  2  0  0  0  0
 41 61  1  0  0  0  0
 41 68  1  0  0  0  0
 41 79  2  0  0  0  0
 42 62  1  0  0  0  0
 42 73  1  0  0  0  0
 42 80  2  0  0  0  0
 43 46  1  0  0  0  0
 44 53  1  0  0  0  0
 45 68  1  0  0  0  0
 46 48  1  0  0  0  0
 47 49  1  0  0  0  0
 47 50  1  0  0  0  0
 48 52  1  0  0  0  0
 49 54  1  0  0  0  0
 50 67  1  0  0  0  0
 51 54  1  0  0  0  0
 51 67  1  0  0  0  0
 52 72  1  0  0  0  0
 53 68  1  0  0  0  0
 54 66  1  0  0  0  0
 56 62  1  0  0  0  0
 57 63  1  0  0  0  0
 58 63  1  0  0  0  0
 59 63  1  0  0  0  0
 60 74  1  0  0  0  0
 61 63  1  0  0  0  0
 61 73  1  0  0  0  0
 62 74  1  0  0  0  0
 64 66  1  0  0  0  0
M  CHG  1  74   1
M  ISO  4  34 101  35 100  38 100  82 101
M  END
> <Batch ID>
0079

> <Smiles>
CNC(C)C(=O)NC(C(=O)N1Cc2cc([101O:1][101CH:1]=C(C)C(=O)Nc3cccc([100C:0](=N)[100C:0](=O)N4CCCC(n5nc(-c6ccc(Oc7ccc(F)cc7F)cc6)c(C(N)=O)c5N)C4)c3)ccc2CC1C(=O)NC1CCCc2ccccc21)C(C)(C)C

> <Shape>
0.236

> <Color>
0.073

> <Negative vol penalty>
0.000

$$$$

  -OEChem-04042323593D

 84 92  0     1  0  0  0  0  0999 V2000
  -28.2892  -24.7083   16.5442 C   0  0  0  0  0  0  0  0  0  0  0  0
  -27.1039  -24.8581   17.2571 C   0  0  0  0  0  0  0  0  0  0  0  0
  -28.7763  -15.8970   21.6202 C   0  0  0  0  0  0  0  0  0  0  0  0
  -27.0484  -16.1070   19.9446 C   0  0  0  0  0  0  0  0  0  0  0  0
  -29.4756  -25.2412   17.0467 C   0  0  0  0  0  0  0  0  0  0  0  0
  -27.1046  -25.5398   18.4735 C   0  0  0  0  0  0  0  0  0  0  0  0
  -23.2420  -28.7892   18.8814 C   0  0  0  0  0  0  0  0  0  0  0  0
  -20.2219  -20.5093   21.4432 C   0  0  0  0  0  0  0  0  0  0  0  0
  -19.9477  -21.7694   23.4862 C   0  0  0  0  0  0  0  0  0  0  0  0
  -29.1215  -14.6466   21.1075 C   0  0  0  0  0  0  0  0  0  0  0  0
  -27.3936  -14.8566   19.4319 C   0  0  0  0  0  0  0  0  0  0  0  0
  -21.9911  -28.2560   19.1893 C   0  0  0  0  0  0  0  0  0  0  0  0
  -29.7938  -13.5606   17.4369 C   0  0  0  0  0  0  0  0  0  0  0  0
  -29.9010  -13.4369   16.0517 C   0  0  0  0  0  0  0  0  0  0  0  0
  -19.2851  -21.3279   20.8125 C   0  0  0  0  0  0  0  0  0  0  0  0
  -19.0109  -22.5881   22.8555 C   0  0  0  0  0  0  0  0  0  0  0  0
  -22.2916  -28.8979   21.4951 C   0  0  0  0  0  0  0  0  0  0  0  0
  -28.1657  -11.7559   16.0675 C   0  0  0  0  0  0  0  0  0  0  0  0
  -27.7397  -16.6272   21.0388 C   0  0  0  0  0  0  0  0  0  0  0  0
  -27.9048  -19.1686   21.1857 C   0  0  0  0  0  0  0  0  0  0  0  0
  -29.4890  -25.9382   18.2652 C   0  0  0  0  0  0  0  0  0  0  0  0
  -24.0331  -29.3721   19.8819 C   0  0  0  0  0  0  0  0  0  0  0  0
  -28.2925  -26.0813   18.9934 C   0  0  0  0  0  0  0  0  0  0  0  0
  -23.5511  -29.4401   21.1969 C   0  0  0  0  0  0  0  0  0  0  0  0
  -20.5532  -20.7300   22.7801 C   0  0  0  0  0  0  0  0  0  0  0  0
  -28.4302  -14.1264   20.0133 C   0  0  0  0  0  0  0  0  0  0  0  0
  -21.5170  -28.3076   20.4968 C   0  0  0  0  0  0  0  0  0  0  0  0
  -28.8726  -12.7819   18.1375 C   0  0  0  0  0  0  0  0  0  0  0  0
  -29.0869  -12.5346   15.3670 C   0  0  0  0  0  0  0  0  0  0  0  0
  -28.0586  -11.8796   17.4528 C   0  0  0  0  0  0  0  0  0  0  0  0
  -18.6796  -22.3673   21.5186 C   0  0  0  0  0  0  0  0  0  0  0  0
  -27.3822  -17.9187   21.5683 C   0  0  0  0  0  0  0  0  0  0  0  0
  -27.2443  -20.0744   21.9793 C   0  0  0  0  0  0  0  0  0  0  0  0
  -28.8985  -19.4828   20.2011 C   0  0  0  0  0  0  0  0  0  0  0  0
  -26.8899  -28.7504   21.1292 C   0  0  0  0  0  0  0  0  0  0  0  0
  -26.3701  -31.5312   22.7164 C   0  0  0  0  0  0  0  0  0  0  0  0
  -18.9699  -25.7697   20.8337 C   0  0  0  0  0  0  0  0  0  0  0  0
  -24.1270  -33.8009   23.9263 C   0  0  0  0  0  0  0  0  0  0  0  0
  -21.9462  -19.9812   24.7410 C   0  0  0  0  0  0  0  0  0  0  0  0
  -30.8045  -26.4555   18.7910 C   0  0  0  0  0  0  0  0  0  0  0  0
  -25.3687  -29.9667   19.5285 C   0  0  0  0  0  0  0  0  0  0  0  0
  -24.3528  -30.0733   22.3036 C   0  0  0  0  0  0  0  0  0  0  0  0
  -30.6515  -27.4884   19.9045 C   0  0  0  0  0  0  0  0  0  0  0  0
  -25.1308  -20.4620   26.2591 C   0  0  0  0  0  0  0  0  0  0  0  0
  -29.6338  -27.0137   20.9369 C   0  0  0  0  0  0  0  0  0  0  0  0
  -26.1173  -19.9838   25.1914 C   0  0  0  0  0  0  0  0  0  0  0  0
  -23.8618  -19.6118   26.2803 C   0  0  0  0  0  0  0  0  0  0  0  0
  -24.1732  -18.9935   23.9160 C   0  0  0  0  0  0  0  0  0  0  0  0
  -28.2483  -26.8358   20.3044 C   0  0  1  0  0  0  0  0  0  0  0  0
  -26.3095  -30.0759   20.7244 C   0  0  1  0  0  0  0  0  0  0  0  0
  -25.4393  -19.8596   23.8128 C   0  0  2  0  0  0  0  0  0  0  0  0
  -24.0003  -35.9519   25.2125 C   0  0  0  0  0  0  0  0  0  0  0  0
  -26.9353  -30.0149   25.3032 C   0  0  0  0  0  0  0  0  0  0  0  0
  -25.8858  -31.9085   26.5606 C   0  0  0  0  0  0  0  0  0  0  0  0
  -27.9361  -32.3043   25.1960 C   0  0  0  0  0  0  0  0  0  0  0  0
  -22.8430  -35.2127   21.6642 C   0  0  0  0  0  0  0  0  0  0  0  0
  -19.8463  -26.6859   20.0125 C   0  0  0  0  0  0  0  0  0  1  0  0
  -25.7281  -31.9087   24.0295 C   0  0  1  0  0  0  0  0  0  0  0  0
  -24.0768  -35.3153   23.8335 C   0  0  2  0  0  0  0  0  0  0  0  0
  -26.6068  -31.5204   25.2521 C   0  0  0  0  0  0  0  0  0  0  0  0
  -26.4608  -18.0176   22.5302 N   0  0  0  0  0  0  0  0  0  0  0  0
  -26.3993  -19.3405   22.7588 N   0  0  0  0  0  0  0  0  0  0  0  0
  -25.6552  -30.6351   21.9091 N   0  0  0  0  0  0  0  0  0  0  0  0
  -23.2722  -19.5426   24.9414 N   0  0  0  0  0  0  0  0  0  0  0  0
  -27.3097  -21.4191   22.0794 N   0  0  0  0  0  0  0  0  0  0  0  0
  -29.4756  -18.4319   19.4753 N   0  0  0  0  0  0  0  0  0  0  0  0
  -21.5049  -19.8984   23.4208 N   0  0  0  0  0  0  0  0  0  0  0  0
  -27.6044  -28.1199   20.1284 N   0  0  0  0  0  0  0  0  0  0  0  0
  -25.4239  -33.3328   23.9406 N   0  0  0  0  0  0  0  0  0  0  0  0
  -18.5018  -24.6358   20.0952 N   0  0  0  0  0  0  0  0  0  0  0  0
  -22.8850  -35.7469   23.0498 N   0  3  0  0  0  0  0  0  0  0  0  0
  -29.2756  -20.6592   19.9831 O   0  0  0  0  0  0  0  0  0  0  0  0
  -26.7046  -28.3314   22.2657 O   0  0  0  0  0  0  0  0  0  0  0  0
  -27.4622  -32.0190   22.4148 O   0  0  0  0  0  0  0  0  0  0  0  0
  -18.6934  -25.9782   22.0094 O   0  0  0  0  0  0  0  0  0  0  0  0
  -23.1169  -33.1032   23.9843 O   0  0  0  0  0  0  0  0  0  0  0  0
  -21.2625  -20.4250   25.6671 O   0  0  0  0  0  0  0  0  0  0  0  0
  -16.6243  -23.9642   21.7375 O   0  0  0  0  0  0  0  0  0  0  0  0
  -16.9376  -22.6380   19.6203 O   0  0  0  0  0  0  0  0  0  0  0  0
  -28.7669  -12.9064   19.5126 O   0  0  0  0  0  0  0  0  0  0  0  0
  -20.2967  -27.7873   20.8001 O   0  0  0  0  0  0  0  0  0  1  0  0
  -29.1888  -12.4171   14.0366 F   0  0  0  0  0  0  0  0  0  0  0  0
  -27.1709  -11.1296   18.1202 F   0  0  0  0  0  0  0  0  0  0  0  0
  -17.4922  -23.4044   20.7195 S   0  0  0  0  0  0  0  0  0  0  0  0
  1  2  1  0  0  0  0
  1  5  2  0  0  0  0
  2  6  2  0  0  0  0
  3 10  2  0  0  0  0
  3 19  1  0  0  0  0
  4 11  1  0  0  0  0
  4 19  2  0  0  0  0
  5 21  1  0  0  0  0
  6 23  1  0  0  0  0
  7 12  2  0  0  0  0
  7 22  1  0  0  0  0
  8 15  2  0  0  0  0
  8 25  1  0  0  0  0
  9 16  1  0  0  0  0
  9 25  2  0  0  0  0
 10 26  1  0  0  0  0
 11 26  2  0  0  0  0
 12 27  1  0  0  0  0
 13 14  2  0  0  0  0
 13 28  1  0  0  0  0
 14 29  1  0  0  0  0
 15 31  1  0  0  0  0
 16 31  2  0  0  0  0
 17 24  1  0  0  0  0
 17 27  2  0  0  0  0
 18 29  2  0  0  0  0
 18 30  1  0  0  0  0
 19 32  1  0  0  0  0
 20 32  1  0  0  0  0
 20 33  2  0  0  0  0
 20 34  1  0  0  0  0
 21 23  2  0  0  0  0
 21 40  1  0  0  0  0
 22 24  2  0  0  0  0
 22 41  1  0  0  0  0
 23 49  1  0  0  0  0
 24 42  1  0  0  0  0
 25 67  1  0  0  0  0
 26 80  1  0  0  0  0
 27 81  1  0  0  0  0
 28 30  2  0  0  0  0
 28 80  1  0  0  0  0
 29 82  1  0  0  0  0
 30 83  1  0  0  0  0
 31 84  1  0  0  0  0
 32 61  2  0  0  0  0
 33 62  1  0  0  0  0
 33 65  1  0  0  0  0
 34 66  1  0  0  0  0
 34 72  2  0  0  0  0
 35 50  1  0  0  0  0
 35 68  1  0  0  0  0
 35 73  2  0  0  0  0
 36 58  1  0  0  0  0
 36 63  1  0  0  0  0
 36 74  2  0  0  0  0
 37 57  1  0  0  0  0
 37 70  1  0  0  0  0
 37 75  2  0  0  0  0
 38 59  1  0  0  0  0
 38 69  1  0  0  0  0
 38 76  2  0  0  0  0
 39 64  1  0  0  0  0
 39 67  1  0  0  0  0
 39 77  2  0  0  0  0
 40 43  1  0  0  0  0
 41 50  1  0  0  0  0
 42 63  1  0  0  0  0
 43 45  1  0  0  0  0
 44 46  1  0  0  0  0
 44 47  1  0  0  0  0
 45 49  1  0  0  0  0
 46 51  1  0  0  0  0
 47 64  1  0  0  0  0
 48 51  1  0  0  0  0
 48 64  1  0  0  0  0
 49 68  1  0  0  0  0
 50 63  1  0  0  0  0
 51 62  1  0  0  0  0
 52 59  1  0  0  0  0
 53 60  1  0  0  0  0
 54 60  1  0  0  0  0
 55 60  1  0  0  0  0
 56 71  1  0  0  0  0
 57 81  1  0  0  0  0
 58 60  1  0  0  0  0
 58 69  1  0  0  0  0
 59 71  1  0  0  0  0
 61 62  1  0  0  0  0
 70 84  1  0  0  0  0
 78 84  2  0  0  0  0
 79 84  2  0  0  0  0
M  CHG  1  71   1
M  ISO  4  39 100  57 101  67 100  81 101
M  END
> <Batch ID>
0079

> <Smiles>
CNC(C)C(=O)NC(C(=O)N1Cc2cc([101O:1][101CH2:1]C(=O)NS(=O)(=O)c3ccc([100NH:0][100C:0](=O)N4CCCC(n5nc(-c6ccc(Oc7ccc(F)cc7F)cc6)c(C(N)=O)c5N)C4)cc3)ccc2CC1C(=O)NC1CCCc2ccccc21)C(C)(C)C

> <Shape>
0.268

> <Color>
0.070

> <Negative vol penalty>
0.000

$$$$

  -OEChem-04042323593D

 87 96  0     1  0  0  0  0  0999 V2000
  -17.6925  -35.9497   21.9887 C   0  0  0  0  0  0  0  0  0  0  0  0
  -18.2479  -35.4355   20.8214 C   0  0  0  0  0  0  0  0  0  0  0  0
  -22.4595  -11.7486   18.7359 C   0  0  0  0  0  0  0  0  0  0  0  0
  -23.1312   -9.9255   20.1719 C   0  0  0  0  0  0  0  0  0  0  0  0
  -30.6123  -19.0666   20.6338 C   0  0  0  0  0  0  0  0  0  0  0  0
  -29.0034  -17.9364   19.2297 C   0  0  0  0  0  0  0  0  0  0  0  0
  -18.5056  -36.2073   23.0916 C   0  0  0  0  0  0  0  0  0  0  0  0
  -19.6171  -35.1796   20.7561 C   0  0  0  0  0  0  0  0  0  0  0  0
  -23.3914  -28.5618   19.0279 C   0  0  0  0  0  0  0  0  0  0  0  0
  -29.8477  -20.2316   20.5721 C   0  0  0  0  0  0  0  0  0  0  0  0
  -28.2388  -19.1014   19.1681 C   0  0  0  0  0  0  0  0  0  0  0  0
  -21.4290  -10.9627   18.2201 C   0  0  0  0  0  0  0  0  0  0  0  0
  -22.1007   -9.1395   19.6561 C   0  0  0  0  0  0  0  0  0  0  0  0
  -24.1704  -27.4124   18.8926 C   0  0  0  0  0  0  0  0  0  0  0  0
  -18.3368   -9.9750   19.1664 C   0  0  0  0  0  0  0  0  0  0  0  0
  -17.0784  -10.5618   19.0333 C   0  0  0  0  0  0  0  0  0  0  0  0
  -25.8970  -28.4085   20.2618 C   0  0  0  0  0  0  0  0  0  0  0  0
  -17.1366  -10.1465   16.6539 C   0  0  0  0  0  0  0  0  0  0  0  0
  -23.3106  -11.2300   19.7118 C   0  0  0  0  0  0  0  0  0  0  0  0
  -30.1902  -17.9190   19.9625 C   0  0  0  0  0  0  0  0  0  0  0  0
  -24.2518  -13.2704   20.9195 C   0  0  0  0  0  0  0  0  0  0  0  0
  -19.8839  -35.9453   23.0430 C   0  0  0  0  0  0  0  0  0  0  0  0
  -23.8562  -29.6342   19.7943 C   0  0  0  0  0  0  0  0  0  0  0  0
  -20.4497  -35.4352   21.8589 C   0  0  0  0  0  0  0  0  0  0  0  0
  -25.1158  -29.5575   20.4111 C   0  0  0  0  0  0  0  0  0  0  0  0
  -28.6610  -20.2490   19.8394 C   0  0  0  0  0  0  0  0  0  0  0  0
  -21.2496   -9.6581   18.6802 C   0  0  0  0  0  0  0  0  0  0  0  0
  -25.4201  -27.3361   19.5079 C   0  0  0  0  0  0  0  0  0  0  0  0
  -18.9951   -9.4740   18.0433 C   0  0  0  0  0  0  0  0  0  0  0  0
  -16.4783  -10.6475   17.7770 C   0  0  0  0  0  0  0  0  0  0  0  0
  -18.3950   -9.5597   16.7871 C   0  0  0  0  0  0  0  0  0  0  0  0
  -24.3756  -12.0412   20.2446 C   0  0  0  0  0  0  0  0  0  0  0  0
  -25.5434  -13.6297   21.2181 C   0  0  0  0  0  0  0  0  0  0  0  0
  -25.7802  -22.5776   20.2236 C   0  0  0  0  0  0  0  0  0  0  0  0
  -26.3039  -23.8589   19.7504 C   0  0  0  0  0  0  0  0  0  0  0  0
  -24.8298  -22.4526   21.1656 C   0  0  0  0  0  0  0  0  0  0  0  0
  -25.6516  -25.0304   19.8289 C   0  0  0  0  0  0  0  0  0  1  0  0
  -31.0045  -16.6783   20.0281 C   0  0  0  0  0  0  0  0  0  0  0  0
  -23.0746  -14.0203   21.2472 C   0  0  0  0  0  0  0  0  0  0  0  0
  -23.1999  -33.0759   21.1359 C   0  0  0  0  0  0  0  0  0  0  0  0
  -24.5339  -31.4799   23.3907 C   0  0  0  0  0  0  0  0  0  0  0  0
  -25.6341  -29.2606   25.7362 C   0  0  0  0  0  0  0  0  0  0  0  0
  -30.8808  -14.2131   19.8510 C   0  0  0  0  0  0  0  0  0  0  0  0
  -20.7301  -36.2843   24.2445 C   0  0  0  0  0  0  0  0  0  0  0  0
  -23.0778  -30.9160   19.9167 C   0  0  0  0  0  0  0  0  0  0  0  0
  -25.5901  -30.7491   21.1973 C   0  0  0  0  0  0  0  0  0  0  0  0
  -27.6737  -23.7875   19.1217 C   0  0  0  0  0  0  0  0  0  0  0  0
  -26.4371  -21.3512   19.6223 C   0  0  0  0  0  0  0  0  0  0  0  0
  -22.1108  -35.6338   24.2202 C   0  0  0  0  0  0  0  0  0  0  0  0
  -29.8571  -10.9949   20.8959 C   0  0  0  0  0  0  0  0  0  0  0  0
  -22.7578  -35.8054   22.8495 C   0  0  0  0  0  0  0  0  0  0  0  0
  -28.3284  -11.0806   20.8839 C   0  0  0  0  0  0  0  0  0  0  0  0
  -28.5565  -22.7256   19.7827 C   0  0  0  0  0  0  0  0  0  0  0  0
  -30.4781  -11.7698   19.7345 C   0  0  0  0  0  0  0  0  0  0  0  0
  -28.5143  -13.2473   19.5974 C   0  0  0  0  0  0  0  0  0  0  0  0
  -21.9266  -35.1211   21.7576 C   0  0  1  0  0  0  0  0  0  0  0  0
  -23.2284  -31.5841   21.2951 C   0  0  1  0  0  0  0  0  0  0  0  0
  -27.8445  -12.5414   20.7875 C   0  0  1  0  0  0  0  0  0  0  0  0
  -26.2925  -29.1138   28.1533 C   0  0  0  0  0  0  0  0  0  0  0  0
  -27.1917  -32.8302   22.7449 C   0  0  0  0  0  0  0  0  0  0  0  0
  -28.1294  -31.8257   24.8377 C   0  0  0  0  0  0  0  0  0  0  0  0
  -26.2280  -33.4348   24.9720 C   0  0  0  0  0  0  0  0  0  0  0  0
  -23.4895  -27.3070   26.3218 C   0  0  0  0  0  0  0  0  0  0  0  0
  -25.8181  -31.1030   24.0851 C   0  0  1  0  0  0  0  0  0  0  0  0
  -25.1600  -28.9697   27.1486 C   0  0  2  0  0  0  0  0  0  0  0  0
  -26.8304  -32.2819   24.1398 C   0  0  0  0  0  0  0  0  0  0  0  0
  -25.6456  -11.6461   20.1215 N   0  0  0  0  0  0  0  0  0  0  0  0
  -26.3316  -12.6329   20.7230 N   0  0  0  0  0  0  0  0  0  0  0  0
  -27.8961  -21.4144   19.7778 N   0  0  3  0  0  0  0  0  0  0  0  0
  -24.4854  -31.2906   22.0042 N   0  0  0  0  0  0  0  0  0  0  0  0
  -29.9764  -13.1450   19.7190 N   0  0  0  0  0  0  0  0  0  0  0  0
  -26.0704  -14.6980   21.8533 N   0  0  0  0  0  0  0  0  0  0  0  0
  -22.4441  -13.7719   22.4740 N   0  0  0  0  0  0  0  0  0  0  0  0
  -30.2988  -15.4856   19.8673 N   0  0  0  0  0  0  0  0  0  0  0  0
  -22.1429  -33.6903   21.7798 N   0  0  0  0  0  0  0  0  0  0  0  0
  -25.4369  -30.5815   25.3932 N   0  0  0  0  0  0  0  0  0  0  0  0
  -24.6247  -27.5818   27.2398 N   0  3  0  0  0  0  0  0  0  0  0  0
  -32.2203  -16.7680   20.1753 O   0  0  0  0  0  0  0  0  0  0  0  0
  -22.5866  -14.8736   20.4678 O   0  0  0  0  0  0  0  0  0  0  0  0
  -24.0732  -33.6301   20.4787 O   0  0  0  0  0  0  0  0  0  0  0  0
  -23.5996  -31.9354   24.0562 O   0  0  0  0  0  0  0  0  0  0  0  0
  -26.1331  -28.4029   25.0111 O   0  0  0  0  0  0  0  0  0  0  0  0
  -32.0977  -14.0471   19.9814 O   0  0  0  0  0  0  0  0  0  0  0  0
  -20.2441   -8.8910   18.1773 O   0  0  0  0  0  0  0  0  0  0  0  0
  -26.1734  -26.2093   19.3754 O   0  0  0  0  0  0  0  0  0  1  0  0
  -15.2692  -11.2096   17.6495 F   0  0  0  0  0  0  0  0  0  0  0  0
  -19.0220   -9.0791   15.7047 F   0  0  0  0  0  0  0  0  0  0  0  0
  1  2  1  0  0  0  0
  1  7  2  0  0  0  0
  2  8  2  0  0  0  0
  3 12  2  0  0  0  0
  3 19  1  0  0  0  0
  4 13  1  0  0  0  0
  4 19  2  0  0  0  0
  5 10  2  0  0  0  0
  5 20  1  0  0  0  0
  6 11  1  0  0  0  0
  6 20  2  0  0  0  0
  7 22  1  0  0  0  0
  8 24  1  0  0  0  0
  9 14  2  0  0  0  0
  9 23  1  0  0  0  0
 10 26  1  0  0  0  0
 11 26  2  0  0  0  0
 12 27  1  0  0  0  0
 13 27  2  0  0  0  0
 14 28  1  0  0  0  0
 15 16  2  0  0  0  0
 15 29  1  0  0  0  0
 16 30  1  0  0  0  0
 17 25  1  0  0  0  0
 17 28  2  0  0  0  0
 18 30  2  0  0  0  0
 18 31  1  0  0  0  0
 19 32  1  0  0  0  0
 20 38  1  0  0  0  0
 21 32  1  0  0  0  0
 21 33  2  0  0  0  0
 21 39  1  0  0  0  0
 22 24  2  0  0  0  0
 22 44  1  0  0  0  0
 23 25  2  0  0  0  0
 23 45  1  0  0  0  0
 24 56  1  0  0  0  0
 25 46  1  0  0  0  0
 26 69  1  0  0  0  0
 27 84  1  0  0  0  0
 28 85  1  0  0  0  0
 29 31  2  0  0  0  0
 29 84  1  0  0  0  0
 30 86  1  0  0  0  0
 31 87  1  0  0  0  0
 32 67  2  0  0  0  0
 33 68  1  0  0  0  0
 33 72  1  0  0  0  0
 34 35  1  0  0  0  0
 34 36  2  0  0  0  0
 34 48  1  0  0  0  0
 35 37  2  0  0  0  0
 35 47  1  0  0  0  0
 37 85  1  0  0  0  0
 38 74  1  0  0  0  0
 38 78  2  0  0  0  0
 39 73  1  0  0  0  0
 39 79  2  0  0  0  0
 40 57  1  0  0  0  0
 40 75  1  0  0  0  0
 40 80  2  0  0  0  0
 41 64  1  0  0  0  0
 41 70  1  0  0  0  0
 41 81  2  0  0  0  0
 42 65  1  0  0  0  0
 42 76  1  0  0  0  0
 42 82  2  0  0  0  0
 43 71  1  0  0  0  0
 43 74  1  0  0  0  0
 43 83  2  0  0  0  0
 44 49  1  0  0  0  0
 45 57  1  0  0  0  0
 46 70  1  0  0  0  0
 47 53  1  0  0  0  0
 48 69  1  0  0  0  0
 49 51  1  0  0  0  0
 50 52  1  0  0  0  0
 50 54  1  0  0  0  0
 51 56  1  0  0  0  0
 52 58  1  0  0  0  0
 53 69  1  0  0  0  0
 54 71  1  0  0  0  0
 55 58  1  0  0  0  0
 55 71  1  0  0  0  0
 56 75  1  0  0  0  0
 57 70  1  0  0  0  0
 58 68  1  0  0  0  0
 59 65  1  0  0  0  0
 60 66  1  0  0  0  0
 61 66  1  0  0  0  0
 62 66  1  0  0  0  0
 63 77  1  0  0  0  0
 64 66  1  0  0  0  0
 64 76  1  0  0  0  0
 65 77  1  0  0  0  0
 67 68  1  0  0  0  0
M  CHG  1  77   1
M  ISO  4  37 101  43 100  74 100  85 101
M  END
> <Batch ID>
0079

> <Smiles>
C=C1CN(c2ccc(C(=O)[100NH:0][100C:0](=O)N3CCCC(n4nc(-c5ccc(Oc6ccc(F)cc6F)cc5)c(C(N)=O)c4N)C3)cc2)CCC1=[101CH:1][101O:1]c1ccc2c(c1)CN(C(=O)C(NC(=O)C(C)NC)C(C)(C)C)C(C(=O)NC1CCCc3ccccc31)C2

> <Shape>
0.275

> <Color>
0.112

> <Negative vol penalty>
0.000

$$$$

  -OEChem-04042323593D

 90 99  0     1  0  0  0  0  0999 V2000
  -27.0292  -38.6279   23.3979 C   0  0  0  0  0  0  0  0  0  0  0  0
  -27.6191  -37.7576   22.4868 C   0  0  0  0  0  0  0  0  0  0  0  0
  -28.9427  -10.9200   19.0436 C   0  0  0  0  0  0  0  0  0  0  0  0
  -28.3328  -10.0395   21.2092 C   0  0  0  0  0  0  0  0  0  0  0  0
  -28.9318  -21.7607   19.2254 C   0  0  0  0  0  0  0  0  0  0  0  0
  -26.3602  -38.1213   24.5113 C   0  0  0  0  0  0  0  0  0  0  0  0
  -27.5412  -36.3802   22.6892 C   0  0  0  0  0  0  0  0  0  0  0  0
  -27.1131  -30.2194   19.0590 C   0  0  0  0  0  0  0  0  0  0  0  0
  -29.5883   -9.7219   18.7383 C   0  0  0  0  0  0  0  0  0  0  0  0
  -28.9784   -8.8413   20.9039 C   0  0  0  0  0  0  0  0  0  0  0  0
  -27.7393  -28.9771   18.9681 C   0  0  0  0  0  0  0  0  0  0  0  0
  -28.7228   -6.6125   17.7302 C   0  0  0  0  0  0  0  0  0  0  0  0
  -28.4995   -6.0588   16.4696 C   0  0  0  0  0  0  0  0  0  0  0  0
  -28.6191  -20.5165   19.7617 C   0  0  0  0  0  0  0  0  0  0  0  0
  -26.4896  -28.2137   20.8851 C   0  0  0  0  0  0  0  0  0  0  0  0
  -30.8618   -6.2084   15.9855 C   0  0  0  0  0  0  0  0  0  0  0  0
  -28.3150  -11.0789   20.2791 C   0  0  0  0  0  0  0  0  0  0  0  0
  -29.0616  -22.8610   20.0655 C   0  0  0  0  0  0  0  0  0  0  0  0
  -26.5708  -12.9023   19.9044 C   0  0  0  0  0  0  0  0  0  0  0  0
  -26.2657  -36.7367   24.7224 C   0  0  0  0  0  0  0  0  0  0  0  0
  -26.1769  -30.4722   20.0720 C   0  0  0  0  0  0  0  0  0  0  0  0
  -26.8714  -35.8546   23.8072 C   0  0  0  0  0  0  0  0  0  0  0  0
  -25.8511  -29.4592   20.9851 C   0  0  0  0  0  0  0  0  0  0  0  0
  -29.6061   -8.6825   19.6684 C   0  0  0  0  0  0  0  0  0  0  0  0
  -27.4298  -27.9750   19.8830 C   0  0  0  0  0  0  0  0  0  0  0  0
  -30.0156   -6.9643   18.1185 C   0  0  0  0  0  0  0  0  0  0  0  0
  -29.5690   -5.8567   15.5973 C   0  0  0  0  0  0  0  0  0  0  0  0
  -31.0851   -6.7621   17.2461 C   0  0  0  0  0  0  0  0  0  0  0  0
  -27.6484  -12.3165   20.5954 C   0  0  0  0  0  0  0  0  0  0  0  0
  -28.8704  -22.6659   21.4239 C   0  0  0  0  0  0  0  0  0  0  0  0
  -28.4478  -20.4264   21.1337 C   0  0  0  0  0  0  0  0  0  0  0  0
  -26.3072  -14.0590   20.5967 C   0  0  0  0  0  0  0  0  0  0  0  0
  -28.0895  -24.3017   24.9133 C   0  0  0  0  0  0  0  0  0  0  0  0
  -29.3083  -23.5283   24.6732 C   0  0  0  0  0  0  0  0  0  0  0  0
  -27.8297  -24.9165   26.0782 C   0  0  0  0  0  0  0  0  0  0  0  0
  -29.7811  -22.6144   25.5352 C   0  0  0  0  0  0  0  0  0  0  0  0
  -29.3975  -24.1924   19.4796 C   0  0  0  0  0  0  0  0  0  0  0  0
  -25.8706  -12.4421   18.7410 C   0  0  0  0  0  0  0  0  0  0  0  0
  -26.0023  -32.5065   22.5082 C   0  0  0  0  0  0  0  0  0  0  0  0
  -23.0251  -31.2593   22.8296 C   0  0  0  0  0  0  0  0  0  0  0  0
  -21.5043  -27.9928   22.6438 C   0  0  0  0  0  0  0  0  0  0  0  0
  -28.5008  -18.7227   22.9738 C   0  0  0  0  0  0  0  0  0  0  0  0
  -25.5729  -36.2374   25.9655 C   0  0  0  0  0  0  0  0  0  0  0  0
  -25.4905  -31.8089   20.1402 C   0  0  0  0  0  0  0  0  0  0  0  0
  -24.8380  -29.6733   22.0789 C   0  0  0  0  0  0  0  0  0  0  0  0
  -27.1517  -24.4121   23.7304 C   0  0  0  0  0  0  0  0  0  0  0  0
  -29.9898  -23.8058   23.3522 C   0  0  0  0  0  0  0  0  0  0  0  0
  -25.2134  -34.7549   25.9087 C   0  0  0  0  0  0  0  0  0  0  0  0
  -27.9676  -15.7165   25.0646 C   0  0  0  0  0  0  0  0  0  0  0  0
  -26.3976  -33.9374   25.4027 C   0  0  0  0  0  0  0  0  0  0  0  0
  -27.8341  -14.6020   24.0285 C   0  0  0  0  0  0  0  0  0  0  0  0
  -27.8947  -24.7198   22.4230 C   0  0  0  0  0  0  0  0  0  0  0  0
  -28.8475  -16.8563   24.5601 C   0  0  0  0  0  0  0  0  0  0  0  0
  -28.2612  -16.3085   22.2155 C   0  0  0  0  0  0  0  0  0  0  0  0
  -26.7871  -34.3534   23.9791 C   0  0  1  0  0  0  0  0  0  0  0  0
  -24.9326  -32.1241   21.5246 C   0  0  1  0  0  0  0  0  0  0  0  0
  -27.3466  -15.1668   22.6841 C   0  0  1  0  0  0  0  0  0  0  0  0
  -19.1593  -27.3157   22.0608 C   0  0  0  0  0  0  0  0  0  0  0  0
  -22.5634  -31.3318   25.8448 C   0  0  0  0  0  0  0  0  0  0  0  0
  -21.1111  -29.3071   25.6009 C   0  0  0  0  0  0  0  0  0  0  0  0
  -20.4787  -31.4373   24.4674 C   0  0  0  0  0  0  0  0  0  0  0  0
  -27.6122  -18.1117   20.7673 C   0  0  0  0  0  0  0  0  0  0  0  0
  -22.4374  -26.1799   20.4986 C   0  0  0  0  0  0  0  0  0  0  0  0
  -28.4473  -24.8014   18.4567 C   0  0  0  0  0  0  0  0  0  0  0  0
  -28.4358  -26.3244   18.4975 C   0  0  0  0  0  0  0  0  0  1  0  0
  -22.4296  -30.0943   23.5828 C   0  0  1  0  0  0  0  0  0  0  0  0
  -20.5829  -27.4801   21.5518 C   0  0  2  0  0  0  0  0  0  0  0  0
  -21.6727  -30.5423   24.8649 C   0  0  0  0  0  0  0  0  0  0  0  0
  -28.0425  -13.0412   21.6458 N   0  0  0  0  0  0  0  0  0  0  0  0
  -28.5657  -21.4728   21.9816 N   0  0  0  0  0  0  0  0  0  0  0  0
  -27.2081  -14.0944   21.6201 N   0  0  0  0  0  0  0  0  0  0  0  0
  -28.9986  -23.7627   22.2709 N   0  0  2  0  0  0  0  0  0  0  0  0
  -24.1987  -30.9992   22.1078 N   0  0  0  0  0  0  0  0  0  0  0  0
  -28.4075  -17.3435   23.2519 N   0  0  0  0  0  0  0  0  0  0  0  0
  -25.3951  -15.0391   20.4236 N   0  0  0  0  0  0  0  0  0  0  0  0
  -26.2706  -11.2334   18.1551 N   0  0  0  0  0  0  0  0  0  0  0  0
  -25.8681  -33.7842   23.0169 N   0  0  0  0  0  0  0  0  0  0  0  0
  -21.6037  -29.3679   22.6244 N   0  0  0  0  0  0  0  0  0  0  0  0
  -28.1238  -19.1314   21.6803 N   0  0  0  0  0  0  0  0  0  0  0  0
  -21.0583  -26.1596   21.0505 N   0  3  0  0  0  0  0  0  0  0  0  0
  -30.4273  -24.7608   19.8356 O   0  0  0  0  0  0  0  0  0  0  0  0
  -24.9292  -13.0920   18.2262 O   0  0  0  0  0  0  0  0  0  0  0  0
  -26.8832  -31.7013   22.7861 O   0  0  0  0  0  0  0  0  0  0  0  0
  -22.4656  -32.3577   22.8740 O   0  0  0  0  0  0  0  0  0  0  0  0
  -22.0756  -27.2481   23.4373 O   0  0  0  0  0  0  0  0  0  0  0  0
  -28.9426  -19.5288   23.8019 O   0  0  0  0  0  0  0  0  0  0  0  0
  -30.2358   -7.5131   19.3706 O   0  0  0  0  0  0  0  0  0  0  0  0
  -28.0400  -26.7617   19.7969 O   0  0  0  0  0  0  0  0  0  1  0  0
  -29.3547   -5.3235   14.3874 F   0  0  0  0  0  0  0  0  0  0  0  0
  -32.3295   -7.0969   17.6140 F   0  0  0  0  0  0  0  0  0  0  0  0
  1  2  1  0  0  0  0
  1  6  2  0  0  0  0
  2  7  2  0  0  0  0
  3  9  2  0  0  0  0
  3 17  1  0  0  0  0
  4 10  1  0  0  0  0
  4 17  2  0  0  0  0
  5 14  2  0  0  0  0
  5 18  1  0  0  0  0
  6 20  1  0  0  0  0
  7 22  1  0  0  0  0
  8 11  2  0  0  0  0
  8 21  1  0  0  0  0
  9 24  1  0  0  0  0
 10 24  2  0  0  0  0
 11 25  1  0  0  0  0
 12 13  2  0  0  0  0
 12 26  1  0  0  0  0
 13 27  1  0  0  0  0
 14 31  1  0  0  0  0
 15 23  1  0  0  0  0
 15 25  2  0  0  0  0
 16 27  2  0  0  0  0
 16 28  1  0  0  0  0
 17 29  1  0  0  0  0
 18 30  2  0  0  0  0
 18 37  1  0  0  0  0
 19 29  1  0  0  0  0
 19 32  2  0  0  0  0
 19 38  1  0  0  0  0
 20 22  2  0  0  0  0
 20 43  1  0  0  0  0
 21 23  2  0  0  0  0
 21 44  1  0  0  0  0
 22 55  1  0  0  0  0
 23 45  1  0  0  0  0
 24 87  1  0  0  0  0
 25 88  1  0  0  0  0
 26 28  2  0  0  0  0
 26 87  1  0  0  0  0
 27 89  1  0  0  0  0
 28 90  1  0  0  0  0
 29 69  2  0  0  0  0
 30 70  1  0  0  0  0
 30 72  1  0  0  0  0
 31 70  2  0  0  0  0
 31 79  1  0  0  0  0
 32 71  1  0  0  0  0
 32 75  1  0  0  0  0
 33 34  1  0  0  0  0
 33 35  2  0  0  0  0
 33 46  1  0  0  0  0
 34 36  2  0  0  0  0
 34 47  1  0  0  0  0
 37 64  1  0  0  0  0
 37 81  2  0  0  0  0
 38 76  1  0  0  0  0
 38 82  2  0  0  0  0
 39 56  1  0  0  0  0
 39 77  1  0  0  0  0
 39 83  2  0  0  0  0
 40 66  1  0  0  0  0
 40 73  1  0  0  0  0
 40 84  2  0  0  0  0
 41 67  1  0  0  0  0
 41 78  1  0  0  0  0
 41 85  2  0  0  0  0
 42 74  1  0  0  0  0
 42 79  1  0  0  0  0
 42 86  2  0  0  0  0
 43 48  1  0  0  0  0
 44 56  1  0  0  0  0
 45 73  1  0  0  0  0
 46 52  1  0  0  0  0
 47 72  1  0  0  0  0
 48 50  1  0  0  0  0
 49 51  1  0  0  0  0
 49 53  1  0  0  0  0
 50 55  1  0  0  0  0
 51 57  1  0  0  0  0
 52 72  1  0  0  0  0
 53 74  1  0  0  0  0
 54 57  1  0  0  0  0
 54 74  1  0  0  0  0
 55 77  1  0  0  0  0
 56 73  1  0  0  0  0
 57 71  1  0  0  0  0
 58 67  1  0  0  0  0
 59 68  1  0  0  0  0
 60 68  1  0  0  0  0
 61 68  1  0  0  0  0
 62 79  1  0  0  0  0
 63 80  1  0  0  0  0
 64 65  1  0  0  0  0
 65 88  1  0  0  0  0
 66 68  1  0  0  0  0
 66 78  1  0  0  0  0
 67 80  1  0  0  0  0
 69 71  1  0  0  0  0
M  CHG  1  80   1
M  ISO  4  42 100  65 101  79 100  88 101
M  END
> <Batch ID>
0079

> <Smiles>
C=C1CCN(c2nc([100N:0](C)[100C:0](=O)N3CCCC(n4nc(-c5ccc(Oc6ccc(F)cc6F)cc5)c(C(N)=O)c4N)C3)ccc2C(=O)C[101CH2:1][101O:1]c2ccc3c(c2)CN(C(=O)C(NC(=O)C(C)NC)C(C)(C)C)C(C(=O)NC2CCCc4ccccc42)C3)CC1=C

> <Shape>
0.255

> <Color>
0.106

> <Negative vol penalty>
0.000

$$$$

  -OEChem-04042323593D

 88 97  0     1  0  0  0  0  0999 V2000
  -20.7343  -26.6489   26.2175 C   0  0  0  0  0  0  0  0  0  0  0  0
  -21.7049  -26.3211   25.2763 C   0  0  0  0  0  0  0  0  0  0  0  0
  -26.4036  -11.1038   20.4826 C   0  0  0  0  0  0  0  0  0  0  0  0
  -25.8870  -13.4390   20.8250 C   0  0  0  0  0  0  0  0  0  0  0  0
  -19.6953  -27.5128   25.8737 C   0  0  0  0  0  0  0  0  0  0  0  0
  -21.6365  -26.8562   23.9904 C   0  0  0  0  0  0  0  0  0  0  0  0
  -26.1221  -28.5320   22.3424 C   0  0  0  0  0  0  0  0  0  0  0  0
  -30.0611  -21.6285   19.2063 C   0  0  0  0  0  0  0  0  0  0  0  0
  -30.1011  -20.2687   19.5143 C   0  0  0  0  0  0  0  0  0  0  0  0
  -25.2058  -10.7479   21.1024 C   0  0  0  0  0  0  0  0  0  0  0  0
  -24.6892  -13.0831   21.4448 C   0  0  0  0  0  0  0  0  0  0  0  0
  -27.0311  -27.5771   21.8889 C   0  0  0  0  0  0  0  0  0  0  0  0
  -23.6891  -11.9554   24.4712 C   0  0  0  0  0  0  0  0  0  0  0  0
  -23.3533  -12.6097   25.6564 C   0  0  0  0  0  0  0  0  0  0  0  0
  -26.4202  -28.0859   19.6114 C   0  0  0  0  0  0  0  0  0  0  0  0
  -32.3228  -20.5401   20.4240 C   0  0  0  0  0  0  0  0  0  0  0  0
  -21.3297  -13.4359   24.6271 C   0  0  0  0  0  0  0  0  0  0  0  0
  -26.7443  -12.4493   20.3439 C   0  0  0  0  0  0  0  0  0  0  0  0
  -28.3799  -12.5185   18.3876 C   0  0  0  0  0  0  0  0  0  0  0  0
  -19.6195  -28.0663   24.5859 C   0  0  0  0  0  0  0  0  0  0  0  0
  -25.3462  -29.2646   21.4327 C   0  0  0  0  0  0  0  0  0  0  0  0
  -20.5948  -27.7272   23.6287 C   0  0  0  0  0  0  0  0  0  0  0  0
  -25.5039  -29.0514   20.0558 C   0  0  0  0  0  0  0  0  0  0  0  0
  -31.1520  -22.4441   19.5070 C   0  0  0  0  0  0  0  0  0  0  0  0
  -31.2319  -19.7245   20.1232 C   0  0  0  0  0  0  0  0  0  0  0  0
  -24.3485  -11.7376   21.5835 C   0  0  0  0  0  0  0  0  0  0  0  0
  -27.1782  -27.3519   20.5234 C   0  0  0  0  0  0  0  0  0  0  0  0
  -22.8452  -12.0414   23.3639 C   0  0  0  0  0  0  0  0  0  0  0  0
  -22.1736  -13.3499   25.7344 C   0  0  0  0  0  0  0  0  0  0  0  0
  -32.2828  -21.8999   20.1159 C   0  0  0  0  0  0  0  0  0  0  0  0
  -21.6655  -12.7816   23.4418 C   0  0  0  0  0  0  0  0  0  0  0  0
  -27.9817  -12.8176   19.7043 C   0  0  0  0  0  0  0  0  0  0  0  0
  -29.6249  -13.0861   18.2680 C   0  0  0  0  0  0  0  0  0  0  0  0
  -31.1186  -26.3814   17.8758 C   0  0  0  0  0  0  0  0  0  0  0  0
  -30.0067  -26.0026   18.7601 C   0  0  0  0  0  0  0  0  0  0  0  0
  -32.2917  -25.4965   17.8378 C   0  0  0  0  0  0  0  0  0  0  0  0
  -29.8859  -24.5555   19.1761 C   0  0  0  0  0  0  0  0  0  0  0  0
  -31.0654  -27.5043   17.1313 C   0  0  0  0  0  0  0  0  0  0  0  0
  -33.2028  -25.4367   16.8520 C   0  0  0  0  0  0  0  0  0  0  0  0
  -29.0763  -26.8343   19.2585 C   0  0  0  0  0  0  0  0  0  1  0  0
  -27.6864  -11.7926   17.3640 C   0  0  0  0  0  0  0  0  0  0  0  0
  -22.2318  -29.5604   20.8697 C   0  0  0  0  0  0  0  0  0  0  0  0
  -23.2207  -31.8481   18.7934 C   0  0  0  0  0  0  0  0  0  0  0  0
  -25.8863  -32.2539   16.3961 C   0  0  0  0  0  0  0  0  0  0  0  0
  -32.3166  -17.6440   21.0404 C   0  0  0  0  0  0  0  0  0  0  0  0
  -18.4515  -28.9581   24.2466 C   0  0  0  0  0  0  0  0  0  0  0  0
  -24.3894  -30.3099   21.9369 C   0  0  0  0  0  0  0  0  0  0  0  0
  -24.7094  -29.8257   19.0373 C   0  0  0  0  0  0  0  0  0  0  0  0
  -32.3789  -24.5789   19.0338 C   0  0  0  0  0  0  0  0  0  0  0  0
  -18.6597  -29.7774   22.9756 C   0  0  0  0  0  0  0  0  0  0  0  0
  -33.4631  -14.2773   20.8726 C   0  0  0  0  0  0  0  0  0  0  0  0
  -19.2038  -28.8963   21.8556 C   0  0  0  0  0  0  0  0  0  0  0  0
  -32.2254  -13.4945   20.4282 C   0  0  0  0  0  0  0  0  0  0  0  0
  -33.1018  -15.4192   21.8208 C   0  0  0  0  0  0  0  0  0  0  0  0
  -30.8289  -15.5519   20.8797 C   0  0  0  0  0  0  0  0  0  0  0  0
  -20.5687  -28.3068   22.2311 C   0  0  1  0  0  0  0  0  0  0  0  0
  -23.2800  -30.6346   20.9413 C   0  0  1  0  0  0  0  0  0  0  0  0
  -31.1354  -14.4318   19.8722 C   0  0  2  0  0  0  0  0  0  0  0  0
  -27.0056  -34.3289   15.5365 C   0  0  0  0  0  0  0  0  0  0  0  0
  -21.1800  -31.6633   16.5326 C   0  0  0  0  0  0  0  0  0  0  0  0
  -22.9692  -32.4130   14.9499 C   0  0  0  0  0  0  0  0  0  0  0  0
  -22.2365  -33.9139   16.8029 C   0  0  0  0  0  0  0  0  0  0  0  0
  -28.5678  -31.2662   17.1660 C   0  0  0  0  0  0  0  0  0  0  0  0
  -23.6241  -31.8695   17.3388 C   0  0  1  0  0  0  0  0  0  0  0  0
  -27.0885  -33.1724   16.5206 C   0  0  2  0  0  0  0  0  0  0  0  0
  -22.5062  -32.4418   16.4222 C   0  0  0  0  0  0  0  0  0  0  0  0
  -28.8995  -13.5204   20.3734 N   0  0  0  0  0  0  0  0  0  0  0  0
  -29.8867  -13.6677   19.4736 N   0  0  0  0  0  0  0  0  0  0  0  0
  -31.1079  -23.8491   19.1874 N   0  0  0  0  0  0  0  0  0  0  0  0
  -23.7823  -30.8324   19.5801 N   0  0  0  0  0  0  0  0  0  0  0  0
  -32.0669  -16.2677   21.2258 N   0  0  0  0  0  0  0  0  0  0  0  0
  -30.5104  -13.1394   17.2504 N   0  0  0  0  0  0  0  0  0  0  0  0
  -26.8479  -12.5018   16.4932 N   0  0  0  0  0  0  0  0  0  0  0  0
  -31.2723  -18.3431   20.4361 N   0  0  0  0  0  0  0  0  0  0  0  0
  -21.6087  -29.3011   22.0755 N   0  0  0  0  0  0  0  0  0  0  0  0
  -24.8832  -32.6036   17.2751 N   0  0  0  0  0  0  0  0  0  0  0  0
  -28.3462  -32.4184   16.2548 N   0  3  0  0  0  0  0  0  0  0  0  0
  -28.7877  -24.0999   19.4929 O   0  0  0  0  0  0  0  0  0  0  0  0
  -27.7939  -10.5494   17.2359 O   0  0  0  0  0  0  0  0  0  0  0  0
  -22.0041  -29.0088   19.7994 O   0  0  0  0  0  0  0  0  0  0  0  0
  -22.4418  -32.7054   19.2177 O   0  0  0  0  0  0  0  0  0  0  0  0
  -25.8402  -31.3219   15.5962 O   0  0  0  0  0  0  0  0  0  0  0  0
  -33.3891  -18.1587   21.3670 O   0  0  0  0  0  0  0  0  0  0  0  0
  -23.1795  -11.3907   22.1881 O   0  0  0  0  0  0  0  0  0  0  0  0
  -28.0642  -26.4199   20.0781 O   0  0  0  0  0  0  0  0  0  1  0  0
  -21.8505  -13.9769   26.8731 F   0  0  0  0  0  0  0  0  0  0  0  0
  -33.3375  -22.6743   20.4090 F   0  0  0  0  0  0  0  0  0  0  0  0
  -20.8502  -12.8669   22.3817 F   0  0  0  0  0  0  0  0  0  0  0  0
  1  2  1  0  0  0  0
  1  5  2  0  0  0  0
  2  6  2  0  0  0  0
  3 10  2  0  0  0  0
  3 18  1  0  0  0  0
  4 11  1  0  0  0  0
  4 18  2  0  0  0  0
  5 20  1  0  0  0  0
  6 22  1  0  0  0  0
  7 12  2  0  0  0  0
  7 21  1  0  0  0  0
  8  9  2  0  0  0  0
  8 24  1  0  0  0  0
  9 25  1  0  0  0  0
 10 26  1  0  0  0  0
 11 26  2  0  0  0  0
 12 27  1  0  0  0  0
 13 14  2  0  0  0  0
 13 28  1  0  0  0  0
 14 29  1  0  0  0  0
 15 23  1  0  0  0  0
 15 27  2  0  0  0  0
 16 25  2  0  0  0  0
 16 30  1  0  0  0  0
 17 29  2  0  0  0  0
 17 31  1  0  0  0  0
 18 32  1  0  0  0  0
 19 32  1  0  0  0  0
 19 33  2  0  0  0  0
 19 41  1  0  0  0  0
 20 22  2  0  0  0  0
 20 46  1  0  0  0  0
 21 23  2  0  0  0  0
 21 47  1  0  0  0  0
 22 56  1  0  0  0  0
 23 48  1  0  0  0  0
 24 30  2  0  0  0  0
 24 69  1  0  0  0  0
 25 74  1  0  0  0  0
 26 84  1  0  0  0  0
 27 85  1  0  0  0  0
 28 31  2  0  0  0  0
 28 84  1  0  0  0  0
 29 86  1  0  0  0  0
 30 87  1  0  0  0  0
 31 88  1  0  0  0  0
 32 67  2  0  0  0  0
 33 68  1  0  0  0  0
 33 72  1  0  0  0  0
 34 35  1  0  0  0  0
 34 36  1  0  0  0  0
 34 38  2  0  0  0  0
 35 37  1  0  0  0  0
 35 40  2  0  0  0  0
 36 39  2  0  0  0  0
 36 49  1  0  0  0  0
 37 69  1  0  0  0  0
 37 78  2  0  0  0  0
 40 85  1  0  0  0  0
 41 73  1  0  0  0  0
 41 79  2  0  0  0  0
 42 57  1  0  0  0  0
 42 75  1  0  0  0  0
 42 80  2  0  0  0  0
 43 64  1  0  0  0  0
 43 70  1  0  0  0  0
 43 81  2  0  0  0  0
 44 65  1  0  0  0  0
 44 76  1  0  0  0  0
 44 82  2  0  0  0  0
 45 71  1  0  0  0  0
 45 74  1  0  0  0  0
 45 83  2  0  0  0  0
 46 50  1  0  0  0  0
 47 57  1  0  0  0  0
 48 70  1  0  0  0  0
 49 69  1  0  0  0  0
 50 52  1  0  0  0  0
 51 53  1  0  0  0  0
 51 54  1  0  0  0  0
 52 56  1  0  0  0  0
 53 58  1  0  0  0  0
 54 71  1  0  0  0  0
 55 58  1  0  0  0  0
 55 71  1  0  0  0  0
 56 75  1  0  0  0  0
 57 70  1  0  0  0  0
 58 68  1  0  0  0  0
 59 65  1  0  0  0  0
 60 66  1  0  0  0  0
 61 66  1  0  0  0  0
 62 66  1  0  0  0  0
 63 77  1  0  0  0  0
 64 66  1  0  0  0  0
 64 76  1  0  0  0  0
 65 77  1  0  0  0  0
 67 68  1  0  0  0  0
M  CHG  1  77   1
M  ISO  4  40 101  45 100  74 100  85 101
M  END
> <Batch ID>
0079

> <Smiles>
C=C1CN(c2ccc([100NH:0][100C:0](=O)N3CCCC(n4nc(-c5ccc(Oc6ccc(F)cc6F)cc5)c(C(N)=O)c4N)C3)cc2F)C(=O)C(=[101CH:1][101O:1]c2ccc3c(c2)CN(C(=O)C(NC(=O)C(C)NC)C(C)(C)C)C(C(=O)NC2CCCc4ccccc42)C3)C1=C

> <Shape>
0.253

> <Color>
0.092

> <Negative vol penalty>
0.000

$$$$

  -OEChem-04042323593D

 88 96  0     1  0  0  0  0  0999 V2000
  -22.7754  -35.5860   16.0607 C   0  0  0  0  0  0  0  0  0  0  0  0
  -23.4848  -34.3911   15.9953 C   0  0  0  0  0  0  0  0  0  0  0  0
  -21.2534  -18.1085   18.4542 C   0  0  0  0  0  0  0  0  0  0  0  0
  -19.7976  -16.1925   18.6694 C   0  0  0  0  0  0  0  0  0  0  0  0
  -22.8145  -36.3559   17.2225 C   0  0  0  0  0  0  0  0  0  0  0  0
  -24.2346  -33.9658   17.0914 C   0  0  0  0  0  0  0  0  0  0  0  0
  -25.1323  -28.1904   18.9201 C   0  0  0  0  0  0  0  0  0  0  0  0
  -20.4786  -18.5782   17.3937 C   0  0  0  0  0  0  0  0  0  0  0  0
  -19.0227  -16.6622   17.6089 C   0  0  0  0  0  0  0  0  0  0  0  0
  -26.1863  -27.2985   18.7271 C   0  0  0  0  0  0  0  0  0  0  0  0
  -17.5401  -20.1998   16.9825 C   0  0  0  0  0  0  0  0  0  0  0  0
  -17.2041  -21.5535   16.9749 C   0  0  0  0  0  0  0  0  0  0  0  0
  -27.1024  -27.9268   20.8684 C   0  0  0  0  0  0  0  0  0  0  0  0
  -30.1435  -19.5012   18.9794 C   0  0  0  0  0  0  0  0  0  0  0  0
  -28.6386  -19.7800   20.8488 C   0  0  0  0  0  0  0  0  0  0  0  0
  -18.3369  -21.8228   14.8579 C   0  0  0  0  0  0  0  0  0  0  0  0
  -20.9129  -16.9156   19.0920 C   0  0  0  0  0  0  0  0  0  0  0  0
  -29.3745  -17.5694   20.2096 C   0  0  0  0  0  0  0  0  0  0  0  0
  -21.5429  -16.7126   21.5556 C   0  0  0  0  0  0  0  0  0  0  0  0
  -23.5574  -35.9351   18.3368 C   0  0  0  0  0  0  0  0  0  0  0  0
  -25.0612  -28.9665   20.0859 C   0  0  0  0  0  0  0  0  0  0  0  0
  -24.2848  -34.7315   18.2687 C   0  0  0  0  0  0  0  0  0  0  0  0
  -26.0451  -28.8260   21.0750 C   0  0  0  0  0  0  0  0  0  0  0  0
  -30.1325  -18.1204   19.1765 C   0  0  0  0  0  0  0  0  0  0  0  0
  -29.3966  -20.3310   19.8156 C   0  0  0  0  0  0  0  0  0  0  0  0
  -28.6276  -18.3992   21.0458 C   0  0  0  0  0  0  0  0  0  0  0  0
  -19.3632  -17.8551   16.9710 C   0  0  0  0  0  0  0  0  0  0  0  0
  -27.1731  -27.1686   19.6999 C   0  0  0  0  0  0  0  0  0  0  0  0
  -18.2746  -19.6575   15.9278 C   0  0  0  0  0  0  0  0  0  0  0  0
  -17.6024  -22.3650   15.9126 C   0  0  0  0  0  0  0  0  0  0  0  0
  -18.6729  -20.4690   14.8656 C   0  0  0  0  0  0  0  0  0  0  0  0
  -21.7133  -16.4297   20.1871 C   0  0  0  0  0  0  0  0  0  0  0  0
  -22.5499  -16.0163   22.1781 C   0  0  0  0  0  0  0  0  0  0  0  0
  -28.0506  -25.0160   19.9582 C   0  0  0  0  0  0  0  0  0  1  0  0
  -29.3663  -16.0982   20.4152 C   0  0  0  0  0  0  0  0  0  0  0  0
  -20.5620  -17.5315   22.2059 C   0  0  0  0  0  0  0  0  0  0  0  0
  -28.9976  -24.0791   19.8277 C   0  0  0  0  0  0  0  0  0  0  0  0
  -28.7316  -22.6984   20.3484 C   0  0  0  0  0  0  0  0  0  0  0  0
  -25.1012  -32.0826   20.7120 C   0  0  0  0  0  0  0  0  0  0  0  0
  -24.4861  -31.0866   23.7372 C   0  0  0  0  0  0  0  0  0  0  0  0
  -24.6681  -28.5926   26.0597 C   0  0  0  0  0  0  0  0  0  0  0  0
  -27.8992  -14.1054   20.4271 C   0  0  0  0  0  0  0  0  0  0  0  0
  -23.6074  -36.8244   19.5539 C   0  0  0  0  0  0  0  0  0  0  0  0
  -23.9034  -29.9046   20.2910 C   0  0  0  0  0  0  0  0  0  0  0  0
  -26.0037  -29.6213   22.3533 C   0  0  0  0  0  0  0  0  0  0  0  0
  -24.1241  -36.1173   20.8041 C   0  0  0  0  0  0  0  0  0  0  0  0
  -25.2661  -12.0996   21.6683 C   0  0  0  0  0  0  0  0  0  0  0  0
  -25.3813  -35.3154   20.4828 C   0  0  0  0  0  0  0  0  0  0  0  0
  -24.0402  -13.0116   21.5700 C   0  0  0  0  0  0  0  0  0  0  0  0
  -26.2117  -12.2902   20.4832 C   0  0  0  0  0  0  0  0  0  0  0  0
  -25.3934  -14.5842   20.1279 C   0  0  0  0  0  0  0  0  0  0  0  0
  -25.0896  -34.2243   19.4456 C   0  0  1  0  0  0  0  0  0  0  0  0
  -24.2073  -31.0201   21.2863 C   0  0  1  0  0  0  0  0  0  0  0  0
  -24.4454  -14.4804   21.3335 C   0  0  1  0  0  0  0  0  0  0  0  0
  -30.9428  -17.2575   18.2643 C   0  0  0  0  0  0  0  0  0  0  0  0
  -24.1175  -28.0878   28.4554 C   0  0  0  0  0  0  0  0  0  0  0  0
  -26.8942  -32.7314   24.6348 C   0  0  0  0  0  0  0  0  0  0  0  0
  -26.8695  -31.4615   26.7923 C   0  0  0  0  0  0  0  0  0  0  0  0
  -24.9121  -32.8696   26.1534 C   0  0  0  0  0  0  0  0  0  0  0  0
  -26.6524  -18.4801   22.5683 C   0  0  0  0  0  0  0  0  0  0  0  0
  -22.8262  -26.4053   25.2966 C   0  0  0  0  0  0  0  0  0  0  0  0
  -25.3299  -30.6984   24.9273 C   0  0  1  0  0  0  0  0  0  0  0  0
  -23.6322  -28.0286   27.0154 C   0  0  2  0  0  0  0  0  0  0  0  0
  -26.0035  -31.9265   25.6021 C   0  0  0  0  0  0  0  0  0  0  0  0
  -22.7473  -15.6171   19.9534 N   0  0  0  0  0  0  0  0  0  0  0  0
  -23.2358  -15.3836   21.1834 N   0  0  0  0  0  0  0  0  0  0  0  0
  -24.8551  -30.5298   22.5045 N   0  0  0  0  0  0  0  0  0  0  0  0
  -26.5547  -13.7055   20.3331 N   0  0  0  0  0  0  0  0  0  0  0  0
  -22.9069  -15.8897   23.4739 N   0  0  0  0  0  0  0  0  0  0  0  0
  -19.5994  -18.1752   21.4165 N   0  0  0  0  0  0  0  0  0  0  0  0
  -29.4080  -21.7326   19.6159 N   0  0  0  0  0  0  0  0  0  0  0  0
  -27.8527  -17.8633   22.0989 N   0  0  0  0  0  0  0  0  0  0  0  0
  -28.1185  -15.4827   20.3127 N   0  0  0  0  0  0  0  0  0  0  0  0
  -24.4236  -33.1003   20.0681 N   0  0  0  0  0  0  0  0  0  0  0  0
  -24.4590  -29.9330   25.8129 N   0  0  0  0  0  0  0  0  0  0  0  0
  -23.3350  -26.6079   26.6776 N   0  3  0  0  0  0  0  0  0  0  0  0
  -30.4287  -15.5167   20.6180 O   0  0  0  0  0  0  0  0  0  0  0  0
  -20.5498  -17.7009   23.4488 O   0  0  0  0  0  0  0  0  0  0  0  0
  -27.9933  -22.5195   21.3111 O   0  0  0  0  0  0  0  0  0  0  0  0
  -26.3157  -31.9870   20.8447 O   0  0  0  0  0  0  0  0  0  0  0  0
  -23.5304  -31.8500   23.8968 O   0  0  0  0  0  0  0  0  0  0  0  0
  -25.5744  -27.9131   25.5830 O   0  0  0  0  0  0  0  0  0  0  0  0
  -28.8210  -13.3097   20.6334 O   0  0  0  0  0  0  0  0  0  0  0  0
  -30.2150  -24.3326   19.2291 O   0  0  0  0  0  0  0  0  0  0  0  0
  -18.6067  -18.3132   15.9364 O   0  0  0  0  0  0  0  0  0  0  0  0
  -28.2033  -26.2993   19.5137 O   0  0  0  0  0  0  0  0  0  1  0  0
  -17.2784  -23.6647   15.9048 F   0  0  0  0  0  0  0  0  0  0  0  0
  -19.3776  -19.9536   13.8490 F   0  0  0  0  0  0  0  0  0  0  0  0
  1  2  1  0  0  0  0
  1  5  2  0  0  0  0
  2  6  2  0  0  0  0
  3  8  2  0  0  0  0
  3 17  1  0  0  0  0
  4  9  1  0  0  0  0
  4 17  2  0  0  0  0
  5 20  1  0  0  0  0
  6 22  1  0  0  0  0
  7 10  2  0  0  0  0
  7 21  1  0  0  0  0
  8 27  1  0  0  0  0
  9 27  2  0  0  0  0
 10 28  1  0  0  0  0
 11 12  2  0  0  0  0
 11 29  1  0  0  0  0
 12 30  1  0  0  0  0
 13 23  1  0  0  0  0
 13 28  2  0  0  0  0
 14 24  2  0  0  0  0
 14 25  1  0  0  0  0
 15 25  2  0  0  0  0
 15 26  1  0  0  0  0
 16 30  2  0  0  0  0
 16 31  1  0  0  0  0
 17 32  1  0  0  0  0
 18 24  1  0  0  0  0
 18 26  2  0  0  0  0
 18 35  1  0  0  0  0
 19 32  1  0  0  0  0
 19 33  2  0  0  0  0
 19 36  1  0  0  0  0
 20 22  2  0  0  0  0
 20 43  1  0  0  0  0
 21 23  2  0  0  0  0
 21 44  1  0  0  0  0
 22 52  1  0  0  0  0
 23 45  1  0  0  0  0
 24 55  1  0  0  0  0
 25 71  1  0  0  0  0
 26 72  1  0  0  0  0
 27 85  1  0  0  0  0
 28 86  1  0  0  0  0
 29 31  2  0  0  0  0
 29 85  1  0  0  0  0
 30 87  1  0  0  0  0
 31 88  1  0  0  0  0
 32 65  2  0  0  0  0
 33 66  1  0  0  0  0
 33 69  1  0  0  0  0
 34 37  2  0  0  0  0
 34 86  1  0  0  0  0
 35 73  1  0  0  0  0
 35 77  2  0  0  0  0
 36 70  1  0  0  0  0
 36 78  2  0  0  0  0
 37 38  1  0  0  0  0
 37 84  1  0  0  0  0
 38 71  1  0  0  0  0
 38 79  2  0  0  0  0
 39 53  1  0  0  0  0
 39 74  1  0  0  0  0
 39 80  2  0  0  0  0
 40 62  1  0  0  0  0
 40 67  1  0  0  0  0
 40 81  2  0  0  0  0
 41 63  1  0  0  0  0
 41 75  1  0  0  0  0
 41 82  2  0  0  0  0
 42 68  1  0  0  0  0
 42 73  1  0  0  0  0
 42 83  2  0  0  0  0
 43 46  1  0  0  0  0
 44 53  1  0  0  0  0
 45 67  1  0  0  0  0
 46 48  1  0  0  0  0
 47 49  1  0  0  0  0
 47 50  1  0  0  0  0
 48 52  1  0  0  0  0
 49 54  1  0  0  0  0
 50 68  1  0  0  0  0
 51 54  1  0  0  0  0
 51 68  1  0  0  0  0
 52 74  1  0  0  0  0
 53 67  1  0  0  0  0
 54 66  1  0  0  0  0
 56 63  1  0  0  0  0
 57 64  1  0  0  0  0
 58 64  1  0  0  0  0
 59 64  1  0  0  0  0
 60 72  1  0  0  0  0
 61 76  1  0  0  0  0
 62 64  1  0  0  0  0
 62 75  1  0  0  0  0
 63 76  1  0  0  0  0
 65 66  1  0  0  0  0
M  CHG  1  76   1
M  ISO  4  34 101  42 100  73 100  86 101
M  END
> <Batch ID>
0079

> <Smiles>
CNc1cc(NC(=O)C(=O)[101CH2:1][101O:1]c2ccc3c(c2)CN(C(=O)C(NC(=O)C(C)NC)C(C)(C)C)C(C(=O)NC2CCCc4ccccc42)C3)cc(C)c1C(=O)[100NH:0][100C:0](=O)N1CCCC(n2nc(-c3ccc(Oc4ccc(F)cc4F)cc3)c(C(N)=O)c2N)C1

> <Shape>
0.228

> <Color>
0.080

> <Negative vol penalty>
0.000

$$$$

  -OEChem-04042323593D

 86 95  0     1  0  0  0  0  0999 V2000
  -29.4804  -12.2334   19.9634 C   0  0  0  0  0  0  0  0  0  0  0  0
  -29.2528  -13.4188   19.2715 C   0  0  0  0  0  0  0  0  0  0  0  0
  -30.9659  -28.7571   23.0679 C   0  0  0  0  0  0  0  0  0  0  0  0
  -31.7606  -27.9313   22.2729 C   0  0  0  0  0  0  0  0  0  0  0  0
  -21.7109  -26.5631   18.3694 C   0  0  0  0  0  0  0  0  0  0  0  0
  -22.0738  -24.2438   18.9405 C   0  0  0  0  0  0  0  0  0  0  0  0
  -28.4170  -11.5670   20.5707 C   0  0  0  0  0  0  0  0  0  0  0  0
  -27.9614  -13.9378   19.1857 C   0  0  0  0  0  0  0  0  0  0  0  0
  -26.4430  -20.5313   21.6578 C   0  0  0  0  0  0  0  0  0  0  0  0
  -29.5917  -28.8318   22.8403 C   0  0  0  0  0  0  0  0  0  0  0  0
  -31.1813  -27.1803   21.2502 C   0  0  0  0  0  0  0  0  0  0  0  0
  -20.6355  -26.6132   19.2562 C   0  0  0  0  0  0  0  0  0  0  0  0
  -20.9984  -24.2939   19.8274 C   0  0  0  0  0  0  0  0  0  0  0  0
  -26.1188  -21.8634   21.9159 C   0  0  0  0  0  0  0  0  0  0  0  0
  -20.1698  -26.8955   22.5933 C   0  0  0  0  0  0  0  0  0  0  0  0
  -20.0804  -27.9987   23.4421 C   0  0  0  0  0  0  0  0  0  0  0  0
  -23.8152  -21.4290   21.3218 C   0  0  0  0  0  0  0  0  0  0  0  0
  -17.9318  -28.5578   22.4893 C   0  0  0  0  0  0  0  0  0  0  0  0
  -22.4301  -25.3783   18.2115 C   0  0  0  0  0  0  0  0  0  0  0  0
  -23.5102  -25.5632   15.9078 C   0  0  0  0  0  0  0  0  0  0  0  0
  -27.1134  -12.0831   20.5006 C   0  0  0  0  0  0  0  0  0  0  0  0
  -25.4502  -19.6383   21.2450 C   0  0  0  0  0  0  0  0  0  0  0  0
  -26.8794  -13.2769   19.7916 C   0  0  0  0  0  0  0  0  0  0  0  0
  -24.1315  -20.0906   21.0738 C   0  0  0  0  0  0  0  0  0  0  0  0
  -29.0124  -28.0807   21.8176 C   0  0  0  0  0  0  0  0  0  0  0  0
  -29.8071  -27.2549   21.0225 C   0  0  0  0  0  0  0  0  0  0  0  0
  -20.2792  -25.4787   19.9852 C   0  0  0  0  0  0  0  0  0  0  0  0
  -24.8082  -22.3111   21.7481 C   0  0  0  0  0  0  0  0  0  0  0  0
  -19.1402  -26.6234   21.6924 C   0  0  0  0  0  0  0  0  0  0  0  0
  -18.9614  -28.8299   23.3901 C   0  0  0  0  0  0  0  0  0  0  0  0
  -18.0212  -27.4546   21.6404 C   0  0  0  0  0  0  0  0  0  0  0  0
  -23.5408  -25.3257   17.2951 C   0  0  0  0  0  0  0  0  0  0  0  0
  -24.8107  -25.3904   15.5012 C   0  0  0  0  0  0  0  0  0  0  0  0
  -24.7975  -28.3225   21.2479 C   0  0  0  0  0  0  0  0  0  0  0  0
  -25.4349  -27.0758   21.6503 C   0  0  0  0  0  0  0  0  0  0  0  0
  -23.5167  -28.6186   21.5170 C   0  0  0  0  0  0  0  0  0  0  0  0
  -24.8978  -25.8713   21.3980 C   0  0  0  0  0  0  0  0  0  0  0  0
  -22.4052  -25.9090   15.0623 C   0  0  0  0  0  0  0  0  0  0  0  0
  -24.5744  -16.1277   20.2527 C   0  0  0  0  0  0  0  0  0  0  0  0
  -22.2779  -17.1571   22.0068 C   0  0  0  0  0  0  0  0  0  0  0  0
  -20.1421  -17.1647   24.3179 C   0  0  0  0  0  0  0  0  0  0  0  0
  -29.9008  -25.6171   19.1019 C   0  0  0  0  0  0  0  0  0  0  0  0
  -25.9885  -11.3025   21.1328 C   0  0  0  0  0  0  0  0  0  0  0  0
  -25.7660  -18.2091   20.8964 C   0  0  0  0  0  0  0  0  0  0  0  0
  -23.1033  -19.1026   20.5947 C   0  0  0  0  0  0  0  0  0  0  0  0
  -25.7131  -29.2769   20.5296 C   0  0  0  0  0  0  0  0  0  0  0  0
  -26.7711  -27.2265   22.3399 C   0  0  0  0  0  0  0  0  0  0  0  0
  -24.7091  -12.1154   21.3134 C   0  0  0  0  0  0  0  0  0  0  0  0
  -28.6871  -22.8681   16.9505 C   0  0  0  0  0  0  0  0  0  0  0  0
  -24.3828  -12.8874   20.0389 C   0  0  0  0  0  0  0  0  0  0  0  0
  -27.3072  -23.2986   16.4508 C   0  0  0  0  0  0  0  0  0  0  0  0
  -27.0381  -29.4722   21.2703 C   0  0  0  0  0  0  0  0  0  0  0  0
  -29.6201  -24.0449   17.2006 C   0  0  0  0  0  0  0  0  0  0  0  0
  -27.5984  -25.2431   18.0654 C   0  0  0  0  0  0  0  0  0  0  0  0
  -25.4966  -13.8845   19.6974 C   0  0  1  0  0  0  0  0  0  0  0  0
  -24.6338  -17.2337   21.2649 C   0  0  1  0  0  0  0  0  0  0  0  0
  -27.0001  -24.7798   16.7279 C   0  0  2  0  0  0  0  0  0  0  0  0
  -19.4991  -14.7627   24.6562 C   0  0  0  0  0  0  0  0  0  0  0  0
  -21.2206  -18.8745   19.7186 C   0  0  0  0  0  0  0  0  0  0  0  0
  -18.9495  -18.7440   20.7642 C   0  0  0  0  0  0  0  0  0  0  0  0
  -20.0799  -16.6641   19.9777 C   0  0  0  0  0  0  0  0  0  0  0  0
  -17.3416  -17.8827   24.9509 C   0  0  0  0  0  0  0  0  0  0  0  0
  -25.5269  -24.5779   21.7976 C   0  0  0  0  0  0  0  0  0  1  0  0
  -20.9266  -17.8238   22.0586 C   0  0  1  0  0  0  0  0  0  0  0  0
  -19.1935  -16.2080   25.0175 C   0  0  2  0  0  0  0  0  0  0  0  0
  -20.3163  -18.0367   20.6445 C   0  0  0  0  0  0  0  0  0  0  0  0
  -24.7637  -25.0249   17.7400 N   0  0  0  0  0  0  0  0  0  0  0  0
  -25.5137  -25.0721   16.6258 N   0  0  0  0  0  0  0  0  0  0  0  0
  -27.6306  -28.1712   21.6071 N   0  0  1  0  0  0  0  0  0  0  0  0
  -23.2815  -17.8166   21.2869 N   0  0  0  0  0  0  0  0  0  0  0  0
  -29.0463  -24.9906   18.1623 N   0  0  0  0  0  0  0  0  0  0  0  0
  -25.4101  -25.4812   14.2950 N   0  0  0  0  0  0  0  0  0  0  0  0
  -21.6688  -24.8748   14.4686 N   0  0  0  0  0  0  0  0  0  0  0  0
  -29.2411  -26.4834   19.9773 N   0  0  0  0  0  0  0  0  0  0  0  0
  -25.4004  -15.0577   20.5393 N   0  0  0  0  0  0  0  0  0  0  0  0
  -20.1041  -17.0110   22.9481 N   0  0  0  0  0  0  0  0  0  0  0  0
  -17.7842  -16.5010   24.6315 N   0  3  0  0  0  0  0  0  0  0  0  0
  -22.0904  -27.1003   14.8268 O   0  0  0  0  0  0  0  0  0  0  0  0
  -23.8328  -16.2354   19.2831 O   0  0  0  0  0  0  0  0  0  0  0  0
  -22.4405  -16.0780   22.5834 O   0  0  0  0  0  0  0  0  0  0  0  0
  -20.8435  -17.9705   24.9255 O   0  0  0  0  0  0  0  0  0  0  0  0
  -31.1117  -25.3869   19.1302 O   0  0  0  0  0  0  0  0  0  0  0  0
  -19.2300  -25.5273   20.8509 O   0  0  0  0  0  0  0  0  0  0  0  0
  -24.4977  -23.6118   22.0062 O   0  0  0  0  0  0  0  0  0  1  0  0
  -18.8751  -29.8884   24.2064 F   0  0  0  0  0  0  0  0  0  0  0  0
  -17.0283  -27.1976   20.7779 F   0  0  0  0  0  0  0  0  0  0  0  0
  1  2  1  0  0  0  0
  1  7  2  0  0  0  0
  2  8  2  0  0  0  0
  3  4  1  0  0  0  0
  3 10  2  0  0  0  0
  4 11  2  0  0  0  0
  5 12  2  0  0  0  0
  5 19  1  0  0  0  0
  6 13  1  0  0  0  0
  6 19  2  0  0  0  0
  7 21  1  0  0  0  0
  8 23  1  0  0  0  0
  9 14  2  0  0  0  0
  9 22  1  0  0  0  0
 10 25  1  0  0  0  0
 11 26  1  0  0  0  0
 12 27  1  0  0  0  0
 13 27  2  0  0  0  0
 14 28  1  0  0  0  0
 15 16  2  0  0  0  0
 15 29  1  0  0  0  0
 16 30  1  0  0  0  0
 17 24  1  0  0  0  0
 17 28  2  0  0  0  0
 18 30  2  0  0  0  0
 18 31  1  0  0  0  0
 19 32  1  0  0  0  0
 20 32  1  0  0  0  0
 20 33  2  0  0  0  0
 20 38  1  0  0  0  0
 21 23  2  0  0  0  0
 21 43  1  0  0  0  0
 22 24  2  0  0  0  0
 22 44  1  0  0  0  0
 23 55  1  0  0  0  0
 24 45  1  0  0  0  0
 25 26  2  0  0  0  0
 25 69  1  0  0  0  0
 26 74  1  0  0  0  0
 27 83  1  0  0  0  0
 28 84  1  0  0  0  0
 29 31  2  0  0  0  0
 29 83  1  0  0  0  0
 30 85  1  0  0  0  0
 31 86  1  0  0  0  0
 32 67  2  0  0  0  0
 33 68  1  0  0  0  0
 33 72  1  0  0  0  0
 34 35  1  0  0  0  0
 34 36  2  0  0  0  0
 34 46  1  0  0  0  0
 35 37  2  0  0  0  0
 35 47  1  0  0  0  0
 37 63  1  0  0  0  0
 38 73  1  0  0  0  0
 38 78  2  0  0  0  0
 39 56  1  0  0  0  0
 39 75  1  0  0  0  0
 39 79  2  0  0  0  0
 40 64  1  0  0  0  0
 40 70  1  0  0  0  0
 40 80  2  0  0  0  0
 41 65  1  0  0  0  0
 41 76  1  0  0  0  0
 41 81  2  0  0  0  0
 42 71  1  0  0  0  0
 42 74  1  0  0  0  0
 42 82  2  0  0  0  0
 43 48  1  0  0  0  0
 44 56  1  0  0  0  0
 45 70  1  0  0  0  0
 46 52  1  0  0  0  0
 47 69  1  0  0  0  0
 48 50  1  0  0  0  0
 49 51  1  0  0  0  0
 49 53  1  0  0  0  0
 50 55  1  0  0  0  0
 51 57  1  0  0  0  0
 52 69  1  0  0  0  0
 53 71  1  0  0  0  0
 54 57  1  0  0  0  0
 54 71  1  0  0  0  0
 55 75  1  0  0  0  0
 56 70  1  0  0  0  0
 57 68  1  0  0  0  0
 58 65  1  0  0  0  0
 59 66  1  0  0  0  0
 60 66  1  0  0  0  0
 61 66  1  0  0  0  0
 62 77  1  0  0  0  0
 63 84  1  0  0  0  0
 64 66  1  0  0  0  0
 64 76  1  0  0  0  0
 65 77  1  0  0  0  0
 67 68  1  0  0  0  0
M  CHG  1  77   1
M  ISO  4  42 100  63 101  74 100  84 101
M  END
> <Batch ID>
0079

> <Smiles>
C=C1CCN(c2ccccc2[100NH:0][100C:0](=O)N2CCCC(n3nc(-c4ccc(Oc5ccc(F)cc5F)cc4)c(C(N)=O)c3N)C2)CC1=C[101CH2:1][101O:1]c1ccc2c(c1)CN(C(=O)C(NC(=O)C(C)NC)C(C)(C)C)C(C(=O)NC1CCCc3ccccc31)C2

> <Shape>
0.184

> <Color>
0.079

> <Negative vol penalty>
0.000

$$$$

  -OEChem-04042323593D

 87 95  0     1  0  0  0  0  0999 V2000
  -30.4433  -35.9927   20.4809 C   0  0  0  0  0  0  0  0  0  0  0  0
  -30.3228  -34.6919   20.0025 C   0  0  0  0  0  0  0  0  0  0  0  0
  -31.9449  -19.3098   21.2223 C   0  0  0  0  0  0  0  0  0  0  0  0
  -23.4706   -9.8158   21.6926 C   0  0  0  0  0  0  0  0  0  0  0  0
  -24.0911  -10.9827   23.7150 C   0  0  0  0  0  0  0  0  0  0  0  0
  -31.0157  -20.3190   21.4747 C   0  0  0  0  0  0  0  0  0  0  0  0
  -29.9678  -36.3137   21.7517 C   0  0  0  0  0  0  0  0  0  0  0  0
  -29.7278  -33.7110   20.7952 C   0  0  0  0  0  0  0  0  0  0  0  0
  -26.2711  -29.0305   18.8848 C   0  0  0  0  0  0  0  0  0  0  0  0
  -31.5098  -18.0414   20.8380 C   0  0  0  0  0  0  0  0  0  0  0  0
  -22.8425   -8.8301   22.4539 C   0  0  0  0  0  0  0  0  0  0  0  0
  -23.4629   -9.9971   24.4764 C   0  0  0  0  0  0  0  0  0  0  0  0
  -26.5593  -27.6873   18.6474 C   0  0  0  0  0  0  0  0  0  0  0  0
  -19.9185   -8.4459   24.1079 C   0  0  0  0  0  0  0  0  0  0  0  0
  -18.6547   -8.0192   23.7004 C   0  0  0  0  0  0  0  0  0  0  0  0
  -29.2164  -18.7915   20.9588 C   0  0  0  0  0  0  0  0  0  0  0  0
  -25.7674  -27.1330   20.8576 C   0  0  0  0  0  0  0  0  0  0  0  0
  -19.4968   -5.7692   23.4445 C   0  0  0  0  0  0  0  0  0  0  0  0
  -24.0949  -10.8920   22.3231 C   0  0  0  0  0  0  0  0  0  0  0  0
  -29.6515  -20.0598   21.3431 C   0  0  0  0  0  0  0  0  0  0  0  0
  -24.1681  -13.0914   21.0327 C   0  0  0  0  0  0  0  0  0  0  0  0
  -29.3580  -35.3385   22.5565 C   0  0  0  0  0  0  0  0  0  0  0  0
  -25.7381  -29.4373   20.1164 C   0  0  0  0  0  0  0  0  0  0  0  0
  -29.2450  -34.0190   22.0784 C   0  0  0  0  0  0  0  0  0  0  0  0
  -25.4709  -28.4817   21.1071 C   0  0  0  0  0  0  0  0  0  0  0  0
  -30.1456  -17.7823   20.7063 C   0  0  0  0  0  0  0  0  0  0  0  0
  -22.8387   -8.9208   23.8458 C   0  0  0  0  0  0  0  0  0  0  0  0
  -26.3101  -26.7387   19.6349 C   0  0  0  0  0  0  0  0  0  0  0  0
  -20.9716   -7.5343   24.1836 C   0  0  0  0  0  0  0  0  0  0  0  0
  -18.4438   -6.6808   23.3687 C   0  0  0  0  0  0  0  0  0  0  0  0
  -20.7608   -6.1960   23.8519 C   0  0  0  0  0  0  0  0  0  0  0  0
  -24.7444  -11.9102   21.5372 C   0  0  0  0  0  0  0  0  0  0  0  0
  -25.1920  -13.7131   20.3608 C   0  0  0  0  0  0  0  0  0  0  0  0
  -28.6630  -21.1357   21.6123 C   0  0  0  0  0  0  0  0  0  0  0  0
  -22.8272  -13.5826   21.1601 C   0  0  0  0  0  0  0  0  0  0  0  0
  -26.7074  -31.3597   22.4549 C   0  0  0  0  0  0  0  0  0  0  0  0
  -25.0186  -21.3929   20.9492 C   0  0  0  0  0  0  0  0  0  0  0  0
  -26.6683  -23.0941   20.0514 C   0  0  0  0  0  0  0  0  0  0  0  0
  -23.7453  -30.7711   23.6388 C   0  0  0  0  0  0  0  0  0  0  0  0
  -21.0341  -28.7021   23.7650 C   0  0  0  0  0  0  0  0  0  0  0  0
  -30.4938  -15.3815   20.0271 C   0  0  0  0  0  0  0  0  0  0  0  0
  -28.9020  -35.7220   23.9420 C   0  0  0  0  0  0  0  0  0  0  0  0
  -25.4079  -30.8865   20.3470 C   0  0  0  0  0  0  0  0  0  0  0  0
  -24.8805  -28.8640   22.4390 C   0  0  0  0  0  0  0  0  0  0  0  0
  -27.9468  -34.7107   24.5706 C   0  0  0  0  0  0  0  0  0  0  0  0
  -29.7860  -12.0266   19.0675 C   0  0  0  0  0  0  0  0  0  0  0  0
  -28.4745  -33.2915   24.3856 C   0  0  0  0  0  0  0  0  0  0  0  0
  -28.3639  -11.7944   19.5829 C   0  0  0  0  0  0  0  0  0  0  0  0
  -30.5998  -12.8988   20.0218 C   0  0  0  0  0  0  0  0  0  0  0  0
  -28.5489  -13.9428   20.9009 C   0  0  0  0  0  0  0  0  0  0  0  0
  -28.5833  -32.9329   22.8986 C   0  0  1  0  0  0  0  0  0  0  0  0
  -25.3469  -31.2574   21.8255 C   0  0  1  0  0  0  0  0  0  0  0  0
  -27.6704  -13.1233   19.9415 C   0  0  2  0  0  0  0  0  0  0  0  0
  -23.8773  -21.9690   21.7484 C   0  0  0  0  0  0  0  0  0  0  0  0
  -18.7831  -28.4688   24.8493 C   0  0  0  0  0  0  0  0  0  0  0  0
  -25.0905  -29.9307   26.2453 C   0  0  0  0  0  0  0  0  0  0  0  0
  -22.9421  -28.8368   26.9202 C   0  0  0  0  0  0  0  0  0  0  0  0
  -23.0182  -31.3002   26.5353 C   0  0  0  0  0  0  0  0  0  0  0  0
  -19.6426  -28.7482   21.1534 C   0  0  0  0  0  0  0  0  0  0  0  0
  -26.3107  -24.5089   20.4619 C   0  0  0  0  0  0  0  0  0  1  0  0
  -26.4025  -22.0088   21.0793 C   0  0  2  0  0  0  0  0  0  0  0  0
  -23.1478  -29.7319   24.5565 C   0  0  1  0  0  0  0  0  0  0  0  0
  -19.5473  -28.9812   23.6385 C   0  0  2  0  0  0  0  0  0  0  0  0
  -23.5626  -29.9426   26.0401 C   0  0  0  0  0  0  0  0  0  0  0  0
  -26.0343  -11.7866   21.2133 N   0  0  0  0  0  0  0  0  0  0  0  0
  -26.2770  -12.8982   20.4980 N   0  0  0  0  0  0  0  0  0  0  0  0
  -24.5807  -30.2941   22.6188 N   0  0  0  0  0  0  0  0  0  0  0  0
  -29.8828  -14.1422   20.3128 N   0  0  0  0  0  0  0  0  0  0  0  0
  -25.2612  -14.8720   19.6718 N   0  0  0  0  0  0  0  0  0  0  0  0
  -21.9016  -12.8186   21.8839 N   0  0  0  0  0  0  0  0  0  0  0  0
  -29.7039  -16.4938   20.3156 N   0  0  0  0  0  0  0  0  0  0  0  0
  -27.4488  -21.0344   20.9420 N   0  0  0  0  0  0  0  0  0  0  0  0
  -27.2789  -32.6141   22.3588 N   0  0  0  0  0  0  0  0  0  0  0  0
  -21.7073  -29.7656   24.3282 N   0  0  0  0  0  0  0  0  0  0  0  0
  -18.9979  -28.3196   22.4214 N   0  3  0  0  0  0  0  0  0  0  0  0
  -28.9636  -22.0492   22.3763 O   0  0  0  0  0  0  0  0  0  0  0  0
  -22.4563  -14.6590   20.6333 O   0  0  0  0  0  0  0  0  0  0  0  0
  -27.2015  -30.3739   22.9895 O   0  0  0  0  0  0  0  0  0  0  0  0
  -24.8202  -20.4597   20.1670 O   0  0  0  0  0  0  0  0  0  0  0  0
  -27.1177  -22.8359   18.9345 O   0  0  0  0  0  0  0  0  0  0  0  0
  -23.4748  -31.9615   23.8159 O   0  0  0  0  0  0  0  0  0  0  0  0
  -21.5465  -27.6449   23.4041 O   0  0  0  0  0  0  0  0  0  0  0  0
  -31.6232  -15.4502   19.5355 O   0  0  0  0  0  0  0  0  0  0  0  0
  -22.2257   -7.9594   24.5891 O   0  0  0  0  0  0  0  0  0  0  0  0
  -26.5911  -25.4270   19.4061 O   0  0  0  0  0  0  0  0  0  1  0  0
  -17.2296   -6.2709   22.9789 F   0  0  0  0  0  0  0  0  0  0  0  0
  -21.7683   -5.3153   23.9239 F   0  0  0  0  0  0  0  0  0  0  0  0
  1  2  1  0  0  0  0
  1  7  2  0  0  0  0
  2  8  2  0  0  0  0
  3  6  2  0  0  0  0
  3 10  1  0  0  0  0
  4 11  2  0  0  0  0
  4 19  1  0  0  0  0
  5 12  1  0  0  0  0
  5 19  2  0  0  0  0
  6 20  1  0  0  0  0
  7 22  1  0  0  0  0
  8 24  1  0  0  0  0
  9 13  2  0  0  0  0
  9 23  1  0  0  0  0
 10 26  2  0  0  0  0
 11 27  1  0  0  0  0
 12 27  2  0  0  0  0
 13 28  1  0  0  0  0
 14 15  2  0  0  0  0
 14 29  1  0  0  0  0
 15 30  1  0  0  0  0
 16 20  2  0  0  0  0
 16 26  1  0  0  0  0
 17 25  1  0  0  0  0
 17 28  2  0  0  0  0
 18 30  2  0  0  0  0
 18 31  1  0  0  0  0
 19 32  1  0  0  0  0
 20 34  1  0  0  0  0
 21 32  1  0  0  0  0
 21 33  2  0  0  0  0
 21 35  1  0  0  0  0
 22 24  2  0  0  0  0
 22 42  1  0  0  0  0
 23 25  2  0  0  0  0
 23 43  1  0  0  0  0
 24 51  1  0  0  0  0
 25 44  1  0  0  0  0
 26 71  1  0  0  0  0
 27 84  1  0  0  0  0
 28 85  1  0  0  0  0
 29 31  2  0  0  0  0
 29 84  1  0  0  0  0
 30 86  1  0  0  0  0
 31 87  1  0  0  0  0
 32 65  2  0  0  0  0
 33 66  1  0  0  0  0
 33 69  1  0  0  0  0
 34 72  1  0  0  0  0
 34 76  2  0  0  0  0
 35 70  1  0  0  0  0
 35 77  2  0  0  0  0
 36 52  1  0  0  0  0
 36 73  1  0  0  0  0
 36 78  2  0  0  0  0
 37 54  1  0  0  0  0
 37 61  1  0  0  0  0
 37 79  2  0  0  0  0
 38 60  1  0  0  0  0
 38 61  1  0  0  0  0
 38 80  2  0  0  0  0
 39 62  1  0  0  0  0
 39 67  1  0  0  0  0
 39 81  2  0  0  0  0
 40 63  1  0  0  0  0
 40 74  1  0  0  0  0
 40 82  2  0  0  0  0
 41 68  1  0  0  0  0
 41 71  1  0  0  0  0
 41 83  2  0  0  0  0
 42 45  1  0  0  0  0
 43 52  1  0  0  0  0
 44 67  1  0  0  0  0
 45 47  1  0  0  0  0
 46 48  1  0  0  0  0
 46 49  1  0  0  0  0
 47 51  1  0  0  0  0
 48 53  1  0  0  0  0
 49 68  1  0  0  0  0
 50 53  1  0  0  0  0
 50 68  1  0  0  0  0
 51 73  1  0  0  0  0
 52 67  1  0  0  0  0
 53 66  1  0  0  0  0
 55 63  1  0  0  0  0
 56 64  1  0  0  0  0
 57 64  1  0  0  0  0
 58 64  1  0  0  0  0
 59 75  1  0  0  0  0
 60 85  1  0  0  0  0
 61 72  1  0  0  0  0
 62 64  1  0  0  0  0
 62 74  1  0  0  0  0
 63 75  1  0  0  0  0
 65 66  1  0  0  0  0
M  CHG  1  75   1
M  ISO  4  41 100  60 101  71 100  85 101
M  END
> <Batch ID>
0079

> <Smiles>
CNC(C)C(=O)NC(C(=O)N1Cc2cc([101O:1][101CH2:1]C(=O)C(NC(=O)c3cccc([100NH:0][100C:0](=O)N4CCCC(n5nc(-c6ccc(Oc7ccc(F)cc7F)cc6)c(C(N)=O)c5N)C4)c3)C(C)=O)ccc2CC1C(=O)NC1CCCc2ccccc21)C(C)(C)C

> <Shape>
0.289

> <Color>
0.165

> <Negative vol penalty>
0.000

$$$$

  -OEChem-04042323593D

 89 98  0     1  0  0  0  0  0999 V2000
  -17.6091  -26.0198   22.8083 C   0  0  0  0  0  0  0  0  0  0  0  0
  -18.8483  -25.6909   22.2684 C   0  0  0  0  0  0  0  0  0  0  0  0
  -22.3968  -20.2718   20.0569 C   0  0  0  0  0  0  0  0  0  0  0  0
  -20.8526  -18.6928   21.0363 C   0  0  0  0  0  0  0  0  0  0  0  0
  -17.2170  -27.3554   22.8880 C   0  0  0  0  0  0  0  0  0  0  0  0
  -19.6958  -26.6975   21.8069 C   0  0  0  0  0  0  0  0  0  0  0  0
  -25.8141  -26.7659   22.0681 C   0  0  0  0  0  0  0  0  0  0  0  0
  -21.3556  -20.8305   19.3159 C   0  0  0  0  0  0  0  0  0  0  0  0
  -19.8113  -19.2515   20.2953 C   0  0  0  0  0  0  0  0  0  0  0  0
  -26.7966  -26.4592   21.1277 C   0  0  0  0  0  0  0  0  0  0  0  0
  -17.8236  -21.9796   20.4601 C   0  0  0  0  0  0  0  0  0  0  0  0
  -16.6211  -22.2295   21.1212 C   0  0  0  0  0  0  0  0  0  0  0  0
  -26.9759  -28.7972   20.5614 C   0  0  0  0  0  0  0  0  0  0  0  0
  -31.3481  -19.9827   17.4170 C   0  0  0  0  0  0  0  0  0  0  0  0
  -15.4747  -20.7466   19.5968 C   0  0  0  0  0  0  0  0  0  0  0  0
  -29.6856  -20.4009   19.0656 C   0  0  0  0  0  0  0  0  0  0  0  0
  -22.1454  -19.2028   20.9171 C   0  0  0  0  0  0  0  0  0  0  0  0
  -23.6482  -19.0044   22.9689 C   0  0  0  0  0  0  0  0  0  0  0  0
  -18.0641  -28.3795   22.4360 C   0  0  0  0  0  0  0  0  0  0  0  0
  -25.3967  -28.0915   22.2548 C   0  0  0  0  0  0  0  0  0  0  0  0
  -19.3142  -28.0479   21.8793 C   0  0  0  0  0  0  0  0  0  0  0  0
  -25.9898  -29.1184   21.5066 C   0  0  0  0  0  0  0  0  0  0  0  0
  -30.5534  -20.8934   18.1043 C   0  0  0  0  0  0  0  0  0  0  0  0
  -31.2520  -18.6264   17.7080 C   0  0  0  0  0  0  0  0  0  0  0  0
  -20.0628  -20.3204   19.4351 C   0  0  0  0  0  0  0  0  0  0  0  0
  -27.3756  -27.4745   20.3721 C   0  0  0  0  0  0  0  0  0  0  0  0
  -17.8517  -21.1133   19.3672 C   0  0  0  0  0  0  0  0  0  0  0  0
  -15.4467  -21.6130   20.6896 C   0  0  0  0  0  0  0  0  0  0  0  0
  -16.6773  -20.4968   18.9356 C   0  0  0  0  0  0  0  0  0  0  0  0
  -23.2207  -18.6248   21.6824 C   0  0  0  0  0  0  0  0  0  0  0  0
  -30.3531  -18.2354   18.6872 C   0  0  0  0  0  0  0  0  0  0  0  0
  -24.6916  -18.1560   23.2482 C   0  0  0  0  0  0  0  0  0  0  0  0
  -30.2879  -24.5321   17.8652 C   0  0  0  0  0  0  0  0  0  0  0  0
  -31.2971  -24.2893   16.8651 C   0  0  0  0  0  0  0  0  0  0  0  0
  -29.8645  -23.2435   18.4808 C   0  0  0  0  0  0  0  0  0  0  0  0
  -31.9303  -25.1778   16.0918 C   0  0  0  0  0  0  0  0  0  0  0  0
  -29.7464  -25.6905   18.2575 C   0  0  0  0  0  0  0  0  0  0  0  0
  -23.1469  -20.0320   23.8340 C   0  0  0  0  0  0  0  0  0  0  0  0
  -30.1883  -16.8068   19.0597 C   0  0  0  0  0  0  0  0  0  0  0  0
  -22.6454  -29.6463   21.9125 C   0  0  0  0  0  0  0  0  0  0  0  0
  -24.3161  -32.0979   23.2243 C   0  0  0  0  0  0  0  0  0  0  0  0
  -27.3493  -33.5400   23.8301 C   0  0  0  0  0  0  0  0  0  0  0  0
  -28.5418  -15.1446   19.8659 C   0  0  0  0  0  0  0  0  0  0  0  0
  -17.5771  -29.8055   22.4994 C   0  0  0  0  0  0  0  0  0  0  0  0
  -24.3548  -28.4091   23.2922 C   0  0  0  0  0  0  0  0  0  0  0  0
  -25.5914  -30.5601   21.6833 C   0  0  0  0  0  0  0  0  0  0  0  0
  -31.5338  -22.8097   16.8301 C   0  0  0  0  0  0  0  0  0  0  0  0
  -18.6897  -30.8372   22.3322 C   0  0  0  0  0  0  0  0  0  0  0  0
  -26.3186  -13.7610   22.2408 C   0  0  0  0  0  0  0  0  0  0  0  0
  -19.5894  -30.4664   21.1575 C   0  0  0  0  0  0  0  0  0  0  0  0
  -25.3172  -14.8901   22.4988 C   0  0  0  0  0  0  0  0  0  0  0  0
  -26.7417  -13.7020   20.7737 C   0  0  0  0  0  0  0  0  0  0  0  0
  -26.2324  -16.0911   20.4729 C   0  0  0  0  0  0  0  0  0  0  0  0
  -20.2717  -29.1131   21.3908 C   0  0  1  0  0  0  0  0  0  0  0  0
  -23.6399  -29.7321   23.0356 C   0  0  1  0  0  0  0  0  0  0  0  0
  -25.8292  -16.2367   21.9492 C   0  0  1  0  0  0  0  0  0  0  0  0
  -28.3932  -35.5599   24.8921 C   0  0  0  0  0  0  0  0  0  0  0  0
  -23.4683  -33.7909   20.8316 C   0  0  0  0  0  0  0  0  0  0  0  0
  -25.2640  -35.4257   21.4406 C   0  0  0  0  0  0  0  0  0  0  0  0
  -23.3938  -34.9805   23.0302 C   0  0  0  0  0  0  0  0  0  0  0  0
  -28.8513  -31.8867   25.7716 C   0  0  0  0  0  0  0  0  0  0  0  0
  -28.6990  -25.8051   19.3149 C   0  0  0  0  0  0  0  0  0  1  0  0
  -25.1727  -33.2176   22.6843 C   0  0  1  0  0  0  0  0  0  0  0  0
  -27.9548  -34.1181   25.0965 C   0  0  2  0  0  0  0  0  0  0  0  0
  -24.3311  -34.3264   21.9917 C   0  0  0  0  0  0  0  0  0  0  0  0
  -29.5645  -19.0907   19.3759 N   0  0  0  0  0  0  0  0  0  0  0  0
  -23.9343  -17.6141   21.1792 N   0  0  0  0  0  0  0  0  0  0  0  0
  -24.8208  -17.3514   22.1545 N   0  0  0  0  0  0  0  0  0  0  0  0
  -30.6287  -22.2564   17.8355 N   0  0  0  0  0  0  0  0  0  0  0  0
  -24.5639  -30.8191   22.7055 N   0  0  0  0  0  0  0  0  0  0  0  0
  -27.2225  -15.0127   20.3333 N   0  0  0  0  0  0  0  0  0  0  0  0
  -32.0514  -17.6977   17.0174 N   0  0  0  0  0  0  0  0  0  0  0  0
  -25.5020  -18.0272   24.3201 N   0  0  0  0  0  0  0  0  0  0  0  0
  -22.0699  -20.8117   23.3911 N   0  0  0  0  0  0  0  0  0  0  0  0
  -28.9183  -16.4443   19.5094 N   0  0  0  0  0  0  0  0  0  0  0  0
  -21.3802  -29.2578   22.3099 N   0  0  0  0  0  0  0  0  0  0  0  0
  -25.9790  -33.6912   23.8042 N   0  0  0  0  0  0  0  0  0  0  0  0
  -29.1425  -33.3204   25.5136 N   0  3  0  0  0  0  0  0  0  0  0  0
  -29.0279  -23.1091   19.3580 O   0  0  0  0  0  0  0  0  0  0  0  0
  -23.6501  -20.2629   24.9596 O   0  0  0  0  0  0  0  0  0  0  0  0
  -31.1359  -16.0387   18.9185 O   0  0  0  0  0  0  0  0  0  0  0  0
  -22.9993  -29.9141   20.7703 O   0  0  0  0  0  0  0  0  0  0  0  0
  -23.4636  -32.3474   24.0802 O   0  0  0  0  0  0  0  0  0  0  0  0
  -28.0247  -33.0109   22.9502 O   0  0  0  0  0  0  0  0  0  0  0  0
  -29.3288  -14.1947   19.8071 O   0  0  0  0  0  0  0  0  0  0  0  0
  -19.0464  -20.8656   18.7123 O   0  0  0  0  0  0  0  0  0  0  0  0
  -28.3343  -27.1778   19.4530 O   0  0  0  0  0  0  0  0  0  1  0  0
  -14.2923  -21.8519   21.3256 F   0  0  0  0  0  0  0  0  0  0  0  0
  -16.6982  -19.6626   17.8870 F   0  0  0  0  0  0  0  0  0  0  0  0
  1  2  1  0  0  0  0
  1  5  2  0  0  0  0
  2  6  2  0  0  0  0
  3  8  2  0  0  0  0
  3 17  1  0  0  0  0
  4  9  1  0  0  0  0
  4 17  2  0  0  0  0
  5 19  1  0  0  0  0
  6 21  1  0  0  0  0
  7 10  2  0  0  0  0
  7 20  1  0  0  0  0
  8 25  1  0  0  0  0
  9 25  2  0  0  0  0
 10 26  1  0  0  0  0
 11 12  2  0  0  0  0
 11 27  1  0  0  0  0
 12 28  1  0  0  0  0
 13 22  1  0  0  0  0
 13 26  2  0  0  0  0
 14 23  2  0  0  0  0
 14 24  1  0  0  0  0
 15 28  2  0  0  0  0
 15 29  1  0  0  0  0
 16 23  1  0  0  0  0
 16 66  2  0  0  0  0
 17 30  1  0  0  0  0
 18 30  1  0  0  0  0
 18 32  2  0  0  0  0
 18 38  1  0  0  0  0
 19 21  2  0  0  0  0
 19 44  1  0  0  0  0
 20 22  2  0  0  0  0
 20 45  1  0  0  0  0
 21 54  1  0  0  0  0
 22 46  1  0  0  0  0
 23 69  1  0  0  0  0
 24 31  2  0  0  0  0
 24 72  1  0  0  0  0
 25 86  1  0  0  0  0
 26 87  1  0  0  0  0
 27 29  2  0  0  0  0
 27 86  1  0  0  0  0
 28 88  1  0  0  0  0
 29 89  1  0  0  0  0
 30 67  2  0  0  0  0
 31 39  1  0  0  0  0
 31 66  1  0  0  0  0
 32 68  1  0  0  0  0
 32 73  1  0  0  0  0
 33 34  1  0  0  0  0
 33 35  1  0  0  0  0
 33 37  2  0  0  0  0
 34 36  2  0  0  0  0
 34 47  1  0  0  0  0
 35 69  1  0  0  0  0
 35 79  2  0  0  0  0
 37 62  1  0  0  0  0
 38 74  1  0  0  0  0
 38 80  2  0  0  0  0
 39 75  1  0  0  0  0
 39 81  2  0  0  0  0
 40 55  1  0  0  0  0
 40 76  1  0  0  0  0
 40 82  2  0  0  0  0
 41 63  1  0  0  0  0
 41 70  1  0  0  0  0
 41 83  2  0  0  0  0
 42 64  1  0  0  0  0
 42 77  1  0  0  0  0
 42 84  2  0  0  0  0
 43 71  1  0  0  0  0
 43 75  1  0  0  0  0
 43 85  2  0  0  0  0
 44 48  1  0  0  0  0
 45 55  1  0  0  0  0
 46 70  1  0  0  0  0
 47 69  1  0  0  0  0
 48 50  1  0  0  0  0
 49 51  1  0  0  0  0
 49 52  1  0  0  0  0
 50 54  1  0  0  0  0
 51 56  1  0  0  0  0
 52 71  1  0  0  0  0
 53 56  1  0  0  0  0
 53 71  1  0  0  0  0
 54 76  1  0  0  0  0
 55 70  1  0  0  0  0
 56 68  1  0  0  0  0
 57 64  1  0  0  0  0
 58 65  1  0  0  0  0
 59 65  1  0  0  0  0
 60 65  1  0  0  0  0
 61 78  1  0  0  0  0
 62 87  1  0  0  0  0
 63 65  1  0  0  0  0
 63 77  1  0  0  0  0
 64 78  1  0  0  0  0
 67 68  1  0  0  0  0
M  CHG  1  78   1
M  ISO  4  43 100  62 101  75 100  87 101
M  END
> <Batch ID>
0079

> <Smiles>
C=C1CN(c2cnc(C(=O)[100NH:0][100C:0](=O)N3CCCC(n4nc(-c5ccc(Oc6ccc(F)cc6F)cc5)c(C(N)=O)c4N)C3)c(N)c2)C(=O)C1=C[101CH2:1][101O:1]c1ccc2c(c1)CN(C(=O)C(NC(=O)C(C)NC)C(C)(C)C)C(C(=O)NC1CCCc3ccccc31)C2

> <Shape>
0.234

> <Color>
0.086

> <Negative vol penalty>
0.000

$$$$

  -OEChem-04042323593D

 90 99  0     1  0  0  0  0  0999 V2000
  -23.7156  -29.3684   20.3682 C   0  0  0  0  0  0  0  0  0  0  0  0
  -24.4634  -28.3652   20.9763 C   0  0  0  0  0  0  0  0  0  0  0  0
  -23.1427   -9.7909   20.1112 C   0  0  0  0  0  0  0  0  0  0  0  0
  -23.7873  -10.0674   22.4231 C   0  0  0  0  0  0  0  0  0  0  0  0
  -24.0216  -30.7072   20.6084 C   0  0  0  0  0  0  0  0  0  0  0  0
  -25.5185  -28.7003   21.8241 C   0  0  0  0  0  0  0  0  0  0  0  0
  -27.3091  -25.6825   26.8434 C   0  0  0  0  0  0  0  0  0  0  0  0
  -32.4251  -17.9425   23.1929 C   0  0  0  0  0  0  0  0  0  0  0  0
  -31.8829  -16.9565   22.3687 C   0  0  0  0  0  0  0  0  0  0  0  0
  -22.4057   -8.6568   20.4523 C   0  0  0  0  0  0  0  0  0  0  0  0
  -23.0502   -8.9334   22.7643 C   0  0  0  0  0  0  0  0  0  0  0  0
  -28.3291  -24.7592   27.0688 C   0  0  0  0  0  0  0  0  0  0  0  0
  -19.8092   -8.1385   23.2972 C   0  0  0  0  0  0  0  0  0  0  0  0
  -18.9956   -8.2122   24.4278 C   0  0  0  0  0  0  0  0  0  0  0  0
  -29.7588  -26.5384   27.8495 C   0  0  0  0  0  0  0  0  0  0  0  0
  -30.2119  -18.8242   23.5945 C   0  0  0  0  0  0  0  0  0  0  0  0
  -20.2294   -6.3948   25.4340 C   0  0  0  0  0  0  0  0  0  0  0  0
  -23.8336  -10.4962   21.0966 C   0  0  0  0  0  0  0  0  0  0  0  0
  -24.1409  -12.9993   20.7124 C   0  0  0  0  0  0  0  0  0  0  0  0
  -25.0749  -31.0590   21.4673 C   0  0  0  0  0  0  0  0  0  0  0  0
  -27.5103  -27.0445   27.1095 C   0  0  0  0  0  0  0  0  0  0  0  0
  -25.8398  -30.0451   22.0750 C   0  0  0  0  0  0  0  0  0  0  0  0
  -28.7389  -27.4766   27.6290 C   0  0  0  0  0  0  0  0  0  0  0  0
  -31.5896  -18.8763   23.8059 C   0  0  0  0  0  0  0  0  0  0  0  0
  -30.5051  -16.9044   22.1573 C   0  0  0  0  0  0  0  0  0  0  0  0
  -22.3594   -8.2281   21.7788 C   0  0  0  0  0  0  0  0  0  0  0  0
  -29.5552  -25.1875   27.5693 C   0  0  0  0  0  0  0  0  0  0  0  0
  -20.8328   -7.1930   23.2349 C   0  0  0  0  0  0  0  0  0  0  0  0
  -29.6696  -17.8382   22.7702 C   0  0  0  0  0  0  0  0  0  0  0  0
  -19.2057   -7.3403   25.4962 C   0  0  0  0  0  0  0  0  0  0  0  0
  -21.0429   -6.3212   24.3033 C   0  0  0  0  0  0  0  0  0  0  0  0
  -24.5956  -11.6674   20.7447 C   0  0  0  0  0  0  0  0  0  0  0  0
  -25.2377  -13.7271   20.3204 C   0  0  0  0  0  0  0  0  0  0  0  0
  -32.3861  -21.6595   26.0391 C   0  0  0  0  0  0  0  0  0  0  0  0
  -33.7103  -21.1403   25.8054 C   0  0  0  0  0  0  0  0  0  0  0  0
  -31.3847  -20.8477   25.2927 C   0  0  0  0  0  0  0  0  0  0  0  0
  -34.8741  -21.5849   26.2914 C   0  0  0  0  0  0  0  0  0  0  0  0
  -32.0048  -22.6993   26.7891 C   0  0  0  0  0  0  0  0  0  0  0  0
  -22.8431  -13.5311   21.0101 C   0  0  0  0  0  0  0  0  0  0  0  0
  -27.4969  -29.6979   25.3593 C   0  0  0  0  0  0  0  0  0  0  0  0
  -27.8259  -31.1390   28.2467 C   0  0  0  0  0  0  0  0  0  0  0  0
  -28.8305  -30.9121   31.5003 C   0  0  0  0  0  0  0  0  0  0  0  0
  -27.6274  -17.0165   23.5062 C   0  0  0  0  0  0  0  0  0  0  0  0
  -30.6712  -14.9017   20.6381 C   0  0  0  0  0  0  0  0  0  0  0  0
  -25.3981  -32.5196   21.6592 C   0  0  0  0  0  0  0  0  0  0  0  0
  -26.3909  -28.0241   26.8861 C   0  0  0  0  0  0  0  0  0  0  0  0
  -28.9987  -28.9250   27.9504 C   0  0  0  0  0  0  0  0  0  0  0  0
  -33.5655  -19.9653   24.8862 C   0  0  0  0  0  0  0  0  0  0  0  0
  -26.2937  -32.7919   22.8650 C   0  0  0  0  0  0  0  0  0  0  0  0
  -29.7145  -12.2178   18.5031 C   0  0  0  0  0  0  0  0  0  0  0  0
  -27.4659  -31.8161   22.8906 C   0  0  0  0  0  0  0  0  0  0  0  0
  -28.2600  -11.9449   18.8933 C   0  0  0  0  0  0  0  0  0  0  0  0
  -30.5649  -12.5974   19.7140 C   0  0  0  0  0  0  0  0  0  0  0  0
  -28.5803  -13.4293   20.9134 C   0  0  0  0  0  0  0  0  0  0  0  0
  -26.9762  -30.3688   23.0206 C   0  0  1  0  0  0  0  0  0  0  0  0
  -26.8788  -29.4585   26.7077 C   0  0  1  0  0  0  0  0  0  0  0  0
  -27.6702  -13.1063   19.7171 C   0  0  2  0  0  0  0  0  0  0  0  0
  -26.1576  -17.0460   23.2082 C   0  0  0  0  0  0  0  0  0  0  0  0
  -29.0095  -32.2659   33.6057 C   0  0  0  0  0  0  0  0  0  0  0  0
  -30.2626  -32.5809   27.1094 C   0  0  0  0  0  0  0  0  0  0  0  0
  -30.9342  -33.1480   29.4537 C   0  0  0  0  0  0  0  0  0  0  0  0
  -28.7792  -34.0038   28.5340 C   0  0  0  0  0  0  0  0  0  0  0  0
  -27.0130  -29.0914   32.9634 C   0  0  0  0  0  0  0  0  0  0  0  0
  -30.5864  -23.1365   26.9481 C   0  0  0  0  0  0  0  0  0  1  0  0
  -28.9945  -31.5512   29.1089 C   0  0  1  0  0  0  0  0  0  0  0  0
  -28.1468  -31.3107   32.7958 C   0  0  2  0  0  0  0  0  0  0  0  0
  -29.7387  -32.7939   28.5437 C   0  0  0  0  0  0  0  0  0  0  0  0
  -25.8810  -11.5528   20.4006 N   0  0  0  0  0  0  0  0  0  0  0  0
  -26.2435  -12.8221   20.1481 N   0  0  0  0  0  0  0  0  0  0  0  0
  -32.1309  -19.8601   24.6274 N   0  0  0  0  0  0  0  0  0  0  0  0
  -27.8751  -29.8452   27.7088 N   0  0  0  0  0  0  0  0  0  0  0  0
  -29.9467  -13.7067   20.4434 N   0  0  0  0  0  0  0  0  0  0  0  0
  -25.4304  -15.0465   20.1096 N   0  0  0  0  0  0  0  0  0  0  0  0
  -21.8302  -12.6434   21.3979 N   0  0  0  0  0  0  0  0  0  0  0  0
  -29.9693  -15.8975   21.3165 N   0  0  0  0  0  0  0  0  0  0  0  0
  -26.5942  -30.0853   24.3874 N   0  0  0  0  0  0  0  0  0  0  0  0
  -28.4639  -31.7339   30.4555 N   0  0  0  0  0  0  0  0  0  0  0  0
  -27.8713  -30.1056   33.6281 N   0  3  0  0  0  0  0  0  0  0  0  0
  -30.1787  -21.0294   25.2830 O   0  0  0  0  0  0  0  0  0  0  0  0
  -22.5848  -14.7552   20.9186 O   0  0  0  0  0  0  0  0  0  0  0  0
  -28.7037  -29.5441   25.2119 O   0  0  0  0  0  0  0  0  0  0  0  0
  -26.8999  -31.9331   28.0633 O   0  0  0  0  0  0  0  0  0  0  0  0
  -29.6144  -29.9686   31.4238 O   0  0  0  0  0  0  0  0  0  0  0  0
  -28.1300  -16.3885   24.4287 O   0  0  0  0  0  0  0  0  0  0  0  0
  -31.8193  -15.0417   20.2090 O   0  0  0  0  0  0  0  0  0  0  0  0
  -21.6402   -7.1217   22.1121 O   0  0  0  0  0  0  0  0  0  0  0  0
  -28.3208  -17.8061   22.5756 O   0  0  0  0  0  0  0  0  0  0  0  0
  -30.5527  -24.2885   27.7896 O   0  0  0  0  0  0  0  0  0  1  0  0
  -18.4254   -7.4122   26.5825 F   0  0  0  0  0  0  0  0  0  0  0  0
  -22.0255   -5.4115   24.2497 F   0  0  0  0  0  0  0  0  0  0  0  0
  1  2  1  0  0  0  0
  1  5  2  0  0  0  0
  2  6  2  0  0  0  0
  3 10  2  0  0  0  0
  3 18  1  0  0  0  0
  4 11  1  0  0  0  0
  4 18  2  0  0  0  0
  5 20  1  0  0  0  0
  6 22  1  0  0  0  0
  7 12  2  0  0  0  0
  7 21  1  0  0  0  0
  8  9  2  0  0  0  0
  8 24  1  0  0  0  0
  9 25  1  0  0  0  0
 10 26  1  0  0  0  0
 11 26  2  0  0  0  0
 12 27  1  0  0  0  0
 13 14  2  0  0  0  0
 13 28  1  0  0  0  0
 14 30  1  0  0  0  0
 15 23  1  0  0  0  0
 15 27  2  0  0  0  0
 16 24  2  0  0  0  0
 16 29  1  0  0  0  0
 17 30  2  0  0  0  0
 17 31  1  0  0  0  0
 18 32  1  0  0  0  0
 19 32  1  0  0  0  0
 19 33  2  0  0  0  0
 19 39  1  0  0  0  0
 20 22  2  0  0  0  0
 20 45  1  0  0  0  0
 21 23  2  0  0  0  0
 21 46  1  0  0  0  0
 22 55  1  0  0  0  0
 23 47  1  0  0  0  0
 24 70  1  0  0  0  0
 25 29  2  0  0  0  0
 25 75  1  0  0  0  0
 26 86  1  0  0  0  0
 27 88  1  0  0  0  0
 28 31  2  0  0  0  0
 28 86  1  0  0  0  0
 29 87  1  0  0  0  0
 30 89  1  0  0  0  0
 31 90  1  0  0  0  0
 32 68  2  0  0  0  0
 33 69  1  0  0  0  0
 33 73  1  0  0  0  0
 34 35  1  0  0  0  0
 34 36  1  0  0  0  0
 34 38  2  0  0  0  0
 35 37  2  0  0  0  0
 35 48  1  0  0  0  0
 36 70  1  0  0  0  0
 36 79  2  0  0  0  0
 38 64  1  0  0  0  0
 39 74  1  0  0  0  0
 39 80  2  0  0  0  0
 40 56  1  0  0  0  0
 40 76  1  0  0  0  0
 40 81  2  0  0  0  0
 41 65  1  0  0  0  0
 41 71  1  0  0  0  0
 41 82  2  0  0  0  0
 42 66  1  0  0  0  0
 42 77  1  0  0  0  0
 42 83  2  0  0  0  0
 43 58  1  0  0  0  0
 43 84  2  0  0  0  0
 43 87  1  0  0  0  0
 44 72  1  0  0  0  0
 44 75  1  0  0  0  0
 44 85  2  0  0  0  0
 45 49  1  0  0  0  0
 46 56  1  0  0  0  0
 47 71  1  0  0  0  0
 48 70  1  0  0  0  0
 49 51  1  0  0  0  0
 50 52  1  0  0  0  0
 50 53  1  0  0  0  0
 51 55  1  0  0  0  0
 52 57  1  0  0  0  0
 53 72  1  0  0  0  0
 54 57  1  0  0  0  0
 54 72  1  0  0  0  0
 55 76  1  0  0  0  0
 56 71  1  0  0  0  0
 57 69  1  0  0  0  0
 59 66  1  0  0  0  0
 60 67  1  0  0  0  0
 61 67  1  0  0  0  0
 62 67  1  0  0  0  0
 63 78  1  0  0  0  0
 64 88  1  0  0  0  0
 65 67  1  0  0  0  0
 65 77  1  0  0  0  0
 66 78  1  0  0  0  0
 68 69  1  0  0  0  0
M  CHG  1  78   1
M  ISO  4  44 100  64 101  75 100  88 101
M  END
> <Batch ID>
0079

> <Smiles>
C=C1CN(c2ccc([100NH:0][100C:0](=O)N3CCCC(n4nc(-c5ccc(Oc6ccc(F)cc6F)cc5)c(C(N)=O)c4N)C3)c(OC(C)=O)c2)C(=O)C1=C[101CH2:1][101O:1]c1ccc2c(c1)CN(C(=O)C(NC(=O)C(C)NC)C(C)(C)C)C(C(=O)NC1CCCc3ccccc31)C2

> <Shape>
0.240

> <Color>
0.197

> <Negative vol penalty>
0.000

$$$$

  -OEChem-04042323593D

 88 97  0     1  0  0  0  0  0999 V2000
  -27.8413  -36.5089   23.1174 C   0  0  0  0  0  0  0  0  0  0  0  0
  -28.1758  -35.1695   22.9458 C   0  0  0  0  0  0  0  0  0  0  0  0
  -23.0775   -9.7193   21.5575 C   0  0  0  0  0  0  0  0  0  0  0  0
  -23.1573  -12.1339   21.5418 C   0  0  0  0  0  0  0  0  0  0  0  0
  -26.5773  -36.8552   23.5930 C   0  0  0  0  0  0  0  0  0  0  0  0
  -27.2466  -34.1754   23.2507 C   0  0  0  0  0  0  0  0  0  0  0  0
  -27.0167  -30.5751   19.6968 C   0  0  0  0  0  0  0  0  0  0  0  0
  -30.3240  -18.9619   19.7863 C   0  0  0  0  0  0  0  0  0  0  0  0
  -30.3160  -17.5672   19.7996 C   0  0  0  0  0  0  0  0  0  0  0  0
  -21.9992   -9.7606   22.4413 C   0  0  0  0  0  0  0  0  0  0  0  0
  -22.0789  -12.1753   22.4256 C   0  0  0  0  0  0  0  0  0  0  0  0
  -28.0298  -29.6173   19.6943 C   0  0  0  0  0  0  0  0  0  0  0  0
  -21.5082  -10.2452   25.7501 C   0  0  0  0  0  0  0  0  0  0  0  0
  -21.5327   -9.3781   26.8424 C   0  0  0  0  0  0  0  0  0  0  0  0
  -26.5643  -28.0730   20.8286 C   0  0  0  0  0  0  0  0  0  0  0  0
  -28.1850  -18.9635   18.6629 C   0  0  0  0  0  0  0  0  0  0  0  0
  -19.4809   -8.3569   26.0778 C   0  0  0  0  0  0  0  0  0  0  0  0
  -23.6567  -10.9059   21.1079 C   0  0  0  0  0  0  0  0  0  0  0  0
  -24.7950  -10.2935   18.9086 C   0  0  0  0  0  0  0  0  0  0  0  0
  -25.6288  -35.8652   23.8948 C   0  0  0  0  0  0  0  0  0  0  0  0
  -25.7713  -30.2923   20.2760 C   0  0  0  0  0  0  0  0  0  0  0  0
  -25.9692  -34.5087   23.7320 C   0  0  0  0  0  0  0  0  0  0  0  0
  -25.5363  -29.0281   20.8349 C   0  0  0  0  0  0  0  0  0  0  0  0
  -29.2584  -19.6601   19.2180 C   0  0  0  0  0  0  0  0  0  0  0  0
  -29.2426  -16.8706   19.2445 C   0  0  0  0  0  0  0  0  0  0  0  0
  -21.4998  -10.9886   22.8753 C   0  0  0  0  0  0  0  0  0  0  0  0
  -27.8047  -28.3671   20.2628 C   0  0  0  0  0  0  0  0  0  0  0  0
  -20.4699  -10.1683   24.8217 C   0  0  0  0  0  0  0  0  0  0  0  0
  -20.5191   -8.4339   27.0062 C   0  0  0  0  0  0  0  0  0  0  0  0
  -28.1771  -17.5687   18.6762 C   0  0  0  0  0  0  0  0  0  0  0  0
  -19.4564   -9.2241   24.9855 C   0  0  0  0  0  0  0  0  0  0  0  0
  -24.7710  -10.8638   20.1954 C   0  0  0  0  0  0  0  0  0  0  0  0
  -26.0740  -10.5140   18.4591 C   0  0  0  0  0  0  0  0  0  0  0  0
  -29.3544  -23.9556   19.2756 C   0  0  0  0  0  0  0  0  0  0  0  0
  -30.3569  -23.1690   18.5859 C   0  0  0  0  0  0  0  0  0  0  0  0
  -28.1674  -23.2155   19.7996 C   0  0  0  0  0  0  0  0  0  0  0  0
  -31.0459  -23.6046   17.5190 C   0  0  0  0  0  0  0  0  0  0  0  0
  -29.4372  -25.2742   19.5078 C   0  0  0  0  0  0  0  0  0  0  0  0
  -23.7541   -9.6244   18.1843 C   0  0  0  0  0  0  0  0  0  0  0  0
  -24.0960  -31.4979   22.6933 C   0  0  0  0  0  0  0  0  0  0  0  0
  -21.8180  -29.4504   21.6252 C   0  0  0  0  0  0  0  0  0  0  0  0
  -21.6904  -26.0585   20.4022 C   0  0  0  0  0  0  0  0  0  0  0  0
  -30.2171  -14.6109   19.7837 C   0  0  0  0  0  0  0  0  0  0  0  0
  -24.2917  -36.2864   24.4510 C   0  0  0  0  0  0  0  0  0  0  0  0
  -24.6800  -31.3271   20.2468 C   0  0  0  0  0  0  0  0  0  0  0  0
  -24.2101  -28.6676   21.4513 C   0  0  0  0  0  0  0  0  0  0  0  0
  -30.5405  -21.7837   19.1481 C   0  0  0  0  0  0  0  0  0  0  0  0
  -27.9960  -21.7759   19.3636 C   0  0  0  0  0  0  0  0  0  0  0  0
  -23.2350  -35.1862   24.3954 C   0  0  0  0  0  0  0  0  0  0  0  0
  -30.5567  -11.0765   20.0474 C   0  0  0  0  0  0  0  0  0  0  0  0
  -23.8098  -33.8677   24.9033 C   0  0  0  0  0  0  0  0  0  0  0  0
  -29.1141  -10.5685   19.9921 C   0  0  0  0  0  0  0  0  0  0  0  0
  -30.6651  -12.3940   20.8131 C   0  0  0  0  0  0  0  0  0  0  0  0
  -28.3215  -12.9492   20.2945 C   0  0  0  0  0  0  0  0  0  0  0  0
  -24.9799  -33.4025   24.0283 C   0  0  1  0  0  0  0  0  0  0  0  0
  -23.6204  -31.1085   21.3223 C   0  0  1  0  0  0  0  0  0  0  0  0
  -28.1525  -11.6577   19.4777 C   0  0  2  0  0  0  0  0  0  0  0  0
  -20.0677  -24.9457   18.8446 C   0  0  0  0  0  0  0  0  0  0  0  0
  -20.3846  -28.6097   24.1842 C   0  0  0  0  0  0  0  0  0  0  0  0
  -19.9021  -26.4023   23.1059 C   0  0  0  0  0  0  0  0  0  0  0  0
  -18.9806  -28.4991   22.1176 C   0  0  0  0  0  0  0  0  0  0  0  0
  -23.8556  -25.1884   18.5818 C   0  0  0  0  0  0  0  0  0  0  0  0
  -28.3893  -26.0622   20.2215 C   0  0  0  0  0  0  0  0  0  1  0  0
  -21.4532  -28.0136   21.9107 C   0  0  1  0  0  0  0  0  0  0  0  0
  -21.4263  -25.6167   18.9741 C   0  0  2  0  0  0  0  0  0  0  0  0
  -20.2069  -27.8905   22.8321 C   0  0  0  0  0  0  0  0  0  0  0  0
  -25.9419  -11.4057   20.5411 N   0  0  0  0  0  0  0  0  0  0  0  0
  -26.7135  -11.1768   19.4649 N   0  0  0  0  0  0  0  0  0  0  0  0
  -29.2663  -21.0611   19.2053 N   0  0  3  0  0  0  0  0  0  0  0  0
  -23.1769  -29.7153   21.4039 N   0  0  0  0  0  0  0  0  0  0  0  0
  -29.7284  -13.3790   20.2677 N   0  0  0  0  0  0  0  0  0  0  0  0
  -26.7027  -10.2035   17.3055 N   0  0  0  0  0  0  0  0  0  0  0  0
  -22.9138  -10.3886   17.3632 N   0  0  0  0  0  0  0  0  0  0  0  0
  -29.2377  -15.4537   19.2592 N   0  0  0  0  0  0  0  0  0  0  0  0
  -24.4901  -32.8182   22.7982 N   0  0  0  0  0  0  0  0  0  0  0  0
  -21.3030  -27.3650   20.6126 N   0  0  0  0  0  0  0  0  0  0  0  0
  -22.4713  -24.6520   18.5287 N   0  3  0  0  0  0  0  0  0  0  0  0
  -27.3188  -23.7618   20.5031 O   0  0  0  0  0  0  0  0  0  0  0  0
  -23.5643   -8.3878   18.2756 O   0  0  0  0  0  0  0  0  0  0  0  0
  -24.1034  -30.6628   23.5901 O   0  0  0  0  0  0  0  0  0  0  0  0
  -20.9290  -30.3050   21.5925 O   0  0  0  0  0  0  0  0  0  0  0  0
  -22.1870  -25.3174   21.2476 O   0  0  0  0  0  0  0  0  0  0  0  0
  -31.4195  -14.8860   19.8061 O   0  0  0  0  0  0  0  0  0  0  0  0
  -20.4474  -11.0293   23.7374 O   0  0  0  0  0  0  0  0  0  0  0  0
  -28.7920  -27.4306   20.2623 O   0  0  0  0  0  0  0  0  0  1  0  0
  -20.5436   -7.6002   28.0543 F   0  0  0  0  0  0  0  0  0  0  0  0
  -27.1404  -16.9093   18.1395 F   0  0  0  0  0  0  0  0  0  0  0  0
  -18.4570   -9.1446   24.0963 F   0  0  0  0  0  0  0  0  0  0  0  0
  1  2  1  0  0  0  0
  1  5  2  0  0  0  0
  2  6  2  0  0  0  0
  3 10  2  0  0  0  0
  3 18  1  0  0  0  0
  4 11  1  0  0  0  0
  4 18  2  0  0  0  0
  5 20  1  0  0  0  0
  6 22  1  0  0  0  0
  7 12  2  0  0  0  0
  7 21  1  0  0  0  0
  8  9  2  0  0  0  0
  8 24  1  0  0  0  0
  9 25  1  0  0  0  0
 10 26  1  0  0  0  0
 11 26  2  0  0  0  0
 12 27  1  0  0  0  0
 13 14  2  0  0  0  0
 13 28  1  0  0  0  0
 14 29  1  0  0  0  0
 15 23  1  0  0  0  0
 15 27  2  0  0  0  0
 16 24  2  0  0  0  0
 16 30  1  0  0  0  0
 17 29  2  0  0  0  0
 17 31  1  0  0  0  0
 18 32  1  0  0  0  0
 19 32  1  0  0  0  0
 19 33  2  0  0  0  0
 19 39  1  0  0  0  0
 20 22  2  0  0  0  0
 20 44  1  0  0  0  0
 21 23  2  0  0  0  0
 21 45  1  0  0  0  0
 22 55  1  0  0  0  0
 23 46  1  0  0  0  0
 24 69  1  0  0  0  0
 25 30  2  0  0  0  0
 25 74  1  0  0  0  0
 26 84  1  0  0  0  0
 27 85  1  0  0  0  0
 28 31  2  0  0  0  0
 28 84  1  0  0  0  0
 29 86  1  0  0  0  0
 30 87  1  0  0  0  0
 31 88  1  0  0  0  0
 32 67  2  0  0  0  0
 33 68  1  0  0  0  0
 33 72  1  0  0  0  0
 34 35  1  0  0  0  0
 34 36  1  0  0  0  0
 34 38  2  0  0  0  0
 35 37  2  0  0  0  0
 35 47  1  0  0  0  0
 36 48  1  0  0  0  0
 36 78  2  0  0  0  0
 38 63  1  0  0  0  0
 39 73  1  0  0  0  0
 39 79  2  0  0  0  0
 40 56  1  0  0  0  0
 40 75  1  0  0  0  0
 40 80  2  0  0  0  0
 41 64  1  0  0  0  0
 41 70  1  0  0  0  0
 41 81  2  0  0  0  0
 42 65  1  0  0  0  0
 42 76  1  0  0  0  0
 42 82  2  0  0  0  0
 43 71  1  0  0  0  0
 43 74  1  0  0  0  0
 43 83  2  0  0  0  0
 44 49  1  0  0  0  0
 45 56  1  0  0  0  0
 46 70  1  0  0  0  0
 47 69  1  0  0  0  0
 48 69  1  0  0  0  0
 49 51  1  0  0  0  0
 50 52  1  0  0  0  0
 50 53  1  0  0  0  0
 51 55  1  0  0  0  0
 52 57  1  0  0  0  0
 53 71  1  0  0  0  0
 54 57  1  0  0  0  0
 54 71  1  0  0  0  0
 55 75  1  0  0  0  0
 56 70  1  0  0  0  0
 57 68  1  0  0  0  0
 58 65  1  0  0  0  0
 59 66  1  0  0  0  0
 60 66  1  0  0  0  0
 61 66  1  0  0  0  0
 62 77  1  0  0  0  0
 63 85  1  0  0  0  0
 64 66  1  0  0  0  0
 64 76  1  0  0  0  0
 65 77  1  0  0  0  0
 67 68  1  0  0  0  0
M  CHG  1  77   1
M  ISO  4  43 100  63 101  74 100  85 101
M  END
> <Batch ID>
0079

> <Smiles>
C=C1CN(c2ccc([100NH:0][100C:0](=O)N3CCCC(n4nc(-c5ccc(Oc6ccc(F)cc6F)cc5)c(C(N)=O)c4N)C3)c(F)c2)CC(=O)C1=C[101CH2:1][101O:1]c1ccc2c(c1)CN(C(=O)C(NC(=O)C(C)NC)C(C)(C)C)C(C(=O)NC1CCCc3ccccc31)C2

> <Shape>
0.324

> <Color>
0.073

> <Negative vol penalty>
0.000

$$$$

  -OEChem-04042323593D

 88 97  0     1  0  0  0  0  0999 V2000
  -27.2272  -24.0018   30.5306 C   0  0  0  0  0  0  0  0  0  0  0  0
  -27.8219  -24.1848   29.2863 C   0  0  0  0  0  0  0  0  0  0  0  0
  -27.1586  -12.4874   21.4100 C   0  0  0  0  0  0  0  0  0  0  0  0
  -26.8688  -13.4463   19.2115 C   0  0  0  0  0  0  0  0  0  0  0  0
  -25.8390  -23.9217   30.6335 C   0  0  0  0  0  0  0  0  0  0  0  0
  -27.0287  -24.2866   28.1440 C   0  0  0  0  0  0  0  0  0  0  0  0
  -28.1105  -27.7459   23.2075 C   0  0  0  0  0  0  0  0  0  0  0  0
  -31.8757  -23.8468   19.1410 C   0  0  0  0  0  0  0  0  0  0  0  0
  -31.4234  -22.8575   20.0142 C   0  0  0  0  0  0  0  0  0  0  0  0
  -26.4136  -11.3737   21.0225 C   0  0  0  0  0  0  0  0  0  0  0  0
  -26.1238  -12.3326   18.8239 C   0  0  0  0  0  0  0  0  0  0  0  0
  -28.6615  -27.4545   21.9604 C   0  0  0  0  0  0  0  0  0  0  0  0
  -23.1543  -10.5771   20.6139 C   0  0  0  0  0  0  0  0  0  0  0  0
  -22.1815  -10.1097   21.4975 C   0  0  0  0  0  0  0  0  0  0  0  0
  -26.4440  -27.1738   21.0530 C   0  0  0  0  0  0  0  0  0  0  0  0
  -29.1379  -23.4421   19.4926 C   0  0  0  0  0  0  0  0  0  0  0  0
  -23.3081   -7.9753   21.6086 C   0  0  0  0  0  0  0  0  0  0  0  0
  -27.3861  -13.5238   20.5045 C   0  0  0  0  0  0  0  0  0  0  0  0
  -29.5482  -14.8461   20.7953 C   0  0  0  0  0  0  0  0  0  0  0  0
  -25.0280  -24.0323   29.4930 C   0  0  0  0  0  0  0  0  0  0  0  0
  -26.7201  -27.7427   23.3896 C   0  0  0  0  0  0  0  0  0  0  0  0
  -25.6285  -24.2065   28.2315 C   0  0  0  0  0  0  0  0  0  0  0  0
  -25.8778  -27.4679   22.3028 C   0  0  0  0  0  0  0  0  0  0  0  0
  -29.5902  -24.4314   18.6195 C   0  0  0  0  0  0  0  0  0  0  0  0
  -30.9590  -24.6338   18.4437 C   0  0  0  0  0  0  0  0  0  0  0  0
  -30.0546  -22.6551   20.1900 C   0  0  0  0  0  0  0  0  0  0  0  0
  -25.8962  -11.2963   19.7294 C   0  0  0  0  0  0  0  0  0  0  0  0
  -27.8283  -27.1656   20.8836 C   0  0  0  0  0  0  0  0  0  0  0  0
  -24.2040   -9.7437   20.2276 C   0  0  0  0  0  0  0  0  0  0  0  0
  -22.2584   -8.8088   21.9949 C   0  0  0  0  0  0  0  0  0  0  0  0
  -24.2809   -8.4428   20.7250 C   0  0  0  0  0  0  0  0  0  0  0  0
  -28.1552  -14.6748   20.9044 C   0  0  0  0  0  0  0  0  0  0  0  0
  -29.7815  -16.0981   21.3097 C   0  0  0  0  0  0  0  0  0  0  0  0
  -32.1631  -26.6850   15.6689 C   0  0  0  0  0  0  0  0  0  0  0  0
  -32.1585  -27.6455   16.7564 C   0  0  0  0  0  0  0  0  0  0  0  0
  -32.5185  -26.8933   14.3950 C   0  0  0  0  0  0  0  0  0  0  0  0
  -32.5099  -28.9366   16.7088 C   0  0  0  0  0  0  0  0  0  0  0  0
  -30.1634  -20.3114   23.0062 C   0  0  0  0  0  0  0  0  0  0  0  0
  -30.4588  -20.8222   21.8088 C   0  0  0  0  0  0  0  0  0  0  0  0
  -30.5424  -13.9534   20.2754 C   0  0  0  0  0  0  0  0  0  0  0  0
  -24.6960  -26.0674   25.1785 C   0  0  0  0  0  0  0  0  0  0  0  0
  -22.5253  -28.1721   24.0036 C   0  0  0  0  0  0  0  0  0  0  0  0
  -21.6503  -30.3537   21.5294 C   0  0  0  0  0  0  0  0  0  0  0  0
  -28.1972  -21.5500   21.3840 C   0  0  0  0  0  0  0  0  0  0  0  0
  -23.5343  -23.8922   29.6481 C   0  0  0  0  0  0  0  0  0  0  0  0
  -26.1407  -28.0853   24.7348 C   0  0  0  0  0  0  0  0  0  0  0  0
  -24.3781  -27.4714   22.4410 C   0  0  0  0  0  0  0  0  0  0  0  0
  -31.6903  -25.3567   16.1859 C   0  0  0  0  0  0  0  0  0  0  0  0
  -31.6824  -26.9664   18.0084 C   0  0  0  0  0  0  0  0  0  0  0  0
  -22.7473  -24.3848   28.4364 C   0  0  0  0  0  0  0  0  0  0  0  0
  -26.7688  -19.2345   23.8748 C   0  0  0  0  0  0  0  0  0  0  0  0
  -23.3610  -23.8482   27.1471 C   0  0  0  0  0  0  0  0  0  0  0  0
  -27.0652  -17.8613   23.2744 C   0  0  0  0  0  0  0  0  0  0  0  0
  -26.5924  -20.2993   22.7963 C   0  0  0  0  0  0  0  0  0  0  0  0
  -28.0320  -19.0153   21.2454 C   0  0  0  0  0  0  0  0  0  0  0  0
  -24.8008  -24.3463   26.9724 C   0  0  1  0  0  0  0  0  0  0  0  0
  -24.7259  -27.5489   24.9301 C   0  0  1  0  0  0  0  0  0  0  0  0
  -28.2608  -17.9302   22.3085 C   0  0  2  0  0  0  0  0  0  0  0  0
  -19.7996  -31.8960   20.8266 C   0  0  0  0  0  0  0  0  0  0  0  0
  -20.8666  -25.7714   23.1118 C   0  0  0  0  0  0  0  0  0  0  0  0
  -19.5669  -27.3100   21.6247 C   0  0  0  0  0  0  0  0  0  0  0  0
  -19.5393  -27.6487   24.0960 C   0  0  0  0  0  0  0  0  0  0  0  0
  -23.4252  -32.7197   21.6349 C   0  0  0  0  0  0  0  0  0  0  0  0
  -28.5766  -25.2694   17.8788 C   0  0  0  0  0  0  0  0  0  0  0  0
  -27.6251  -25.9969   18.8223 C   0  0  0  0  0  0  0  0  0  1  0  0
  -21.6283  -28.2173   22.7902 C   0  0  1  0  0  0  0  0  0  0  0  0
  -21.1144  -31.7731   21.5811 C   0  0  2  0  0  0  0  0  0  0  0  0
  -20.4285  -27.2348   22.9032 C   0  0  0  0  0  0  0  0  0  0  0  0
  -27.5463  -15.7332   21.4458 N   0  0  0  0  0  0  0  0  0  0  0  0
  -28.5616  -16.5816   21.6815 N   0  0  0  0  0  0  0  0  0  0  0  0
  -31.4349  -25.6313   17.5645 N   0  0  0  0  0  0  0  0  0  0  0  0
  -23.8598  -27.8062   23.7778 N   0  0  0  0  0  0  0  0  0  0  0  0
  -27.7237  -20.3127   21.8680 N   0  0  0  0  0  0  0  0  0  0  0  0
  -30.9091  -16.8216   21.4758 N   0  0  0  0  0  0  0  0  0  0  0  0
  -30.1304  -12.7062   19.7865 N   0  0  0  0  0  0  0  0  0  0  0  0
  -24.8085  -25.7179   26.5107 N   0  0  0  0  0  0  0  0  0  0  0  0
  -21.2428  -29.6139   22.6193 N   0  0  0  0  0  0  0  0  0  0  0  0
  -29.5851  -21.6273   21.0963 N   0  0  0  0  0  0  0  0  0  0  0  0
  -22.0939  -32.7190   20.9755 N   0  3  0  0  0  0  0  0  0  0  0  0
  -31.7621  -14.2463   20.2603 O   0  0  0  0  0  0  0  0  0  0  0  0
  -24.5780  -25.2983   24.2318 O   0  0  0  0  0  0  0  0  0  0  0  0
  -22.0607  -28.4580   25.1100 O   0  0  0  0  0  0  0  0  0  0  0  0
  -22.3565  -29.9413   20.6119 O   0  0  0  0  0  0  0  0  0  0  0  0
  -27.4462  -22.5237   21.2421 O   0  0  0  0  0  0  0  0  0  0  0  0
  -25.1694  -10.2095   19.3509 O   0  0  0  0  0  0  0  0  0  0  0  0
  -28.3636  -26.8802   19.6654 O   0  0  0  0  0  0  0  0  0  1  0  0
  -21.3251   -8.3605   22.8446 F   0  0  0  0  0  0  0  0  0  0  0  0
  -25.2876   -7.6378   20.3584 F   0  0  0  0  0  0  0  0  0  0  0  0
  1  2  1  0  0  0  0
  1  5  2  0  0  0  0
  2  6  2  0  0  0  0
  3 10  2  0  0  0  0
  3 18  1  0  0  0  0
  4 11  1  0  0  0  0
  4 18  2  0  0  0  0
  5 20  1  0  0  0  0
  6 22  1  0  0  0  0
  7 12  2  0  0  0  0
  7 21  1  0  0  0  0
  8  9  2  0  0  0  0
  8 25  1  0  0  0  0
  9 26  1  0  0  0  0
 10 27  1  0  0  0  0
 11 27  2  0  0  0  0
 12 28  1  0  0  0  0
 13 14  2  0  0  0  0
 13 29  1  0  0  0  0
 14 30  1  0  0  0  0
 15 23  1  0  0  0  0
 15 28  2  0  0  0  0
 16 24  1  0  0  0  0
 16 26  2  0  0  0  0
 17 30  2  0  0  0  0
 17 31  1  0  0  0  0
 18 32  1  0  0  0  0
 19 32  1  0  0  0  0
 19 33  2  0  0  0  0
 19 40  1  0  0  0  0
 20 22  2  0  0  0  0
 20 45  1  0  0  0  0
 21 23  2  0  0  0  0
 21 46  1  0  0  0  0
 22 56  1  0  0  0  0
 23 47  1  0  0  0  0
 24 25  2  0  0  0  0
 24 64  1  0  0  0  0
 25 71  1  0  0  0  0
 26 78  1  0  0  0  0
 27 85  1  0  0  0  0
 28 86  1  0  0  0  0
 29 31  2  0  0  0  0
 29 85  1  0  0  0  0
 30 87  1  0  0  0  0
 31 88  1  0  0  0  0
 32 69  2  0  0  0  0
 33 70  1  0  0  0  0
 33 74  1  0  0  0  0
 34 35  1  0  0  0  0
 34 36  2  0  0  0  0
 34 48  1  0  0  0  0
 35 37  2  0  0  0  0
 35 49  1  0  0  0  0
 38 39  2  0  0  0  0
 39 78  1  0  0  0  0
 40 75  1  0  0  0  0
 40 80  2  0  0  0  0
 41 57  1  0  0  0  0
 41 76  1  0  0  0  0
 41 81  2  0  0  0  0
 42 66  1  0  0  0  0
 42 72  1  0  0  0  0
 42 82  2  0  0  0  0
 43 67  1  0  0  0  0
 43 77  1  0  0  0  0
 43 83  2  0  0  0  0
 44 73  1  0  0  0  0
 44 78  1  0  0  0  0
 44 84  2  0  0  0  0
 45 50  1  0  0  0  0
 46 57  1  0  0  0  0
 47 72  1  0  0  0  0
 48 71  1  0  0  0  0
 49 71  1  0  0  0  0
 50 52  1  0  0  0  0
 51 53  1  0  0  0  0
 51 54  1  0  0  0  0
 52 56  1  0  0  0  0
 53 58  1  0  0  0  0
 54 73  1  0  0  0  0
 55 58  1  0  0  0  0
 55 73  1  0  0  0  0
 56 76  1  0  0  0  0
 57 72  1  0  0  0  0
 58 70  1  0  0  0  0
 59 67  1  0  0  0  0
 60 68  1  0  0  0  0
 61 68  1  0  0  0  0
 62 68  1  0  0  0  0
 63 79  1  0  0  0  0
 64 65  1  0  0  0  0
 65 86  1  0  0  0  0
 66 68  1  0  0  0  0
 66 77  1  0  0  0  0
 67 79  1  0  0  0  0
 69 70  1  0  0  0  0
M  CHG  1  79   1
M  ISO  4  44 100  65 101  78 100  86 101
M  END
> <Batch ID>
0079

> <Smiles>
C=C[100N:0](c1ccc(N2CC(=C)C(=C)C2)c(C[101CH2:1][101O:1]c2ccc3c(c2)CN(C(=O)C(NC(=O)C(C)NC)C(C)(C)C)C(C(=O)NC2CCCc4ccccc42)C3)c1)[100C:0](=O)N1CCCC(n2nc(-c3ccc(Oc4ccc(F)cc4F)cc3)c(C(N)=O)c2N)C1

> <Shape>
0.239

> <Color>
0.073

> <Negative vol penalty>
0.000

$$$$

  -OEChem-04042323593D

 84 92  0     1  0  0  0  0  0999 V2000
  -18.9719  -33.1028   24.5000 C   0  0  0  0  0  0  0  0  0  0  0  0
  -20.2895  -32.7651   24.7920 C   0  0  0  0  0  0  0  0  0  0  0  0
  -30.6250  -22.8514   17.3501 C   0  0  0  0  0  0  0  0  0  0  0  0
  -27.8529  -12.7153   22.6075 C   0  0  0  0  0  0  0  0  0  0  0  0
  -26.7922  -12.9389   20.4484 C   0  0  0  0  0  0  0  0  0  0  0  0
  -30.8101  -24.0697   18.0036 C   0  0  0  0  0  0  0  0  0  0  0  0
  -18.1403  -32.1788   23.8686 C   0  0  0  0  0  0  0  0  0  0  0  0
  -20.7760  -31.5028   24.4537 C   0  0  0  0  0  0  0  0  0  0  0  0
  -26.4545  -30.1133   22.6291 C   0  0  0  0  0  0  0  0  0  0  0  0
  -29.6569  -21.9560   17.8048 C   0  0  0  0  0  0  0  0  0  0  0  0
  -27.3240  -11.4309   22.7344 C   0  0  0  0  0  0  0  0  0  0  0  0
  -26.2633  -11.6545   20.5752 C   0  0  0  0  0  0  0  0  0  0  0  0
  -27.5580  -29.5978   23.3077 C   0  0  0  0  0  0  0  0  0  0  0  0
  -23.6891  -10.1681   22.1861 C   0  0  0  0  0  0  0  0  0  0  0  0
  -22.3481   -9.9834   21.8499 C   0  0  0  0  0  0  0  0  0  0  0  0
  -29.0591  -23.4973   19.5667 C   0  0  0  0  0  0  0  0  0  0  0  0
  -26.9715  -27.3793   22.5638 C   0  0  0  0  0  0  0  0  0  0  0  0
  -22.9931   -8.3886   20.1535 C   0  0  0  0  0  0  0  0  0  0  0  0
  -27.5870  -13.4694   21.4646 C   0  0  0  0  0  0  0  0  0  0  0  0
  -30.0272  -24.3926   19.1119 C   0  0  0  0  0  0  0  0  0  0  0  0
  -29.3688  -15.1547   20.7628 C   0  0  0  0  0  0  0  0  0  0  0  0
  -18.6196  -30.9080   23.5137 C   0  0  0  0  0  0  0  0  0  0  0  0
  -25.5936  -29.2628   21.9207 C   0  0  0  0  0  0  0  0  0  0  0  0
  -19.9496  -30.5605   23.8182 C   0  0  0  0  0  0  0  0  0  0  0  0
  -25.8592  -27.8868   21.8750 C   0  0  0  0  0  0  0  0  0  0  0  0
  -28.8740  -22.2790   18.9131 C   0  0  0  0  0  0  0  0  0  0  0  0
  -26.5292  -10.9005   21.7182 C   0  0  0  0  0  0  0  0  0  0  0  0
  -27.8150  -28.2303   23.2775 C   0  0  0  0  0  0  0  0  0  0  0  0
  -24.6822   -9.4632   21.5060 C   0  0  0  0  0  0  0  0  0  0  0  0
  -22.0001   -9.0937   20.8336 C   0  0  0  0  0  0  0  0  0  0  0  0
  -24.3342   -8.5734   20.4897 C   0  0  0  0  0  0  0  0  0  0  0  0
  -28.1327  -14.7964   21.3332 C   0  0  0  0  0  0  0  0  0  0  0  0
  -29.4174  -16.5223   20.8797 C   0  0  0  0  0  0  0  0  0  0  0  0
  -30.2254  -25.6902   19.8067 C   0  0  0  0  0  0  0  0  0  0  0  0
  -30.3825  -14.3254   20.1795 C   0  0  0  0  0  0  0  0  0  0  0  0
  -22.5151  -28.5010   22.1362 C   0  0  0  0  0  0  0  0  0  0  0  0
  -23.1270  -26.8736   19.3977 C   0  0  0  0  0  0  0  0  0  0  0  0
  -25.4191  -25.3283   17.3964 C   0  0  0  0  0  0  0  0  0  0  0  0
  -29.9638  -26.8362   21.9789 C   0  0  0  0  0  0  0  0  0  0  0  0
  -27.0295  -21.5347   20.4592 C   0  0  0  0  0  0  0  0  0  0  0  0
  -17.6695  -29.9261   22.8752 C   0  0  0  0  0  0  0  0  0  0  0  0
  -24.4227  -29.8379   21.1719 C   0  0  0  0  0  0  0  0  0  0  0  0
  -24.9771  -26.9338   21.1120 C   0  0  0  0  0  0  0  0  0  0  0  0
  -18.3706  -28.7430   22.2126 C   0  0  0  0  0  0  0  0  0  0  0  0
  -26.4603  -19.7144   23.4658 C   0  0  0  0  0  0  0  0  0  0  0  0
  -19.4382  -28.1685   23.1383 C   0  0  0  0  0  0  0  0  0  0  0  0
  -26.9463  -18.3021   23.1321 C   0  0  0  0  0  0  0  0  0  0  0  0
  -25.7805  -20.3777   22.2693 C   0  0  0  0  0  0  0  0  0  0  0  0
  -27.0574  -18.9740   20.6983 C   0  0  0  0  0  0  0  0  0  0  0  0
  -20.5212  -29.2100   23.4447 C   0  0  1  0  0  0  0  0  0  0  0  0
  -23.3217  -28.8153   20.9081 C   0  0  1  0  0  0  0  0  0  0  0  0
  -27.8066  -18.2897   21.8533 C   0  0  2  0  0  0  0  0  0  0  0  0
  -25.6136  -24.0575   15.2412 C   0  0  0  0  0  0  0  0  0  0  0  0
  -30.6571  -26.1556   24.2935 C   0  0  0  0  0  0  0  0  0  0  0  0
  -21.9543  -24.4033   20.7513 C   0  0  0  0  0  0  0  0  0  0  0  0
  -23.0224  -23.0057   18.9697 C   0  0  0  0  0  0  0  0  0  0  0  0
  -21.2917  -24.6947   18.3575 C   0  0  0  0  0  0  0  0  0  0  0  0
  -27.2281  -27.3583   16.2280 C   0  0  0  0  0  0  0  0  0  0  0  0
  -23.5897  -25.4755   19.0655 C   0  0  1  0  0  0  0  0  0  0  0  0
  -25.6808  -25.4245   15.9041 C   0  0  2  0  0  0  0  0  0  0  0  0
  -29.4927  -26.5491   23.3983 C   0  0  1  0  0  0  0  0  0  1  0  0
  -22.4802  -24.4122   19.3021 C   0  0  0  0  0  0  0  0  0  0  0  0
  -27.4456  -15.8513   21.7794 N   0  0  0  0  0  0  0  0  0  0  0  0
  -28.2529  -16.8859   21.4895 N   0  0  0  0  0  0  0  0  0  0  0  0
  -23.8411  -27.5435   20.4013 N   0  0  0  0  0  0  0  0  0  0  0  0
  -26.6559  -20.3324   21.0961 N   0  0  0  0  0  0  0  0  0  0  0  0
  -30.3422  -17.4374   20.5194 N   0  0  0  0  0  0  0  0  0  0  0  0
  -30.1719  -12.9403   20.1403 N   0  0  0  0  0  0  0  0  0  0  0  0
  -27.8904  -21.3694   19.3748 N   0  0  0  0  0  0  0  0  0  0  0  0
  -29.8805  -25.7108   21.1570 N   0  0  0  0  0  0  0  0  0  0  0  0
  -21.4313  -29.3368   22.3267 N   0  0  0  0  0  0  0  0  0  0  0  0
  -24.0874  -25.5251   17.6951 N   0  0  0  0  0  0  0  0  0  0  0  0
  -27.0305  -26.0036   15.6513 N   0  3  0  0  0  0  0  0  0  0  0  0
  -30.6446  -26.6521   19.1687 O   0  0  0  0  0  0  0  0  0  0  0  0
  -31.4510  -14.7970   19.7217 O   0  0  0  0  0  0  0  0  0  0  0  0
  -22.8504  -27.5683   22.8568 O   0  0  0  0  0  0  0  0  0  0  0  0
  -22.1719  -27.3562   18.7842 O   0  0  0  0  0  0  0  0  0  0  0  0
  -26.3065  -25.0976   18.2148 O   0  0  0  0  0  0  0  0  0  0  0  0
  -30.3489  -27.9480   21.6244 O   0  0  0  0  0  0  0  0  0  0  0  0
  -26.6379  -22.6324   20.8640 O   0  0  0  0  0  0  0  0  0  0  0  0
  -26.0131   -9.6471   21.8415 O   0  0  0  0  0  0  0  0  0  0  0  0
  -28.8910  -27.7244   23.9394 O   0  0  0  0  0  0  0  0  0  1  0  0
  -20.7121   -8.9152   20.5119 F   0  0  0  0  0  0  0  0  0  0  0  0
  -25.2837   -7.8924   19.8336 F   0  0  0  0  0  0  0  0  0  0  0  0
  1  2  1  0  0  0  0
  1  7  2  0  0  0  0
  2  8  2  0  0  0  0
  3  6  2  0  0  0  0
  3 10  1  0  0  0  0
  4 11  2  0  0  0  0
  4 19  1  0  0  0  0
  5 12  1  0  0  0  0
  5 19  2  0  0  0  0
  6 20  1  0  0  0  0
  7 22  1  0  0  0  0
  8 24  1  0  0  0  0
  9 13  2  0  0  0  0
  9 23  1  0  0  0  0
 10 26  2  0  0  0  0
 11 27  1  0  0  0  0
 12 27  2  0  0  0  0
 13 28  1  0  0  0  0
 14 15  2  0  0  0  0
 14 29  1  0  0  0  0
 15 30  1  0  0  0  0
 16 20  2  0  0  0  0
 16 26  1  0  0  0  0
 17 25  1  0  0  0  0
 17 28  2  0  0  0  0
 18 30  2  0  0  0  0
 18 31  1  0  0  0  0
 19 32  1  0  0  0  0
 20 34  1  0  0  0  0
 21 32  1  0  0  0  0
 21 33  2  0  0  0  0
 21 35  1  0  0  0  0
 22 24  2  0  0  0  0
 22 41  1  0  0  0  0
 23 25  2  0  0  0  0
 23 42  1  0  0  0  0
 24 50  1  0  0  0  0
 25 43  1  0  0  0  0
 26 69  1  0  0  0  0
 27 81  1  0  0  0  0
 28 82  1  0  0  0  0
 29 31  2  0  0  0  0
 29 81  1  0  0  0  0
 30 83  1  0  0  0  0
 31 84  1  0  0  0  0
 32 63  2  0  0  0  0
 33 64  1  0  0  0  0
 33 67  1  0  0  0  0
 34 70  1  0  0  0  0
 34 74  2  0  0  0  0
 35 68  1  0  0  0  0
 35 75  2  0  0  0  0
 36 51  1  0  0  0  0
 36 71  1  0  0  0  0
 36 76  2  0  0  0  0
 37 59  1  0  0  0  0
 37 65  1  0  0  0  0
 37 77  2  0  0  0  0
 38 60  1  0  0  0  0
 38 72  1  0  0  0  0
 38 78  2  0  0  0  0
 39 61  1  0  0  0  0
 39 70  1  0  0  0  0
 39 79  2  0  0  0  0
 40 66  1  0  0  0  0
 40 69  1  0  0  0  0
 40 80  2  0  0  0  0
 41 44  1  0  0  0  0
 42 51  1  0  0  0  0
 43 65  1  0  0  0  0
 44 46  1  0  0  0  0
 45 47  1  0  0  0  0
 45 48  1  0  0  0  0
 46 50  1  0  0  0  0
 47 52  1  0  0  0  0
 48 66  1  0  0  0  0
 49 52  1  0  0  0  0
 49 66  1  0  0  0  0
 50 71  1  0  0  0  0
 51 65  1  0  0  0  0
 52 64  1  0  0  0  0
 53 60  1  0  0  0  0
 54 61  1  0  0  0  0
 55 62  1  0  0  0  0
 56 62  1  0  0  0  0
 57 62  1  0  0  0  0
 58 73  1  0  0  0  0
 59 62  1  0  0  0  0
 59 72  1  0  0  0  0
 60 73  1  0  0  0  0
 61 82  1  0  0  0  0
 63 64  1  0  0  0  0
M  CHG  1  73   1
M  ISO  4  40 100  61 101  69 100  82 101
M  END
> <Batch ID>
0079

> <Smiles>
CNC(C)C(=O)NC(C(=O)N1Cc2cc([101O:1][101CH:1](C)C(=O)NC(=O)c3cccc([100NH:0][100C:0](=O)N4CCCC(n5nc(-c6ccc(Oc7ccc(F)cc7F)cc6)c(C(N)=O)c5N)C4)c3)ccc2CC1C(=O)NC1CCCc2ccccc21)C(C)(C)C

> <Shape>
0.251

> <Color>
0.076

> <Negative vol penalty>
0.000

$$$$

  -OEChem-04042323593D

 86 95  0     1  0  0  0  0  0999 V2000
  -28.5986  -35.7742   18.1468 C   0  0  0  0  0  0  0  0  0  0  0  0
  -28.8235  -34.4510   18.5127 C   0  0  0  0  0  0  0  0  0  0  0  0
  -26.1143  -11.8062   21.1143 C   0  0  0  0  0  0  0  0  0  0  0  0
  -25.6611  -13.7476   19.7495 C   0  0  0  0  0  0  0  0  0  0  0  0
  -27.7341  -36.5673   18.9001 C   0  0  0  0  0  0  0  0  0  0  0  0
  -28.1847  -33.9203   19.6329 C   0  0  0  0  0  0  0  0  0  0  0  0
  -26.2707  -29.3109   18.7762 C   0  0  0  0  0  0  0  0  0  0  0  0
  -32.1899  -21.6942   21.0384 C   0  0  0  0  0  0  0  0  0  0  0  0
  -32.3363  -20.3157   21.1933 C   0  0  0  0  0  0  0  0  0  0  0  0
  -24.7635  -11.7292   21.4533 C   0  0  0  0  0  0  0  0  0  0  0  0
  -24.3102  -13.6706   20.0885 C   0  0  0  0  0  0  0  0  0  0  0  0
  -27.1624  -28.2392   18.7860 C   0  0  0  0  0  0  0  0  0  0  0  0
  -22.3492  -14.5021   22.7141 C   0  0  0  0  0  0  0  0  0  0  0  0
  -21.7015  -15.6855   23.0686 C   0  0  0  0  0  0  0  0  0  0  0  0
  -26.4799  -27.6997   21.0359 C   0  0  0  0  0  0  0  0  0  0  0  0
  -30.9046  -19.9489   19.2820 C   0  0  0  0  0  0  0  0  0  0  0  0
  -20.1543  -15.3873   21.2371 C   0  0  0  0  0  0  0  0  0  0  0  0
  -26.5631  -12.8155   20.2624 C   0  0  0  0  0  0  0  0  0  0  0  0
  -28.5980  -12.2782   18.8209 C   0  0  0  0  0  0  0  0  0  0  0  0
  -27.0769  -36.0433   20.0245 C   0  0  0  0  0  0  0  0  0  0  0  0
  -25.4834  -29.5920   19.9020 C   0  0  0  0  0  0  0  0  0  0  0  0
  -27.3116  -34.7075   20.4027 C   0  0  0  0  0  0  0  0  0  0  0  0
  -25.5771  -28.7739   21.0369 C   0  0  0  0  0  0  0  0  0  0  0  0
  -31.4008  -22.2000   20.0054 C   0  0  0  0  0  0  0  0  0  0  0  0
  -31.6937  -19.4431   20.3151 C   0  0  0  0  0  0  0  0  0  0  0  0
  -30.7582  -21.3274   19.1272 C   0  0  0  0  0  0  0  0  0  0  0  0
  -23.8614  -12.6613   20.9404 C   0  0  0  0  0  0  0  0  0  0  0  0
  -27.2693  -27.4352   19.9170 C   0  0  0  0  0  0  0  0  0  0  0  0
  -21.8995  -13.7614   21.6210 C   0  0  0  0  0  0  0  0  0  0  0  0
  -20.6041  -16.1281   22.3301 C   0  0  0  0  0  0  0  0  0  0  0  0
  -20.8021  -14.2040   20.8825 C   0  0  0  0  0  0  0  0  0  0  0  0
  -27.9585  -12.8959   19.9123 C   0  0  0  0  0  0  0  0  0  0  0  0
  -29.9120  -12.6629   18.9303 C   0  0  0  0  0  0  0  0  0  0  0  0
  -30.4067  -25.7085   19.7407 C   0  0  0  0  0  0  0  0  0  0  0  0
  -31.8310  -25.8386   19.5617 C   0  0  0  0  0  0  0  0  0  0  0  0
  -30.0496  -24.2759   19.9375 C   0  0  0  0  0  0  0  0  0  0  0  0
  -32.5442  -26.9515   19.3589 C   0  0  0  0  0  0  0  0  0  0  0  0
  -29.4675  -26.6545   19.7470 C   0  0  0  0  0  0  0  0  0  1  0  0
  -28.0531  -11.4324   17.7995 C   0  0  0  0  0  0  0  0  0  0  0  0
  -25.2159  -32.0547   21.8939 C   0  0  0  0  0  0  0  0  0  0  0  0
  -22.7399  -30.3262   23.0788 C   0  0  0  0  0  0  0  0  0  0  0  0
  -21.2725  -27.2726   23.4894 C   0  0  0  0  0  0  0  0  0  0  0  0
  -32.5898  -17.3766   21.4433 C   0  0  0  0  0  0  0  0  0  0  0  0
  -26.1880  -36.9528   20.8352 C   0  0  0  0  0  0  0  0  0  0  0  0
  -24.5069  -30.7355   19.8658 C   0  0  0  0  0  0  0  0  0  0  0  0
  -24.7395  -29.0212   22.2641 C   0  0  0  0  0  0  0  0  0  0  0  0
  -32.4118  -24.4592   19.6436 C   0  0  0  0  0  0  0  0  0  0  0  0
  -25.2607  -36.2055   21.7901 C   0  0  0  0  0  0  0  0  0  0  0  0
  -33.1798  -13.9451   22.1878 C   0  0  0  0  0  0  0  0  0  0  0  0
  -26.0321  -35.1337   22.5538 C   0  0  0  0  0  0  0  0  0  0  0  0
  -31.9690  -13.2298   21.5841 C   0  0  0  0  0  0  0  0  0  0  0  0
  -32.7986  -15.2973   22.7879 C   0  0  0  0  0  0  0  0  0  0  0  0
  -30.8601  -15.4801   21.2786 C   0  0  0  0  0  0  0  0  0  0  0  0
  -26.6181  -34.0885   21.5969 C   0  0  1  0  0  0  0  0  0  0  0  0
  -24.1268  -31.2409   21.2542 C   0  0  1  0  0  0  0  0  0  0  0  0
  -31.2060  -14.1426   20.6042 C   0  0  2  0  0  0  0  0  0  0  0  0
  -19.2738  -26.1719   24.5340 C   0  0  0  0  0  0  0  0  0  0  0  0
  -24.0346  -30.5910   25.8291 C   0  0  0  0  0  0  0  0  0  0  0  0
  -22.5621  -28.7290   26.6245 C   0  0  0  0  0  0  0  0  0  0  0  0
  -21.5483  -30.8601   25.8162 C   0  0  0  0  0  0  0  0  0  0  0  0
  -20.2992  -26.2922   20.8720 C   0  0  0  0  0  0  0  0  0  0  0  0
  -22.5875  -29.2706   24.1472 C   0  0  1  0  0  0  0  0  0  0  0  0
  -19.8447  -26.8040   23.2741 C   0  0  2  0  0  0  0  0  0  0  0  0
  -22.7005  -29.8589   25.5820 C   0  0  0  0  0  0  0  0  0  0  0  0
  -28.7971  -13.6181   20.6601 N   0  0  0  0  0  0  0  0  0  0  0  0
  -29.9771  -13.4565   20.0376 N   0  0  0  0  0  0  0  0  0  0  0  0
  -31.2679  -23.5784   19.8714 N   0  0  0  0  0  0  0  0  0  0  0  0
  -23.8041  -30.1551   22.1821 N   0  0  0  0  0  0  0  0  0  0  0  0
  -32.0831  -16.1093   21.8013 N   0  0  0  0  0  0  0  0  0  0  0  0
  -29.9530  -21.8182   18.0746 N   0  0  0  0  0  0  0  0  0  0  0  0
  -31.0065  -12.3963   18.1864 N   0  0  0  0  0  0  0  0  0  0  0  0
  -26.6834  -11.1376   17.8364 N   0  0  0  0  0  0  0  0  0  0  0  0
  -31.8431  -18.0428   20.4722 N   0  0  0  0  0  0  0  0  0  0  0  0
  -25.5898  -33.1668   21.1639 N   0  0  0  0  0  0  0  0  0  0  0  0
  -21.3232  -28.5951   23.8762 N   0  0  0  0  0  0  0  0  0  0  0  0
  -19.7898  -25.7972   22.1768 N   0  3  0  0  0  0  0  0  0  0  0  0
  -28.9265  -23.8352   20.1159 O   0  0  0  0  0  0  0  0  0  0  0  0
  -28.7630  -10.9388   16.8906 O   0  0  0  0  0  0  0  0  0  0  0  0
  -25.6815  -31.7007   22.9707 O   0  0  0  0  0  0  0  0  0  0  0  0
  -21.9398  -31.2642   23.0370 O   0  0  0  0  0  0  0  0  0  0  0  0
  -22.2453  -26.5377   23.3337 O   0  0  0  0  0  0  0  0  0  0  0  0
  -33.6260  -17.8252   21.9404 O   0  0  0  0  0  0  0  0  0  0  0  0
  -22.5432  -12.5863   21.2708 O   0  0  0  0  0  0  0  0  0  0  0  0
  -28.1394  -26.3889   19.9295 O   0  0  0  0  0  0  0  0  0  1  0  0
  -19.9812  -17.2637   22.6716 F   0  0  0  0  0  0  0  0  0  0  0  0
  -20.3648  -13.4960   19.8322 F   0  0  0  0  0  0  0  0  0  0  0  0
  1  2  1  0  0  0  0
  1  5  2  0  0  0  0
  2  6  2  0  0  0  0
  3 10  2  0  0  0  0
  3 18  1  0  0  0  0
  4 11  1  0  0  0  0
  4 18  2  0  0  0  0
  5 20  1  0  0  0  0
  6 22  1  0  0  0  0
  7 12  2  0  0  0  0
  7 21  1  0  0  0  0
  8  9  2  0  0  0  0
  8 24  1  0  0  0  0
  9 25  1  0  0  0  0
 10 27  1  0  0  0  0
 11 27  2  0  0  0  0
 12 28  1  0  0  0  0
 13 14  2  0  0  0  0
 13 29  1  0  0  0  0
 14 30  1  0  0  0  0
 15 23  1  0  0  0  0
 15 28  2  0  0  0  0
 16 25  2  0  0  0  0
 16 26  1  0  0  0  0
 17 30  2  0  0  0  0
 17 31  1  0  0  0  0
 18 32  1  0  0  0  0
 19 32  1  0  0  0  0
 19 33  2  0  0  0  0
 19 39  1  0  0  0  0
 20 22  2  0  0  0  0
 20 44  1  0  0  0  0
 21 23  2  0  0  0  0
 21 45  1  0  0  0  0
 22 54  1  0  0  0  0
 23 46  1  0  0  0  0
 24 26  2  0  0  0  0
 24 67  1  0  0  0  0
 25 73  1  0  0  0  0
 26 70  1  0  0  0  0
 27 83  1  0  0  0  0
 28 84  1  0  0  0  0
 29 31  2  0  0  0  0
 29 83  1  0  0  0  0
 30 85  1  0  0  0  0
 31 86  1  0  0  0  0
 32 65  2  0  0  0  0
 33 66  1  0  0  0  0
 33 71  1  0  0  0  0
 34 35  1  0  0  0  0
 34 36  1  0  0  0  0
 34 38  2  0  0  0  0
 35 37  2  0  0  0  0
 35 47  1  0  0  0  0
 36 67  1  0  0  0  0
 36 77  2  0  0  0  0
 38 84  1  0  0  0  0
 39 72  1  0  0  0  0
 39 78  2  0  0  0  0
 40 55  1  0  0  0  0
 40 74  1  0  0  0  0
 40 79  2  0  0  0  0
 41 62  1  0  0  0  0
 41 68  1  0  0  0  0
 41 80  2  0  0  0  0
 42 63  1  0  0  0  0
 42 75  1  0  0  0  0
 42 81  2  0  0  0  0
 43 69  1  0  0  0  0
 43 73  1  0  0  0  0
 43 82  2  0  0  0  0
 44 48  1  0  0  0  0
 45 55  1  0  0  0  0
 46 68  1  0  0  0  0
 47 67  1  0  0  0  0
 48 50  1  0  0  0  0
 49 51  1  0  0  0  0
 49 52  1  0  0  0  0
 50 54  1  0  0  0  0
 51 56  1  0  0  0  0
 52 69  1  0  0  0  0
 53 56  1  0  0  0  0
 53 69  1  0  0  0  0
 54 74  1  0  0  0  0
 55 68  1  0  0  0  0
 56 66  1  0  0  0  0
 57 63  1  0  0  0  0
 58 64  1  0  0  0  0
 59 64  1  0  0  0  0
 60 64  1  0  0  0  0
 61 76  1  0  0  0  0
 62 64  1  0  0  0  0
 62 75  1  0  0  0  0
 63 76  1  0  0  0  0
 65 66  1  0  0  0  0
M  CHG  1  76   1
M  ISO  4  38 101  43 100  73 100  84 101
M  END
> <Batch ID>
0079

> <Smiles>
C=C1CN(c2ccc([100NH:0][100C:0](=O)N3CCCC(n4nc(-c5ccc(Oc6ccc(F)cc6F)cc5)c(C(N)=O)c4N)C3)cc2N)C(=O)C1=[101CH:1][101O:1]c1ccc2c(c1)CN(C(=O)C(NC(=O)C(C)NC)C(C)(C)C)C(C(=O)NC1CCCc3ccccc31)C2

> <Shape>
0.282

> <Color>
0.090

> <Negative vol penalty>
0.000

$$$$

  -OEChem-04042323593D

 85 93  0     1  0  0  0  0  0999 V2000
  -24.7823  -35.5440   21.8256 C   0  0  0  0  0  0  0  0  0  0  0  0
  -25.5285  -34.3699   21.8187 C   0  0  0  0  0  0  0  0  0  0  0  0
  -22.6138   -9.8156   23.5623 C   0  0  0  0  0  0  0  0  0  0  0  0
  -23.3434  -10.1119   21.2783 C   0  0  0  0  0  0  0  0  0  0  0  0
  -27.3139  -21.0312   19.7829 C   0  0  0  0  0  0  0  0  0  0  0  0
  -29.0102  -19.3730   20.2410 C   0  0  0  0  0  0  0  0  0  0  0  0
  -23.4849  -35.5411   22.3361 C   0  0  0  0  0  0  0  0  0  0  0  0
  -24.9780  -33.1923   22.3233 C   0  0  0  0  0  0  0  0  0  0  0  0
  -25.8487  -29.2020   19.3293 C   0  0  0  0  0  0  0  0  0  0  0  0
  -26.3823  -20.2747   20.4937 C   0  0  0  0  0  0  0  0  0  0  0  0
  -28.0785  -18.6164   20.9518 C   0  0  0  0  0  0  0  0  0  0  0  0
  -22.0004   -8.6134   23.2105 C   0  0  0  0  0  0  0  0  0  0  0  0
  -22.7300   -8.9096   20.9264 C   0  0  0  0  0  0  0  0  0  0  0  0
  -27.1170  -28.6260   19.3887 C   0  0  0  0  0  0  0  0  0  0  0  0
  -22.9367   -5.4182   22.6212 C   0  0  0  0  0  0  0  0  0  0  0  0
  -23.1283   -4.3222   23.4624 C   0  0  0  0  0  0  0  0  0  0  0  0
  -26.2554  -26.8915   20.8268 C   0  0  0  0  0  0  0  0  0  0  0  0
  -20.7443   -4.1882   23.8308 C   0  0  0  0  0  0  0  0  0  0  0  0
  -23.2852  -10.5650   22.5962 C   0  0  0  0  0  0  0  0  0  0  0  0
  -28.6279  -20.5804   19.6565 C   0  0  0  0  0  0  0  0  0  0  0  0
  -25.2415  -11.9886   23.4049 C   0  0  0  0  0  0  0  0  0  0  0  0
  -22.9148  -34.3607   22.8383 C   0  0  0  0  0  0  0  0  0  0  0  0
  -24.7748  -28.6321   20.0282 C   0  0  0  0  0  0  0  0  0  0  0  0
  -23.6722  -33.1738   22.8422 C   0  0  0  0  0  0  0  0  0  0  0  0
  -24.9739  -27.4606   20.7725 C   0  0  0  0  0  0  0  0  0  0  0  0
  -26.7646  -19.0673   21.0782 C   0  0  0  0  0  0  0  0  0  0  0  0
  -22.0585   -8.1603   21.8925 C   0  0  0  0  0  0  0  0  0  0  0  0
  -27.3212  -27.4723   20.1399 C   0  0  0  0  0  0  0  0  0  0  0  0
  -21.6489   -5.8993   22.3849 C   0  0  0  0  0  0  0  0  0  0  0  0
  -22.0322   -3.7072   24.0672 C   0  0  0  0  0  0  0  0  0  0  0  0
  -20.5527   -5.2843   22.9897 C   0  0  0  0  0  0  0  0  0  0  0  0
  -23.9186  -11.8073   22.9590 C   0  0  0  0  0  0  0  0  0  0  0  0
  -25.3508  -13.3416   23.6144 C   0  0  0  0  0  0  0  0  0  0  0  0
  -29.6222  -21.3877   18.8977 C   0  0  0  0  0  0  0  0  0  0  0  0
  -26.2788  -11.0206   23.6111 C   0  0  0  0  0  0  0  0  0  0  0  0
  -30.0502  -23.4619   19.7919 C   0  0  0  0  0  0  0  0  0  0  0  0
  -29.8462  -24.9472   19.6990 C   0  0  0  0  0  0  0  0  0  0  0  0
  -22.8524  -29.6025   22.3662 C   0  0  0  0  0  0  0  0  0  0  0  0
  -21.3372  -26.8001   21.7556 C   0  0  0  0  0  0  0  0  0  0  0  0
  -21.5058  -23.6262   20.5127 C   0  0  0  0  0  0  0  0  0  0  0  0
  -24.4744  -18.6040   22.0199 C   0  0  0  0  0  0  0  0  0  0  0  0
  -21.5257  -34.4171   23.4232 C   0  0  0  0  0  0  0  0  0  0  0  0
  -23.4070  -29.2504   19.9322 C   0  0  0  0  0  0  0  0  0  0  0  0
  -23.8496  -26.7983   21.5246 C   0  0  0  0  0  0  0  0  0  0  0  0
  -20.8811  -33.0441   23.5954 C   0  0  0  0  0  0  0  0  0  0  0  0
  -21.8091  -16.9567   23.7108 C   0  0  0  0  0  0  0  0  0  0  0  0
  -21.8626  -32.0706   24.2400 C   0  0  0  0  0  0  0  0  0  0  0  0
  -22.2291  -15.4850   23.7027 C   0  0  0  0  0  0  0  0  0  0  0  0
  -22.2075  -17.6674   22.4186 C   0  0  0  0  0  0  0  0  0  0  0  0
  -24.0436  -16.0683   22.0430 C   0  0  0  0  0  0  0  0  0  0  0  0
  -23.1011  -31.8708   23.3580 C   0  0  1  0  0  0  0  0  0  0  0  0
  -22.4988  -28.8760   21.0994 C   0  0  1  0  0  0  0  0  0  0  0  0
  -23.7213  -15.3269   23.3507 C   0  0  2  0  0  0  0  0  0  0  0  0
  -30.8427  -22.9608   20.9646 C   0  0  0  0  0  0  0  0  0  0  0  0
  -20.1165  -21.5620   20.1865 C   0  0  0  0  0  0  0  0  0  0  0  0
  -21.6107  -26.1498   24.7242 C   0  0  0  0  0  0  0  0  0  0  0  0
  -21.0959  -23.7615   24.1771 C   0  0  0  0  0  0  0  0  0  0  0  0
  -19.4035  -25.5364   23.7209 C   0  0  0  0  0  0  0  0  0  0  0  0
  -21.8190  -23.7397   17.5720 C   0  0  0  0  0  0  0  0  0  0  0  0
  -28.6194  -25.4939   20.3783 C   0  0  0  0  0  0  0  0  0  1  0  0
  -21.4634  -25.3839   22.2629 C   0  0  1  0  0  0  0  0  0  0  0  0
  -20.5950  -22.8654   19.5661 C   0  0  2  0  0  0  0  0  0  0  0  0
  -20.9152  -25.2212   23.7088 C   0  0  0  0  0  0  0  0  0  0  0  0
  -23.2363  -12.9534   22.8892 N   0  0  0  0  0  0  0  0  0  0  0  0
  -29.4758  -22.7523   18.8714 N   0  0  0  0  0  0  0  0  0  0  0  0
  -24.1340  -13.8679   23.2941 N   0  0  0  0  0  0  0  0  0  0  0  0
  -22.5321  -27.4443   21.4047 N   0  0  0  0  0  0  0  0  0  0  0  0
  -23.6350  -17.4776   22.1519 N   0  0  0  0  0  0  0  0  0  0  0  0
  -26.3681  -14.1206   24.0396 N   0  0  0  0  0  0  0  0  0  0  0  0
  -25.9974   -9.6732   23.3472 N   0  0  0  0  0  0  0  0  0  0  0  0
  -25.8174  -18.2996   21.8002 N   0  0  0  0  0  0  0  0  0  0  0  0
  -22.8001  -30.9792   22.2586 N   0  0  0  0  0  0  0  0  0  0  0  0
  -20.8045  -24.5362   21.2752 N   0  0  0  0  0  0  0  0  0  0  0  0
  -30.5779  -20.8496   18.2259 N   0  3  0  0  0  0  0  0  0  0  0  0
  -21.3136  -22.5473   18.2998 N   0  3  0  0  0  0  0  0  0  0  0  0
  -27.4164  -11.3389   24.0331 O   0  0  0  0  0  0  0  0  0  0  0  0
  -30.6672  -25.5967   19.0699 O   0  0  0  0  0  0  0  0  0  0  0  0
  -23.1492  -28.9616   23.3676 O   0  0  0  0  0  0  0  0  0  0  0  0
  -20.2190  -27.3133   21.6670 O   0  0  0  0  0  0  0  0  0  0  0  0
  -22.7176  -23.4300   20.5727 O   0  0  0  0  0  0  0  0  0  0  0  0
  -24.0388  -19.7536   22.1232 O   0  0  0  0  0  0  0  0  0  0  0  0
  -21.4603   -6.9870   21.5488 O   0  0  0  0  0  0  0  0  0  0  0  0
  -28.5582  -26.9085   20.2002 O   0  0  0  0  0  0  0  0  0  1  0  0
  -22.2162   -2.6537   24.8738 F   0  0  0  0  0  0  0  0  0  0  0  0
  -19.3131   -5.7412   22.7655 F   0  0  0  0  0  0  0  0  0  0  0  0
  1  2  1  0  0  0  0
  1  7  2  0  0  0  0
  2  8  2  0  0  0  0
  3 12  2  0  0  0  0
  3 19  1  0  0  0  0
  4 13  1  0  0  0  0
  4 19  2  0  0  0  0
  5 10  2  0  0  0  0
  5 20  1  0  0  0  0
  6 11  1  0  0  0  0
  6 20  2  0  0  0  0
  7 22  1  0  0  0  0
  8 24  1  0  0  0  0
  9 14  2  0  0  0  0
  9 23  1  0  0  0  0
 10 26  1  0  0  0  0
 11 26  2  0  0  0  0
 12 27  1  0  0  0  0
 13 27  2  0  0  0  0
 14 28  1  0  0  0  0
 15 16  2  0  0  0  0
 15 29  1  0  0  0  0
 16 30  1  0  0  0  0
 17 25  1  0  0  0  0
 17 28  2  0  0  0  0
 18 30  2  0  0  0  0
 18 31  1  0  0  0  0
 19 32  1  0  0  0  0
 20 34  1  0  0  0  0
 21 32  1  0  0  0  0
 21 33  2  0  0  0  0
 21 35  1  0  0  0  0
 22 24  2  0  0  0  0
 22 42  1  0  0  0  0
 23 25  2  0  0  0  0
 23 43  1  0  0  0  0
 24 51  1  0  0  0  0
 25 44  1  0  0  0  0
 26 71  1  0  0  0  0
 27 82  1  0  0  0  0
 28 83  1  0  0  0  0
 29 31  2  0  0  0  0
 29 82  1  0  0  0  0
 30 84  1  0  0  0  0
 31 85  1  0  0  0  0
 32 64  2  0  0  0  0
 33 66  1  0  0  0  0
 33 69  1  0  0  0  0
 34 65  1  0  0  0  0
 34 74  2  0  0  0  0
 35 70  1  0  0  0  0
 35 76  2  0  0  0  0
 36 37  1  0  0  0  0
 36 54  1  0  0  0  0
 36 65  2  0  0  0  0
 37 60  1  0  0  0  0
 37 77  2  0  0  0  0
 38 52  1  0  0  0  0
 38 72  1  0  0  0  0
 38 78  2  0  0  0  0
 39 61  1  0  0  0  0
 39 67  1  0  0  0  0
 39 79  2  0  0  0  0
 40 62  1  0  0  0  0
 40 73  1  0  0  0  0
 40 80  2  0  0  0  0
 41 68  1  0  0  0  0
 41 71  1  0  0  0  0
 41 81  2  0  0  0  0
 42 45  1  0  0  0  0
 43 52  1  0  0  0  0
 44 67  1  0  0  0  0
 45 47  1  0  0  0  0
 46 48  1  0  0  0  0
 46 49  1  0  0  0  0
 47 51  1  0  0  0  0
 48 53  1  0  0  0  0
 49 68  1  0  0  0  0
 50 53  1  0  0  0  0
 50 68  1  0  0  0  0
 51 72  1  0  0  0  0
 52 67  1  0  0  0  0
 53 66  1  0  0  0  0
 55 62  1  0  0  0  0
 56 63  1  0  0  0  0
 57 63  1  0  0  0  0
 58 63  1  0  0  0  0
 59 75  1  0  0  0  0
 60 83  1  0  0  0  0
 61 63  1  0  0  0  0
 61 73  1  0  0  0  0
 62 75  1  0  0  0  0
 64 66  1  0  0  0  0
M  CHG  2  74   1  75   1
M  ISO  4  41 100  60 101  71 100  83 101
M  END
> <Batch ID>
0079

> <Smiles>
C=C(NC(=N)c1ccc([100NH:0][100C:0](=O)N2CCCC(n3nc(-c4ccc(Oc5ccc(F)cc5F)cc4)c(C(N)=O)c3N)C2)cc1)C(=O)[101CH2:1][101O:1]c1ccc2c(c1)CN(C(=O)C(NC(=O)C(C)NC)C(C)(C)C)C(C(=O)NC1CCCc3ccccc31)C2

> <Shape>
0.220

> <Color>
0.120

> <Negative vol penalty>
0.000

$$$$

  -OEChem-04042323593D

 84 92  0     1  0  0  0  0  0999 V2000
  -15.3840  -24.4171   21.3109 C   0  0  0  0  0  0  0  0  0  0  0  0
  -16.7089  -23.9942   21.3468 C   0  0  0  0  0  0  0  0  0  0  0  0
  -32.6985  -17.4412   23.4456 C   0  0  0  0  0  0  0  0  0  0  0  0
  -23.0628   -9.8876   19.9431 C   0  0  0  0  0  0  0  0  0  0  0  0
  -23.8343   -9.8787   22.2326 C   0  0  0  0  0  0  0  0  0  0  0  0
  -31.9091  -18.3085   24.2006 C   0  0  0  0  0  0  0  0  0  0  0  0
  -15.0667  -25.7390   21.6204 C   0  0  0  0  0  0  0  0  0  0  0  0
  -17.7174  -24.8934   21.6913 C   0  0  0  0  0  0  0  0  0  0  0  0
  -21.0423  -22.9234   24.9638 C   0  0  0  0  0  0  0  0  0  0  0  0
  -32.1014  -16.5647   22.5396 C   0  0  0  0  0  0  0  0  0  0  0  0
  -22.3136   -8.7374   20.1911 C   0  0  0  0  0  0  0  0  0  0  0  0
  -23.0851   -8.7285   22.4806 C   0  0  0  0  0  0  0  0  0  0  0  0
  -22.0031  -22.0539   24.4495 C   0  0  0  0  0  0  0  0  0  0  0  0
  -19.8556   -7.9461   23.0956 C   0  0  0  0  0  0  0  0  0  0  0  0
  -19.1043   -7.9045   24.2701 C   0  0  0  0  0  0  0  0  0  0  0  0
  -29.9252  -17.4227   23.1438 C   0  0  0  0  0  0  0  0  0  0  0  0
  -23.6189  -23.8450   24.4562 C   0  0  0  0  0  0  0  0  0  0  0  0
  -20.3384   -5.9564   24.9905 C   0  0  0  0  0  0  0  0  0  0  0  0
  -23.8232  -10.4582   20.9639 C   0  0  0  0  0  0  0  0  0  0  0  0
  -30.5224  -18.2993   24.0498 C   0  0  0  0  0  0  0  0  0  0  0  0
  -24.1788  -12.9819   20.8548 C   0  0  0  0  0  0  0  0  0  0  0  0
  -16.0708  -26.6524   21.9782 C   0  0  0  0  0  0  0  0  0  0  0  0
  -21.3601  -24.2652   25.2184 C   0  0  0  0  0  0  0  0  0  0  0  0
  -17.4134  -26.2292   22.0046 C   0  0  0  0  0  0  0  0  0  0  0  0
  -22.6610  -24.7289   24.9762 C   0  0  0  0  0  0  0  0  0  0  0  0
  -30.7147  -16.5554   22.3887 C   0  0  0  0  0  0  0  0  0  0  0  0
  -22.3248   -8.1579   21.4598 C   0  0  0  0  0  0  0  0  0  0  0  0
  -23.2908  -22.5153   24.1929 C   0  0  0  0  0  0  0  0  0  0  0  0
  -20.8482   -6.9927   22.8685 C   0  0  0  0  0  0  0  0  0  0  0  0
  -19.3458   -6.9097   25.2176 C   0  0  0  0  0  0  0  0  0  0  0  0
  -21.0896   -5.9979   23.8159 C   0  0  0  0  0  0  0  0  0  0  0  0
  -24.5978  -11.6459   20.7082 C   0  0  0  0  0  0  0  0  0  0  0  0
  -25.2734  -13.7270   20.4897 C   0  0  0  0  0  0  0  0  0  0  0  0
  -26.3442  -20.6469   24.0179 C   0  0  0  0  0  0  0  0  0  0  0  0
  -25.3643  -21.4578   24.4233 C   0  0  0  0  0  0  0  0  0  1  0  0
  -29.6831  -19.2233   24.8543 C   0  0  0  0  0  0  0  0  0  0  0  0
  -22.9134  -13.5028   21.2827 C   0  0  0  0  0  0  0  0  0  0  0  0
  -27.5530  -20.4628   24.8658 C   0  0  0  0  0  0  0  0  0  0  0  0
  -20.3278  -27.0628   24.1175 C   0  0  0  0  0  0  0  0  0  0  0  0
  -22.2770  -28.2483   26.4235 C   0  0  0  0  0  0  0  0  0  0  0  0
  -24.9896  -27.7882   28.4426 C   0  0  0  0  0  0  0  0  0  0  0  0
  -30.7463  -14.7406   20.6418 C   0  0  0  0  0  0  0  0  0  0  0  0
  -15.6844  -28.0830   22.2586 C   0  0  0  0  0  0  0  0  0  0  0  0
  -20.3197  -25.1838   25.7983 C   0  0  0  0  0  0  0  0  0  0  0  0
  -23.0586  -26.1553   25.2514 C   0  0  0  0  0  0  0  0  0  0  0  0
  -16.7713  -28.8778   22.9779 C   0  0  0  0  0  0  0  0  0  0  0  0
  -29.6061  -12.3451   18.2671 C   0  0  0  0  0  0  0  0  0  0  0  0
  -18.1272  -28.6453   22.3189 C   0  0  0  0  0  0  0  0  0  0  0  0
  -28.1670  -12.0596   18.7026 C   0  0  0  0  0  0  0  0  0  0  0  0
  -30.5286  -12.5627   19.4652 C   0  0  0  0  0  0  0  0  0  0  0  0
  -28.6328  -13.2910   20.8598 C   0  0  0  0  0  0  0  0  0  0  0  0
  -18.5329  -27.1685   22.3976 C   0  0  1  0  0  0  0  0  0  0  0  0
  -20.6115  -26.6581   25.5364 C   0  0  1  0  0  0  0  0  0  0  0  0
  -27.6531  -13.1292   19.6861 C   0  0  2  0  0  0  0  0  0  0  0  0
  -26.3613  -28.9496   30.1940 C   0  0  0  0  0  0  0  0  0  0  0  0
  -23.5936  -29.9503   24.2602 C   0  0  0  0  0  0  0  0  0  0  0  0
  -25.5053  -30.3410   25.8290 C   0  0  0  0  0  0  0  0  0  0  0  0
  -23.2175  -31.1316   26.4321 C   0  0  0  0  0  0  0  0  0  0  0  0
  -24.3662  -25.7214   30.4671 C   0  0  0  0  0  0  0  0  0  0  0  0
  -23.7289  -28.6563   26.4903 C   0  0  1  0  0  0  0  0  0  0  0  0
  -25.1887  -28.0178   29.9299 C   0  0  2  0  0  0  0  0  0  0  0  0
  -24.0036  -29.9934   25.7458 C   0  0  0  0  0  0  0  0  0  0  0  0
  -25.8599  -11.5450   20.2830 N   0  0  0  0  0  0  0  0  0  0  0  0
  -26.2435  -12.8271   20.1592 N   0  0  0  0  0  0  0  0  0  0  0  0
  -22.0043  -27.0163   25.8123 N   0  0  0  0  0  0  0  0  0  0  0  0
  -29.9800  -13.5922   20.3506 N   0  0  0  0  0  0  0  0  0  0  0  0
  -25.4910  -15.0576   20.4223 N   0  0  0  0  0  0  0  0  0  0  0  0
  -21.8981  -12.5977   21.6206 N   0  0  0  0  0  0  0  0  0  0  0  0
  -30.1083  -15.6652   21.4681 N   0  0  0  0  0  0  0  0  0  0  0  0
  -28.4637  -19.5840   24.2824 N   0  0  0  0  0  0  0  0  0  0  0  0
  -19.0213  -26.8485   23.7218 N   0  0  0  0  0  0  0  0  0  0  0  0
  -24.0824  -28.6770   27.9056 N   0  0  0  0  0  0  0  0  0  0  0  0
  -25.4505  -26.7248   30.6232 N   0  3  0  0  0  0  0  0  0  0  0  0
  -30.1069  -19.6286   25.9333 O   0  0  0  0  0  0  0  0  0  0  0  0
  -22.6845  -14.7345   21.3474 O   0  0  0  0  0  0  0  0  0  0  0  0
  -27.6929  -21.0317   25.9436 O   0  0  0  0  0  0  0  0  0  0  0  0
  -21.2273  -27.5358   23.4328 O   0  0  0  0  0  0  0  0  0  0  0  0
  -21.4172  -28.9919   26.9025 O   0  0  0  0  0  0  0  0  0  0  0  0
  -25.5825  -26.9109   27.8188 O   0  0  0  0  0  0  0  0  0  0  0  0
  -31.8739  -14.9053   20.1692 O   0  0  0  0  0  0  0  0  0  0  0  0
  -21.5936   -7.0357   21.7022 O   0  0  0  0  0  0  0  0  0  0  0  0
  -24.2304  -21.6689   23.6902 O   0  0  0  0  0  0  0  0  0  1  0  0
  -18.6253   -6.8709   26.3461 F   0  0  0  0  0  0  0  0  0  0  0  0
  -22.0426   -5.0800   23.6039 F   0  0  0  0  0  0  0  0  0  0  0  0
  1  2  1  0  0  0  0
  1  7  2  0  0  0  0
  2  8  2  0  0  0  0
  3  6  2  0  0  0  0
  3 10  1  0  0  0  0
  4 11  2  0  0  0  0
  4 19  1  0  0  0  0
  5 12  1  0  0  0  0
  5 19  2  0  0  0  0
  6 20  1  0  0  0  0
  7 22  1  0  0  0  0
  8 24  1  0  0  0  0
  9 13  2  0  0  0  0
  9 23  1  0  0  0  0
 10 26  2  0  0  0  0
 11 27  1  0  0  0  0
 12 27  2  0  0  0  0
 13 28  1  0  0  0  0
 14 15  2  0  0  0  0
 14 29  1  0  0  0  0
 15 30  1  0  0  0  0
 16 20  2  0  0  0  0
 16 26  1  0  0  0  0
 17 25  1  0  0  0  0
 17 28  2  0  0  0  0
 18 30  2  0  0  0  0
 18 31  1  0  0  0  0
 19 32  1  0  0  0  0
 20 36  1  0  0  0  0
 21 32  1  0  0  0  0
 21 33  2  0  0  0  0
 21 37  1  0  0  0  0
 22 24  2  0  0  0  0
 22 43  1  0  0  0  0
 23 25  2  0  0  0  0
 23 44  1  0  0  0  0
 24 52  1  0  0  0  0
 25 45  1  0  0  0  0
 26 69  1  0  0  0  0
 27 81  1  0  0  0  0
 28 82  1  0  0  0  0
 29 31  2  0  0  0  0
 29 81  1  0  0  0  0
 30 83  1  0  0  0  0
 31 84  1  0  0  0  0
 32 63  2  0  0  0  0
 33 64  1  0  0  0  0
 33 67  1  0  0  0  0
 34 35  2  0  0  0  0
 34 38  1  0  0  0  0
 35 82  1  0  0  0  0
 36 70  1  0  0  0  0
 36 74  2  0  0  0  0
 37 68  1  0  0  0  0
 37 75  2  0  0  0  0
 38 70  1  0  0  0  0
 38 76  2  0  0  0  0
 39 53  1  0  0  0  0
 39 71  1  0  0  0  0
 39 77  2  0  0  0  0
 40 60  1  0  0  0  0
 40 65  1  0  0  0  0
 40 78  2  0  0  0  0
 41 61  1  0  0  0  0
 41 72  1  0  0  0  0
 41 79  2  0  0  0  0
 42 66  1  0  0  0  0
 42 69  1  0  0  0  0
 42 80  2  0  0  0  0
 43 46  1  0  0  0  0
 44 53  1  0  0  0  0
 45 65  1  0  0  0  0
 46 48  1  0  0  0  0
 47 49  1  0  0  0  0
 47 50  1  0  0  0  0
 48 52  1  0  0  0  0
 49 54  1  0  0  0  0
 50 66  1  0  0  0  0
 51 54  1  0  0  0  0
 51 66  1  0  0  0  0
 52 71  1  0  0  0  0
 53 65  1  0  0  0  0
 54 64  1  0  0  0  0
 55 61  1  0  0  0  0
 56 62  1  0  0  0  0
 57 62  1  0  0  0  0
 58 62  1  0  0  0  0
 59 73  1  0  0  0  0
 60 62  1  0  0  0  0
 60 72  1  0  0  0  0
 61 73  1  0  0  0  0
 63 64  1  0  0  0  0
M  CHG  1  73   1
M  ISO  4  35 101  42 100  69 100  82 101
M  END
> <Batch ID>
0079

> <Smiles>
CNC(C)C(=O)NC(C(=O)N1Cc2cc([101O:1][101CH:1]=CC(=O)NC(=O)c3cccc([100NH:0][100C:0](=O)N4CCCC(n5nc(-c6ccc(Oc7ccc(F)cc7F)cc6)c(C(N)=O)c5N)C4)c3)ccc2CC1C(=O)NC1CCCc2ccccc21)C(C)(C)C

> <Shape>
0.232

> <Color>
0.188

> <Negative vol penalty>
0.000

$$$$

  -OEChem-04042323593D

 84 92  0     1  0  0  0  0  0999 V2000
  -27.4378  -23.6878   17.3137 C   0  0  0  0  0  0  0  0  0  0  0  0
  -26.2845  -24.0308   18.0120 C   0  0  0  0  0  0  0  0  0  0  0  0
  -19.5037  -21.7586   19.9262 C   0  0  0  0  0  0  0  0  0  0  0  0
  -26.6952  -13.8050   21.0062 C   0  0  0  0  0  0  0  0  0  0  0  0
  -24.4010  -14.0328   20.2839 C   0  0  0  0  0  0  0  0  0  0  0  0
  -19.2614  -22.8527   20.7568 C   0  0  0  0  0  0  0  0  0  0  0  0
  -28.6786  -24.1515   17.7487 C   0  0  0  0  0  0  0  0  0  0  0  0
  -26.3715  -24.8371   19.1463 C   0  0  0  0  0  0  0  0  0  0  0  0
  -22.8533  -28.4788   19.2158 C   0  0  0  0  0  0  0  0  0  0  0  0
  -20.8093  -21.3095   19.7274 C   0  0  0  0  0  0  0  0  0  0  0  0
  -26.3646  -12.6332   21.6867 C   0  0  0  0  0  0  0  0  0  0  0  0
  -24.0704  -12.8609   20.9644 C   0  0  0  0  0  0  0  0  0  0  0  0
  -21.5612  -28.1089   19.5866 C   0  0  0  0  0  0  0  0  0  0  0  0
  -22.6967   -9.7347   22.2125 C   0  0  0  0  0  0  0  0  0  0  0  0
  -21.8920   -8.8058   21.5528 C   0  0  0  0  0  0  0  0  0  0  0  0
  -21.6303  -23.0487   21.1896 C   0  0  0  0  0  0  0  0  0  0  0  0
  -21.9600  -28.9642   21.8067 C   0  0  0  0  0  0  0  0  0  0  0  0
  -23.5566   -8.5989   19.8139 C   0  0  0  0  0  0  0  0  0  0  0  0
  -25.7134  -14.5049   20.3049 C   0  0  0  0  0  0  0  0  0  0  0  0
  -20.3247  -23.4978   21.3885 C   0  0  0  0  0  0  0  0  0  0  0  0
  -26.4857  -15.8312   18.2672 C   0  0  0  0  0  0  0  0  0  0  0  0
  -28.7799  -24.9718   18.8834 C   0  0  0  0  0  0  0  0  0  0  0  0
  -23.7136  -29.0853   20.1423 C   0  0  0  0  0  0  0  0  0  0  0  0
  -27.6150  -25.3112   19.5977 C   0  0  0  0  0  0  0  0  0  0  0  0
  -23.2616  -29.3432   21.4444 C   0  0  0  0  0  0  0  0  0  0  0  0
  -21.8725  -21.9545   20.3591 C   0  0  0  0  0  0  0  0  0  0  0  0
  -25.0523  -12.1611   21.6658 C   0  0  0  0  0  0  0  0  0  0  0  0
  -21.1154  -28.3490   20.8831 C   0  0  0  0  0  0  0  0  0  0  0  0
  -23.9313  -10.0958   21.6729 C   0  0  0  0  0  0  0  0  0  0  0  0
  -22.3220   -8.2379   20.3535 C   0  0  0  0  0  0  0  0  0  0  0  0
  -24.3612   -9.5278   20.4736 C   0  0  0  0  0  0  0  0  0  0  0  0
  -26.0541  -15.7158   19.6022 C   0  0  0  0  0  0  0  0  0  0  0  0
  -26.6765  -17.1789   18.0833 C   0  0  0  0  0  0  0  0  0  0  0  0
  -20.0652  -24.6630   22.2728 C   0  0  0  0  0  0  0  0  0  0  0  0
  -26.6953  -14.8114   17.2814 C   0  0  0  0  0  0  0  0  0  0  0  0
  -26.5152  -28.3222   21.4354 C   0  0  0  0  0  0  0  0  0  0  0  0
  -26.2961  -31.2966   22.7111 C   0  0  0  0  0  0  0  0  0  0  0  0
  -24.3061  -33.8955   23.6767 C   0  0  0  0  0  0  0  0  0  0  0  0
  -24.3664  -22.0244   20.7083 C   0  0  0  0  0  0  0  0  0  0  0  0
  -30.1480  -25.4100   19.3426 C   0  0  0  0  0  0  0  0  0  0  0  0
  -25.0953  -29.5026   19.7190 C   0  0  0  0  0  0  0  0  0  0  0  0
  -24.1392  -30.0100   22.4709 C   0  0  0  0  0  0  0  0  0  0  0  0
  -30.1148  -26.5677   20.3370 C   0  0  0  0  0  0  0  0  0  0  0  0
  -27.8138  -21.1622   20.4864 C   0  0  0  0  0  0  0  0  0  0  0  0
  -29.0721  -26.3112   21.4204 C   0  0  0  0  0  0  0  0  0  0  0  0
  -27.7931  -19.6797   20.1070 C   0  0  0  0  0  0  0  0  0  0  0  0
  -26.6830  -21.5168   21.4504 C   0  0  0  0  0  0  0  0  0  0  0  0
  -25.3202  -19.6371   20.6267 C   0  0  0  0  0  0  0  0  0  0  0  0
  -27.6658  -26.2041   20.8184 C   0  0  1  0  0  0  0  0  0  0  0  0
  -26.0612  -29.6470   20.8909 C   0  0  1  0  0  0  0  0  0  0  0  0
  -26.4015  -19.2455   19.6063 C   0  0  2  0  0  0  0  0  0  0  0  0
  -24.4115  -36.1753   24.7201 C   0  0  0  0  0  0  0  0  0  0  0  0
  -26.7511  -30.0214   25.4455 C   0  0  0  0  0  0  0  0  0  0  0  0
  -25.9126  -32.1350   26.4933 C   0  0  0  0  0  0  0  0  0  0  0  0
  -27.9698  -32.1749   25.0830 C   0  0  0  0  0  0  0  0  0  0  0  0
  -17.2398  -27.1303   22.1692 C   0  0  0  0  0  0  0  0  0  0  0  0
  -18.3350  -26.1684   24.2088 C   0  0  0  0  0  0  0  0  0  0  0  0
  -23.1308  -35.1740   21.2802 C   0  0  0  0  0  0  0  0  0  0  0  0
  -19.6508  -27.6339   22.6150 C   0  0  0  0  0  0  0  0  0  1  0  0
  -25.7153  -31.8762   23.9783 C   0  0  1  0  0  0  0  0  0  0  0  0
  -24.4032  -35.3884   23.4188 C   0  0  2  0  0  0  0  0  0  0  0  0
  -26.5711  -31.5376   25.2315 C   0  0  0  0  0  0  0  0  0  0  0  0
  -18.5474  -26.5686   22.7432 C   0  0  0  0  0  0  0  0  0  0  0  0
  -25.9755  -16.8961   20.2226 N   0  0  0  0  0  0  0  0  0  0  0  0
  -26.3603  -17.7659   19.2732 N   0  0  0  0  0  0  0  0  0  0  0  0
  -25.4839  -30.3936   22.0105 N   0  0  0  0  0  0  0  0  0  0  0  0
  -25.3949  -21.0793   20.9080 N   0  0  0  0  0  0  0  0  0  0  0  0
  -27.0823  -17.9073   17.0216 N   0  0  0  0  0  0  0  0  0  0  0  0
  -26.4516  -13.4779   17.6374 N   0  0  0  0  0  0  0  0  0  0  0  0
  -23.1986  -21.4979   20.1573 N   0  0  0  0  0  0  0  0  0  0  0  0
  -18.9248  -25.3873   21.9847 N   0  0  0  0  0  0  0  0  0  0  0  0
  -27.1483  -27.5191   20.5061 N   0  0  0  0  0  0  0  0  0  0  0  0
  -25.5509  -33.3054   23.7355 N   0  0  0  0  0  0  0  0  0  0  0  0
  -23.2472  -35.8486   22.5986 N   0  3  0  0  0  0  0  0  0  0  0  0
  -20.8620  -24.9245   23.1701 O   0  0  0  0  0  0  0  0  0  0  0  0
  -27.1028  -15.0733   16.1243 O   0  0  0  0  0  0  0  0  0  0  0  0
  -26.3079  -28.0495   22.6120 O   0  0  0  0  0  0  0  0  0  0  0  0
  -27.4258  -31.6380   22.3523 O   0  0  0  0  0  0  0  0  0  0  0  0
  -23.2334  -33.3120   23.8160 O   0  0  0  0  0  0  0  0  0  0  0  0
  -24.5205  -23.2181   20.9789 O   0  0  0  0  0  0  0  0  0  0  0  0
  -24.7294  -11.0175   22.3295 O   0  0  0  0  0  0  0  0  0  0  0  0
  -19.8549  -27.9883   21.2478 O   0  0  0  0  0  0  0  0  0  1  0  0
  -21.5498   -7.3447   19.7209 F   0  0  0  0  0  0  0  0  0  0  0  0
  -25.5468   -9.8699   19.9510 F   0  0  0  0  0  0  0  0  0  0  0  0
  1  2  1  0  0  0  0
  1  7  2  0  0  0  0
  2  8  2  0  0  0  0
  3  6  2  0  0  0  0
  3 10  1  0  0  0  0
  4 11  2  0  0  0  0
  4 19  1  0  0  0  0
  5 12  1  0  0  0  0
  5 19  2  0  0  0  0
  6 20  1  0  0  0  0
  7 22  1  0  0  0  0
  8 24  1  0  0  0  0
  9 13  2  0  0  0  0
  9 23  1  0  0  0  0
 10 26  2  0  0  0  0
 11 27  1  0  0  0  0
 12 27  2  0  0  0  0
 13 28  1  0  0  0  0
 14 15  2  0  0  0  0
 14 29  1  0  0  0  0
 15 30  1  0  0  0  0
 16 20  2  0  0  0  0
 16 26  1  0  0  0  0
 17 25  1  0  0  0  0
 17 28  2  0  0  0  0
 18 30  2  0  0  0  0
 18 31  1  0  0  0  0
 19 32  1  0  0  0  0
 20 34  1  0  0  0  0
 21 32  1  0  0  0  0
 21 33  2  0  0  0  0
 21 35  1  0  0  0  0
 22 24  2  0  0  0  0
 22 40  1  0  0  0  0
 23 25  2  0  0  0  0
 23 41  1  0  0  0  0
 24 49  1  0  0  0  0
 25 42  1  0  0  0  0
 26 70  1  0  0  0  0
 27 81  1  0  0  0  0
 28 82  1  0  0  0  0
 29 31  2  0  0  0  0
 29 81  1  0  0  0  0
 30 83  1  0  0  0  0
 31 84  1  0  0  0  0
 32 64  2  0  0  0  0
 33 65  1  0  0  0  0
 33 68  1  0  0  0  0
 34 71  1  0  0  0  0
 34 75  2  0  0  0  0
 35 69  1  0  0  0  0
 35 76  2  0  0  0  0
 36 50  1  0  0  0  0
 36 72  1  0  0  0  0
 36 77  2  0  0  0  0
 37 60  1  0  0  0  0
 37 66  1  0  0  0  0
 37 78  2  0  0  0  0
 38 61  1  0  0  0  0
 38 73  1  0  0  0  0
 38 79  2  0  0  0  0
 39 67  1  0  0  0  0
 39 70  1  0  0  0  0
 39 80  2  0  0  0  0
 40 43  1  0  0  0  0
 41 50  1  0  0  0  0
 42 66  1  0  0  0  0
 43 45  1  0  0  0  0
 44 46  1  0  0  0  0
 44 47  1  0  0  0  0
 45 49  1  0  0  0  0
 46 51  1  0  0  0  0
 47 67  1  0  0  0  0
 48 51  1  0  0  0  0
 48 67  1  0  0  0  0
 49 72  1  0  0  0  0
 50 66  1  0  0  0  0
 51 65  1  0  0  0  0
 52 61  1  0  0  0  0
 53 62  1  0  0  0  0
 54 62  1  0  0  0  0
 55 62  1  0  0  0  0
 56 63  1  0  0  0  0
 57 63  1  0  0  0  0
 58 74  1  0  0  0  0
 59 63  1  0  0  0  0
 59 82  1  0  0  0  0
 60 62  1  0  0  0  0
 60 73  1  0  0  0  0
 61 74  1  0  0  0  0
 63 71  1  0  0  0  0
 64 65  1  0  0  0  0
M  CHG  1  74   1
M  ISO  4  39 100  59 101  70 100  82 101
M  END
> <Batch ID>
0079

> <Smiles>
CNC(C)C(=O)NC(C(=O)N1Cc2cc([101O:1][101CH2:1]C(C)(C)NC(=O)c3cccc([100NH:0][100C:0](=O)N4CCCC(n5nc(-c6ccc(Oc7ccc(F)cc7F)cc6)c(C(N)=O)c5N)C4)c3)ccc2CC1C(=O)NC1CCCc2ccccc21)C(C)(C)C

> <Shape>
0.292

> <Color>
0.077

> <Negative vol penalty>
0.000

$$$$

  -OEChem-04042323593D

 86 95  0     1  0  0  0  0  0999 V2000
  -29.7507  -24.4892   17.0296 C   0  0  0  0  0  0  0  0  0  0  0  0
  -28.5253  -24.5094   17.6878 C   0  0  0  0  0  0  0  0  0  0  0  0
  -15.1941  -22.3884   22.8622 C   0  0  0  0  0  0  0  0  0  0  0  0
  -27.4268  -19.3889   21.7909 C   0  0  0  0  0  0  0  0  0  0  0  0
  -26.7477  -18.9437   19.5154 C   0  0  0  0  0  0  0  0  0  0  0  0
  -30.8276  -25.2118   17.5415 C   0  0  0  0  0  0  0  0  0  0  0  0
  -28.3763  -25.2514   18.8591 C   0  0  0  0  0  0  0  0  0  0  0  0
  -24.0850  -27.9393   18.9235 C   0  0  0  0  0  0  0  0  0  0  0  0
  -15.5787  -21.3824   21.9758 C   0  0  0  0  0  0  0  0  0  0  0  0
  -15.8157  -23.6362   22.8132 C   0  0  0  0  0  0  0  0  0  0  0  0
  -28.6982  -18.8891   21.5093 C   0  0  0  0  0  0  0  0  0  0  0  0
  -28.0192  -18.4439   19.2338 C   0  0  0  0  0  0  0  0  0  0  0  0
  -22.9078  -27.2525   19.2175 C   0  0  0  0  0  0  0  0  0  0  0  0
  -30.1696  -15.8632   21.1880 C   0  0  0  0  0  0  0  0  0  0  0  0
  -30.7425  -14.9919   22.1144 C   0  0  0  0  0  0  0  0  0  0  0  0
  -23.0120  -28.0584   21.4888 C   0  0  0  0  0  0  0  0  0  0  0  0
  -17.2066  -22.8719   20.9916 C   0  0  0  0  0  0  0  0  0  0  0  0
  -32.5867  -16.5235   22.4146 C   0  0  0  0  0  0  0  0  0  0  0  0
  -26.4515  -19.4162   20.7940 C   0  0  0  0  0  0  0  0  0  0  0  0
  -24.6994  -21.2633   20.9545 C   0  0  0  0  0  0  0  0  0  0  0  0
  -30.6891  -25.9707   18.7143 C   0  0  0  0  0  0  0  0  0  0  0  0
  -24.7414  -28.6832   19.9145 C   0  0  0  0  0  0  0  0  0  0  0  0
  -29.4528  -25.9837   19.3879 C   0  0  0  0  0  0  0  0  0  0  0  0
  -24.1959  -28.7559   21.2042 C   0  0  0  0  0  0  0  0  0  0  0  0
  -16.5849  -21.6241   21.0405 C   0  0  0  0  0  0  0  0  0  0  0  0
  -16.8219  -23.8779   21.8780 C   0  0  0  0  0  0  0  0  0  0  0  0
  -28.9944  -18.4166   20.2307 C   0  0  0  0  0  0  0  0  0  0  0  0
  -22.3727  -27.3096   20.5010 C   0  0  0  0  0  0  0  0  0  0  0  0
  -30.8054  -17.0647   20.8749 C   0  0  0  0  0  0  0  0  0  0  0  0
  -31.9510  -15.3220   22.7278 C   0  0  0  0  0  0  0  0  0  0  0  0
  -32.0139  -17.3948   21.4882 C   0  0  0  0  0  0  0  0  0  0  0  0
  -25.1378  -19.9319   21.0844 C   0  0  0  0  0  0  0  0  0  0  0  0
  -23.3850  -21.2323   21.3520 C   0  0  0  0  0  0  0  0  0  0  0  0
  -18.9766  -26.8121   21.5378 C   0  0  0  0  0  0  0  0  0  0  0  0
  -17.7677  -27.4430   22.0048 C   0  0  0  0  0  0  0  0  0  0  0  0
  -18.7696  -25.3412   21.4258 C   0  0  0  0  0  0  0  0  0  0  0  0
  -17.5440  -28.7414   22.2343 C   0  0  0  0  0  0  0  0  0  0  0  0
  -20.1495  -27.3633   21.2257 C   0  0  0  0  0  0  0  0  0  1  0  0
  -25.4161  -22.4243   20.5139 C   0  0  0  0  0  0  0  0  0  0  0  0
  -27.5979  -28.5427   21.3019 C   0  0  0  0  0  0  0  0  0  0  0  0
  -26.6254  -31.3064   22.6943 C   0  0  0  0  0  0  0  0  0  0  0  0
  -24.0364  -33.3000   23.6786 C   0  0  0  0  0  0  0  0  0  0  0  0
  -18.3400  -18.8468   21.3001 C   0  0  0  0  0  0  0  0  0  0  0  0
  -31.8949  -26.6976   19.2553 C   0  0  0  0  0  0  0  0  0  0  0  0
  -25.9959  -29.4402   19.5743 C   0  0  0  0  0  0  0  0  0  0  0  0
  -24.8511  -29.5570   22.2984 C   0  0  0  0  0  0  0  0  0  0  0  0
  -16.7531  -26.3574   22.2011 C   0  0  0  0  0  0  0  0  0  0  0  0
  -31.5497  -27.7591   20.2965 C   0  0  0  0  0  0  0  0  0  0  0  0
  -20.7194  -17.5861   23.6294 C   0  0  0  0  0  0  0  0  0  0  0  0
  -30.5625  -27.2037   21.3181 C   0  0  0  0  0  0  0  0  0  0  0  0
  -22.0450  -18.1886   23.1605 C   0  0  0  0  0  0  0  0  0  0  0  0
  -19.8160  -17.2250   22.4524 C   0  0  0  0  0  0  0  0  0  0  0  0
  -20.8932  -18.9276   21.0331 C   0  0  0  0  0  0  0  0  0  0  0  0
  -29.2450  -26.7965   20.6473 C   0  0  1  0  0  0  0  0  0  0  0  0
  -26.8576  -29.7480   20.7951 C   0  0  1  0  0  0  0  0  0  0  0  0
  -21.8152  -19.3596   22.1862 C   0  0  2  0  0  0  0  0  0  0  0  0
  -23.5539  -35.4801   24.8240 C   0  0  0  0  0  0  0  0  0  0  0  0
  -27.2789  -30.0325   25.3888 C   0  0  0  0  0  0  0  0  0  0  0  0
  -25.9207  -31.8259   26.4875 C   0  0  0  0  0  0  0  0  0  0  0  0
  -27.9554  -32.4308   25.1773 C   0  0  0  0  0  0  0  0  0  0  0  0
  -22.6717  -34.3872   21.2880 C   0  0  0  0  0  0  0  0  0  0  0  0
  -16.9957  -20.5483   20.0931 C   0  0  0  0  0  0  0  0  0  0  0  0
  -25.8787  -31.6622   23.9572 C   0  0  1  0  0  0  0  0  0  0  0  0
  -23.7803  -34.7845   23.4907 C   0  0  2  0  0  0  0  0  0  0  0  0
  -26.7469  -31.4711   25.2328 C   0  0  0  0  0  0  0  0  0  0  0  0
  -24.1798  -19.1146   21.5297 N   0  0  0  0  0  0  0  0  0  0  0  0
  -23.1263  -19.9347   21.6832 N   0  0  0  0  0  0  0  0  0  0  0  0
  -17.4412  -25.1228   21.8290 N   0  0  0  0  0  0  0  0  0  0  0  0
  -26.0792  -30.2745   21.9181 N   0  0  0  0  0  0  0  0  0  0  0  0
  -19.6371  -18.3788   21.5678 N   0  0  0  0  0  0  0  0  0  0  0  0
  -22.4369  -22.1886   21.4470 N   0  0  0  0  0  0  0  0  0  0  0  0
  -26.7596  -22.2789   20.1422 N   0  0  0  0  0  0  0  0  0  0  0  0
  -28.4374  -27.9647   20.3689 N   0  0  0  0  0  0  0  0  0  0  0  0
  -25.3838  -33.0217   23.7694 N   0  0  0  0  0  0  0  0  0  0  0  0
  -18.2600  -19.9483   20.4570 N   0  0  0  0  0  0  0  0  0  0  0  0
  -22.5766  -34.9987   22.6386 N   0  3  0  0  0  0  0  0  0  0  0  0
  -19.5996  -24.5267   21.0583 O   0  0  0  0  0  0  0  0  0  0  0  0
  -24.8856  -23.5600   20.4673 O   0  0  0  0  0  0  0  0  0  0  0  0
  -27.4216  -28.1660   22.4546 O   0  0  0  0  0  0  0  0  0  0  0  0
  -27.6516  -31.9262   22.4035 O   0  0  0  0  0  0  0  0  0  0  0  0
  -23.1315  -32.4708   23.7424 O   0  0  0  0  0  0  0  0  0  0  0  0
  -17.3285  -18.3250   21.7813 O   0  0  0  0  0  0  0  0  0  0  0  0
  -30.2350  -17.9290   19.9555 O   0  0  0  0  0  0  0  0  0  0  0  0
  -21.2242  -26.6397   20.7908 O   0  0  0  0  0  0  0  0  0  1  0  0
  -32.5002  -14.4858   23.6185 F   0  0  0  0  0  0  0  0  0  0  0  0
  -32.6287  -18.5481   21.1922 F   0  0  0  0  0  0  0  0  0  0  0  0
  1  2  1  0  0  0  0
  1  6  2  0  0  0  0
  2  7  2  0  0  0  0
  3  9  1  0  0  0  0
  3 10  2  0  0  0  0
  4 11  2  0  0  0  0
  4 19  1  0  0  0  0
  5 12  1  0  0  0  0
  5 19  2  0  0  0  0
  6 21  1  0  0  0  0
  7 23  1  0  0  0  0
  8 13  2  0  0  0  0
  8 22  1  0  0  0  0
  9 25  2  0  0  0  0
 10 26  1  0  0  0  0
 11 27  1  0  0  0  0
 12 27  2  0  0  0  0
 13 28  1  0  0  0  0
 14 15  2  0  0  0  0
 14 29  1  0  0  0  0
 15 30  1  0  0  0  0
 16 24  1  0  0  0  0
 16 28  2  0  0  0  0
 17 25  1  0  0  0  0
 17 26  2  0  0  0  0
 18 30  2  0  0  0  0
 18 31  1  0  0  0  0
 19 32  1  0  0  0  0
 20 32  1  0  0  0  0
 20 33  2  0  0  0  0
 20 39  1  0  0  0  0
 21 23  2  0  0  0  0
 21 44  1  0  0  0  0
 22 24  2  0  0  0  0
 22 45  1  0  0  0  0
 23 54  1  0  0  0  0
 24 46  1  0  0  0  0
 25 62  1  0  0  0  0
 26 68  1  0  0  0  0
 27 83  1  0  0  0  0
 28 84  1  0  0  0  0
 29 31  2  0  0  0  0
 29 83  1  0  0  0  0
 30 85  1  0  0  0  0
 31 86  1  0  0  0  0
 32 66  2  0  0  0  0
 33 67  1  0  0  0  0
 33 71  1  0  0  0  0
 34 35  1  0  0  0  0
 34 36  1  0  0  0  0
 34 38  2  0  0  0  0
 35 37  2  0  0  0  0
 35 47  1  0  0  0  0
 36 68  1  0  0  0  0
 36 77  2  0  0  0  0
 38 84  1  0  0  0  0
 39 72  1  0  0  0  0
 39 78  2  0  0  0  0
 40 55  1  0  0  0  0
 40 73  1  0  0  0  0
 40 79  2  0  0  0  0
 41 63  1  0  0  0  0
 41 69  1  0  0  0  0
 41 80  2  0  0  0  0
 42 64  1  0  0  0  0
 42 74  1  0  0  0  0
 42 81  2  0  0  0  0
 43 70  1  0  0  0  0
 43 75  1  0  0  0  0
 43 82  2  0  0  0  0
 44 48  1  0  0  0  0
 45 55  1  0  0  0  0
 46 69  1  0  0  0  0
 47 68  1  0  0  0  0
 48 50  1  0  0  0  0
 49 51  1  0  0  0  0
 49 52  1  0  0  0  0
 50 54  1  0  0  0  0
 51 56  1  0  0  0  0
 52 70  1  0  0  0  0
 53 56  1  0  0  0  0
 53 70  1  0  0  0  0
 54 73  1  0  0  0  0
 55 69  1  0  0  0  0
 56 67  1  0  0  0  0
 57 64  1  0  0  0  0
 58 65  1  0  0  0  0
 59 65  1  0  0  0  0
 60 65  1  0  0  0  0
 61 76  1  0  0  0  0
 62 75  1  0  0  0  0
 63 65  1  0  0  0  0
 63 74  1  0  0  0  0
 64 76  1  0  0  0  0
 66 67  1  0  0  0  0
M  CHG  1  76   1
M  ISO  4  38 101  43 100  75 100  84 101
M  END
> <Batch ID>
0079

> <Smiles>
C=C1CN(c2cccc(C[100NH:0][100C:0](=O)N3CCCC(n4nc(-c5ccc(Oc6ccc(F)cc6F)cc5)c(C(N)=O)c4N)C3)c2)C(=O)C1=[101CH:1][101O:1]c1ccc2c(c1)CN(C(=O)C(NC(=O)C(C)NC)C(C)(C)C)C(C(=O)NC1CCCc3ccccc31)C2

> <Shape>
0.255

> <Color>
0.064

> <Negative vol penalty>
0.000

$$$$

  -OEChem-04042323593D

 90 99  0     1  0  0  0  0  0999 V2000
  -15.5922  -26.9279   24.8900 C   0  0  0  0  0  0  0  0  0  0  0  0
  -16.6318  -26.0442   25.1617 C   0  0  0  0  0  0  0  0  0  0  0  0
  -23.0310  -10.3712   21.1448 C   0  0  0  0  0  0  0  0  0  0  0  0
  -24.6688   -8.8112   21.9939 C   0  0  0  0  0  0  0  0  0  0  0  0
  -28.8223  -19.1460   22.1609 C   0  0  0  0  0  0  0  0  0  0  0  0
  -15.7997  -28.0019   24.0255 C   0  0  0  0  0  0  0  0  0  0  0  0
  -17.8793  -26.2334   24.5680 C   0  0  0  0  0  0  0  0  0  0  0  0
  -23.3528  -25.0379   27.0413 C   0  0  0  0  0  0  0  0  0  0  0  0
  -22.0911   -9.3434   21.0694 C   0  0  0  0  0  0  0  0  0  0  0  0
  -23.7289   -7.7833   21.9185 C   0  0  0  0  0  0  0  0  0  0  0  0
  -28.1823  -19.9833   23.0746 C   0  0  0  0  0  0  0  0  0  0  0  0
  -24.2239  -23.9569   26.9135 C   0  0  0  0  0  0  0  0  0  0  0  0
  -21.0906   -6.6856   23.7226 C   0  0  0  0  0  0  0  0  0  0  0  0
  -20.9899   -5.8204   24.8120 C   0  0  0  0  0  0  0  0  0  0  0  0
  -26.6946  -18.6402   21.1342 C   0  0  0  0  0  0  0  0  0  0  0  0
  -25.4538  -25.1559   25.2198 C   0  0  0  0  0  0  0  0  0  0  0  0
  -21.5535   -3.9556   23.3830 C   0  0  0  0  0  0  0  0  0  0  0  0
  -24.3199  -10.1051   21.6071 C   0  0  0  0  0  0  0  0  0  0  0  0
  -28.0784  -18.4745   21.1906 C   0  0  0  0  0  0  0  0  0  0  0  0
  -25.5350  -12.0175   22.7792 C   0  0  0  0  0  0  0  0  0  0  0  0
  -17.0530  -28.2099   23.4285 C   0  0  0  0  0  0  0  0  0  0  0  0
  -23.5194  -26.1837   26.2501 C   0  0  0  0  0  0  0  0  0  0  0  0
  -18.1033  -27.3104   23.6936 C   0  0  0  0  0  0  0  0  0  0  0  0
  -24.5850  -26.2511   25.3412 C   0  0  0  0  0  0  0  0  0  0  0  0
  -26.0546  -19.4775   22.0480 C   0  0  0  0  0  0  0  0  0  0  0  0
  -22.4400   -8.0495   21.4562 C   0  0  0  0  0  0  0  0  0  0  0  0
  -25.2729  -24.0146   26.0006 C   0  0  0  0  0  0  0  0  0  0  0  0
  -26.7985  -20.1490   23.0182 C   0  0  0  0  0  0  0  0  0  0  0  0
  -21.4227   -6.1859   22.4634 C   0  0  0  0  0  0  0  0  0  0  0  0
  -21.2213   -4.4554   24.6422 C   0  0  0  0  0  0  0  0  0  0  0  0
  -21.6541   -4.8209   22.2936 C   0  0  0  0  0  0  0  0  0  0  0  0
  -25.2914  -11.1663   21.6847 C   0  0  0  0  0  0  0  0  0  0  0  0
  -26.5452  -12.8447   22.3528 C   0  0  0  0  0  0  0  0  0  0  0  0
  -22.7375  -19.7929   21.8573 C   0  0  0  0  0  0  0  0  0  0  0  0
  -23.6949  -18.8641   21.5943 C   0  0  0  0  0  0  0  0  0  0  0  0
  -28.7619  -17.5819   20.2163 C   0  0  0  0  0  0  0  0  0  0  0  0
  -24.9046  -12.0569   24.0663 C   0  0  0  0  0  0  0  0  0  0  0  0
  -30.2590  -17.4272   20.3073 C   0  0  0  0  0  0  0  0  0  0  0  0
  -21.7626  -27.6709   24.0580 C   0  0  0  0  0  0  0  0  0  0  0  0
  -24.1326  -29.8798   24.2202 C   0  0  0  0  0  0  0  0  0  0  0  0
  -27.3841  -30.5903   24.9749 C   0  0  0  0  0  0  0  0  0  0  0  0
  -28.7333  -16.1217   18.4192 C   0  0  0  0  0  0  0  0  0  0  0  0
  -17.2161  -29.3577   22.4638 C   0  0  0  0  0  0  0  0  0  0  0  0
  -22.5872  -27.3519   26.4190 C   0  0  0  0  0  0  0  0  0  0  0  0
  -24.8194  -27.4663   24.4829 C   0  0  0  0  0  0  0  0  0  0  0  0
  -23.8250  -20.7258   22.3133 C   0  0  0  0  0  0  0  0  0  0  0  0
  -18.6735  -29.7030   22.1687 C   0  0  0  0  0  0  0  0  0  0  0  0
  -29.5165  -12.6126   18.2725 C   0  0  0  0  0  0  0  0  0  0  0  0
  -19.4735  -28.4373   21.8775 C   0  0  0  0  0  0  0  0  0  0  0  0
  -28.4841  -11.9878   19.2115 C   0  0  0  0  0  0  0  0  0  0  0  0
  -28.9389  -13.8075   17.5194 C   0  0  0  0  0  0  0  0  0  0  0  0
  -27.3215  -14.2336   19.3494 C   0  0  0  0  0  0  0  0  0  0  0  0
  -19.4778  -27.4965   23.0884 C   0  0  1  0  0  0  0  0  0  0  0  0
  -22.5439  -28.2634   25.1965 C   0  0  1  0  0  0  0  0  0  0  0  0
  -27.8790  -13.0459   20.1515 C   0  0  1  0  0  0  0  0  0  0  0  0
  -21.2108  -19.8577   21.7385 C   0  0  0  0  0  0  0  0  0  0  0  0
  -23.6202  -17.4228   21.0390 C   0  0  0  0  0  0  0  0  0  0  0  0
  -30.7718  -16.3250   21.1836 C   0  0  0  0  0  0  0  0  0  0  0  0
  -29.0413  -32.4747   24.9686 C   0  0  0  0  0  0  0  0  0  0  0  0
  -24.4051  -29.6267   21.1917 C   0  0  0  0  0  0  0  0  0  0  0  0
  -26.6303  -30.7607   21.3671 C   0  0  0  0  0  0  0  0  0  0  0  0
  -24.5597  -31.9665   22.0612 C   0  0  0  0  0  0  0  0  0  0  0  0
  -27.7728  -30.4123   27.9034 C   0  0  0  0  0  0  0  0  0  0  0  0
  -25.5949  -21.6624   26.1396 C   0  0  0  0  0  0  0  0  0  1  0  0
  -26.3380  -20.6426   25.2986 C   0  0  0  0  0  0  0  0  0  0  0  0
  -25.4465  -30.0923   23.5079 C   0  0  1  0  0  0  0  0  0  0  0  0
  -28.0082  -31.7129   25.7841 C   0  0  2  0  0  0  0  0  0  0  0  0
  -25.2551  -30.5878   22.0466 C   0  0  0  0  0  0  0  0  0  0  0  0
  -26.0830  -11.4287   20.6413 N   0  0  0  0  0  0  0  0  0  0  0  0
  -28.0812  -16.9430   19.3131 N   0  0  0  0  0  0  0  0  0  0  0  0
  -26.8338  -12.4541   21.0783 N   0  0  0  0  0  0  0  0  0  0  0  0
  -24.6533  -19.6370   21.9789 N   0  0  0  0  0  0  0  0  0  0  0  0
  -23.8771  -28.5802   24.6802 N   0  0  0  0  0  0  0  0  0  0  0  0
  -28.3444  -14.7721   18.4440 N   0  0  0  0  0  0  0  0  0  0  0  0
  -27.2058  -13.8608   22.9474 N   0  0  0  0  0  0  0  0  0  0  0  0
  -23.8844  -11.1354   24.3391 N   0  0  0  0  0  0  0  0  0  0  0  0
  -20.4127  -27.9648   24.0889 N   0  0  0  0  0  0  0  0  0  0  0  0
  -26.2248  -30.9960   24.3481 N   0  0  0  0  0  0  0  0  0  0  0  0
  -28.6778  -31.1662   26.9980 N   0  3  0  0  0  0  0  0  0  0  0  0
  -25.2248  -12.8954   24.9426 O   0  0  0  0  0  0  0  0  0  0  0  0
  -30.9575  -18.1768   19.6419 O   0  0  0  0  0  0  0  0  0  0  0  0
  -22.3418  -26.9981   23.2133 O   0  0  0  0  0  0  0  0  0  0  0  0
  -23.3645  -30.8334   24.3695 O   0  0  0  0  0  0  0  0  0  0  0  0
  -27.8777  -29.4671   24.9029 O   0  0  0  0  0  0  0  0  0  0  0  0
  -29.5785  -16.5505   17.6319 O   0  0  0  0  0  0  0  0  0  0  0  0
  -21.5230   -7.0463   21.3830 O   0  0  0  0  0  0  0  0  0  0  0  0
  -26.1242  -22.9606   25.8735 O   0  0  0  0  0  0  0  0  0  1  0  0
  -26.1889  -20.9767   23.9240 O   0  0  0  0  0  0  0  0  0  0  0  0
  -21.1261   -3.6248   25.6888 F   0  0  0  0  0  0  0  0  0  0  0  0
  -21.9747   -4.3351   21.0865 F   0  0  0  0  0  0  0  0  0  0  0  0
  1  2  1  0  0  0  0
  1  6  2  0  0  0  0
  2  7  2  0  0  0  0
  3  9  2  0  0  0  0
  3 18  1  0  0  0  0
  4 10  1  0  0  0  0
  4 18  2  0  0  0  0
  5 11  2  0  0  0  0
  5 19  1  0  0  0  0
  6 21  1  0  0  0  0
  7 23  1  0  0  0  0
  8 12  2  0  0  0  0
  8 22  1  0  0  0  0
  9 26  1  0  0  0  0
 10 26  2  0  0  0  0
 11 28  1  0  0  0  0
 12 27  1  0  0  0  0
 13 14  2  0  0  0  0
 13 29  1  0  0  0  0
 14 30  1  0  0  0  0
 15 19  2  0  0  0  0
 15 25  1  0  0  0  0
 16 24  1  0  0  0  0
 16 27  2  0  0  0  0
 17 30  2  0  0  0  0
 17 31  1  0  0  0  0
 18 32  1  0  0  0  0
 19 36  1  0  0  0  0
 20 32  1  0  0  0  0
 20 33  2  0  0  0  0
 20 37  1  0  0  0  0
 21 23  2  0  0  0  0
 21 43  1  0  0  0  0
 22 24  2  0  0  0  0
 22 44  1  0  0  0  0
 23 53  1  0  0  0  0
 24 45  1  0  0  0  0
 25 28  2  0  0  0  0
 25 72  1  0  0  0  0
 26 86  1  0  0  0  0
 27 87  1  0  0  0  0
 28 88  1  0  0  0  0
 29 31  2  0  0  0  0
 29 86  1  0  0  0  0
 30 89  1  0  0  0  0
 31 90  1  0  0  0  0
 32 69  2  0  0  0  0
 33 71  1  0  0  0  0
 33 75  1  0  0  0  0
 34 35  2  0  0  0  0
 34 46  1  0  0  0  0
 34 56  1  0  0  0  0
 35 57  1  0  0  0  0
 35 72  1  0  0  0  0
 36 38  1  0  0  0  0
 36 70  2  0  0  0  0
 37 76  1  0  0  0  0
 37 80  2  0  0  0  0
 38 58  1  0  0  0  0
 38 81  2  0  0  0  0
 39 54  1  0  0  0  0
 39 77  1  0  0  0  0
 39 82  2  0  0  0  0
 40 66  1  0  0  0  0
 40 73  1  0  0  0  0
 40 83  2  0  0  0  0
 41 67  1  0  0  0  0
 41 78  1  0  0  0  0
 41 84  2  0  0  0  0
 42 70  1  0  0  0  0
 42 74  1  0  0  0  0
 42 85  2  0  0  0  0
 43 47  1  0  0  0  0
 44 54  1  0  0  0  0
 45 73  1  0  0  0  0
 46 72  1  0  0  0  0
 47 49  1  0  0  0  0
 48 50  1  0  0  0  0
 48 51  1  0  0  0  0
 49 53  1  0  0  0  0
 50 55  1  0  0  0  0
 51 74  1  0  0  0  0
 52 55  1  0  0  0  0
 52 74  1  0  0  0  0
 53 77  1  0  0  0  0
 54 73  1  0  0  0  0
 55 71  1  0  0  0  0
 59 67  1  0  0  0  0
 60 68  1  0  0  0  0
 61 68  1  0  0  0  0
 62 68  1  0  0  0  0
 63 79  1  0  0  0  0
 64 65  1  0  0  0  0
 64 87  1  0  0  0  0
 65 88  1  0  0  0  0
 66 68  1  0  0  0  0
 66 78  1  0  0  0  0
 67 79  1  0  0  0  0
 69 71  1  0  0  0  0
M  CHG  1  79   1
M  ISO  4  42 100  64 101  70 100  87 101
M  END
> <Batch ID>
0079

> <Smiles>
C=C1CN(c2cc(C([100NH:0][100C:0](=O)N3CCCC(n4nc(-c5ccc(Oc6ccc(F)cc6F)cc5)c(C(N)=O)c4N)C3)C(C)=O)ccc2OC[101CH2:1][101O:1]c2ccc3c(c2)CN(C(=O)C(NC(=O)C(C)NC)C(C)(C)C)C(C(=O)NC2CCCc4ccccc42)C3)C1=C

> <Shape>
0.271

> <Color>
0.094

> <Negative vol penalty>
0.000

$$$$

  -OEChem-04042323593D

 91100  0     1  0  0  0  0  0999 V2000
  -33.9788  -28.6253   17.1137 C   0  0  0  0  0  0  0  0  0  0  0  0
  -33.1628  -27.7205   17.7853 C   0  0  0  0  0  0  0  0  0  0  0  0
  -24.0485  -10.5986   23.4456 C   0  0  0  0  0  0  0  0  0  0  0  0
  -24.2091  -12.8607   24.2788 C   0  0  0  0  0  0  0  0  0  0  0  0
  -34.0880  -29.9374   17.5724 C   0  0  0  0  0  0  0  0  0  0  0  0
  -32.4564  -28.1271   18.9167 C   0  0  0  0  0  0  0  0  0  0  0  0
  -27.6545  -26.5191   18.8906 C   0  0  0  0  0  0  0  0  0  0  0  0
  -23.5513  -10.1794   24.6796 C   0  0  0  0  0  0  0  0  0  0  0  0
  -23.7119  -12.4415   25.5128 C   0  0  0  0  0  0  0  0  0  0  0  0
  -27.4270  -25.1876   19.2359 C   0  0  0  0  0  0  0  0  0  0  0  0
  -20.6036  -10.2577   26.3343 C   0  0  0  0  0  0  0  0  0  0  0  0
  -19.4993   -9.4056   26.3326 C   0  0  0  0  0  0  0  0  0  0  0  0
  -32.4387  -18.7506   22.8556 C   0  0  0  0  0  0  0  0  0  0  0  0
  -30.3484  -17.7580   22.1610 C   0  0  0  0  0  0  0  0  0  0  0  0
  -26.7950  -25.8784   21.4591 C   0  0  0  0  0  0  0  0  0  0  0  0
  -32.4407  -16.6997   21.5784 C   0  0  0  0  0  0  0  0  0  0  0  0
  -36.6425  -17.3382   21.7275 C   0  0  0  0  0  0  0  0  0  0  0  0
  -20.7925   -7.7275   27.4941 C   0  0  0  0  0  0  0  0  0  0  0  0
  -35.2765  -18.2123   23.2895 C   0  0  0  0  0  0  0  0  0  0  0  0
  -24.3774  -11.9392   23.2452 C   0  0  0  0  0  0  0  0  0  0  0  0
  -31.0445  -18.7725   22.8182 C   0  0  0  0  0  0  0  0  0  0  0  0
  -24.1493  -12.8324   20.8666 C   0  0  0  0  0  0  0  0  0  0  0  0
  -33.3750  -30.3628   18.7044 C   0  0  0  0  0  0  0  0  0  0  0  0
  -27.4641  -27.5410   19.8319 C   0  0  0  0  0  0  0  0  0  0  0  0
  -32.5572  -29.4457   19.3918 C   0  0  0  0  0  0  0  0  0  0  0  0
  -27.0183  -27.2223   21.1225 C   0  0  0  0  0  0  0  0  0  0  0  0
  -33.1368  -17.7142   22.2356 C   0  0  0  0  0  0  0  0  0  0  0  0
  -31.0465  -16.7216   21.5411 C   0  0  0  0  0  0  0  0  0  0  0  0
  -23.3830  -11.1008   25.7131 C   0  0  0  0  0  0  0  0  0  0  0  0
  -27.0000  -24.8669   20.5212 C   0  0  0  0  0  0  0  0  0  0  0  0
  -21.8024   -9.8447   26.9158 C   0  0  0  0  0  0  0  0  0  0  0  0
  -36.6019  -18.0059   22.9763 C   0  0  0  0  0  0  0  0  0  0  0  0
  -19.5937   -8.1405   26.9125 C   0  0  0  0  0  0  0  0  0  0  0  0
  -21.8968   -8.5796   27.4957 C   0  0  0  0  0  0  0  0  0  0  0  0
  -24.8916  -12.3728   21.9710 C   0  0  0  0  0  0  0  0  0  0  0  0
  -25.0949  -13.1177   19.9121 C   0  0  0  0  0  0  0  0  0  0  0  0
  -35.3406  -17.1571   21.3154 C   0  0  0  0  0  0  0  0  0  0  0  0
  -27.4023  -21.7789   22.3306 C   0  0  0  0  0  0  0  0  0  0  0  0
  -27.5098  -23.0368   21.8856 C   0  0  0  0  0  0  0  0  0  1  0  0
  -30.3010  -19.8765   23.4782 C   0  0  0  0  0  0  0  0  0  0  0  0
  -22.7319  -12.9877   20.7170 C   0  0  0  0  0  0  0  0  0  0  0  0
  -29.3402  -29.7189   21.1887 C   0  0  0  0  0  0  0  0  0  0  0  0
  -26.5432  -30.7804   22.4426 C   0  0  0  0  0  0  0  0  0  0  0  0
  -23.3273  -30.0874   23.3509 C   0  0  0  0  0  0  0  0  0  0  0  0
  -30.8783  -14.5910   20.2076 C   0  0  0  0  0  0  0  0  0  0  0  0
  -33.5618  -31.7783   19.1902 C   0  0  0  0  0  0  0  0  0  0  0  0
  -27.6882  -28.9746   19.4357 C   0  0  0  0  0  0  0  0  0  0  0  0
  -26.7795  -28.2840   22.1638 C   0  0  0  0  0  0  0  0  0  0  0  0
  -32.4885  -32.2302   20.1772 C   0  0  0  0  0  0  0  0  0  0  0  0
  -29.4733  -11.8175   18.4722 C   0  0  0  0  0  0  0  0  0  0  0  0
  -32.2558  -31.1606   21.2395 C   0  0  0  0  0  0  0  0  0  0  0  0
  -28.0692  -11.6908   19.0677 C   0  0  0  0  0  0  0  0  0  0  0  0
  -30.5003  -12.2318   19.5245 C   0  0  0  0  0  0  0  0  0  0  0  0
  -28.7515  -13.3116   20.8828 C   0  0  0  0  0  0  0  0  0  0  0  0
  -31.7558  -29.8556   20.6083 C   0  0  1  0  0  0  0  0  0  0  0  0
  -27.9569  -29.8887   20.6272 C   0  0  1  0  0  0  0  0  0  0  0  0
  -27.6711  -12.9594   19.8473 C   0  0  2  0  0  0  0  0  0  0  0  0
  -27.3370  -20.7170   24.5925 C   0  0  0  0  0  0  0  0  0  0  0  0
  -21.3002  -31.1466   24.3834 C   0  0  0  0  0  0  0  0  0  0  0  0
  -27.8509  -30.5959   25.1932 C   0  0  0  0  0  0  0  0  0  0  0  0
  -25.5675  -30.7317   26.2110 C   0  0  0  0  0  0  0  0  0  0  0  0
  -26.4369  -32.6290   24.8446 C   0  0  0  0  0  0  0  0  0  0  0  0
  -21.7018  -29.6175   20.9227 C   0  0  0  0  0  0  0  0  0  0  0  0
  -28.2217  -21.2300   23.4631 C   0  0  1  0  0  0  0  0  0  0  0  0
  -25.7520  -30.4846   23.6939 C   0  0  1  0  0  0  0  0  0  0  0  0
  -22.0255  -30.8221   23.0867 C   0  0  2  0  0  0  0  0  0  0  0  0
  -26.4081  -31.0899   24.9669 C   0  0  0  0  0  0  0  0  0  0  0  0
  -26.2072  -12.3647   21.7406 N   0  0  0  0  0  0  0  0  0  0  0  0
  -34.5189  -17.6926   22.2726 N   0  0  0  0  0  0  0  0  0  0  0  0
  -26.2991  -12.8228   20.4805 N   0  0  0  0  0  0  0  0  0  0  0  0
  -27.0186  -29.6704   21.7300 N   0  0  0  0  0  0  0  0  0  0  0  0
  -30.0582  -13.4429   20.2193 N   0  0  0  0  0  0  0  0  0  0  0  0
  -25.0054  -13.5895   18.6505 N   0  0  0  0  0  0  0  0  0  0  0  0
  -21.9049  -12.6481   21.7964 N   0  0  0  0  0  0  0  0  0  0  0  0
  -30.3392  -15.6914   20.8732 N   0  0  0  0  0  0  0  0  0  0  0  0
  -29.0533  -20.1699   22.9476 N   0  0  0  0  0  0  0  0  0  0  0  0
  -30.3507  -29.9600   20.2776 N   0  0  0  0  0  0  0  0  0  0  0  0
  -24.3949  -30.9556   23.4395 N   0  0  0  0  0  0  0  0  0  0  0  0
  -21.1242  -29.9909   22.2395 N   0  3  0  0  0  0  0  0  0  0  0  0
  -30.8201  -20.4709   24.4194 O   0  0  0  0  0  0  0  0  0  0  0  0
  -22.2129  -13.3994   19.6518 O   0  0  0  0  0  0  0  0  0  0  0  0
  -29.4803  -29.3945   22.3621 O   0  0  0  0  0  0  0  0  0  0  0  0
  -26.7264  -31.9529   22.1060 O   0  0  0  0  0  0  0  0  0  0  0  0
  -23.3904  -28.8658   23.4706 O   0  0  0  0  0  0  0  0  0  0  0  0
  -31.9656  -14.6058   19.6250 O   0  0  0  0  0  0  0  0  0  0  0  0
  -37.6348  -18.3837   23.7420 O   0  0  0  0  0  0  0  0  0  0  0  0
  -34.8551  -16.5867   20.2195 O   0  0  0  0  0  0  0  0  0  0  0  0
  -22.8976  -10.6921   26.9173 O   0  0  0  0  0  0  0  0  0  0  0  0
  -26.7778  -23.5680   20.8610 O   0  0  0  0  0  0  0  0  0  1  0  0
  -18.5327   -7.3229   26.9122 F   0  0  0  0  0  0  0  0  0  0  0  0
  -23.0454   -8.1778   28.0569 F   0  0  0  0  0  0  0  0  0  0  0  0
  1  2  1  0  0  0  0
  1  5  2  0  0  0  0
  2  6  2  0  0  0  0
  3  8  2  0  0  0  0
  3 20  1  0  0  0  0
  4  9  1  0  0  0  0
  4 20  2  0  0  0  0
  5 23  1  0  0  0  0
  6 25  1  0  0  0  0
  7 10  2  0  0  0  0
  7 24  1  0  0  0  0
  8 29  1  0  0  0  0
  9 29  2  0  0  0  0
 10 30  1  0  0  0  0
 11 12  2  0  0  0  0
 11 31  1  0  0  0  0
 12 33  1  0  0  0  0
 13 21  2  0  0  0  0
 13 27  1  0  0  0  0
 14 21  1  0  0  0  0
 14 28  2  0  0  0  0
 15 26  1  0  0  0  0
 15 30  2  0  0  0  0
 16 27  2  0  0  0  0
 16 28  1  0  0  0  0
 17 32  1  0  0  0  0
 17 37  2  0  0  0  0
 18 33  2  0  0  0  0
 18 34  1  0  0  0  0
 19 32  2  0  0  0  0
 19 69  1  0  0  0  0
 20 35  1  0  0  0  0
 21 40  1  0  0  0  0
 22 35  1  0  0  0  0
 22 36  2  0  0  0  0
 22 41  1  0  0  0  0
 23 25  2  0  0  0  0
 23 46  1  0  0  0  0
 24 26  2  0  0  0  0
 24 47  1  0  0  0  0
 25 55  1  0  0  0  0
 26 48  1  0  0  0  0
 27 69  1  0  0  0  0
 28 75  1  0  0  0  0
 29 88  1  0  0  0  0
 30 89  1  0  0  0  0
 31 34  2  0  0  0  0
 31 88  1  0  0  0  0
 32 86  1  0  0  0  0
 33 90  1  0  0  0  0
 34 91  1  0  0  0  0
 35 68  2  0  0  0  0
 36 70  1  0  0  0  0
 36 73  1  0  0  0  0
 37 69  1  0  0  0  0
 37 87  1  0  0  0  0
 38 39  2  0  0  0  0
 38 64  1  0  0  0  0
 39 89  1  0  0  0  0
 40 76  1  0  0  0  0
 40 80  2  0  0  0  0
 41 74  1  0  0  0  0
 41 81  2  0  0  0  0
 42 56  1  0  0  0  0
 42 77  1  0  0  0  0
 42 82  2  0  0  0  0
 43 65  1  0  0  0  0
 43 71  1  0  0  0  0
 43 83  2  0  0  0  0
 44 66  1  0  0  0  0
 44 78  1  0  0  0  0
 44 84  2  0  0  0  0
 45 72  1  0  0  0  0
 45 75  1  0  0  0  0
 45 85  2  0  0  0  0
 46 49  1  0  0  0  0
 47 56  1  0  0  0  0
 48 71  1  0  0  0  0
 49 51  1  0  0  0  0
 50 52  1  0  0  0  0
 50 53  1  0  0  0  0
 51 55  1  0  0  0  0
 52 57  1  0  0  0  0
 53 72  1  0  0  0  0
 54 57  1  0  0  0  0
 54 72  1  0  0  0  0
 55 77  1  0  0  0  0
 56 71  1  0  0  0  0
 57 70  1  0  0  0  0
 58 64  1  0  0  0  0
 59 66  1  0  0  0  0
 60 67  1  0  0  0  0
 61 67  1  0  0  0  0
 62 67  1  0  0  0  0
 63 79  1  0  0  0  0
 64 76  1  0  0  0  0
 65 67  1  0  0  0  0
 65 78  1  0  0  0  0
 66 79  1  0  0  0  0
 68 70  1  0  0  0  0
M  CHG  1  79   1
M  ISO  4  39 101  45 100  75 100  89 101
M  END
> <Batch ID>
0079

> <Smiles>
CNC(C)C(=O)NC(C(=O)N1Cc2cc([101O:1][101CH:1]=CC(C)NC(=O)c3cc([100NH:0][100C:0](=O)N4CCCC(n5nc(-c6ccc(Oc7ccc(F)cc7F)cc6)c(C(N)=O)c5N)C4)cc(N4CC(=O)CC4=O)c3)ccc2CC1C(=O)NC1CCCc2ccccc21)C(C)(C)C

> <Shape>
0.213

> <Color>
0.118

> <Negative vol penalty>
0.000

$$$$

  -OEChem-04042323593D

 85 94  0     1  0  0  0  0  0999 V2000
  -18.6149  -27.2109   31.0872 C   0  0  0  0  0  0  0  0  0  0  0  0
  -19.8668  -26.8201   30.6228 C   0  0  0  0  0  0  0  0  0  0  0  0
  -32.6582  -17.4833   23.4504 C   0  0  0  0  0  0  0  0  0  0  0  0
  -23.0710   -9.8714   19.9426 C   0  0  0  0  0  0  0  0  0  0  0  0
  -23.8334   -9.8763   22.2352 C   0  0  0  0  0  0  0  0  0  0  0  0
  -17.4722  -26.5364   30.6593 C   0  0  0  0  0  0  0  0  0  0  0  0
  -19.9767  -25.7537   29.7311 C   0  0  0  0  0  0  0  0  0  0  0  0
  -24.0301  -25.1647   25.1782 C   0  0  0  0  0  0  0  0  0  0  0  0
  -31.8619  -18.3494   24.1996 C   0  0  0  0  0  0  0  0  0  0  0  0
  -32.0685  -16.6012   22.5449 C   0  0  0  0  0  0  0  0  0  0  0  0
  -22.3261   -8.7190   20.1927 C   0  0  0  0  0  0  0  0  0  0  0  0
  -23.0884   -8.7238   22.4853 C   0  0  0  0  0  0  0  0  0  0  0  0
  -25.2364  -24.4728   25.0800 C   0  0  0  0  0  0  0  0  0  0  0  0
  -19.3785   -7.9249   21.6468 C   0  0  0  0  0  0  0  0  0  0  0  0
  -18.0711   -7.8804   21.1629 C   0  0  0  0  0  0  0  0  0  0  0  0
  -24.0836  -22.6212   24.0496 C   0  0  0  0  0  0  0  0  0  0  0  0
  -29.8862  -17.4513   23.1380 C   0  0  0  0  0  0  0  0  0  0  0  0
  -18.6272   -5.9374   19.8390 C   0  0  0  0  0  0  0  0  0  0  0  0
  -23.8247  -10.4501   20.9638 C   0  0  0  0  0  0  0  0  0  0  0  0
  -24.1692  -12.9749   20.8448 C   0  0  0  0  0  0  0  0  0  0  0  0
  -17.5673  -25.4674   29.7544 C   0  0  0  0  0  0  0  0  0  0  0  0
  -22.8377  -24.5847   24.7219 C   0  0  0  0  0  0  0  0  0  0  0  0
  -18.8342  -25.0634   29.2917 C   0  0  0  0  0  0  0  0  0  0  0  0
  -22.8638  -23.3089   24.1407 C   0  0  0  0  0  0  0  0  0  0  0  0
  -30.4759  -18.3334   24.0435 C   0  0  0  0  0  0  0  0  0  0  0  0
  -30.6825  -16.5852   22.3887 C   0  0  0  0  0  0  0  0  0  0  0  0
  -22.3348   -8.1452   21.4641 C   0  0  0  0  0  0  0  0  0  0  0  0
  -25.2629  -23.1996   24.5183 C   0  0  0  0  0  0  0  0  0  0  0  0
  -20.3104   -6.9757   21.2267 C   0  0  0  0  0  0  0  0  0  0  0  0
  -17.6954   -6.8867   20.2591 C   0  0  0  0  0  0  0  0  0  0  0  0
  -19.9347   -5.9820   20.3229 C   0  0  0  0  0  0  0  0  0  0  0  0
  -24.5948  -11.6402   20.7059 C   0  0  0  0  0  0  0  0  0  0  0  0
  -25.2618  -13.7234   20.4808 C   0  0  0  0  0  0  0  0  0  0  0  0
  -28.4489  -19.7157   24.3530 C   0  0  0  0  0  0  0  0  0  0  0  0
  -27.6517  -20.5517   25.0412 C   0  0  0  0  0  0  0  0  0  0  0  0
  -29.1225  -20.1208   27.0200 C   0  0  0  0  0  0  0  0  0  0  0  0
  -29.0816  -19.6930   28.2912 C   0  0  0  0  0  0  0  0  0  0  0  0
  -22.8997  -13.4919   21.2654 C   0  0  0  0  0  0  0  0  0  0  0  0
  -20.0924  -23.7361   26.0811 C   0  0  0  0  0  0  0  0  0  0  0  0
  -19.2119  -23.1328   23.0179 C   0  0  0  0  0  0  0  0  0  0  0  0
  -20.1581  -22.3917   19.8238 C   0  0  0  0  0  0  0  0  0  0  0  0
  -30.7293  -14.7628   20.6501 C   0  0  0  0  0  0  0  0  0  0  0  0
  -16.3082  -24.7384   29.3571 C   0  0  0  0  0  0  0  0  0  0  0  0
  -21.5488  -25.3550   24.8106 C   0  0  0  0  0  0  0  0  0  0  0  0
  -21.6146  -22.6501   23.6174 C   0  0  0  0  0  0  0  0  0  0  0  0
  -28.0306  -20.9870   26.4356 C   0  0  0  0  0  0  0  0  0  0  0  0
  -30.2353  -19.7216   26.0744 C   0  0  0  0  0  0  0  0  0  0  0  0
  -16.4776  -23.8594   28.1206 C   0  0  0  0  0  0  0  0  0  0  0  0
  -29.6096  -12.3515   18.2817 C   0  0  0  0  0  0  0  0  0  0  0  0
  -17.7523  -23.0283   28.2270 C   0  0  0  0  0  0  0  0  0  0  0  0
  -28.1701  -12.0613   18.7127 C   0  0  0  0  0  0  0  0  0  0  0  0
  -30.5263  -12.5786   19.4825 C   0  0  0  0  0  0  0  0  0  0  0  0
  -28.6217  -13.3044   20.8662 C   0  0  0  0  0  0  0  0  0  0  0  0
  -18.9921  -23.9273   28.3045 C   0  0  1  0  0  0  0  0  0  0  0  0
  -20.3142  -24.4593   24.7828 C   0  0  1  0  0  0  0  0  0  0  0  0
  -27.6474  -13.1329   19.6894 C   0  0  2  0  0  0  0  0  0  0  0  0
  -19.2116  -21.9207   17.5479 C   0  0  0  0  0  0  0  0  0  0  0  0
  -18.4225  -20.3298   23.9289 C   0  0  0  0  0  0  0  0  0  0  0  0
  -18.3981  -19.6309   21.5249 C   0  0  0  0  0  0  0  0  0  0  0  0
  -16.8254  -21.3940   22.3254 C   0  0  0  0  0  0  0  0  0  0  0  0
  -21.5333  -24.7300   18.6406 C   0  0  0  0  0  0  0  0  0  0  0  0
  -26.3744  -21.0975   24.4811 C   0  0  0  0  0  0  0  0  0  1  0  0
  -19.2846  -21.9360   22.1006 C   0  0  1  0  0  0  0  0  0  0  0  0
  -19.7502  -22.9875   18.4885 C   0  0  2  0  0  0  0  0  0  0  0  0
  -18.2561  -20.8340   22.4815 C   0  0  0  0  0  0  0  0  0  0  0  0
  -25.8591  -11.5432   20.2862 N   0  0  0  0  0  0  0  0  0  0  0  0
  -26.2373  -12.8264   20.1581 N   0  0  0  0  0  0  0  0  0  0  0  0
  -29.6650  -19.2163   24.8064 N   0  0  0  0  0  0  0  0  0  0  0  0
  -20.3782  -23.4410   23.7324 N   0  0  0  0  0  0  0  0  0  0  0  0
  -29.9695  -13.6096   20.3610 N   0  0  0  0  0  0  0  0  0  0  0  0
  -25.4736  -15.0546   20.4083 N   0  0  0  0  0  0  0  0  0  0  0  0
  -21.8872  -12.5837   21.6033 N   0  0  0  0  0  0  0  0  0  0  0  0
  -30.0839  -15.6881   21.4697 N   0  0  0  0  0  0  0  0  0  0  0  0
  -19.3283  -24.4389   26.9931 N   0  0  0  0  0  0  0  0  0  0  0  0
  -19.1332  -22.4515   20.7442 N   0  0  0  0  0  0  0  0  0  0  0  0
  -20.9183  -23.6434   17.8355 N   0  3  0  0  0  0  0  0  0  0  0  0
  -22.6649  -14.7228   21.3237 O   0  0  0  0  0  0  0  0  0  0  0  0
  -20.5773  -22.6224   26.2428 O   0  0  0  0  0  0  0  0  0  0  0  0
  -18.1613  -23.7748   23.0922 O   0  0  0  0  0  0  0  0  0  0  0  0
  -21.2732  -21.9170   20.0287 O   0  0  0  0  0  0  0  0  0  0  0  0
  -31.8581  -14.9305   20.1813 O   0  0  0  0  0  0  0  0  0  0  0  0
  -21.6078   -7.0208   21.7086 O   0  0  0  0  0  0  0  0  0  0  0  0
  -26.4390  -22.5218   24.4219 O   0  0  0  0  0  0  0  0  0  1  0  0
  -16.4394   -6.8431   19.7957 F   0  0  0  0  0  0  0  0  0  0  0  0
  -20.8251   -5.0667   19.9165 F   0  0  0  0  0  0  0  0  0  0  0  0
  1  2  1  0  0  0  0
  1  6  2  0  0  0  0
  2  7  2  0  0  0  0
  3  9  2  0  0  0  0
  3 10  1  0  0  0  0
  4 11  2  0  0  0  0
  4 19  1  0  0  0  0
  5 12  1  0  0  0  0
  5 19  2  0  0  0  0
  6 21  1  0  0  0  0
  7 23  1  0  0  0  0
  8 13  2  0  0  0  0
  8 22  1  0  0  0  0
  9 25  1  0  0  0  0
 10 26  2  0  0  0  0
 11 27  1  0  0  0  0
 12 27  2  0  0  0  0
 13 28  1  0  0  0  0
 14 15  2  0  0  0  0
 14 29  1  0  0  0  0
 15 30  1  0  0  0  0
 16 24  1  0  0  0  0
 16 28  2  0  0  0  0
 17 25  2  0  0  0  0
 17 26  1  0  0  0  0
 18 30  2  0  0  0  0
 18 31  1  0  0  0  0
 19 32  1  0  0  0  0
 20 32  1  0  0  0  0
 20 33  2  0  0  0  0
 20 38  1  0  0  0  0
 21 23  2  0  0  0  0
 21 43  1  0  0  0  0
 22 24  2  0  0  0  0
 22 44  1  0  0  0  0
 23 54  1  0  0  0  0
 24 45  1  0  0  0  0
 25 68  1  0  0  0  0
 26 73  1  0  0  0  0
 27 82  1  0  0  0  0
 28 83  1  0  0  0  0
 29 31  2  0  0  0  0
 29 82  1  0  0  0  0
 30 84  1  0  0  0  0
 31 85  1  0  0  0  0
 32 66  2  0  0  0  0
 33 67  1  0  0  0  0
 33 71  1  0  0  0  0
 34 35  2  0  0  0  0
 34 68  1  0  0  0  0
 35 46  1  0  0  0  0
 35 62  1  0  0  0  0
 36 37  2  0  0  0  0
 36 46  1  0  0  0  0
 36 47  1  0  0  0  0
 38 72  1  0  0  0  0
 38 77  2  0  0  0  0
 39 55  1  0  0  0  0
 39 74  1  0  0  0  0
 39 78  2  0  0  0  0
 40 63  1  0  0  0  0
 40 69  1  0  0  0  0
 40 79  2  0  0  0  0
 41 64  1  0  0  0  0
 41 75  1  0  0  0  0
 41 80  2  0  0  0  0
 42 70  1  0  0  0  0
 42 73  1  0  0  0  0
 42 81  2  0  0  0  0
 43 48  1  0  0  0  0
 44 55  1  0  0  0  0
 45 69  1  0  0  0  0
 47 68  1  0  0  0  0
 48 50  1  0  0  0  0
 49 51  1  0  0  0  0
 49 52  1  0  0  0  0
 50 54  1  0  0  0  0
 51 56  1  0  0  0  0
 52 70  1  0  0  0  0
 53 56  1  0  0  0  0
 53 70  1  0  0  0  0
 54 74  1  0  0  0  0
 55 69  1  0  0  0  0
 56 67  1  0  0  0  0
 57 64  1  0  0  0  0
 58 65  1  0  0  0  0
 59 65  1  0  0  0  0
 60 65  1  0  0  0  0
 61 76  1  0  0  0  0
 62 83  1  0  0  0  0
 63 65  1  0  0  0  0
 63 75  1  0  0  0  0
 64 76  1  0  0  0  0
 66 67  1  0  0  0  0
M  CHG  1  76   1
M  ISO  4  42 100  62 101  73 100  83 101
M  END
> <Batch ID>
0079

> <Smiles>
C=C1CC([101CH2:1][101O:1]c2ccc3c(c2)CN(C(=O)C(NC(=O)C(C)NC)C(C)(C)C)C(C(=O)NC2CCCc4ccccc42)C3)=CN(c2cccc([100NH:0][100C:0](=O)N3CCCC(n4nc(-c5ccc(Oc6ccc(F)cc6F)cc5)c(C(N)=O)c4N)C3)c2)C1

> <Shape>
0.147

> <Color>
0.196

> <Negative vol penalty>
0.000

$$$$

  -OEChem-04042323593D

 87 96  0     1  0  0  0  0  0999 V2000
  -17.7412  -28.2657   24.3400 C   0  0  0  0  0  0  0  0  0  0  0  0
  -18.7091  -27.6443   23.5576 C   0  0  0  0  0  0  0  0  0  0  0  0
  -24.6988  -19.2099   17.7825 C   0  0  0  0  0  0  0  0  0  0  0  0
  -23.1649   -9.6797   19.8364 C   0  0  0  0  0  0  0  0  0  0  0  0
  -24.4830   -9.2508   21.8152 C   0  0  0  0  0  0  0  0  0  0  0  0
  -17.4396  -29.6115   24.1355 C   0  0  0  0  0  0  0  0  0  0  0  0
  -19.3754  -28.3681   22.5693 C   0  0  0  0  0  0  0  0  0  0  0  0
  -24.3682  -27.5213   22.5738 C   0  0  0  0  0  0  0  0  0  0  0  0
  -25.4191  -20.3865   17.9884 C   0  0  0  0  0  0  0  0  0  0  0  0
  -25.1296  -18.0176   18.3644 C   0  0  0  0  0  0  0  0  0  0  0  0
  -22.0717   -9.0461   20.4272 C   0  0  0  0  0  0  0  0  0  0  0  0
  -23.3897   -8.6173   22.4061 C   0  0  0  0  0  0  0  0  0  0  0  0
  -24.8131  -26.3340   21.9940 C   0  0  0  0  0  0  0  0  0  0  0  0
  -21.8586   -5.6082   22.2279 C   0  0  0  0  0  0  0  0  0  0  0  0
  -22.0860   -4.3954   22.8783 C   0  0  0  0  0  0  0  0  0  0  0  0
  -25.3930  -27.5388   19.9862 C   0  0  0  0  0  0  0  0  0  0  0  0
  -27.0010  -19.1785   19.3579 C   0  0  0  0  0  0  0  0  0  0  0  0
  -21.2832   -5.3537   24.9458 C   0  0  0  0  0  0  0  0  0  0  0  0
  -24.3706   -9.7820   20.5304 C   0  0  0  0  0  0  0  0  0  0  0  0
  -26.1494  -10.0726   18.7251 C   0  0  0  0  0  0  0  0  0  0  0  0
  -18.1093  -30.3547   23.1508 C   0  0  0  0  0  0  0  0  0  0  0  0
  -24.4223  -28.7265   21.8589 C   0  0  0  0  0  0  0  0  0  0  0  0
  -19.0815  -29.7248   22.3505 C   0  0  0  0  0  0  0  0  0  0  0  0
  -24.9504  -28.7405   20.5601 C   0  0  0  0  0  0  0  0  0  0  0  0
  -26.5702  -20.3708   18.7760 C   0  0  0  0  0  0  0  0  0  0  0  0
  -26.2807  -18.0019   19.1521 C   0  0  0  0  0  0  0  0  0  0  0  0
  -22.1841   -8.5149   21.7121 C   0  0  0  0  0  0  0  0  0  0  0  0
  -25.3229  -26.3421   20.6990 C   0  0  0  0  0  0  0  0  0  0  0  0
  -21.3435   -6.6937   22.9364 C   0  0  0  0  0  0  0  0  0  0  0  0
  -21.7984   -4.2682   24.2372 C   0  0  0  0  0  0  0  0  0  0  0  0
  -21.0558   -6.5665   24.2953 C   0  0  0  0  0  0  0  0  0  0  0  0
  -25.5004  -10.4358   19.9204 C   0  0  0  0  0  0  0  0  0  0  0  0
  -27.1513  -11.0012   18.5826 C   0  0  0  0  0  0  0  0  0  0  0  0
  -28.9946  -23.8755   18.7210 C   0  0  0  0  0  0  0  0  0  0  0  0
  -27.6008  -24.0202   19.1660 C   0  0  0  0  0  0  0  0  0  0  0  0
  -29.5332  -22.5134   18.5973 C   0  0  0  0  0  0  0  0  0  0  0  0
  -26.6698  -22.8434   18.9928 C   0  0  0  0  0  0  0  0  0  0  0  0
  -29.7529  -24.9551   18.4425 C   0  0  0  0  0  0  0  0  0  0  0  0
  -30.5960  -22.1495   17.8600 C   0  0  0  0  0  0  0  0  0  0  0  0
  -27.0642  -25.1116   19.7375 C   0  0  0  0  0  0  0  0  0  1  0  0
  -25.8713   -8.9925   17.8241 C   0  0  0  0  0  0  0  0  0  0  0  0
  -22.2664  -30.8258   20.8348 C   0  0  0  0  0  0  0  0  0  0  0  0
  -24.8962  -32.5201   19.9770 C   0  0  0  0  0  0  0  0  0  0  0  0
  -28.1020  -31.8251   18.4746 C   0  0  0  0  0  0  0  0  0  0  0  0
  -27.8378  -16.6009   20.5516 C   0  0  0  0  0  0  0  0  0  0  0  0
  -17.7157  -31.7945   22.9348 C   0  0  0  0  0  0  0  0  0  0  0  0
  -23.9631  -30.0031   22.5083 C   0  0  0  0  0  0  0  0  0  0  0  0
  -25.0490  -30.0113   19.7577 C   0  0  0  0  0  0  0  0  0  0  0  0
  -28.7345  -21.4897   19.3680 C   0  0  0  0  0  0  0  0  0  0  0  0
  -18.7327  -32.5882   22.1187 C   0  0  0  0  0  0  0  0  0  0  0  0
  -30.0127  -13.8482   21.1597 C   0  0  0  0  0  0  0  0  0  0  0  0
  -19.1624  -31.7977   20.8870 C   0  0  0  0  0  0  0  0  0  0  0  0
  -29.1635  -12.6280   20.7963 C   0  0  0  0  0  0  0  0  0  0  0  0
  -29.1790  -14.9415   21.8255 C   0  0  0  0  0  0  0  0  0  0  0  0
  -27.1343  -14.1323   20.7148 C   0  0  0  0  0  0  0  0  0  0  0  0
  -19.8435  -30.4828   21.2852 C   0  0  1  0  0  0  0  0  0  0  0  0
  -23.5884  -31.0851   21.5002 C   0  0  1  0  0  0  0  0  0  0  0  0
  -27.9178  -13.0305   19.9828 C   0  0  2  0  0  0  0  0  0  0  0  0
  -30.2926  -33.0333   18.6720 C   0  0  0  0  0  0  0  0  0  0  0  0
  -23.9948  -33.9680   17.4469 C   0  0  0  0  0  0  0  0  0  0  0  0
  -26.3621  -33.8795   16.6366 C   0  0  0  0  0  0  0  0  0  0  0  0
  -25.8058  -35.1277   18.7236 C   0  0  0  0  0  0  0  0  0  0  0  0
  -29.5086  -29.3722   19.3486 C   0  0  0  0  0  0  0  0  0  0  0  0
  -25.7605  -32.5999   18.7418 C   0  0  1  0  0  0  0  0  0  0  0  0
  -29.4550  -31.8624   19.1620 C   0  0  2  0  0  0  0  0  0  0  0  0
  -25.4670  -33.8699   17.8942 C   0  0  0  0  0  0  0  0  0  0  0  0
  -26.0445  -11.5111   20.4963 N   0  0  0  0  0  0  0  0  0  0  0  0
  -27.0460  -11.8315   19.6594 N   0  0  0  0  0  0  0  0  0  0  0  0
  -27.3138  -21.5874   18.9887 N   0  0  0  0  0  0  0  0  0  0  0  0
  -24.5813  -31.2325   20.4341 N   0  0  0  0  0  0  0  0  0  0  0  0
  -28.0187  -15.2740   20.9960 N   0  0  0  0  0  0  0  0  0  0  0  0
  -28.1035  -11.1802   17.6425 N   0  0  0  0  0  0  0  0  0  0  0  0
  -26.5061   -7.7618   18.0403 N   0  0  0  0  0  0  0  0  0  0  0  0
  -26.7177  -16.7904   19.7430 N   0  0  0  0  0  0  0  0  0  0  0  0
  -21.2041  -30.7278   21.7132 N   0  0  0  0  0  0  0  0  0  0  0  0
  -27.1409  -32.4946   19.2021 N   0  0  0  0  0  0  0  0  0  0  0  0
  -30.2062  -30.6031   18.8957 N   0  3  0  0  0  0  0  0  0  0  0  0
  -25.4576  -23.0315   18.8964 O   0  0  0  0  0  0  0  0  0  0  0  0
  -25.0958   -9.1199   16.8464 O   0  0  0  0  0  0  0  0  0  0  0  0
  -22.2137  -30.7237   19.6148 O   0  0  0  0  0  0  0  0  0  0  0  0
  -24.5203  -33.5617   20.5204 O   0  0  0  0  0  0  0  0  0  0  0  0
  -27.9171  -31.2617   17.3981 O   0  0  0  0  0  0  0  0  0  0  0  0
  -28.6341  -17.4971   20.8429 O   0  0  0  0  0  0  0  0  0  0  0  0
  -21.1175   -7.8969   22.2890 O   0  0  0  0  0  0  0  0  0  0  0  0
  -25.7573  -25.1846   20.1305 O   0  0  0  0  0  0  0  0  0  1  0  0
  -22.0154   -3.1030   24.8614 F   0  0  0  0  0  0  0  0  0  0  0  0
  -20.5597   -7.6055   24.9810 F   0  0  0  0  0  0  0  0  0  0  0  0
  1  2  1  0  0  0  0
  1  6  2  0  0  0  0
  2  7  2  0  0  0  0
  3  9  2  0  0  0  0
  3 10  1  0  0  0  0
  4 11  2  0  0  0  0
  4 19  1  0  0  0  0
  5 12  1  0  0  0  0
  5 19  2  0  0  0  0
  6 21  1  0  0  0  0
  7 23  1  0  0  0  0
  8 13  2  0  0  0  0
  8 22  1  0  0  0  0
  9 25  1  0  0  0  0
 10 26  2  0  0  0  0
 11 27  1  0  0  0  0
 12 27  2  0  0  0  0
 13 28  1  0  0  0  0
 14 15  2  0  0  0  0
 14 29  1  0  0  0  0
 15 30  1  0  0  0  0
 16 24  1  0  0  0  0
 16 28  2  0  0  0  0
 17 25  2  0  0  0  0
 17 26  1  0  0  0  0
 18 30  2  0  0  0  0
 18 31  1  0  0  0  0
 19 32  1  0  0  0  0
 20 32  1  0  0  0  0
 20 33  2  0  0  0  0
 20 41  1  0  0  0  0
 21 23  2  0  0  0  0
 21 46  1  0  0  0  0
 22 24  2  0  0  0  0
 22 47  1  0  0  0  0
 23 56  1  0  0  0  0
 24 48  1  0  0  0  0
 25 69  1  0  0  0  0
 26 74  1  0  0  0  0
 27 84  1  0  0  0  0
 28 85  1  0  0  0  0
 29 31  2  0  0  0  0
 29 84  1  0  0  0  0
 30 86  1  0  0  0  0
 31 87  1  0  0  0  0
 32 67  2  0  0  0  0
 33 68  1  0  0  0  0
 33 72  1  0  0  0  0
 34 35  1  0  0  0  0
 34 36  1  0  0  0  0
 34 38  2  0  0  0  0
 35 37  1  0  0  0  0
 35 40  2  0  0  0  0
 36 39  2  0  0  0  0
 36 49  1  0  0  0  0
 37 69  1  0  0  0  0
 37 78  2  0  0  0  0
 40 85  1  0  0  0  0
 41 73  1  0  0  0  0
 41 79  2  0  0  0  0
 42 57  1  0  0  0  0
 42 75  1  0  0  0  0
 42 80  2  0  0  0  0
 43 64  1  0  0  0  0
 43 70  1  0  0  0  0
 43 81  2  0  0  0  0
 44 65  1  0  0  0  0
 44 76  1  0  0  0  0
 44 82  2  0  0  0  0
 45 71  1  0  0  0  0
 45 74  1  0  0  0  0
 45 83  2  0  0  0  0
 46 50  1  0  0  0  0
 47 57  1  0  0  0  0
 48 70  1  0  0  0  0
 49 69  1  0  0  0  0
 50 52  1  0  0  0  0
 51 53  1  0  0  0  0
 51 54  1  0  0  0  0
 52 56  1  0  0  0  0
 53 58  1  0  0  0  0
 54 71  1  0  0  0  0
 55 58  1  0  0  0  0
 55 71  1  0  0  0  0
 56 75  1  0  0  0  0
 57 70  1  0  0  0  0
 58 68  1  0  0  0  0
 59 65  1  0  0  0  0
 60 66  1  0  0  0  0
 61 66  1  0  0  0  0
 62 66  1  0  0  0  0
 63 77  1  0  0  0  0
 64 66  1  0  0  0  0
 64 76  1  0  0  0  0
 65 77  1  0  0  0  0
 67 68  1  0  0  0  0
M  CHG  1  77   1
M  ISO  4  40 101  45 100  74 100  85 101
M  END
> <Batch ID>
0079

> <Smiles>
C=C1CN(c2cccc([100NH:0][100C:0](=O)N3CCCC(n4nc(-c5ccc(Oc6ccc(F)cc6F)cc5)c(C(N)=O)c4N)C3)c2)C(=O)C(=[101CH:1][101O:1]c2ccc3c(c2)CN(C(=O)C(NC(=O)C(C)NC)C(C)(C)C)C(C(=O)NC2CCCc4ccccc42)C3)C1=C

> <Shape>
0.258

> <Color>
0.092

> <Negative vol penalty>
0.000

$$$$

  -OEChem-04042323593D

 86 94  0     1  0  0  0  0  0999 V2000
  -28.0436  -37.2855   21.7407 C   0  0  0  0  0  0  0  0  0  0  0  0
  -28.4263  -36.0559   21.2143 C   0  0  0  0  0  0  0  0  0  0  0  0
  -23.5812  -10.0075   22.0499 C   0  0  0  0  0  0  0  0  0  0  0  0
  -22.6471  -12.1265   21.3615 C   0  0  0  0  0  0  0  0  0  0  0  0
  -29.5201  -19.7702   20.0255 C   0  0  0  0  0  0  0  0  0  0  0  0
  -27.2023  -37.3357   22.8514 C   0  0  0  0  0  0  0  0  0  0  0  0
  -27.9686  -34.8756   21.7991 C   0  0  0  0  0  0  0  0  0  0  0  0
  -26.5927  -29.6404   18.9345 C   0  0  0  0  0  0  0  0  0  0  0  0
  -29.6136  -18.3831   19.9136 C   0  0  0  0  0  0  0  0  0  0  0  0
  -22.5934   -9.8896   23.0276 C   0  0  0  0  0  0  0  0  0  0  0  0
  -21.6592  -12.0087   22.3391 C   0  0  0  0  0  0  0  0  0  0  0  0
  -27.3075  -28.4583   18.7462 C   0  0  0  0  0  0  0  0  0  0  0  0
  -19.3316   -9.0120   23.1799 C   0  0  0  0  0  0  0  0  0  0  0  0
  -18.6928   -7.7790   23.3107 C   0  0  0  0  0  0  0  0  0  0  0  0
  -27.2873  -19.6940   19.1058 C   0  0  0  0  0  0  0  0  0  0  0  0
  -26.2001  -27.4911   20.6586 C   0  0  0  0  0  0  0  0  0  0  0  0
  -19.4610   -7.6234   25.5960 C   0  0  0  0  0  0  0  0  0  0  0  0
  -23.6081  -11.1259   21.2169 C   0  0  0  0  0  0  0  0  0  0  0  0
  -28.3569  -20.4257   19.6216 C   0  0  0  0  0  0  0  0  0  0  0  0
  -24.5683  -10.7901   18.8775 C   0  0  0  0  0  0  0  0  0  0  0  0
  -26.7264  -36.1555   23.4441 C   0  0  0  0  0  0  0  0  0  0  0  0
  -25.6827  -29.7607   19.9946 C   0  0  0  0  0  0  0  0  0  0  0  0
  -27.1212  -34.9100   22.9196 C   0  0  0  0  0  0  0  0  0  0  0  0
  -25.4731  -28.6749   20.8566 C   0  0  0  0  0  0  0  0  0  0  0  0
  -28.5440  -17.6513   19.3978 C   0  0  0  0  0  0  0  0  0  0  0  0
  -21.6324  -10.8902   23.1722 C   0  0  0  0  0  0  0  0  0  0  0  0
  -27.1134  -27.3844   19.6100 C   0  0  0  0  0  0  0  0  0  0  0  0
  -20.0351   -9.5508   24.2571 C   0  0  0  0  0  0  0  0  0  0  0  0
  -18.7575   -7.0847   24.5187 C   0  0  0  0  0  0  0  0  0  0  0  0
  -27.3808  -18.3067   18.9938 C   0  0  0  0  0  0  0  0  0  0  0  0
  -20.0998   -8.8565   25.4652 C   0  0  0  0  0  0  0  0  0  0  0  0
  -24.6287  -11.2485   20.2071 C   0  0  0  0  0  0  0  0  0  0  0  0
  -25.7785  -11.1485   18.3355 C   0  0  0  0  0  0  0  0  0  0  0  0
  -28.2569  -21.8943   19.7398 C   0  0  0  0  0  0  0  0  0  0  0  0
  -23.5128  -10.1020   18.1933 C   0  0  0  0  0  0  0  0  0  0  0  0
  -25.4543  -31.6328   22.5533 C   0  0  0  0  0  0  0  0  0  0  0  0
  -28.2096  -24.5616   17.9873 C   0  0  0  0  0  0  0  0  0  0  0  0
  -22.5968  -30.1393   22.9086 C   0  0  0  0  0  0  0  0  0  0  0  0
  -20.6582  -27.4040   22.2708 C   0  0  0  0  0  0  0  0  0  0  0  0
  -29.7259  -15.4400   19.6415 C   0  0  0  0  0  0  0  0  0  0  0  0
  -25.8570  -36.2594   24.6722 C   0  0  0  0  0  0  0  0  0  0  0  0
  -24.8998  -31.0333   20.1681 C   0  0  0  0  0  0  0  0  0  0  0  0
  -24.4927  -28.7461   21.9978 C   0  0  0  0  0  0  0  0  0  0  0  0
  -25.1146  -34.9675   25.0040 C   0  0  0  0  0  0  0  0  0  0  0  0
  -30.3423  -11.9343   19.5552 C   0  0  0  0  0  0  0  0  0  0  0  0
  -26.0605  -33.7733   24.9267 C   0  0  0  0  0  0  0  0  0  0  0  0
  -28.9414  -11.3190   19.5855 C   0  0  0  0  0  0  0  0  0  0  0  0
  -30.4298  -13.1885   20.4230 C   0  0  0  0  0  0  0  0  0  0  0  0
  -28.0132  -13.5956   20.1708 C   0  0  0  0  0  0  0  0  0  0  0  0
  -26.6258  -33.6081   23.5108 C   0  0  1  0  0  0  0  0  0  0  0  0
  -24.3772  -31.2243   21.5886 C   0  0  1  0  0  0  0  0  0  0  0  0
  -27.8587  -12.3666   19.2601 C   0  0  2  0  0  0  0  0  0  0  0  0
  -28.1225  -23.7367   16.7215 C   0  0  0  0  0  0  0  0  0  0  0  0
  -30.5445  -24.6410   18.9313 C   0  0  0  0  0  0  0  0  0  0  0  0
  -18.3797  -26.4553   22.7243 C   0  0  0  0  0  0  0  0  0  0  0  0
  -23.4547  -29.4454   25.7533 C   0  0  0  0  0  0  0  0  0  0  0  0
  -21.6205  -27.7424   25.8166 C   0  0  0  0  0  0  0  0  0  0  0  0
  -21.0680  -30.1578   25.5280 C   0  0  0  0  0  0  0  0  0  0  0  0
  -19.9896  -27.3260   19.3888 C   0  0  0  0  0  0  0  0  0  0  0  0
  -29.1333  -24.1122   19.0996 C   0  0  2  0  0  0  0  0  0  0  0  0
  -22.1235  -28.8902   23.6119 C   0  0  1  0  0  0  0  0  0  0  0  0
  -19.2315  -27.2755   21.7682 C   0  0  2  0  0  0  0  0  0  0  0  0
  -22.0866  -29.0579   25.1572 C   0  0  0  0  0  0  0  0  0  0  0  0
  -25.7856  -11.8518   20.4926 N   0  0  0  0  0  0  0  0  0  0  0  0
  -27.5480  -25.6652   18.1691 N   0  0  0  0  0  0  0  0  0  1  0  0
  -26.4635  -11.7750   19.3347 N   0  0  0  0  0  0  0  0  0  0  0  0
  -23.7559  -30.0138   22.1299 N   0  0  0  0  0  0  0  0  0  0  0  0
  -29.3763  -14.1372   20.0553 N   0  0  0  0  0  0  0  0  0  0  0  0
  -26.3128  -10.9855   17.1065 N   0  0  0  0  0  0  0  0  0  0  0  0
  -22.3370   -9.8121   18.8989 N   0  0  0  0  0  0  0  0  0  0  0  0
  -28.6422  -16.2422   19.2856 N   0  0  0  0  0  0  0  0  0  0  0  0
  -29.1416  -22.6547   19.0756 N   0  0  0  0  0  0  0  0  0  0  0  0
  -25.6419  -32.9990   22.6417 N   0  0  0  0  0  0  0  0  0  0  0  0
  -20.8356  -28.5498   23.0170 N   0  0  0  0  0  0  0  0  0  0  0  0
  -27.2898  -22.3985   20.5063 N   0  3  0  0  0  0  0  0  0  0  0  0
  -19.2103  -26.6130   20.4334 N   0  3  0  0  0  0  0  0  0  0  0  0
  -23.6158   -9.7401   16.9967 O   0  0  0  0  0  0  0  0  0  0  0  0
  -26.0687  -30.7723   23.1728 O   0  0  0  0  0  0  0  0  0  0  0  0
  -21.9574  -31.1861   23.0395 O   0  0  0  0  0  0  0  0  0  0  0  0
  -21.5273  -26.5693   22.0289 O   0  0  0  0  0  0  0  0  0  0  0  0
  -30.9019  -15.8075   19.5795 O   0  0  0  0  0  0  0  0  0  0  0  0
  -20.6681  -10.7754   24.1259 O   0  0  0  0  0  0  0  0  0  0  0  0
  -27.8103  -26.2297   19.4288 O   0  0  0  0  0  0  0  0  0  1  0  0
  -18.1427   -5.9013   24.6447 F   0  0  0  0  0  0  0  0  0  0  0  0
  -26.3471  -17.6136   18.4954 F   0  0  0  0  0  0  0  0  0  0  0  0
  -20.7732   -9.3695   26.5040 F   0  0  0  0  0  0  0  0  0  0  0  0
  1  2  1  0  0  0  0
  1  6  2  0  0  0  0
  2  7  2  0  0  0  0
  3 10  2  0  0  0  0
  3 18  1  0  0  0  0
  4 11  1  0  0  0  0
  4 18  2  0  0  0  0
  5  9  2  0  0  0  0
  5 19  1  0  0  0  0
  6 21  1  0  0  0  0
  7 23  1  0  0  0  0
  8 12  2  0  0  0  0
  8 22  1  0  0  0  0
  9 25  1  0  0  0  0
 10 26  1  0  0  0  0
 11 26  2  0  0  0  0
 12 27  1  0  0  0  0
 13 14  2  0  0  0  0
 13 28  1  0  0  0  0
 14 29  1  0  0  0  0
 15 19  2  0  0  0  0
 15 30  1  0  0  0  0
 16 24  1  0  0  0  0
 16 27  2  0  0  0  0
 17 29  2  0  0  0  0
 17 31  1  0  0  0  0
 18 32  1  0  0  0  0
 19 34  1  0  0  0  0
 20 32  1  0  0  0  0
 20 33  2  0  0  0  0
 20 35  1  0  0  0  0
 21 23  2  0  0  0  0
 21 41  1  0  0  0  0
 22 24  2  0  0  0  0
 22 42  1  0  0  0  0
 23 50  1  0  0  0  0
 24 43  1  0  0  0  0
 25 30  2  0  0  0  0
 25 71  1  0  0  0  0
 26 82  1  0  0  0  0
 27 83  1  0  0  0  0
 28 31  2  0  0  0  0
 28 82  1  0  0  0  0
 29 84  1  0  0  0  0
 30 85  1  0  0  0  0
 31 86  1  0  0  0  0
 32 64  2  0  0  0  0
 33 66  1  0  0  0  0
 33 69  1  0  0  0  0
 34 72  1  0  0  0  0
 34 75  2  0  0  0  0
 35 70  1  0  0  0  0
 35 77  2  0  0  0  0
 36 51  1  0  0  0  0
 36 73  1  0  0  0  0
 36 78  2  0  0  0  0
 37 53  1  0  0  0  0
 37 60  1  0  0  0  0
 37 65  2  0  0  0  0
 38 61  1  0  0  0  0
 38 67  1  0  0  0  0
 38 79  2  0  0  0  0
 39 62  1  0  0  0  0
 39 74  1  0  0  0  0
 39 80  2  0  0  0  0
 40 68  1  0  0  0  0
 40 71  1  0  0  0  0
 40 81  2  0  0  0  0
 41 44  1  0  0  0  0
 42 51  1  0  0  0  0
 43 67  1  0  0  0  0
 44 46  1  0  0  0  0
 45 47  1  0  0  0  0
 45 48  1  0  0  0  0
 46 50  1  0  0  0  0
 47 52  1  0  0  0  0
 48 68  1  0  0  0  0
 49 52  1  0  0  0  0
 49 68  1  0  0  0  0
 50 73  1  0  0  0  0
 51 67  1  0  0  0  0
 52 66  1  0  0  0  0
 54 60  1  0  0  0  0
 55 62  1  0  0  0  0
 56 63  1  0  0  0  0
 57 63  1  0  0  0  0
 58 63  1  0  0  0  0
 59 76  1  0  0  0  0
 60 72  1  0  0  0  0
 61 63  1  0  0  0  0
 61 74  1  0  0  0  0
 62 76  1  0  0  0  0
 64 66  1  0  0  0  0
 65 83  1  0  0  0  0
M  CHG  2  75   1  76   1
M  ISO  4  40 100  65 101  71 100  83 101
M  END
> <Batch ID>
0079

> <Smiles>
CNC(C)C(=O)NC(C(=O)N1Cc2cc([101O:1][101N:1]=C(C)C(C)NC(=N)c3ccc([100NH:0][100C:0](=O)N4CCCC(n5nc(-c6ccc(Oc7ccc(F)cc7F)cc6)c(C(N)=O)c5N)C4)c(F)c3)ccc2CC1C(=O)NC1CCCc2ccccc21)C(C)(C)C

> <Shape>
0.327

> <Color>
0.076

> <Negative vol penalty>
0.000

$$$$

  -OEChem-04042323593D

 86 95  0     1  0  0  0  0  0999 V2000
  -24.2017  -29.5992   19.5785 C   0  0  0  0  0  0  0  0  0  0  0  0
  -25.0155  -28.6900   20.2468 C   0  0  0  0  0  0  0  0  0  0  0  0
  -32.8995  -17.1583   23.5213 C   0  0  0  0  0  0  0  0  0  0  0  0
  -23.0086   -9.9992   19.9058 C   0  0  0  0  0  0  0  0  0  0  0  0
  -23.8652   -9.8268   22.1582 C   0  0  0  0  0  0  0  0  0  0  0  0
  -23.8651  -30.8086   20.1850 C   0  0  0  0  0  0  0  0  0  0  0  0
  -25.4941  -28.9903   21.5216 C   0  0  0  0  0  0  0  0  0  0  0  0
  -25.0861  -25.0850   24.7197 C   0  0  0  0  0  0  0  0  0  0  0  0
  -32.1566  -17.9855   24.3635 C   0  0  0  0  0  0  0  0  0  0  0  0
  -32.2511  -16.3543   22.5838 C   0  0  0  0  0  0  0  0  0  0  0  0
  -22.2497   -8.8461   20.1061 C   0  0  0  0  0  0  0  0  0  0  0  0
  -23.1063   -8.6737   22.3586 C   0  0  0  0  0  0  0  0  0  0  0  0
  -26.0359  -24.0703   24.6100 C   0  0  0  0  0  0  0  0  0  0  0  0
  -19.8892   -7.8991   23.0447 C   0  0  0  0  0  0  0  0  0  0  0  0
  -19.1820   -7.7905   24.2421 C   0  0  0  0  0  0  0  0  0  0  0  0
  -27.2376  -25.0010   26.4832 C   0  0  0  0  0  0  0  0  0  0  0  0
  -20.4087   -5.7810   24.7843 C   0  0  0  0  0  0  0  0  0  0  0  0
  -23.8164  -10.4895   20.9318 C   0  0  0  0  0  0  0  0  0  0  0  0
  -24.2107  -13.0095   20.9757 C   0  0  0  0  0  0  0  0  0  0  0  0
  -24.3319  -31.1197   21.4719 C   0  0  0  0  0  0  0  0  0  0  0  0
  -25.2110  -26.0732   25.7067 C   0  0  0  0  0  0  0  0  0  0  0  0
  -25.1645  -30.2056   22.1454 C   0  0  0  0  0  0  0  0  0  0  0  0
  -26.2867  -26.0257   26.6049 C   0  0  0  0  0  0  0  0  0  0  0  0
  -30.7652  -18.0088   24.2683 C   0  0  0  0  0  0  0  0  0  0  0  0
  -30.8596  -16.3775   22.4887 C   0  0  0  0  0  0  0  0  0  0  0  0
  -22.2986   -8.1834   21.3325 C   0  0  0  0  0  0  0  0  0  0  0  0
  -27.1134  -24.0298   25.4900 C   0  0  0  0  0  0  0  0  0  0  0  0
  -20.8562   -6.9486   22.7171 C   0  0  0  0  0  0  0  0  0  0  0  0
  -19.4418   -6.7315   25.1119 C   0  0  0  0  0  0  0  0  0  0  0  0
  -21.1159   -5.8896   23.5869 C   0  0  0  0  0  0  0  0  0  0  0  0
  -30.1167  -17.2047   23.3309 C   0  0  0  0  0  0  0  0  0  0  0  0
  -24.6010  -11.6802   20.7253 C   0  0  0  0  0  0  0  0  0  0  0  0
  -25.3034  -13.7612   20.6186 C   0  0  0  0  0  0  0  0  0  0  0  0
  -29.1740  -19.8606   24.6607 C   0  0  0  0  0  0  0  0  0  0  0  0
  -28.4440  -20.6805   25.4373 C   0  0  0  0  0  0  0  0  0  0  0  0
  -29.0472  -19.1914   27.3565 C   0  0  0  0  0  0  0  0  0  0  0  0
  -28.4964  -18.4497   28.3296 C   0  0  0  0  0  0  0  0  0  0  0  0
  -22.9714  -13.5191   21.4856 C   0  0  0  0  0  0  0  0  0  0  0  0
  -25.5732  -29.2311   25.6860 C   0  0  0  0  0  0  0  0  0  0  0  0
  -25.2285  -28.9008   28.8945 C   0  0  0  0  0  0  0  0  0  0  0  0
  -25.4724  -26.8926   31.6431 C   0  0  0  0  0  0  0  0  0  0  0  0
  -30.7946  -14.6827   20.6260 C   0  0  0  0  0  0  0  0  0  0  0  0
  -23.9800  -32.4599   22.0674 C   0  0  0  0  0  0  0  0  0  0  0  0
  -24.1636  -27.1458   25.8288 C   0  0  0  0  0  0  0  0  0  0  0  0
  -26.4555  -27.0512   27.6950 C   0  0  0  0  0  0  0  0  0  0  0  0
  -28.4598  -20.5194   26.9377 C   0  0  0  0  0  0  0  0  0  0  0  0
  -30.2597  -18.7236   26.5799 C   0  0  0  0  0  0  0  0  0  0  0  0
  -24.2219  -32.5400   23.5725 C   0  0  0  0  0  0  0  0  0  0  0  0
  -29.5254  -12.4673   18.1444 C   0  0  0  0  0  0  0  0  0  0  0  0
  -25.5906  -31.9659   23.9246 C   0  0  0  0  0  0  0  0  0  0  0  0
  -28.0990  -12.1744   18.6152 C   0  0  0  0  0  0  0  0  0  0  0  0
  -30.4958  -12.5912   19.3177 C   0  0  0  0  0  0  0  0  0  0  0  0
  -28.6664  -13.2527   20.8293 C   0  0  0  0  0  0  0  0  0  0  0  0
  -25.6831  -30.4845   23.5395 C   0  0  1  0  0  0  0  0  0  0  0  0
  -24.6678  -28.3947   26.5453 C   0  0  1  0  0  0  0  0  0  0  0  0
  -27.6407  -13.1836   19.6862 C   0  0  2  0  0  0  0  0  0  0  0  0
  -25.1595  -26.9147   34.1329 C   0  0  0  0  0  0  0  0  0  0  0  0
  -27.8479  -30.4340   29.2077 C   0  0  0  0  0  0  0  0  0  0  0  0
  -27.9670  -29.6101   31.5689 C   0  0  0  0  0  0  0  0  0  0  0  0
  -26.0694  -31.0610   30.8502 C   0  0  0  0  0  0  0  0  0  0  0  0
  -23.3853  -24.7981   31.5159 C   0  0  0  0  0  0  0  0  0  0  0  0
  -27.5969  -21.7826   24.8799 C   0  0  0  0  0  0  0  0  0  1  0  0
  -26.1684  -28.6642   30.0520 C   0  0  1  0  0  0  0  0  0  0  0  0
  -24.5100  -26.6303   32.7875 C   0  0  2  0  0  0  0  0  0  0  0  0
  -27.0113  -29.9240   30.3981 C   0  0  0  0  0  0  0  0  0  0  0  0
  -25.8444  -11.5895   20.2460 N   0  0  0  0  0  0  0  0  0  0  0  0
  -26.2449  -12.8712   20.1923 N   0  0  0  0  0  0  0  0  0  0  0  0
  -30.0110  -18.8529   25.1273 N   0  0  0  0  0  0  0  0  0  0  0  0
  -25.4085  -28.0836   27.7696 N   0  0  0  0  0  0  0  0  0  0  0  0
  -29.9984  -13.5675   20.2895 N   0  0  0  0  0  0  0  0  0  0  0  0
  -25.5410  -15.0900   20.6307 N   0  0  0  0  0  0  0  0  0  0  0  0
  -21.9541  -12.6084   21.8019 N   0  0  0  0  0  0  0  0  0  0  0  0
  -30.2040  -15.5594   21.5354 N   0  0  0  0  0  0  0  0  0  0  0  0
  -24.9902  -29.6655   24.5109 N   0  0  0  0  0  0  0  0  0  0  0  0
  -25.3453  -28.1751   31.1528 N   0  0  0  0  0  0  0  0  0  0  0  0
  -24.0628  -25.2087   32.7726 N   0  3  0  0  0  0  0  0  0  0  0  0
  -22.7661  -14.7469   21.6401 O   0  0  0  0  0  0  0  0  0  0  0  0
  -26.7155  -29.4663   26.0621 O   0  0  0  0  0  0  0  0  0  0  0  0
  -24.3619  -29.7736   28.9880 O   0  0  0  0  0  0  0  0  0  0  0  0
  -26.2607  -26.0459   31.2283 O   0  0  0  0  0  0  0  0  0  0  0  0
  -31.9064  -14.8620   20.1222 O   0  0  0  0  0  0  0  0  0  0  0  0
  -21.5580   -7.0583   21.5284 O   0  0  0  0  0  0  0  0  0  0  0  0
  -28.0422  -23.0409   25.3847 O   0  0  0  0  0  0  0  0  0  1  0  0
  -18.7636   -6.6281   26.2624 F   0  0  0  0  0  0  0  0  0  0  0  0
  -22.0445   -4.9741   23.2782 F   0  0  0  0  0  0  0  0  0  0  0  0
  -28.7781  -17.2276   23.2395 F   0  0  0  0  0  0  0  0  0  0  0  0
  1  2  1  0  0  0  0
  1  6  2  0  0  0  0
  2  7  2  0  0  0  0
  3  9  2  0  0  0  0
  3 10  1  0  0  0  0
  4 11  2  0  0  0  0
  4 18  1  0  0  0  0
  5 12  1  0  0  0  0
  5 18  2  0  0  0  0
  6 20  1  0  0  0  0
  7 22  1  0  0  0  0
  8 13  2  0  0  0  0
  8 21  1  0  0  0  0
  9 24  1  0  0  0  0
 10 25  2  0  0  0  0
 11 26  1  0  0  0  0
 12 26  2  0  0  0  0
 13 27  1  0  0  0  0
 14 15  2  0  0  0  0
 14 28  1  0  0  0  0
 15 29  1  0  0  0  0
 16 23  1  0  0  0  0
 16 27  2  0  0  0  0
 17 29  2  0  0  0  0
 17 30  1  0  0  0  0
 18 32  1  0  0  0  0
 19 32  1  0  0  0  0
 19 33  2  0  0  0  0
 19 38  1  0  0  0  0
 20 22  2  0  0  0  0
 20 43  1  0  0  0  0
 21 23  2  0  0  0  0
 21 44  1  0  0  0  0
 22 54  1  0  0  0  0
 23 45  1  0  0  0  0
 24 31  2  0  0  0  0
 24 68  1  0  0  0  0
 25 31  1  0  0  0  0
 25 73  1  0  0  0  0
 26 82  1  0  0  0  0
 27 83  1  0  0  0  0
 28 30  2  0  0  0  0
 28 82  1  0  0  0  0
 29 84  1  0  0  0  0
 30 85  1  0  0  0  0
 31 86  1  0  0  0  0
 32 66  2  0  0  0  0
 33 67  1  0  0  0  0
 33 71  1  0  0  0  0
 34 35  2  0  0  0  0
 34 68  1  0  0  0  0
 35 46  1  0  0  0  0
 35 62  1  0  0  0  0
 36 37  2  0  0  0  0
 36 46  1  0  0  0  0
 36 47  1  0  0  0  0
 38 72  1  0  0  0  0
 38 77  2  0  0  0  0
 39 55  1  0  0  0  0
 39 74  1  0  0  0  0
 39 78  2  0  0  0  0
 40 63  1  0  0  0  0
 40 69  1  0  0  0  0
 40 79  2  0  0  0  0
 41 64  1  0  0  0  0
 41 75  1  0  0  0  0
 41 80  2  0  0  0  0
 42 70  1  0  0  0  0
 42 73  1  0  0  0  0
 42 81  2  0  0  0  0
 43 48  1  0  0  0  0
 44 55  1  0  0  0  0
 45 69  1  0  0  0  0
 47 68  1  0  0  0  0
 48 50  1  0  0  0  0
 49 51  1  0  0  0  0
 49 52  1  0  0  0  0
 50 54  1  0  0  0  0
 51 56  1  0  0  0  0
 52 70  1  0  0  0  0
 53 56  1  0  0  0  0
 53 70  1  0  0  0  0
 54 74  1  0  0  0  0
 55 69  1  0  0  0  0
 56 67  1  0  0  0  0
 57 64  1  0  0  0  0
 58 65  1  0  0  0  0
 59 65  1  0  0  0  0
 60 65  1  0  0  0  0
 61 76  1  0  0  0  0
 62 83  1  0  0  0  0
 63 65  1  0  0  0  0
 63 75  1  0  0  0  0
 64 76  1  0  0  0  0
 66 67  1  0  0  0  0
M  CHG  1  76   1
M  ISO  4  42 100  62 101  73 100  83 101
M  END
> <Batch ID>
0079

> <Smiles>
C=C1CC([101CH2:1][101O:1]c2ccc3c(c2)CN(C(=O)C(NC(=O)C(C)NC)C(C)(C)C)C(C(=O)NC2CCCc4ccccc42)C3)=CN(c2cccc([100NH:0][100C:0](=O)N3CCCC(n4nc(-c5ccc(Oc6ccc(F)cc6F)cc5)c(C(N)=O)c4N)C3)c2F)C1

> <Shape>
0.238

> <Color>
0.216

> <Negative vol penalty>
0.000

$$$$

  -OEChem-04042323593D

 87 96  0     1  0  0  0  0  0999 V2000
  -27.3974  -24.0418   17.1400 C   0  0  0  0  0  0  0  0  0  0  0  0
  -26.2286  -24.4057   17.8010 C   0  0  0  0  0  0  0  0  0  0  0  0
  -27.5648  -14.0133   20.4114 C   0  0  0  0  0  0  0  0  0  0  0  0
  -26.2498  -14.2447   22.4250 C   0  0  0  0  0  0  0  0  0  0  0  0
  -28.6350  -24.4359   17.6468 C   0  0  0  0  0  0  0  0  0  0  0  0
  -26.2968  -25.1629   18.9699 C   0  0  0  0  0  0  0  0  0  0  0  0
  -22.9285  -28.9438   19.0347 C   0  0  0  0  0  0  0  0  0  0  0  0
  -28.5232  -13.2893   21.1205 C   0  0  0  0  0  0  0  0  0  0  0  0
  -27.2082  -13.5206   23.1341 C   0  0  0  0  0  0  0  0  0  0  0  0
  -21.6072  -28.6144   19.3339 C   0  0  0  0  0  0  0  0  0  0  0  0
  -31.0700  -13.9430   23.2445 C   0  0  0  0  0  0  0  0  0  0  0  0
  -32.4107  -14.2660   23.0355 C   0  0  0  0  0  0  0  0  0  0  0  0
  -21.9399  -29.3653   21.6021 C   0  0  0  0  0  0  0  0  0  0  0  0
  -16.8199  -21.2058   20.7602 C   0  0  0  0  0  0  0  0  0  0  0  0
  -19.1133  -21.8614   20.3763 C   0  0  0  0  0  0  0  0  0  0  0  0
  -18.4435  -19.5628   20.0521 C   0  0  0  0  0  0  0  0  0  0  0  0
  -32.8343  -12.0136   22.2711 C   0  0  0  0  0  0  0  0  0  0  0  0
  -26.4281  -14.4911   21.0637 C   0  0  0  0  0  0  0  0  0  0  0  0
  -24.3135  -14.7283   19.6565 C   0  0  0  0  0  0  0  0  0  0  0  0
  -28.7181  -25.2065   18.8172 C   0  0  0  0  0  0  0  0  0  0  0  0
  -23.7699  -29.4772   20.0216 C   0  0  0  0  0  0  0  0  0  0  0  0
  -27.5368  -25.5665   19.4936 C   0  0  0  0  0  0  0  0  0  0  0  0
  -23.2706  -29.7031   21.3122 C   0  0  0  0  0  0  0  0  0  0  0  0
  -17.8076  -22.1905   20.7404 C   0  0  0  0  0  0  0  0  0  0  0  0
  -17.1379  -19.8919   20.4161 C   0  0  0  0  0  0  0  0  0  0  0  0
  -19.4313  -20.5475   20.0322 C   0  0  0  0  0  0  0  0  0  0  0  0
  -28.3449  -13.0429   22.4818 C   0  0  0  0  0  0  0  0  0  0  0  0
  -21.1135  -28.8224   20.6185 C   0  0  0  0  0  0  0  0  0  0  0  0
  -30.6114  -12.6552   22.9668 C   0  0  0  0  0  0  0  0  0  0  0  0
  -33.2928  -13.3014   22.5488 C   0  0  0  0  0  0  0  0  0  0  0  0
  -31.4935  -11.6905   22.4801 C   0  0  0  0  0  0  0  0  0  0  0  0
  -25.4380  -15.2396   20.3319 C   0  0  0  0  0  0  0  0  0  0  0  0
  -23.6974  -15.8362   19.1279 C   0  0  0  0  0  0  0  0  0  0  0  0
  -16.3040  -25.3666   21.7442 C   0  0  0  0  0  0  0  0  0  0  0  0
  -17.6817  -25.7598   21.5150 C   0  0  0  0  0  0  0  0  0  0  0  0
  -15.2868  -26.1424   22.1394 C   0  0  0  0  0  0  0  0  0  0  0  0
  -18.2165  -26.9766   21.6505 C   0  0  0  0  0  0  0  0  0  0  0  0
  -23.8660  -13.3731   19.5194 C   0  0  0  0  0  0  0  0  0  0  0  0
  -19.6530  -27.1887   21.3699 C   0  0  0  0  0  0  0  0  0  1  0  0
  -26.4776  -28.5475   21.4028 C   0  0  0  0  0  0  0  0  0  0  0  0
  -26.3212  -31.4766   22.7876 C   0  0  0  0  0  0  0  0  0  0  0  0
  -24.3961  -34.1175   23.7708 C   0  0  0  0  0  0  0  0  0  0  0  0
  -21.8554  -21.0704   19.5890 C   0  0  0  0  0  0  0  0  0  0  0  0
  -30.0807  -25.5687   19.3528 C   0  0  0  0  0  0  0  0  0  0  0  0
  -25.1849  -29.8522   19.6758 C   0  0  0  0  0  0  0  0  0  0  0  0
  -24.1273  -30.2921   22.4021 C   0  0  0  0  0  0  0  0  0  0  0  0
  -16.1608  -23.8976   21.4674 C   0  0  0  0  0  0  0  0  0  0  0  0
  -18.4697  -24.5564   21.0836 C   0  0  0  0  0  0  0  0  0  0  0  0
  -30.0494  -26.6873   20.3910 C   0  0  0  0  0  0  0  0  0  0  0  0
  -25.2885  -20.6270   18.7556 C   0  0  0  0  0  0  0  0  0  0  0  0
  -28.9496  -26.4329   21.4169 C   0  0  0  0  0  0  0  0  0  0  0  0
  -25.5409  -19.1438   19.0359 C   0  0  0  0  0  0  0  0  0  0  0  0
  -24.3277  -21.2408   19.7724 C   0  0  0  0  0  0  0  0  0  0  0  0
  -23.3080  -19.0423   20.2152 C   0  0  0  0  0  0  0  0  0  0  0  0
  -27.5686  -26.4085   20.7507 C   0  0  1  0  0  0  0  0  0  0  0  0
  -26.1022  -29.9103   20.8934 C   0  0  1  0  0  0  0  0  0  0  0  0
  -24.2190  -18.3643   19.1788 C   0  0  2  0  0  0  0  0  0  0  0  0
  -24.5462  -36.3486   24.9096 C   0  0  0  0  0  0  0  0  0  0  0  0
  -26.6011  -30.0783   25.4851 C   0  0  0  0  0  0  0  0  0  0  0  0
  -25.8021  -32.1830   26.5805 C   0  0  0  0  0  0  0  0  0  0  0  0
  -27.9206  -32.1912   25.2634 C   0  0  0  0  0  0  0  0  0  0  0  0
  -23.3821  -35.5362   21.3796 C   0  0  0  0  0  0  0  0  0  0  0  0
  -25.7079  -32.0306   24.0509 C   0  0  1  0  0  0  0  0  0  0  0  0
  -24.5647  -35.6138   23.5782 C   0  0  2  0  0  0  0  0  0  0  0  0
  -26.4921  -31.6079   25.3252 C   0  0  0  0  0  0  0  0  0  0  0  0
  -25.5332  -16.5688   20.2419 N   0  0  0  0  0  0  0  0  0  0  0  0
  -24.4607  -16.9021   19.5038 N   0  0  0  0  0  0  0  0  0  0  0  0
  -17.4984  -23.4686   21.0753 N   0  0  3  0  0  0  0  0  0  0  0  0
  -25.5057  -30.6365   22.0163 N   0  0  0  0  0  0  0  0  0  0  0  0
  -23.0963  -20.4520   19.8508 N   0  0  0  0  0  0  0  0  0  0  0  0
  -16.1392  -18.8962   20.4365 N   0  0  0  0  0  0  0  0  0  0  0  0
  -22.5827  -15.9928   18.3827 N   0  0  0  0  0  0  0  0  0  0  0  0
  -24.6169  -12.3569   20.1257 N   0  0  0  0  0  0  0  0  0  0  0  0
  -20.7575  -20.2137   19.6614 N   0  0  0  0  0  0  0  0  0  0  0  0
  -27.1190  -27.7551   20.4699 N   0  0  0  0  0  0  0  0  0  0  0  0
  -25.6122  -33.4737   23.8595 N   0  0  0  0  0  0  0  0  0  0  0  0
  -23.4661  -36.1537   22.7281 N   0  3  0  0  0  0  0  0  0  0  0  0
  -22.8398  -13.0707   18.8644 O   0  0  0  0  0  0  0  0  0  0  0  0
  -20.5326  -26.3540   21.5159 O   0  0  0  0  0  0  0  0  0  0  0  0
  -26.2067  -28.2382   22.5572 O   0  0  0  0  0  0  0  0  0  0  0  0
  -27.4788  -31.7840   22.4922 O   0  0  0  0  0  0  0  0  0  0  0  0
  -23.2956  -33.5745   23.8396 O   0  0  0  0  0  0  0  0  0  0  0  0
  -21.7755  -22.2656   19.2935 O   0  0  0  0  0  0  0  0  0  0  0  0
  -29.2798  -12.3363   23.1740 O   0  0  0  0  0  0  0  0  0  0  0  0
  -19.8245  -28.5011   20.9133 O   0  0  0  0  0  0  0  0  0  1  0  0
  -34.5800  -13.6122   22.3467 F   0  0  0  0  0  0  0  0  0  0  0  0
  -31.0585  -10.4521   22.2103 F   0  0  0  0  0  0  0  0  0  0  0  0
  1  2  1  0  0  0  0
  1  5  2  0  0  0  0
  2  6  2  0  0  0  0
  3  8  2  0  0  0  0
  3 18  1  0  0  0  0
  4  9  1  0  0  0  0
  4 18  2  0  0  0  0
  5 20  1  0  0  0  0
  6 22  1  0  0  0  0
  7 10  2  0  0  0  0
  7 21  1  0  0  0  0
  8 27  1  0  0  0  0
  9 27  2  0  0  0  0
 10 28  1  0  0  0  0
 11 12  2  0  0  0  0
 11 29  1  0  0  0  0
 12 30  1  0  0  0  0
 13 23  1  0  0  0  0
 13 28  2  0  0  0  0
 14 24  1  0  0  0  0
 14 25  2  0  0  0  0
 15 24  2  0  0  0  0
 15 26  1  0  0  0  0
 16 25  1  0  0  0  0
 16 26  2  0  0  0  0
 17 30  2  0  0  0  0
 17 31  1  0  0  0  0
 18 32  1  0  0  0  0
 19 32  1  0  0  0  0
 19 33  2  0  0  0  0
 19 38  1  0  0  0  0
 20 22  2  0  0  0  0
 20 44  1  0  0  0  0
 21 23  2  0  0  0  0
 21 45  1  0  0  0  0
 22 55  1  0  0  0  0
 23 46  1  0  0  0  0
 24 68  1  0  0  0  0
 25 71  1  0  0  0  0
 26 74  1  0  0  0  0
 27 84  1  0  0  0  0
 28 85  1  0  0  0  0
 29 31  2  0  0  0  0
 29 84  1  0  0  0  0
 30 86  1  0  0  0  0
 31 87  1  0  0  0  0
 32 66  2  0  0  0  0
 33 67  1  0  0  0  0
 33 72  1  0  0  0  0
 34 35  1  0  0  0  0
 34 36  2  0  0  0  0
 34 47  1  0  0  0  0
 35 37  2  0  0  0  0
 35 48  1  0  0  0  0
 37 39  1  0  0  0  0
 38 73  1  0  0  0  0
 38 78  2  0  0  0  0
 39 79  2  0  0  0  0
 39 85  1  0  0  0  0
 40 56  1  0  0  0  0
 40 75  1  0  0  0  0
 40 80  2  0  0  0  0
 41 63  1  0  0  0  0
 41 69  1  0  0  0  0
 41 81  2  0  0  0  0
 42 64  1  0  0  0  0
 42 76  1  0  0  0  0
 42 82  2  0  0  0  0
 43 70  1  0  0  0  0
 43 74  1  0  0  0  0
 43 83  2  0  0  0  0
 44 49  1  0  0  0  0
 45 56  1  0  0  0  0
 46 69  1  0  0  0  0
 47 68  1  0  0  0  0
 48 68  1  0  0  0  0
 49 51  1  0  0  0  0
 50 52  1  0  0  0  0
 50 53  1  0  0  0  0
 51 55  1  0  0  0  0
 52 57  1  0  0  0  0
 53 70  1  0  0  0  0
 54 57  1  0  0  0  0
 54 70  1  0  0  0  0
 55 75  1  0  0  0  0
 56 69  1  0  0  0  0
 57 67  1  0  0  0  0
 58 64  1  0  0  0  0
 59 65  1  0  0  0  0
 60 65  1  0  0  0  0
 61 65  1  0  0  0  0
 62 77  1  0  0  0  0
 63 65  1  0  0  0  0
 63 76  1  0  0  0  0
 64 77  1  0  0  0  0
 66 67  1  0  0  0  0
M  CHG  1  77   1
M  ISO  4  39 101  43 100  74 100  85 101
M  END
> <Batch ID>
0079

> <Smiles>
C=C1CN(c2cc(N)cc([100NH:0][100C:0](=O)N3CCCC(n4nc(-c5ccc(Oc6ccc(F)cc6F)cc5)c(C(N)=O)c4N)C3)c2)CC1=C[101C:1](=O)[101O:1]c1ccc2c(c1)CN(C(=O)C(NC(=O)C(C)NC)C(C)(C)C)C(C(=O)NC1CCCc3ccccc31)C2

> <Shape>
0.244

> <Color>
0.053

> <Negative vol penalty>
0.000

$$$$

  -OEChem-04042323593D

 86 94  0     1  0  0  0  0  0999 V2000
  -17.9106  -30.9695   22.4985 C   0  0  0  0  0  0  0  0  0  0  0  0
  -19.2897  -31.1271   22.4052 C   0  0  0  0  0  0  0  0  0  0  0  0
  -25.4710  -13.4769   22.0127 C   0  0  0  0  0  0  0  0  0  0  0  0
  -26.2636  -13.7587   19.7479 C   0  0  0  0  0  0  0  0  0  0  0  0
  -17.3660  -29.6990   22.6807 C   0  0  0  0  0  0  0  0  0  0  0  0
  -20.1251  -30.0143   22.4952 C   0  0  0  0  0  0  0  0  0  0  0  0
  -25.4050  -29.1247   19.5224 C   0  0  0  0  0  0  0  0  0  0  0  0
  -24.4971  -12.5863   21.5611 C   0  0  0  0  0  0  0  0  0  0  0  0
  -25.2897  -12.8681   19.2962 C   0  0  0  0  0  0  0  0  0  0  0  0
  -26.7357  -29.2936   19.9029 C   0  0  0  0  0  0  0  0  0  0  0  0
  -24.3315   -9.3424   20.6216 C   0  0  0  0  0  0  0  0  0  0  0  0
  -24.1496   -8.1614   21.3410 C   0  0  0  0  0  0  0  0  0  0  0  0
  -30.1816  -22.6447   18.9019 C   0  0  0  0  0  0  0  0  0  0  0  0
  -31.4453  -22.5016   16.8478 C   0  0  0  0  0  0  0  0  0  0  0  0
  -26.8665  -26.9509   20.4631 C   0  0  0  0  0  0  0  0  0  0  0  0
  -29.7562  -20.8472   17.3446 C   0  0  0  0  0  0  0  0  0  0  0  0
  -21.8532   -8.7771   21.7711 C   0  0  0  0  0  0  0  0  0  0  0  0
  -26.3543  -14.0631   21.1061 C   0  0  0  0  0  0  0  0  0  0  0  0
  -31.1659  -23.1485   18.0516 C   0  0  0  0  0  0  0  0  0  0  0  0
  -28.6678  -14.6733   21.9908 C   0  0  0  0  0  0  0  0  0  0  0  0
  -18.1947  -28.5689   22.7632 C   0  0  0  0  0  0  0  0  0  0  0  0
  -24.7909  -27.8679   19.6199 C   0  0  0  0  0  0  0  0  0  0  0  0
  -19.5912  -28.7276   22.6800 C   0  0  0  0  0  0  0  0  0  0  0  0
  -25.5287  -26.7682   20.0808 C   0  0  0  0  0  0  0  0  0  0  0  0
  -29.4768  -21.4940   18.5484 C   0  0  0  0  0  0  0  0  0  0  0  0
  -24.4065  -12.2819   20.2029 C   0  0  0  0  0  0  0  0  0  0  0  0
  -27.4657  -28.2072   20.3760 C   0  0  0  0  0  0  0  0  0  0  0  0
  -23.2744  -10.2409   20.4770 C   0  0  0  0  0  0  0  0  0  0  0  0
  -22.9104   -7.8787   21.9157 C   0  0  0  0  0  0  0  0  0  0  0  0
  -30.7405  -21.3510   16.4943 C   0  0  0  0  0  0  0  0  0  0  0  0
  -22.0353   -9.9582   21.0517 C   0  0  0  0  0  0  0  0  0  0  0  0
  -27.3601  -14.9836   21.5719 C   0  0  0  0  0  0  0  0  0  0  0  0
  -29.2157  -15.8856   22.3324 C   0  0  0  0  0  0  0  0  0  0  0  0
  -29.7178  -27.6428   20.0920 C   0  0  0  0  0  0  0  0  0  1  0  0
  -31.9185  -24.3721   18.4286 C   0  0  0  0  0  0  0  0  0  0  0  0
  -29.3283  -13.4029   22.0644 C   0  0  0  0  0  0  0  0  0  0  0  0
  -30.8696  -27.2375   20.6495 C   0  0  0  0  0  0  0  0  0  0  0  0
  -31.7909  -26.4432   19.7616 C   0  0  0  0  0  0  0  0  0  0  0  0
  -22.3259  -26.6961   21.2491 C   0  0  0  0  0  0  0  0  0  0  0  0
  -22.9116  -24.0463   19.4721 C   0  0  0  0  0  0  0  0  0  0  0  0
  -25.1429  -22.2114   17.6551 C   0  0  0  0  0  0  0  0  0  0  0  0
  -28.0756  -21.5023   20.6420 C   0  0  0  0  0  0  0  0  0  0  0  0
  -17.5626  -27.2216   23.0077 C   0  0  0  0  0  0  0  0  0  0  0  0
  -23.3627  -27.6966   19.1803 C   0  0  0  0  0  0  0  0  0  0  0  0
  -24.9218  -25.3937   20.1855 C   0  0  0  0  0  0  0  0  0  0  0  0
  -18.4962  -26.0491   22.7178 C   0  0  0  0  0  0  0  0  0  0  0  0
  -27.9958  -20.2202   23.9626 C   0  0  0  0  0  0  0  0  0  0  0  0
  -19.8673  -26.2918   23.3406 C   0  0  0  0  0  0  0  0  0  0  0  0
  -27.9489  -18.7034   23.7646 C   0  0  0  0  0  0  0  0  0  0  0  0
  -27.1859  -20.9566   22.8971 C   0  0  0  0  0  0  0  0  0  0  0  0
  -27.4763  -19.0926   21.3126 C   0  0  0  0  0  0  0  0  0  0  0  0
  -20.5290  -27.5418   22.7480 C   0  0  1  0  0  0  0  0  0  0  0  0
  -22.6865  -26.4808   19.8064 C   0  0  1  0  0  0  0  0  0  0  0  0
  -28.3309  -18.3111   22.3238 C   0  0  2  0  0  0  0  0  0  0  0  0
  -31.2346  -27.5393   22.0729 C   0  0  0  0  0  0  0  0  0  0  0  0
  -25.3400  -20.0729   16.3569 C   0  0  0  0  0  0  0  0  0  0  0  0
  -23.0389  -22.4750   22.0845 C   0  0  0  0  0  0  0  0  0  0  0  0
  -24.1519  -20.6155   20.8308 C   0  0  0  0  0  0  0  0  0  0  0  0
  -21.8346  -21.3132   20.2259 C   0  0  0  0  0  0  0  0  0  0  0  0
  -25.7929  -23.6539   15.1540 C   0  0  0  0  0  0  0  0  0  0  0  0
  -23.7768  -22.8199   19.6345 C   0  0  1  0  0  0  0  0  0  0  0  0
  -25.0352  -21.5611   16.2876 C   0  0  2  0  0  0  0  0  0  0  0  0
  -23.2117  -21.8321   20.6939 C   0  0  0  0  0  0  0  0  0  0  0  0
  -27.0932  -16.2906   21.6406 N   0  0  0  0  0  0  0  0  0  0  0  0
  -28.2407  -16.8122   22.1066 N   0  0  0  0  0  0  0  0  0  0  0  0
  -23.5203  -25.2785   19.7495 N   0  0  0  0  0  0  0  0  0  0  0  0
  -27.6054  -20.5376   21.5579 N   0  0  0  0  0  0  0  0  0  0  0  0
  -30.4315  -16.2387   22.8011 N   0  0  0  0  0  0  0  0  0  0  0  0
  -28.6199  -12.2580   21.6748 N   0  0  0  0  0  0  0  0  0  0  0  0
  -28.4768  -20.9821   19.4119 N   0  0  0  0  0  0  0  0  0  0  0  0
  -31.2454  -25.2580   19.2708 N   0  0  0  0  0  0  0  0  0  0  0  0
  -21.0754  -27.2524   21.4396 N   0  0  0  0  0  0  0  0  0  0  0  0
  -23.9254  -22.2458   18.3015 N   0  0  0  0  0  0  0  0  0  0  0  0
  -25.9929  -22.1932   15.3366 N   0  3  0  0  0  0  0  0  0  0  0  0
  -33.0652  -24.5177   18.0142 O   0  0  0  0  0  0  0  0  0  0  0  0
  -30.5061  -13.2844   22.4793 O   0  0  0  0  0  0  0  0  0  0  0  0
  -32.9280  -26.8357   19.5035 O   0  0  0  0  0  0  0  0  0  0  0  0
  -23.1226  -26.3794   22.1248 O   0  0  0  0  0  0  0  0  0  0  0  0
  -21.7410  -23.9164   19.1054 O   0  0  0  0  0  0  0  0  0  0  0  0
  -26.2018  -22.6420   18.1064 O   0  0  0  0  0  0  0  0  0  0  0  0
  -28.1447  -22.6981   20.9373 O   0  0  0  0  0  0  0  0  0  0  0  0
  -23.4564  -11.4127   19.7619 O   0  0  0  0  0  0  0  0  0  0  0  0
  -28.7645  -28.3694   20.7486 O   0  0  0  0  0  0  0  0  0  1  0  0
  -22.7354   -6.7437   22.6052 F   0  0  0  0  0  0  0  0  0  0  0  0
  -31.0109  -20.7281   15.3397 F   0  0  0  0  0  0  0  0  0  0  0  0
  -21.0156  -10.8170   20.9151 F   0  0  0  0  0  0  0  0  0  0  0  0
  1  2  1  0  0  0  0
  1  5  2  0  0  0  0
  2  6  2  0  0  0  0
  3  8  2  0  0  0  0
  3 18  1  0  0  0  0
  4  9  1  0  0  0  0
  4 18  2  0  0  0  0
  5 21  1  0  0  0  0
  6 23  1  0  0  0  0
  7 10  2  0  0  0  0
  7 22  1  0  0  0  0
  8 26  1  0  0  0  0
  9 26  2  0  0  0  0
 10 27  1  0  0  0  0
 11 12  2  0  0  0  0
 11 28  1  0  0  0  0
 12 29  1  0  0  0  0
 13 19  2  0  0  0  0
 13 25  1  0  0  0  0
 14 19  1  0  0  0  0
 14 30  2  0  0  0  0
 15 24  1  0  0  0  0
 15 27  2  0  0  0  0
 16 25  2  0  0  0  0
 16 30  1  0  0  0  0
 17 29  2  0  0  0  0
 17 31  1  0  0  0  0
 18 32  1  0  0  0  0
 19 35  1  0  0  0  0
 20 32  1  0  0  0  0
 20 33  2  0  0  0  0
 20 36  1  0  0  0  0
 21 23  2  0  0  0  0
 21 43  1  0  0  0  0
 22 24  2  0  0  0  0
 22 44  1  0  0  0  0
 23 52  1  0  0  0  0
 24 45  1  0  0  0  0
 25 70  1  0  0  0  0
 26 82  1  0  0  0  0
 27 83  1  0  0  0  0
 28 31  2  0  0  0  0
 28 82  1  0  0  0  0
 29 84  1  0  0  0  0
 30 85  1  0  0  0  0
 31 86  1  0  0  0  0
 32 64  2  0  0  0  0
 33 65  1  0  0  0  0
 33 68  1  0  0  0  0
 34 37  2  0  0  0  0
 34 83  1  0  0  0  0
 35 71  1  0  0  0  0
 35 75  2  0  0  0  0
 36 69  1  0  0  0  0
 36 76  2  0  0  0  0
 37 38  1  0  0  0  0
 37 55  1  0  0  0  0
 38 71  1  0  0  0  0
 38 77  2  0  0  0  0
 39 53  1  0  0  0  0
 39 72  1  0  0  0  0
 39 78  2  0  0  0  0
 40 61  1  0  0  0  0
 40 66  1  0  0  0  0
 40 79  2  0  0  0  0
 41 62  1  0  0  0  0
 41 73  1  0  0  0  0
 41 80  2  0  0  0  0
 42 67  1  0  0  0  0
 42 70  1  0  0  0  0
 42 81  2  0  0  0  0
 43 46  1  0  0  0  0
 44 53  1  0  0  0  0
 45 66  1  0  0  0  0
 46 48  1  0  0  0  0
 47 49  1  0  0  0  0
 47 50  1  0  0  0  0
 48 52  1  0  0  0  0
 49 54  1  0  0  0  0
 50 67  1  0  0  0  0
 51 54  1  0  0  0  0
 51 67  1  0  0  0  0
 52 72  1  0  0  0  0
 53 66  1  0  0  0  0
 54 65  1  0  0  0  0
 56 62  1  0  0  0  0
 57 63  1  0  0  0  0
 58 63  1  0  0  0  0
 59 63  1  0  0  0  0
 60 74  1  0  0  0  0
 61 63  1  0  0  0  0
 61 73  1  0  0  0  0
 62 74  1  0  0  0  0
 64 65  1  0  0  0  0
M  CHG  1  74   1
M  ISO  4  34 101  42 100  70 100  83 101
M  END
> <Batch ID>
0079

> <Smiles>
CNC(C)C(=O)NC(C(=O)N1Cc2cc([101O:1][101CH:1]=C(C)C(=O)NC(=O)c3cc(F)cc([100NH:0][100C:0](=O)N4CCCC(n5nc(-c6ccc(Oc7ccc(F)cc7F)cc6)c(C(N)=O)c5N)C4)c3)ccc2CC1C(=O)NC1CCCc2ccccc21)C(C)(C)C

> <Shape>
0.262

> <Color>
0.067

> <Negative vol penalty>
0.000

$$$$

  -OEChem-04042323593D

 91100  0     1  0  0  0  0  0999 V2000
  -31.3632  -26.5626   18.3853 C   0  0  0  0  0  0  0  0  0  0  0  0
  -30.4842  -25.9178   19.2496 C   0  0  0  0  0  0  0  0  0  0  0  0
  -27.8225  -17.0691   19.7006 C   0  0  0  0  0  0  0  0  0  0  0  0
  -22.5285  -11.4398   20.8657 C   0  0  0  0  0  0  0  0  0  0  0  0
  -23.4936  -13.2026   22.2067 C   0  0  0  0  0  0  0  0  0  0  0  0
  -31.3975  -27.9556   18.3392 C   0  0  0  0  0  0  0  0  0  0  0  0
  -29.6397  -26.6658   20.0691 C   0  0  0  0  0  0  0  0  0  0  0  0
  -24.8994  -24.8845   20.1157 C   0  0  0  0  0  0  0  0  0  0  0  0
  -27.1733  -17.6813   20.7726 C   0  0  0  0  0  0  0  0  0  0  0  0
  -28.9136  -16.2314   19.9322 C   0  0  0  0  0  0  0  0  0  0  0  0
  -21.2667  -12.0143   21.0186 C   0  0  0  0  0  0  0  0  0  0  0  0
  -22.2318  -13.7771   22.3596 C   0  0  0  0  0  0  0  0  0  0  0  0
  -24.6501  -23.7583   20.8988 C   0  0  0  0  0  0  0  0  0  0  0  0
  -20.1353  -15.7010   20.5366 C   0  0  0  0  0  0  0  0  0  0  0  0
  -20.0292  -17.0819   20.3710 C   0  0  0  0  0  0  0  0  0  0  0  0
  -23.7426  -25.1711   22.6308 C   0  0  0  0  0  0  0  0  0  0  0  0
  -28.7064  -16.6185   22.3080 C   0  0  0  0  0  0  0  0  0  0  0  0
  -19.2142  -17.2909   22.6358 C   0  0  0  0  0  0  0  0  0  0  0  0
  -23.6420  -12.0339   21.4598 C   0  0  0  0  0  0  0  0  0  0  0  0
  -25.3461  -10.1509   21.7000 C   0  0  0  0  0  0  0  0  0  0  0  0
  -30.5462  -28.7210   19.1517 C   0  0  0  0  0  0  0  0  0  0  0  0
  -24.5817  -26.1655   20.5895 C   0  0  0  0  0  0  0  0  0  0  0  0
  -29.6636  -28.0704   20.0349 C   0  0  0  0  0  0  0  0  0  0  0  0
  -23.9865  -26.3117   21.8507 C   0  0  0  0  0  0  0  0  0  0  0  0
  -27.6153  -17.4560   22.0763 C   0  0  0  0  0  0  0  0  0  0  0  0
  -29.3556  -16.0062   21.2359 C   0  0  0  0  0  0  0  0  0  0  0  0
  -21.1183  -13.1830   21.7655 C   0  0  0  0  0  0  0  0  0  0  0  0
  -24.0743  -23.9017   22.1578 C   0  0  0  0  0  0  0  0  0  0  0  0
  -19.7807  -15.1150   21.7517 C   0  0  0  0  0  0  0  0  0  0  0  0
  -19.5687  -17.8769   21.4206 C   0  0  0  0  0  0  0  0  0  0  0  0
  -19.3202  -15.9099   22.8013 C   0  0  0  0  0  0  0  0  0  0  0  0
  -24.9456  -11.4406   21.3026 C   0  0  0  0  0  0  0  0  0  0  0  0
  -26.6666  -10.0723   21.3304 C   0  0  0  0  0  0  0  0  0  0  0  0
  -25.5680  -19.8684   24.2475 C   0  0  0  0  0  0  0  0  0  0  0  0
  -25.6480  -19.1736   25.5218 C   0  0  0  0  0  0  0  0  0  0  0  0
  -26.3106  -19.3433   23.0382 C   0  0  0  0  0  0  0  0  0  0  0  0
  -25.5976  -19.7752   26.7212 C   0  0  0  0  0  0  0  0  0  0  0  0
  -33.4266  -14.4234   23.4747 C   0  0  0  0  0  0  0  0  0  0  0  0
  -24.8030  -20.9576   24.0556 C   0  0  0  0  0  0  0  0  0  0  0  0
  -32.2335  -14.2084   22.9116 C   0  0  0  0  0  0  0  0  0  0  0  0
  -24.5919   -9.1163   22.3453 C   0  0  0  0  0  0  0  0  0  0  0  0
  -31.3302  -15.3554   22.5859 C   0  0  0  0  0  0  0  0  0  0  0  0
  -26.2482  -28.7913   21.2466 C   0  0  0  0  0  0  0  0  0  0  0  0
  -23.3048  -30.0727   21.7127 C   0  0  0  0  0  0  0  0  0  0  0  0
  -20.2030  -29.0550   23.2490 C   0  0  0  0  0  0  0  0  0  0  0  0
  -30.8761  -14.2398   20.4575 C   0  0  0  0  0  0  0  0  0  0  0  0
  -30.6527  -30.2246   19.1011 C   0  0  0  0  0  0  0  0  0  0  0  0
  -24.8324  -27.3680   19.7215 C   0  0  0  0  0  0  0  0  0  0  0  0
  -23.6080  -27.6633   22.3970 C   0  0  0  0  0  0  0  0  0  0  0  0
  -25.8558  -17.6988   25.3922 C   0  0  0  0  0  0  0  0  0  0  0  0
  -29.4610  -30.9412   19.7309 C   0  0  0  0  0  0  0  0  0  0  0  0
  -29.7802  -11.7737   18.1314 C   0  0  0  0  0  0  0  0  0  0  0  0
  -29.1156  -30.3184   21.0798 C   0  0  0  0  0  0  0  0  0  0  0  0
  -28.4412  -11.3046   18.6992 C   0  0  0  0  0  0  0  0  0  0  0  0
  -27.0634  -17.4462   24.5062 C   0  0  0  0  0  0  0  0  0  0  0  0
  -29.9826  -13.2685   18.3544 C   0  0  0  0  0  0  0  0  0  0  0  0
  -28.5367  -13.2166   20.3654 C   0  0  0  0  0  0  0  0  0  0  0  0
  -28.7143  -28.8469   20.9216 C   0  0  1  0  0  0  0  0  0  0  0  0
  -24.9413  -28.6660   20.5157 C   0  0  1  0  0  0  0  0  0  0  0  0
  -28.2987  -11.7073   20.1772 C   0  0  1  0  0  0  0  0  0  0  0  0
  -17.8412  -29.7617   22.7801 C   0  0  0  0  0  0  0  0  0  0  0  0
  -23.7753  -32.1002   23.9438 C   0  0  0  0  0  0  0  0  0  0  0  0
  -21.4231  -31.7043   24.7046 C   0  0  0  0  0  0  0  0  0  0  0  0
  -21.8567  -32.6384   22.4326 C   0  0  0  0  0  0  0  0  0  0  0  0
  -19.3285  -26.2600   22.8222 C   0  0  0  0  0  0  0  0  0  0  0  0
  -24.7040  -21.6882   22.7576 C   0  0  0  0  0  0  0  0  0  1  0  0
  -22.3713  -30.2060   22.8916 C   0  0  1  0  0  0  0  0  0  0  0  0
  -18.9082  -28.7056   22.5376 C   0  0  2  0  0  0  0  0  0  0  0  0
  -22.3750  -31.6406   23.4911 C   0  0  0  0  0  0  0  0  0  0  0  0
  -25.9319  -12.1318   20.7250 N   0  0  0  0  0  0  0  0  0  0  0  0
  -26.9652  -11.2731   20.7568 N   0  0  0  0  0  0  0  0  0  0  0  0
  -26.9413  -18.0908   23.1874 N   0  0  0  0  0  0  0  0  0  0  0  0
  -23.8788  -28.8091   21.5132 N   0  0  0  0  0  0  0  0  0  0  0  0
  -29.8181  -13.6184   19.7653 N   0  0  0  0  0  0  0  0  0  0  0  0
  -27.5898   -9.0939   21.4435 N   0  0  0  0  0  0  0  0  0  0  0  0
  -23.2473   -9.3633   22.6543 N   0  0  0  0  0  0  0  0  0  0  0  0
  -27.3587  -28.7432   20.4257 N   0  0  0  0  0  0  0  0  0  0  0  0
  -21.0632  -29.7548   22.4295 N   0  0  0  0  0  0  0  0  0  0  0  0
  -30.4900  -15.1352   21.4760 N   0  0  0  0  0  0  0  0  0  0  0  0
  -18.3897  -27.3943   23.0199 N   0  3  0  0  0  0  0  0  0  0  0  0
  -26.3534  -20.0324   22.0173 O   0  0  0  0  0  0  0  0  0  0  0  0
  -25.0999   -8.0117   22.6541 O   0  0  0  0  0  0  0  0  0  0  0  0
  -31.4027  -16.4011   23.2300 O   0  0  0  0  0  0  0  0  0  0  0  0
  -26.2488  -28.9235   22.4649 O   0  0  0  0  0  0  0  0  0  0  0  0
  -23.5113  -31.0516   20.9911 O   0  0  0  0  0  0  0  0  0  0  0  0
  -20.4272  -28.7419   24.4161 O   0  0  0  0  0  0  0  0  0  0  0  0
  -32.0683  -14.0574   20.1883 O   0  0  0  0  0  0  0  0  0  0  0  0
  -19.8873  -13.7440   21.9148 O   0  0  0  0  0  0  0  0  0  0  0  0
  -23.8304  -22.8042   22.9245 O   0  0  0  0  0  0  0  0  0  1  0  0
  -19.4684  -19.2031   21.2620 F   0  0  0  0  0  0  0  0  0  0  0  0
  -18.9792  -15.3528   23.9714 F   0  0  0  0  0  0  0  0  0  0  0  0
  1  2  1  0  0  0  0
  1  6  2  0  0  0  0
  2  7  2  0  0  0  0
  3  9  1  0  0  0  0
  3 10  2  0  0  0  0
  4 11  2  0  0  0  0
  4 19  1  0  0  0  0
  5 12  1  0  0  0  0
  5 19  2  0  0  0  0
  6 21  1  0  0  0  0
  7 23  1  0  0  0  0
  8 13  2  0  0  0  0
  8 22  1  0  0  0  0
  9 25  2  0  0  0  0
 10 26  1  0  0  0  0
 11 27  1  0  0  0  0
 12 27  2  0  0  0  0
 13 28  1  0  0  0  0
 14 15  2  0  0  0  0
 14 29  1  0  0  0  0
 15 30  1  0  0  0  0
 16 24  1  0  0  0  0
 16 28  2  0  0  0  0
 17 25  1  0  0  0  0
 17 26  2  0  0  0  0
 18 30  2  0  0  0  0
 18 31  1  0  0  0  0
 19 32  1  0  0  0  0
 20 32  1  0  0  0  0
 20 33  2  0  0  0  0
 20 41  1  0  0  0  0
 21 23  2  0  0  0  0
 21 47  1  0  0  0  0
 22 24  2  0  0  0  0
 22 48  1  0  0  0  0
 23 58  1  0  0  0  0
 24 49  1  0  0  0  0
 25 72  1  0  0  0  0
 26 79  1  0  0  0  0
 27 88  1  0  0  0  0
 28 89  1  0  0  0  0
 29 31  2  0  0  0  0
 29 88  1  0  0  0  0
 30 90  1  0  0  0  0
 31 91  1  0  0  0  0
 32 70  2  0  0  0  0
 33 71  1  0  0  0  0
 33 75  1  0  0  0  0
 34 35  1  0  0  0  0
 34 36  1  0  0  0  0
 34 39  2  0  0  0  0
 35 37  2  0  0  0  0
 35 50  1  0  0  0  0
 36 72  1  0  0  0  0
 36 81  2  0  0  0  0
 38 40  2  0  0  0  0
 39 66  1  0  0  0  0
 40 42  1  0  0  0  0
 41 76  1  0  0  0  0
 41 82  2  0  0  0  0
 42 79  1  0  0  0  0
 42 83  2  0  0  0  0
 43 59  1  0  0  0  0
 43 77  1  0  0  0  0
 43 84  2  0  0  0  0
 44 67  1  0  0  0  0
 44 73  1  0  0  0  0
 44 85  2  0  0  0  0
 45 68  1  0  0  0  0
 45 78  1  0  0  0  0
 45 86  2  0  0  0  0
 46 74  1  0  0  0  0
 46 79  1  0  0  0  0
 46 87  2  0  0  0  0
 47 51  1  0  0  0  0
 48 59  1  0  0  0  0
 49 73  1  0  0  0  0
 50 55  1  0  0  0  0
 51 53  1  0  0  0  0
 52 54  1  0  0  0  0
 52 56  1  0  0  0  0
 53 58  1  0  0  0  0
 54 60  1  0  0  0  0
 55 72  1  0  0  0  0
 56 74  1  0  0  0  0
 57 60  1  0  0  0  0
 57 74  1  0  0  0  0
 58 77  1  0  0  0  0
 59 73  1  0  0  0  0
 60 71  1  0  0  0  0
 61 68  1  0  0  0  0
 62 69  1  0  0  0  0
 63 69  1  0  0  0  0
 64 69  1  0  0  0  0
 65 80  1  0  0  0  0
 66 89  1  0  0  0  0
 67 69  1  0  0  0  0
 67 78  1  0  0  0  0
 68 80  1  0  0  0  0
 70 71  1  0  0  0  0
M  CHG  1  80   1
M  ISO  4  46 100  66 101  79 100  89 101
M  END
> <Batch ID>
0079

> <Smiles>
C=CC(=O)[100N:0](c1cccc(N2CCC(=C)C(=C[101CH2:1][101O:1]c3ccc4c(c3)CN(C(=O)C(NC(=O)C(C)NC)C(C)(C)C)C(C(=O)NC3CCCc5ccccc53)C4)C2=O)c1)[100C:0](=O)N1CCCC(n2nc(-c3ccc(Oc4ccc(F)cc4F)cc3)c(C(N)=O)c2N)C1

> <Shape>
0.259

> <Color>
0.056

> <Negative vol penalty>
0.000

$$$$

  -OEChem-04042323593D

 83 92  0     1  0  0  0  0  0999 V2000
  -27.4248  -37.7304   23.7537 C   0  0  0  0  0  0  0  0  0  0  0  0
  -27.9985  -36.7839   22.9108 C   0  0  0  0  0  0  0  0  0  0  0  0
  -24.1875   -9.3817   22.3078 C   0  0  0  0  0  0  0  0  0  0  0  0
  -22.9352  -11.3776   21.7738 C   0  0  0  0  0  0  0  0  0  0  0  0
  -26.5598  -37.3248   24.7691 C   0  0  0  0  0  0  0  0  0  0  0  0
  -27.7083  -35.4310   23.0836 C   0  0  0  0  0  0  0  0  0  0  0  0
  -26.8951  -29.3740   19.3463 C   0  0  0  0  0  0  0  0  0  0  0  0
  -28.8739  -18.4577   19.6747 C   0  0  0  0  0  0  0  0  0  0  0  0
  -23.3396   -9.1388   23.3883 C   0  0  0  0  0  0  0  0  0  0  0  0
  -22.0873  -11.1347   22.8544 C   0  0  0  0  0  0  0  0  0  0  0  0
  -27.3518  -28.0571   19.3168 C   0  0  0  0  0  0  0  0  0  0  0  0
  -20.2445   -7.8735   23.8906 C   0  0  0  0  0  0  0  0  0  0  0  0
  -19.7762   -6.5715   24.0671 C   0  0  0  0  0  0  0  0  0  0  0  0
  -28.5967  -19.8129   19.8159 C   0  0  0  0  0  0  0  0  0  0  0  0
  -25.7813  -27.4799   21.0545 C   0  0  0  0  0  0  0  0  0  0  0  0
  -20.8148   -6.4935   26.2471 C   0  0  0  0  0  0  0  0  0  0  0  0
  -26.6124  -18.1162   19.0224 C   0  0  0  0  0  0  0  0  0  0  0  0
  -23.9854  -10.5012   21.5005 C   0  0  0  0  0  0  0  0  0  0  0  0
  -24.7035  -10.3001   19.0610 C   0  0  0  0  0  0  0  0  0  0  0  0
  -26.2513  -35.9671   24.9483 C   0  0  0  0  0  0  0  0  0  0  0  0
  -25.8839  -29.7569   20.2393 C   0  0  0  0  0  0  0  0  0  0  0  0
  -26.8394  -35.0067   24.1033 C   0  0  0  0  0  0  0  0  0  0  0  0
  -25.3117  -28.8017   21.0916 C   0  0  0  0  0  0  0  0  0  0  0  0
  -27.8684  -17.5865   19.2708 C   0  0  0  0  0  0  0  0  0  0  0  0
  -22.2895  -10.0152   23.6616 C   0  0  0  0  0  0  0  0  0  0  0  0
  -26.7969  -27.1104   20.1730 C   0  0  0  0  0  0  0  0  0  0  0  0
  -20.9981   -8.4854   24.8922 C   0  0  0  0  0  0  0  0  0  0  0  0
  -20.0613   -5.8815   25.2453 C   0  0  0  0  0  0  0  0  0  0  0  0
  -21.2833   -7.7954   26.0705 C   0  0  0  0  0  0  0  0  0  0  0  0
  -24.8613  -10.7530   20.3845 C   0  0  0  0  0  0  0  0  0  0  0  0
  -27.3081  -20.2430   19.5428 C   0  0  0  0  0  0  0  0  0  0  0  0
  -25.7921  -10.8055   18.3931 C   0  0  0  0  0  0  0  0  0  0  0  0
  -26.6672  -23.5474   19.7931 C   0  0  0  0  0  0  0  0  0  0  0  0
  -25.9204  -22.3226   19.5041 C   0  0  0  0  0  0  0  0  0  0  0  0
  -26.3428  -24.8392   19.8470 C   0  0  0  0  0  0  0  0  0  1  0  0
  -23.6657   -9.4948   18.4866 C   0  0  0  0  0  0  0  0  0  0  0  0
  -25.6883  -31.8050   22.6622 C   0  0  0  0  0  0  0  0  0  0  0  0
  -22.5518  -30.9800   22.5969 C   0  0  0  0  0  0  0  0  0  0  0  0
  -20.1777  -28.6816   21.7438 C   0  0  0  0  0  0  0  0  0  0  0  0
  -29.3250  -15.5320   19.3330 C   0  0  0  0  0  0  0  0  0  0  0  0
  -25.3478  -35.5725   26.0897 C   0  0  0  0  0  0  0  0  0  0  0  0
  -25.3838  -31.1754   20.2400 C   0  0  0  0  0  0  0  0  0  0  0  0
  -24.2096  -29.1571   22.0546 C   0  0  0  0  0  0  0  0  0  0  0  0
  -27.9107  -22.7106   19.9886 C   0  0  0  0  0  0  0  0  0  0  0  0
  -24.7986  -34.1533   25.9691 C   0  0  0  0  0  0  0  0  0  0  0  0
  -30.3399  -12.1269   19.1044 C   0  0  0  0  0  0  0  0  0  0  0  0
  -25.9133  -33.1788   25.6023 C   0  0  0  0  0  0  0  0  0  0  0  0
  -29.0348  -11.3471   19.2802 C   0  0  0  0  0  0  0  0  0  0  0  0
  -30.3767  -13.3763   19.9826 C   0  0  0  0  0  0  0  0  0  0  0  0
  -27.9160  -13.4910   20.0142 C   0  0  0  0  0  0  0  0  0  0  0  0
  -26.5298  -33.5320   24.2433 C   0  0  1  0  0  0  0  0  0  0  0  0
  -24.7068  -31.5696   21.5491 C   0  0  1  0  0  0  0  0  0  0  0  0
  -27.8051  -12.2588   19.1014 C   0  0  2  0  0  0  0  0  0  0  0  0
  -17.7044  -28.2714   21.8515 C   0  0  0  0  0  0  0  0  0  0  0  0
  -22.7937  -30.3157   25.5651 C   0  0  0  0  0  0  0  0  0  0  0  0
  -20.6414  -29.0493   25.3857 C   0  0  0  0  0  0  0  0  0  0  0  0
  -20.6854  -31.5014   24.9299 C   0  0  0  0  0  0  0  0  0  0  0  0
  -19.9537  -28.5507   18.7957 C   0  0  0  0  0  0  0  0  0  0  0  0
  -21.7136  -29.9108   23.2552 C   0  0  1  0  0  0  0  0  0  0  0  0
  -18.8511  -28.8249   21.0200 C   0  0  2  0  0  0  0  0  0  0  0  0
  -21.4806  -30.1877   24.7673 C   0  0  0  0  0  0  0  0  0  0  0  0
  -26.3053  -19.4266   19.1484 N   0  0  0  0  0  0  0  0  0  0  0  0
  -25.9634  -11.4893   20.5497 N   0  0  0  0  0  0  0  0  0  0  0  0
  -26.5080  -11.5029   19.3211 N   0  0  0  0  0  0  0  0  0  0  0  0
  -27.0441  -21.5855   19.6850 N   0  0  0  0  0  0  0  0  0  0  0  0
  -23.7592  -30.5584   22.0222 N   0  0  0  0  0  0  0  0  0  0  0  0
  -29.1827  -14.1937   19.7564 N   0  0  0  0  0  0  0  0  0  0  0  0
  -26.1972  -10.7169   17.1084 N   0  0  0  0  0  0  0  0  0  0  0  0
  -22.6216   -9.0603   19.3145 N   0  0  0  0  0  0  0  0  0  0  0  0
  -28.1200  -16.2003   19.1189 N   0  0  0  0  0  0  0  0  0  0  0  0
  -25.6681  -33.0909   23.1675 N   0  0  0  0  0  0  0  0  0  0  0  0
  -20.4880  -29.8119   22.4701 N   0  0  0  0  0  0  0  0  0  0  0  0
  -18.8871  -28.0925   19.7226 N   0  3  0  0  0  0  0  0  0  0  0  0
  -24.7718  -22.0651   19.2092 O   0  0  0  0  0  0  0  0  0  0  0  0
  -23.6728   -9.1563   17.2787 O   0  0  0  0  0  0  0  0  0  0  0  0
  -26.4094  -30.8874   23.0360 O   0  0  0  0  0  0  0  0  0  0  0  0
  -22.1467  -32.1451   22.5866 O   0  0  0  0  0  0  0  0  0  0  0  0
  -20.8678  -27.6669   21.6751 O   0  0  0  0  0  0  0  0  0  0  0  0
  -30.4341  -16.0390   19.1459 O   0  0  0  0  0  0  0  0  0  0  0  0
  -21.4617   -9.7783   24.7158 O   0  0  0  0  0  0  0  0  0  0  0  0
  -27.2413  -25.8244   20.1467 O   0  0  0  0  0  0  0  0  0  1  0  0
  -19.6101   -4.6318   25.4154 F   0  0  0  0  0  0  0  0  0  0  0  0
  -22.0057   -8.3785   27.0368 F   0  0  0  0  0  0  0  0  0  0  0  0
  1  2  1  0  0  0  0
  1  5  2  0  0  0  0
  2  6  2  0  0  0  0
  3  9  2  0  0  0  0
  3 18  1  0  0  0  0
  4 10  1  0  0  0  0
  4 18  2  0  0  0  0
  5 20  1  0  0  0  0
  6 22  1  0  0  0  0
  7 11  2  0  0  0  0
  7 21  1  0  0  0  0
  8 14  2  0  0  0  0
  8 24  1  0  0  0  0
  9 25  1  0  0  0  0
 10 25  2  0  0  0  0
 11 26  1  0  0  0  0
 12 13  2  0  0  0  0
 12 27  1  0  0  0  0
 13 28  1  0  0  0  0
 14 31  1  0  0  0  0
 15 23  1  0  0  0  0
 15 26  2  0  0  0  0
 16 28  2  0  0  0  0
 16 29  1  0  0  0  0
 17 24  2  0  0  0  0
 17 62  1  0  0  0  0
 18 30  1  0  0  0  0
 19 30  1  0  0  0  0
 19 32  2  0  0  0  0
 19 36  1  0  0  0  0
 20 22  2  0  0  0  0
 20 41  1  0  0  0  0
 21 23  2  0  0  0  0
 21 42  1  0  0  0  0
 22 51  1  0  0  0  0
 23 43  1  0  0  0  0
 24 70  1  0  0  0  0
 25 80  1  0  0  0  0
 26 81  1  0  0  0  0
 27 29  2  0  0  0  0
 27 80  1  0  0  0  0
 28 82  1  0  0  0  0
 29 83  1  0  0  0  0
 30 63  2  0  0  0  0
 31 62  2  0  0  0  0
 31 65  1  0  0  0  0
 32 64  1  0  0  0  0
 32 68  1  0  0  0  0
 33 34  1  0  0  0  0
 33 35  2  0  0  0  0
 33 44  1  0  0  0  0
 34 65  1  0  0  0  0
 34 74  2  0  0  0  0
 35 81  1  0  0  0  0
 36 69  1  0  0  0  0
 36 75  2  0  0  0  0
 37 52  1  0  0  0  0
 37 71  1  0  0  0  0
 37 76  2  0  0  0  0
 38 59  1  0  0  0  0
 38 66  1  0  0  0  0
 38 77  2  0  0  0  0
 39 60  1  0  0  0  0
 39 72  1  0  0  0  0
 39 78  2  0  0  0  0
 40 67  1  0  0  0  0
 40 70  1  0  0  0  0
 40 79  2  0  0  0  0
 41 45  1  0  0  0  0
 42 52  1  0  0  0  0
 43 66  1  0  0  0  0
 44 65  1  0  0  0  0
 45 47  1  0  0  0  0
 46 48  1  0  0  0  0
 46 49  1  0  0  0  0
 47 51  1  0  0  0  0
 48 53  1  0  0  0  0
 49 67  1  0  0  0  0
 50 53  1  0  0  0  0
 50 67  1  0  0  0  0
 51 71  1  0  0  0  0
 52 66  1  0  0  0  0
 53 64  1  0  0  0  0
 54 60  1  0  0  0  0
 55 61  1  0  0  0  0
 56 61  1  0  0  0  0
 57 61  1  0  0  0  0
 58 73  1  0  0  0  0
 59 61  1  0  0  0  0
 59 72  1  0  0  0  0
 60 73  1  0  0  0  0
 63 64  1  0  0  0  0
M  CHG  1  73   1
M  ISO  4  35 101  40 100  70 100  81 101
M  END
> <Batch ID>
0079

> <Smiles>
CNC(C)C(=O)NC(C(=O)N1Cc2cc([101O:1][101CH:1]=C3CN(c4ccc([100NH:0][100C:0](=O)N5CCCC(n6nc(-c7ccc(Oc8ccc(F)cc8F)cc7)c(C(N)=O)c6N)C5)cn4)C3=O)ccc2CC1C(=O)NC1CCCc2ccccc21)C(C)(C)C

> <Shape>
0.292

> <Color>
0.087

> <Negative vol penalty>
0.000

$$$$

  -OEChem-04042323593D

 84 92  0     1  0  0  0  0  0999 V2000
  -21.6792  -11.0617   19.9793 C   0  0  0  0  0  0  0  0  0  0  0  0
  -21.4870  -12.2890   20.6056 C   0  0  0  0  0  0  0  0  0  0  0  0
  -18.1427  -27.4870   24.8459 C   0  0  0  0  0  0  0  0  0  0  0  0
  -27.3939  -25.3434   24.3319 C   0  0  0  0  0  0  0  0  0  0  0  0
  -29.3140  -26.4378   23.3560 C   0  0  0  0  0  0  0  0  0  0  0  0
  -18.5255  -28.4681   23.9313 C   0  0  0  0  0  0  0  0  0  0  0  0
  -22.9710  -10.5764   19.7808 C   0  0  0  0  0  0  0  0  0  0  0  0
  -22.5867  -13.0312   21.0348 C   0  0  0  0  0  0  0  0  0  0  0  0
  -23.1171  -19.1322   21.0872 C   0  0  0  0  0  0  0  0  0  0  0  0
  -18.9340  -26.3520   25.0232 C   0  0  0  0  0  0  0  0  0  0  0  0
  -28.0297  -24.1091   24.1987 C   0  0  0  0  0  0  0  0  0  0  0  0
  -29.9498  -25.2035   23.2228 C   0  0  0  0  0  0  0  0  0  0  0  0
  -22.9547  -20.0791   22.0974 C   0  0  0  0  0  0  0  0  0  0  0  0
  -29.2931  -20.7095   24.4472 C   0  0  0  0  0  0  0  0  0  0  0  0
  -29.2433  -19.8339   25.5319 C   0  0  0  0  0  0  0  0  0  0  0  0
  -20.4907  -27.1792   23.3711 C   0  0  0  0  0  0  0  0  0  0  0  0
  -25.3334  -20.0508   22.4979 C   0  0  0  0  0  0  0  0  0  0  0  0
  -30.3682  -21.4722   26.9059 C   0  0  0  0  0  0  0  0  0  0  0  0
  -28.0360  -26.5078   23.9105 C   0  0  0  0  0  0  0  0  0  0  0  0
  -19.6995  -28.3142   23.1939 C   0  0  0  0  0  0  0  0  0  0  0  0
  -27.4415  -28.6572   25.1491 C   0  0  0  0  0  0  0  0  0  0  0  0
  -24.0875  -11.3174   20.1992 C   0  0  0  0  0  0  0  0  0  0  0  0
  -24.3896  -18.6284   20.7816 C   0  0  0  0  0  0  0  0  0  0  0  0
  -23.8947  -12.5546   20.8430 C   0  0  0  0  0  0  0  0  0  0  0  0
  -25.5095  -19.0993   21.4816 C   0  0  0  0  0  0  0  0  0  0  0  0
  -20.1080  -26.1981   24.2858 C   0  0  0  0  0  0  0  0  0  0  0  0
  -29.3076  -24.0391   23.6442 C   0  0  0  0  0  0  0  0  0  0  0  0
  -24.0626  -20.5365   22.8049 C   0  0  0  0  0  0  0  0  0  0  0  0
  -29.8805  -21.9664   24.5918 C   0  0  0  0  0  0  0  0  0  0  0  0
  -29.7808  -20.2153   26.7612 C   0  0  0  0  0  0  0  0  0  0  0  0
  -30.4180  -22.3477   25.8212 C   0  0  0  0  0  0  0  0  0  0  0  0
  -27.3795  -27.7831   24.0474 C   0  0  0  0  0  0  0  0  0  0  0  0
  -26.6522  -29.7216   24.7877 C   0  0  0  0  0  0  0  0  0  0  0  0
  -22.6419  -23.4297   24.2883 C   0  0  0  0  0  0  0  0  0  0  0  0
  -23.3678  -22.6715   23.4603 C   0  0  0  0  0  0  0  0  0  1  0  0
  -20.1059  -29.3599   22.2202 C   0  0  0  0  0  0  0  0  0  0  0  0
  -28.1493  -28.5195   26.3883 C   0  0  0  0  0  0  0  0  0  0  0  0
  -22.1007  -24.7384   23.8186 C   0  0  0  0  0  0  0  0  0  0  0  0
  -25.7435  -15.7538   20.8647 C   0  0  0  0  0  0  0  0  0  0  0  0
  -28.2213  -17.3096   19.4638 C   0  0  0  0  0  0  0  0  0  0  0  0
  -29.8514  -20.2564   18.9113 C   0  0  0  0  0  0  0  0  0  0  0  0
  -22.0615  -30.3397   21.0628 C   0  0  0  0  0  0  0  0  0  0  0  0
  -25.4629  -10.7298   20.0054 C   0  0  0  0  0  0  0  0  0  0  0  0
  -24.5512  -17.6270   19.6709 C   0  0  0  0  0  0  0  0  0  0  0  0
  -26.8996  -18.6053   21.1784 C   0  0  0  0  0  0  0  0  0  0  0  0
  -26.5879  -11.7509   20.1534 C   0  0  0  0  0  0  0  0  0  0  0  0
  -25.1199  -32.1068   20.9224 C   0  0  0  0  0  0  0  0  0  0  0  0
  -26.3718  -12.6068   21.3974 C   0  0  0  0  0  0  0  0  0  0  0  0
  -26.0514  -31.2886   21.8209 C   0  0  0  0  0  0  0  0  0  0  0  0
  -24.1797  -31.2124   20.1156 C   0  0  0  0  0  0  0  0  0  0  0  0
  -24.3458  -29.4246   21.7991 C   0  0  0  0  0  0  0  0  0  0  0  0
  -25.0632  -13.4004   21.3005 C   0  0  1  0  0  0  0  0  0  0  0  0
  -25.8287  -16.8020   19.7915 C   0  0  1  0  0  0  0  0  0  0  0  0
  -25.2643  -30.2824   22.6843 C   0  0  1  0  0  0  0  0  0  0  0  0
  -31.8681  -21.2060   17.7586 C   0  0  0  0  0  0  0  0  0  0  0  0
  -30.0052  -16.2018   21.6775 C   0  0  0  0  0  0  0  0  0  0  0  0
  -31.7296  -17.9026   21.0434 C   0  0  0  0  0  0  0  0  0  0  0  0
  -31.0291  -16.1652   19.3962 C   0  0  0  0  0  0  0  0  0  0  0  0
  -28.1898  -21.9866   17.1779 C   0  0  0  0  0  0  0  0  0  0  0  0
  -29.4397  -18.0478   19.9633 C   0  0  1  0  0  0  0  0  0  0  0  0
  -30.3856  -20.8889   17.6388 C   0  0  2  0  0  0  0  0  0  0  0  0
  -30.5246  -17.0874   20.5274 C   0  0  0  0  0  0  0  0  0  0  0  0
  -26.6114  -28.2515   23.0601 N   0  0  0  0  0  0  0  0  0  0  0  0
  -26.1834  -29.4315   23.5402 N   0  0  0  0  0  0  0  0  0  0  0  0
  -27.0052  -17.6218   20.0879 N   0  0  0  0  0  0  0  0  0  0  0  0
  -23.4655  -30.2963   21.0066 N   0  0  0  0  0  0  0  0  0  0  0  0
  -26.3203  -30.8681   25.4186 N   0  0  0  0  0  0  0  0  0  0  0  0
  -28.9133  -27.3630   26.5964 N   0  0  0  0  0  0  0  0  0  0  0  0
  -20.9115  -25.0455   24.4662 N   0  0  0  0  0  0  0  0  0  0  0  0
  -21.4761  -29.4549   21.9753 N   0  0  0  0  0  0  0  0  0  0  0  0
  -25.2301  -14.5460   20.4320 N   0  0  0  0  0  0  0  0  0  0  0  0
  -29.8959  -18.8795   18.8548 N   0  0  0  0  0  0  0  0  0  0  0  0
  -29.6565  -22.1548   17.3440 N   0  3  0  0  0  0  0  0  0  0  0  0
  -19.2395  -30.0352   21.6714 O   0  0  0  0  0  0  0  0  0  0  0  0
  -28.0924  -29.3884   27.2912 O   0  0  0  0  0  0  0  0  0  0  0  0
  -22.6860  -25.3995   22.9689 O   0  0  0  0  0  0  0  0  0  0  0  0
  -26.1173  -16.0205   22.0008 O   0  0  0  0  0  0  0  0  0  0  0  0
  -28.3428  -16.4914   18.5487 O   0  0  0  0  0  0  0  0  0  0  0  0
  -29.4397  -20.9178   19.8618 O   0  0  0  0  0  0  0  0  0  0  0  0
  -21.3888  -31.1247   20.3872 O   0  0  0  0  0  0  0  0  0  0  0  0
  -29.9285  -22.8348   23.5142 O   0  0  0  0  0  0  0  0  0  0  0  0
  -23.9069  -21.4603   23.7919 O   0  0  0  0  0  0  0  0  0  1  0  0
  -29.7315  -19.3750   27.8032 F   0  0  0  0  0  0  0  0  0  0  0  0
  -30.9825  -23.5544   25.9665 F   0  0  0  0  0  0  0  0  0  0  0  0
  1  2  1  0  0  0  0
  1  7  2  0  0  0  0
  2  8  2  0  0  0  0
  3  6  1  0  0  0  0
  3 10  2  0  0  0  0
  4 11  2  0  0  0  0
  4 19  1  0  0  0  0
  5 12  1  0  0  0  0
  5 19  2  0  0  0  0
  6 20  2  0  0  0  0
  7 22  1  0  0  0  0
  8 24  1  0  0  0  0
  9 13  2  0  0  0  0
  9 23  1  0  0  0  0
 10 26  1  0  0  0  0
 11 27  1  0  0  0  0
 12 27  2  0  0  0  0
 13 28  1  0  0  0  0
 14 15  2  0  0  0  0
 14 29  1  0  0  0  0
 15 30  1  0  0  0  0
 16 20  1  0  0  0  0
 16 26  2  0  0  0  0
 17 25  1  0  0  0  0
 17 28  2  0  0  0  0
 18 30  2  0  0  0  0
 18 31  1  0  0  0  0
 19 32  1  0  0  0  0
 20 36  1  0  0  0  0
 21 32  1  0  0  0  0
 21 33  2  0  0  0  0
 21 37  1  0  0  0  0
 22 24  2  0  0  0  0
 22 43  1  0  0  0  0
 23 25  2  0  0  0  0
 23 44  1  0  0  0  0
 24 52  1  0  0  0  0
 25 45  1  0  0  0  0
 26 69  1  0  0  0  0
 27 81  1  0  0  0  0
 28 82  1  0  0  0  0
 29 31  2  0  0  0  0
 29 81  1  0  0  0  0
 30 83  1  0  0  0  0
 31 84  1  0  0  0  0
 32 63  2  0  0  0  0
 33 64  1  0  0  0  0
 33 67  1  0  0  0  0
 34 35  2  0  0  0  0
 34 38  1  0  0  0  0
 35 82  1  0  0  0  0
 36 70  1  0  0  0  0
 36 74  2  0  0  0  0
 37 68  1  0  0  0  0
 37 75  2  0  0  0  0
 38 69  1  0  0  0  0
 38 76  2  0  0  0  0
 39 53  1  0  0  0  0
 39 71  1  0  0  0  0
 39 77  2  0  0  0  0
 40 60  1  0  0  0  0
 40 65  1  0  0  0  0
 40 78  2  0  0  0  0
 41 61  1  0  0  0  0
 41 72  1  0  0  0  0
 41 79  2  0  0  0  0
 42 66  1  0  0  0  0
 42 70  1  0  0  0  0
 42 80  2  0  0  0  0
 43 46  1  0  0  0  0
 44 53  1  0  0  0  0
 45 65  1  0  0  0  0
 46 48  1  0  0  0  0
 47 49  1  0  0  0  0
 47 50  1  0  0  0  0
 48 52  1  0  0  0  0
 49 54  1  0  0  0  0
 50 66  1  0  0  0  0
 51 54  1  0  0  0  0
 51 66  1  0  0  0  0
 52 71  1  0  0  0  0
 53 65  1  0  0  0  0
 54 64  1  0  0  0  0
 55 61  1  0  0  0  0
 56 62  1  0  0  0  0
 57 62  1  0  0  0  0
 58 62  1  0  0  0  0
 59 73  1  0  0  0  0
 60 62  1  0  0  0  0
 60 72  1  0  0  0  0
 61 73  1  0  0  0  0
 63 64  1  0  0  0  0
M  CHG  1  73   1
M  ISO  4  35 101  42 100  70 100  82 101
M  END
> <Batch ID>
0079

> <Smiles>
CNC(C)C(=O)NC(C(=O)N1Cc2cc([101O:1][101CH:1]=CC(=O)Nc3cccc(C(=O)[100NH:0][100C:0](=O)N4CCCC(n5nc(-c6ccc(Oc7ccc(F)cc7F)cc6)c(C(N)=O)c5N)C4)c3)ccc2CC1C(=O)NC1CCCc2ccccc21)C(C)(C)C

> <Shape>
0.205

> <Color>
0.069

> <Negative vol penalty>
0.000

$$$$

  -OEChem-04042323593D

 85 94  0     1  0  0  0  0  0999 V2000
  -25.8541  -38.4937   22.3939 C   0  0  0  0  0  0  0  0  0  0  0  0
  -26.6225  -37.5942   21.6618 C   0  0  0  0  0  0  0  0  0  0  0  0
  -33.1862  -20.6634   19.2277 C   0  0  0  0  0  0  0  0  0  0  0  0
  -24.4922   -9.1878   21.8183 C   0  0  0  0  0  0  0  0  0  0  0  0
  -23.3464   -9.2522   19.6923 C   0  0  0  0  0  0  0  0  0  0  0  0
  -32.7793  -19.3383   19.3830 C   0  0  0  0  0  0  0  0  0  0  0  0
  -25.1047  -38.0453   23.4807 C   0  0  0  0  0  0  0  0  0  0  0  0
  -26.6427  -36.2459   22.0167 C   0  0  0  0  0  0  0  0  0  0  0  0
  -27.1935  -29.7177   19.1192 C   0  0  0  0  0  0  0  0  0  0  0  0
  -32.2398  -21.6882   19.2280 C   0  0  0  0  0  0  0  0  0  0  0  0
  -23.4364   -8.4587   22.3653 C   0  0  0  0  0  0  0  0  0  0  0  0
  -22.2905   -8.5231   20.2392 C   0  0  0  0  0  0  0  0  0  0  0  0
  -27.9330  -28.5425   19.2447 C   0  0  0  0  0  0  0  0  0  0  0  0
  -22.3462   -5.2580   22.3466 C   0  0  0  0  0  0  0  0  0  0  0  0
  -22.6623   -4.1505   23.1334 C   0  0  0  0  0  0  0  0  0  0  0  0
  -30.4796  -20.0626   19.5385 C   0  0  0  0  0  0  0  0  0  0  0  0
  -26.5364  -27.8682   21.0924 C   0  0  0  0  0  0  0  0  0  0  0  0
  -21.5235   -5.1589   25.0104 C   0  0  0  0  0  0  0  0  0  0  0  0
  -24.4472   -9.5846   20.4818 C   0  0  0  0  0  0  0  0  0  0  0  0
  -31.4260  -19.0379   19.5383 C   0  0  0  0  0  0  0  0  0  0  0  0
  -26.6853   -9.8271   19.2819 C   0  0  0  0  0  0  0  0  0  0  0  0
  -25.1081  -36.6891   23.8433 C   0  0  0  0  0  0  0  0  0  0  0  0
  -26.1249  -29.9825   19.9878 C   0  0  0  0  0  0  0  0  0  0  0  0
  -25.8936  -35.7791   23.1102 C   0  0  0  0  0  0  0  0  0  0  0  0
  -25.7833  -29.0463   20.9742 C   0  0  0  0  0  0  0  0  0  0  0  0
  -30.8866  -21.3878   19.3833 C   0  0  0  0  0  0  0  0  0  0  0  0
  -22.3355   -8.1263   21.5757 C   0  0  0  0  0  0  0  0  0  0  0  0
  -27.6064  -27.6189   20.2333 C   0  0  0  0  0  0  0  0  0  0  0  0
  -21.6188   -6.3161   22.8917 C   0  0  0  0  0  0  0  0  0  0  0  0
  -22.2509   -4.1009   24.4653 C   0  0  0  0  0  0  0  0  0  0  0  0
  -21.2074   -6.2665   24.2236 C   0  0  0  0  0  0  0  0  0  0  0  0
  -25.5373  -10.3383   19.9163 C   0  0  0  0  0  0  0  0  0  0  0  0
  -27.4059  -10.9410   18.9263 C   0  0  0  0  0  0  0  0  0  0  0  0
  -30.1773  -23.7492   19.2438 C   0  0  0  0  0  0  0  0  0  0  0  0
  -29.0448  -24.4641   19.2895 C   0  0  0  0  0  0  0  0  0  0  0  0
  -27.9328  -23.5446   19.4768 C   0  0  0  0  0  0  0  0  0  0  0  0
  -26.6339  -23.8445   19.5747 C   0  0  0  0  0  0  0  0  0  0  0  0
  -31.0023  -17.6560   19.7006 C   0  0  0  0  0  0  0  0  0  0  0  0
  -29.8259  -17.2542   20.2273 C   0  0  0  0  0  0  0  0  0  0  0  0
  -27.0662   -8.4669   19.0359 C   0  0  0  0  0  0  0  0  0  0  0  0
  -29.5366  -15.8087   20.3158 C   0  0  0  0  0  0  0  0  0  0  0  0
  -25.4834  -32.2397   22.1318 C   0  0  0  0  0  0  0  0  0  0  0  0
  -22.6106  -30.7401   22.2754 C   0  0  0  0  0  0  0  0  0  0  0  0
  -20.8081  -27.8810   21.8031 C   0  0  0  0  0  0  0  0  0  0  0  0
  -24.3191  -36.2595   25.0547 C   0  0  0  0  0  0  0  0  0  0  0  0
  -25.3203  -31.2424   19.8221 C   0  0  0  0  0  0  0  0  0  0  0  0
  -24.6325  -29.2738   21.9188 C   0  0  0  0  0  0  0  0  0  0  0  0
  -28.5127  -22.1413   19.5448 C   0  0  0  0  0  0  0  0  0  0  0  0
  -24.1008  -34.7509   25.1359 C   0  0  0  0  0  0  0  0  0  0  0  0
  -26.1505  -15.8251   18.9136 C   0  0  0  0  0  0  0  0  0  0  0  0
  -25.4041  -34.0074   24.8615 C   0  0  0  0  0  0  0  0  0  0  0  0
  -25.7708  -14.3526   19.0459 C   0  0  0  0  0  0  0  0  0  0  0  0
  -27.0426  -16.2910   20.0632 C   0  0  0  0  0  0  0  0  0  0  0  0
  -27.8841  -13.9817   20.3788 C   0  0  0  0  0  0  0  0  0  0  0  0
  -25.9220  -34.3045   23.4491 C   0  0  1  0  0  0  0  0  0  0  0  0
  -24.5761  -31.6473   21.0908 C   0  0  1  0  0  0  0  0  0  0  0  0
  -27.0251  -13.4795   19.2078 C   0  0  1  0  0  0  0  0  0  0  0  0
  -18.4894  -26.9518   22.0432 C   0  0  0  0  0  0  0  0  0  0  0  0
  -23.0036  -30.5460   25.2950 C   0  0  0  0  0  0  0  0  0  0  0  0
  -21.1885  -28.8225   25.3503 C   0  0  0  0  0  0  0  0  0  0  0  0
  -20.6817  -31.1408   24.5813 C   0  0  0  0  0  0  0  0  0  0  0  0
  -20.6104  -27.3134   18.9052 C   0  0  0  0  0  0  0  0  0  0  0  0
  -28.9114  -25.9386   19.1705 C   0  0  0  0  0  0  0  0  0  1  0  0
  -22.0347  -29.6091   23.0928 C   0  0  1  0  0  0  0  0  0  0  0  0
  -19.4809  -27.6298   21.1104 C   0  0  2  0  0  0  0  0  0  0  0  0
  -21.7501  -30.0259   24.5634 C   0  0  0  0  0  0  0  0  0  0  0  0
  -25.5251  -11.6731   19.9628 N   0  0  0  0  0  0  0  0  0  0  0  0
  -26.6744  -12.0101   19.3531 N   0  0  0  0  0  0  0  0  0  0  0  0
  -29.9561  -22.3961   19.3836 N   0  0  0  0  0  0  0  0  0  0  0  0
  -28.2046  -15.4063   20.2354 N   0  0  0  0  0  0  0  0  0  0  0  0
  -23.8800  -30.5236   21.7208 N   0  0  0  0  0  0  0  0  0  0  0  0
  -28.5876  -11.1005   18.2935 N   0  0  0  0  0  0  0  0  0  0  0  0
  -26.2098   -7.4448   19.4673 N   0  0  0  0  0  0  0  0  0  0  0  0
  -25.1776  -33.5448   22.4676 N   0  0  0  0  0  0  0  0  0  0  0  0
  -20.8599  -29.1381   22.3672 N   0  0  0  0  0  0  0  0  0  0  0  0
  -19.6759  -26.7578   19.9177 N   0  3  0  0  0  0  0  0  0  0  0  0
  -28.1422   -8.1664   18.4654 O   0  0  0  0  0  0  0  0  0  0  0  0
  -30.4930  -15.0452   20.4604 O   0  0  0  0  0  0  0  0  0  0  0  0
  -26.3925  -31.5624   22.5970 O   0  0  0  0  0  0  0  0  0  0  0  0
  -21.9552  -31.7747   22.1283 O   0  0  0  0  0  0  0  0  0  0  0  0
  -21.7074  -27.0442   21.8432 O   0  0  0  0  0  0  0  0  0  0  0  0
  -21.3052   -7.4146   22.1091 O   0  0  0  0  0  0  0  0  0  0  0  0
  -28.3270  -26.4713   20.3584 O   0  0  0  0  0  0  0  0  0  1  0  0
  -22.5531   -3.0366   25.2203 F   0  0  0  0  0  0  0  0  0  0  0  0
  -20.5074   -7.2794   24.7525 F   0  0  0  0  0  0  0  0  0  0  0  0
  1  2  1  0  0  0  0
  1  7  2  0  0  0  0
  2  8  2  0  0  0  0
  3  6  1  0  0  0  0
  3 10  2  0  0  0  0
  4 11  2  0  0  0  0
  4 19  1  0  0  0  0
  5 12  1  0  0  0  0
  5 19  2  0  0  0  0
  6 20  2  0  0  0  0
  7 22  1  0  0  0  0
  8 24  1  0  0  0  0
  9 13  2  0  0  0  0
  9 23  1  0  0  0  0
 10 26  1  0  0  0  0
 11 27  1  0  0  0  0
 12 27  2  0  0  0  0
 13 28  1  0  0  0  0
 14 15  2  0  0  0  0
 14 29  1  0  0  0  0
 15 30  1  0  0  0  0
 16 20  1  0  0  0  0
 16 26  2  0  0  0  0
 17 25  1  0  0  0  0
 17 28  2  0  0  0  0
 18 30  2  0  0  0  0
 18 31  1  0  0  0  0
 19 32  1  0  0  0  0
 20 38  1  0  0  0  0
 21 32  1  0  0  0  0
 21 33  2  0  0  0  0
 21 40  1  0  0  0  0
 22 24  2  0  0  0  0
 22 45  1  0  0  0  0
 23 25  2  0  0  0  0
 23 46  1  0  0  0  0
 24 55  1  0  0  0  0
 25 47  1  0  0  0  0
 26 69  1  0  0  0  0
 27 82  1  0  0  0  0
 28 83  1  0  0  0  0
 29 31  2  0  0  0  0
 29 82  1  0  0  0  0
 30 84  1  0  0  0  0
 31 85  1  0  0  0  0
 32 67  2  0  0  0  0
 33 68  1  0  0  0  0
 33 72  1  0  0  0  0
 34 35  2  0  0  0  0
 34 69  1  0  0  0  0
 35 36  1  0  0  0  0
 35 63  1  0  0  0  0
 36 37  2  0  0  0  0
 36 48  1  0  0  0  0
 38 39  2  0  0  0  0
 39 41  1  0  0  0  0
 40 73  1  0  0  0  0
 40 77  2  0  0  0  0
 41 70  1  0  0  0  0
 41 78  2  0  0  0  0
 42 56  1  0  0  0  0
 42 74  1  0  0  0  0
 42 79  2  0  0  0  0
 43 64  1  0  0  0  0
 43 71  1  0  0  0  0
 43 80  2  0  0  0  0
 44 65  1  0  0  0  0
 44 75  1  0  0  0  0
 44 81  2  0  0  0  0
 45 49  1  0  0  0  0
 46 56  1  0  0  0  0
 47 71  1  0  0  0  0
 48 69  1  0  0  0  0
 49 51  1  0  0  0  0
 50 52  1  0  0  0  0
 50 53  1  0  0  0  0
 51 55  1  0  0  0  0
 52 57  1  0  0  0  0
 53 70  1  0  0  0  0
 54 57  1  0  0  0  0
 54 70  1  0  0  0  0
 55 74  1  0  0  0  0
 56 71  1  0  0  0  0
 57 68  1  0  0  0  0
 58 65  1  0  0  0  0
 59 66  1  0  0  0  0
 60 66  1  0  0  0  0
 61 66  1  0  0  0  0
 62 76  1  0  0  0  0
 63 83  1  0  0  0  0
 64 66  1  0  0  0  0
 64 75  1  0  0  0  0
 65 76  1  0  0  0  0
 67 68  1  0  0  0  0
M  CHG  1  76   1
M  ISO  4  39 100  41 100  63 101  83 101
M  END
> <Batch ID>
0079

> <Smiles>
C=C1CN(c2cccc(C=[100CH:0][100C:0](=O)N3CCCC(n4nc(-c5ccc(Oc6ccc(F)cc6F)cc5)c(C(N)=O)c4N)C3)c2)C=C1[101CH2:1][101O:1]c1ccc2c(c1)CN(C(=O)C(NC(=O)C(C)NC)C(C)(C)C)C(C(=O)NC1CCCc3ccccc31)C2

> <Shape>
0.346

> <Color>
0.118

> <Negative vol penalty>
0.000

$$$$

  -OEChem-04042323593D

 84 93  0     1  0  0  0  0  0999 V2000
  -17.0849  -26.8281   22.2890 C   0  0  0  0  0  0  0  0  0  0  0  0
  -18.3069  -26.2141   22.5439 C   0  0  0  0  0  0  0  0  0  0  0  0
  -24.1989   -9.5994   21.6073 C   0  0  0  0  0  0  0  0  0  0  0  0
  -24.6921  -10.8027   23.6435 C   0  0  0  0  0  0  0  0  0  0  0  0
  -17.0506  -28.0973   21.7128 C   0  0  0  0  0  0  0  0  0  0  0  0
  -19.4954  -26.8684   22.2218 C   0  0  0  0  0  0  0  0  0  0  0  0
  -24.7925  -26.6001   25.2836 C   0  0  0  0  0  0  0  0  0  0  0  0
  -28.4737  -20.7769   21.3744 C   0  0  0  0  0  0  0  0  0  0  0  0
  -30.8556  -20.4457   21.1416 C   0  0  0  0  0  0  0  0  0  0  0  0
  -28.2508  -19.4627   20.9636 C   0  0  0  0  0  0  0  0  0  0  0  0
  -30.6327  -19.1314   20.7309 C   0  0  0  0  0  0  0  0  0  0  0  0
  -23.7861   -8.4986   22.3578 C   0  0  0  0  0  0  0  0  0  0  0  0
  -24.2792   -9.7019   24.3940 C   0  0  0  0  0  0  0  0  0  0  0  0
  -25.9544  -25.8557   25.0844 C   0  0  0  0  0  0  0  0  0  0  0  0
  -21.0480   -7.5615   24.1064 C   0  0  0  0  0  0  0  0  0  0  0  0
  -19.8618   -6.9301   23.7325 C   0  0  0  0  0  0  0  0  0  0  0  0
  -26.9383  -27.7175   23.9077 C   0  0  0  0  0  0  0  0  0  0  0  0
  -21.0725   -4.8711   23.3689 C   0  0  0  0  0  0  0  0  0  0  0  0
  -24.6520  -10.7515   22.2501 C   0  0  0  0  0  0  0  0  0  0  0  0
  -24.2843  -12.9632   21.0332 C   0  0  0  0  0  0  0  0  0  0  0  0
  -18.2394  -28.7715   21.3923 C   0  0  0  0  0  0  0  0  0  0  0  0
  -24.6905  -27.9071   24.7860 C   0  0  0  0  0  0  0  0  0  0  0  0
  -19.4769  -28.1472   21.6395 C   0  0  0  0  0  0  0  0  0  0  0  0
  -25.7750  -28.4773   24.1041 C   0  0  0  0  0  0  0  0  0  0  0  0
  -29.7761  -21.2685   21.4633 C   0  0  0  0  0  0  0  0  0  0  0  0
  -29.3303  -18.6399   20.6419 C   0  0  0  0  0  0  0  0  0  0  0  0
  -23.8261   -8.5498   23.7512 C   0  0  0  0  0  0  0  0  0  0  0  0
  -27.0264  -26.4133   24.3938 C   0  0  0  0  0  0  0  0  0  0  0  0
  -22.2464   -6.8478   24.1116 C   0  0  0  0  0  0  0  0  0  0  0  0
  -19.8741   -5.5849   23.3637 C   0  0  0  0  0  0  0  0  0  0  0  0
  -22.2587   -5.5026   23.7429 C   0  0  0  0  0  0  0  0  0  0  0  0
  -25.0792  -11.8888   21.4754 C   0  0  0  0  0  0  0  0  0  0  0  0
  -25.1540  -13.7732   20.3448 C   0  0  0  0  0  0  0  0  0  0  0  0
  -30.9674  -24.5579   22.4571 C   0  0  0  0  0  0  0  0  0  0  0  0
  -29.6537  -24.7540   22.5894 C   0  0  0  0  0  0  0  0  0  0  0  0
  -28.9861  -23.4845   22.2169 C   0  0  0  0  0  0  0  0  0  0  0  0
  -22.8848  -13.2072   21.2274 C   0  0  0  0  0  0  0  0  0  0  0  0
  -22.8051  -29.3663   22.6837 C   0  0  0  0  0  0  0  0  0  0  0  0
  -24.3797  -32.0151   23.6970 C   0  0  0  0  0  0  0  0  0  0  0  0
  -27.1765  -33.3559   25.1207 C   0  0  0  0  0  0  0  0  0  0  0  0
  -30.0633  -16.3570   19.8692 C   0  0  0  0  0  0  0  0  0  0  0  0
  -18.1512  -30.1224   20.7273 C   0  0  0  0  0  0  0  0  0  0  0  0
  -23.4404  -28.7064   25.0325 C   0  0  0  0  0  0  0  0  0  0  0  0
  -25.7235  -29.8837   23.5676 C   0  0  0  0  0  0  0  0  0  0  0  0
  -31.3056  -23.1863   21.9984 C   0  0  0  0  0  0  0  0  0  0  0  0
  -19.4618  -30.9044   20.7606 C   0  0  0  0  0  0  0  0  0  0  0  0
  -29.9122  -12.9568   18.8235 C   0  0  0  0  0  0  0  0  0  0  0  0
  -20.6280  -30.0093   20.3537 C   0  0  0  0  0  0  0  0  0  0  0  0
  -28.5760  -12.4642   19.3838 C   0  0  0  0  0  0  0  0  0  0  0  0
  -30.6013  -13.9328   19.7756 C   0  0  0  0  0  0  0  0  0  0  0  0
  -28.4391  -14.5756   20.7660 C   0  0  0  0  0  0  0  0  0  0  0  0
  -20.7881  -28.8352   21.3270 C   0  0  1  0  0  0  0  0  0  0  0  0
  -23.2533  -29.8457   24.0353 C   0  0  1  0  0  0  0  0  0  0  0  0
  -27.6770  -13.6403   19.8130 C   0  0  2  0  0  0  0  0  0  0  0  0
  -28.1886  -35.5542   25.7841 C   0  0  0  0  0  0  0  0  0  0  0  0
  -25.0244  -32.5980   20.7722 C   0  0  0  0  0  0  0  0  0  0  0  0
  -26.7805  -34.2033   21.5516 C   0  0  0  0  0  0  0  0  0  0  0  0
  -24.3850  -34.6055   22.1196 C   0  0  0  0  0  0  0  0  0  0  0  0
  -27.2980  -32.5716   27.9719 C   0  0  0  0  0  0  0  0  0  0  0  0
  -28.9151  -25.9690   23.0185 C   0  0  0  0  0  0  0  0  0  1  0  0
  -25.6365  -32.7380   23.2765 C   0  0  1  0  0  0  0  0  0  0  0  0
  -27.3513  -34.3686   26.2380 C   0  0  2  0  0  0  0  0  0  0  0  0
  -25.4571  -33.5090   21.9383 C   0  0  0  0  0  0  0  0  0  0  0  0
  -26.3558  -12.0029   21.0993 N   0  0  0  0  0  0  0  0  0  0  0  0
  -26.3696  -13.1586   20.4135 N   0  0  0  0  0  0  0  0  0  0  0  0
  -29.9983  -22.5778   21.8721 N   0  0  0  0  0  0  0  0  0  0  0  0
  -24.4772  -30.6226   23.8286 N   0  0  0  0  0  0  0  0  0  0  0  0
  -29.6911  -15.0223   20.1353 N   0  0  0  0  0  0  0  0  0  0  0  0
  -24.9899  -14.9442   19.6934 N   0  0  0  0  0  0  0  0  0  0  0  0
  -22.1390  -12.2731   21.9592 N   0  0  0  0  0  0  0  0  0  0  0  0
  -29.1042  -17.3048   20.2247 N   0  0  0  0  0  0  0  0  0  0  0  0
  -21.4332  -29.2737   22.5460 N   0  0  0  0  0  0  0  0  0  0  0  0
  -26.0198  -33.5801   24.4045 N   0  0  0  0  0  0  0  0  0  0  0  0
  -28.0251  -33.7379   27.4081 N   0  3  0  0  0  0  0  0  0  0  0  0
  -27.7776  -23.3128   22.2256 O   0  0  0  0  0  0  0  0  0  0  0  0
  -22.3093  -14.2152   20.7518 O   0  0  0  0  0  0  0  0  0  0  0  0
  -23.6418  -29.1015   21.8285 O   0  0  0  0  0  0  0  0  0  0  0  0
  -23.3513  -32.6628   23.9080 O   0  0  0  0  0  0  0  0  0  0  0  0
  -27.9870  -32.4580   24.9027 O   0  0  0  0  0  0  0  0  0  0  0  0
  -31.1411  -16.6365   19.3381 O   0  0  0  0  0  0  0  0  0  0  0  0
  -23.4231   -7.4759   24.4839 O   0  0  0  0  0  0  0  0  0  0  0  0
  -28.1614  -25.6887   24.1974 O   0  0  0  0  0  0  0  0  0  1  0  0
  -18.7347   -4.9782   23.0061 F   0  0  0  0  0  0  0  0  0  0  0  0
  -23.4068   -4.8115   23.7470 F   0  0  0  0  0  0  0  0  0  0  0  0
  1  2  1  0  0  0  0
  1  5  2  0  0  0  0
  2  6  2  0  0  0  0
  3 12  2  0  0  0  0
  3 19  1  0  0  0  0
  4 13  1  0  0  0  0
  4 19  2  0  0  0  0
  5 21  1  0  0  0  0
  6 23  1  0  0  0  0
  7 14  2  0  0  0  0
  7 22  1  0  0  0  0
  8 10  2  0  0  0  0
  8 25  1  0  0  0  0
  9 11  1  0  0  0  0
  9 25  2  0  0  0  0
 10 26  1  0  0  0  0
 11 26  2  0  0  0  0
 12 27  1  0  0  0  0
 13 27  2  0  0  0  0
 14 28  1  0  0  0  0
 15 16  2  0  0  0  0
 15 29  1  0  0  0  0
 16 30  1  0  0  0  0
 17 24  1  0  0  0  0
 17 28  2  0  0  0  0
 18 30  2  0  0  0  0
 18 31  1  0  0  0  0
 19 32  1  0  0  0  0
 20 32  1  0  0  0  0
 20 33  2  0  0  0  0
 20 37  1  0  0  0  0
 21 23  2  0  0  0  0
 21 42  1  0  0  0  0
 22 24  2  0  0  0  0
 22 43  1  0  0  0  0
 23 52  1  0  0  0  0
 24 44  1  0  0  0  0
 25 66  1  0  0  0  0
 26 71  1  0  0  0  0
 27 81  1  0  0  0  0
 28 82  1  0  0  0  0
 29 31  2  0  0  0  0
 29 81  1  0  0  0  0
 30 83  1  0  0  0  0
 31 84  1  0  0  0  0
 32 64  2  0  0  0  0
 33 65  1  0  0  0  0
 33 69  1  0  0  0  0
 34 35  2  0  0  0  0
 34 45  1  0  0  0  0
 35 36  1  0  0  0  0
 35 60  1  0  0  0  0
 36 66  1  0  0  0  0
 36 75  2  0  0  0  0
 37 70  1  0  0  0  0
 37 76  2  0  0  0  0
 38 53  1  0  0  0  0
 38 72  1  0  0  0  0
 38 77  2  0  0  0  0
 39 61  1  0  0  0  0
 39 67  1  0  0  0  0
 39 78  2  0  0  0  0
 40 62  1  0  0  0  0
 40 73  1  0  0  0  0
 40 79  2  0  0  0  0
 41 68  1  0  0  0  0
 41 71  1  0  0  0  0
 41 80  2  0  0  0  0
 42 46  1  0  0  0  0
 43 53  1  0  0  0  0
 44 67  1  0  0  0  0
 45 66  1  0  0  0  0
 46 48  1  0  0  0  0
 47 49  1  0  0  0  0
 47 50  1  0  0  0  0
 48 52  1  0  0  0  0
 49 54  1  0  0  0  0
 50 68  1  0  0  0  0
 51 54  1  0  0  0  0
 51 68  1  0  0  0  0
 52 72  1  0  0  0  0
 53 67  1  0  0  0  0
 54 65  1  0  0  0  0
 55 62  1  0  0  0  0
 56 63  1  0  0  0  0
 57 63  1  0  0  0  0
 58 63  1  0  0  0  0
 59 74  1  0  0  0  0
 60 82  1  0  0  0  0
 61 63  1  0  0  0  0
 61 73  1  0  0  0  0
 62 74  1  0  0  0  0
 64 65  1  0  0  0  0
M  CHG  1  74   1
M  ISO  4  41 100  60 101  71 100  82 101
M  END
> <Batch ID>
0079

> <Smiles>
CNC(C)C(=O)NC(C(=O)N1Cc2cc([101O:1][101CH2:1]C3=CCN(c4ccc([100NH:0][100C:0](=O)N5CCCC(n6nc(-c7ccc(Oc8ccc(F)cc8F)cc7)c(C(N)=O)c6N)C5)cc4)C3=O)ccc2CC1C(=O)NC1CCCc2ccccc21)C(C)(C)C

> <Shape>
0.299

> <Color>
0.155

> <Negative vol penalty>
0.000

$$$$

  -OEChem-04042323593D

 86 95  0     1  0  0  0  0  0999 V2000
  -30.5962  -35.6772   22.5506 C   0  0  0  0  0  0  0  0  0  0  0  0
  -30.6659  -34.3658   22.0915 C   0  0  0  0  0  0  0  0  0  0  0  0
  -31.0546  -19.4914   20.4915 C   0  0  0  0  0  0  0  0  0  0  0  0
  -23.2535   -9.4303   20.7624 C   0  0  0  0  0  0  0  0  0  0  0  0
  -23.2793  -10.9889   22.6083 C   0  0  0  0  0  0  0  0  0  0  0  0
  -29.6225  -36.0380   23.4810 C   0  0  0  0  0  0  0  0  0  0  0  0
  -29.7625  -33.4141   22.5634 C   0  0  0  0  0  0  0  0  0  0  0  0
  -27.3747  -28.7294   19.4237 C   0  0  0  0  0  0  0  0  0  0  0  0
  -30.0413  -20.4337   20.3159 C   0  0  0  0  0  0  0  0  0  0  0  0
  -30.7960  -18.1391   20.2672 C   0  0  0  0  0  0  0  0  0  0  0  0
  -22.5072   -8.5351   21.5286 C   0  0  0  0  0  0  0  0  0  0  0  0
  -22.5329  -10.0937   23.3745 C   0  0  0  0  0  0  0  0  0  0  0  0
  -27.7062  -27.3767   19.3604 C   0  0  0  0  0  0  0  0  0  0  0  0
  -23.0727   -6.2955   23.9962 C   0  0  0  0  0  0  0  0  0  0  0  0
  -23.4557   -4.9544   23.9807 C   0  0  0  0  0  0  0  0  0  0  0  0
  -26.0183  -26.8919   21.0142 C   0  0  0  0  0  0  0  0  0  0  0  0
  -21.2870   -4.3452   23.1073 C   0  0  0  0  0  0  0  0  0  0  0  0
  -23.6396  -10.6572   21.3022 C   0  0  0  0  0  0  0  0  0  0  0  0
  -23.9186  -12.5933   19.6647 C   0  0  0  0  0  0  0  0  0  0  0  0
  -28.7006  -35.0926   23.9572 C   0  0  0  0  0  0  0  0  0  0  0  0
  -26.3682  -29.1757   20.2922 C   0  0  0  0  0  0  0  0  0  0  0  0
  -28.7764  -33.7624   23.5021 C   0  0  0  0  0  0  0  0  0  0  0  0
  -25.6741  -28.2504   21.0848 C   0  0  0  0  0  0  0  0  0  0  0  0
  -28.7694  -20.0238   19.9160 C   0  0  0  0  0  0  0  0  0  0  0  0
  -29.5241  -17.7292   19.8673 C   0  0  0  0  0  0  0  0  0  0  0  0
  -22.1469   -8.8667   22.8347 C   0  0  0  0  0  0  0  0  0  0  0  0
  -27.0299  -26.4581   20.1578 C   0  0  0  0  0  0  0  0  0  0  0  0
  -21.7968   -6.6615   23.5673 C   0  0  0  0  0  0  0  0  0  0  0  0
  -22.5628   -3.9792   23.5362 C   0  0  0  0  0  0  0  0  0  0  0  0
  -20.9040   -5.6864   23.1229 C   0  0  0  0  0  0  0  0  0  0  0  0
  -28.5108  -18.6715   19.6917 C   0  0  0  0  0  0  0  0  0  0  0  0
  -24.4111  -11.5822   20.5114 C   0  0  0  0  0  0  0  0  0  0  0  0
  -25.0442  -13.1874   19.1485 C   0  0  0  0  0  0  0  0  0  0  0  0
  -26.5810  -22.9393   19.6356 C   0  0  0  0  0  0  0  0  0  0  0  0
  -25.6580  -21.8975   19.2609 C   0  0  0  0  0  0  0  0  0  0  0  0
  -27.9144  -22.3492   19.9400 C   0  0  0  0  0  0  0  0  0  0  0  0
  -24.3713  -22.0131   18.9152 C   0  0  0  0  0  0  0  0  0  0  0  0
  -26.3778  -24.2535   19.7273 C   0  0  0  0  0  0  0  0  0  1  0  0
  -22.5646  -12.9626   19.3712 C   0  0  0  0  0  0  0  0  0  0  0  0
  -26.2670  -31.1471   22.7836 C   0  0  0  0  0  0  0  0  0  0  0  0
  -23.0721  -30.6286   22.5686 C   0  0  0  0  0  0  0  0  0  0  0  0
  -20.5292  -28.5990   21.5385 C   0  0  0  0  0  0  0  0  0  0  0  0
  -30.1608  -15.2938   19.7699 C   0  0  0  0  0  0  0  0  0  0  0  0
  -27.6958  -35.5188   24.9981 C   0  0  0  0  0  0  0  0  0  0  0  0
  -26.0043  -30.6347   20.3291 C   0  0  0  0  0  0  0  0  0  0  0  0
  -24.5718  -28.6757   22.0188 C   0  0  0  0  0  0  0  0  0  0  0  0
  -26.4088  -20.6018   19.3239 C   0  0  0  0  0  0  0  0  0  0  0  0
  -26.5390  -34.5371   25.1660 C   0  0  0  0  0  0  0  0  0  0  0  0
  -29.8995  -11.7691   19.3393 C   0  0  0  0  0  0  0  0  0  0  0  0
  -27.0614  -33.1067   25.2556 C   0  0  0  0  0  0  0  0  0  0  0  0
  -28.4078  -11.4894   19.5362 C   0  0  0  0  0  0  0  0  0  0  0  0
  -30.3977  -12.8716   20.2720 C   0  0  0  0  0  0  0  0  0  0  0  0
  -28.1383  -13.8427   20.4174 C   0  0  0  0  0  0  0  0  0  0  0  0
  -27.7985  -32.7072   23.9716 C   0  0  1  0  0  0  0  0  0  0  0  0
  -25.3142  -31.0457   21.6262 C   0  0  1  0  0  0  0  0  0  0  0  0
  -27.5760  -12.7844   19.4543 C   0  0  2  0  0  0  0  0  0  0  0  0
  -18.0259  -28.4237   21.5373 C   0  0  0  0  0  0  0  0  0  0  0  0
  -23.1282  -29.8407   25.5158 C   0  0  0  0  0  0  0  0  0  0  0  0
  -20.8754  -28.7930   25.2068 C   0  0  0  0  0  0  0  0  0  0  0  0
  -21.1688  -31.2441   24.8483 C   0  0  0  0  0  0  0  0  0  0  0  0
  -20.4152  -28.5934   18.5812 C   0  0  0  0  0  0  0  0  0  0  0  0
  -22.1106  -29.6221   23.1530 C   0  0  1  0  0  0  0  0  0  0  0  0
  -19.2528  -28.8937   20.7715 C   0  0  2  0  0  0  0  0  0  0  0  0
  -21.8428  -29.8669   24.6649 C   0  0  0  0  0  0  0  0  0  0  0  0
  -25.7457  -11.5336   20.5344 N   0  0  0  0  0  0  0  0  0  0  0  0
  -26.1013  -12.5217   19.6957 N   0  0  0  0  0  0  0  0  0  0  0  0
  -27.7611  -20.9664   19.7417 N   0  0  0  0  0  0  0  0  0  0  0  0
  -24.2570  -30.1139   22.0238 N   0  0  0  0  0  0  0  0  0  0  0  0
  -29.5648  -14.0686   20.1368 N   0  0  0  0  0  0  0  0  0  0  0  0
  -25.2230  -14.2090   18.2844 N   0  0  0  0  0  0  0  0  0  0  0  0
  -21.5285  -12.2481   19.9879 N   0  0  0  0  0  0  0  0  0  0  0  0
  -29.2652  -16.3547   19.6404 N   0  0  0  0  0  0  0  0  0  0  0  0
  -26.8523  -32.3911   22.9232 N   0  0  0  0  0  0  0  0  0  0  0  0
  -20.9144  -29.6683   22.3192 N   0  0  0  0  0  0  0  0  0  0  0  0
  -19.2729  -28.2071   19.4490 N   0  3  0  0  0  0  0  0  0  0  0  0
  -28.9086  -22.9653   20.2858 O   0  0  0  0  0  0  0  0  0  0  0  0
  -22.2818  -13.8877   18.5727 O   0  0  0  0  0  0  0  0  0  0  0  0
  -26.4559  -30.1696   23.4981 O   0  0  0  0  0  0  0  0  0  0  0  0
  -22.7792  -31.8267   22.5882 O   0  0  0  0  0  0  0  0  0  0  0  0
  -21.1229  -27.5260   21.4565 O   0  0  0  0  0  0  0  0  0  0  0  0
  -31.3725  -15.3882   19.5578 O   0  0  0  0  0  0  0  0  0  0  0  0
  -21.4184   -7.9935   23.5826 O   0  0  0  0  0  0  0  0  0  0  0  0
  -27.3520  -25.1372   20.0984 O   0  0  0  0  0  0  0  0  0  1  0  0
  -22.9313   -2.6915   23.5200 F   0  0  0  0  0  0  0  0  0  0  0  0
  -19.6773   -6.0321   22.7085 F   0  0  0  0  0  0  0  0  0  0  0  0
  -27.2868  -18.2773   19.3079 F   0  0  0  0  0  0  0  0  0  0  0  0
  1  2  1  0  0  0  0
  1  6  2  0  0  0  0
  2  7  2  0  0  0  0
  3  9  2  0  0  0  0
  3 10  1  0  0  0  0
  4 11  2  0  0  0  0
  4 18  1  0  0  0  0
  5 12  1  0  0  0  0
  5 18  2  0  0  0  0
  6 20  1  0  0  0  0
  7 22  1  0  0  0  0
  8 13  2  0  0  0  0
  8 21  1  0  0  0  0
  9 24  1  0  0  0  0
 10 25  2  0  0  0  0
 11 26  1  0  0  0  0
 12 26  2  0  0  0  0
 13 27  1  0  0  0  0
 14 15  2  0  0  0  0
 14 28  1  0  0  0  0
 15 29  1  0  0  0  0
 16 23  1  0  0  0  0
 16 27  2  0  0  0  0
 17 29  2  0  0  0  0
 17 30  1  0  0  0  0
 18 32  1  0  0  0  0
 19 32  1  0  0  0  0
 19 33  2  0  0  0  0
 19 39  1  0  0  0  0
 20 22  2  0  0  0  0
 20 44  1  0  0  0  0
 21 23  2  0  0  0  0
 21 45  1  0  0  0  0
 22 54  1  0  0  0  0
 23 46  1  0  0  0  0
 24 31  2  0  0  0  0
 24 67  1  0  0  0  0
 25 31  1  0  0  0  0
 25 72  1  0  0  0  0
 26 82  1  0  0  0  0
 27 83  1  0  0  0  0
 28 30  2  0  0  0  0
 28 82  1  0  0  0  0
 29 84  1  0  0  0  0
 30 85  1  0  0  0  0
 31 86  1  0  0  0  0
 32 65  2  0  0  0  0
 33 66  1  0  0  0  0
 33 70  1  0  0  0  0
 34 35  1  0  0  0  0
 34 36  1  0  0  0  0
 34 38  2  0  0  0  0
 35 37  2  0  0  0  0
 35 47  1  0  0  0  0
 36 67  1  0  0  0  0
 36 76  2  0  0  0  0
 38 83  1  0  0  0  0
 39 71  1  0  0  0  0
 39 77  2  0  0  0  0
 40 55  1  0  0  0  0
 40 73  1  0  0  0  0
 40 78  2  0  0  0  0
 41 62  1  0  0  0  0
 41 68  1  0  0  0  0
 41 79  2  0  0  0  0
 42 63  1  0  0  0  0
 42 74  1  0  0  0  0
 42 80  2  0  0  0  0
 43 69  1  0  0  0  0
 43 72  1  0  0  0  0
 43 81  2  0  0  0  0
 44 48  1  0  0  0  0
 45 55  1  0  0  0  0
 46 68  1  0  0  0  0
 47 67  1  0  0  0  0
 48 50  1  0  0  0  0
 49 51  1  0  0  0  0
 49 52  1  0  0  0  0
 50 54  1  0  0  0  0
 51 56  1  0  0  0  0
 52 69  1  0  0  0  0
 53 56  1  0  0  0  0
 53 69  1  0  0  0  0
 54 73  1  0  0  0  0
 55 68  1  0  0  0  0
 56 66  1  0  0  0  0
 57 63  1  0  0  0  0
 58 64  1  0  0  0  0
 59 64  1  0  0  0  0
 60 64  1  0  0  0  0
 61 75  1  0  0  0  0
 62 64  1  0  0  0  0
 62 74  1  0  0  0  0
 63 75  1  0  0  0  0
 65 66  1  0  0  0  0
M  CHG  1  75   1
M  ISO  4  38 101  43 100  72 100  83 101
M  END
> <Batch ID>
0079

> <Smiles>
C=C1CN(c2cccc([100NH:0][100C:0](=O)N3CCCC(n4nc(-c5ccc(Oc6ccc(F)cc6F)cc5)c(C(N)=O)c4N)C3)c2F)C(=O)C1=[101CH:1][101O:1]c1ccc2c(c1)CN(C(=O)C(NC(=O)C(C)NC)C(C)(C)C)C(C(=O)NC1CCCc3ccccc31)C2

> <Shape>
0.321

> <Color>
0.118

> <Negative vol penalty>
0.000

$$$$

  -OEChem-04042323593D

 87 96  0     1  0  0  0  0  0999 V2000
  -27.3723  -39.8104   23.6049 C   0  0  0  0  0  0  0  0  0  0  0  0
  -28.0572  -38.8842   24.3850 C   0  0  0  0  0  0  0  0  0  0  0  0
  -23.8816  -19.8423   20.5317 C   0  0  0  0  0  0  0  0  0  0  0  0
  -22.7184  -10.0445   20.3049 C   0  0  0  0  0  0  0  0  0  0  0  0
  -24.4423   -9.1804   21.7605 C   0  0  0  0  0  0  0  0  0  0  0  0
  -26.0092  -39.6445   23.3636 C   0  0  0  0  0  0  0  0  0  0  0  0
  -27.3790  -37.7921   24.9251 C   0  0  0  0  0  0  0  0  0  0  0  0
  -29.4061  -31.0482   23.4077 C   0  0  0  0  0  0  0  0  0  0  0  0
  -24.6463  -20.9577   20.8729 C   0  0  0  0  0  0  0  0  0  0  0  0
  -24.4153  -18.5612   20.6721 C   0  0  0  0  0  0  0  0  0  0  0  0
  -21.7778   -9.2302   20.9355 C   0  0  0  0  0  0  0  0  0  0  0  0
  -23.5017   -8.3661   22.3911 C   0  0  0  0  0  0  0  0  0  0  0  0
  -29.8627  -29.7321   23.3339 C   0  0  0  0  0  0  0  0  0  0  0  0
  -21.9285   -5.4378   21.7737 C   0  0  0  0  0  0  0  0  0  0  0  0
  -22.2800   -4.1101   22.0168 C   0  0  0  0  0  0  0  0  0  0  0  0
  -27.9748  -28.9920   24.6515 C   0  0  0  0  0  0  0  0  0  0  0  0
  -26.4787  -19.5112   21.4949 C   0  0  0  0  0  0  0  0  0  0  0  0
  -21.9768   -4.4639   24.3875 C   0  0  0  0  0  0  0  0  0  0  0  0
  -24.0507  -10.0196   20.7174 C   0  0  0  0  0  0  0  0  0  0  0  0
  -25.3810  -10.8482   18.7045 C   0  0  0  0  0  0  0  0  0  0  0  0
  -25.3160  -38.5446   23.8930 C   0  0  0  0  0  0  0  0  0  0  0  0
  -28.2225  -31.3394   24.0915 C   0  0  0  0  0  0  0  0  0  0  0  0
  -26.0051  -37.6120   24.6918 C   0  0  0  0  0  0  0  0  0  0  0  0
  -27.5059  -30.3067   24.7182 C   0  0  0  0  0  0  0  0  0  0  0  0
  -25.9449  -20.7922   21.3545 C   0  0  0  0  0  0  0  0  0  0  0  0
  -25.7139  -18.3957   21.1536 C   0  0  0  0  0  0  0  0  0  0  0  0
  -22.1694   -8.3910   21.9786 C   0  0  0  0  0  0  0  0  0  0  0  0
  -29.1489  -28.7066   23.9545 C   0  0  0  0  0  0  0  0  0  0  0  0
  -21.6012   -6.2787   22.8375 C   0  0  0  0  0  0  0  0  0  0  0  0
  -22.3041   -3.6231   23.3237 C   0  0  0  0  0  0  0  0  0  0  0  0
  -21.6253   -5.7917   24.1443 C   0  0  0  0  0  0  0  0  0  0  0  0
  -25.0230  -10.8602   20.0660 C   0  0  0  0  0  0  0  0  0  0  0  0
  -26.3378  -11.8273   18.5925 C   0  0  0  0  0  0  0  0  0  0  0  0
  -28.2664  -24.2093   22.5477 C   0  0  0  0  0  0  0  0  0  0  0  0
  -26.9276  -24.1896   22.7598 C   0  0  0  0  0  0  0  0  0  0  0  0
  -28.8220  -23.1243   21.7331 C   0  0  0  0  0  0  0  0  0  0  0  0
  -29.8411  -23.3003   20.8752 C   0  0  0  0  0  0  0  0  0  0  0  0
  -29.1261  -25.2082   23.1654 C   0  0  0  0  0  0  0  0  0  0  0  0
  -28.7831  -26.4923   23.2940 C   0  0  0  0  0  0  0  0  0  1  0  0
  -24.8923  -10.0258   17.6366 C   0  0  0  0  0  0  0  0  0  0  0  0
  -25.7566  -33.9558   25.1640 C   0  0  0  0  0  0  0  0  0  0  0  0
  -24.1337  -31.4876   24.3367 C   0  0  0  0  0  0  0  0  0  0  0  0
  -22.7061  -28.7225   22.9391 C   0  0  0  0  0  0  0  0  0  0  0  0
  -27.5269  -16.7541   21.7575 C   0  0  0  0  0  0  0  0  0  0  0  0
  -23.8327  -38.4330   23.6440 C   0  0  0  0  0  0  0  0  0  0  0  0
  -27.7258  -32.7509   24.2489 C   0  0  0  0  0  0  0  0  0  0  0  0
  -26.2563  -30.6716   25.4720 C   0  0  0  0  0  0  0  0  0  0  0  0
  -26.0185  -23.1132   22.1854 C   0  0  0  0  0  0  0  0  0  0  0  0
  -28.1558  -21.7847   21.8971 C   0  0  0  0  0  0  0  0  0  0  0  0
  -23.2675  -37.0468   23.9427 C   0  0  0  0  0  0  0  0  0  0  0  0
  -29.7449  -14.0411   21.1273 C   0  0  0  0  0  0  0  0  0  0  0  0
  -23.7824  -36.5383   25.2855 C   0  0  0  0  0  0  0  0  0  0  0  0
  -28.8189  -12.9183   20.6539 C   0  0  0  0  0  0  0  0  0  0  0  0
  -29.0977  -14.8857   22.2233 C   0  0  0  0  0  0  0  0  0  0  0  0
  -26.8444  -14.2974   21.4196 C   0  0  0  0  0  0  0  0  0  0  0  0
  -25.3096  -36.4009   25.2746 C   0  0  1  0  0  0  0  0  0  0  0  0
  -26.1901  -32.8547   24.2415 C   0  0  1  0  0  0  0  0  0  0  0  0
  -27.4276  -13.4593   20.2702 C   0  0  2  0  0  0  0  0  0  0  0  0
  -26.1530  -25.2240   23.5451 C   0  0  0  0  0  0  0  0  0  0  0  0
  -20.4696  -27.7059   22.4270 C   0  0  0  0  0  0  0  0  0  0  0  0
  -23.8011  -30.7472   27.2769 C   0  0  0  0  0  0  0  0  0  0  0  0
  -22.1529  -28.9976   26.5767 C   0  0  0  0  0  0  0  0  0  0  0  0
  -21.6835  -31.4047   26.1204 C   0  0  0  0  0  0  0  0  0  0  0  0
  -23.2531  -28.6988   20.0306 C   0  0  0  0  0  0  0  0  0  0  0  0
  -23.4602  -30.2116   24.7744 C   0  0  1  0  0  0  0  0  0  0  0  0
  -21.6061  -28.5706   21.9040 C   0  0  2  0  0  0  0  0  0  0  0  0
  -22.8009  -30.3403   26.1766 C   0  0  0  0  0  0  0  0  0  0  0  0
  -25.6975  -11.7742   20.7685 N   0  0  0  0  0  0  0  0  0  0  0  0
  -26.4890  -12.3456   19.8450 N   0  0  0  0  0  0  0  0  0  0  0  0
  -26.7137  -21.9144   21.6983 N   0  0  1  0  0  0  0  0  0  0  0  0
  -25.4747  -31.6532   24.7038 N   0  0  0  0  0  0  0  0  0  0  0  0
  -27.7850  -15.3673   21.7875 N   0  0  0  0  0  0  0  0  0  0  0  0
  -27.0561  -12.2866   17.5459 N   0  0  0  0  0  0  0  0  0  0  0  0
  -23.9091   -9.0698   17.9258 N   0  0  0  0  0  0  0  0  0  0  0  0
  -26.2561  -17.0942   21.2949 N   0  0  0  0  0  0  0  0  0  0  0  0
  -25.7041  -35.2013   24.5678 N   0  0  0  0  0  0  0  0  0  0  0  0
  -22.5313  -29.8537   23.7079 N   0  0  0  0  0  0  0  0  0  0  0  0
  -22.1440  -27.9409   20.6651 N   0  3  0  0  0  0  0  0  0  0  0  0
  -25.3268  -10.1242   16.4640 O   0  0  0  0  0  0  0  0  0  0  0  0
  -25.4878  -33.6956   26.3310 O   0  0  0  0  0  0  0  0  0  0  0  0
  -23.4890  -32.3193   23.6917 O   0  0  0  0  0  0  0  0  0  0  0  0
  -23.6261  -27.9162   23.0565 O   0  0  0  0  0  0  0  0  0  0  0  0
  -28.3805  -17.5804   22.0900 O   0  0  0  0  0  0  0  0  0  0  0  0
  -21.2517   -7.5964   22.5943 O   0  0  0  0  0  0  0  0  0  0  0  0
  -29.5979  -27.4233   23.8746 O   0  0  0  0  0  0  0  0  0  1  0  0
  -22.6402   -2.3476   23.5569 F   0  0  0  0  0  0  0  0  0  0  0  0
  -21.3107   -6.5944   25.1702 F   0  0  0  0  0  0  0  0  0  0  0  0
  1  2  1  0  0  0  0
  1  6  2  0  0  0  0
  2  7  2  0  0  0  0
  3  9  2  0  0  0  0
  3 10  1  0  0  0  0
  4 11  2  0  0  0  0
  4 19  1  0  0  0  0
  5 12  1  0  0  0  0
  5 19  2  0  0  0  0
  6 21  1  0  0  0  0
  7 23  1  0  0  0  0
  8 13  2  0  0  0  0
  8 22  1  0  0  0  0
  9 25  1  0  0  0  0
 10 26  2  0  0  0  0
 11 27  1  0  0  0  0
 12 27  2  0  0  0  0
 13 28  1  0  0  0  0
 14 15  2  0  0  0  0
 14 29  1  0  0  0  0
 15 30  1  0  0  0  0
 16 24  1  0  0  0  0
 16 28  2  0  0  0  0
 17 25  2  0  0  0  0
 17 26  1  0  0  0  0
 18 30  2  0  0  0  0
 18 31  1  0  0  0  0
 19 32  1  0  0  0  0
 20 32  1  0  0  0  0
 20 33  2  0  0  0  0
 20 40  1  0  0  0  0
 21 23  2  0  0  0  0
 21 45  1  0  0  0  0
 22 24  2  0  0  0  0
 22 46  1  0  0  0  0
 23 56  1  0  0  0  0
 24 47  1  0  0  0  0
 25 70  1  0  0  0  0
 26 75  1  0  0  0  0
 27 84  1  0  0  0  0
 28 85  1  0  0  0  0
 29 31  2  0  0  0  0
 29 84  1  0  0  0  0
 30 86  1  0  0  0  0
 31 87  1  0  0  0  0
 32 68  2  0  0  0  0
 33 69  1  0  0  0  0
 33 73  1  0  0  0  0
 34 35  2  0  0  0  0
 34 36  1  0  0  0  0
 34 38  1  0  0  0  0
 35 48  1  0  0  0  0
 35 59  1  0  0  0  0
 36 37  2  0  0  0  0
 36 49  1  0  0  0  0
 38 39  2  0  0  0  0
 39 85  1  0  0  0  0
 40 74  1  0  0  0  0
 40 79  2  0  0  0  0
 41 57  1  0  0  0  0
 41 76  1  0  0  0  0
 41 80  2  0  0  0  0
 42 65  1  0  0  0  0
 42 71  1  0  0  0  0
 42 81  2  0  0  0  0
 43 66  1  0  0  0  0
 43 77  1  0  0  0  0
 43 82  2  0  0  0  0
 44 72  1  0  0  0  0
 44 75  1  0  0  0  0
 44 83  2  0  0  0  0
 45 50  1  0  0  0  0
 46 57  1  0  0  0  0
 47 71  1  0  0  0  0
 48 70  1  0  0  0  0
 49 70  1  0  0  0  0
 50 52  1  0  0  0  0
 51 53  1  0  0  0  0
 51 54  1  0  0  0  0
 52 56  1  0  0  0  0
 53 58  1  0  0  0  0
 54 72  1  0  0  0  0
 55 58  1  0  0  0  0
 55 72  1  0  0  0  0
 56 76  1  0  0  0  0
 57 71  1  0  0  0  0
 58 69  1  0  0  0  0
 60 66  1  0  0  0  0
 61 67  1  0  0  0  0
 62 67  1  0  0  0  0
 63 67  1  0  0  0  0
 64 78  1  0  0  0  0
 65 67  1  0  0  0  0
 65 77  1  0  0  0  0
 66 78  1  0  0  0  0
 68 69  1  0  0  0  0
M  CHG  1  78   1
M  ISO  4  39 101  44 100  75 100  85 101
M  END
> <Batch ID>
0079

> <Smiles>
C=C1CN(c2cccc([100NH:0][100C:0](=O)N3CCCC(n4nc(-c5ccc(Oc6ccc(F)cc6F)cc5)c(C(N)=O)c4N)C3)c2)CC(C)=C1C=[101CH:1][101O:1]c1ccc2c(c1)CN(C(=O)C(NC(=O)C(C)NC)C(C)(C)C)C(C(=O)NC1CCCc3ccccc31)C2

> <Shape>
0.283

> <Color>
0.085

> <Negative vol penalty>
0.000

$$$$

  -OEChem-04042323593D

 89 97  0     1  0  0  0  0  0999 V2000
  -27.7459  -37.7691   21.9366 C   0  0  0  0  0  0  0  0  0  0  0  0
  -28.2579  -36.5449   21.5186 C   0  0  0  0  0  0  0  0  0  0  0  0
  -23.3883  -10.8585   22.7009 C   0  0  0  0  0  0  0  0  0  0  0  0
  -22.9659  -13.2153   22.3782 C   0  0  0  0  0  0  0  0  0  0  0  0
  -26.7464  -37.8103   22.9078 C   0  0  0  0  0  0  0  0  0  0  0  0
  -27.7715  -35.3613   22.0726 C   0  0  0  0  0  0  0  0  0  0  0  0
  -27.0769  -29.9803   19.2321 C   0  0  0  0  0  0  0  0  0  0  0  0
  -22.5292  -10.8549   23.7997 C   0  0  0  0  0  0  0  0  0  0  0  0
  -22.1067  -13.2117   23.4771 C   0  0  0  0  0  0  0  0  0  0  0  0
  -27.8643  -28.8303   19.1956 C   0  0  0  0  0  0  0  0  0  0  0  0
  -18.9294  -12.2774   24.1495 C   0  0  0  0  0  0  0  0  0  0  0  0
  -17.7067  -12.9352   24.0163 C   0  0  0  0  0  0  0  0  0  0  0  0
  -28.8678  -18.2876   19.4651 C   0  0  0  0  0  0  0  0  0  0  0  0
  -30.5238  -19.9572   18.9114 C   0  0  0  0  0  0  0  0  0  0  0  0
  -26.5278  -27.8667   20.9575 C   0  0  0  0  0  0  0  0  0  0  0  0
  -31.1959  -17.6671   19.2864 C   0  0  0  0  0  0  0  0  0  0  0  0
  -18.2970  -14.4022   25.8430 C   0  0  0  0  0  0  0  0  0  0  0  0
  -23.6067  -12.0387   21.9901 C   0  0  0  0  0  0  0  0  0  0  0  0
  -29.1958  -19.6075   19.1556 C   0  0  0  0  0  0  0  0  0  0  0  0
  -24.1567  -11.7987   19.5107 C   0  0  0  0  0  0  0  0  0  0  0  0
  -26.2407  -36.6261   23.4669 C   0  0  0  0  0  0  0  0  0  0  0  0
  -26.0140  -30.0866   20.1405 C   0  0  0  0  0  0  0  0  0  0  0  0
  -26.7653  -35.3868   23.0532 C   0  0  0  0  0  0  0  0  0  0  0  0
  -25.7268  -29.0180   21.0017 C   0  0  0  0  0  0  0  0  0  0  0  0
  -29.8678  -17.3173   19.5305 C   0  0  0  0  0  0  0  0  0  0  0  0
  -31.5239  -18.9870   18.9768 C   0  0  0  0  0  0  0  0  0  0  0  0
  -21.8884  -12.0315   24.1878 C   0  0  0  0  0  0  0  0  0  0  0  0
  -27.5916  -27.7745   20.0604 C   0  0  0  0  0  0  0  0  0  0  0  0
  -19.8359  -12.6819   25.1294 C   0  0  0  0  0  0  0  0  0  0  0  0
  -17.3905  -13.9976   24.8630 C   0  0  0  0  0  0  0  0  0  0  0  0
  -19.5197  -13.7443   25.9761 C   0  0  0  0  0  0  0  0  0  0  0  0
  -24.4945  -12.0431   20.8553 C   0  0  0  0  0  0  0  0  0  0  0  0
  -25.3441  -11.9193   18.8309 C   0  0  0  0  0  0  0  0  0  0  0  0
  -28.4120  -24.3058   19.6856 C   0  0  0  0  0  0  0  0  0  0  0  0
  -27.7479  -25.4626   19.7418 C   0  0  0  0  0  0  0  0  0  1  0  0
  -28.1310  -20.6404   19.0856 C   0  0  0  0  0  0  0  0  0  0  0  0
  -22.8834  -11.4903   18.9282 C   0  0  0  0  0  0  0  0  0  0  0  0
  -27.6838  -23.0473   19.3695 C   0  0  0  0  0  0  0  0  0  0  0  0
  -25.3212  -32.0208   22.5660 C   0  0  0  0  0  0  0  0  0  0  0  0
  -22.5128  -30.3975   22.5495 C   0  0  0  0  0  0  0  0  0  0  0  0
  -20.8167  -27.5507   21.7335 C   0  0  0  0  0  0  0  0  0  0  0  0
  -30.4051  -14.8922   19.9505 C   0  0  0  0  0  0  0  0  0  0  0  0
  -25.1936  -36.7232   24.5480 C   0  0  0  0  0  0  0  0  0  0  0  0
  -25.1574  -31.3230   20.1489 C   0  0  0  0  0  0  0  0  0  0  0  0
  -24.5845  -29.0742   21.9817 C   0  0  0  0  0  0  0  0  0  0  0  0
  -24.4688  -35.4063   24.8139 C   0  0  0  0  0  0  0  0  0  0  0  0
  -30.0669  -11.3878   19.4198 C   0  0  0  0  0  0  0  0  0  0  0  0
  -25.4683  -34.2591   24.9219 C   0  0  0  0  0  0  0  0  0  0  0  0
  -28.5679  -11.1369   19.5993 C   0  0  0  0  0  0  0  0  0  0  0  0
  -30.5835  -12.4522   20.3861 C   0  0  0  0  0  0  0  0  0  0  0  0
  -28.3457  -13.4702   20.5443 C   0  0  0  0  0  0  0  0  0  0  0  0
  -26.2460  -34.0800   23.6124 C   0  0  1  0  0  0  0  0  0  0  0  0
  -24.4201  -31.5302   21.4683 C   0  0  1  0  0  0  0  0  0  0  0  0
  -27.7663  -12.4523   19.5484 C   0  0  2  0  0  0  0  0  0  0  0  0
  -18.5410  -26.5032   21.8796 C   0  0  0  0  0  0  0  0  0  0  0  0
  -22.9656  -29.8329   25.5136 C   0  0  0  0  0  0  0  0  0  0  0  0
  -21.2212  -28.0430   25.3677 C   0  0  0  0  0  0  0  0  0  0  0  0
  -20.6100  -30.4180   24.9111 C   0  0  0  0  0  0  0  0  0  0  0  0
  -20.5912  -27.3531   18.7892 C   0  0  0  0  0  0  0  0  0  0  0  0
  -34.1032  -19.0624   21.1020 C   0  0  0  0  0  0  0  0  0  0  0  0
  -21.9963  -29.1479   23.2208 C   0  0  1  0  0  0  0  0  0  0  0  0
  -19.4885  -27.3360   21.0303 C   0  0  2  0  0  0  0  0  0  0  0  0
  -21.7211  -29.3599   24.7363 C   0  0  0  0  0  0  0  0  0  0  0  0
  -25.7948  -12.2995   21.0218 N   0  0  0  0  0  0  0  0  0  0  0  0
  -26.2844  -12.2167   19.7730 N   0  0  0  0  0  0  0  0  0  0  0  0
  -23.7799  -30.3069   21.9561 N   0  0  0  0  0  0  0  0  0  0  0  0
  -29.7789  -13.6712   20.2792 N   0  0  0  0  0  0  0  0  0  0  0  0
  -25.6651  -11.7989   17.5252 N   0  0  0  0  0  0  0  0  0  0  0  0
  -21.7665  -11.4047   19.7705 N   0  0  0  0  0  0  0  0  0  0  0  0
  -29.5346  -15.9765   19.8451 N   0  0  0  0  0  0  0  0  0  0  0  0
  -32.8832  -19.3449   18.7262 N   0  0  0  0  0  0  0  0  0  0  0  0
  -28.5381  -21.9465   19.3551 N   0  0  0  0  0  0  0  0  0  0  0  0
  -25.4317  -33.3967   22.6304 N   0  0  0  0  0  0  0  0  0  0  0  0
  -20.8286  -28.7259   22.4547 N   0  0  0  0  0  0  0  0  0  0  0  0
  -19.6971  -26.6336   19.7326 N   0  3  0  0  0  0  0  0  0  0  0  0
  -26.9805  -20.2957   18.8293 O   0  0  0  0  0  0  0  0  0  0  0  0
  -22.7432  -11.2803   17.6995 O   0  0  0  0  0  0  0  0  0  0  0  0
  -26.4768  -23.0231   19.1515 O   0  0  0  0  0  0  0  0  0  0  0  0
  -25.8740  -31.2110   23.3011 O   0  0  0  0  0  0  0  0  0  0  0  0
  -21.8146  -31.4144   22.5453 O   0  0  0  0  0  0  0  0  0  0  0  0
  -21.7489  -26.7537   21.6542 O   0  0  0  0  0  0  0  0  0  0  0  0
  -31.6200  -14.9648   19.7488 O   0  0  0  0  0  0  0  0  0  0  0  0
  -34.9543  -20.7604   19.3244 O   0  0  0  0  0  0  0  0  0  0  0  0
  -32.7913  -21.2501   20.5188 O   0  0  0  0  0  0  0  0  0  0  0  0
  -21.0498  -12.0283   25.2599 O   0  0  0  0  0  0  0  0  0  0  0  0
  -28.3590  -26.6511   20.0274 O   0  0  0  0  0  0  0  0  0  1  0  0
  -16.2169  -14.6303   24.7340 F   0  0  0  0  0  0  0  0  0  0  0  0
  -20.3871  -14.1382   26.9187 F   0  0  0  0  0  0  0  0  0  0  0  0
  -33.7003  -20.3076   19.8973 S   0  0  0  0  0  0  0  0  0  0  0  0
  1  2  1  0  0  0  0
  1  5  2  0  0  0  0
  2  6  2  0  0  0  0
  3  8  2  0  0  0  0
  3 18  1  0  0  0  0
  4  9  1  0  0  0  0
  4 18  2  0  0  0  0
  5 21  1  0  0  0  0
  6 23  1  0  0  0  0
  7 10  2  0  0  0  0
  7 22  1  0  0  0  0
  8 27  1  0  0  0  0
  9 27  2  0  0  0  0
 10 28  1  0  0  0  0
 11 12  2  0  0  0  0
 11 29  1  0  0  0  0
 12 30  1  0  0  0  0
 13 19  2  0  0  0  0
 13 25  1  0  0  0  0
 14 19  1  0  0  0  0
 14 26  2  0  0  0  0
 15 24  1  0  0  0  0
 15 28  2  0  0  0  0
 16 25  2  0  0  0  0
 16 26  1  0  0  0  0
 17 30  2  0  0  0  0
 17 31  1  0  0  0  0
 18 32  1  0  0  0  0
 19 36  1  0  0  0  0
 20 32  1  0  0  0  0
 20 33  2  0  0  0  0
 20 37  1  0  0  0  0
 21 23  2  0  0  0  0
 21 43  1  0  0  0  0
 22 24  2  0  0  0  0
 22 44  1  0  0  0  0
 23 52  1  0  0  0  0
 24 45  1  0  0  0  0
 25 70  1  0  0  0  0
 26 71  1  0  0  0  0
 27 85  1  0  0  0  0
 28 86  1  0  0  0  0
 29 31  2  0  0  0  0
 29 85  1  0  0  0  0
 30 87  1  0  0  0  0
 31 88  1  0  0  0  0
 32 64  2  0  0  0  0
 33 65  1  0  0  0  0
 33 68  1  0  0  0  0
 34 35  2  0  0  0  0
 34 38  1  0  0  0  0
 35 86  1  0  0  0  0
 36 72  1  0  0  0  0
 36 76  2  0  0  0  0
 37 69  1  0  0  0  0
 37 77  2  0  0  0  0
 38 72  1  0  0  0  0
 38 78  2  0  0  0  0
 39 53  1  0  0  0  0
 39 73  1  0  0  0  0
 39 79  2  0  0  0  0
 40 61  1  0  0  0  0
 40 66  1  0  0  0  0
 40 80  2  0  0  0  0
 41 62  1  0  0  0  0
 41 74  1  0  0  0  0
 41 81  2  0  0  0  0
 42 67  1  0  0  0  0
 42 70  1  0  0  0  0
 42 82  2  0  0  0  0
 43 46  1  0  0  0  0
 44 53  1  0  0  0  0
 45 66  1  0  0  0  0
 46 48  1  0  0  0  0
 47 49  1  0  0  0  0
 47 50  1  0  0  0  0
 48 52  1  0  0  0  0
 49 54  1  0  0  0  0
 50 67  1  0  0  0  0
 51 54  1  0  0  0  0
 51 67  1  0  0  0  0
 52 73  1  0  0  0  0
 53 66  1  0  0  0  0
 54 65  1  0  0  0  0
 55 62  1  0  0  0  0
 56 63  1  0  0  0  0
 57 63  1  0  0  0  0
 58 63  1  0  0  0  0
 59 75  1  0  0  0  0
 60 89  1  0  0  0  0
 61 63  1  0  0  0  0
 61 74  1  0  0  0  0
 62 75  1  0  0  0  0
 64 65  1  0  0  0  0
 71 89  1  0  0  0  0
 83 89  2  0  0  0  0
 84 89  2  0  0  0  0
M  CHG  1  75   1
M  ISO  4  35 101  42 100  70 100  86 101
M  END
> <Batch ID>
0079

> <Smiles>
CNC(C)C(=O)NC(C(=O)N1Cc2cc([101O:1][101CH:1]=CC(=O)NC(=O)c3cc(NS(C)(=O)=O)cc([100NH:0][100C:0](=O)N4CCCC(n5nc(-c6ccc(Oc7ccc(F)cc7F)cc6)c(C(N)=O)c5N)C4)c3)ccc2CC1C(=O)NC1CCCc2ccccc21)C(C)(C)C

> <Shape>
0.300

> <Color>
0.099

> <Negative vol penalty>
0.000

$$$$

  -OEChem-04042323593D

 87 96  0     1  0  0  0  0  0999 V2000
  -19.2732  -27.9975   16.4396 C   0  0  0  0  0  0  0  0  0  0  0  0
  -20.6606  -27.9296   16.5168 C   0  0  0  0  0  0  0  0  0  0  0  0
  -24.2554  -12.0205   24.0499 C   0  0  0  0  0  0  0  0  0  0  0  0
  -23.7635  -14.3341   23.5573 C   0  0  0  0  0  0  0  0  0  0  0  0
  -18.5977  -29.0837   16.9943 C   0  0  0  0  0  0  0  0  0  0  0  0
  -21.3734  -28.9485   17.1479 C   0  0  0  0  0  0  0  0  0  0  0  0
  -24.9749  -27.1757   20.2351 C   0  0  0  0  0  0  0  0  0  0  0  0
  -31.4676  -19.6477   19.1004 C   0  0  0  0  0  0  0  0  0  0  0  0
  -31.1208  -18.2968   19.0918 C   0  0  0  0  0  0  0  0  0  0  0  0
  -23.7178  -12.1782   25.3273 C   0  0  0  0  0  0  0  0  0  0  0  0
  -23.2259  -14.4917   24.8347 C   0  0  0  0  0  0  0  0  0  0  0  0
  -26.1550  -26.7258   19.6445 C   0  0  0  0  0  0  0  0  0  0  0  0
  -20.6486  -12.2945   26.7413 C   0  0  0  0  0  0  0  0  0  0  0  0
  -19.7890  -11.3011   27.2100 C   0  0  0  0  0  0  0  0  0  0  0  0
  -27.2236  -28.8154   20.2022 C   0  0  0  0  0  0  0  0  0  0  0  0
  -29.1278  -20.2487   19.0707 C   0  0  0  0  0  0  0  0  0  0  0  0
  -21.2841  -10.8803   29.0605 C   0  0  0  0  0  0  0  0  0  0  0  0
  -24.2783  -13.0985   23.1649 C   0  0  0  0  0  0  0  0  0  0  0  0
  -24.1521  -12.5431   20.6783 C   0  0  0  0  0  0  0  0  0  0  0  0
  -19.3018  -30.1116   17.6410 C   0  0  0  0  0  0  0  0  0  0  0  0
  -24.9070  -28.4551   20.8050 C   0  0  0  0  0  0  0  0  0  0  0  0
  -20.7067  -30.0501   17.7106 C   0  0  0  0  0  0  0  0  0  0  0  0
  -26.0422  -29.2781   20.8017 C   0  0  0  0  0  0  0  0  0  0  0  0
  -30.4711  -20.6238   19.0900 C   0  0  0  0  0  0  0  0  0  0  0  0
  -29.7774  -17.9217   19.0725 C   0  0  0  0  0  0  0  0  0  0  0  0
  -23.2031  -13.4138   25.7197 C   0  0  0  0  0  0  0  0  0  0  0  0
  -27.2787  -27.5468   19.6255 C   0  0  0  0  0  0  0  0  0  0  0  0
  -21.8261  -12.5808   27.4322 C   0  0  0  0  0  0  0  0  0  0  0  0
  -20.1067  -10.5940   28.3696 C   0  0  0  0  0  0  0  0  0  0  0  0
  -28.7809  -18.8977   19.0620 C   0  0  0  0  0  0  0  0  0  0  0  0
  -22.1439  -11.8737   28.5918 C   0  0  0  0  0  0  0  0  0  0  0  0
  -24.8340  -12.9364   21.8454 C   0  0  0  0  0  0  0  0  0  0  0  0
  -25.1172  -12.5411   19.7010 C   0  0  0  0  0  0  0  0  0  0  0  0
  -30.7277  -24.2709   19.1027 C   0  0  0  0  0  0  0  0  0  0  0  0
  -32.1262  -23.9223   19.1208 C   0  0  0  0  0  0  0  0  0  0  0  0
  -29.8975  -23.0342   19.0887 C   0  0  0  0  0  0  0  0  0  0  0  0
  -33.1852  -24.7388   19.1376 C   0  0  0  0  0  0  0  0  0  0  0  0
  -30.1569  -25.4805   19.0981 C   0  0  0  0  0  0  0  0  0  0  0  0
  -22.7699  -12.2095   20.4940 C   0  0  0  0  0  0  0  0  0  0  0  0
  -23.2000  -31.0758   20.2373 C   0  0  0  0  0  0  0  0  0  0  0  0
  -24.6620  -32.1404   22.9302 C   0  0  0  0  0  0  0  0  0  0  0  0
  -27.3154  -31.9234   25.0654 C   0  0  0  0  0  0  0  0  0  0  0  0
  -30.2951  -15.4563   19.0712 C   0  0  0  0  0  0  0  0  0  0  0  0
  -18.5314  -31.2891   18.1839 C   0  0  0  0  0  0  0  0  0  0  0  0
  -23.6345  -28.9153   21.4619 C   0  0  0  0  0  0  0  0  0  0  0  0
  -26.0273  -30.6523   21.4179 C   0  0  0  0  0  0  0  0  0  0  0  0
  -32.2059  -22.4256   19.1179 C   0  0  0  0  0  0  0  0  0  0  0  0
  -19.3329  -32.1416   19.1643 C   0  0  0  0  0  0  0  0  0  0  0  0
  -29.8272  -11.9267   19.0906 C   0  0  0  0  0  0  0  0  0  0  0  0
  -20.7262  -32.4238   18.6110 C   0  0  0  0  0  0  0  0  0  0  0  0
  -28.4292  -11.7496   19.6874 C   0  0  0  0  0  0  0  0  0  0  0  0
  -30.5816  -13.0820   19.7463 C   0  0  0  0  0  0  0  0  0  0  0  0
  -28.4659  -14.1860   20.3580 C   0  0  0  0  0  0  0  0  0  0  0  0
  -21.5133  -31.1235   18.4088 C   0  0  1  0  0  0  0  0  0  0  0  0
  -23.5261  -30.4341   21.5562 C   0  0  1  0  0  0  0  0  0  0  0  0
  -27.6431  -13.0754   19.6847 C   0  0  2  0  0  0  0  0  0  0  0  0
  -28.2505  -32.9491   27.1561 C   0  0  0  0  0  0  0  0  0  0  0  0
  -25.5531  -34.5815   21.3312 C   0  0  0  0  0  0  0  0  0  0  0  0
  -27.2235  -35.0648   23.1323 C   0  0  0  0  0  0  0  0  0  0  0  0
  -24.7851  -35.0821   23.6579 C   0  0  0  0  0  0  0  0  0  0  0  0
  -27.1954  -29.3492   26.5207 C   0  0  0  0  0  0  0  0  0  0  0  0
  -28.6814  -25.7057   19.0786 C   0  0  0  0  0  0  0  0  0  1  0  0
  -25.9452  -32.8768   23.2302 C   0  0  1  0  0  0  0  0  0  0  0  0
  -27.3856  -31.8390   26.5795 C   0  0  2  0  0  0  0  0  0  0  0  0
  -25.8768  -34.3762   22.8245 C   0  0  0  0  0  0  0  0  0  0  0  0
  -26.1320  -13.1673   21.6313 N   0  0  0  0  0  0  0  0  0  0  0  0
  -26.2735  -12.9183   20.3182 N   0  0  0  0  0  0  0  0  0  0  0  0
  -30.8169  -21.9713   19.0980 N   0  0  0  0  0  0  0  0  0  0  0  0
  -24.7577  -31.0594   22.0424 N   0  0  0  0  0  0  0  0  0  0  0  0
  -29.7778  -14.3055   19.7028 N   0  0  0  0  0  0  0  0  0  0  0  0
  -25.0811  -12.2535   18.3825 N   0  0  0  0  0  0  0  0  0  0  0  0
  -21.9158  -12.2635   21.6039 N   0  0  0  0  0  0  0  0  0  0  0  0
  -29.4281  -16.5485   19.0632 N   0  0  0  0  0  0  0  0  0  0  0  0
  -22.0171  -30.6356   19.6747 N   0  0  0  0  0  0  0  0  0  0  0  0
  -26.2234  -32.6526   24.6447 N   0  0  0  0  0  0  0  0  0  0  0  0
  -27.9602  -30.5295   26.9991 N   0  3  0  0  0  0  0  0  0  0  0  0
  -28.6789  -22.9893   19.0727 O   0  0  0  0  0  0  0  0  0  0  0  0
  -22.3094  -11.8577   19.3815 O   0  0  0  0  0  0  0  0  0  0  0  0
  -23.9642  -31.9097   19.7658 O   0  0  0  0  0  0  0  0  0  0  0  0
  -23.6146  -32.5062   23.4694 O   0  0  0  0  0  0  0  0  0  0  0  0
  -28.1481  -31.3983   24.3296 O   0  0  0  0  0  0  0  0  0  0  0  0
  -31.4133  -15.4633   18.5500 O   0  0  0  0  0  0  0  0  0  0  0  0
  -22.6782  -13.5679   26.9660 O   0  0  0  0  0  0  0  0  0  0  0  0
  -28.4316  -27.1104   19.0491 O   0  0  0  0  0  0  0  0  0  1  0  0
  -19.2803   -9.6412   28.8204 F   0  0  0  0  0  0  0  0  0  0  0  0
  -27.4864  -18.5489   19.0420 F   0  0  0  0  0  0  0  0  0  0  0  0
  -23.2730  -12.1451   29.2605 F   0  0  0  0  0  0  0  0  0  0  0  0
  1  2  1  0  0  0  0
  1  5  2  0  0  0  0
  2  6  2  0  0  0  0
  3 10  2  0  0  0  0
  3 18  1  0  0  0  0
  4 11  1  0  0  0  0
  4 18  2  0  0  0  0
  5 20  1  0  0  0  0
  6 22  1  0  0  0  0
  7 12  2  0  0  0  0
  7 21  1  0  0  0  0
  8  9  2  0  0  0  0
  8 24  1  0  0  0  0
  9 25  1  0  0  0  0
 10 26  1  0  0  0  0
 11 26  2  0  0  0  0
 12 27  1  0  0  0  0
 13 14  2  0  0  0  0
 13 28  1  0  0  0  0
 14 29  1  0  0  0  0
 15 23  1  0  0  0  0
 15 27  2  0  0  0  0
 16 24  2  0  0  0  0
 16 30  1  0  0  0  0
 17 29  2  0  0  0  0
 17 31  1  0  0  0  0
 18 32  1  0  0  0  0
 19 32  1  0  0  0  0
 19 33  2  0  0  0  0
 19 39  1  0  0  0  0
 20 22  2  0  0  0  0
 20 44  1  0  0  0  0
 21 23  2  0  0  0  0
 21 45  1  0  0  0  0
 22 54  1  0  0  0  0
 23 46  1  0  0  0  0
 24 68  1  0  0  0  0
 25 30  2  0  0  0  0
 25 73  1  0  0  0  0
 26 83  1  0  0  0  0
 27 84  1  0  0  0  0
 28 31  2  0  0  0  0
 28 83  1  0  0  0  0
 29 85  1  0  0  0  0
 30 86  1  0  0  0  0
 31 87  1  0  0  0  0
 32 66  2  0  0  0  0
 33 67  1  0  0  0  0
 33 71  1  0  0  0  0
 34 35  1  0  0  0  0
 34 36  1  0  0  0  0
 34 38  2  0  0  0  0
 35 37  2  0  0  0  0
 35 47  1  0  0  0  0
 36 68  1  0  0  0  0
 36 77  2  0  0  0  0
 38 62  1  0  0  0  0
 39 72  1  0  0  0  0
 39 78  2  0  0  0  0
 40 55  1  0  0  0  0
 40 74  1  0  0  0  0
 40 79  2  0  0  0  0
 41 63  1  0  0  0  0
 41 69  1  0  0  0  0
 41 80  2  0  0  0  0
 42 64  1  0  0  0  0
 42 75  1  0  0  0  0
 42 81  2  0  0  0  0
 43 70  1  0  0  0  0
 43 73  1  0  0  0  0
 43 82  2  0  0  0  0
 44 48  1  0  0  0  0
 45 55  1  0  0  0  0
 46 69  1  0  0  0  0
 47 68  1  0  0  0  0
 48 50  1  0  0  0  0
 49 51  1  0  0  0  0
 49 52  1  0  0  0  0
 50 54  1  0  0  0  0
 51 56  1  0  0  0  0
 52 70  1  0  0  0  0
 53 56  1  0  0  0  0
 53 70  1  0  0  0  0
 54 74  1  0  0  0  0
 55 69  1  0  0  0  0
 56 67  1  0  0  0  0
 57 64  1  0  0  0  0
 58 65  1  0  0  0  0
 59 65  1  0  0  0  0
 60 65  1  0  0  0  0
 61 76  1  0  0  0  0
 62 84  1  0  0  0  0
 63 65  1  0  0  0  0
 63 75  1  0  0  0  0
 64 76  1  0  0  0  0
 66 67  1  0  0  0  0
M  CHG  1  76   1
M  ISO  4  43 100  62 101  73 100  84 101
M  END
> <Batch ID>
0079

> <Smiles>
C=C1CN(c2ccc([100NH:0][100C:0](=O)N3CCCC(n4nc(-c5ccc(Oc6ccc(F)cc6F)cc5)c(C(N)=O)c4N)C3)c(F)c2)C(=O)C1=C[101CH2:1][101O:1]c1ccc2c(c1)CN(C(=O)C(NC(=O)C(C)NC)C(C)(C)C)C(C(=O)NC1CCCc3ccccc31)C2

> <Shape>
0.278

> <Color>
0.129

> <Negative vol penalty>
0.000

$$$$

  -OEChem-04042323593D

 90 99  0     1  0  0  0  0  0999 V2000
  -31.2587  -34.2794   24.2899 C   0  0  0  0  0  0  0  0  0  0  0  0
  -31.1717  -33.1878   23.4318 C   0  0  0  0  0  0  0  0  0  0  0  0
  -24.4658   -8.9638   21.7196 C   0  0  0  0  0  0  0  0  0  0  0  0
  -23.0337  -10.3927   20.3988 C   0  0  0  0  0  0  0  0  0  0  0  0
  -30.3487  -34.4154   25.3374 C   0  0  0  0  0  0  0  0  0  0  0  0
  -30.1752  -32.2310   23.6214 C   0  0  0  0  0  0  0  0  0  0  0  0
  -27.2183  -29.0847   19.2782 C   0  0  0  0  0  0  0  0  0  0  0  0
  -23.3908   -8.6577   22.5541 C   0  0  0  0  0  0  0  0  0  0  0  0
  -21.9586  -10.0865   21.2332 C   0  0  0  0  0  0  0  0  0  0  0  0
  -27.3938  -27.7995   18.7671 C   0  0  0  0  0  0  0  0  0  0  0  0
  -20.6812   -6.6362   22.4856 C   0  0  0  0  0  0  0  0  0  0  0  0
  -20.4938   -5.2996   22.8374 C   0  0  0  0  0  0  0  0  0  0  0  0
  -25.6917  -26.9776   20.2660 C   0  0  0  0  0  0  0  0  0  0  0  0
  -25.7650  -19.7701   17.3920 C   0  0  0  0  0  0  0  0  0  0  0  0
  -25.7456  -17.3619   17.1994 C   0  0  0  0  0  0  0  0  0  0  0  0
  -27.5545  -18.4665   18.3591 C   0  0  0  0  0  0  0  0  0  0  0  0
  -20.7498   -5.8775   25.1693 C   0  0  0  0  0  0  0  0  0  0  0  0
  -24.2872   -9.8314   20.6420 C   0  0  0  0  0  0  0  0  0  0  0  0
  -25.7905   -9.4648   18.6139 C   0  0  0  0  0  0  0  0  0  0  0  0
  -29.3346  -33.4648   25.5341 C   0  0  0  0  0  0  0  0  0  0  0  0
  -26.2843  -29.3244   20.2963 C   0  0  0  0  0  0  0  0  0  0  0  0
  -29.2516  -32.3537   24.6733 C   0  0  0  0  0  0  0  0  0  0  0  0
  -25.5044  -28.2672   20.7864 C   0  0  0  0  0  0  0  0  0  0  0  0
  -25.1556  -18.5992   16.9412 C   0  0  0  0  0  0  0  0  0  0  0  0
  -26.9645  -19.7038   18.1009 C   0  0  0  0  0  0  0  0  0  0  0  0
  -26.9451  -17.2956   17.9084 C   0  0  0  0  0  0  0  0  0  0  0  0
  -22.1372   -9.2190   22.3109 C   0  0  0  0  0  0  0  0  0  0  0  0
  -26.6325  -26.7451   19.2630 C   0  0  0  0  0  0  0  0  0  0  0  0
  -20.9029   -7.5936   23.4756 C   0  0  0  0  0  0  0  0  0  0  0  0
  -20.5281   -4.9202   24.1793 C   0  0  0  0  0  0  0  0  0  0  0  0
  -20.9372   -7.2142   24.8174 C   0  0  0  0  0  0  0  0  0  0  0  0
  -25.3974  -10.1485   19.7800 C   0  0  0  0  0  0  0  0  0  0  0  0
  -26.8905  -10.1546   18.1658 C   0  0  0  0  0  0  0  0  0  0  0  0
  -26.8752  -22.0376   18.9003 C   0  0  0  0  0  0  0  0  0  0  0  0
  -27.3859  -23.2227   19.2626 C   0  0  0  0  0  0  0  0  0  0  0  0
  -28.8663  -23.3881   19.2430 C   0  0  0  0  0  0  0  0  0  0  0  0
  -29.6559  -22.2023   18.7993 C   0  0  0  0  0  0  0  0  0  0  0  0
  -30.9085  -22.4146   18.3704 C   0  0  0  0  0  0  0  0  0  0  0  0
  -25.2130   -8.3096   17.9913 C   0  0  0  0  0  0  0  0  0  0  0  0
  -26.4506  -30.3806   23.2897 C   0  0  0  0  0  0  0  0  0  0  0  0
  -22.8188  -18.6239   16.8680 C   0  0  0  0  0  0  0  0  0  0  0  0
  -23.2143  -30.2856   23.0908 C   0  0  0  0  0  0  0  0  0  0  0  0
  -20.4406  -28.9677   21.6019 C   0  0  0  0  0  0  0  0  0  0  0  0
  -28.7324  -15.7965   18.8595 C   0  0  0  0  0  0  0  0  0  0  0  0
  -28.4031  -33.6296   26.7087 C   0  0  0  0  0  0  0  0  0  0  0  0
  -26.0881  -30.7214   20.8182 C   0  0  0  0  0  0  0  0  0  0  0  0
  -24.4740  -28.4756   21.8649 C   0  0  0  0  0  0  0  0  0  0  0  0
  -29.0299  -20.8346   18.8356 C   0  0  0  0  0  0  0  0  0  0  0  0
  -27.1460  -32.7687   26.6147 C   0  0  0  0  0  0  0  0  0  0  0  0
  -30.5210  -12.8483   19.7463 C   0  0  0  0  0  0  0  0  0  0  0  0
  -27.5052  -31.3416   26.2132 C   0  0  0  0  0  0  0  0  0  0  0  0
  -29.4470  -11.7581   19.7435 C   0  0  0  0  0  0  0  0  0  0  0  0
  -29.9795  -14.1765   20.2721 C   0  0  0  0  0  0  0  0  0  0  0  0
  -27.6878  -13.5672   19.6042 C   0  0  0  0  0  0  0  0  0  0  0  0
  -28.1694  -31.3078   24.8315 C   0  0  1  0  0  0  0  0  0  0  0  0
  -25.4721  -30.7570   22.2134 C   0  0  1  0  0  0  0  0  0  0  0  0
  -28.1687  -12.2281   19.0219 C   0  0  2  0  0  0  0  0  0  0  0  0
  -21.4591  -18.6872   16.2127 C   0  0  0  0  0  0  0  0  0  0  0  0
  -22.8529  -18.5060   18.3710 C   0  0  0  0  0  0  0  0  0  0  0  0
  -17.9339  -29.0563   21.6782 C   0  0  0  0  0  0  0  0  0  0  0  0
  -23.2337  -28.5829   25.6227 C   0  0  0  0  0  0  0  0  0  0  0  0
  -20.8719  -27.9254   25.1149 C   0  0  0  0  0  0  0  0  0  0  0  0
  -21.4336  -30.3173   25.5457 C   0  0  0  0  0  0  0  0  0  0  0  0
  -20.2740  -29.9333   18.8092 C   0  0  0  0  0  0  0  0  0  0  0  0
  -26.5527  -24.4007   19.6544 C   0  0  0  0  0  0  0  0  0  1  0  0
  -22.1560  -29.2465   23.3723 C   0  0  1  0  0  0  0  0  0  0  0  0
  -19.1922  -29.6228   21.0390 C   0  0  2  0  0  0  0  0  0  0  0  0
  -21.9445  -29.0134   24.8949 C   0  0  0  0  0  0  0  0  0  0  0  0
  -26.1838  -11.1923   20.0557 N   0  0  0  0  0  0  0  0  0  0  0  0
  -23.9531  -18.6657   16.2303 N   0  0  0  0  0  0  0  0  0  0  0  0
  -27.0822  -11.1697   19.0564 N   0  0  0  0  0  0  0  0  0  0  0  0
  -27.5857  -20.8977   18.5605 N   0  0  0  0  0  0  0  0  0  0  0  0
  -24.3236  -29.8585   22.3473 N   0  0  0  0  0  0  0  0  0  0  0  0
  -28.7713  -14.5605   19.5388 N   0  0  0  0  0  0  0  0  0  0  0  0
  -27.7029   -9.9857   17.1010 N   0  0  0  0  0  0  0  0  0  0  0  0
  -24.0850   -7.7252   18.5833 N   0  0  0  0  0  0  0  0  0  0  0  0
  -27.5444  -16.0387   18.1706 N   0  0  0  0  0  0  0  0  0  0  0  0
  -27.1750  -31.4462   23.7891 N   0  0  0  0  0  0  0  0  0  0  0  0
  -20.9580  -29.6813   22.6623 N   0  0  0  0  0  0  0  0  0  0  0  0
  -19.1111  -29.4039   19.5671 N   0  3  0  0  0  0  0  0  0  0  0  0
  -29.3911  -24.4486   19.5669 O   0  0  0  0  0  0  0  0  0  0  0  0
  -25.6930   -7.8007   16.9501 O   0  0  0  0  0  0  0  0  0  0  0  0
  -26.5407  -29.2104   23.6421 O   0  0  0  0  0  0  0  0  0  0  0  0
  -23.0590  -31.4357   23.5089 O   0  0  0  0  0  0  0  0  0  0  0  0
  -20.9079  -27.9252   21.1488 O   0  0  0  0  0  0  0  0  0  0  0  0
  -29.6933  -16.5702   18.8644 O   0  0  0  0  0  0  0  0  0  0  0  0
  -21.0880   -8.9203   23.1248 O   0  0  0  0  0  0  0  0  0  0  0  0
  -26.8023  -25.4896   18.7664 O   0  0  0  0  0  0  0  0  0  1  0  0
  -20.3466   -3.6368   24.5171 F   0  0  0  0  0  0  0  0  0  0  0  0
  -21.1486   -8.1295   25.7731 F   0  0  0  0  0  0  0  0  0  0  0  0
  1  2  1  0  0  0  0
  1  5  2  0  0  0  0
  2  6  2  0  0  0  0
  3  8  2  0  0  0  0
  3 18  1  0  0  0  0
  4  9  1  0  0  0  0
  4 18  2  0  0  0  0
  5 20  1  0  0  0  0
  6 22  1  0  0  0  0
  7 10  2  0  0  0  0
  7 21  1  0  0  0  0
  8 27  1  0  0  0  0
  9 27  2  0  0  0  0
 10 28  1  0  0  0  0
 11 12  2  0  0  0  0
 11 29  1  0  0  0  0
 12 30  1  0  0  0  0
 13 23  1  0  0  0  0
 13 28  2  0  0  0  0
 14 24  2  0  0  0  0
 14 25  1  0  0  0  0
 15 24  1  0  0  0  0
 15 26  2  0  0  0  0
 16 25  2  0  0  0  0
 16 26  1  0  0  0  0
 17 30  2  0  0  0  0
 17 31  1  0  0  0  0
 18 32  1  0  0  0  0
 19 32  1  0  0  0  0
 19 33  2  0  0  0  0
 19 39  1  0  0  0  0
 20 22  2  0  0  0  0
 20 45  1  0  0  0  0
 21 23  2  0  0  0  0
 21 46  1  0  0  0  0
 22 55  1  0  0  0  0
 23 47  1  0  0  0  0
 24 70  1  0  0  0  0
 25 72  1  0  0  0  0
 26 77  1  0  0  0  0
 27 87  1  0  0  0  0
 28 88  1  0  0  0  0
 29 31  2  0  0  0  0
 29 87  1  0  0  0  0
 30 89  1  0  0  0  0
 31 90  1  0  0  0  0
 32 69  2  0  0  0  0
 33 71  1  0  0  0  0
 33 75  1  0  0  0  0
 34 35  2  0  0  0  0
 34 72  1  0  0  0  0
 35 36  1  0  0  0  0
 35 65  1  0  0  0  0
 36 37  1  0  0  0  0
 36 81  2  0  0  0  0
 37 38  2  0  0  0  0
 37 48  1  0  0  0  0
 39 76  1  0  0  0  0
 39 82  2  0  0  0  0
 40 56  1  0  0  0  0
 40 78  1  0  0  0  0
 40 83  2  0  0  0  0
 41 58  1  0  0  0  0
 41 59  1  0  0  0  0
 41 70  2  0  0  0  0
 42 66  1  0  0  0  0
 42 73  1  0  0  0  0
 42 84  2  0  0  0  0
 43 67  1  0  0  0  0
 43 79  1  0  0  0  0
 43 85  2  0  0  0  0
 44 74  1  0  0  0  0
 44 77  1  0  0  0  0
 44 86  2  0  0  0  0
 45 49  1  0  0  0  0
 46 56  1  0  0  0  0
 47 73  1  0  0  0  0
 48 72  1  0  0  0  0
 49 51  1  0  0  0  0
 50 52  1  0  0  0  0
 50 53  1  0  0  0  0
 51 55  1  0  0  0  0
 52 57  1  0  0  0  0
 53 74  1  0  0  0  0
 54 57  1  0  0  0  0
 54 74  1  0  0  0  0
 55 78  1  0  0  0  0
 56 73  1  0  0  0  0
 57 71  1  0  0  0  0
 60 67  1  0  0  0  0
 61 68  1  0  0  0  0
 62 68  1  0  0  0  0
 63 68  1  0  0  0  0
 64 80  1  0  0  0  0
 65 88  1  0  0  0  0
 66 68  1  0  0  0  0
 66 79  1  0  0  0  0
 67 80  1  0  0  0  0
 69 71  1  0  0  0  0
M  CHG  1  80   1
M  ISO  4  44 100  65 101  77 100  88 101
M  END
> <Batch ID>
0079

> <Smiles>
C=C1CN(c2cc(N=C(C)C)cc([100NH:0][100C:0](=O)N3CCCC(n4nc(-c5ccc(Oc6ccc(F)cc6F)cc5)c(C(N)=O)c4N)C3)c2)C=C([101CH2:1][101O:1]c2ccc3c(c2)CN(C(=O)C(NC(=O)C(C)NC)C(C)(C)C)C(C(=O)NC2CCCc4ccccc42)C3)C1=O

> <Shape>
0.265

> <Color>
0.093

> <Negative vol penalty>
0.000

$$$$

  -OEChem-04042323593D

 85 94  0     1  0  0  0  0  0999 V2000
  -30.1666  -36.6574   21.0158 C   0  0  0  0  0  0  0  0  0  0  0  0
  -30.4826  -35.3038   21.0735 C   0  0  0  0  0  0  0  0  0  0  0  0
  -24.7075   -8.7196   20.9861 C   0  0  0  0  0  0  0  0  0  0  0  0
  -23.0009  -10.4096   20.7249 C   0  0  0  0  0  0  0  0  0  0  0  0
  -29.1238  -37.1623   21.7914 C   0  0  0  0  0  0  0  0  0  0  0  0
  -29.7567  -34.4545   21.9079 C   0  0  0  0  0  0  0  0  0  0  0  0
  -26.2442  -28.7554   19.2481 C   0  0  0  0  0  0  0  0  0  0  0  0
  -23.9874  -20.9937   20.6995 C   0  0  0  0  0  0  0  0  0  0  0  0
  -22.7310  -19.6090   19.1695 C   0  0  0  0  0  0  0  0  0  0  0  0
  -24.5888  -19.8553   21.2361 C   0  0  0  0  0  0  0  0  0  0  0  0
  -23.3324  -18.4705   19.7060 C   0  0  0  0  0  0  0  0  0  0  0  0
  -23.7224   -7.7621   21.2278 C   0  0  0  0  0  0  0  0  0  0  0  0
  -22.0157   -9.4522   20.9666 C   0  0  0  0  0  0  0  0  0  0  0  0
  -25.7202  -27.5268   18.8454 C   0  0  0  0  0  0  0  0  0  0  0  0
  -21.7535   -6.8106   23.8051 C   0  0  0  0  0  0  0  0  0  0  0  0
  -21.9541   -5.9294   24.8676 C   0  0  0  0  0  0  0  0  0  0  0  0
  -24.9131  -27.1236   21.0891 C   0  0  0  0  0  0  0  0  0  0  0  0
  -21.8744   -4.0634   23.3351 C   0  0  0  0  0  0  0  0  0  0  0  0
  -24.3468  -10.0434   20.7347 C   0  0  0  0  0  0  0  0  0  0  0  0
  -26.3153  -11.0315   19.4478 C   0  0  0  0  0  0  0  0  0  0  0  0
  -28.3785  -36.3170   22.6284 C   0  0  0  0  0  0  0  0  0  0  0  0
  -26.0911  -29.1801   20.5708 C   0  0  0  0  0  0  0  0  0  0  0  0
  -28.7038  -34.9488   22.6965 C   0  0  0  0  0  0  0  0  0  0  0  0
  -25.4250  -28.3588   21.4953 C   0  0  0  0  0  0  0  0  0  0  0  0
  -23.0585  -20.8706   19.6663 C   0  0  0  0  0  0  0  0  0  0  0  0
  -24.2613  -18.5937   20.7393 C   0  0  0  0  0  0  0  0  0  0  0  0
  -22.3765   -8.1284   21.2181 C   0  0  0  0  0  0  0  0  0  0  0  0
  -25.0565  -26.7129   19.7637 C   0  0  0  0  0  0  0  0  0  0  0  0
  -21.6133   -6.3182   22.5076 C   0  0  0  0  0  0  0  0  0  0  0  0
  -22.0145   -4.5558   24.6326 C   0  0  0  0  0  0  0  0  0  0  0  0
  -21.6737   -4.9446   22.2726 C   0  0  0  0  0  0  0  0  0  0  0  0
  -25.3639  -11.0330   20.4855 C   0  0  0  0  0  0  0  0  0  0  0  0
  -27.0442  -12.1782   19.6487 C   0  0  0  0  0  0  0  0  0  0  0  0
  -21.2797  -24.3567   17.9837 C   0  0  0  0  0  0  0  0  0  0  0  0
  -22.6504  -24.3713   18.4771 C   0  0  0  0  0  0  0  0  0  0  0  0
  -20.8250  -25.1936   17.0385 C   0  0  0  0  0  0  0  0  0  0  0  0
  -23.2584  -25.4920   18.8983 C   0  0  0  0  0  0  0  0  0  1  0  0
  -26.5216  -10.0789   18.3963 C   0  0  0  0  0  0  0  0  0  0  0  0
  -26.7259  -31.8570   23.1218 C   0  0  0  0  0  0  0  0  0  0  0  0
  -23.8789  -30.8221   23.6057 C   0  0  0  0  0  0  0  0  0  0  0  0
  -20.6571  -29.7029   23.5382 C   0  0  0  0  0  0  0  0  0  0  0  0
  -25.8135  -17.3837   22.3119 C   0  0  0  0  0  0  0  0  0  0  0  0
  -27.2910  -36.9173   23.4838 C   0  0  0  0  0  0  0  0  0  0  0  0
  -26.6929  -30.4681   21.0635 C   0  0  0  0  0  0  0  0  0  0  0  0
  -25.3142  -28.8411   22.9158 C   0  0  0  0  0  0  0  0  0  0  0  0
  -20.4156  -23.2904   18.6014 C   0  0  0  0  0  0  0  0  0  0  0  0
  -23.3351  -23.0250   18.5227 C   0  0  0  0  0  0  0  0  0  0  0  0
  -26.3279  -35.8824   24.0596 C   0  0  0  0  0  0  0  0  0  0  0  0
  -28.4658  -15.1513   23.1234 C   0  0  0  0  0  0  0  0  0  0  0  0
  -27.0988  -34.7052   24.6484 C   0  0  0  0  0  0  0  0  0  0  0  0
  -28.0610  -13.8435   22.4395 C   0  0  0  0  0  0  0  0  0  0  0  0
  -21.0926  -21.9180   18.5838 C   0  0  0  0  0  0  0  0  0  0  0  0
  -27.2558  -15.8964   23.6840 C   0  0  0  0  0  0  0  0  0  0  0  0
  -25.7678  -14.8267   22.0375 C   0  0  0  0  0  0  0  0  0  0  0  0
  -27.9235  -33.9912   23.5706 C   0  0  1  0  0  0  0  0  0  0  0  0
  -25.8336  -31.1654   22.1334 C   0  0  1  0  0  0  0  0  0  0  0  0
  -26.9462  -14.0726   21.4001 C   0  0  2  0  0  0  0  0  0  0  0  0
  -18.4542  -29.9696   24.7102 C   0  0  0  0  0  0  0  0  0  0  0  0
  -24.9112  -29.1292   25.9235 C   0  0  0  0  0  0  0  0  0  0  0  0
  -22.5325  -28.6402   26.5328 C   0  0  0  0  0  0  0  0  0  0  0  0
  -23.3760  -30.9871   26.5910 C   0  0  0  0  0  0  0  0  0  0  0  0
  -19.3324  -30.6716   21.0754 C   0  0  0  0  0  0  0  0  0  0  0  0
  -22.9927  -29.8628   24.3591 C   0  0  1  0  0  0  0  0  0  0  0  0
  -19.3324  -30.4438   23.5627 C   0  0  2  0  0  0  0  0  0  0  0  0
  -23.4629  -29.6487   25.8256 C   0  0  0  0  0  0  0  0  0  0  0  0
  -25.4759  -12.0961   21.2862 N   0  0  0  0  0  0  0  0  0  0  0  0
  -26.5063  -12.7734   20.7517 N   0  0  0  0  0  0  0  0  0  0  0  0
  -22.4531  -22.0136   19.1287 N   0  0  1  0  0  0  0  0  0  0  0  0
  -24.9790  -30.2735   22.9354 N   0  0  0  0  0  0  0  0  0  0  0  0
  -26.2432  -16.0810   22.6421 N   0  0  0  0  0  0  0  0  0  0  0  0
  -28.0864  -12.7253   18.9877 N   0  0  0  0  0  0  0  0  0  0  0  0
  -25.6830   -8.9575   18.3366 N   0  0  0  0  0  0  0  0  0  0  0  0
  -24.8723  -17.4372   21.2844 N   0  0  0  0  0  0  0  0  0  0  0  0
  -27.0729  -33.1450   22.7613 N   0  0  0  0  0  0  0  0  0  0  0  0
  -21.6341  -30.3802   24.2368 N   0  0  0  0  0  0  0  0  0  0  0  0
  -18.5945  -30.2280   22.2860 N   0  3  0  0  0  0  0  0  0  0  0  0
  -27.4334  -10.2097   17.5448 O   0  0  0  0  0  0  0  0  0  0  0  0
  -27.0734  -31.2670   24.1381 O   0  0  0  0  0  0  0  0  0  0  0  0
  -23.6087  -32.0264   23.6142 O   0  0  0  0  0  0  0  0  0  0  0  0
  -20.8089  -28.6287   22.9606 O   0  0  0  0  0  0  0  0  0  0  0  0
  -26.2685  -18.3804   22.8790 O   0  0  0  0  0  0  0  0  0  0  0  0
  -21.4150   -7.1943   21.4537 O   0  0  0  0  0  0  0  0  0  0  0  0
  -24.5434  -25.5167   19.3629 O   0  0  0  0  0  0  0  0  0  1  0  0
  -22.2087   -3.7099   25.6528 F   0  0  0  0  0  0  0  0  0  0  0  0
  -21.5409   -4.4657   21.0280 F   0  0  0  0  0  0  0  0  0  0  0  0
  1  2  1  0  0  0  0
  1  5  2  0  0  0  0
  2  6  2  0  0  0  0
  3 12  2  0  0  0  0
  3 19  1  0  0  0  0
  4 13  1  0  0  0  0
  4 19  2  0  0  0  0
  5 21  1  0  0  0  0
  6 23  1  0  0  0  0
  7 14  2  0  0  0  0
  7 22  1  0  0  0  0
  8 10  2  0  0  0  0
  8 25  1  0  0  0  0
  9 11  1  0  0  0  0
  9 25  2  0  0  0  0
 10 26  1  0  0  0  0
 11 26  2  0  0  0  0
 12 27  1  0  0  0  0
 13 27  2  0  0  0  0
 14 28  1  0  0  0  0
 15 16  2  0  0  0  0
 15 29  1  0  0  0  0
 16 30  1  0  0  0  0
 17 24  1  0  0  0  0
 17 28  2  0  0  0  0
 18 30  2  0  0  0  0
 18 31  1  0  0  0  0
 19 32  1  0  0  0  0
 20 32  1  0  0  0  0
 20 33  2  0  0  0  0
 20 38  1  0  0  0  0
 21 23  2  0  0  0  0
 21 43  1  0  0  0  0
 22 24  2  0  0  0  0
 22 44  1  0  0  0  0
 23 55  1  0  0  0  0
 24 45  1  0  0  0  0
 25 68  1  0  0  0  0
 26 73  1  0  0  0  0
 27 82  1  0  0  0  0
 28 83  1  0  0  0  0
 29 31  2  0  0  0  0
 29 82  1  0  0  0  0
 30 84  1  0  0  0  0
 31 85  1  0  0  0  0
 32 66  2  0  0  0  0
 33 67  1  0  0  0  0
 33 71  1  0  0  0  0
 34 35  1  0  0  0  0
 34 36  2  0  0  0  0
 34 46  1  0  0  0  0
 35 37  2  0  0  0  0
 35 47  1  0  0  0  0
 37 83  1  0  0  0  0
 38 72  1  0  0  0  0
 38 77  2  0  0  0  0
 39 56  1  0  0  0  0
 39 74  1  0  0  0  0
 39 78  2  0  0  0  0
 40 63  1  0  0  0  0
 40 69  1  0  0  0  0
 40 79  2  0  0  0  0
 41 64  1  0  0  0  0
 41 75  1  0  0  0  0
 41 80  2  0  0  0  0
 42 70  1  0  0  0  0
 42 73  1  0  0  0  0
 42 81  2  0  0  0  0
 43 48  1  0  0  0  0
 44 56  1  0  0  0  0
 45 69  1  0  0  0  0
 46 52  1  0  0  0  0
 47 68  1  0  0  0  0
 48 50  1  0  0  0  0
 49 51  1  0  0  0  0
 49 53  1  0  0  0  0
 50 55  1  0  0  0  0
 51 57  1  0  0  0  0
 52 68  1  0  0  0  0
 53 70  1  0  0  0  0
 54 57  1  0  0  0  0
 54 70  1  0  0  0  0
 55 74  1  0  0  0  0
 56 69  1  0  0  0  0
 57 67  1  0  0  0  0
 58 64  1  0  0  0  0
 59 65  1  0  0  0  0
 60 65  1  0  0  0  0
 61 65  1  0  0  0  0
 62 76  1  0  0  0  0
 63 65  1  0  0  0  0
 63 75  1  0  0  0  0
 64 76  1  0  0  0  0
 66 67  1  0  0  0  0
M  CHG  1  76   1
M  ISO  4  37 101  42 100  73 100  83 101
M  END
> <Batch ID>
0079

> <Smiles>
C=C1CCN(c2ccc([100NH:0][100C:0](=O)N3CCCC(n4nc(-c5ccc(Oc6ccc(F)cc6F)cc5)c(C(N)=O)c4N)C3)cc2)CC1=[101CH:1][101O:1]c1ccc2c(c1)CN(C(=O)C(NC(=O)C(C)NC)C(C)(C)C)C(C(=O)NC1CCCc3ccccc31)C2

> <Shape>
0.239

> <Color>
0.104

> <Negative vol penalty>
0.000

$$$$

  -OEChem-04042323593D

 88 97  0     1  0  0  0  0  0999 V2000
  -17.7286  -28.2815   24.3341 C   0  0  0  0  0  0  0  0  0  0  0  0
  -18.6971  -27.6587   23.5534 C   0  0  0  0  0  0  0  0  0  0  0  0
  -23.1637   -9.6779   19.8375 C   0  0  0  0  0  0  0  0  0  0  0  0
  -24.4819   -9.2492   21.8163 C   0  0  0  0  0  0  0  0  0  0  0  0
  -17.4292  -29.6276   24.1289 C   0  0  0  0  0  0  0  0  0  0  0  0
  -19.3661  -28.3815   22.5662 C   0  0  0  0  0  0  0  0  0  0  0  0
  -24.3577  -27.5281   22.5796 C   0  0  0  0  0  0  0  0  0  0  0  0
  -22.0713   -9.0423   20.4275 C   0  0  0  0  0  0  0  0  0  0  0  0
  -23.3895   -8.6136   22.4063 C   0  0  0  0  0  0  0  0  0  0  0  0
  -24.8021  -26.3402   22.0008 C   0  0  0  0  0  0  0  0  0  0  0  0
  -21.8625   -5.6025   22.2252 C   0  0  0  0  0  0  0  0  0  0  0  0
  -22.0916   -4.3896   22.8746 C   0  0  0  0  0  0  0  0  0  0  0  0
  -25.3871  -27.5440   19.9938 C   0  0  0  0  0  0  0  0  0  0  0  0
  -25.4072  -20.3898   17.9972 C   0  0  0  0  0  0  0  0  0  0  0  0
  -26.9875  -19.1819   19.3685 C   0  0  0  0  0  0  0  0  0  0  0  0
  -25.1182  -18.0206   18.3716 C   0  0  0  0  0  0  0  0  0  0  0  0
  -21.2870   -5.3449   24.9427 C   0  0  0  0  0  0  0  0  0  0  0  0
  -24.3691   -9.7813   20.5318 C   0  0  0  0  0  0  0  0  0  0  0  0
  -26.1479  -10.0760   18.7272 C   0  0  0  0  0  0  0  0  0  0  0  0
  -18.1016  -30.3698   23.1452 C   0  0  0  0  0  0  0  0  0  0  0  0
  -24.4146  -28.7331   21.8647 C   0  0  0  0  0  0  0  0  0  0  0  0
  -19.0744  -29.7385   22.3468 C   0  0  0  0  0  0  0  0  0  0  0  0
  -24.9451  -28.7463   20.5668 C   0  0  0  0  0  0  0  0  0  0  0  0
  -26.5571  -20.3743   18.7866 C   0  0  0  0  0  0  0  0  0  0  0  0
  -24.6877  -19.2129   17.7897 C   0  0  0  0  0  0  0  0  0  0  0  0
  -26.2681  -18.0050   19.1610 C   0  0  0  0  0  0  0  0  0  0  0  0
  -22.1841   -8.5102   21.7119 C   0  0  0  0  0  0  0  0  0  0  0  0
  -25.3142  -26.3475   20.7066 C   0  0  0  0  0  0  0  0  0  0  0  0
  -21.3458   -6.6868   22.9345 C   0  0  0  0  0  0  0  0  0  0  0  0
  -21.8038   -4.2607   24.2334 C   0  0  0  0  0  0  0  0  0  0  0  0
  -21.0580   -6.5579   24.2932 C   0  0  0  0  0  0  0  0  0  0  0  0
  -25.4981  -10.4372   19.9227 C   0  0  0  0  0  0  0  0  0  0  0  0
  -27.1486  -11.0060   18.5857 C   0  0  0  0  0  0  0  0  0  0  0  0
  -28.9862  -23.8758   18.7354 C   0  0  0  0  0  0  0  0  0  0  0  0
  -27.5917  -24.0224   19.1779 C   0  0  0  0  0  0  0  0  0  0  0  0
  -29.5232  -22.5130   18.6128 C   0  0  0  0  0  0  0  0  0  0  0  0
  -26.6595  -22.8468   19.0032 C   0  0  0  0  0  0  0  0  0  0  0  0
  -29.7463  -24.9544   18.4581 C   0  0  0  0  0  0  0  0  0  0  0  0
  -30.5868  -22.1476   17.8774 C   0  0  0  0  0  0  0  0  0  0  0  0
  -27.0556  -25.1146   19.7483 C   0  0  0  0  0  0  0  0  0  1  0  0
  -25.8715   -8.9962   17.8253 C   0  0  0  0  0  0  0  0  0  0  0  0
  -22.2633  -30.8352   20.8365 C   0  0  0  0  0  0  0  0  0  0  0  0
  -24.8968  -32.5259   19.9831 C   0  0  0  0  0  0  0  0  0  0  0  0
  -28.1044  -31.8265   18.4865 C   0  0  0  0  0  0  0  0  0  0  0  0
  -27.8269  -16.6050   20.5597 C   0  0  0  0  0  0  0  0  0  0  0  0
  -17.7102  -31.8101   22.9284 C   0  0  0  0  0  0  0  0  0  0  0  0
  -23.9560  -30.0105   22.5131 C   0  0  0  0  0  0  0  0  0  0  0  0
  -25.0467  -30.0169   19.7644 C   0  0  0  0  0  0  0  0  0  0  0  0
  -28.7218  -21.4905   19.3822 C   0  0  0  0  0  0  0  0  0  0  0  0
  -18.7297  -32.6024   22.1140 C   0  0  0  0  0  0  0  0  0  0  0  0
  -30.0055  -13.8548   21.1658 C   0  0  0  0  0  0  0  0  0  0  0  0
  -19.1605  -31.8112   20.8831 C   0  0  0  0  0  0  0  0  0  0  0  0
  -29.1580  -12.6338   20.8012 C   0  0  0  0  0  0  0  0  0  0  0  0
  -29.1701  -14.9464   21.8324 C   0  0  0  0  0  0  0  0  0  0  0  0
  -27.1267  -14.1353   20.7206 C   0  0  0  0  0  0  0  0  0  0  0  0
  -19.8392  -30.4954   21.2827 C   0  0  1  0  0  0  0  0  0  0  0  0
  -23.5845  -31.0928   21.5042 C   0  0  1  0  0  0  0  0  0  0  0  0
  -27.9119  -13.0352   19.9878 C   0  0  2  0  0  0  0  0  0  0  0  0
  -30.2962  -33.0319   18.6875 C   0  0  0  0  0  0  0  0  0  0  0  0
  -24.0018  -33.9747   17.4513 C   0  0  0  0  0  0  0  0  0  0  0  0
  -26.3704  -33.8830   16.6452 C   0  0  0  0  0  0  0  0  0  0  0  0
  -25.8121  -35.1322   18.7309 C   0  0  0  0  0  0  0  0  0  0  0  0
  -29.5063  -29.3719   19.3632 C   0  0  0  0  0  0  0  0  0  0  0  0
  -25.7635  -32.6045   18.7495 C   0  0  1  0  0  0  0  0  0  0  0  0
  -29.4562  -31.8621   19.1762 C   0  0  2  0  0  0  0  0  0  0  0  0
  -25.4731  -33.8747   17.9012 C   0  0  0  0  0  0  0  0  0  0  0  0
  -26.0406  -11.5128   20.4997 N   0  0  0  0  0  0  0  0  0  0  0  0
  -27.0418  -11.8353   19.6632 N   0  0  0  0  0  0  0  0  0  0  0  0
  -27.3019  -21.5899   19.0004 N   0  0  0  0  0  0  0  0  0  0  0  0
  -24.5795  -31.2388   20.4398 N   0  0  0  0  0  0  0  0  0  0  0  0
  -28.0095  -15.2780   21.0030 N   0  0  0  0  0  0  0  0  0  0  0  0
  -23.5250  -19.2280   16.9916 N   0  0  0  0  0  0  0  0  0  0  0  0
  -28.1007  -11.1871   17.6460 N   0  0  0  0  0  0  0  0  0  0  0  0
  -26.5080   -7.7663   18.0405 N   0  0  0  0  0  0  0  0  0  0  0  0
  -26.7066  -16.7937   19.7509 N   0  0  0  0  0  0  0  0  0  0  0  0
  -21.1994  -30.7387   21.7130 N   0  0  0  0  0  0  0  0  0  0  0  0
  -27.1429  -32.4974   19.2122 N   0  0  0  0  0  0  0  0  0  0  0  0
  -30.2063  -30.6019   18.9114 N   0  3  0  0  0  0  0  0  0  0  0  0
  -25.4478  -23.0365   18.9046 O   0  0  0  0  0  0  0  0  0  0  0  0
  -25.0961   -9.1234   16.8475 O   0  0  0  0  0  0  0  0  0  0  0  0
  -22.2127  -30.7330   19.6164 O   0  0  0  0  0  0  0  0  0  0  0  0
  -24.5214  -33.5681   20.5258 O   0  0  0  0  0  0  0  0  0  0  0  0
  -27.9207  -31.2633   17.4096 O   0  0  0  0  0  0  0  0  0  0  0  0
  -28.6218  -17.5020   20.8519 O   0  0  0  0  0  0  0  0  0  0  0  0
  -21.1182   -7.8901   22.2881 O   0  0  0  0  0  0  0  0  0  0  0  0
  -25.7481  -25.1893   20.1390 O   0  0  0  0  0  0  0  0  0  1  0  0
  -22.0223   -3.0954   24.8566 F   0  0  0  0  0  0  0  0  0  0  0  0
  -20.5603   -7.5957   24.9797 F   0  0  0  0  0  0  0  0  0  0  0  0
  1  2  1  0  0  0  0
  1  5  2  0  0  0  0
  2  6  2  0  0  0  0
  3  8  2  0  0  0  0
  3 18  1  0  0  0  0
  4  9  1  0  0  0  0
  4 18  2  0  0  0  0
  5 20  1  0  0  0  0
  6 22  1  0  0  0  0
  7 10  2  0  0  0  0
  7 21  1  0  0  0  0
  8 27  1  0  0  0  0
  9 27  2  0  0  0  0
 10 28  1  0  0  0  0
 11 12  2  0  0  0  0
 11 29  1  0  0  0  0
 12 30  1  0  0  0  0
 13 23  1  0  0  0  0
 13 28  2  0  0  0  0
 14 24  1  0  0  0  0
 14 25  2  0  0  0  0
 15 24  2  0  0  0  0
 15 26  1  0  0  0  0
 16 25  1  0  0  0  0
 16 26  2  0  0  0  0
 17 30  2  0  0  0  0
 17 31  1  0  0  0  0
 18 32  1  0  0  0  0
 19 32  1  0  0  0  0
 19 33  2  0  0  0  0
 19 41  1  0  0  0  0
 20 22  2  0  0  0  0
 20 46  1  0  0  0  0
 21 23  2  0  0  0  0
 21 47  1  0  0  0  0
 22 56  1  0  0  0  0
 23 48  1  0  0  0  0
 24 69  1  0  0  0  0
 25 72  1  0  0  0  0
 26 75  1  0  0  0  0
 27 85  1  0  0  0  0
 28 86  1  0  0  0  0
 29 31  2  0  0  0  0
 29 85  1  0  0  0  0
 30 87  1  0  0  0  0
 31 88  1  0  0  0  0
 32 67  2  0  0  0  0
 33 68  1  0  0  0  0
 33 73  1  0  0  0  0
 34 35  1  0  0  0  0
 34 36  1  0  0  0  0
 34 38  2  0  0  0  0
 35 37  1  0  0  0  0
 35 40  2  0  0  0  0
 36 39  2  0  0  0  0
 36 49  1  0  0  0  0
 37 69  1  0  0  0  0
 37 79  2  0  0  0  0
 40 86  1  0  0  0  0
 41 74  1  0  0  0  0
 41 80  2  0  0  0  0
 42 57  1  0  0  0  0
 42 76  1  0  0  0  0
 42 81  2  0  0  0  0
 43 64  1  0  0  0  0
 43 70  1  0  0  0  0
 43 82  2  0  0  0  0
 44 65  1  0  0  0  0
 44 77  1  0  0  0  0
 44 83  2  0  0  0  0
 45 71  1  0  0  0  0
 45 75  1  0  0  0  0
 45 84  2  0  0  0  0
 46 50  1  0  0  0  0
 47 57  1  0  0  0  0
 48 70  1  0  0  0  0
 49 69  1  0  0  0  0
 50 52  1  0  0  0  0
 51 53  1  0  0  0  0
 51 54  1  0  0  0  0
 52 56  1  0  0  0  0
 53 58  1  0  0  0  0
 54 71  1  0  0  0  0
 55 58  1  0  0  0  0
 55 71  1  0  0  0  0
 56 76  1  0  0  0  0
 57 70  1  0  0  0  0
 58 68  1  0  0  0  0
 59 65  1  0  0  0  0
 60 66  1  0  0  0  0
 61 66  1  0  0  0  0
 62 66  1  0  0  0  0
 63 78  1  0  0  0  0
 64 66  1  0  0  0  0
 64 77  1  0  0  0  0
 65 78  1  0  0  0  0
 67 68  1  0  0  0  0
M  CHG  1  78   1
M  ISO  4  40 101  45 100  75 100  86 101
M  END
> <Batch ID>
0079

> <Smiles>
C=C1CN(c2cc(N)cc([100NH:0][100C:0](=O)N3CCCC(n4nc(-c5ccc(Oc6ccc(F)cc6F)cc5)c(C(N)=O)c4N)C3)c2)C(=O)C(=[101CH:1][101O:1]c2ccc3c(c2)CN(C(=O)C(NC(=O)C(C)NC)C(C)(C)C)C(C(=O)NC2CCCc4ccccc42)C3)C1=C

> <Shape>
0.257

> <Color>
0.088

> <Negative vol penalty>
0.000

$$$$

  -OEChem-04042323593D

 84 92  0     1  0  0  0  0  0999 V2000
  -18.9719  -33.1028   24.5000 C   0  0  0  0  0  0  0  0  0  0  0  0
  -20.2895  -32.7651   24.7920 C   0  0  0  0  0  0  0  0  0  0  0  0
  -30.6250  -22.8514   17.3501 C   0  0  0  0  0  0  0  0  0  0  0  0
  -27.8529  -12.7153   22.6075 C   0  0  0  0  0  0  0  0  0  0  0  0
  -26.7922  -12.9389   20.4484 C   0  0  0  0  0  0  0  0  0  0  0  0
  -30.8101  -24.0697   18.0036 C   0  0  0  0  0  0  0  0  0  0  0  0
  -18.1403  -32.1788   23.8686 C   0  0  0  0  0  0  0  0  0  0  0  0
  -20.7760  -31.5028   24.4537 C   0  0  0  0  0  0  0  0  0  0  0  0
  -26.4545  -30.1133   22.6291 C   0  0  0  0  0  0  0  0  0  0  0  0
  -29.6569  -21.9560   17.8048 C   0  0  0  0  0  0  0  0  0  0  0  0
  -27.3240  -11.4309   22.7344 C   0  0  0  0  0  0  0  0  0  0  0  0
  -26.2633  -11.6545   20.5752 C   0  0  0  0  0  0  0  0  0  0  0  0
  -27.5580  -29.5978   23.3077 C   0  0  0  0  0  0  0  0  0  0  0  0
  -23.6891  -10.1681   22.1861 C   0  0  0  0  0  0  0  0  0  0  0  0
  -22.3481   -9.9834   21.8499 C   0  0  0  0  0  0  0  0  0  0  0  0
  -29.0591  -23.4973   19.5667 C   0  0  0  0  0  0  0  0  0  0  0  0
  -26.9715  -27.3793   22.5638 C   0  0  0  0  0  0  0  0  0  0  0  0
  -22.9931   -8.3886   20.1535 C   0  0  0  0  0  0  0  0  0  0  0  0
  -27.5870  -13.4694   21.4646 C   0  0  0  0  0  0  0  0  0  0  0  0
  -30.0272  -24.3926   19.1119 C   0  0  0  0  0  0  0  0  0  0  0  0
  -29.3688  -15.1547   20.7628 C   0  0  0  0  0  0  0  0  0  0  0  0
  -18.6196  -30.9080   23.5137 C   0  0  0  0  0  0  0  0  0  0  0  0
  -25.5936  -29.2628   21.9207 C   0  0  0  0  0  0  0  0  0  0  0  0
  -19.9496  -30.5605   23.8182 C   0  0  0  0  0  0  0  0  0  0  0  0
  -25.8592  -27.8868   21.8750 C   0  0  0  0  0  0  0  0  0  0  0  0
  -28.8740  -22.2790   18.9131 C   0  0  0  0  0  0  0  0  0  0  0  0
  -26.5292  -10.9005   21.7182 C   0  0  0  0  0  0  0  0  0  0  0  0
  -27.8150  -28.2303   23.2775 C   0  0  0  0  0  0  0  0  0  0  0  0
  -24.6822   -9.4632   21.5060 C   0  0  0  0  0  0  0  0  0  0  0  0
  -22.0001   -9.0937   20.8336 C   0  0  0  0  0  0  0  0  0  0  0  0
  -24.3342   -8.5734   20.4897 C   0  0  0  0  0  0  0  0  0  0  0  0
  -28.1327  -14.7964   21.3332 C   0  0  0  0  0  0  0  0  0  0  0  0
  -29.4174  -16.5223   20.8797 C   0  0  0  0  0  0  0  0  0  0  0  0
  -30.2254  -25.6902   19.8067 C   0  0  0  0  0  0  0  0  0  0  0  0
  -30.3825  -14.3254   20.1795 C   0  0  0  0  0  0  0  0  0  0  0  0
  -22.5151  -28.5010   22.1362 C   0  0  0  0  0  0  0  0  0  0  0  0
  -23.1270  -26.8736   19.3977 C   0  0  0  0  0  0  0  0  0  0  0  0
  -25.4191  -25.3283   17.3964 C   0  0  0  0  0  0  0  0  0  0  0  0
  -29.9638  -26.8362   21.9789 C   0  0  0  0  0  0  0  0  0  0  0  0
  -27.0295  -21.5347   20.4592 C   0  0  0  0  0  0  0  0  0  0  0  0
  -17.6695  -29.9261   22.8752 C   0  0  0  0  0  0  0  0  0  0  0  0
  -24.4227  -29.8379   21.1719 C   0  0  0  0  0  0  0  0  0  0  0  0
  -24.9771  -26.9338   21.1120 C   0  0  0  0  0  0  0  0  0  0  0  0
  -18.3706  -28.7430   22.2126 C   0  0  0  0  0  0  0  0  0  0  0  0
  -26.4603  -19.7144   23.4658 C   0  0  0  0  0  0  0  0  0  0  0  0
  -19.4382  -28.1685   23.1383 C   0  0  0  0  0  0  0  0  0  0  0  0
  -26.9463  -18.3021   23.1321 C   0  0  0  0  0  0  0  0  0  0  0  0
  -25.7805  -20.3777   22.2693 C   0  0  0  0  0  0  0  0  0  0  0  0
  -27.0574  -18.9740   20.6983 C   0  0  0  0  0  0  0  0  0  0  0  0
  -20.5212  -29.2100   23.4447 C   0  0  1  0  0  0  0  0  0  0  0  0
  -23.3217  -28.8153   20.9081 C   0  0  1  0  0  0  0  0  0  0  0  0
  -27.8066  -18.2897   21.8533 C   0  0  2  0  0  0  0  0  0  0  0  0
  -25.6136  -24.0575   15.2412 C   0  0  0  0  0  0  0  0  0  0  0  0
  -30.6571  -26.1556   24.2935 C   0  0  0  0  0  0  0  0  0  0  0  0
  -21.9543  -24.4033   20.7513 C   0  0  0  0  0  0  0  0  0  0  0  0
  -23.0224  -23.0057   18.9697 C   0  0  0  0  0  0  0  0  0  0  0  0
  -21.2917  -24.6947   18.3575 C   0  0  0  0  0  0  0  0  0  0  0  0
  -27.2281  -27.3583   16.2280 C   0  0  0  0  0  0  0  0  0  0  0  0
  -23.5897  -25.4755   19.0655 C   0  0  1  0  0  0  0  0  0  0  0  0
  -25.6808  -25.4245   15.9041 C   0  0  2  0  0  0  0  0  0  0  0  0
  -29.4927  -26.5491   23.3983 C   0  0  1  0  0  0  0  0  0  1  0  0
  -22.4802  -24.4122   19.3021 C   0  0  0  0  0  0  0  0  0  0  0  0
  -27.4456  -15.8513   21.7794 N   0  0  0  0  0  0  0  0  0  0  0  0
  -28.2529  -16.8859   21.4895 N   0  0  0  0  0  0  0  0  0  0  0  0
  -23.8411  -27.5435   20.4013 N   0  0  0  0  0  0  0  0  0  0  0  0
  -26.6559  -20.3324   21.0961 N   0  0  0  0  0  0  0  0  0  0  0  0
  -30.3422  -17.4374   20.5194 N   0  0  0  0  0  0  0  0  0  0  0  0
  -30.1719  -12.9403   20.1403 N   0  0  0  0  0  0  0  0  0  0  0  0
  -27.8904  -21.3694   19.3748 N   0  0  0  0  0  0  0  0  0  0  0  0
  -29.8805  -25.7108   21.1570 N   0  0  0  0  0  0  0  0  0  0  0  0
  -21.4313  -29.3368   22.3267 N   0  0  0  0  0  0  0  0  0  0  0  0
  -24.0874  -25.5251   17.6951 N   0  0  0  0  0  0  0  0  0  0  0  0
  -27.0305  -26.0036   15.6513 N   0  3  0  0  0  0  0  0  0  0  0  0
  -30.6446  -26.6521   19.1687 O   0  0  0  0  0  0  0  0  0  0  0  0
  -31.4510  -14.7970   19.7217 O   0  0  0  0  0  0  0  0  0  0  0  0
  -22.8504  -27.5683   22.8568 O   0  0  0  0  0  0  0  0  0  0  0  0
  -22.1719  -27.3562   18.7842 O   0  0  0  0  0  0  0  0  0  0  0  0
  -26.3065  -25.0976   18.2148 O   0  0  0  0  0  0  0  0  0  0  0  0
  -30.3489  -27.9480   21.6244 O   0  0  0  0  0  0  0  0  0  0  0  0
  -26.6379  -22.6324   20.8640 O   0  0  0  0  0  0  0  0  0  0  0  0
  -26.0131   -9.6471   21.8415 O   0  0  0  0  0  0  0  0  0  0  0  0
  -28.8910  -27.7244   23.9394 O   0  0  0  0  0  0  0  0  0  1  0  0
  -20.7121   -8.9152   20.5119 F   0  0  0  0  0  0  0  0  0  0  0  0
  -25.2837   -7.8924   19.8336 F   0  0  0  0  0  0  0  0  0  0  0  0
  1  2  1  0  0  0  0
  1  7  2  0  0  0  0
  2  8  2  0  0  0  0
  3  6  2  0  0  0  0
  3 10  1  0  0  0  0
  4 11  2  0  0  0  0
  4 19  1  0  0  0  0
  5 12  1  0  0  0  0
  5 19  2  0  0  0  0
  6 20  1  0  0  0  0
  7 22  1  0  0  0  0
  8 24  1  0  0  0  0
  9 13  2  0  0  0  0
  9 23  1  0  0  0  0
 10 26  2  0  0  0  0
 11 27  1  0  0  0  0
 12 27  2  0  0  0  0
 13 28  1  0  0  0  0
 14 15  2  0  0  0  0
 14 29  1  0  0  0  0
 15 30  1  0  0  0  0
 16 20  2  0  0  0  0
 16 26  1  0  0  0  0
 17 25  1  0  0  0  0
 17 28  2  0  0  0  0
 18 30  2  0  0  0  0
 18 31  1  0  0  0  0
 19 32  1  0  0  0  0
 20 34  1  0  0  0  0
 21 32  1  0  0  0  0
 21 33  2  0  0  0  0
 21 35  1  0  0  0  0
 22 24  2  0  0  0  0
 22 41  1  0  0  0  0
 23 25  2  0  0  0  0
 23 42  1  0  0  0  0
 24 50  1  0  0  0  0
 25 43  1  0  0  0  0
 26 69  1  0  0  0  0
 27 81  1  0  0  0  0
 28 82  1  0  0  0  0
 29 31  2  0  0  0  0
 29 81  1  0  0  0  0
 30 83  1  0  0  0  0
 31 84  1  0  0  0  0
 32 63  2  0  0  0  0
 33 64  1  0  0  0  0
 33 67  1  0  0  0  0
 34 70  1  0  0  0  0
 34 74  2  0  0  0  0
 35 68  1  0  0  0  0
 35 75  2  0  0  0  0
 36 51  1  0  0  0  0
 36 71  1  0  0  0  0
 36 76  2  0  0  0  0
 37 59  1  0  0  0  0
 37 65  1  0  0  0  0
 37 77  2  0  0  0  0
 38 60  1  0  0  0  0
 38 72  1  0  0  0  0
 38 78  2  0  0  0  0
 39 61  1  0  0  0  0
 39 70  1  0  0  0  0
 39 79  2  0  0  0  0
 40 66  1  0  0  0  0
 40 69  1  0  0  0  0
 40 80  2  0  0  0  0
 41 44  1  0  0  0  0
 42 51  1  0  0  0  0
 43 65  1  0  0  0  0
 44 46  1  0  0  0  0
 45 47  1  0  0  0  0
 45 48  1  0  0  0  0
 46 50  1  0  0  0  0
 47 52  1  0  0  0  0
 48 66  1  0  0  0  0
 49 52  1  0  0  0  0
 49 66  1  0  0  0  0
 50 71  1  0  0  0  0
 51 65  1  0  0  0  0
 52 64  1  0  0  0  0
 53 60  1  0  0  0  0
 54 61  1  0  0  0  0
 55 62  1  0  0  0  0
 56 62  1  0  0  0  0
 57 62  1  0  0  0  0
 58 73  1  0  0  0  0
 59 62  1  0  0  0  0
 59 72  1  0  0  0  0
 60 73  1  0  0  0  0
 61 82  1  0  0  0  0
 63 64  1  0  0  0  0
M  CHG  1  73   1
M  ISO  4  40 100  61 101  69 100  82 101
M  END
> <Batch ID>
0079

> <Smiles>
CNC(C)C(=O)NC(C(=O)N1Cc2cc([101O:1][101CH:1](C)C(=O)NC(=O)c3cccc([100NH:0][100C:0](=O)N4CCCC(n5nc(-c6ccc(Oc7ccc(F)cc7F)cc6)c(C(N)=O)c5N)C4)c3)ccc2CC1C(=O)NC1CCCc2ccccc21)C(C)(C)C

> <Shape>
0.251

> <Color>
0.076

> <Negative vol penalty>
0.000

$$$$

  -OEChem-04042323593D

 86 95  0     1  0  0  0  0  0999 V2000
  -29.4399  -34.8746   16.5192 C   0  0  0  0  0  0  0  0  0  0  0  0
  -29.5567  -33.5003   16.7014 C   0  0  0  0  0  0  0  0  0  0  0  0
  -22.9424  -10.0807   19.9030 C   0  0  0  0  0  0  0  0  0  0  0  0
  -23.9023   -9.7619   22.0970 C   0  0  0  0  0  0  0  0  0  0  0  0
  -29.2864  -17.2570   22.5147 C   0  0  0  0  0  0  0  0  0  0  0  0
  -28.7746  -35.6485   17.4692 C   0  0  0  0  0  0  0  0  0  0  0  0
  -29.0092  -32.8993   17.8343 C   0  0  0  0  0  0  0  0  0  0  0  0
  -26.4797  -27.3333   18.1903 C   0  0  0  0  0  0  0  0  0  0  0  0
  -28.6026  -18.4471   22.2662 C   0  0  0  0  0  0  0  0  0  0  0  0
  -22.1621   -8.9379   20.0783 C   0  0  0  0  0  0  0  0  0  0  0  0
  -23.1220   -8.6191   22.2724 C   0  0  0  0  0  0  0  0  0  0  0  0
  -26.9749  -26.1039   18.6230 C   0  0  0  0  0  0  0  0  0  0  0  0
  -19.9216   -7.8894   23.0759 C   0  0  0  0  0  0  0  0  0  0  0  0
  -19.2707   -7.7325   24.2995 C   0  0  0  0  0  0  0  0  0  0  0  0
  -29.4925  -16.8789   20.1374 C   0  0  0  0  0  0  0  0  0  0  0  0
  -26.0038  -26.4851   20.7981 C   0  0  0  0  0  0  0  0  0  0  0  0
  -20.4656   -5.6656   24.6700 C   0  0  0  0  0  0  0  0  0  0  0  0
  -23.8125  -10.4927   20.9123 C   0  0  0  0  0  0  0  0  0  0  0  0
  -29.7314  -16.4730   21.4504 C   0  0  0  0  0  0  0  0  0  0  0  0
  -24.2790  -12.9956   21.0727 C   0  0  0  0  0  0  0  0  0  0  0  0
  -28.2103  -35.0553   18.6095 C   0  0  0  0  0  0  0  0  0  0  0  0
  -25.7509  -28.1541   19.0630 C   0  0  0  0  0  0  0  0  0  0  0  0
  -28.3369  -33.6662   18.8011 C   0  0  0  0  0  0  0  0  0  0  0  0
  -25.4983  -27.7232   20.3733 C   0  0  0  0  0  0  0  0  0  0  0  0
  -28.3637  -18.8531   20.9533 C   0  0  0  0  0  0  0  0  0  0  0  0
  -28.8087  -18.0690   19.8889 C   0  0  0  0  0  0  0  0  0  0  0  0
  -22.2519   -8.2071   21.2630 C   0  0  0  0  0  0  0  0  0  0  0  0
  -26.7394  -25.6809   19.9279 C   0  0  0  0  0  0  0  0  0  0  0  0
  -20.8445   -6.9344   22.6492 C   0  0  0  0  0  0  0  0  0  0  0  0
  -19.5427   -6.6206   25.0966 C   0  0  0  0  0  0  0  0  0  0  0  0
  -21.1165   -5.8225   23.4463 C   0  0  0  0  0  0  0  0  0  0  0  0
  -24.6192  -11.6728   20.7315 C   0  0  0  0  0  0  0  0  0  0  0  0
  -25.3737  -13.7380   20.7026 C   0  0  0  0  0  0  0  0  0  0  0  0
  -28.1315  -21.1411   20.0535 C   0  0  0  0  0  0  0  0  0  0  0  0
  -27.2177  -22.1207   20.0181 C   0  0  0  0  0  0  0  0  0  0  0  0
  -26.0322  -21.6635   20.7271 C   0  0  0  0  0  0  0  0  0  0  0  0
  -24.8916  -22.3318   20.9250 C   0  0  0  0  0  0  0  0  0  0  0  0
  -30.4440  -15.2321   21.7101 C   0  0  0  0  0  0  0  0  0  0  0  0
  -23.0807  -13.5074   21.6709 C   0  0  0  0  0  0  0  0  0  0  0  0
  -30.9302  -14.3760   20.6037 C   0  0  0  0  0  0  0  0  0  0  0  0
  -26.1585  -31.0671   20.2680 C   0  0  0  0  0  0  0  0  0  0  0  0
  -23.1827  -30.5674   21.4584 C   0  0  0  0  0  0  0  0  0  0  0  0
  -20.7836  -28.3390   22.4204 C   0  0  0  0  0  0  0  0  0  0  0  0
  -27.5417  -35.9395   19.6322 C   0  0  0  0  0  0  0  0  0  0  0  0
  -25.2008  -29.4654   18.5729 C   0  0  0  0  0  0  0  0  0  0  0  0
  -24.7042  -28.5581   21.3433 C   0  0  0  0  0  0  0  0  0  0  0  0
  -26.3158  -20.2543   21.2212 C   0  0  0  0  0  0  0  0  0  0  0  0
  -26.6641  -35.1735   20.6188 C   0  0  0  0  0  0  0  0  0  0  0  0
  -29.4193  -12.5087   17.9416 C   0  0  0  0  0  0  0  0  0  0  0  0
  -27.3987  -33.9441   21.1438 C   0  0  0  0  0  0  0  0  0  0  0  0
  -28.0209  -12.2005   18.4759 C   0  0  0  0  0  0  0  0  0  0  0  0
  -30.4556  -12.5152   19.0607 C   0  0  0  0  0  0  0  0  0  0  0  0
  -28.7245  -13.1421   20.7217 C   0  0  0  0  0  0  0  0  0  0  0  0
  -27.7348  -32.9741   20.0046 C   0  0  1  0  0  0  0  0  0  0  0  0
  -24.9110  -30.4508   19.7009 C   0  0  1  0  0  0  0  0  0  0  0  0
  -27.6461  -13.1541   19.6243 C   0  0  2  0  0  0  0  0  0  0  0  0
  -18.4706  -28.2298   23.3876 C   0  0  0  0  0  0  0  0  0  0  0  0
  -24.3038  -31.2574   24.2111 C   0  0  0  0  0  0  0  0  0  0  0  0
  -22.2586  -30.2291   25.2249 C   0  0  0  0  0  0  0  0  0  0  0  0
  -22.0445  -32.2177   23.7342 C   0  0  0  0  0  0  0  0  0  0  0  0
  -19.7258  -26.9452   20.0335 C   0  0  0  0  0  0  0  0  0  0  0  0
  -27.3567  -23.4519   19.3743 C   0  0  0  0  0  0  0  0  0  1  0  0
  -22.6255  -29.9719   22.7289 C   0  0  1  0  0  0  0  0  0  0  0  0
  -19.2991  -28.2618   22.1127 C   0  0  2  0  0  0  0  0  0  0  0  0
  -22.8248  -30.9039   23.9573 C   0  0  0  0  0  0  0  0  0  0  0  0
  -25.8348  -11.5773   20.1864 N   0  0  0  0  0  0  0  0  0  0  0  0
  -30.7034  -14.7927   22.9120 N   0  0  0  0  0  0  0  0  0  0  0  0
  -26.2680  -12.8495   20.1821 N   0  0  0  0  0  0  0  0  0  0  0  0
  -27.6876  -20.0261   20.7309 N   0  0  0  0  0  0  0  0  0  0  0  0
  -30.0517  -13.4021   20.1499 N   0  0  0  0  0  0  0  0  0  0  0  0
  -24.1928  -29.8351   20.8187 N   0  0  0  0  0  0  0  0  0  0  0  0
  -28.5763  -18.4614   18.5515 N   0  0  0  0  0  0  0  0  0  0  0  0
  -25.6488  -15.0577   20.7747 N   0  0  0  0  0  0  0  0  0  0  0  0
  -22.0549  -12.6066   21.9880 N   0  0  0  0  0  0  0  0  0  0  0  0
  -26.5612  -32.2195   19.6205 N   0  0  0  0  0  0  0  0  0  0  0  0
  -21.2322  -29.6425   22.4485 N   0  0  0  0  0  0  0  0  0  0  0  0
  -18.9966  -27.0335   21.3247 N   0  3  0  0  0  0  0  0  0  0  0  0
  -22.9177  -14.7295   21.9018 O   0  0  0  0  0  0  0  0  0  0  0  0
  -32.0617  -14.6203   20.2060 O   0  0  0  0  0  0  0  0  0  0  0  0
  -26.7138  -30.5372   21.2233 O   0  0  0  0  0  0  0  0  0  0  0  0
  -22.7331  -31.6391   21.0450 O   0  0  0  0  0  0  0  0  0  0  0  0
  -21.4752  -27.3427   22.6198 O   0  0  0  0  0  0  0  0  0  0  0  0
  -21.4905   -7.0920   21.4345 O   0  0  0  0  0  0  0  0  0  0  0  0
  -27.2221  -24.4817   20.3530 O   0  0  0  0  0  0  0  0  0  1  0  0
  -18.9186   -6.4708   26.2723 F   0  0  0  0  0  0  0  0  0  0  0  0
  -22.0029   -4.9023   23.0424 F   0  0  0  0  0  0  0  0  0  0  0  0
  1  2  1  0  0  0  0
  1  6  2  0  0  0  0
  2  7  2  0  0  0  0
  3 10  2  0  0  0  0
  3 18  1  0  0  0  0
  4 11  1  0  0  0  0
  4 18  2  0  0  0  0
  5  9  2  0  0  0  0
  5 19  1  0  0  0  0
  6 21  1  0  0  0  0
  7 23  1  0  0  0  0
  8 12  2  0  0  0  0
  8 22  1  0  0  0  0
  9 25  1  0  0  0  0
 10 27  1  0  0  0  0
 11 27  2  0  0  0  0
 12 28  1  0  0  0  0
 13 14  2  0  0  0  0
 13 29  1  0  0  0  0
 14 30  1  0  0  0  0
 15 19  2  0  0  0  0
 15 26  1  0  0  0  0
 16 24  1  0  0  0  0
 16 28  2  0  0  0  0
 17 30  2  0  0  0  0
 17 31  1  0  0  0  0
 18 32  1  0  0  0  0
 19 38  1  0  0  0  0
 20 32  1  0  0  0  0
 20 33  2  0  0  0  0
 20 39  1  0  0  0  0
 21 23  2  0  0  0  0
 21 44  1  0  0  0  0
 22 24  2  0  0  0  0
 22 45  1  0  0  0  0
 23 54  1  0  0  0  0
 24 46  1  0  0  0  0
 25 26  2  0  0  0  0
 25 69  1  0  0  0  0
 26 72  1  0  0  0  0
 27 83  1  0  0  0  0
 28 84  1  0  0  0  0
 29 31  2  0  0  0  0
 29 83  1  0  0  0  0
 30 85  1  0  0  0  0
 31 86  1  0  0  0  0
 32 66  2  0  0  0  0
 33 68  1  0  0  0  0
 33 73  1  0  0  0  0
 34 35  2  0  0  0  0
 34 69  1  0  0  0  0
 35 36  1  0  0  0  0
 35 62  1  0  0  0  0
 36 37  2  0  0  0  0
 36 47  1  0  0  0  0
 38 40  1  0  0  0  0
 38 67  2  0  0  0  0
 39 74  1  0  0  0  0
 39 78  2  0  0  0  0
 40 70  1  0  0  0  0
 40 79  2  0  0  0  0
 41 55  1  0  0  0  0
 41 75  1  0  0  0  0
 41 80  2  0  0  0  0
 42 63  1  0  0  0  0
 42 71  1  0  0  0  0
 42 81  2  0  0  0  0
 43 64  1  0  0  0  0
 43 76  1  0  0  0  0
 43 82  2  0  0  0  0
 44 48  1  0  0  0  0
 45 55  1  0  0  0  0
 46 71  1  0  0  0  0
 47 69  1  0  0  0  0
 48 50  1  0  0  0  0
 49 51  1  0  0  0  0
 49 52  1  0  0  0  0
 50 54  1  0  0  0  0
 51 56  1  0  0  0  0
 52 70  1  0  0  0  0
 53 56  1  0  0  0  0
 53 70  1  0  0  0  0
 54 75  1  0  0  0  0
 55 71  1  0  0  0  0
 56 68  1  0  0  0  0
 57 64  1  0  0  0  0
 58 65  1  0  0  0  0
 59 65  1  0  0  0  0
 60 65  1  0  0  0  0
 61 77  1  0  0  0  0
 62 84  1  0  0  0  0
 63 65  1  0  0  0  0
 63 76  1  0  0  0  0
 64 77  1  0  0  0  0
 66 68  1  0  0  0  0
M  CHG  1  77   1
M  ISO  4  38 100  40 100  62 101  84 101
M  END
> <Batch ID>
0079

> <Smiles>
C=C1CN(c2ccc([100C:0](=N)[100C:0](=O)N3CCCC(n4nc(-c5ccc(Oc6ccc(F)cc6F)cc5)c(C(N)=O)c4N)C3)cc2N)C=C1[101CH2:1][101O:1]c1ccc2c(c1)CN(C(=O)C(NC(=O)C(C)NC)C(C)(C)C)C(C(=O)NC1CCCc3ccccc31)C2

> <Shape>
0.362

> <Color>
0.198

> <Negative vol penalty>
0.000

$$$$

  -OEChem-04042323593D

 83 92  0     1  0  0  0  0  0999 V2000
  -27.9816  -38.0364   22.1916 C   0  0  0  0  0  0  0  0  0  0  0  0
  -28.1928  -37.0615   21.2218 C   0  0  0  0  0  0  0  0  0  0  0  0
  -24.1224   -9.5036   22.4430 C   0  0  0  0  0  0  0  0  0  0  0  0
  -22.8812  -11.4827   21.8269 C   0  0  0  0  0  0  0  0  0  0  0  0
  -27.6939  -37.6622   23.5035 C   0  0  0  0  0  0  0  0  0  0  0  0
  -28.1174  -35.7117   21.5637 C   0  0  0  0  0  0  0  0  0  0  0  0
  -26.2054  -29.3637   18.8501 C   0  0  0  0  0  0  0  0  0  0  0  0
  -26.3414  -19.4494   18.9349 C   0  0  0  0  0  0  0  0  0  0  0  0
  -28.6364  -19.8098   19.5984 C   0  0  0  0  0  0  0  0  0  0  0  0
  -26.5845  -18.0793   18.8383 C   0  0  0  0  0  0  0  0  0  0  0  0
  -28.8795  -18.4397   19.5018 C   0  0  0  0  0  0  0  0  0  0  0  0
  -23.2673   -9.3046   23.5268 C   0  0  0  0  0  0  0  0  0  0  0  0
  -22.0260  -11.2837   22.9108 C   0  0  0  0  0  0  0  0  0  0  0  0
  -26.7034  -28.0733   18.6745 C   0  0  0  0  0  0  0  0  0  0  0  0
  -20.1643   -8.0707   24.0578 C   0  0  0  0  0  0  0  0  0  0  0  0
  -19.6897   -6.7781   24.2804 C   0  0  0  0  0  0  0  0  0  0  0  0
  -26.1213  -27.5449   20.9551 C   0  0  0  0  0  0  0  0  0  0  0  0
  -20.7154   -6.7782   26.4678 C   0  0  0  0  0  0  0  0  0  0  0  0
  -23.9294  -10.5926   21.5930 C   0  0  0  0  0  0  0  0  0  0  0  0
  -24.6609  -10.2973   19.1670 C   0  0  0  0  0  0  0  0  0  0  0  0
  -27.6054  -36.3072   23.8595 C   0  0  0  0  0  0  0  0  0  0  0  0
  -25.6707  -29.7583   20.0850 C   0  0  0  0  0  0  0  0  0  0  0  0
  -27.8295  -35.3190   22.8819 C   0  0  0  0  0  0  0  0  0  0  0  0
  -25.6149  -28.8400   21.1431 C   0  0  0  0  0  0  0  0  0  0  0  0
  -27.3674  -20.3147   19.3150 C   0  0  0  0  0  0  0  0  0  0  0  0
  -27.8535  -17.5744   19.1217 C   0  0  0  0  0  0  0  0  0  0  0  0
  -22.2190  -10.1946   23.7607 C   0  0  0  0  0  0  0  0  0  0  0  0
  -26.6640  -27.1646   19.7280 C   0  0  0  0  0  0  0  0  0  0  0  0
  -20.9145   -8.7171   25.0403 C   0  0  0  0  0  0  0  0  0  0  0  0
  -19.9653   -6.1319   25.4854 C   0  0  0  0  0  0  0  0  0  0  0  0
  -21.1900   -8.0708   26.2453 C   0  0  0  0  0  0  0  0  0  0  0  0
  -24.8127  -10.7990   20.4736 C   0  0  0  0  0  0  0  0  0  0  0  0
  -25.7553  -10.7731   18.4871 C   0  0  0  0  0  0  0  0  0  0  0  0
  -26.6626  -23.5694   19.5971 C   0  0  0  0  0  0  0  0  0  0  0  0
  -26.0194  -22.2630   19.7116 C   0  0  0  0  0  0  0  0  0  0  0  0
  -26.2927  -24.8553   19.7373 C   0  0  0  0  0  0  0  0  0  1  0  0
  -23.6232   -9.4748   18.6171 C   0  0  0  0  0  0  0  0  0  0  0  0
  -26.4134  -31.9655   22.2484 C   0  0  0  0  0  0  0  0  0  0  0  0
  -23.6516  -30.9778   23.6337 C   0  0  0  0  0  0  0  0  0  0  0  0
  -21.3351  -28.5041   24.0359 C   0  0  0  0  0  0  0  0  0  0  0  0
  -29.3015  -15.5183   19.2698 C   0  0  0  0  0  0  0  0  0  0  0  0
  -27.3386  -35.9512   25.3006 C   0  0  0  0  0  0  0  0  0  0  0  0
  -25.1133  -31.1456   20.2501 C   0  0  0  0  0  0  0  0  0  0  0  0
  -25.0325  -29.2078   22.4825 C   0  0  0  0  0  0  0  0  0  0  0  0
  -27.9270  -22.8400   19.2530 C   0  0  0  0  0  0  0  0  0  0  0  0
  -26.9068  -34.5006   25.4998 C   0  0  0  0  0  0  0  0  0  0  0  0
  -30.3041  -12.1032   19.1754 C   0  0  0  0  0  0  0  0  0  0  0  0
  -27.8146  -33.5606   24.7131 C   0  0  0  0  0  0  0  0  0  0  0  0
  -28.9950  -11.3354   19.3726 C   0  0  0  0  0  0  0  0  0  0  0  0
  -30.3408  -13.3846   20.0062 C   0  0  0  0  0  0  0  0  0  0  0  0
  -27.8804  -13.5096   20.0189 C   0  0  0  0  0  0  0  0  0  0  0  0
  -27.7318  -33.8446   23.2084 C   0  0  1  0  0  0  0  0  0  0  0  0
  -25.0610  -31.5991   21.7058 C   0  0  1  0  0  0  0  0  0  0  0  0
  -27.7699  -12.2444   19.1524 C   0  0  2  0  0  0  0  0  0  0  0  0
  -19.2091  -27.9763   25.2601 C   0  0  0  0  0  0  0  0  0  0  0  0
  -25.2408  -30.5458   26.2023 C   0  0  0  0  0  0  0  0  0  0  0  0
  -23.3408  -29.1607   27.0624 C   0  0  0  0  0  0  0  0  0  0  0  0
  -22.9841  -31.5719   26.5319 C   0  0  0  0  0  0  0  0  0  0  0  0
  -19.8334  -28.1465   21.5108 C   0  0  0  0  0  0  0  0  0  0  0  0
  -23.2811  -29.9180   24.6429 C   0  0  1  0  0  0  0  0  0  0  0  0
  -19.8183  -28.5257   23.9796 C   0  0  2  0  0  0  0  0  0  0  0  0
  -23.7245  -30.2924   26.0854 C   0  0  0  0  0  0  0  0  0  0  0  0
  -25.9168  -11.5368   20.6175 N   0  0  0  0  0  0  0  0  0  0  0  0
  -26.4686  -11.5022   19.3926 N   0  0  0  0  0  0  0  0  0  0  0  0
  -27.1348  -21.6259   19.4074 N   0  0  0  0  0  0  0  0  0  0  0  0
  -24.5059  -30.5779   22.5964 N   0  0  0  0  0  0  0  0  0  0  0  0
  -29.1514  -14.1974   19.7424 N   0  0  0  0  0  0  0  0  0  0  0  0
  -26.1675  -10.6347   17.2091 N   0  0  0  0  0  0  0  0  0  0  0  0
  -22.5726   -9.0757   19.4546 N   0  0  0  0  0  0  0  0  0  0  0  0
  -28.1004  -16.1826   19.0236 N   0  0  0  0  0  0  0  0  0  0  0  0
  -26.5191  -33.2823   22.6539 N   0  0  0  0  0  0  0  0  0  0  0  0
  -21.8462  -29.6990   24.4968 N   0  0  0  0  0  0  0  0  0  0  0  0
  -24.7752  -21.9821   20.0172 N   0  3  0  0  0  0  0  0  0  0  0  0
  -19.3306  -27.7031   22.8366 N   0  3  0  0  0  0  0  0  0  0  0  0
  -23.6360   -9.0912   17.4229 O   0  0  0  0  0  0  0  0  0  0  0  0
  -27.2953  -31.1160   22.2971 O   0  0  0  0  0  0  0  0  0  0  0  0
  -23.1938  -32.1166   23.7570 O   0  0  0  0  0  0  0  0  0  0  0  0
  -22.0000  -27.5239   23.7076 O   0  0  0  0  0  0  0  0  0  0  0  0
  -30.4136  -16.0137   19.0704 O   0  0  0  0  0  0  0  0  0  0  0  0
  -21.3843  -10.0007   24.8181 O   0  0  0  0  0  0  0  0  0  0  0  0
  -27.1500  -25.9047   19.5595 O   0  0  0  0  0  0  0  0  0  1  0  0
  -19.5082   -4.8911   25.6996 F   0  0  0  0  0  0  0  0  0  0  0  0
  -21.9092   -8.6871   27.1933 F   0  0  0  0  0  0  0  0  0  0  0  0
  1  2  1  0  0  0  0
  1  5  2  0  0  0  0
  2  6  2  0  0  0  0
  3 12  2  0  0  0  0
  3 19  1  0  0  0  0
  4 13  1  0  0  0  0
  4 19  2  0  0  0  0
  5 21  1  0  0  0  0
  6 23  1  0  0  0  0
  7 14  2  0  0  0  0
  7 22  1  0  0  0  0
  8 10  2  0  0  0  0
  8 25  1  0  0  0  0
  9 11  1  0  0  0  0
  9 25  2  0  0  0  0
 10 26  1  0  0  0  0
 11 26  2  0  0  0  0
 12 27  1  0  0  0  0
 13 27  2  0  0  0  0
 14 28  1  0  0  0  0
 15 16  2  0  0  0  0
 15 29  1  0  0  0  0
 16 30  1  0  0  0  0
 17 24  1  0  0  0  0
 17 28  2  0  0  0  0
 18 30  2  0  0  0  0
 18 31  1  0  0  0  0
 19 32  1  0  0  0  0
 20 32  1  0  0  0  0
 20 33  2  0  0  0  0
 20 37  1  0  0  0  0
 21 23  2  0  0  0  0
 21 42  1  0  0  0  0
 22 24  2  0  0  0  0
 22 43  1  0  0  0  0
 23 52  1  0  0  0  0
 24 44  1  0  0  0  0
 25 65  1  0  0  0  0
 26 70  1  0  0  0  0
 27 80  1  0  0  0  0
 28 81  1  0  0  0  0
 29 31  2  0  0  0  0
 29 80  1  0  0  0  0
 30 82  1  0  0  0  0
 31 83  1  0  0  0  0
 32 63  2  0  0  0  0
 33 64  1  0  0  0  0
 33 68  1  0  0  0  0
 34 35  1  0  0  0  0
 34 36  2  0  0  0  0
 34 45  1  0  0  0  0
 35 65  1  0  0  0  0
 35 73  2  0  0  0  0
 36 81  1  0  0  0  0
 37 69  1  0  0  0  0
 37 75  2  0  0  0  0
 38 53  1  0  0  0  0
 38 71  1  0  0  0  0
 38 76  2  0  0  0  0
 39 60  1  0  0  0  0
 39 66  1  0  0  0  0
 39 77  2  0  0  0  0
 40 61  1  0  0  0  0
 40 72  1  0  0  0  0
 40 78  2  0  0  0  0
 41 67  1  0  0  0  0
 41 70  1  0  0  0  0
 41 79  2  0  0  0  0
 42 46  1  0  0  0  0
 43 53  1  0  0  0  0
 44 66  1  0  0  0  0
 45 65  1  0  0  0  0
 46 48  1  0  0  0  0
 47 49  1  0  0  0  0
 47 50  1  0  0  0  0
 48 52  1  0  0  0  0
 49 54  1  0  0  0  0
 50 67  1  0  0  0  0
 51 54  1  0  0  0  0
 51 67  1  0  0  0  0
 52 71  1  0  0  0  0
 53 66  1  0  0  0  0
 54 64  1  0  0  0  0
 55 61  1  0  0  0  0
 56 62  1  0  0  0  0
 57 62  1  0  0  0  0
 58 62  1  0  0  0  0
 59 74  1  0  0  0  0
 60 62  1  0  0  0  0
 60 72  1  0  0  0  0
 61 74  1  0  0  0  0
 63 64  1  0  0  0  0
M  CHG  2  73   1  74   1
M  ISO  4  36 101  41 100  70 100  81 101
M  END
> <Batch ID>
0079

> <Smiles>
CNC(C)C(=O)NC(C(=O)N1Cc2cc([101O:1][101CH:1]=C3CN(c4ccc([100NH:0][100C:0](=O)N5CCCC(n6nc(-c7ccc(Oc8ccc(F)cc8F)cc7)c(C(N)=O)c6N)C5)cc4)C3=N)ccc2CC1C(=O)NC1CCCc2ccccc21)C(C)(C)C

> <Shape>
0.267

> <Color>
0.090

> <Negative vol penalty>
0.000

$$$$

  -OEChem-04042323593D

 86 94  0     1  0  0  0  0  0999 V2000
  -24.0070  -17.5737   23.6532 C   0  0  0  0  0  0  0  0  0  0  0  0
  -24.9003  -18.6105   23.4029 C   0  0  0  0  0  0  0  0  0  0  0  0
  -24.5168  -10.7219   23.5477 C   0  0  0  0  0  0  0  0  0  0  0  0
  -24.2973  -12.6231   25.0224 C   0  0  0  0  0  0  0  0  0  0  0  0
  -29.6025  -21.9309   20.2848 C   0  0  0  0  0  0  0  0  0  0  0  0
  -22.6846  -17.6754   23.2234 C   0  0  0  0  0  0  0  0  0  0  0  0
  -24.4718  -19.7492   22.7215 C   0  0  0  0  0  0  0  0  0  0  0  0
  -26.1012  -24.0317   24.8779 C   0  0  0  0  0  0  0  0  0  0  0  0
  -29.6646  -20.5402   20.3724 C   0  0  0  0  0  0  0  0  0  0  0  0
  -24.0675   -9.8806   24.5655 C   0  0  0  0  0  0  0  0  0  0  0  0
  -23.8479  -11.7817   26.0402 C   0  0  0  0  0  0  0  0  0  0  0  0
  -27.4257  -24.3987   24.6436 C   0  0  0  0  0  0  0  0  0  0  0  0
  -22.6349   -7.2798   26.6628 C   0  0  0  0  0  0  0  0  0  0  0  0
  -21.6836   -6.3143   26.3335 C   0  0  0  0  0  0  0  0  0  0  0  0
  -27.2208  -21.8005   19.9005 C   0  0  0  0  0  0  0  0  0  0  0  0
  -26.6885  -25.9621   22.9609 C   0  0  0  0  0  0  0  0  0  0  0  0
  -20.1597   -8.0541   25.6349 C   0  0  0  0  0  0  0  0  0  0  0  0
  -24.6317  -12.0932   23.7762 C   0  0  0  0  0  0  0  0  0  0  0  0
  -28.3806  -22.5611   20.0489 C   0  0  0  0  0  0  0  0  0  0  0  0
  -24.3132  -13.6221   21.7591 C   0  0  0  0  0  0  0  0  0  0  0  0
  -22.2373  -18.8201   22.5449 C   0  0  0  0  0  0  0  0  0  0  0  0
  -25.0595  -24.6203   24.1466 C   0  0  0  0  0  0  0  0  0  0  0  0
  -23.1425  -19.8657   22.2810 C   0  0  0  0  0  0  0  0  0  0  0  0
  -25.3515  -25.6027   23.1896 C   0  0  0  0  0  0  0  0  0  0  0  0
  -28.5048  -19.7797   20.2241 C   0  0  0  0  0  0  0  0  0  0  0  0
  -23.7330  -10.4105   25.8117 C   0  0  0  0  0  0  0  0  0  0  0  0
  -27.7197  -25.3619   23.6830 C   0  0  0  0  0  0  0  0  0  0  0  0
  -22.3486   -8.6325   26.4783 C   0  0  0  0  0  0  0  0  0  0  0  0
  -20.4460   -6.7014   25.8196 C   0  0  0  0  0  0  0  0  0  0  0  0
  -27.2829  -20.4098   19.9881 C   0  0  0  0  0  0  0  0  0  0  0  0
  -21.1110   -9.0196   25.9643 C   0  0  0  0  0  0  0  0  0  0  0  0
  -25.0963  -12.9627   22.7254 C   0  0  0  0  0  0  0  0  0  0  0  0
  -25.2207  -14.3180   20.9983 C   0  0  0  0  0  0  0  0  0  0  0  0
  -28.3140  -24.0340   19.9561 C   0  0  0  0  0  0  0  0  0  0  0  0
  -22.8925  -13.6069   21.5664 C   0  0  0  0  0  0  0  0  0  0  0  0
  -22.8438  -23.5458   22.1367 C   0  0  0  0  0  0  0  0  0  0  0  0
  -21.7671  -26.6011   22.3042 C   0  0  0  0  0  0  0  0  0  0  0  0
  -22.4540  -29.8847   22.9310 C   0  0  0  0  0  0  0  0  0  0  0  0
  -28.6996  -26.1933   21.1296 C   0  0  0  0  0  0  0  0  0  0  0  0
  -29.7046  -17.5877   20.5438 C   0  0  0  0  0  0  0  0  0  0  0  0
  -20.8105  -18.8642   22.0580 C   0  0  0  0  0  0  0  0  0  0  0  0
  -23.6341  -24.2328   24.4300 C   0  0  0  0  0  0  0  0  0  0  0  0
  -24.2680  -26.2794   22.3918 C   0  0  0  0  0  0  0  0  0  0  0  0
  -20.3416  -20.2647   21.6721 C   0  0  0  0  0  0  0  0  0  0  0  0
  -30.2757  -14.0886   20.8711 C   0  0  0  0  0  0  0  0  0  0  0  0
  -21.3884  -20.9585   20.8063 C   0  0  0  0  0  0  0  0  0  0  0  0
  -28.9147  -13.5380   21.3032 C   0  0  0  0  0  0  0  0  0  0  0  0
  -30.5578  -15.4553   21.4925 C   0  0  0  0  0  0  0  0  0  0  0  0
  -28.1469  -15.9101   21.7163 C   0  0  0  0  0  0  0  0  0  0  0  0
  -22.7093  -21.1275   21.5667 C   0  0  1  0  0  0  0  0  0  0  0  0
  -22.6925  -24.5254   23.2658 C   0  0  1  0  0  0  0  0  0  0  0  0
  -27.7899  -14.5643   21.0643 C   0  0  2  0  0  0  0  0  0  0  0  0
  -21.3811  -32.1532   22.9483 C   0  0  0  0  0  0  0  0  0  0  0  0
  -30.7454  -26.9333   22.3330 C   0  0  0  0  0  0  0  0  0  0  0  0
  -28.5346  -28.0022   22.8713 C   0  0  0  0  0  0  0  0  0  0  0  0
  -21.8847  -26.6773   19.2562 C   0  0  0  0  0  0  0  0  0  0  0  0
  -21.7365  -29.1733   19.3823 C   0  0  0  0  0  0  0  0  0  0  0  0
  -19.8661  -27.7692   20.2499 C   0  0  0  0  0  0  0  0  0  0  0  0
  -22.9848  -30.2416   25.8205 C   0  0  0  0  0  0  0  0  0  0  0  0
  -22.0386  -27.8737   21.5389 C   0  0  1  0  0  0  0  0  0  0  0  0
  -21.7311  -30.9226   23.7704 C   0  0  2  0  0  0  0  0  0  0  0  0
  -29.2407  -26.7148   22.4532 C   0  0  0  0  0  0  0  0  0  1  0  0
  -21.4022  -27.8594   20.1203 C   0  0  0  0  0  0  0  0  0  0  0  0
  -26.4009  -13.2169   22.5928 N   0  0  0  0  0  0  0  0  0  0  0  0
  -26.4445  -14.0436   21.5341 N   0  0  0  0  0  0  0  0  0  0  0  0
  -22.8905  -25.8619   22.7010 N   0  0  0  0  0  0  0  0  0  0  0  0
  -29.4518  -16.3764   21.2217 N   0  0  0  0  0  0  0  0  0  0  0  0
  -25.0831  -15.1317   19.9300 N   0  0  0  0  0  0  0  0  0  0  0  0
  -22.1082  -12.8393   22.4381 N   0  0  0  0  0  0  0  0  0  0  0  0
  -28.5713  -18.3671   20.3138 N   0  0  0  0  0  0  0  0  0  0  0  0
  -28.7023  -24.7510   21.0191 N   0  0  0  0  0  0  0  0  0  0  0  0
  -22.6185  -22.2313   22.4983 N   0  0  0  0  0  0  0  0  0  0  0  0
  -21.5793  -28.9670   22.3888 N   0  0  0  0  0  0  0  0  0  0  0  0
  -27.8734  -24.5650   18.8160 N   0  3  0  0  0  0  0  0  0  0  0  0
  -22.5849  -31.3492   24.9149 N   0  3  0  0  0  0  0  0  0  0  0  0
  -22.3366  -14.2419   20.6383 O   0  0  0  0  0  0  0  0  0  0  0  0
  -23.1414  -23.9525   21.0197 O   0  0  0  0  0  0  0  0  0  0  0  0
  -20.6016  -26.2785   22.5473 O   0  0  0  0  0  0  0  0  0  0  0  0
  -23.6723  -29.8899   22.7691 O   0  0  0  0  0  0  0  0  0  0  0  0
  -28.3200  -26.8996   20.2054 O   0  0  0  0  0  0  0  0  0  0  0  0
  -30.8384  -17.8972   20.1689 O   0  0  0  0  0  0  0  0  0  0  0  0
  -23.2943   -9.5898   26.8050 O   0  0  0  0  0  0  0  0  0  0  0  0
  -29.0117  -25.7214   23.4518 O   0  0  0  0  0  0  0  0  0  1  0  0
  -19.5332   -5.7741   25.5019 F   0  0  0  0  0  0  0  0  0  0  0  0
  -26.1621  -19.6886   19.8426 F   0  0  0  0  0  0  0  0  0  0  0  0
  -20.8306  -10.3175   25.7837 F   0  0  0  0  0  0  0  0  0  0  0  0
  1  2  1  0  0  0  0
  1  6  2  0  0  0  0
  2  7  2  0  0  0  0
  3 10  2  0  0  0  0
  3 18  1  0  0  0  0
  4 11  1  0  0  0  0
  4 18  2  0  0  0  0
  5  9  2  0  0  0  0
  5 19  1  0  0  0  0
  6 21  1  0  0  0  0
  7 23  1  0  0  0  0
  8 12  2  0  0  0  0
  8 22  1  0  0  0  0
  9 25  1  0  0  0  0
 10 26  1  0  0  0  0
 11 26  2  0  0  0  0
 12 27  1  0  0  0  0
 13 14  2  0  0  0  0
 13 28  1  0  0  0  0
 14 29  1  0  0  0  0
 15 19  2  0  0  0  0
 15 30  1  0  0  0  0
 16 24  1  0  0  0  0
 16 27  2  0  0  0  0
 17 29  2  0  0  0  0
 17 31  1  0  0  0  0
 18 32  1  0  0  0  0
 19 34  1  0  0  0  0
 20 32  1  0  0  0  0
 20 33  2  0  0  0  0
 20 35  1  0  0  0  0
 21 23  2  0  0  0  0
 21 41  1  0  0  0  0
 22 24  2  0  0  0  0
 22 42  1  0  0  0  0
 23 50  1  0  0  0  0
 24 43  1  0  0  0  0
 25 30  2  0  0  0  0
 25 70  1  0  0  0  0
 26 82  1  0  0  0  0
 27 83  1  0  0  0  0
 28 31  2  0  0  0  0
 28 82  1  0  0  0  0
 29 84  1  0  0  0  0
 30 85  1  0  0  0  0
 31 86  1  0  0  0  0
 32 64  2  0  0  0  0
 33 65  1  0  0  0  0
 33 68  1  0  0  0  0
 34 71  1  0  0  0  0
 34 74  2  0  0  0  0
 35 69  1  0  0  0  0
 35 76  2  0  0  0  0
 36 51  1  0  0  0  0
 36 72  1  0  0  0  0
 36 77  2  0  0  0  0
 37 60  1  0  0  0  0
 37 66  1  0  0  0  0
 37 78  2  0  0  0  0
 38 61  1  0  0  0  0
 38 73  1  0  0  0  0
 38 79  2  0  0  0  0
 39 62  1  0  0  0  0
 39 71  1  0  0  0  0
 39 80  2  0  0  0  0
 40 67  1  0  0  0  0
 40 70  1  0  0  0  0
 40 81  2  0  0  0  0
 41 44  1  0  0  0  0
 42 51  1  0  0  0  0
 43 66  1  0  0  0  0
 44 46  1  0  0  0  0
 45 47  1  0  0  0  0
 45 48  1  0  0  0  0
 46 50  1  0  0  0  0
 47 52  1  0  0  0  0
 48 67  1  0  0  0  0
 49 52  1  0  0  0  0
 49 67  1  0  0  0  0
 50 72  1  0  0  0  0
 51 66  1  0  0  0  0
 52 65  1  0  0  0  0
 53 61  1  0  0  0  0
 54 62  1  0  0  0  0
 55 62  1  0  0  0  0
 56 63  1  0  0  0  0
 57 63  1  0  0  0  0
 58 63  1  0  0  0  0
 59 75  1  0  0  0  0
 60 63  1  0  0  0  0
 60 73  1  0  0  0  0
 61 75  1  0  0  0  0
 62 83  1  0  0  0  0
 64 65  1  0  0  0  0
M  CHG  2  74   1  75   1
M  ISO  4  40 100  62 101  70 100  83 101
M  END
> <Batch ID>
0079

> <Smiles>
CNC(C)C(=O)NC(C(=O)N1Cc2cc([101O:1][101C:1](C)(C)C(=O)NC(=N)c3ccc([100NH:0][100C:0](=O)N4CCCC(n5nc(-c6ccc(Oc7ccc(F)cc7F)cc6)c(C(N)=O)c5N)C4)c(F)c3)ccc2CC1C(=O)NC1CCCc2ccccc21)C(C)(C)C

> <Shape>
0.181

> <Color>
0.114

> <Negative vol penalty>
0.000

$$$$

  -OEChem-04042323593D

 84 92  0     1  0  0  0  0  0999 V2000
  -28.9939  -35.5826   17.4485 C   0  0  0  0  0  0  0  0  0  0  0  0
  -29.1595  -34.2936   17.9450 C   0  0  0  0  0  0  0  0  0  0  0  0
  -31.6587  -19.0156   20.9424 C   0  0  0  0  0  0  0  0  0  0  0  0
  -23.1933   -9.5021   20.9045 C   0  0  0  0  0  0  0  0  0  0  0  0
  -23.3538  -10.9689   22.8176 C   0  0  0  0  0  0  0  0  0  0  0  0
  -30.7077  -20.0293   20.8262 C   0  0  0  0  0  0  0  0  0  0  0  0
  -28.1792  -36.4896   18.1249 C   0  0  0  0  0  0  0  0  0  0  0  0
  -28.5112  -33.9111   19.1188 C   0  0  0  0  0  0  0  0  0  0  0  0
  -26.3647  -29.3392   18.7517 C   0  0  0  0  0  0  0  0  0  0  0  0
  -31.3078  -17.6947   20.6636 C   0  0  0  0  0  0  0  0  0  0  0  0
  -22.3987   -8.6255   21.6433 C   0  0  0  0  0  0  0  0  0  0  0  0
  -22.5592  -10.0923   23.5564 C   0  0  0  0  0  0  0  0  0  0  0  0
  -27.2036  -28.2312   18.8625 C   0  0  0  0  0  0  0  0  0  0  0  0
  -22.8458   -6.2417   23.9974 C   0  0  0  0  0  0  0  0  0  0  0  0
  -23.1353   -4.8798   23.9150 C   0  0  0  0  0  0  0  0  0  0  0  0
  -29.0547  -18.4012   20.1524 C   0  0  0  0  0  0  0  0  0  0  0  0
  -26.5267  -27.9563   21.1615 C   0  0  0  0  0  0  0  0  0  0  0  0
  -20.9170   -4.4603   23.0546 C   0  0  0  0  0  0  0  0  0  0  0  0
  -23.6709  -10.6738   21.4917 C   0  0  0  0  0  0  0  0  0  0  0  0
  -29.4057  -19.7222   20.4312 C   0  0  0  0  0  0  0  0  0  0  0  0
  -24.0578  -12.6596   19.9378 C   0  0  0  0  0  0  0  0  0  0  0  0
  -27.5129  -36.1151   19.3024 C   0  0  0  0  0  0  0  0  0  0  0  0
  -25.6075  -29.7714   19.8499 C   0  0  0  0  0  0  0  0  0  0  0  0
  -27.6879  -34.8144   19.8123 C   0  0  0  0  0  0  0  0  0  0  0  0
  -25.6770  -29.0685   21.0613 C   0  0  0  0  0  0  0  0  0  0  0  0
  -30.0058  -17.3875   20.2686 C   0  0  0  0  0  0  0  0  0  0  0  0
  -22.0817   -8.9206   22.9692 C   0  0  0  0  0  0  0  0  0  0  0  0
  -27.2869  -27.5413   20.0684 C   0  0  0  0  0  0  0  0  0  0  0  0
  -21.5918   -6.7130   23.6086 C   0  0  0  0  0  0  0  0  0  0  0  0
  -22.1709   -3.9891   23.4435 C   0  0  0  0  0  0  0  0  0  0  0  0
  -20.6274   -5.8223   23.1371 C   0  0  0  0  0  0  0  0  0  0  0  0
  -24.4922  -11.5795   20.7292 C   0  0  0  0  0  0  0  0  0  0  0  0
  -25.2138  -13.1988   19.4284 C   0  0  0  0  0  0  0  0  0  0  0  0
  -28.2589  -24.1393   20.6375 C   0  0  0  0  0  0  0  0  0  0  0  0
  -27.5427  -25.2576   20.5047 C   0  0  0  0  0  0  0  0  0  1  0  0
  -28.3910  -20.8060   20.3074 C   0  0  0  0  0  0  0  0  0  0  0  0
  -22.7282  -13.1333   19.6856 C   0  0  0  0  0  0  0  0  0  0  0  0
  -27.5860  -22.8648   20.9965 C   0  0  0  0  0  0  0  0  0  0  0  0
  -25.4869  -32.4329   21.5835 C   0  0  0  0  0  0  0  0  0  0  0  0
  -22.9466  -30.9579   22.9595 C   0  0  0  0  0  0  0  0  0  0  0  0
  -21.3388  -28.0378   23.6910 C   0  0  0  0  0  0  0  0  0  0  0  0
  -30.4719  -14.9214   20.0508 C   0  0  0  0  0  0  0  0  0  0  0  0
  -26.6803  -37.1448   20.0242 C   0  0  0  0  0  0  0  0  0  0  0  0
  -24.6871  -30.9523   19.7063 C   0  0  0  0  0  0  0  0  0  0  0  0
  -24.8693  -29.4797   22.2642 C   0  0  0  0  0  0  0  0  0  0  0  0
  -25.7311  -36.5446   21.0581 C   0  0  0  0  0  0  0  0  0  0  0  0
  -29.9623  -11.4462   19.4676 C   0  0  0  0  0  0  0  0  0  0  0  0
  -26.4601  -35.5187   21.9200 C   0  0  0  0  0  0  0  0  0  0  0  0
  -28.4580  -11.2599   19.6787 C   0  0  0  0  0  0  0  0  0  0  0  0
  -30.5491  -12.4683   20.4395 C   0  0  0  0  0  0  0  0  0  0  0  0
  -28.3643  -13.5831   20.6691 C   0  0  0  0  0  0  0  0  0  0  0  0
  -26.9817  -34.3544   21.0692 C   0  0  1  0  0  0  0  0  0  0  0  0
  -24.3510  -31.6136   21.0393 C   0  0  1  0  0  0  0  0  0  0  0  0
  -27.7162  -12.6109   19.6699 C   0  0  2  0  0  0  0  0  0  0  0  0
  -27.2866  -20.6298   19.2838 C   0  0  0  0  0  0  0  0  0  0  0  0
  -19.3037  -27.1487   24.8595 C   0  0  0  0  0  0  0  0  0  0  0  0
  -24.2901  -31.4347   25.6572 C   0  0  0  0  0  0  0  0  0  0  0  0
  -22.7403  -29.7379   26.6506 C   0  0  0  0  0  0  0  0  0  0  0  0
  -21.8198  -31.8240   25.6388 C   0  0  0  0  0  0  0  0  0  0  0  0
  -20.2835  -26.8473   21.1954 C   0  0  0  0  0  0  0  0  0  0  0  0
  -22.7579  -30.0245   24.1309 C   0  0  1  0  0  0  0  0  0  0  0  0
  -19.8872  -27.6212   23.5369 C   0  0  2  0  0  0  0  0  0  0  0  0
  -22.9188  -30.7484   25.4975 C   0  0  0  0  0  0  0  0  0  0  0  0
  -25.8205  -11.4393   20.7259 N   0  0  0  0  0  0  0  0  0  0  0  0
  -28.5015  -21.8455   21.0809 N   0  0  0  0  0  0  0  0  0  0  0  0
  -26.2307  -12.4383   19.9260 N   0  0  0  0  0  0  0  0  0  0  0  0
  -23.9888  -30.6444   22.0756 N   0  0  0  0  0  0  0  0  0  0  0  0
  -29.7986  -13.7241   20.3731 N   0  0  0  0  0  0  0  0  0  0  0  0
  -25.4494  -14.2445   18.6078 N   0  0  0  0  0  0  0  0  0  0  0  0
  -21.6548  -12.4634   20.2884 N   0  0  0  0  0  0  0  0  0  0  0  0
  -29.6495  -16.0457   19.9852 N   0  0  0  0  0  0  0  0  0  0  0  0
  -25.9041  -33.4457   20.7411 N   0  0  0  0  0  0  0  0  0  0  0  0
  -21.4588  -29.3885   23.9410 N   0  0  0  0  0  0  0  0  0  0  0  0
  -19.7686  -26.5126   22.5481 N   0  3  0  0  0  0  0  0  0  0  0  0
  -22.4978  -14.1112   18.9346 O   0  0  0  0  0  0  0  0  0  0  0  0
  -26.3733  -22.7702   21.1445 O   0  0  0  0  0  0  0  0  0  0  0  0
  -25.9495  -32.1669   22.6866 O   0  0  0  0  0  0  0  0  0  0  0  0
  -22.1923  -31.9252   22.8296 O   0  0  0  0  0  0  0  0  0  0  0  0
  -22.2727  -27.2437   23.6024 O   0  0  0  0  0  0  0  0  0  0  0  0
  -31.6839  -14.9428   19.8212 O   0  0  0  0  0  0  0  0  0  0  0  0
  -21.3061   -8.0656   23.6903 O   0  0  0  0  0  0  0  0  0  0  0  0
  -28.1055  -26.4598   20.1796 O   0  0  0  0  0  0  0  0  0  1  0  0
  -22.4496   -2.6814   23.3629 F   0  0  0  0  0  0  0  0  0  0  0  0
  -19.4214   -6.2693   22.7609 F   0  0  0  0  0  0  0  0  0  0  0  0
  1  2  1  0  0  0  0
  1  7  2  0  0  0  0
  2  8  2  0  0  0  0
  3  6  2  0  0  0  0
  3 10  1  0  0  0  0
  4 11  2  0  0  0  0
  4 19  1  0  0  0  0
  5 12  1  0  0  0  0
  5 19  2  0  0  0  0
  6 20  1  0  0  0  0
  7 22  1  0  0  0  0
  8 24  1  0  0  0  0
  9 13  2  0  0  0  0
  9 23  1  0  0  0  0
 10 26  2  0  0  0  0
 11 27  1  0  0  0  0
 12 27  2  0  0  0  0
 13 28  1  0  0  0  0
 14 15  2  0  0  0  0
 14 29  1  0  0  0  0
 15 30  1  0  0  0  0
 16 20  2  0  0  0  0
 16 26  1  0  0  0  0
 17 25  1  0  0  0  0
 17 28  2  0  0  0  0
 18 30  2  0  0  0  0
 18 31  1  0  0  0  0
 19 32  1  0  0  0  0
 20 36  1  0  0  0  0
 21 32  1  0  0  0  0
 21 33  2  0  0  0  0
 21 37  1  0  0  0  0
 22 24  2  0  0  0  0
 22 43  1  0  0  0  0
 23 25  2  0  0  0  0
 23 44  1  0  0  0  0
 24 52  1  0  0  0  0
 25 45  1  0  0  0  0
 26 71  1  0  0  0  0
 27 81  1  0  0  0  0
 28 82  1  0  0  0  0
 29 31  2  0  0  0  0
 29 81  1  0  0  0  0
 30 83  1  0  0  0  0
 31 84  1  0  0  0  0
 32 64  2  0  0  0  0
 33 66  1  0  0  0  0
 33 69  1  0  0  0  0
 34 35  2  0  0  0  0
 34 38  1  0  0  0  0
 35 82  1  0  0  0  0
 36 55  1  0  0  0  0
 36 65  2  0  0  0  0
 37 70  1  0  0  0  0
 37 75  2  0  0  0  0
 38 65  1  0  0  0  0
 38 76  2  0  0  0  0
 39 53  1  0  0  0  0
 39 72  1  0  0  0  0
 39 77  2  0  0  0  0
 40 61  1  0  0  0  0
 40 67  1  0  0  0  0
 40 78  2  0  0  0  0
 41 62  1  0  0  0  0
 41 73  1  0  0  0  0
 41 79  2  0  0  0  0
 42 68  1  0  0  0  0
 42 71  1  0  0  0  0
 42 80  2  0  0  0  0
 43 46  1  0  0  0  0
 44 53  1  0  0  0  0
 45 67  1  0  0  0  0
 46 48  1  0  0  0  0
 47 49  1  0  0  0  0
 47 50  1  0  0  0  0
 48 52  1  0  0  0  0
 49 54  1  0  0  0  0
 50 68  1  0  0  0  0
 51 54  1  0  0  0  0
 51 68  1  0  0  0  0
 52 72  1  0  0  0  0
 53 67  1  0  0  0  0
 54 66  1  0  0  0  0
 56 62  1  0  0  0  0
 57 63  1  0  0  0  0
 58 63  1  0  0  0  0
 59 63  1  0  0  0  0
 60 74  1  0  0  0  0
 61 63  1  0  0  0  0
 61 73  1  0  0  0  0
 62 74  1  0  0  0  0
 64 66  1  0  0  0  0
M  CHG  1  74   1
M  ISO  4  35 101  42 100  71 100  82 101
M  END
> <Batch ID>
0079

> <Smiles>
C=C(NC(=O)C=[101CH:1][101O:1]c1ccc2c(c1)CN(C(=O)C(NC(=O)C(C)NC)C(C)(C)C)C(C(=O)NC1CCCc3ccccc31)C2)c1cccc([100NH:0][100C:0](=O)N2CCCC(n3nc(-c4ccc(Oc5ccc(F)cc5F)cc4)c(C(N)=O)c3N)C2)c1

> <Shape>
0.310

> <Color>
0.143

> <Negative vol penalty>
0.000

$$$$

  -OEChem-04042323593D

 86 95  0     1  0  0  0  0  0999 V2000
  -18.5872  -27.2078   31.0646 C   0  0  0  0  0  0  0  0  0  0  0  0
  -19.8403  -26.8178   30.6031 C   0  0  0  0  0  0  0  0  0  0  0  0
  -23.0742   -9.8708   19.9406 C   0  0  0  0  0  0  0  0  0  0  0  0
  -23.8342   -9.8760   22.2339 C   0  0  0  0  0  0  0  0  0  0  0  0
  -17.4459  -26.5325   30.6343 C   0  0  0  0  0  0  0  0  0  0  0  0
  -19.9528  -25.7514   29.7116 C   0  0  0  0  0  0  0  0  0  0  0  0
  -24.0167  -25.1646   25.1678 C   0  0  0  0  0  0  0  0  0  0  0  0
  -22.3296   -8.7180   20.1899 C   0  0  0  0  0  0  0  0  0  0  0  0
  -23.0896   -8.7232   22.4833 C   0  0  0  0  0  0  0  0  0  0  0  0
  -25.2237  -24.4734   25.0724 C   0  0  0  0  0  0  0  0  0  0  0  0
  -19.8609   -7.9271   23.0856 C   0  0  0  0  0  0  0  0  0  0  0  0
  -19.1040   -7.8870   24.2565 C   0  0  0  0  0  0  0  0  0  0  0  0
  -24.0744  -22.6210   24.0395 C   0  0  0  0  0  0  0  0  0  0  0  0
  -31.8550  -18.3538   24.2069 C   0  0  0  0  0  0  0  0  0  0  0  0
  -29.8818  -17.4544   23.1418 C   0  0  0  0  0  0  0  0  0  0  0  0
  -32.0657  -16.6048   22.5535 C   0  0  0  0  0  0  0  0  0  0  0  0
  -20.3443   -5.9483   24.9917 C   0  0  0  0  0  0  0  0  0  0  0  0
  -23.8265  -10.4498   20.9625 C   0  0  0  0  0  0  0  0  0  0  0  0
  -24.1700  -12.9748   20.8439 C   0  0  0  0  0  0  0  0  0  0  0  0
  -17.5436  -25.4635   29.7296 C   0  0  0  0  0  0  0  0  0  0  0  0
  -22.8257  -24.5837   24.7090 C   0  0  0  0  0  0  0  0  0  0  0  0
  -18.8118  -25.0603   29.2698 C   0  0  0  0  0  0  0  0  0  0  0  0
  -22.8540  -23.3079   24.1279 C   0  0  0  0  0  0  0  0  0  0  0  0
  -30.4694  -18.3372   24.0479 C   0  0  0  0  0  0  0  0  0  0  0  0
  -32.6532  -17.4876   23.4596 C   0  0  0  0  0  0  0  0  0  0  0  0
  -30.6800  -16.5882   22.3946 C   0  0  0  0  0  0  0  0  0  0  0  0
  -22.3372   -8.1442   21.4613 C   0  0  0  0  0  0  0  0  0  0  0  0
  -25.2523  -23.2002   24.5108 C   0  0  0  0  0  0  0  0  0  0  0  0
  -20.8595   -6.9778   22.8677 C   0  0  0  0  0  0  0  0  0  0  0  0
  -19.3457   -6.8977   25.2096 C   0  0  0  0  0  0  0  0  0  0  0  0
  -21.1011   -5.9885   23.8208 C   0  0  0  0  0  0  0  0  0  0  0  0
  -24.5964  -11.6403   20.7054 C   0  0  0  0  0  0  0  0  0  0  0  0
  -25.2626  -13.7238   20.4810 C   0  0  0  0  0  0  0  0  0  0  0  0
  -28.4408  -19.7182   24.3529 C   0  0  0  0  0  0  0  0  0  0  0  0
  -27.6416  -20.5538   25.0392 C   0  0  0  0  0  0  0  0  0  0  0  0
  -29.1082  -20.1240   27.0214 C   0  0  0  0  0  0  0  0  0  0  0  0
  -29.0648  -19.6963   28.2925 C   0  0  0  0  0  0  0  0  0  0  0  0
  -22.8999  -13.4912   21.2632 C   0  0  0  0  0  0  0  0  0  0  0  0
  -20.0780  -23.7335   26.0621 C   0  0  0  0  0  0  0  0  0  0  0  0
  -19.2046  -23.1294   22.9970 C   0  0  0  0  0  0  0  0  0  0  0  0
  -20.1584  -22.3886   19.8051 C   0  0  0  0  0  0  0  0  0  0  0  0
  -30.7295  -14.7658   20.6559 C   0  0  0  0  0  0  0  0  0  0  0  0
  -16.2858  -24.7337   29.3297 C   0  0  0  0  0  0  0  0  0  0  0  0
  -21.5362  -25.3533   24.7947 C   0  0  0  0  0  0  0  0  0  0  0  0
  -21.6063  -22.6483   23.6019 C   0  0  0  0  0  0  0  0  0  0  0  0
  -28.0171  -20.9895   26.4345 C   0  0  0  0  0  0  0  0  0  0  0  0
  -30.2234  -19.7255   26.0782 C   0  0  0  0  0  0  0  0  0  0  0  0
  -16.4586  -23.8547   28.0936 C   0  0  0  0  0  0  0  0  0  0  0  0
  -29.6133  -12.3540   18.2864 C   0  0  0  0  0  0  0  0  0  0  0  0
  -17.7335  -23.0245   28.2029 C   0  0  0  0  0  0  0  0  0  0  0  0
  -28.1735  -12.0631   18.7159 C   0  0  0  0  0  0  0  0  0  0  0  0
  -30.5287  -12.5816   19.4881 C   0  0  0  0  0  0  0  0  0  0  0  0
  -28.6223  -13.3065   20.8699 C   0  0  0  0  0  0  0  0  0  0  0  0
  -18.9727  -23.9243   28.2831 C   0  0  1  0  0  0  0  0  0  0  0  0
  -20.3022  -24.4567   24.7643 C   0  0  1  0  0  0  0  0  0  0  0  0
  -27.6493  -13.1345   19.6920 C   0  0  2  0  0  0  0  0  0  0  0  0
  -19.2172  -21.9169   17.5272 C   0  0  0  0  0  0  0  0  0  0  0  0
  -18.4150  -20.3260   23.9065 C   0  0  0  0  0  0  0  0  0  0  0  0
  -18.3964  -19.6269   21.5025 C   0  0  0  0  0  0  0  0  0  0  0  0
  -16.8208  -21.3890   22.2994 C   0  0  0  0  0  0  0  0  0  0  0  0
  -21.5347  -24.7278   18.6247 C   0  0  0  0  0  0  0  0  0  0  0  0
  -26.3652  -21.0987   24.4763 C   0  0  0  0  0  0  0  0  0  1  0  0
  -19.2801  -21.9326   22.0800 C   0  0  1  0  0  0  0  0  0  0  0  0
  -19.7531  -22.9841   18.4688 C   0  0  2  0  0  0  0  0  0  0  0  0
  -18.2514  -20.8300   22.4587 C   0  0  0  0  0  0  0  0  0  0  0  0
  -25.8611  -11.5439   20.2870 N   0  0  0  0  0  0  0  0  0  0  0  0
  -26.2389  -12.8273   20.1594 N   0  0  0  0  0  0  0  0  0  0  0  0
  -29.6562  -19.2197   24.8090 N   0  0  0  0  0  0  0  0  0  0  0  0
  -20.3692  -23.4385   23.7141 N   0  0  0  0  0  0  0  0  0  0  0  0
  -29.9704  -13.6123   20.3661 N   0  0  0  0  0  0  0  0  0  0  0  0
  -34.0544  -17.5046   23.6201 N   0  0  0  0  0  0  0  0  0  0  0  0
  -25.4738  -15.0552   20.4087 N   0  0  0  0  0  0  0  0  0  0  0  0
  -21.8874  -12.5825   21.6000 N   0  0  0  0  0  0  0  0  0  0  0  0
  -30.0827  -15.6908   21.4749 N   0  0  0  0  0  0  0  0  0  0  0  0
  -19.3114  -24.4359   26.9724 N   0  0  0  0  0  0  0  0  0  0  0  0
  -19.1314  -22.4479   20.7232 N   0  0  0  0  0  0  0  0  0  0  0  0
  -20.9222  -23.6407   17.8184 N   0  3  0  0  0  0  0  0  0  0  0  0
  -22.6644  -14.7219   21.3213 O   0  0  0  0  0  0  0  0  0  0  0  0
  -20.5632  -22.6201   26.2250 O   0  0  0  0  0  0  0  0  0  0  0  0
  -18.1534  -23.7708   23.0689 O   0  0  0  0  0  0  0  0  0  0  0  0
  -21.2733  -21.9147   20.0125 O   0  0  0  0  0  0  0  0  0  0  0  0
  -31.8586  -14.9340   20.1883 O   0  0  0  0  0  0  0  0  0  0  0  0
  -21.6106   -7.0194   21.7050 O   0  0  0  0  0  0  0  0  0  0  0  0
  -26.4290  -22.5231   24.4171 O   0  0  0  0  0  0  0  0  0  1  0  0
  -18.6198   -6.8602   26.3347 F   0  0  0  0  0  0  0  0  0  0  0  0
  -22.0599   -5.0745   23.6176 F   0  0  0  0  0  0  0  0  0  0  0  0
  1  2  1  0  0  0  0
  1  5  2  0  0  0  0
  2  6  2  0  0  0  0
  3  8  2  0  0  0  0
  3 18  1  0  0  0  0
  4  9  1  0  0  0  0
  4 18  2  0  0  0  0
  5 20  1  0  0  0  0
  6 22  1  0  0  0  0
  7 10  2  0  0  0  0
  7 21  1  0  0  0  0
  8 27  1  0  0  0  0
  9 27  2  0  0  0  0
 10 28  1  0  0  0  0
 11 12  2  0  0  0  0
 11 29  1  0  0  0  0
 12 30  1  0  0  0  0
 13 23  1  0  0  0  0
 13 28  2  0  0  0  0
 14 24  1  0  0  0  0
 14 25  2  0  0  0  0
 15 24  2  0  0  0  0
 15 26  1  0  0  0  0
 16 25  1  0  0  0  0
 16 26  2  0  0  0  0
 17 30  2  0  0  0  0
 17 31  1  0  0  0  0
 18 32  1  0  0  0  0
 19 32  1  0  0  0  0
 19 33  2  0  0  0  0
 19 38  1  0  0  0  0
 20 22  2  0  0  0  0
 20 43  1  0  0  0  0
 21 23  2  0  0  0  0
 21 44  1  0  0  0  0
 22 54  1  0  0  0  0
 23 45  1  0  0  0  0
 24 68  1  0  0  0  0
 25 71  1  0  0  0  0
 26 74  1  0  0  0  0
 27 83  1  0  0  0  0
 28 84  1  0  0  0  0
 29 31  2  0  0  0  0
 29 83  1  0  0  0  0
 30 85  1  0  0  0  0
 31 86  1  0  0  0  0
 32 66  2  0  0  0  0
 33 67  1  0  0  0  0
 33 72  1  0  0  0  0
 34 35  2  0  0  0  0
 34 68  1  0  0  0  0
 35 46  1  0  0  0  0
 35 62  1  0  0  0  0
 36 37  2  0  0  0  0
 36 46  1  0  0  0  0
 36 47  1  0  0  0  0
 38 73  1  0  0  0  0
 38 78  2  0  0  0  0
 39 55  1  0  0  0  0
 39 75  1  0  0  0  0
 39 79  2  0  0  0  0
 40 63  1  0  0  0  0
 40 69  1  0  0  0  0
 40 80  2  0  0  0  0
 41 64  1  0  0  0  0
 41 76  1  0  0  0  0
 41 81  2  0  0  0  0
 42 70  1  0  0  0  0
 42 74  1  0  0  0  0
 42 82  2  0  0  0  0
 43 48  1  0  0  0  0
 44 55  1  0  0  0  0
 45 69  1  0  0  0  0
 47 68  1  0  0  0  0
 48 50  1  0  0  0  0
 49 51  1  0  0  0  0
 49 52  1  0  0  0  0
 50 54  1  0  0  0  0
 51 56  1  0  0  0  0
 52 70  1  0  0  0  0
 53 56  1  0  0  0  0
 53 70  1  0  0  0  0
 54 75  1  0  0  0  0
 55 69  1  0  0  0  0
 56 67  1  0  0  0  0
 57 64  1  0  0  0  0
 58 65  1  0  0  0  0
 59 65  1  0  0  0  0
 60 65  1  0  0  0  0
 61 77  1  0  0  0  0
 62 84  1  0  0  0  0
 63 65  1  0  0  0  0
 63 76  1  0  0  0  0
 64 77  1  0  0  0  0
 66 67  1  0  0  0  0
M  CHG  1  77   1
M  ISO  4  42 100  62 101  74 100  84 101
M  END
> <Batch ID>
0079

> <Smiles>
C=C1CC([101CH2:1][101O:1]c2ccc3c(c2)CN(C(=O)C(NC(=O)C(C)NC)C(C)(C)C)C(C(=O)NC2CCCc4ccccc42)C3)=CN(c2cc(N)cc([100NH:0][100C:0](=O)N3CCCC(n4nc(-c5ccc(Oc6ccc(F)cc6F)cc5)c(C(N)=O)c4N)C3)c2)C1

> <Shape>
0.166

> <Color>
0.188

> <Negative vol penalty>
0.000

$$$$

  -OEChem-04042323593D

 86 95  0     1  0  0  0  0  0999 V2000
  -23.6926  -29.3196   20.3658 C   0  0  0  0  0  0  0  0  0  0  0  0
  -24.4418  -28.3183   20.9752 C   0  0  0  0  0  0  0  0  0  0  0  0
  -23.1325   -9.8046   20.1104 C   0  0  0  0  0  0  0  0  0  0  0  0
  -23.7833  -10.0722   22.4216 C   0  0  0  0  0  0  0  0  0  0  0  0
  -23.9913  -30.6592   20.6109 C   0  0  0  0  0  0  0  0  0  0  0  0
  -25.4911  -28.6561   21.8292 C   0  0  0  0  0  0  0  0  0  0  0  0
  -27.2698  -25.6339   26.8500 C   0  0  0  0  0  0  0  0  0  0  0  0
  -30.2201  -18.7965   23.5998 C   0  0  0  0  0  0  0  0  0  0  0  0
  -32.4394  -17.9265   23.2064 C   0  0  0  0  0  0  0  0  0  0  0  0
  -29.6864  -17.8099   22.7707 C   0  0  0  0  0  0  0  0  0  0  0  0
  -31.9057  -16.9399   22.3773 C   0  0  0  0  0  0  0  0  0  0  0  0
  -22.3915   -8.6728   20.4500 C   0  0  0  0  0  0  0  0  0  0  0  0
  -23.0422   -8.9404   22.7613 C   0  0  0  0  0  0  0  0  0  0  0  0
  -28.2929  -24.7147   27.0784 C   0  0  0  0  0  0  0  0  0  0  0  0
  -19.7990   -8.1577   23.2993 C   0  0  0  0  0  0  0  0  0  0  0  0
  -18.9883   -8.2316   24.4319 C   0  0  0  0  0  0  0  0  0  0  0  0
  -29.7105  -26.4985   27.8708 C   0  0  0  0  0  0  0  0  0  0  0  0
  -20.2166   -6.4064   25.4303 C   0  0  0  0  0  0  0  0  0  0  0  0
  -23.8285  -10.5043   21.0961 C   0  0  0  0  0  0  0  0  0  0  0  0
  -24.1454  -13.0072   20.7180 C   0  0  0  0  0  0  0  0  0  0  0  0
  -25.0386  -31.0136   21.4759 C   0  0  0  0  0  0  0  0  0  0  0  0
  -27.4635  -26.9962   27.1205 C   0  0  0  0  0  0  0  0  0  0  0  0
  -25.8050  -30.0017   22.0851 C   0  0  0  0  0  0  0  0  0  0  0  0
  -28.6875  -27.4326   27.6474 C   0  0  0  0  0  0  0  0  0  0  0  0
  -31.5967  -18.8548   23.8176 C   0  0  0  0  0  0  0  0  0  0  0  0
  -30.5292  -16.8816   22.1594 C   0  0  0  0  0  0  0  0  0  0  0  0
  -22.3463   -8.2407   21.7755 C   0  0  0  0  0  0  0  0  0  0  0  0
  -29.5144  -25.1473   27.5861 C   0  0  0  0  0  0  0  0  0  0  0  0
  -20.8186   -7.2080   23.2322 C   0  0  0  0  0  0  0  0  0  0  0  0
  -19.1971   -7.3560   25.4974 C   0  0  0  0  0  0  0  0  0  0  0  0
  -21.0273   -6.3324   24.2977 C   0  0  0  0  0  0  0  0  0  0  0  0
  -24.5946  -11.6733   20.7458 C   0  0  0  0  0  0  0  0  0  0  0  0
  -25.2445  -13.7314   20.3256 C   0  0  0  0  0  0  0  0  0  0  0  0
  -32.3691  -21.6360   26.0617 C   0  0  0  0  0  0  0  0  0  0  0  0
  -33.6968  -21.1234   25.8335 C   0  0  0  0  0  0  0  0  0  0  0  0
  -31.3752  -20.8216   25.3082 C   0  0  0  0  0  0  0  0  0  0  0  0
  -34.8562  -21.5720   26.3264 C   0  0  0  0  0  0  0  0  0  0  0  0
  -31.9793  -22.6721   26.8123 C   0  0  0  0  0  0  0  0  0  0  0  0
  -22.8506  -13.5436   21.0201 C   0  0  0  0  0  0  0  0  0  0  0  0
  -27.4470  -29.6538   25.3768 C   0  0  0  0  0  0  0  0  0  0  0  0
  -27.7547  -31.0893   28.2694 C   0  0  0  0  0  0  0  0  0  0  0  0
  -28.7438  -30.8588   31.5276 C   0  0  0  0  0  0  0  0  0  0  0  0
  -30.6835  -14.8824   20.6345 C   0  0  0  0  0  0  0  0  0  0  0  0
  -25.3542  -32.4752   21.6730 C   0  0  0  0  0  0  0  0  0  0  0  0
  -26.3408  -27.9712   26.8938 C   0  0  0  0  0  0  0  0  0  0  0  0
  -28.9390  -28.8813   27.9736 C   0  0  0  0  0  0  0  0  0  0  0  0
  -33.5621  -19.9500   24.9107 C   0  0  0  0  0  0  0  0  0  0  0  0
  -26.2424  -32.7485   22.8841 C   0  0  0  0  0  0  0  0  0  0  0  0
  -29.7108  -12.2083   18.4943 C   0  0  0  0  0  0  0  0  0  0  0  0
  -27.4189  -31.7780   22.9133 C   0  0  0  0  0  0  0  0  0  0  0  0
  -28.2561  -11.9404   18.8870 C   0  0  0  0  0  0  0  0  0  0  0  0
  -30.5655  -12.5811   19.7044 C   0  0  0  0  0  0  0  0  0  0  0  0
  -28.5870  -13.4180   20.9104 C   0  0  0  0  0  0  0  0  0  0  0  0
  -26.9351  -30.3282   23.0372 C   0  0  1  0  0  0  0  0  0  0  0  0
  -26.8232  -29.4083   26.7215 C   0  0  1  0  0  0  0  0  0  0  0  0
  -27.6729  -13.1021   19.7153 C   0  0  2  0  0  0  0  0  0  0  0  0
  -28.9060  -32.2081   33.6371 C   0  0  0  0  0  0  0  0  0  0  0  0
  -30.1906  -32.5450   27.1482 C   0  0  0  0  0  0  0  0  0  0  0  0
  -30.8477  -33.1093   29.4972 C   0  0  0  0  0  0  0  0  0  0  0  0
  -28.6935  -33.9576   28.5686 C   0  0  0  0  0  0  0  0  0  0  0  0
  -26.9272  -29.0262   32.9769 C   0  0  0  0  0  0  0  0  0  0  0  0
  -30.5582  -23.1026   26.9652 C   0  0  0  0  0  0  0  0  0  1  0  0
  -28.9170  -31.5046   29.1386 C   0  0  1  0  0  0  0  0  0  0  0  0
  -28.0517  -31.2510   32.8205 C   0  0  2  0  0  0  0  0  0  0  0  0
  -29.6584  -32.7520   28.5803 C   0  0  0  0  0  0  0  0  0  0  0  0
  -25.8788  -11.5543   20.3985 N   0  0  0  0  0  0  0  0  0  0  0  0
  -26.2460  -12.8227   20.1487 N   0  0  0  0  0  0  0  0  0  0  0  0
  -32.1293  -19.8390   24.6443 N   0  0  0  0  0  0  0  0  0  0  0  0
  -27.8126  -29.7970   27.7286 N   0  0  0  0  0  0  0  0  0  0  0  0
  -29.9535  -13.6910   20.4381 N   0  0  0  0  0  0  0  0  0  0  0  0
  -25.4422  -15.0506   20.1179 N   0  0  0  0  0  0  0  0  0  0  0  0
  -21.8348  -12.6591   21.4077 N   0  0  0  0  0  0  0  0  0  0  0  0
  -29.9873  -15.8793   21.3171 N   0  0  0  0  0  0  0  0  0  0  0  0
  -26.5475  -30.0395   24.4013 N   0  0  0  0  0  0  0  0  0  0  0  0
  -28.3788  -31.6815   30.4830 N   0  0  0  0  0  0  0  0  0  0  0  0
  -27.7775  -30.0426   33.6484 N   0  3  0  0  0  0  0  0  0  0  0  0
  -30.1685  -20.9978   25.2928 O   0  0  0  0  0  0  0  0  0  0  0  0
  -22.5972  -14.7690   20.9325 O   0  0  0  0  0  0  0  0  0  0  0  0
  -28.6552  -29.5059   25.2352 O   0  0  0  0  0  0  0  0  0  0  0  0
  -26.8261  -31.8796   28.0833 O   0  0  0  0  0  0  0  0  0  0  0  0
  -29.5324  -29.9191   31.4527 O   0  0  0  0  0  0  0  0  0  0  0  0
  -31.8313  -15.0187   20.2032 O   0  0  0  0  0  0  0  0  0  0  0  0
  -21.6231   -7.1364   22.1074 O   0  0  0  0  0  0  0  0  0  0  0  0
  -30.5149  -24.2523   27.8094 O   0  0  0  0  0  0  0  0  0  1  0  0
  -18.4194   -7.4282   26.5856 F   0  0  0  0  0  0  0  0  0  0  0  0
  -22.0060   -5.4188   24.2395 F   0  0  0  0  0  0  0  0  0  0  0  0
  1  2  1  0  0  0  0
  1  5  2  0  0  0  0
  2  6  2  0  0  0  0
  3 12  2  0  0  0  0
  3 19  1  0  0  0  0
  4 13  1  0  0  0  0
  4 19  2  0  0  0  0
  5 21  1  0  0  0  0
  6 23  1  0  0  0  0
  7 14  2  0  0  0  0
  7 22  1  0  0  0  0
  8 10  2  0  0  0  0
  8 25  1  0  0  0  0
  9 11  1  0  0  0  0
  9 25  2  0  0  0  0
 10 26  1  0  0  0  0
 11 26  2  0  0  0  0
 12 27  1  0  0  0  0
 13 27  2  0  0  0  0
 14 28  1  0  0  0  0
 15 16  2  0  0  0  0
 15 29  1  0  0  0  0
 16 30  1  0  0  0  0
 17 24  1  0  0  0  0
 17 28  2  0  0  0  0
 18 30  2  0  0  0  0
 18 31  1  0  0  0  0
 19 32  1  0  0  0  0
 20 32  1  0  0  0  0
 20 33  2  0  0  0  0
 20 39  1  0  0  0  0
 21 23  2  0  0  0  0
 21 44  1  0  0  0  0
 22 24  2  0  0  0  0
 22 45  1  0  0  0  0
 23 54  1  0  0  0  0
 24 46  1  0  0  0  0
 25 68  1  0  0  0  0
 26 73  1  0  0  0  0
 27 83  1  0  0  0  0
 28 84  1  0  0  0  0
 29 31  2  0  0  0  0
 29 83  1  0  0  0  0
 30 85  1  0  0  0  0
 31 86  1  0  0  0  0
 32 66  2  0  0  0  0
 33 67  1  0  0  0  0
 33 71  1  0  0  0  0
 34 35  1  0  0  0  0
 34 36  1  0  0  0  0
 34 38  2  0  0  0  0
 35 37  2  0  0  0  0
 35 47  1  0  0  0  0
 36 68  1  0  0  0  0
 36 77  2  0  0  0  0
 38 62  1  0  0  0  0
 39 72  1  0  0  0  0
 39 78  2  0  0  0  0
 40 55  1  0  0  0  0
 40 74  1  0  0  0  0
 40 79  2  0  0  0  0
 41 63  1  0  0  0  0
 41 69  1  0  0  0  0
 41 80  2  0  0  0  0
 42 64  1  0  0  0  0
 42 75  1  0  0  0  0
 42 81  2  0  0  0  0
 43 70  1  0  0  0  0
 43 73  1  0  0  0  0
 43 82  2  0  0  0  0
 44 48  1  0  0  0  0
 45 55  1  0  0  0  0
 46 69  1  0  0  0  0
 47 68  1  0  0  0  0
 48 50  1  0  0  0  0
 49 51  1  0  0  0  0
 49 52  1  0  0  0  0
 50 54  1  0  0  0  0
 51 56  1  0  0  0  0
 52 70  1  0  0  0  0
 53 56  1  0  0  0  0
 53 70  1  0  0  0  0
 54 74  1  0  0  0  0
 55 69  1  0  0  0  0
 56 67  1  0  0  0  0
 57 64  1  0  0  0  0
 58 65  1  0  0  0  0
 59 65  1  0  0  0  0
 60 65  1  0  0  0  0
 61 76  1  0  0  0  0
 62 84  1  0  0  0  0
 63 65  1  0  0  0  0
 63 75  1  0  0  0  0
 64 76  1  0  0  0  0
 66 67  1  0  0  0  0
M  CHG  1  76   1
M  ISO  4  43 100  62 101  73 100  84 101
M  END
> <Batch ID>
0079

> <Smiles>
C=C1CN(c2ccc([100NH:0][100C:0](=O)N3CCCC(n4nc(-c5ccc(Oc6ccc(F)cc6F)cc5)c(C(N)=O)c4N)C3)cc2)C(=O)C1=C[101CH2:1][101O:1]c1ccc2c(c1)CN(C(=O)C(NC(=O)C(C)NC)C(C)(C)C)C(C(=O)NC1CCCc3ccccc31)C2

> <Shape>
0.241

> <Color>
0.201

> <Negative vol penalty>
0.000

$$$$

  -OEChem-04042323593D

 86 95  0     1  0  0  0  0  0999 V2000
  -29.7777  -37.0771   20.8608 C   0  0  0  0  0  0  0  0  0  0  0  0
  -29.9420  -35.7669   20.4231 C   0  0  0  0  0  0  0  0  0  0  0  0
  -24.0267   -9.9370   22.2881 C   0  0  0  0  0  0  0  0  0  0  0  0
  -24.6446  -11.5585   23.9691 C   0  0  0  0  0  0  0  0  0  0  0  0
  -29.1118  -37.3323   22.0589 C   0  0  0  0  0  0  0  0  0  0  0  0
  -29.4413  -34.7108   21.1837 C   0  0  0  0  0  0  0  0  0  0  0  0
  -27.0972  -29.4541   19.0915 C   0  0  0  0  0  0  0  0  0  0  0  0
  -30.9306  -20.1386   19.0597 C   0  0  0  0  0  0  0  0  0  0  0  0
  -30.6529  -18.7744   18.9744 C   0  0  0  0  0  0  0  0  0  0  0  0
  -23.6215   -9.0539   23.2888 C   0  0  0  0  0  0  0  0  0  0  0  0
  -24.2394  -10.6754   24.9699 C   0  0  0  0  0  0  0  0  0  0  0  0
  -27.6411  -28.1794   18.9393 C   0  0  0  0  0  0  0  0  0  0  0  0
  -20.9451   -8.6422   25.3138 C   0  0  0  0  0  0  0  0  0  0  0  0
  -19.7272   -7.9841   25.1434 C   0  0  0  0  0  0  0  0  0  0  0  0
  -26.7116  -27.5349   21.0700 C   0  0  0  0  0  0  0  0  0  0  0  0
  -28.5723  -20.6036   19.3031 C   0  0  0  0  0  0  0  0  0  0  0  0
  -20.8670   -5.8552   25.2189 C   0  0  0  0  0  0  0  0  0  0  0  0
  -24.5383  -11.1893   22.6282 C   0  0  0  0  0  0  0  0  0  0  0  0
  -24.1704  -13.0730   20.9477 C   0  0  0  0  0  0  0  0  0  0  0  0
  -28.5942  -36.2794   22.8298 C   0  0  0  0  0  0  0  0  0  0  0  0
  -26.3644  -29.7826   20.2411 C   0  0  0  0  0  0  0  0  0  0  0  0
  -28.7690  -34.9521   22.3939 C   0  0  0  0  0  0  0  0  0  0  0  0
  -26.1573  -28.8136   21.2332 C   0  0  0  0  0  0  0  0  0  0  0  0
  -29.8903  -21.0532   19.2241 C   0  0  0  0  0  0  0  0  0  0  0  0
  -29.3349  -18.3247   19.0534 C   0  0  0  0  0  0  0  0  0  0  0  0
  -23.7278   -9.4231   24.6298 C   0  0  0  0  0  0  0  0  0  0  0  0
  -27.4508  -27.2204   19.9299 C   0  0  0  0  0  0  0  0  0  0  0  0
  -22.1240   -7.9069   25.4367 C   0  0  0  0  0  0  0  0  0  0  0  0
  -19.6881   -6.5906   25.0960 C   0  0  0  0  0  0  0  0  0  0  0  0
  -28.2946  -19.2393   19.2178 C   0  0  0  0  0  0  0  0  0  0  0  0
  -22.0850   -6.5133   25.3893 C   0  0  0  0  0  0  0  0  0  0  0  0
  -24.9576  -12.1018   21.5949 C   0  0  0  0  0  0  0  0  0  0  0  0
  -25.0273  -13.6715   20.0567 C   0  0  0  0  0  0  0  0  0  0  0  0
  -29.9636  -24.6976   19.5089 C   0  0  0  0  0  0  0  0  0  0  0  0
  -31.3725  -24.4302   19.3646 C   0  0  0  0  0  0  0  0  0  0  0  0
  -29.1993  -23.4195   19.4739 C   0  0  0  0  0  0  0  0  0  0  0  0
  -32.3856  -25.3030   19.3462 C   0  0  0  0  0  0  0  0  0  0  0  0
  -29.3373  -25.8650   19.6569 C   0  0  0  0  0  0  0  0  0  1  0  0
  -22.7881  -13.4046   21.1354 C   0  0  0  0  0  0  0  0  0  0  0  0
  -26.7095  -31.8909   22.5948 C   0  0  0  0  0  0  0  0  0  0  0  0
  -23.7806  -30.8065   23.4711 C   0  0  0  0  0  0  0  0  0  0  0  0
  -21.4767  -28.2903   23.3817 C   0  0  0  0  0  0  0  0  0  0  0  0
  -29.9729  -15.9007   18.8019 C   0  0  0  0  0  0  0  0  0  0  0  0
  -27.9231  -36.6018   24.1414 C   0  0  0  0  0  0  0  0  0  0  0  0
  -25.7617  -31.1539   20.3779 C   0  0  0  0  0  0  0  0  0  0  0  0
  -25.3612  -29.1097   22.4770 C   0  0  0  0  0  0  0  0  0  0  0  0
  -31.5266  -22.9452   19.2323 C   0  0  0  0  0  0  0  0  0  0  0  0
  -27.0942  -35.4485   24.7011 C   0  0  0  0  0  0  0  0  0  0  0  0
  -29.6871  -12.3587   18.5788 C   0  0  0  0  0  0  0  0  0  0  0  0
  -27.8796  -34.1428   24.6299 C   0  0  0  0  0  0  0  0  0  0  0  0
  -28.3664  -12.0560   19.2904 C   0  0  0  0  0  0  0  0  0  0  0  0
  -30.4443  -13.5025   19.2511 C   0  0  0  0  0  0  0  0  0  0  0  0
  -28.3477  -14.4323   20.1504 C   0  0  0  0  0  0  0  0  0  0  0  0
  -28.2183  -33.7812   23.1787 C   0  0  1  0  0  0  0  0  0  0  0  0
  -25.4686  -31.5360   21.8255 C   0  0  1  0  0  0  0  0  0  0  0  0
  -27.5185  -13.3304   19.4708 C   0  0  2  0  0  0  0  0  0  0  0  0
  -19.1924  -27.6802   24.2227 C   0  0  0  0  0  0  0  0  0  0  0  0
  -24.9460  -30.2687   26.2393 C   0  0  0  0  0  0  0  0  0  0  0  0
  -22.9592  -28.8224   26.7183 C   0  0  0  0  0  0  0  0  0  0  0  0
  -22.6467  -31.2523   26.2485 C   0  0  0  0  0  0  0  0  0  0  0  0
  -20.4055  -28.0383   20.6343 C   0  0  0  0  0  0  0  0  0  0  0  0
  -23.2734  -29.6950   24.3580 C   0  0  1  0  0  0  0  0  0  0  0  0
  -19.9883  -28.2976   23.0833 C   0  0  2  0  0  0  0  0  0  0  0  0
  -23.4730  -30.0043   25.8686 C   0  0  0  0  0  0  0  0  0  0  0  0
  -26.2177  -12.0810   21.1525 N   0  0  0  0  0  0  0  0  0  0  0  0
  -26.2287  -13.0465   20.2177 N   0  0  0  0  0  0  0  0  0  0  0  0
  -30.1671  -22.4141   19.3086 N   0  0  0  0  0  0  0  0  0  0  0  0
  -24.7974  -30.4667   22.5675 N   0  0  0  0  0  0  0  0  0  0  0  0
  -29.5799  -14.6771   19.3844 N   0  0  0  0  0  0  0  0  0  0  0  0
  -24.8626  -14.6661   19.1588 N   0  0  0  0  0  0  0  0  0  0  0  0
  -22.0538  -12.6911   22.0925 N   0  0  0  0  0  0  0  0  0  0  0  0
  -29.0558  -16.9383   18.9659 N   0  0  0  0  0  0  0  0  0  0  0  0
  -27.0599  -33.2250   22.5129 N   0  0  0  0  0  0  0  0  0  0  0  0
  -21.8847  -29.4672   23.9731 N   0  0  0  0  0  0  0  0  0  0  0  0
  -19.7054  -27.5258   21.8402 N   0  3  0  0  0  0  0  0  0  0  0  0
  -27.9889  -23.3054   19.5711 O   0  0  0  0  0  0  0  0  0  0  0  0
  -22.2168  -14.2957   20.4623 O   0  0  0  0  0  0  0  0  0  0  0  0
  -27.3041  -31.0191   23.2178 O   0  0  0  0  0  0  0  0  0  0  0  0
  -23.2877  -31.9328   23.5714 O   0  0  0  0  0  0  0  0  0  0  0  0
  -22.2039  -27.3347   23.1200 O   0  0  0  0  0  0  0  0  0  0  0  0
  -31.0316  -16.0121   18.1784 O   0  0  0  0  0  0  0  0  0  0  0  0
  -23.3323   -8.5617   25.6066 O   0  0  0  0  0  0  0  0  0  0  0  0
  -27.9811  -25.9757   19.7841 O   0  0  0  0  0  0  0  0  0  1  0  0
  -18.5182   -5.9586   24.9339 F   0  0  0  0  0  0  0  0  0  0  0  0
  -27.0237  -18.8186   19.2935 F   0  0  0  0  0  0  0  0  0  0  0  0
  -23.2141   -5.8015   25.5080 F   0  0  0  0  0  0  0  0  0  0  0  0
  1  2  1  0  0  0  0
  1  5  2  0  0  0  0
  2  6  2  0  0  0  0
  3 10  2  0  0  0  0
  3 18  1  0  0  0  0
  4 11  1  0  0  0  0
  4 18  2  0  0  0  0
  5 20  1  0  0  0  0
  6 22  1  0  0  0  0
  7 12  2  0  0  0  0
  7 21  1  0  0  0  0
  8  9  2  0  0  0  0
  8 24  1  0  0  0  0
  9 25  1  0  0  0  0
 10 26  1  0  0  0  0
 11 26  2  0  0  0  0
 12 27  1  0  0  0  0
 13 14  2  0  0  0  0
 13 28  1  0  0  0  0
 14 29  1  0  0  0  0
 15 23  1  0  0  0  0
 15 27  2  0  0  0  0
 16 24  2  0  0  0  0
 16 30  1  0  0  0  0
 17 29  2  0  0  0  0
 17 31  1  0  0  0  0
 18 32  1  0  0  0  0
 19 32  1  0  0  0  0
 19 33  2  0  0  0  0
 19 39  1  0  0  0  0
 20 22  2  0  0  0  0
 20 44  1  0  0  0  0
 21 23  2  0  0  0  0
 21 45  1  0  0  0  0
 22 54  1  0  0  0  0
 23 46  1  0  0  0  0
 24 67  1  0  0  0  0
 25 30  2  0  0  0  0
 25 72  1  0  0  0  0
 26 82  1  0  0  0  0
 27 83  1  0  0  0  0
 28 31  2  0  0  0  0
 28 82  1  0  0  0  0
 29 84  1  0  0  0  0
 30 85  1  0  0  0  0
 31 86  1  0  0  0  0
 32 65  2  0  0  0  0
 33 66  1  0  0  0  0
 33 70  1  0  0  0  0
 34 35  1  0  0  0  0
 34 36  1  0  0  0  0
 34 38  2  0  0  0  0
 35 37  2  0  0  0  0
 35 47  1  0  0  0  0
 36 67  1  0  0  0  0
 36 76  2  0  0  0  0
 38 83  1  0  0  0  0
 39 71  1  0  0  0  0
 39 77  2  0  0  0  0
 40 55  1  0  0  0  0
 40 73  1  0  0  0  0
 40 78  2  0  0  0  0
 41 62  1  0  0  0  0
 41 68  1  0  0  0  0
 41 79  2  0  0  0  0
 42 63  1  0  0  0  0
 42 74  1  0  0  0  0
 42 80  2  0  0  0  0
 43 69  1  0  0  0  0
 43 72  1  0  0  0  0
 43 81  2  0  0  0  0
 44 48  1  0  0  0  0
 45 55  1  0  0  0  0
 46 68  1  0  0  0  0
 47 67  1  0  0  0  0
 48 50  1  0  0  0  0
 49 51  1  0  0  0  0
 49 52  1  0  0  0  0
 50 54  1  0  0  0  0
 51 56  1  0  0  0  0
 52 69  1  0  0  0  0
 53 56  1  0  0  0  0
 53 69  1  0  0  0  0
 54 73  1  0  0  0  0
 55 68  1  0  0  0  0
 56 66  1  0  0  0  0
 57 63  1  0  0  0  0
 58 64  1  0  0  0  0
 59 64  1  0  0  0  0
 60 64  1  0  0  0  0
 61 75  1  0  0  0  0
 62 64  1  0  0  0  0
 62 74  1  0  0  0  0
 63 75  1  0  0  0  0
 65 66  1  0  0  0  0
M  CHG  1  75   1
M  ISO  4  38 101  43 100  72 100  83 101
M  END
> <Batch ID>
0079

> <Smiles>
C=C1CN(c2ccc([100NH:0][100C:0](=O)N3CCCC(n4nc(-c5ccc(Oc6ccc(F)cc6F)cc5)c(C(N)=O)c4N)C3)c(F)c2)C(=O)C1=[101CH:1][101O:1]c1ccc2c(c1)CN(C(=O)C(NC(=O)C(C)NC)C(C)(C)C)C(C(=O)NC1CCCc3ccccc31)C2

> <Shape>
0.316

> <Color>
0.135

> <Negative vol penalty>
0.000

$$$$

  -OEChem-04042323593D

 88 97  0     1  0  0  0  0  0999 V2000
  -33.5996  -10.2694   20.2634 C   0  0  0  0  0  0  0  0  0  0  0  0
  -33.4687  -11.5879   20.6876 C   0  0  0  0  0  0  0  0  0  0  0  0
  -30.8639  -26.6679   19.1010 C   0  0  0  0  0  0  0  0  0  0  0  0
  -22.2682  -24.8196   22.7260 C   0  0  0  0  0  0  0  0  0  0  0  0
  -20.7507  -26.0507   24.1467 C   0  0  0  0  0  0  0  0  0  0  0  0
  -30.7854  -27.7412   19.9883 C   0  0  0  0  0  0  0  0  0  0  0  0
  -32.6894   -9.7384   19.3505 C   0  0  0  0  0  0  0  0  0  0  0  0
  -32.4280  -12.3765   20.1981 C   0  0  0  0  0  0  0  0  0  0  0  0
  -28.0476  -17.6910   22.1691 C   0  0  0  0  0  0  0  0  0  0  0  0
  -30.0643  -25.5417   19.2961 C   0  0  0  0  0  0  0  0  0  0  0  0
  -21.7152  -23.6202   23.1746 C   0  0  0  0  0  0  0  0  0  0  0  0
  -20.1977  -24.8513   24.5954 C   0  0  0  0  0  0  0  0  0  0  0  0
  -27.6204  -18.9483   21.7441 C   0  0  0  0  0  0  0  0  0  0  0  0
  -20.9452  -20.2224   24.2165 C   0  0  0  0  0  0  0  0  0  0  0  0
  -21.8199  -19.1913   24.5589 C   0  0  0  0  0  0  0  0  0  0  0  0
  -29.1077  -26.5621   21.2660 C   0  0  0  0  0  0  0  0  0  0  0  0
  -26.0610  -17.9003   20.2311 C   0  0  0  0  0  0  0  0  0  0  0  0
  -22.8232  -20.6021   26.2442 C   0  0  0  0  0  0  0  0  0  0  0  0
  -21.7860  -26.0349   23.2121 C   0  0  0  0  0  0  0  0  0  0  0  0
  -29.9073  -27.6883   21.0709 C   0  0  0  0  0  0  0  0  0  0  0  0
  -21.9431  -28.0405   21.6435 C   0  0  0  0  0  0  0  0  0  0  0  0
  -31.6314  -10.5180   18.8570 C   0  0  0  0  0  0  0  0  0  0  0  0
  -27.4915  -16.5270   21.6194 C   0  0  0  0  0  0  0  0  0  0  0  0
  -31.5036  -11.8558   19.2767 C   0  0  0  0  0  0  0  0  0  0  0  0
  -26.4811  -16.6295   20.6526 C   0  0  0  0  0  0  0  0  0  0  0  0
  -29.1862  -25.4888   20.3786 C   0  0  0  0  0  0  0  0  0  0  0  0
  -20.6800  -23.6361   24.1093 C   0  0  0  0  0  0  0  0  0  0  0  0
  -26.6290  -19.0530   20.7729 C   0  0  0  0  0  0  0  0  0  0  0  0
  -21.0096  -21.4434   24.8878 C   0  0  0  0  0  0  0  0  0  0  0  0
  -22.7589  -19.3811   25.5728 C   0  0  0  0  0  0  0  0  0  0  0  0
  -21.9485  -21.6333   25.9016 C   0  0  0  0  0  0  0  0  0  0  0  0
  -22.3571  -27.2742   22.7495 C   0  0  0  0  0  0  0  0  0  0  0  0
  -22.7997  -29.1140   21.6297 C   0  0  0  0  0  0  0  0  0  0  0  0
  -27.3847  -22.3074   20.3442 C   0  0  0  0  0  0  0  0  0  0  0  0
  -26.8089  -22.9076   21.5214 C   0  0  0  0  0  0  0  0  0  0  0  0
  -28.3866  -23.2314   19.7430 C   0  0  0  0  0  0  0  0  0  0  0  0
  -25.8792  -22.4036   22.3401 C   0  0  0  0  0  0  0  0  0  0  0  0
  -29.8247  -28.8322   22.0151 C   0  0  0  0  0  0  0  0  0  0  0  0
  -20.8793  -27.8032   20.7120 C   0  0  0  0  0  0  0  0  0  0  0  0
  -27.1321  -21.1157   19.7917 C   0  0  0  0  0  0  0  0  0  1  0  0
  -28.6249  -14.0733   19.9464 C   0  0  0  0  0  0  0  0  0  0  0  0
  -25.6217  -12.9150   20.3485 C   0  0  0  0  0  0  0  0  0  0  0  0
  -22.3231  -13.5593   20.9406 C   0  0  0  0  0  0  0  0  0  0  0  0
  -28.3318  -29.9674   23.6295 C   0  0  0  0  0  0  0  0  0  0  0  0
  -30.7001   -9.9146   17.8355 C   0  0  0  0  0  0  0  0  0  0  0  0
  -27.9444  -15.1784   22.1079 C   0  0  0  0  0  0  0  0  0  0  0  0
  -25.8376  -15.4104   20.0458 C   0  0  0  0  0  0  0  0  0  0  0  0
  -27.4508  -24.2517   21.6881 C   0  0  0  0  0  0  0  0  0  0  0  0
  -29.4056  -10.7023   17.6512 C   0  0  0  0  0  0  0  0  0  0  0  0
  -25.4655  -31.8173   24.5561 C   0  0  0  0  0  0  0  0  0  0  0  0
  -29.7017  -12.1929   17.5202 C   0  0  0  0  0  0  0  0  0  0  0  0
  -24.3020  -30.9411   24.0840 C   0  0  0  0  0  0  0  0  0  0  0  0
  -26.6187  -30.9803   25.1077 C   0  0  0  0  0  0  0  0  0  0  0  0
  -25.9376  -29.0448   23.7483 C   0  0  0  0  0  0  0  0  0  0  0  0
  -30.3734  -12.7353   18.7875 C   0  0  1  0  0  0  0  0  0  0  0  0
  -27.6722  -14.0585   21.1083 C   0  0  1  0  0  0  0  0  0  0  0  0
  -24.7803  -29.8373   23.1194 C   0  0  1  0  0  0  0  0  0  0  0  0
  -27.8101  -20.6153   18.5571 C   0  0  0  0  0  0  0  0  0  0  0  0
  -20.1032  -12.4128   21.1751 C   0  0  0  0  0  0  0  0  0  0  0  0
  -25.4878  -12.5603   17.3209 C   0  0  0  0  0  0  0  0  0  0  0  0
  -23.0029  -12.3345   17.5272 C   0  0  0  0  0  0  0  0  0  0  0  0
  -24.5006  -10.6765   18.6366 C   0  0  0  0  0  0  0  0  0  0  0  0
  -21.9939  -14.5128   23.7229 C   0  0  0  0  0  0  0  0  0  0  0  0
  -24.3256  -13.0152   19.5811 C   0  0  1  0  0  0  0  0  0  0  0  0
  -21.3317  -12.9333   21.9048 C   0  0  2  0  0  0  0  0  0  0  0  0
  -24.3425  -12.1698   18.2763 C   0  0  0  0  0  0  0  0  0  0  0  0
  -23.3961  -27.8148   23.3915 N   0  0  0  0  0  0  0  0  0  0  0  0
  -23.6422  -28.9324   22.6868 N   0  0  0  0  0  0  0  0  0  0  0  0
  -28.3886  -24.3656   20.5729 N   0  0  0  0  0  0  0  0  0  0  0  0
  -26.3190  -14.1143   20.5516 N   0  0  0  0  0  0  0  0  0  0  0  0
  -27.0186  -29.9654   24.1313 N   0  0  0  0  0  0  0  0  0  0  0  0
  -22.9071  -30.1862   20.8164 N   0  0  0  0  0  0  0  0  0  0  0  0
  -20.0959  -26.6520   20.8716 N   0  0  0  0  0  0  0  0  0  0  0  0
  -28.6026  -28.9850   22.6705 N   0  0  0  0  0  0  0  0  0  0  0  0
  -29.3938  -12.9307   19.8347 N   0  0  0  0  0  0  0  0  0  0  0  0
  -23.2679  -12.6489   20.5167 N   0  0  0  0  0  0  0  0  0  0  0  0
  -20.8889  -13.9351   22.9154 N   0  3  0  0  0  0  0  0  0  0  0  0
  -29.0482  -23.0174   18.7411 O   0  0  0  0  0  0  0  0  0  0  0  0
  -30.8164  -29.5345   22.1920 O   0  0  0  0  0  0  0  0  0  0  0  0
  -20.6411  -28.5803   19.7566 O   0  0  0  0  0  0  0  0  0  0  0  0
  -28.6586  -15.0486   19.2052 O   0  0  0  0  0  0  0  0  0  0  0  0
  -25.9980  -11.8143   20.7589 O   0  0  0  0  0  0  0  0  0  0  0  0
  -22.2630  -14.7372   20.5949 O   0  0  0  0  0  0  0  0  0  0  0  0
  -29.1794  -30.7960   23.9766 O   0  0  0  0  0  0  0  0  0  0  0  0
  -20.1400  -22.4659   24.5471 O   0  0  0  0  0  0  0  0  0  0  0  0
  -26.2106  -20.2790   20.3559 O   0  0  0  0  0  0  0  0  0  1  0  0
  -23.5977  -18.3903   25.9026 F   0  0  0  0  0  0  0  0  0  0  0  0
  -22.0143  -22.8037   26.5509 F   0  0  0  0  0  0  0  0  0  0  0  0
  1  2  1  0  0  0  0
  1  7  2  0  0  0  0
  2  8  2  0  0  0  0
  3  6  1  0  0  0  0
  3 10  2  0  0  0  0
  4 11  2  0  0  0  0
  4 19  1  0  0  0  0
  5 12  1  0  0  0  0
  5 19  2  0  0  0  0
  6 20  2  0  0  0  0
  7 22  1  0  0  0  0
  8 24  1  0  0  0  0
  9 13  2  0  0  0  0
  9 23  1  0  0  0  0
 10 26  1  0  0  0  0
 11 27  1  0  0  0  0
 12 27  2  0  0  0  0
 13 28  1  0  0  0  0
 14 15  2  0  0  0  0
 14 29  1  0  0  0  0
 15 30  1  0  0  0  0
 16 20  1  0  0  0  0
 16 26  2  0  0  0  0
 17 25  1  0  0  0  0
 17 28  2  0  0  0  0
 18 30  2  0  0  0  0
 18 31  1  0  0  0  0
 19 32  1  0  0  0  0
 20 38  1  0  0  0  0
 21 32  1  0  0  0  0
 21 33  2  0  0  0  0
 21 39  1  0  0  0  0
 22 24  2  0  0  0  0
 22 45  1  0  0  0  0
 23 25  2  0  0  0  0
 23 46  1  0  0  0  0
 24 55  1  0  0  0  0
 25 47  1  0  0  0  0
 26 69  1  0  0  0  0
 27 85  1  0  0  0  0
 28 86  1  0  0  0  0
 29 31  2  0  0  0  0
 29 85  1  0  0  0  0
 30 87  1  0  0  0  0
 31 88  1  0  0  0  0
 32 67  2  0  0  0  0
 33 68  1  0  0  0  0
 33 72  1  0  0  0  0
 34 35  1  0  0  0  0
 34 36  1  0  0  0  0
 34 40  2  0  0  0  0
 35 37  2  0  0  0  0
 35 48  1  0  0  0  0
 36 69  1  0  0  0  0
 36 78  2  0  0  0  0
 38 74  1  0  0  0  0
 38 79  2  0  0  0  0
 39 73  1  0  0  0  0
 39 80  2  0  0  0  0
 40 58  1  0  0  0  0
 40 86  1  0  0  0  0
 41 56  1  0  0  0  0
 41 75  1  0  0  0  0
 41 81  2  0  0  0  0
 42 64  1  0  0  0  0
 42 70  1  0  0  0  0
 42 82  2  0  0  0  0
 43 65  1  0  0  0  0
 43 76  1  0  0  0  0
 43 83  2  0  0  0  0
 44 71  1  0  0  0  0
 44 74  1  0  0  0  0
 44 84  2  0  0  0  0
 45 49  1  0  0  0  0
 46 56  1  0  0  0  0
 47 70  1  0  0  0  0
 48 69  1  0  0  0  0
 49 51  1  0  0  0  0
 50 52  1  0  0  0  0
 50 53  1  0  0  0  0
 51 55  1  0  0  0  0
 52 57  1  0  0  0  0
 53 71  1  0  0  0  0
 54 57  1  0  0  0  0
 54 71  1  0  0  0  0
 55 75  1  0  0  0  0
 56 70  1  0  0  0  0
 57 68  1  0  0  0  0
 59 65  1  0  0  0  0
 60 66  1  0  0  0  0
 61 66  1  0  0  0  0
 62 66  1  0  0  0  0
 63 77  1  0  0  0  0
 64 66  1  0  0  0  0
 64 76  1  0  0  0  0
 65 77  1  0  0  0  0
 67 68  1  0  0  0  0
M  CHG  1  77   1
M  ISO  4  40 101  44 100  74 100  86 101
M  END
> <Batch ID>
0079

> <Smiles>
C=C1CN(c2cccc(C(=O)[100NH:0][100C:0](=O)N3CCCC(n4nc(-c5ccc(Oc6ccc(F)cc6F)cc5)c(C(N)=O)c4N)C3)c2)C(=O)C1=[101C:1](C)[101O:1]c1ccc2c(c1)CN(C(=O)C(NC(=O)C(C)NC)C(C)(C)C)C(C(=O)NC1CCCc3ccccc31)C2

> <Shape>
0.242

> <Color>
0.061

> <Negative vol penalty>
0.000

$$$$

  -OEChem-04042323593D

 81 89  0     1  0  0  0  0  0999 V2000
  -25.6106  -23.7434   27.9993 C   0  0  0  0  0  0  0  0  0  0  0  0
  -26.2730  -24.3019   26.9108 C   0  0  0  0  0  0  0  0  0  0  0  0
  -26.8908  -13.1673   21.1038 C   0  0  0  0  0  0  0  0  0  0  0  0
  -26.6328  -13.7755   18.7798 C   0  0  0  0  0  0  0  0  0  0  0  0
  -24.3140  -24.1516   28.3092 C   0  0  0  0  0  0  0  0  0  0  0  0
  -25.6386  -25.2681   26.1308 C   0  0  0  0  0  0  0  0  0  0  0  0
  -28.6582  -29.1899   25.0602 C   0  0  0  0  0  0  0  0  0  0  0  0
  -26.2108  -11.9728   20.8667 C   0  0  0  0  0  0  0  0  0  0  0  0
  -25.9529  -12.5809   18.5427 C   0  0  0  0  0  0  0  0  0  0  0  0
  -29.6046  -29.0084   24.0527 C   0  0  0  0  0  0  0  0  0  0  0  0
  -23.0069  -10.9627   20.4938 C   0  0  0  0  0  0  0  0  0  0  0  0
  -22.0269  -10.5828   21.4107 C   0  0  0  0  0  0  0  0  0  0  0  0
  -29.8349  -24.3707   19.0901 C   0  0  0  0  0  0  0  0  0  0  0  0
  -28.1666  -30.1678   22.5012 C   0  0  0  0  0  0  0  0  0  0  0  0
  -23.2448   -8.5472   21.8691 C   0  0  0  0  0  0  0  0  0  0  0  0
  -31.7499  -24.0936   17.8024 C   0  0  0  0  0  0  0  0  0  0  0  0
  -27.1018  -14.0687   20.0603 C   0  0  0  0  0  0  0  0  0  0  0  0
  -30.9394  -25.0014   18.4479 C   0  0  0  0  0  0  0  0  0  0  0  0
  -29.1904  -15.5259   20.2089 C   0  0  0  0  0  0  0  0  0  0  0  0
  -23.6670  -25.1303   27.5384 C   0  0  0  0  0  0  0  0  0  0  0  0
  -27.4521  -29.8533   24.7926 C   0  0  0  0  0  0  0  0  0  0  0  0
  -24.3316  -25.6888   26.4299 C   0  0  0  0  0  0  0  0  0  0  0  0
  -27.2076  -30.3587   23.5077 C   0  0  0  0  0  0  0  0  0  0  0  0
  -25.7419  -11.6795   19.5862 C   0  0  0  0  0  0  0  0  0  0  0  0
  -29.3577  -29.4948   22.7722 C   0  0  0  0  0  0  0  0  0  0  0  0
  -24.1059  -10.1349   20.2645 C   0  0  0  0  0  0  0  0  0  0  0  0
  -22.1458   -9.3751   22.0984 C   0  0  0  0  0  0  0  0  0  0  0  0
  -24.2249   -8.9272   20.9522 C   0  0  0  0  0  0  0  0  0  0  0  0
  -27.8037  -15.3031   20.3047 C   0  0  0  0  0  0  0  0  0  0  0  0
  -29.3489  -16.8502   20.5369 C   0  0  0  0  0  0  0  0  0  0  0  0
  -29.8432  -23.0048   18.9108 C   0  0  0  0  0  0  0  0  0  0  0  0
  -30.7346  -28.3267   19.6903 C   0  0  0  0  0  0  0  0  0  0  0  0
  -31.2209  -26.4664   18.4502 C   0  0  0  0  0  0  0  0  0  0  0  0
  -30.2413  -14.6171   19.8548 C   0  0  0  0  0  0  0  0  0  0  0  0
  -24.3791  -29.0464   24.8881 C   0  0  0  0  0  0  0  0  0  0  0  0
  -23.9340  -32.1944   24.2442 C   0  0  0  0  0  0  0  0  0  0  0  0
  -25.1864  -35.0912   22.9454 C   0  0  0  0  0  0  0  0  0  0  0  0
  -27.8037  -22.1849   20.1414 C   0  0  0  0  0  0  0  0  0  0  0  0
  -22.2475  -25.5052   27.8837 C   0  0  0  0  0  0  0  0  0  0  0  0
  -26.4531  -30.0645   25.8970 C   0  0  0  0  0  0  0  0  0  0  0  0
  -25.9373  -31.0958   23.1739 C   0  0  0  0  0  0  0  0  0  0  0  0
  -21.7851  -26.8056   27.2315 C   0  0  0  0  0  0  0  0  0  0  0  0
  -26.0775  -20.1682   22.5143 C   0  0  0  0  0  0  0  0  0  0  0  0
  -22.1648  -26.8264   25.7543 C   0  0  0  0  0  0  0  0  0  0  0  0
  -26.4867  -18.7411   22.1431 C   0  0  0  0  0  0  0  0  0  0  0  0
  -25.9079  -21.0493   21.2779 C   0  0  0  0  0  0  0  0  0  0  0  0
  -27.4674  -19.6392   19.9940 C   0  0  0  0  0  0  0  0  0  0  0  0
  -23.6861  -26.7575   25.5747 C   0  0  1  0  0  0  0  0  0  0  0  0
  -25.0364  -30.3034   25.3836 C   0  0  1  0  0  0  0  0  0  0  0  0
  -27.7135  -18.7312   21.2100 C   0  0  2  0  0  0  0  0  0  0  0  0
  -24.5747  -37.4887   22.5270 C   0  0  0  0  0  0  0  0  0  0  0  0
  -22.2034  -31.3380   21.8817 C   0  0  0  0  0  0  0  0  0  0  0  0
  -22.4133  -33.6623   20.9751 C   0  0  0  0  0  0  0  0  0  0  0  0
  -21.3100  -33.2802   23.1795 C   0  0  0  0  0  0  0  0  0  0  0  0
  -27.3796  -36.0732   24.6729 C   0  0  0  0  0  0  0  0  0  0  0  0
  -29.7894  -29.2092   20.4510 C   0  0  0  0  0  0  0  0  0  1  0  0
  -23.8177  -33.0225   22.9874 C   0  0  1  0  0  0  0  0  0  0  0  0
  -25.2222  -36.5072   23.4914 C   0  0  2  0  0  0  0  0  0  0  0  0
  -22.4593  -32.8102   22.2614 C   0  0  0  0  0  0  0  0  0  0  0  0
  -27.1293  -16.3981   20.6656 N   0  0  0  0  0  0  0  0  0  0  0  0
  -30.3115  -27.2366   19.1431 N   0  0  0  0  0  0  0  0  0  0  0  0
  -28.0963  -17.3217   20.7995 N   0  0  0  0  0  0  0  0  0  0  0  0
  -24.9887  -31.2715   24.2860 N   0  0  0  0  0  0  0  0  0  0  0  0
  -27.1103  -20.9938   20.4437 N   0  0  0  0  0  0  0  0  0  0  0  0
  -30.4361  -17.6457   20.6236 N   0  0  0  0  0  0  0  0  0  0  0  0
  -29.9033  -13.2923   19.5465 N   0  0  0  0  0  0  0  0  0  0  0  0
  -28.9500  -22.0044   19.3681 N   0  0  0  0  0  0  0  0  0  0  0  0
  -24.2852  -28.0481   25.8389 N   0  0  0  0  0  0  0  0  0  0  0  0
  -24.0745  -34.4031   23.3829 N   0  0  0  0  0  0  0  0  0  0  0  0
  -26.6300  -36.9369   23.7247 N   0  3  0  0  0  0  0  0  0  0  0  0
  -32.2118  -26.8781   17.8529 O   0  0  0  0  0  0  0  0  0  0  0  0
  -31.4462  -14.9651   19.8291 O   0  0  0  0  0  0  0  0  0  0  0  0
  -23.9848  -28.9872   23.7293 O   0  0  0  0  0  0  0  0  0  0  0  0
  -23.1234  -32.3652   25.1582 O   0  0  0  0  0  0  0  0  0  0  0  0
  -26.0557  -34.6418   22.2019 O   0  0  0  0  0  0  0  0  0  0  0  0
  -27.4247  -23.2810   20.5621 O   0  0  0  0  0  0  0  0  0  0  0  0
  -25.0785  -10.5139   19.3544 O   0  0  0  0  0  0  0  0  0  0  0  0
  -30.2795  -29.3183   21.7868 O   0  0  0  0  0  0  0  0  0  1  0  0
  -21.2054   -9.0111   22.9800 F   0  0  0  0  0  0  0  0  0  0  0  0
  -25.2790   -8.1283   20.7370 F   0  0  0  0  0  0  0  0  0  0  0  0
  -31.1787  -22.4882   17.9718 S   0  0  0  0  0  0  0  0  0  0  0  0
  1  2  1  0  0  0  0
  1  5  2  0  0  0  0
  2  6  2  0  0  0  0
  3  8  2  0  0  0  0
  3 17  1  0  0  0  0
  4  9  1  0  0  0  0
  4 17  2  0  0  0  0
  5 20  1  0  0  0  0
  6 22  1  0  0  0  0
  7 10  2  0  0  0  0
  7 21  1  0  0  0  0
  8 24  1  0  0  0  0
  9 24  2  0  0  0  0
 10 25  1  0  0  0  0
 11 12  2  0  0  0  0
 11 26  1  0  0  0  0
 12 27  1  0  0  0  0
 13 18  1  0  0  0  0
 13 31  2  0  0  0  0
 14 23  1  0  0  0  0
 14 25  2  0  0  0  0
 15 27  2  0  0  0  0
 15 28  1  0  0  0  0
 16 18  2  0  0  0  0
 16 81  1  0  0  0  0
 17 29  1  0  0  0  0
 18 33  1  0  0  0  0
 19 29  1  0  0  0  0
 19 30  2  0  0  0  0
 19 34  1  0  0  0  0
 20 22  2  0  0  0  0
 20 39  1  0  0  0  0
 21 23  2  0  0  0  0
 21 40  1  0  0  0  0
 22 48  1  0  0  0  0
 23 41  1  0  0  0  0
 24 77  1  0  0  0  0
 25 78  1  0  0  0  0
 26 28  2  0  0  0  0
 26 77  1  0  0  0  0
 27 79  1  0  0  0  0
 28 80  1  0  0  0  0
 29 60  2  0  0  0  0
 30 62  1  0  0  0  0
 30 65  1  0  0  0  0
 31 67  1  0  0  0  0
 31 81  1  0  0  0  0
 32 56  1  0  0  0  0
 32 61  2  0  0  0  0
 33 61  1  0  0  0  0
 33 71  2  0  0  0  0
 34 66  1  0  0  0  0
 34 72  2  0  0  0  0
 35 49  1  0  0  0  0
 35 68  1  0  0  0  0
 35 73  2  0  0  0  0
 36 57  1  0  0  0  0
 36 63  1  0  0  0  0
 36 74  2  0  0  0  0
 37 58  1  0  0  0  0
 37 69  1  0  0  0  0
 37 75  2  0  0  0  0
 38 64  1  0  0  0  0
 38 67  1  0  0  0  0
 38 76  2  0  0  0  0
 39 42  1  0  0  0  0
 40 49  1  0  0  0  0
 41 63  1  0  0  0  0
 42 44  1  0  0  0  0
 43 45  1  0  0  0  0
 43 46  1  0  0  0  0
 44 48  1  0  0  0  0
 45 50  1  0  0  0  0
 46 64  1  0  0  0  0
 47 50  1  0  0  0  0
 47 64  1  0  0  0  0
 48 68  1  0  0  0  0
 49 63  1  0  0  0  0
 50 62  1  0  0  0  0
 51 58  1  0  0  0  0
 52 59  1  0  0  0  0
 53 59  1  0  0  0  0
 54 59  1  0  0  0  0
 55 70  1  0  0  0  0
 56 78  1  0  0  0  0
 57 59  1  0  0  0  0
 57 69  1  0  0  0  0
 58 70  1  0  0  0  0
 60 62  1  0  0  0  0
M  CHG  1  70   1
M  ISO  4  38 100  56 101  67 100  78 101
M  END
> <Batch ID>
0079

> <Smiles>
CNC(C)C(=O)NC(C(=O)N1Cc2cc([101O:1][101CH:1]=CNC(=O)c3csc([100NH:0][100C:0](=O)N4CCCC(n5nc(-c6ccc(Oc7ccc(F)cc7F)cc6)c(C(N)=O)c5N)C4)c3)ccc2CC1C(=O)NC1CCCc2ccccc21)C(C)(C)C

> <Shape>
0.265

> <Color>
0.104

> <Negative vol penalty>
0.000

$$$$

  -OEChem-04042323593D

 87 96  0     1  0  0  0  0  0999 V2000
  -28.1267  -24.1625   17.5931 C   0  0  0  0  0  0  0  0  0  0  0  0
  -26.9077  -24.4796   18.1837 C   0  0  0  0  0  0  0  0  0  0  0  0
  -27.4858  -19.1970   22.6986 C   0  0  0  0  0  0  0  0  0  0  0  0
  -26.4638  -21.1716   21.7534 C   0  0  0  0  0  0  0  0  0  0  0  0
  -29.3137  -24.6402   18.1470 C   0  0  0  0  0  0  0  0  0  0  0  0
  -26.8751  -25.2739   19.3294 C   0  0  0  0  0  0  0  0  0  0  0  0
  -23.3065  -28.8600   19.1060 C   0  0  0  0  0  0  0  0  0  0  0  0
  -28.4562  -19.2197   21.6969 C   0  0  0  0  0  0  0  0  0  0  0  0
  -27.4342  -21.1944   20.7517 C   0  0  0  0  0  0  0  0  0  0  0  0
  -21.9917  -28.4660   19.3505 C   0  0  0  0  0  0  0  0  0  0  0  0
  -30.9921  -18.5495   19.1783 C   0  0  0  0  0  0  0  0  0  0  0  0
  -31.3076  -17.3441   18.5514 C   0  0  0  0  0  0  0  0  0  0  0  0
  -16.2533  -23.3356   23.4180 C   0  0  0  0  0  0  0  0  0  0  0  0
  -16.9465  -21.0637   23.8591 C   0  0  0  0  0  0  0  0  0  0  0  0
  -22.1672  -29.3015   21.6067 C   0  0  0  0  0  0  0  0  0  0  0  0
  -18.3531  -22.5218   22.5429 C   0  0  0  0  0  0  0  0  0  0  0  0
  -29.0167  -17.1272   17.8154 C   0  0  0  0  0  0  0  0  0  0  0  0
  -26.4895  -20.1729   22.7268 C   0  0  0  0  0  0  0  0  0  0  0  0
  -16.0155  -22.0923   24.0037 C   0  0  0  0  0  0  0  0  0  0  0  0
  -25.5459  -20.7820   25.0173 C   0  0  0  0  0  0  0  0  0  0  0  0
  -29.2950  -25.4487   19.2944 C   0  0  0  0  0  0  0  0  0  0  0  0
  -24.0664  -29.4689   20.1151 C   0  0  0  0  0  0  0  0  0  0  0  0
  -28.0630  -25.7618   19.8999 C   0  0  0  0  0  0  0  0  0  0  0  0
  -23.4906  -29.7046   21.3717 C   0  0  0  0  0  0  0  0  0  0  0  0
  -17.4221  -23.5504   22.6875 C   0  0  0  0  0  0  0  0  0  0  0  0
  -18.1154  -21.2785   23.1287 C   0  0  0  0  0  0  0  0  0  0  0  0
  -28.4304  -20.2184   20.7235 C   0  0  0  0  0  0  0  0  0  0  0  0
  -21.4228  -28.6841   20.6018 C   0  0  0  0  0  0  0  0  0  0  0  0
  -29.6888  -19.0438   19.1238 C   0  0  0  0  0  0  0  0  0  0  0  0
  -30.3199  -16.6329   17.8700 C   0  0  0  0  0  0  0  0  0  0  0  0
  -28.7011  -18.3326   18.4424 C   0  0  0  0  0  0  0  0  0  0  0  0
  -25.4865  -20.1496   23.7610 C   0  0  0  0  0  0  0  0  0  0  0  0
  -24.3564  -20.4568   25.6220 C   0  0  0  0  0  0  0  0  0  0  0  0
  -18.7471  -25.1587   21.3622 C   0  0  0  0  0  0  0  0  0  0  0  0
  -18.6638  -26.4298   20.9461 C   0  0  0  0  0  0  0  0  0  0  0  0
  -17.4148  -26.9897   21.4399 C   0  0  0  0  0  0  0  0  0  0  0  0
  -16.9448  -28.2269   21.2519 C   0  0  0  0  0  0  0  0  0  0  0  0
  -26.5836  -21.5911   25.5867 C   0  0  0  0  0  0  0  0  0  0  0  0
  -14.7824  -21.8659   24.7748 C   0  0  0  0  0  0  0  0  0  0  0  0
  -26.7471  -28.7340   21.6570 C   0  0  0  0  0  0  0  0  0  0  0  0
  -26.3610  -31.6896   22.9367 C   0  0  0  0  0  0  0  0  0  0  0  0
  -24.2471  -34.2463   23.7379 C   0  0  0  0  0  0  0  0  0  0  0  0
  -18.9793  -18.9416   23.5015 C   0  0  0  0  0  0  0  0  0  0  0  0
  -30.6068  -25.9025   19.8841 C   0  0  0  0  0  0  0  0  0  0  0  0
  -25.4746  -29.9123   19.8272 C   0  0  0  0  0  0  0  0  0  0  0  0
  -24.2573  -30.3729   22.4826 C   0  0  0  0  0  0  0  0  0  0  0  0
  -16.7111  -25.8987   22.2302 C   0  0  0  0  0  0  0  0  0  0  0  0
  -30.4619  -27.0480   20.8828 C   0  0  0  0  0  0  0  0  0  0  0  0
  -21.0143  -17.0280   25.7092 C   0  0  0  0  0  0  0  0  0  0  0  0
  -29.3268  -26.7628   21.8611 C   0  0  0  0  0  0  0  0  0  0  0  0
  -22.3961  -17.6727   25.5791 C   0  0  0  0  0  0  0  0  0  0  0  0
  -20.2705  -17.0065   24.3750 C   0  0  0  0  0  0  0  0  0  0  0  0
  -21.5504  -18.9514   23.5699 C   0  0  0  0  0  0  0  0  0  0  0  0
  -27.9849  -26.6412   21.1290 C   0  0  1  0  0  0  0  0  0  0  0  0
  -26.3243  -30.0579   21.0858 C   0  0  1  0  0  0  0  0  0  0  0  0
  -22.3117  -19.0546   24.9016 C   0  0  2  0  0  0  0  0  0  0  0  0
  -24.2172  -36.5151   24.8097 C   0  0  0  0  0  0  0  0  0  0  0  0
  -26.5793  -30.3899   25.6886 C   0  0  0  0  0  0  0  0  0  0  0  0
  -25.6120  -32.4780   26.6746 C   0  0  0  0  0  0  0  0  0  0  0  0
  -27.7911  -32.5660   25.4635 C   0  0  0  0  0  0  0  0  0  0  0  0
  -23.2800  -35.5342   21.2550 C   0  0  0  0  0  0  0  0  0  0  0  0
  -19.6538  -27.1687   20.1217 C   0  0  0  0  0  0  0  0  0  1  0  0
  -25.6549  -32.2455   24.1497 C   0  0  1  0  0  0  0  0  0  0  0  0
  -24.3434  -35.7433   23.5054 C   0  0  2  0  0  0  0  0  0  0  0  0
  -26.3952  -31.9055   25.4740 C   0  0  0  0  0  0  0  0  0  0  0  0
  -24.3492  -19.4737   23.5772 N   0  0  0  0  0  0  0  0  0  0  0  0
  -23.6831  -19.6794   24.7262 N   0  0  0  0  0  0  0  0  0  0  0  0
  -17.6564  -24.7733   22.1113 N   0  0  0  0  0  0  0  0  0  0  0  0
  -25.6327  -30.7825   22.1540 N   0  0  0  0  0  0  0  0  0  0  0  0
  -20.2264  -18.3502   23.7944 N   0  0  0  0  0  0  0  0  0  0  0  0
  -23.8311  -20.7628   26.8274 N   0  0  0  0  0  0  0  0  0  0  0  0
  -27.7393  -21.8258   24.8294 N   0  0  0  0  0  0  0  0  0  0  0  0
  -19.0613  -20.2336   22.9833 N   0  0  0  0  0  0  0  0  0  0  0  0
  -27.4774  -27.9516   20.7830 N   0  0  0  0  0  0  0  0  0  0  0  0
  -25.4905  -33.6747   23.9070 N   0  0  0  0  0  0  0  0  0  0  0  0
  -23.2616  -36.1952   22.5853 N   0  3  0  0  0  0  0  0  0  0  0  0
  -14.5868  -20.7087   25.3052 O   0  5  0  0  0  0  0  0  0  0  0  0
  -26.4958  -22.0775   26.7396 O   0  0  0  0  0  0  0  0  0  0  0  0
  -13.9394  -22.8323   24.8935 O   0  0  0  0  0  0  0  0  0  0  0  0
  -26.4352  -28.4444   22.8062 O   0  0  0  0  0  0  0  0  0  0  0  0
  -27.5135  -32.0525   22.6886 O   0  0  0  0  0  0  0  0  0  0  0  0
  -23.1758  -33.6447   23.7703 O   0  0  0  0  0  0  0  0  0  0  0  0
  -17.9159  -18.3562   23.7216 O   0  0  0  0  0  0  0  0  0  0  0  0
  -29.3773  -20.2411   19.7460 O   0  0  0  0  0  0  0  0  0  0  0  0
  -20.1398  -28.2999   20.8433 O   0  0  0  0  0  0  0  0  0  1  0  0
  -30.6234  -15.4762   17.2667 F   0  0  0  0  0  0  0  0  0  0  0  0
  -27.4476  -18.8030   18.3856 F   0  0  0  0  0  0  0  0  0  0  0  0
  1  2  1  0  0  0  0
  1  5  2  0  0  0  0
  2  6  2  0  0  0  0
  3  8  2  0  0  0  0
  3 18  1  0  0  0  0
  4  9  1  0  0  0  0
  4 18  2  0  0  0  0
  5 21  1  0  0  0  0
  6 23  1  0  0  0  0
  7 10  2  0  0  0  0
  7 22  1  0  0  0  0
  8 27  1  0  0  0  0
  9 27  2  0  0  0  0
 10 28  1  0  0  0  0
 11 12  2  0  0  0  0
 11 29  1  0  0  0  0
 12 30  1  0  0  0  0
 13 19  1  0  0  0  0
 13 25  2  0  0  0  0
 14 19  2  0  0  0  0
 14 26  1  0  0  0  0
 15 24  1  0  0  0  0
 15 28  2  0  0  0  0
 16 25  1  0  0  0  0
 16 26  2  0  0  0  0
 17 30  2  0  0  0  0
 17 31  1  0  0  0  0
 18 32  1  0  0  0  0
 19 39  1  0  0  0  0
 20 32  1  0  0  0  0
 20 33  2  0  0  0  0
 20 38  1  0  0  0  0
 21 23  2  0  0  0  0
 21 44  1  0  0  0  0
 22 24  2  0  0  0  0
 22 45  1  0  0  0  0
 23 54  1  0  0  0  0
 24 46  1  0  0  0  0
 25 68  1  0  0  0  0
 26 73  1  0  0  0  0
 27 84  1  0  0  0  0
 28 85  1  0  0  0  0
 29 31  2  0  0  0  0
 29 84  1  0  0  0  0
 30 86  1  0  0  0  0
 31 87  1  0  0  0  0
 32 66  2  0  0  0  0
 33 67  1  0  0  0  0
 33 71  1  0  0  0  0
 34 35  2  0  0  0  0
 34 68  1  0  0  0  0
 35 36  1  0  0  0  0
 35 62  1  0  0  0  0
 36 37  2  0  0  0  0
 36 47  1  0  0  0  0
 38 72  1  0  0  0  0
 38 78  2  0  0  0  0
 39 77  1  0  0  0  0
 39 79  2  0  0  0  0
 40 55  1  0  0  0  0
 40 74  1  0  0  0  0
 40 80  2  0  0  0  0
 41 63  1  0  0  0  0
 41 69  1  0  0  0  0
 41 81  2  0  0  0  0
 42 64  1  0  0  0  0
 42 75  1  0  0  0  0
 42 82  2  0  0  0  0
 43 70  1  0  0  0  0
 43 73  1  0  0  0  0
 43 83  2  0  0  0  0
 44 48  1  0  0  0  0
 45 55  1  0  0  0  0
 46 69  1  0  0  0  0
 47 68  1  0  0  0  0
 48 50  1  0  0  0  0
 49 51  1  0  0  0  0
 49 52  1  0  0  0  0
 50 54  1  0  0  0  0
 51 56  1  0  0  0  0
 52 70  1  0  0  0  0
 53 56  1  0  0  0  0
 53 70  1  0  0  0  0
 54 74  1  0  0  0  0
 55 69  1  0  0  0  0
 56 67  1  0  0  0  0
 57 64  1  0  0  0  0
 58 65  1  0  0  0  0
 59 65  1  0  0  0  0
 60 65  1  0  0  0  0
 61 76  1  0  0  0  0
 62 85  1  0  0  0  0
 63 65  1  0  0  0  0
 63 75  1  0  0  0  0
 64 76  1  0  0  0  0
 66 67  1  0  0  0  0
M  CHG  2  76   1  77  -1
M  ISO  4  43 100  62 101  73 100  85 101
M  END
> <Batch ID>
0079

> <Smiles>
C=C1CN(c2cc([100NH:0][100C:0](=O)N3CCCC(n4nc(-c5ccc(Oc6ccc(F)cc6F)cc5)c(C(N)=O)c4N)C3)cc(C(=O)O)c2)C=C1[101CH2:1][101O:1]c1ccc2c(c1)CN(C(=O)C(NC(=O)C(C)NC)C(C)(C)C)C(C(=O)NC1CCCc3ccccc31)C2

> <Shape>
0.237

> <Color>
0.065

> <Negative vol penalty>
0.000

$$$$

  -OEChem-04042323593D

 85 94  0     1  0  0  0  0  0999 V2000
  -26.7604  -34.5056   24.8195 C   0  0  0  0  0  0  0  0  0  0  0  0
  -27.1677  -33.2736   24.3177 C   0  0  0  0  0  0  0  0  0  0  0  0
  -24.8073   -8.6920   21.2716 C   0  0  0  0  0  0  0  0  0  0  0  0
  -23.1963  -10.4567   20.9145 C   0  0  0  0  0  0  0  0  0  0  0  0
  -25.4624  -34.6656   25.3026 C   0  0  0  0  0  0  0  0  0  0  0  0
  -26.2774  -32.2005   24.2998 C   0  0  0  0  0  0  0  0  0  0  0  0
  -26.3718  -29.6710   19.9137 C   0  0  0  0  0  0  0  0  0  0  0  0
  -28.5246  -20.8616   21.6500 C   0  0  0  0  0  0  0  0  0  0  0  0
  -28.5549  -19.5522   22.1297 C   0  0  0  0  0  0  0  0  0  0  0  0
  -23.7686   -7.7702   21.4019 C   0  0  0  0  0  0  0  0  0  0  0  0
  -22.1576   -9.5349   21.0448 C   0  0  0  0  0  0  0  0  0  0  0  0
  -27.4305  -28.7867   19.7113 C   0  0  0  0  0  0  0  0  0  0  0  0
  -21.5290   -5.0147   22.1862 C   0  0  0  0  0  0  0  0  0  0  0  0
  -21.6017   -4.0974   23.2345 C   0  0  0  0  0  0  0  0  0  0  0  0
  -25.9984  -26.9428   20.3185 C   0  0  0  0  0  0  0  0  0  0  0  0
  -28.2522  -20.0303   19.3980 C   0  0  0  0  0  0  0  0  0  0  0  0
  -21.6224   -5.9163   24.8246 C   0  0  0  0  0  0  0  0  0  0  0  0
  -24.5211  -10.0353   21.0279 C   0  0  0  0  0  0  0  0  0  0  0  0
  -26.2598  -11.3571   19.7098 C   0  0  0  0  0  0  0  0  0  0  0  0
  -24.5528  -33.5966   25.2817 C   0  0  0  0  0  0  0  0  0  0  0  0
  -25.1194  -29.1983   20.3312 C   0  0  0  0  0  0  0  0  0  0  0  0
  -24.9664  -32.3460   24.7843 C   0  0  0  0  0  0  0  0  0  0  0  0
  -24.9248  -27.8229   20.5230 C   0  0  0  0  0  0  0  0  0  0  0  0
  -28.3732  -21.1007   20.2841 C   0  0  0  0  0  0  0  0  0  0  0  0
  -28.4339  -18.4818   21.2436 C   0  0  0  0  0  0  0  0  0  0  0  0
  -28.2825  -18.7208   19.8777 C   0  0  0  0  0  0  0  0  0  0  0  0
  -22.4438   -8.1916   21.2885 C   0  0  0  0  0  0  0  0  0  0  0  0
  -27.2447  -27.4227   19.9165 C   0  0  0  0  0  0  0  0  0  0  0  0
  -21.5030   -6.3828   22.4571 C   0  0  0  0  0  0  0  0  0  0  0  0
  -21.6483   -4.5482   24.5537 C   0  0  0  0  0  0  0  0  0  0  0  0
  -21.5497   -6.8336   23.7763 C   0  0  0  0  0  0  0  0  0  0  0  0
  -25.5936  -10.9882   20.8938 C   0  0  0  0  0  0  0  0  0  0  0  0
  -27.1872  -12.2865   20.1130 C   0  0  0  0  0  0  0  0  0  0  0  0
  -28.2047  -24.2766   19.1536 C   0  0  0  0  0  0  0  0  0  0  0  0
  -28.4358  -23.5961   20.4284 C   0  0  0  0  0  0  0  0  0  0  0  0
  -26.0583  -10.9006   18.3657 C   0  0  0  0  0  0  0  0  0  0  0  0
  -28.1235  -25.5759   18.7818 C   0  0  0  0  0  0  0  0  0  1  0  0
  -23.2890  -29.6534   22.8898 C   0  0  0  0  0  0  0  0  0  0  0  0
  -21.1610  -27.8816   21.2003 C   0  0  0  0  0  0  0  0  0  0  0  0
  -20.6156  -25.5627   18.7564 C   0  0  0  0  0  0  0  0  0  0  0  0
  -28.6116  -16.7734   23.0864 C   0  0  0  0  0  0  0  0  0  0  0  0
  -23.1748  -33.8046   25.8584 C   0  0  0  0  0  0  0  0  0  0  0  0
  -23.9802  -30.1623   20.5193 C   0  0  0  0  0  0  0  0  0  0  0  0
  -23.5941  -27.2625   20.9516 C   0  0  0  0  0  0  0  0  0  0  0  0
  -28.1019  -22.9260   18.4826 C   0  0  0  0  0  0  0  0  0  0  0  0
  -22.1771  -32.7206   25.4585 C   0  0  0  0  0  0  0  0  0  0  0  0
  -28.7043  -13.6279   24.7520 C   0  0  0  0  0  0  0  0  0  0  0  0
  -22.7955  -31.3366   25.6294 C   0  0  0  0  0  0  0  0  0  0  0  0
  -27.9581  -12.6911   23.7993 C   0  0  0  0  0  0  0  0  0  0  0  0
  -28.0870  -15.0251   24.7727 C   0  0  0  0  0  0  0  0  0  0  0  0
  -27.1822  -14.7165   22.5021 C   0  0  0  0  0  0  0  0  0  0  0  0
  -24.0221  -31.1650   24.7252 C   0  0  1  0  0  0  0  0  0  0  0  0
  -22.8897  -29.6260   21.4415 C   0  0  1  0  0  0  0  0  0  0  0  0
  -27.8070  -13.3156   22.3984 C   0  0  2  0  0  0  0  0  0  0  0  0
  -27.8734  -26.0406   17.3822 C   0  0  0  0  0  0  0  0  0  0  0  0
  -18.7734  -24.2855   17.6285 C   0  0  0  0  0  0  0  0  0  0  0  0
  -20.9447  -26.0510   23.6318 C   0  0  0  0  0  0  0  0  0  0  0  0
  -19.8788  -24.3323   22.1559 C   0  0  0  0  0  0  0  0  0  0  0  0
  -18.7701  -26.5406   22.4978 C   0  0  0  0  0  0  0  0  0  0  0  0
  -21.2503  -26.7483   16.1200 C   0  0  0  0  0  0  0  0  0  0  0  0
  -20.8566  -26.4082   21.0762 C   0  0  1  0  0  0  0  0  0  0  0  0
  -19.6398  -25.5349   17.5939 C   0  0  2  0  0  0  0  0  0  0  0  0
  -20.1383  -25.8435   22.3342 C   0  0  0  0  0  0  0  0  0  0  0  0
  -26.0583  -11.6306   21.9686 N   0  0  0  0  0  0  0  0  0  0  0  0
  -27.0266  -12.4126   21.4615 N   0  0  0  0  0  0  0  0  0  0  0  0
  -28.3431  -22.3921   19.8114 N   0  0  0  0  0  0  0  0  0  0  0  0
  -22.5130  -28.2460   21.1286 N   0  0  0  0  0  0  0  0  0  0  0  0
  -27.9791  -15.5548   23.4115 N   0  0  0  0  0  0  0  0  0  0  0  0
  -28.1579  -17.6514   18.9625 N   0  0  0  0  0  0  0  0  0  0  0  0
  -28.1163  -12.9999   19.4421 N   0  0  0  0  0  0  0  0  0  0  0  0
  -25.0631   -9.9428   18.1275 N   0  0  0  0  0  0  0  0  0  0  0  0
  -28.4672  -17.1606   21.7546 N   0  0  0  0  0  0  0  0  0  0  0  0
  -23.6124  -30.9117   23.3604 N   0  0  0  0  0  0  0  0  0  0  0  0
  -20.1037  -26.2498   19.8367 N   0  0  0  0  0  0  0  0  0  0  0  0
  -20.3763  -25.5604   16.2986 N   0  3  0  0  0  0  0  0  0  0  0  0
  -28.6208  -23.9540   21.5730 O   0  0  0  0  0  0  0  0  0  0  0  0
  -26.7515  -11.3171   17.4068 O   0  0  0  0  0  0  0  0  0  0  0  0
  -23.3012  -28.6105   23.5330 O   0  0  0  0  0  0  0  0  0  0  0  0
  -20.2328  -28.6805   21.3479 O   0  0  0  0  0  0  0  0  0  0  0  0
  -21.7201  -25.0253   18.7120 O   0  0  0  0  0  0  0  0  0  0  0  0
  -29.2583  -17.4118   23.9209 O   0  0  0  0  0  0  0  0  0  0  0  0
  -21.4300   -7.2923   21.4154 O   0  0  0  0  0  0  0  0  0  0  0  0
  -28.2765  -26.5574   19.7204 O   0  0  0  0  0  0  0  0  0  1  0  0
  -21.7166   -3.6671   25.5603 F   0  0  0  0  0  0  0  0  0  0  0  0
  -21.5239   -8.1466   24.0429 F   0  0  0  0  0  0  0  0  0  0  0  0
  1  2  1  0  0  0  0
  1  5  2  0  0  0  0
  2  6  2  0  0  0  0
  3 10  2  0  0  0  0
  3 18  1  0  0  0  0
  4 11  1  0  0  0  0
  4 18  2  0  0  0  0
  5 20  1  0  0  0  0
  6 22  1  0  0  0  0
  7 12  2  0  0  0  0
  7 21  1  0  0  0  0
  8  9  2  0  0  0  0
  8 24  1  0  0  0  0
  9 25  1  0  0  0  0
 10 27  1  0  0  0  0
 11 27  2  0  0  0  0
 12 28  1  0  0  0  0
 13 14  2  0  0  0  0
 13 29  1  0  0  0  0
 14 30  1  0  0  0  0
 15 23  1  0  0  0  0
 15 28  2  0  0  0  0
 16 24  2  0  0  0  0
 16 26  1  0  0  0  0
 17 30  2  0  0  0  0
 17 31  1  0  0  0  0
 18 32  1  0  0  0  0
 19 32  1  0  0  0  0
 19 33  2  0  0  0  0
 19 36  1  0  0  0  0
 20 22  2  0  0  0  0
 20 42  1  0  0  0  0
 21 23  2  0  0  0  0
 21 43  1  0  0  0  0
 22 52  1  0  0  0  0
 23 44  1  0  0  0  0
 24 66  1  0  0  0  0
 25 26  2  0  0  0  0
 25 72  1  0  0  0  0
 26 69  1  0  0  0  0
 27 82  1  0  0  0  0
 28 83  1  0  0  0  0
 29 31  2  0  0  0  0
 29 82  1  0  0  0  0
 30 84  1  0  0  0  0
 31 85  1  0  0  0  0
 32 64  2  0  0  0  0
 33 65  1  0  0  0  0
 33 70  1  0  0  0  0
 34 35  1  0  0  0  0
 34 37  2  0  0  0  0
 34 45  1  0  0  0  0
 35 66  1  0  0  0  0
 35 76  2  0  0  0  0
 36 71  1  0  0  0  0
 36 77  2  0  0  0  0
 37 55  1  0  0  0  0
 37 83  1  0  0  0  0
 38 53  1  0  0  0  0
 38 73  1  0  0  0  0
 38 78  2  0  0  0  0
 39 61  1  0  0  0  0
 39 67  1  0  0  0  0
 39 79  2  0  0  0  0
 40 62  1  0  0  0  0
 40 74  1  0  0  0  0
 40 80  2  0  0  0  0
 41 68  1  0  0  0  0
 41 72  1  0  0  0  0
 41 81  2  0  0  0  0
 42 46  1  0  0  0  0
 43 53  1  0  0  0  0
 44 67  1  0  0  0  0
 45 66  1  0  0  0  0
 46 48  1  0  0  0  0
 47 49  1  0  0  0  0
 47 50  1  0  0  0  0
 48 52  1  0  0  0  0
 49 54  1  0  0  0  0
 50 68  1  0  0  0  0
 51 54  1  0  0  0  0
 51 68  1  0  0  0  0
 52 73  1  0  0  0  0
 53 67  1  0  0  0  0
 54 65  1  0  0  0  0
 56 62  1  0  0  0  0
 57 63  1  0  0  0  0
 58 63  1  0  0  0  0
 59 63  1  0  0  0  0
 60 75  1  0  0  0  0
 61 63  1  0  0  0  0
 61 74  1  0  0  0  0
 62 75  1  0  0  0  0
 64 65  1  0  0  0  0
M  CHG  1  75   1
M  ISO  4  37 101  41 100  72 100  83 101
M  END
> <Batch ID>
0079

> <Smiles>
CNC(C)C(=O)NC(C(=O)N1Cc2cc([101O:1][101C:1](C)=C3CN(c4ccc([100NH:0][100C:0](=O)N5CCCC(n6nc(-c7ccc(Oc8ccc(F)cc8F)cc7)c(C(N)=O)c6N)C5)c(N)c4)C3=O)ccc2CC1C(=O)NC1CCCc2ccccc21)C(C)(C)C

> <Shape>
0.325

> <Color>
0.109

> <Negative vol penalty>
0.000

$$$$

  -OEChem-04042323593D

 87 96  0     1  0  0  0  0  0999 V2000
  -27.4633  -33.9050   26.0637 C   0  0  0  0  0  0  0  0  0  0  0  0
  -27.7359  -32.7039   25.4167 C   0  0  0  0  0  0  0  0  0  0  0  0
  -31.9830  -20.6590   17.2418 C   0  0  0  0  0  0  0  0  0  0  0  0
  -26.0126  -14.5668   22.0574 C   0  0  0  0  0  0  0  0  0  0  0  0
  -27.1789  -14.5906   19.9418 C   0  0  0  0  0  0  0  0  0  0  0  0
  -30.7447  -20.3771   16.6649 C   0  0  0  0  0  0  0  0  0  0  0  0
  -26.1506  -34.2310   26.4021 C   0  0  0  0  0  0  0  0  0  0  0  0
  -26.6959  -31.8275   25.1088 C   0  0  0  0  0  0  0  0  0  0  0  0
  -27.0407  -29.9795   20.4066 C   0  0  0  0  0  0  0  0  0  0  0  0
  -32.0910  -21.6605   18.2068 C   0  0  0  0  0  0  0  0  0  0  0  0
  -25.7248  -13.2131   21.8836 C   0  0  0  0  0  0  0  0  0  0  0  0
  -26.8912  -13.2368   19.7679 C   0  0  0  0  0  0  0  0  0  0  0  0
  -27.9596  -28.9532   20.1916 C   0  0  0  0  0  0  0  0  0  0  0  0
  -23.5191  -11.3403   20.1366 C   0  0  0  0  0  0  0  0  0  0  0  0
  -22.2199  -10.9141   20.4125 C   0  0  0  0  0  0  0  0  0  0  0  0
  -29.7226  -22.0983   18.0177 C   0  0  0  0  0  0  0  0  0  0  0  0
  -26.1712  -27.3378   20.2985 C   0  0  0  0  0  0  0  0  0  0  0  0
  -23.0716   -9.4119   22.1023 C   0  0  0  0  0  0  0  0  0  0  0  0
  -26.7396  -15.2556   21.0865 C   0  0  0  0  0  0  0  0  0  0  0  0
  -29.6145  -21.0967   17.0528 C   0  0  0  0  0  0  0  0  0  0  0  0
  -27.7682  -17.2403   22.3155 C   0  0  0  0  0  0  0  0  0  0  0  0
  -25.0929  -33.3625   26.0895 C   0  0  0  0  0  0  0  0  0  0  0  0
  -25.6794  -29.6912   20.5803 C   0  0  0  0  0  0  0  0  0  0  0  0
  -25.3680  -32.1415   25.4445 C   0  0  0  0  0  0  0  0  0  0  0  0
  -25.2367  -28.3624   20.5130 C   0  0  0  0  0  0  0  0  0  0  0  0
  -30.9609  -22.3801   18.5946 C   0  0  0  0  0  0  0  0  0  0  0  0
  -26.1641  -12.5481   20.7389 C   0  0  0  0  0  0  0  0  0  0  0  0
  -27.5253  -27.6319   20.1404 C   0  0  0  0  0  0  0  0  0  0  0  0
  -24.5945  -10.8023   20.8435 C   0  0  0  0  0  0  0  0  0  0  0  0
  -21.9961   -9.9499   21.3953 C   0  0  0  0  0  0  0  0  0  0  0  0
  -24.3707   -9.8382   21.8264 C   0  0  0  0  0  0  0  0  0  0  0  0
  -27.0367  -16.6541   21.2652 C   0  0  0  0  0  0  0  0  0  0  0  0
  -27.7673  -18.5832   22.0269 C   0  0  0  0  0  0  0  0  0  0  0  0
  -30.3725  -25.5143   20.7289 C   0  0  0  0  0  0  0  0  0  0  0  0
  -31.4582  -25.3639   21.6836 C   0  0  0  0  0  0  0  0  0  0  0  0
  -30.2145  -24.5369   19.5847 C   0  0  0  0  0  0  0  0  0  0  0  0
  -32.0732  -26.3837   22.3039 C   0  0  0  0  0  0  0  0  0  0  0  0
  -29.4331  -26.4707   20.8351 C   0  0  0  0  0  0  0  0  0  1  0  0
  -28.3242  -20.8017   16.4505 C   0  0  0  0  0  0  0  0  0  0  0  0
  -28.3928  -16.6260   23.4505 C   0  0  0  0  0  0  0  0  0  0  0  0
  -27.1039  -21.5458   16.8385 C   0  0  0  0  0  0  0  0  0  0  0  0
  -23.5813  -30.1049   22.9321 C   0  0  0  0  0  0  0  0  0  0  0  0
  -21.4741  -29.0172   20.7187 C   0  0  0  0  0  0  0  0  0  0  0  0
  -20.9352  -27.2136   17.8720 C   0  0  0  0  0  0  0  0  0  0  0  0
  -23.6959  -33.7365   26.5176 C   0  0  0  0  0  0  0  0  0  0  0  0
  -24.6972  -30.8119   20.7847 C   0  0  0  0  0  0  0  0  0  0  0  0
  -23.7832  -28.0017   20.6732 C   0  0  0  0  0  0  0  0  0  0  0  0
  -31.8916  -23.9473   21.8851 C   0  0  0  0  0  0  0  0  0  0  0  0
  -22.6074  -32.9240   25.8209 C   0  0  0  0  0  0  0  0  0  0  0  0
  -25.1844  -21.9525   19.8395 C   0  0  0  0  0  0  0  0  0  0  0  0
  -22.9591  -31.4398   25.8326 C   0  0  0  0  0  0  0  0  0  0  0  0
  -25.4792  -20.6740   20.6233 C   0  0  0  0  0  0  0  0  0  0  0  0
  -32.2053  -23.3298   20.5333 C   0  0  0  0  0  0  0  0  0  0  0  0
  -25.1542  -21.6919   18.3370 C   0  0  0  0  0  0  0  0  0  0  0  0
  -26.6987  -19.7691   18.5936 C   0  0  0  0  0  0  0  0  0  0  0  0
  -24.2640  -31.1760   25.0715 C   0  0  1  0  0  0  0  0  0  0  0  0
  -23.4069  -30.3595   21.4615 C   0  0  1  0  0  0  0  0  0  0  0  0
  -26.7646  -19.9981   20.1137 C   0  0  2  0  0  0  0  0  0  0  0  0
  -19.1021  -26.4736   16.3262 C   0  0  0  0  0  0  0  0  0  0  0  0
  -20.5969  -26.9287   22.7628 C   0  0  0  0  0  0  0  0  0  0  0  0
  -19.5015  -25.6659   20.8989 C   0  0  0  0  0  0  0  0  0  0  0  0
  -18.7282  -27.9687   21.4663 C   0  0  0  0  0  0  0  0  0  0  0  0
  -22.1465  -28.6272   15.5711 C   0  0  0  0  0  0  0  0  0  0  0  0
  -20.9563  -27.6586   20.3125 C   0  0  1  0  0  0  0  0  0  0  0  0
  -20.1554  -27.5334   16.6094 C   0  0  2  0  0  0  0  0  0  0  0  0
  -19.9734  -27.0618   21.3590 C   0  0  0  0  0  0  0  0  0  0  0  0
  -26.6025  -17.5511   20.3759 N   0  0  0  0  0  0  0  0  0  0  0  0
  -28.1513  -19.8803   15.5416 N   0  0  0  0  0  0  0  0  0  0  0  0
  -27.0625  -18.7146   20.8666 N   0  0  0  0  0  0  0  0  0  0  0  0
  -31.0731  -23.4183   19.5953 N   0  0  0  0  0  0  0  0  0  0  0  0
  -26.3724  -21.0175   17.8930 N   0  0  0  0  0  0  0  0  0  0  0  0
  -22.8624  -29.1322   20.8773 N   0  0  0  0  0  0  0  0  0  0  0  0
  -28.3005  -19.6525   22.6549 N   0  0  0  0  0  0  0  0  0  0  0  0
  -29.7233  -16.2015   23.3326 N   0  0  0  0  0  0  0  0  0  0  0  0
  -24.0302  -31.2011   23.6435 N   0  0  0  0  0  0  0  0  0  0  0  0
  -20.3843  -27.8213   18.9803 N   0  0  0  0  0  0  0  0  0  0  0  0
  -21.0739  -27.6080   15.4382 N   0  3  0  0  0  0  0  0  0  0  0  0
  -29.3855  -24.7758   18.7045 O   0  0  0  0  0  0  0  0  0  0  0  0
  -27.7837  -16.4435   24.5318 O   0  0  0  0  0  0  0  0  0  0  0  0
  -26.8696  -22.5528   16.1832 O   0  0  0  0  0  0  0  0  0  0  0  0
  -23.3260  -28.9963   23.3877 O   0  0  0  0  0  0  0  0  0  0  0  0
  -20.6768  -29.9442   20.8820 O   0  0  0  0  0  0  0  0  0  0  0  0
  -21.9313  -26.4936   17.8753 O   0  0  0  0  0  0  0  0  0  0  0  0
  -25.8837  -11.2271   20.5690 O   0  0  0  0  0  0  0  0  0  0  0  0
  -28.4202  -26.6282   19.9313 O   0  0  0  0  0  0  0  0  0  1  0  0
  -20.7484   -9.5419   21.6612 F   0  0  0  0  0  0  0  0  0  0  0  0
  -25.3998   -9.3185   22.5096 F   0  0  0  0  0  0  0  0  0  0  0  0
  1  2  1  0  0  0  0
  1  7  2  0  0  0  0
  2  8  2  0  0  0  0
  3  6  1  0  0  0  0
  3 10  2  0  0  0  0
  4 11  2  0  0  0  0
  4 19  1  0  0  0  0
  5 12  1  0  0  0  0
  5 19  2  0  0  0  0
  6 20  2  0  0  0  0
  7 22  1  0  0  0  0
  8 24  1  0  0  0  0
  9 13  2  0  0  0  0
  9 23  1  0  0  0  0
 10 26  1  0  0  0  0
 11 27  1  0  0  0  0
 12 27  2  0  0  0  0
 13 28  1  0  0  0  0
 14 15  2  0  0  0  0
 14 29  1  0  0  0  0
 15 30  1  0  0  0  0
 16 20  1  0  0  0  0
 16 26  2  0  0  0  0
 17 25  1  0  0  0  0
 17 28  2  0  0  0  0
 18 30  2  0  0  0  0
 18 31  1  0  0  0  0
 19 32  1  0  0  0  0
 20 39  1  0  0  0  0
 21 32  1  0  0  0  0
 21 33  2  0  0  0  0
 21 40  1  0  0  0  0
 22 24  2  0  0  0  0
 22 45  1  0  0  0  0
 23 25  2  0  0  0  0
 23 46  1  0  0  0  0
 24 56  1  0  0  0  0
 25 47  1  0  0  0  0
 26 70  1  0  0  0  0
 27 84  1  0  0  0  0
 28 85  1  0  0  0  0
 29 31  2  0  0  0  0
 29 84  1  0  0  0  0
 30 86  1  0  0  0  0
 31 87  1  0  0  0  0
 32 67  2  0  0  0  0
 33 69  1  0  0  0  0
 33 73  1  0  0  0  0
 34 35  1  0  0  0  0
 34 36  1  0  0  0  0
 34 38  2  0  0  0  0
 35 37  2  0  0  0  0
 35 48  1  0  0  0  0
 36 70  1  0  0  0  0
 36 78  2  0  0  0  0
 38 85  1  0  0  0  0
 39 41  1  0  0  0  0
 39 68  2  0  0  0  0
 40 74  1  0  0  0  0
 40 79  2  0  0  0  0
 41 71  1  0  0  0  0
 41 80  2  0  0  0  0
 42 57  1  0  0  0  0
 42 75  1  0  0  0  0
 42 81  2  0  0  0  0
 43 64  1  0  0  0  0
 43 72  1  0  0  0  0
 43 82  2  0  0  0  0
 44 65  1  0  0  0  0
 44 76  1  0  0  0  0
 44 83  2  0  0  0  0
 45 49  1  0  0  0  0
 46 57  1  0  0  0  0
 47 72  1  0  0  0  0
 48 53  1  0  0  0  0
 49 51  1  0  0  0  0
 50 52  1  0  0  0  0
 50 54  1  0  0  0  0
 51 56  1  0  0  0  0
 52 58  1  0  0  0  0
 53 70  1  0  0  0  0
 54 71  1  0  0  0  0
 55 58  1  0  0  0  0
 55 71  1  0  0  0  0
 56 75  1  0  0  0  0
 57 72  1  0  0  0  0
 58 69  1  0  0  0  0
 59 65  1  0  0  0  0
 60 66  1  0  0  0  0
 61 66  1  0  0  0  0
 62 66  1  0  0  0  0
 63 77  1  0  0  0  0
 64 66  1  0  0  0  0
 64 76  1  0  0  0  0
 65 77  1  0  0  0  0
 67 69  1  0  0  0  0
M  CHG  1  77   1
M  ISO  4  38 101  39 100  41 100  85 101
M  END
> <Batch ID>
0079

> <Smiles>
C=C1CCN(c2cccc([100C:0](=N)[100C:0](=O)N3CCCC(n4nc(-c5ccc(Oc6ccc(F)cc6F)cc5)c(C(N)=O)c4N)C3)c2)C(=O)C1=[101CH:1][101O:1]c1ccc2c(c1)CN(C(=O)C(NC(=O)C(C)NC)C(C)(C)C)C(C(=O)NC1CCCc3ccccc31)C2

> <Shape>
0.264

> <Color>
0.080

> <Negative vol penalty>
0.000

$$$$

  -OEChem-04042323593D

 84 92  0     1  0  0  0  0  0999 V2000
  -23.7345  -32.4786   14.1104 C   0  0  0  0  0  0  0  0  0  0  0  0
  -24.7191  -31.8962   14.9021 C   0  0  0  0  0  0  0  0  0  0  0  0
  -24.1320   -9.5523   20.5515 C   0  0  0  0  0  0  0  0  0  0  0  0
  -24.6196  -10.1971   22.8283 C   0  0  0  0  0  0  0  0  0  0  0  0
  -22.7036  -33.2055   14.7042 C   0  0  0  0  0  0  0  0  0  0  0  0
  -24.6739  -32.0414   16.2882 C   0  0  0  0  0  0  0  0  0  0  0  0
  -25.5672  -27.6214   18.7696 C   0  0  0  0  0  0  0  0  0  0  0  0
  -23.7604   -8.2817   20.9909 C   0  0  0  0  0  0  0  0  0  0  0  0
  -24.2480   -8.9265   23.2677 C   0  0  0  0  0  0  0  0  0  0  0  0
  -26.8845  -27.1782   18.8802 C   0  0  0  0  0  0  0  0  0  0  0  0
  -21.3820   -7.2454   23.8846 C   0  0  0  0  0  0  0  0  0  0  0  0
  -20.5617   -7.1647   25.0098 C   0  0  0  0  0  0  0  0  0  0  0  0
  -27.0009  -28.0987   21.1067 C   0  0  0  0  0  0  0  0  0  0  0  0
  -22.2617   -5.8880   26.1575 C   0  0  0  0  0  0  0  0  0  0  0  0
  -24.5616  -10.5100   21.4702 C   0  0  0  0  0  0  0  0  0  0  0  0
  -24.1155  -12.9503   20.8756 C   0  0  0  0  0  0  0  0  0  0  0  0
  -22.6404  -33.3516   16.0990 C   0  0  0  0  0  0  0  0  0  0  0  0
  -24.9587  -28.3169   19.8245 C   0  0  0  0  0  0  0  0  0  0  0  0
  -23.6419  -32.7722   16.9012 C   0  0  0  0  0  0  0  0  0  0  0  0
  -25.6743  -28.5453   21.0088 C   0  0  0  0  0  0  0  0  0  0  0  0
  -23.8184   -7.9688   22.3490 C   0  0  0  0  0  0  0  0  0  0  0  0
  -27.6022  -27.4188   20.0479 C   0  0  0  0  0  0  0  0  0  0  0  0
  -22.6421   -6.6474   23.8958 C   0  0  0  0  0  0  0  0  0  0  0  0
  -21.0015   -6.4860   26.1463 C   0  0  0  0  0  0  0  0  0  0  0  0
  -23.0819   -5.9687   25.0322 C   0  0  0  0  0  0  0  0  0  0  0  0
  -24.9461  -11.8226   21.0169 C   0  0  0  0  0  0  0  0  0  0  0  0
  -24.9526  -13.9381   20.4175 C   0  0  0  0  0  0  0  0  0  0  0  0
  -30.8738  -22.8804   21.0224 C   0  0  0  0  0  0  0  0  0  0  0  0
  -30.3913  -23.6190   20.0113 C   0  0  0  0  0  0  0  0  0  0  0  0
  -29.9317  -22.9188   18.7828 C   0  0  0  0  0  0  0  0  0  0  0  0
  -30.5827  -20.9158   19.9582 C   0  0  0  0  0  0  0  0  0  0  0  0
  -22.7126  -13.0923   21.1354 C   0  0  0  0  0  0  0  0  0  0  0  0
  -30.3433  -25.0851   20.1745 C   0  0  0  0  0  0  0  0  0  0  0  0
  -23.6670  -31.2143   20.2516 C   0  0  0  0  0  0  0  0  0  0  0  0
  -29.7158  -16.6643   20.8152 C   0  0  0  0  0  0  0  0  0  0  0  0
  -22.9138  -29.8716   23.1984 C   0  0  0  0  0  0  0  0  0  0  0  0
  -31.0800  -18.6399   20.7140 C   0  0  0  0  0  0  0  0  0  0  0  0
  -20.7860  -32.4735   23.7835 C   0  0  0  0  0  0  0  0  0  0  0  0
  -21.5330  -34.1863   16.6920 C   0  0  0  0  0  0  0  0  0  0  0  0
  -23.5264  -28.7600   19.6966 C   0  0  0  0  0  0  0  0  0  0  0  0
  -25.0654  -29.2833   22.1703 C   0  0  0  0  0  0  0  0  0  0  0  0
  -21.3500  -33.9775   18.1931 C   0  0  0  0  0  0  0  0  0  0  0  0
  -29.6935  -13.7118   18.6916 C   0  0  0  0  0  0  0  0  0  0  0  0
  -22.6984  -34.0127   18.9053 C   0  0  0  0  0  0  0  0  0  0  0  0
  -28.3937  -13.0344   19.1236 C   0  0  0  0  0  0  0  0  0  0  0  0
  -30.3831  -14.4029   19.8650 C   0  0  0  0  0  0  0  0  0  0  0  0
  -28.2132  -14.7089   21.0148 C   0  0  0  0  0  0  0  0  0  0  0  0
  -23.6136  -32.8865   18.4099 C   0  0  1  0  0  0  0  0  0  0  0  0
  -23.1418  -29.8708   20.6717 C   0  0  1  0  0  0  0  0  0  0  0  0
  -27.4710  -14.0258   19.8540 C   0  0  2  0  0  0  0  0  0  0  0  0
  -19.0149  -33.2482   25.3836 C   0  0  0  0  0  0  0  0  0  0  0  0
  -20.9311  -27.9235   21.9416 C   0  0  0  0  0  0  0  0  0  0  0  0
  -19.0749  -29.3441   22.8387 C   0  0  0  0  0  0  0  0  0  0  0  0
  -20.6657  -28.2361   24.4087 C   0  0  0  0  0  0  0  0  0  0  0  0
  -22.3502  -34.8707   24.5356 C   0  0  0  0  0  0  0  0  0  0  0  0
  -29.2415  -25.8079   19.4367 C   0  0  0  0  0  0  0  0  0  1  0  0
  -31.0433  -17.2071   20.3494 C   0  0  0  0  0  0  0  0  0  0  0  0
  -21.4524  -30.2052   23.0317 C   0  0  1  0  0  0  0  0  0  0  0  0
  -20.4960  -33.2749   25.0397 C   0  0  2  0  0  0  0  0  0  0  0  0
  -20.5509  -28.9384   23.0381 C   0  0  0  0  0  0  0  0  0  0  0  0
  -26.2137  -12.0698   20.6759 N   0  0  0  0  0  0  0  0  0  0  0  0
  -30.9865  -21.5111   21.0331 N   0  0  0  0  0  0  0  0  0  0  0  0
  -26.1857  -13.3643   20.3158 N   0  0  0  0  0  0  0  0  0  0  0  0
  -30.0667  -21.5444   18.8464 N   0  0  0  0  0  0  0  0  0  0  0  0
  -23.6426  -29.6194   22.0291 N   0  0  0  0  0  0  0  0  0  0  0  0
  -29.4630  -15.3180   20.5509 N   0  0  0  0  0  0  0  0  0  0  0  0
  -24.7469  -15.2329   20.0956 N   0  0  0  0  0  0  0  0  0  0  0  0
  -22.0033  -11.9773   21.6023 N   0  0  0  0  0  0  0  0  0  0  0  0
  -31.5620  -18.9315   21.9178 N   0  0  0  0  0  0  0  0  0  0  0  0
  -23.2306  -31.6247   19.0065 N   0  0  0  0  0  0  0  0  0  0  0  0
  -21.1325  -31.1715   24.0768 N   0  0  0  0  0  0  0  0  0  0  0  0
  -30.6289  -19.5023   19.8017 N   0  3  0  0  0  0  0  0  0  0  0  0
  -20.9102  -34.6946   24.8556 N   0  3  0  0  0  0  0  0  0  0  0  0
  -29.4800  -23.5282   17.8189 O   0  0  0  0  0  0  0  0  0  0  0  0
  -22.1027  -14.1715   20.9431 O   0  0  0  0  0  0  0  0  0  0  0  0
  -31.1718  -25.6521   20.8810 O   0  0  0  0  0  0  0  0  0  0  0  0
  -24.4119  -31.8335   21.0023 O   0  0  0  0  0  0  0  0  0  0  0  0
  -28.9275  -17.4164   21.3938 O   0  0  0  0  0  0  0  0  0  0  0  0
  -23.3966  -29.8276   24.3334 O   0  0  0  0  0  0  0  0  0  0  0  0
  -20.7090  -32.9534   22.6546 O   0  0  0  0  0  0  0  0  0  0  0  0
  -23.4556   -6.7291   22.7781 O   0  0  0  0  0  0  0  0  0  0  0  0
  -28.8879  -26.9869   20.1587 O   0  0  0  0  0  0  0  0  0  1  0  0
  -20.2143   -6.4098   27.2273 F   0  0  0  0  0  0  0  0  0  0  0  0
  -24.2920   -5.3932   25.0493 F   0  0  0  0  0  0  0  0  0  0  0  0
  1  2  1  0  0  0  0
  1  5  2  0  0  0  0
  2  6  2  0  0  0  0
  3  8  2  0  0  0  0
  3 15  1  0  0  0  0
  4  9  1  0  0  0  0
  4 15  2  0  0  0  0
  5 17  1  0  0  0  0
  6 19  1  0  0  0  0
  7 10  2  0  0  0  0
  7 18  1  0  0  0  0
  8 21  1  0  0  0  0
  9 21  2  0  0  0  0
 10 22  1  0  0  0  0
 11 12  2  0  0  0  0
 11 23  1  0  0  0  0
 12 24  1  0  0  0  0
 13 20  1  0  0  0  0
 13 22  2  0  0  0  0
 14 24  2  0  0  0  0
 14 25  1  0  0  0  0
 15 26  1  0  0  0  0
 16 26  1  0  0  0  0
 16 27  2  0  0  0  0
 16 32  1  0  0  0  0
 17 19  2  0  0  0  0
 17 39  1  0  0  0  0
 18 20  2  0  0  0  0
 18 40  1  0  0  0  0
 19 48  1  0  0  0  0
 20 41  1  0  0  0  0
 21 81  1  0  0  0  0
 22 82  1  0  0  0  0
 23 25  2  0  0  0  0
 23 81  1  0  0  0  0
 24 83  1  0  0  0  0
 25 84  1  0  0  0  0
 26 61  2  0  0  0  0
 27 63  1  0  0  0  0
 27 67  1  0  0  0  0
 28 29  2  0  0  0  0
 28 62  1  0  0  0  0
 29 30  1  0  0  0  0
 29 33  1  0  0  0  0
 30 64  1  0  0  0  0
 30 74  2  0  0  0  0
 31 62  2  0  0  0  0
 31 64  1  0  0  0  0
 31 72  1  0  0  0  0
 32 68  1  0  0  0  0
 32 75  2  0  0  0  0
 33 56  1  0  0  0  0
 33 76  2  0  0  0  0
 34 49  1  0  0  0  0
 34 70  1  0  0  0  0
 34 77  2  0  0  0  0
 35 57  1  0  0  0  0
 35 66  1  0  0  0  0
 35 78  2  0  0  0  0
 36 58  1  0  0  0  0
 36 65  1  0  0  0  0
 36 79  2  0  0  0  0
 37 57  1  0  0  0  0
 37 69  1  0  0  0  0
 37 72  2  0  0  0  0
 38 59  1  0  0  0  0
 38 71  1  0  0  0  0
 38 80  2  0  0  0  0
 39 42  1  0  0  0  0
 40 49  1  0  0  0  0
 41 65  1  0  0  0  0
 42 44  1  0  0  0  0
 43 45  1  0  0  0  0
 43 46  1  0  0  0  0
 44 48  1  0  0  0  0
 45 50  1  0  0  0  0
 46 66  1  0  0  0  0
 47 50  1  0  0  0  0
 47 66  1  0  0  0  0
 48 70  1  0  0  0  0
 49 65  1  0  0  0  0
 50 63  1  0  0  0  0
 51 59  1  0  0  0  0
 52 60  1  0  0  0  0
 53 60  1  0  0  0  0
 54 60  1  0  0  0  0
 55 73  1  0  0  0  0
 56 82  1  0  0  0  0
 58 60  1  0  0  0  0
 58 71  1  0  0  0  0
 59 73  1  0  0  0  0
 61 63  1  0  0  0  0
M  CHG  2  72   1  73   1
M  ISO  4  35 100  56 101  57 100  82 101
M  END
> <Batch ID>
0079

> <Smiles>
CNC(C)C(=O)NC(C(=O)N1Cc2cc([101O:1][101CH2:1]C(=O)c3c[nH]c(NC(=N)[100CH2:0][100C:0](=O)N4CCCC(n5nc(-c6ccc(Oc7ccc(F)cc7F)cc6)c(C(N)=O)c5N)C4)nc3=O)ccc2CC1C(=O)NC1CCCc2ccccc21)C(C)(C)C

> <Shape>
0.310

> <Color>
0.125

> <Negative vol penalty>
0.000

$$$$

  -OEChem-04042323593D

 81 88  0     1  0  0  0  0  0999 V2000
  -29.7784  -23.5746   17.0515 C   0  0  0  0  0  0  0  0  0  0  0  0
  -28.7412  -24.4995   17.0909 C   0  0  0  0  0  0  0  0  0  0  0  0
  -26.6794  -14.9088   21.5737 C   0  0  0  0  0  0  0  0  0  0  0  0
  -26.4736  -14.8244   19.1680 C   0  0  0  0  0  0  0  0  0  0  0  0
  -30.4266  -23.2094   18.2295 C   0  0  0  0  0  0  0  0  0  0  0  0
  -28.3597  -25.0685   18.3064 C   0  0  0  0  0  0  0  0  0  0  0  0
  -25.0354  -28.6910   18.1330 C   0  0  0  0  0  0  0  0  0  0  0  0
  -26.4593  -13.5331   21.6409 C   0  0  0  0  0  0  0  0  0  0  0  0
  -26.2535  -13.4486   19.2351 C   0  0  0  0  0  0  0  0  0  0  0  0
  -23.6911  -28.4669   17.8394 C   0  0  0  0  0  0  0  0  0  0  0  0
  -28.1042  -10.6477   19.6227 C   0  0  0  0  0  0  0  0  0  0  0  0
  -28.7882   -9.8384   18.7156 C   0  0  0  0  0  0  0  0  0  0  0  0
  -23.1461  -28.7114   20.1766 C   0  0  0  0  0  0  0  0  0  0  0  0
  -26.6826   -9.0458   17.8350 C   0  0  0  0  0  0  0  0  0  0  0  0
  -26.6865  -15.5545   20.3373 C   0  0  0  0  0  0  0  0  0  0  0  0
  -28.1511  -17.6337   20.1381 C   0  0  0  0  0  0  0  0  0  0  0  0
  -30.0440  -23.7653   19.4614 C   0  0  0  0  0  0  0  0  0  0  0  0
  -25.4474  -28.9166   19.4543 C   0  0  0  0  0  0  0  0  0  0  0  0
  -29.0176  -24.7308   19.5030 C   0  0  0  0  0  0  0  0  0  0  0  0
  -24.4959  -28.9407   20.4840 C   0  0  0  0  0  0  0  0  0  0  0  0
  -26.2464  -12.8030   20.4716 C   0  0  0  0  0  0  0  0  0  0  0  0
  -22.7466  -28.4741   18.8616 C   0  0  0  0  0  0  0  0  0  0  0  0
  -26.7094  -10.6559   19.6361 C   0  0  0  0  0  0  0  0  0  0  0  0
  -28.0774   -9.0375   17.8217 C   0  0  0  0  0  0  0  0  0  0  0  0
  -25.9986   -9.8550   18.7422 C   0  0  0  0  0  0  0  0  0  0  0  0
  -26.9133  -16.9757   20.2673 C   0  0  0  0  0  0  0  0  0  0  0  0
  -27.8297  -18.9689   20.1179 C   0  0  0  0  0  0  0  0  0  0  0  0
  -29.4732  -17.0868   20.0446 C   0  0  0  0  0  0  0  0  0  0  0  0
  -27.3785  -27.4207   21.4882 C   0  0  0  0  0  0  0  0  0  0  0  0
  -20.1448  -28.0033   16.7613 C   0  0  0  0  0  0  0  0  0  0  0  0
  -26.7964  -30.0170   23.3437 C   0  0  0  0  0  0  0  0  0  0  0  0
  -24.7295  -32.6199   24.1180 C   0  0  0  0  0  0  0  0  0  0  0  0
  -20.8039  -24.8532   18.0826 C   0  0  0  0  0  0  0  0  0  0  0  0
  -22.9155  -21.8075   18.4905 C   0  0  0  0  0  0  0  0  0  0  0  0
  -30.7848  -23.3402   20.7047 C   0  0  0  0  0  0  0  0  0  0  0  0
  -26.8977  -29.1832   19.7509 C   0  0  0  0  0  0  0  0  0  0  0  0
  -24.8839  -29.1982   21.9163 C   0  0  0  0  0  0  0  0  0  0  0  0
  -30.0233  -23.6566   21.9878 C   0  0  0  0  0  0  0  0  0  0  0  0
  -24.5371  -22.0527   21.7166 C   0  0  0  0  0  0  0  0  0  0  0  0
  -29.5509  -25.1026   21.9688 C   0  0  0  0  0  0  0  0  0  0  0  0
  -25.4536  -20.8281   21.6903 C   0  0  0  0  0  0  0  0  0  0  0  0
  -23.2008  -21.7577   21.0418 C   0  0  0  0  0  0  0  0  0  0  0  0
  -24.2298  -20.0322   19.6145 C   0  0  0  0  0  0  0  0  0  0  0  0
  -28.5651  -25.3400   20.8178 C   0  0  1  0  0  0  0  0  0  0  0  0
  -27.2746  -28.8917   21.2002 C   0  0  1  0  0  0  0  0  0  0  0  0
  -25.6058  -20.2729   20.2617 C   0  0  2  0  0  0  0  0  0  0  0  0
  -19.7081  -28.3504   15.3592 C   0  0  0  0  0  0  0  0  0  0  0  0
  -24.5017  -34.5492   25.7065 C   0  0  0  0  0  0  0  0  0  0  0  0
  -22.6979  -24.1067   16.5807 C   0  0  0  0  0  0  0  0  0  0  0  0
  -20.6154  -22.6987   16.7762 C   0  0  0  0  0  0  0  0  0  0  0  0
  -25.9656  -28.0912   25.5598 C   0  0  0  0  0  0  0  0  0  0  0  0
  -24.8756  -30.0177   26.7297 C   0  0  0  0  0  0  0  0  0  0  0  0
  -27.3375  -30.0361   26.3278 C   0  0  0  0  0  0  0  0  0  0  0  0
  -24.7660  -34.5915   21.9112 C   0  0  0  0  0  0  0  0  0  0  0  0
  -19.4519  -26.8383   17.4322 C   0  0  0  0  0  0  0  0  0  0  0  0
  -25.7612  -30.3792   24.3811 C   0  0  1  0  0  0  0  0  0  0  0  0
  -25.0089  -34.0944   24.3468 C   0  0  2  0  0  0  0  0  0  0  0  0
  -21.5704  -23.6464   17.5077 C   0  0  0  0  0  0  0  0  0  0  0  0
  -25.9776  -29.6242   25.7230 C   0  0  0  0  0  0  0  0  0  0  0  0
  -25.8825  -17.8230   20.3252 N   0  0  0  0  0  0  0  0  0  0  0  0
  -21.1051  -28.7015   17.2877 N   0  0  0  0  0  0  0  0  0  1  0  0
  -26.4719  -19.0272   20.2321 N   0  0  0  0  0  0  0  0  0  0  0  0
  -26.3149  -29.4473   22.1565 N   0  0  0  0  0  0  0  0  0  0  0  0
  -23.4155  -21.2503   19.6792 N   0  0  0  0  0  0  0  0  0  0  0  0
  -28.5790  -20.0870   20.0138 N   0  0  0  0  0  0  0  0  0  0  0  0
  -29.6242  -15.6939   20.0813 N   0  0  0  0  0  0  0  0  0  0  0  0
  -28.3040  -26.7580   20.7047 N   0  0  0  0  0  0  0  0  0  0  0  0
  -20.2091  -25.6639   17.1161 N   0  0  0  0  0  0  0  0  0  0  0  0
  -25.7948  -31.8328   24.5011 N   0  0  0  0  0  0  0  0  0  0  0  0
  -22.1480  -22.9562   18.6395 N   0  0  0  0  0  0  0  0  0  0  0  0
  -24.3428  -34.9167   23.2976 N   0  3  0  0  0  0  0  0  0  0  0  0
  -30.4919  -17.8125   19.9484 O   0  0  0  0  0  0  0  0  0  0  0  0
  -26.6725  -26.9240   22.3580 O   0  0  0  0  0  0  0  0  0  0  0  0
  -27.9876  -30.2382   23.5751 O   0  0  0  0  0  0  0  0  0  0  0  0
  -23.6706  -32.2074   23.6500 O   0  0  0  0  0  0  0  0  0  0  0  0
  -20.7301  -25.0763   19.2913 O   0  0  0  0  0  0  0  0  0  0  0  0
  -23.1409  -21.3202   17.3775 O   0  0  0  0  0  0  0  0  0  0  0  0
  -26.0318  -11.4605   20.5367 O   0  0  0  0  0  0  0  0  0  0  0  0
  -21.4338  -28.2550   18.5778 O   0  0  0  0  0  0  0  0  0  1  0  0
  -28.7344   -8.2616   16.9496 F   0  0  0  0  0  0  0  0  0  0  0  0
  -24.6586   -9.8597   18.7495 F   0  0  0  0  0  0  0  0  0  0  0  0
  1  2  1  0  0  0  0
  1  5  2  0  0  0  0
  2  6  2  0  0  0  0
  3  8  2  0  0  0  0
  3 15  1  0  0  0  0
  4  9  1  0  0  0  0
  4 15  2  0  0  0  0
  5 17  1  0  0  0  0
  6 19  1  0  0  0  0
  7 10  2  0  0  0  0
  7 18  1  0  0  0  0
  8 21  1  0  0  0  0
  9 21  2  0  0  0  0
 10 22  1  0  0  0  0
 11 12  2  0  0  0  0
 11 23  1  0  0  0  0
 12 24  1  0  0  0  0
 13 20  1  0  0  0  0
 13 22  2  0  0  0  0
 14 24  2  0  0  0  0
 14 25  1  0  0  0  0
 15 26  1  0  0  0  0
 16 26  1  0  0  0  0
 16 27  2  0  0  0  0
 16 28  1  0  0  0  0
 17 19  2  0  0  0  0
 17 35  1  0  0  0  0
 18 20  2  0  0  0  0
 18 36  1  0  0  0  0
 19 44  1  0  0  0  0
 20 37  1  0  0  0  0
 21 78  1  0  0  0  0
 22 79  1  0  0  0  0
 23 25  2  0  0  0  0
 23 78  1  0  0  0  0
 24 80  1  0  0  0  0
 25 81  1  0  0  0  0
 26 60  2  0  0  0  0
 27 62  1  0  0  0  0
 27 65  1  0  0  0  0
 28 66  1  0  0  0  0
 28 72  2  0  0  0  0
 29 45  1  0  0  0  0
 29 67  1  0  0  0  0
 29 73  2  0  0  0  0
 30 47  1  0  0  0  0
 30 55  1  0  0  0  0
 30 61  2  0  0  0  0
 31 56  1  0  0  0  0
 31 63  1  0  0  0  0
 31 74  2  0  0  0  0
 32 57  1  0  0  0  0
 32 69  1  0  0  0  0
 32 75  2  0  0  0  0
 33 58  1  0  0  0  0
 33 68  1  0  0  0  0
 33 76  2  0  0  0  0
 34 64  1  0  0  0  0
 34 70  1  0  0  0  0
 34 77  2  0  0  0  0
 35 38  1  0  0  0  0
 36 45  1  0  0  0  0
 37 63  1  0  0  0  0
 38 40  1  0  0  0  0
 39 41  1  0  0  0  0
 39 42  1  0  0  0  0
 40 44  1  0  0  0  0
 41 46  1  0  0  0  0
 42 64  1  0  0  0  0
 43 46  1  0  0  0  0
 43 64  1  0  0  0  0
 44 67  1  0  0  0  0
 45 63  1  0  0  0  0
 46 62  1  0  0  0  0
 48 57  1  0  0  0  0
 49 58  1  0  0  0  0
 50 58  1  0  0  0  0
 51 59  1  0  0  0  0
 52 59  1  0  0  0  0
 53 59  1  0  0  0  0
 54 71  1  0  0  0  0
 55 68  1  0  0  0  0
 56 59  1  0  0  0  0
 56 69  1  0  0  0  0
 57 71  1  0  0  0  0
 58 70  1  0  0  0  0
 60 62  1  0  0  0  0
 61 79  1  0  0  0  0
M  CHG  1  71   1
M  ISO  4  34 100  61 101  70 100  79 101
M  END
> <Batch ID>
0079

> <Smiles>
CNC(C)C(=O)NC(C(=O)N1Cc2cc([101O:1][101N:1]=C(C)CNC(=O)C(C)(C)[100NH:0][100C:0](=O)N3CCCC(n4nc(-c5ccc(Oc6ccc(F)cc6F)cc5)c(C(N)=O)c4N)C3)ccc2CC1C(=O)NC1CCCc2ccccc21)C(C)(C)C

> <Shape>
0.212

> <Color>
0.073

> <Negative vol penalty>
0.000

$$$$

  -OEChem-04042323593D

 93102  0     1  0  0  0  0  0999 V2000
  -17.6572  -30.3657   22.9353 C   0  0  0  0  0  0  0  0  0  0  0  0
  -19.0099  -30.6590   22.7949 C   0  0  0  0  0  0  0  0  0  0  0  0
  -26.0334  -13.9833   21.5480 C   0  0  0  0  0  0  0  0  0  0  0  0
  -26.4153  -12.5023   19.6778 C   0  0  0  0  0  0  0  0  0  0  0  0
  -17.2484  -29.0488   23.1415 C   0  0  0  0  0  0  0  0  0  0  0  0
  -19.9547  -29.6356   22.8617 C   0  0  0  0  0  0  0  0  0  0  0  0
  -25.1958  -29.2524   19.7169 C   0  0  0  0  0  0  0  0  0  0  0  0
  -24.7891  -13.3910   21.7631 C   0  0  0  0  0  0  0  0  0  0  0  0
  -25.1709  -11.9098   19.8929 C   0  0  0  0  0  0  0  0  0  0  0  0
  -26.5148  -29.5559   20.0515 C   0  0  0  0  0  0  0  0  0  0  0  0
  -22.2491   -9.7645   20.1730 C   0  0  0  0  0  0  0  0  0  0  0  0
  -22.1771   -8.3721   20.1322 C   0  0  0  0  0  0  0  0  0  0  0  0
  -26.8970  -27.2423   20.6177 C   0  0  0  0  0  0  0  0  0  0  0  0
  -30.4736  -24.7507   18.1706 C   0  0  0  0  0  0  0  0  0  0  0  0
  -31.3577  -23.5170   16.2908 C   0  0  0  0  0  0  0  0  0  0  0  0
  -23.7550   -8.2372   21.9568 C   0  0  0  0  0  0  0  0  0  0  0  0
  -26.8465  -13.5390   20.5053 C   0  0  0  0  0  0  0  0  0  0  0  0
  -29.3654  -13.7648   20.8397 C   0  0  0  0  0  0  0  0  0  0  0  0
  -18.1879  -28.0074   23.2012 C   0  0  0  0  0  0  0  0  0  0  0  0
  -24.7136  -27.9415   19.8407 C   0  0  0  0  0  0  0  0  0  0  0  0
  -19.5581  -28.3037   23.0702 C   0  0  0  0  0  0  0  0  0  0  0  0
  -25.5722  -26.9244   20.2815 C   0  0  0  0  0  0  0  0  0  0  0  0
  -31.5781  -25.9217   16.3690 C   0  0  0  0  0  0  0  0  0  0  0  0
  -30.9153  -25.9426   17.5961 C   0  0  0  0  0  0  0  0  0  0  0  0
  -30.6949  -23.5379   17.5180 C   0  0  0  0  0  0  0  0  0  0  0  0
  -24.3579  -12.3542   20.9356 C   0  0  0  0  0  0  0  0  0  0  0  0
  -27.3648  -28.5513   20.5047 C   0  0  0  0  0  0  0  0  0  0  0  0
  -23.0741  -10.3933   21.1056 C   0  0  0  0  0  0  0  0  0  0  0  0
  -22.9301   -7.6085   21.0241 C   0  0  0  0  0  0  0  0  0  0  0  0
  -31.7993  -24.7089   15.7163 C   0  0  0  0  0  0  0  0  0  0  0  0
  -23.8270   -9.6296   21.9975 C   0  0  0  0  0  0  0  0  0  0  0  0
  -28.1318  -14.1510   20.2822 C   0  0  0  0  0  0  0  0  0  0  0  0
  -30.2717  -14.6554   20.3182 C   0  0  0  0  0  0  0  0  0  0  0  0
  -33.1297  -29.0702   15.4041 C   0  0  0  0  0  0  0  0  0  0  0  0
  -32.2831  -28.8110   14.2315 C   0  0  0  0  0  0  0  0  0  0  0  0
  -32.9580  -27.9758   16.3808 C   0  0  0  0  0  0  0  0  0  0  0  0
  -33.9290  -30.1240   15.5627 C   0  0  0  0  0  0  0  0  0  0  0  0
  -29.6654  -12.6964   21.7476 C   0  0  0  0  0  0  0  0  0  0  0  0
  -29.4435  -20.2003   18.2735 C   0  0  0  0  0  0  0  0  0  0  0  0
  -29.8352  -21.2866   17.4277 C   0  0  0  0  0  0  0  0  0  0  0  0
  -22.4329  -26.5431   21.5573 C   0  0  0  0  0  0  0  0  0  0  0  0
  -23.2209  -23.9509   19.7736 C   0  0  0  0  0  0  0  0  0  0  0  0
  -25.5627  -22.3328   17.8909 C   0  0  0  0  0  0  0  0  0  0  0  0
  -17.7017  -26.6058   23.4730 C   0  0  0  0  0  0  0  0  0  0  0  0
  -23.2958  -27.6255   19.4503 C   0  0  0  0  0  0  0  0  0  0  0  0
  -25.1092  -25.4972   20.4128 C   0  0  0  0  0  0  0  0  0  0  0  0
  -31.5464  -27.5225   14.4497 C   0  0  0  0  0  0  0  0  0  0  0  0
  -18.7375  -25.5299   23.1571 C   0  0  0  0  0  0  0  0  0  0  0  0
  -31.0752  -17.4007   16.5069 C   0  0  0  0  0  0  0  0  0  0  0  0
  -20.0974  -25.9127   23.7323 C   0  0  0  0  0  0  0  0  0  0  0  0
  -30.5535  -16.2087   17.3034 C   0  0  0  0  0  0  0  0  0  0  0  0
  -30.0546  -18.5356   16.4369 C   0  0  0  0  0  0  0  0  0  0  0  0
  -29.0448  -17.7831   18.5747 C   0  0  0  0  0  0  0  0  0  0  0  0
  -20.6112  -27.2177   23.1121 C   0  0  1  0  0  0  0  0  0  0  0  0
  -22.7653  -26.3535   20.1043 C   0  0  1  0  0  0  0  0  0  0  0  0
  -30.0800  -16.6546   18.6950 C   0  0  1  0  0  0  0  0  0  0  0  0
  -25.9291  -20.2143   16.5965 C   0  0  0  0  0  0  0  0  0  0  0  0
  -23.5905  -22.4206   22.3874 C   0  0  0  0  0  0  0  0  0  0  0  0
  -24.8413  -20.6713   21.1054 C   0  0  0  0  0  0  0  0  0  0  0  0
  -22.4472  -21.1301   20.5757 C   0  0  0  0  0  0  0  0  0  0  0  0
  -30.9737  -29.1245   20.4137 C   0  0  0  0  0  0  0  0  0  0  0  0
  -29.2666  -29.7493   18.6915 C   0  0  0  0  0  0  0  0  0  0  0  0
  -25.9825  -23.8131   15.3628 C   0  0  0  0  0  0  0  0  0  0  0  0
  -29.6780  -27.2994   19.2854 C   0  0  0  0  0  0  0  0  0  0  0  0
  -24.2089  -22.8179   19.9123 C   0  0  1  0  0  0  0  0  0  0  0  0
  -25.4752  -21.6643   16.5307 C   0  0  2  0  0  0  0  0  0  0  0  0
  -23.7805  -21.7872   20.9947 C   0  0  0  0  0  0  0  0  0  0  0  0
  -29.6255  -28.7487   19.7932 C   0  0  0  0  0  0  0  0  0  1  0  0
  -28.2408  -15.2050   19.4691 N   0  0  0  0  0  0  0  0  0  0  0  0
  -29.5537  -15.4887   19.5119 N   0  0  0  0  0  0  0  0  0  0  0  0
  -32.0285  -27.1049   15.7762 N   0  0  0  0  0  0  0  0  0  0  0  0
  -29.5512  -18.8991   17.7680 N   0  0  0  0  0  0  0  0  0  0  0  0
  -23.7125  -25.2397   20.0248 N   0  0  0  0  0  0  0  0  0  0  0  0
  -31.6047  -14.7993   20.4755 N   0  0  0  0  0  0  0  0  0  0  0  0
  -28.6161  -11.8760   22.1840 N   0  0  0  0  0  0  0  0  0  0  0  0
  -29.6607  -21.0487   16.1322 N   0  0  0  0  0  0  0  0  0  0  0  0
  -30.6853  -27.1349   18.2614 N   0  0  0  0  0  0  0  0  0  0  0  0
  -21.1402  -26.9737   21.7873 N   0  0  0  0  0  0  0  0  0  0  0  0
  -24.3699  -22.2510   18.5778 N   0  0  0  0  0  0  0  0  0  0  0  0
  -30.2685  -22.3801   18.0778 N   0  3  0  0  0  0  0  0  0  0  0  0
  -26.3331  -22.3811   15.5452 N   0  3  0  0  0  0  0  0  0  0  0  0
  -32.1939  -29.5232   13.2462 O   0  0  0  0  0  0  0  0  0  0  0  0
  -33.5167  -27.8843   17.4600 O   0  0  0  0  0  0  0  0  0  0  0  0
  -30.8267  -12.4859   22.1725 O   0  0  0  0  0  0  0  0  0  0  0  0
  -29.0179  -20.4762   19.3932 O   0  0  0  0  0  0  0  0  0  0  0  0
  -23.2857  -26.3142   22.4071 O   0  0  0  0  0  0  0  0  0  0  0  0
  -22.0576  -23.7022   19.4472 O   0  0  0  0  0  0  0  0  0  0  0  0
  -26.5877  -22.8702   18.3043 O   0  0  0  0  0  0  0  0  0  0  0  0
  -23.1438  -11.7757   21.1454 O   0  0  0  0  0  0  0  0  0  0  0  0
  -28.6525  -28.8448   20.8326 O   0  0  0  0  0  0  0  0  0  1  0  0
  -22.8597   -6.2714   20.9859 F   0  0  0  0  0  0  0  0  0  0  0  0
  -32.4366  -24.6755   14.5371 F   0  0  0  0  0  0  0  0  0  0  0  0
  -24.6204  -10.2280   22.8965 F   0  0  0  0  0  0  0  0  0  0  0  0
  1  2  1  0  0  0  0
  1  5  2  0  0  0  0
  2  6  2  0  0  0  0
  3  8  2  0  0  0  0
  3 17  1  0  0  0  0
  4  9  1  0  0  0  0
  4 17  2  0  0  0  0
  5 19  1  0  0  0  0
  6 21  1  0  0  0  0
  7 10  2  0  0  0  0
  7 20  1  0  0  0  0
  8 26  1  0  0  0  0
  9 26  2  0  0  0  0
 10 27  1  0  0  0  0
 11 12  2  0  0  0  0
 11 28  1  0  0  0  0
 12 29  1  0  0  0  0
 13 22  1  0  0  0  0
 13 27  2  0  0  0  0
 14 24  1  0  0  0  0
 14 25  2  0  0  0  0
 15 25  1  0  0  0  0
 15 30  2  0  0  0  0
 16 29  2  0  0  0  0
 16 31  1  0  0  0  0
 17 32  1  0  0  0  0
 18 32  1  0  0  0  0
 18 33  2  0  0  0  0
 18 38  1  0  0  0  0
 19 21  2  0  0  0  0
 19 44  1  0  0  0  0
 20 22  2  0  0  0  0
 20 45  1  0  0  0  0
 21 54  1  0  0  0  0
 22 46  1  0  0  0  0
 23 24  2  0  0  0  0
 23 30  1  0  0  0  0
 23 71  1  0  0  0  0
 24 77  1  0  0  0  0
 25 80  1  0  0  0  0
 26 89  1  0  0  0  0
 27 90  1  0  0  0  0
 28 31  2  0  0  0  0
 28 89  1  0  0  0  0
 29 91  1  0  0  0  0
 30 92  1  0  0  0  0
 31 93  1  0  0  0  0
 32 69  2  0  0  0  0
 33 70  1  0  0  0  0
 33 74  1  0  0  0  0
 34 35  1  0  0  0  0
 34 36  1  0  0  0  0
 34 37  2  0  0  0  0
 35 47  1  0  0  0  0
 35 82  2  0  0  0  0
 36 71  1  0  0  0  0
 36 83  2  0  0  0  0
 38 75  1  0  0  0  0
 38 84  2  0  0  0  0
 39 40  1  0  0  0  0
 39 72  1  0  0  0  0
 39 85  2  0  0  0  0
 40 76  1  0  0  0  0
 40 80  2  0  0  0  0
 41 55  1  0  0  0  0
 41 78  1  0  0  0  0
 41 86  2  0  0  0  0
 42 65  1  0  0  0  0
 42 73  1  0  0  0  0
 42 87  2  0  0  0  0
 43 66  1  0  0  0  0
 43 79  1  0  0  0  0
 43 88  2  0  0  0  0
 44 48  1  0  0  0  0
 45 55  1  0  0  0  0
 46 73  1  0  0  0  0
 47 71  1  0  0  0  0
 48 50  1  0  0  0  0
 49 51  1  0  0  0  0
 49 52  1  0  0  0  0
 50 54  1  0  0  0  0
 51 56  1  0  0  0  0
 52 72  1  0  0  0  0
 53 56  1  0  0  0  0
 53 72  1  0  0  0  0
 54 78  1  0  0  0  0
 55 73  1  0  0  0  0
 56 70  1  0  0  0  0
 57 66  1  0  0  0  0
 58 67  1  0  0  0  0
 59 67  1  0  0  0  0
 60 67  1  0  0  0  0
 61 68  1  0  0  0  0
 62 68  1  0  0  0  0
 63 81  1  0  0  0  0
 64 68  1  0  0  0  0
 64 77  1  0  0  0  0
 65 67  1  0  0  0  0
 65 79  1  0  0  0  0
 66 81  1  0  0  0  0
 68 90  1  0  0  0  0
 69 70  1  0  0  0  0
M  CHG  2  80   1  81   1
M  ISO  4  39 100  40 100  68 101  90 101
M  END
> <Batch ID>
0079

> <Smiles>
C=C1C(=O)CN(c2c(F)cc(N[100C:0](=N)[100C:0](=O)N3CCCC(n4nc(-c5ccc(Oc6ccc(F)cc6F)cc5)c(C(N)=O)c4N)C3)cc2NC[101C:1](C)(C)[101O:1]c2ccc3c(c2)CN(C(=O)C(NC(=O)C(C)NC)C(C)(C)C)C(C(=O)NC2CCCc4ccccc42)C3)C1=O

> <Shape>
0.262

> <Color>
0.090

> <Negative vol penalty>
0.000

$$$$

  -OEChem-04042323593D

 83 91  0     1  0  0  0  0  0999 V2000
  -24.1898  -32.7161   32.3416 C   0  0  0  0  0  0  0  0  0  0  0  0
  -24.6397  -31.4620   31.9412 C   0  0  0  0  0  0  0  0  0  0  0  0
  -30.9822  -19.3849   20.6894 C   0  0  0  0  0  0  0  0  0  0  0  0
  -23.1851   -9.7992   19.9133 C   0  0  0  0  0  0  0  0  0  0  0  0
  -23.8732   -9.8704   22.2281 C   0  0  0  0  0  0  0  0  0  0  0  0
  -23.2325  -33.3872   31.5820 C   0  0  0  0  0  0  0  0  0  0  0  0
  -24.1316  -30.8779   30.7814 C   0  0  0  0  0  0  0  0  0  0  0  0
  -27.1552  -27.3093   26.8280 C   0  0  0  0  0  0  0  0  0  0  0  0
  -30.1904  -20.1518   21.5441 C   0  0  0  0  0  0  0  0  0  0  0  0
  -30.8746  -17.9942   20.6993 C   0  0  0  0  0  0  0  0  0  0  0  0
  -22.4869   -8.6166   20.1572 C   0  0  0  0  0  0  0  0  0  0  0  0
  -23.1749   -8.6878   22.4720 C   0  0  0  0  0  0  0  0  0  0  0  0
  -27.2174  -25.9252   26.6719 C   0  0  0  0  0  0  0  0  0  0  0  0
  -19.9692   -7.7513   22.9886 C   0  0  0  0  0  0  0  0  0  0  0  0
  -19.1792   -7.6919   24.1366 C   0  0  0  0  0  0  0  0  0  0  0  0
  -25.5075  -26.0460   24.9746 C   0  0  0  0  0  0  0  0  0  0  0  0
  -20.4838   -5.8228   24.9376 C   0  0  0  0  0  0  0  0  0  0  0  0
  -23.8783  -10.4261   20.9487 C   0  0  0  0  0  0  0  0  0  0  0  0
  -24.1091  -12.9625   20.8030 C   0  0  0  0  0  0  0  0  0  0  0  0
  -22.7195  -32.8152   30.4071 C   0  0  0  0  0  0  0  0  0  0  0  0
  -26.2594  -28.0721   26.0651 C   0  0  0  0  0  0  0  0  0  0  0  0
  -23.1656  -31.5414   30.0061 C   0  0  0  0  0  0  0  0  0  0  0  0
  -25.4376  -27.4398   25.1211 C   0  0  0  0  0  0  0  0  0  0  0  0
  -29.2911  -19.5280   22.4089 C   0  0  0  0  0  0  0  0  0  0  0  0
  -29.9753  -17.3704   21.5641 C   0  0  0  0  0  0  0  0  0  0  0  0
  -22.4817   -8.0609   21.4365 C   0  0  0  0  0  0  0  0  0  0  0  0
  -26.3914  -25.2930   25.7471 C   0  0  0  0  0  0  0  0  0  0  0  0
  -21.0164   -6.8464   22.8150 C   0  0  0  0  0  0  0  0  0  0  0  0
  -19.4366   -6.7277   25.1112 C   0  0  0  0  0  0  0  0  0  0  0  0
  -21.2738   -5.8822   23.7895 C   0  0  0  0  0  0  0  0  0  0  0  0
  -29.1836  -18.1373   22.4189 C   0  0  0  0  0  0  0  0  0  0  0  0
  -24.6003  -11.6474   20.6973 C   0  0  0  0  0  0  0  0  0  0  0  0
  -25.1769  -13.7563   20.4621 C   0  0  0  0  0  0  0  0  0  0  0  0
  -27.4861  -22.1343   24.4174 C   0  0  0  0  0  0  0  0  0  0  0  0
  -27.3243  -23.4366   24.6728 C   0  0  0  0  0  0  0  0  0  1  0  0
  -22.8043  -13.4251   21.1762 C   0  0  0  0  0  0  0  0  0  0  0  0
  -28.4730  -21.6938   23.3886 C   0  0  0  0  0  0  0  0  0  0  0  0
  -23.7828  -29.9510   26.7285 C   0  0  0  0  0  0  0  0  0  0  0  0
  -23.8932  -30.5637   23.5450 C   0  0  0  0  0  0  0  0  0  0  0  0
  -24.8258  -29.5355   20.4274 C   0  0  0  0  0  0  0  0  0  0  0  0
  -30.5822  -15.0525   20.7861 C   0  0  0  0  0  0  0  0  0  0  0  0
  -21.6513  -33.5581   29.6444 C   0  0  0  0  0  0  0  0  0  0  0  0
  -26.2234  -29.5671   26.2264 C   0  0  0  0  0  0  0  0  0  0  0  0
  -24.4731  -28.2156   24.2631 C   0  0  0  0  0  0  0  0  0  0  0  0
  -21.4389  -33.0337   28.2266 C   0  0  0  0  0  0  0  0  0  0  0  0
  -29.6514  -12.5600   18.4201 C   0  0  0  0  0  0  0  0  0  0  0  0
  -21.3536  -31.5107   28.2280 C   0  0  0  0  0  0  0  0  0  0  0  0
  -28.2139  -12.2086   18.8103 C   0  0  0  0  0  0  0  0  0  0  0  0
  -30.5179  -12.8458   19.6453 C   0  0  0  0  0  0  0  0  0  0  0  0
  -28.5386  -13.5002   20.9582 C   0  0  0  0  0  0  0  0  0  0  0  0
  -22.6567  -30.8857   28.7407 C   0  0  1  0  0  0  0  0  0  0  0  0
  -24.9090  -30.1868   25.7621 C   0  0  1  0  0  0  0  0  0  0  0  0
  -27.6112  -13.2675   19.7542 C   0  0  2  0  0  0  0  0  0  0  0  0
  -24.7471  -30.2321   18.0178 C   0  0  0  0  0  0  0  0  0  0  0  0
  -20.9426  -29.7963   23.4221 C   0  0  0  0  0  0  0  0  0  0  0  0
  -21.1720  -29.5883   20.9377 C   0  0  0  0  0  0  0  0  0  0  0  0
  -21.5603  -31.7899   22.0443 C   0  0  0  0  0  0  0  0  0  0  0  0
  -27.7780  -29.5779   20.2228 C   0  0  0  0  0  0  0  0  0  0  0  0
  -23.2704  -29.9477   22.3155 C   0  0  1  0  0  0  0  0  0  0  0  0
  -25.5550  -30.2535   19.3061 C   0  0  2  0  0  0  0  0  0  0  0  0
  -21.7530  -30.2654   22.1973 C   0  0  0  0  0  0  0  0  0  0  0  0
  -25.8804  -11.6040   20.3186 N   0  0  0  0  0  0  0  0  0  0  0  0
  -26.2027  -12.9017   20.1834 N   0  0  0  0  0  0  0  0  0  0  0  0
  -24.4705  -29.6743   24.4624 N   0  0  0  0  0  0  0  0  0  0  0  0
  -29.8862  -13.8612   20.4907 N   0  0  0  0  0  0  0  0  0  0  0  0
  -25.3290  -15.0949   20.3765 N   0  0  0  0  0  0  0  0  0  0  0  0
  -21.8247  -12.4751   21.4958 N   0  0  0  0  0  0  0  0  0  0  0  0
  -28.4885  -20.3100   23.2754 N   0  0  0  0  0  0  0  0  0  0  0  0
  -29.8689  -15.9575   21.5714 N   0  0  0  0  0  0  0  0  0  0  0  0
  -23.6722  -30.9173   27.7101 N   0  0  0  0  0  0  0  0  0  0  0  0
  -24.0667  -30.4049   21.1819 N   0  0  0  0  0  0  0  0  0  0  0  0
  -26.8716  -29.6056   19.0461 N   0  3  0  0  0  0  0  0  0  0  0  0
  -22.5110  -14.6443   21.2088 O   0  0  0  0  0  0  0  0  0  0  0  0
  -29.1460  -22.5062   22.7652 O   0  0  0  0  0  0  0  0  0  0  0  0
  -23.0664  -28.9661   26.5928 O   0  0  0  0  0  0  0  0  0  0  0  0
  -23.8746  -31.7894   23.6829 O   0  0  0  0  0  0  0  0  0  0  0  0
  -24.9173  -28.3240   20.6129 O   0  0  0  0  0  0  0  0  0  0  0  0
  -31.7164  -15.2665   20.3503 O   0  0  0  0  0  0  0  0  0  0  0  0
  -21.8002   -6.9071   21.6750 O   0  0  0  0  0  0  0  0  0  0  0  0
  -26.4496  -23.9422   25.5932 O   0  0  0  0  0  0  0  0  0  1  0  0
  -18.6789   -6.6718   26.2143 F   0  0  0  0  0  0  0  0  0  0  0  0
  -22.2792   -5.0109   23.6288 F   0  0  0  0  0  0  0  0  0  0  0  0
  -28.3190  -17.5373   23.2516 F   0  0  0  0  0  0  0  0  0  0  0  0
  1  2  1  0  0  0  0
  1  6  2  0  0  0  0
  2  7  2  0  0  0  0
  3  9  2  0  0  0  0
  3 10  1  0  0  0  0
  4 11  2  0  0  0  0
  4 18  1  0  0  0  0
  5 12  1  0  0  0  0
  5 18  2  0  0  0  0
  6 20  1  0  0  0  0
  7 22  1  0  0  0  0
  8 13  2  0  0  0  0
  8 21  1  0  0  0  0
  9 24  1  0  0  0  0
 10 25  2  0  0  0  0
 11 26  1  0  0  0  0
 12 26  2  0  0  0  0
 13 27  1  0  0  0  0
 14 15  2  0  0  0  0
 14 28  1  0  0  0  0
 15 29  1  0  0  0  0
 16 23  1  0  0  0  0
 16 27  2  0  0  0  0
 17 29  2  0  0  0  0
 17 30  1  0  0  0  0
 18 32  1  0  0  0  0
 19 32  1  0  0  0  0
 19 33  2  0  0  0  0
 19 36  1  0  0  0  0
 20 22  2  0  0  0  0
 20 42  1  0  0  0  0
 21 23  2  0  0  0  0
 21 43  1  0  0  0  0
 22 51  1  0  0  0  0
 23 44  1  0  0  0  0
 24 31  2  0  0  0  0
 24 68  1  0  0  0  0
 25 31  1  0  0  0  0
 25 69  1  0  0  0  0
 26 79  1  0  0  0  0
 27 80  1  0  0  0  0
 28 30  2  0  0  0  0
 28 79  1  0  0  0  0
 29 81  1  0  0  0  0
 30 82  1  0  0  0  0
 31 83  1  0  0  0  0
 32 62  2  0  0  0  0
 33 63  1  0  0  0  0
 33 66  1  0  0  0  0
 34 35  2  0  0  0  0
 34 37  1  0  0  0  0
 35 80  1  0  0  0  0
 36 67  1  0  0  0  0
 36 73  2  0  0  0  0
 37 68  1  0  0  0  0
 37 74  2  0  0  0  0
 38 52  1  0  0  0  0
 38 70  1  0  0  0  0
 38 75  2  0  0  0  0
 39 59  1  0  0  0  0
 39 64  1  0  0  0  0
 39 76  2  0  0  0  0
 40 60  1  0  0  0  0
 40 71  1  0  0  0  0
 40 77  2  0  0  0  0
 41 65  1  0  0  0  0
 41 69  1  0  0  0  0
 41 78  2  0  0  0  0
 42 45  1  0  0  0  0
 43 52  1  0  0  0  0
 44 64  1  0  0  0  0
 45 47  1  0  0  0  0
 46 48  1  0  0  0  0
 46 49  1  0  0  0  0
 47 51  1  0  0  0  0
 48 53  1  0  0  0  0
 49 65  1  0  0  0  0
 50 53  1  0  0  0  0
 50 65  1  0  0  0  0
 51 70  1  0  0  0  0
 52 64  1  0  0  0  0
 53 63  1  0  0  0  0
 54 60  1  0  0  0  0
 55 61  1  0  0  0  0
 56 61  1  0  0  0  0
 57 61  1  0  0  0  0
 58 72  1  0  0  0  0
 59 61  1  0  0  0  0
 59 71  1  0  0  0  0
 60 72  1  0  0  0  0
 62 63  1  0  0  0  0
M  CHG  1  72   1
M  ISO  4  35 101  41 100  69 100  80 101
M  END
> <Batch ID>
0079

> <Smiles>
CNC(C)C(=O)NC(C(=O)N1Cc2cc([101O:1][101CH:1]=CC(=O)Nc3cccc([100NH:0][100C:0](=O)N4CCCC(n5nc(-c6ccc(Oc7ccc(F)cc7F)cc6)c(C(N)=O)c5N)C4)c3F)ccc2CC1C(=O)NC1CCCc2ccccc21)C(C)(C)C

> <Shape>
0.267

> <Color>
0.205

> <Negative vol penalty>
0.000

$$$$

  -OEChem-04042323593D

 86 94  0     1  0  0  0  0  0999 V2000
  -27.8449  -25.1114   16.2662 C   0  0  0  0  0  0  0  0  0  0  0  0
  -26.6932  -25.2509   17.0341 C   0  0  0  0  0  0  0  0  0  0  0  0
  -27.2054  -12.7179   20.2874 C   0  0  0  0  0  0  0  0  0  0  0  0
  -24.9377  -13.5469   20.2006 C   0  0  0  0  0  0  0  0  0  0  0  0
  -22.2310  -22.2353   21.1973 C   0  0  0  0  0  0  0  0  0  0  0  0
  -23.8108  -23.6131   22.3985 C   0  0  0  0  0  0  0  0  0  0  0  0
  -29.0581  -25.6149   16.7335 C   0  0  0  0  0  0  0  0  0  0  0  0
  -26.7544  -25.8931   18.2703 C   0  0  0  0  0  0  0  0  0  0  0  0
  -22.9527  -29.1692   18.9479 C   0  0  0  0  0  0  0  0  0  0  0  0
  -23.2846  -21.4982   20.6570 C   0  0  0  0  0  0  0  0  0  0  0  0
  -24.8645  -22.8760   21.8582 C   0  0  0  0  0  0  0  0  0  0  0  0
  -26.7741  -11.6152   21.0247 C   0  0  0  0  0  0  0  0  0  0  0  0
  -24.5064  -12.4441   20.9379 C   0  0  0  0  0  0  0  0  0  0  0  0
  -21.7098  -28.6398   19.2926 C   0  0  0  0  0  0  0  0  0  0  0  0
  -22.7521   -9.6626   22.4883 C   0  0  0  0  0  0  0  0  0  0  0  0
  -21.5978   -9.0067   22.0605 C   0  0  0  0  0  0  0  0  0  0  0  0
  -22.1168  -29.2039   21.6024 C   0  0  0  0  0  0  0  0  0  0  0  0
  -22.6551   -8.5285   19.9413 C   0  0  0  0  0  0  0  0  0  0  0  0
  -26.2872  -13.6838   19.8754 C   0  0  0  0  0  0  0  0  0  0  0  0
  -22.4940  -23.2928   22.0680 C   0  0  0  0  0  0  0  0  0  0  0  0
  -26.8234  -14.9269   17.7133 C   0  0  0  0  0  0  0  0  0  0  0  0
  -29.1324  -26.2722   17.9717 C   0  0  0  0  0  0  0  0  0  0  0  0
  -23.7930  -29.7109   19.9312 C   0  0  0  0  0  0  0  0  0  0  0  0
  -27.9701  -26.4047   18.7552 C   0  0  0  0  0  0  0  0  0  0  0  0
  -23.3688  -29.7418   21.2673 C   0  0  0  0  0  0  0  0  0  0  0  0
  -24.6014  -21.8185   20.9874 C   0  0  0  0  0  0  0  0  0  0  0  0
  -25.4246  -11.4783   21.3499 C   0  0  0  0  0  0  0  0  0  0  0  0
  -21.2929  -28.6545   20.6204 C   0  0  0  0  0  0  0  0  0  0  0  0
  -23.8579   -9.7515   21.6426 C   0  0  0  0  0  0  0  0  0  0  0  0
  -21.5493   -8.4397   20.7870 C   0  0  0  0  0  0  0  0  0  0  0  0
  -23.8093   -9.1844   20.3692 C   0  0  0  0  0  0  0  0  0  0  0  0
  -26.7322  -14.8234   19.1143 C   0  0  0  0  0  0  0  0  0  0  0  0
  -27.2955  -16.1977   17.4928 C   0  0  0  0  0  0  0  0  0  0  0  0
  -21.3780  -24.0738   22.6403 C   0  0  0  0  0  0  0  0  0  0  0  0
  -26.5094  -13.9607   16.7016 C   0  0  0  0  0  0  0  0  0  0  0  0
  -26.6930  -29.0186   21.0333 C   0  0  0  0  0  0  0  0  0  0  0  0
  -26.2757  -31.7523   22.7289 C   0  0  0  0  0  0  0  0  0  0  0  0
  -24.1144  -34.0060   24.1061 C   0  0  0  0  0  0  0  0  0  0  0  0
  -19.4248  -25.5378   22.1540 C   0  0  0  0  0  0  0  0  0  0  0  0
  -27.0355  -21.2561   20.6631 C   0  0  0  0  0  0  0  0  0  0  0  0
  -30.4754  -26.7580   18.4563 C   0  0  0  0  0  0  0  0  0  0  0  0
  -25.1194  -30.3022   19.5393 C   0  0  0  0  0  0  0  0  0  0  0  0
  -24.2249  -30.3303   22.3578 C   0  0  0  0  0  0  0  0  0  0  0  0
  -30.3829  -27.7562   19.6076 C   0  0  0  0  0  0  0  0  0  0  0  0
  -29.9779  -19.6019   19.5302 C   0  0  0  0  0  0  0  0  0  0  0  0
  -29.4048  -27.2595   20.6675 C   0  0  0  0  0  0  0  0  0  0  0  0
  -29.4866  -18.2001   19.1617 C   0  0  0  0  0  0  0  0  0  0  0  0
  -29.2583  -20.1496   20.7615 C   0  0  0  0  0  0  0  0  0  0  0  0
  -27.3008  -18.7210   20.3183 C   0  0  0  0  0  0  0  0  0  0  0  0
  -27.9913  -27.1170   20.0903 C   0  0  1  0  0  0  0  0  0  0  0  0
  -26.1119  -30.3626   20.6963 C   0  0  1  0  0  0  0  0  0  0  0  0
  -27.9504  -18.1537   19.0456 C   0  0  2  0  0  0  0  0  0  0  0  0
  -24.0691  -36.1158   25.4641 C   0  0  0  0  0  0  0  0  0  0  0  0
  -17.4823  -26.9664   21.5033 C   0  0  0  0  0  0  0  0  0  0  0  0
  -18.1057  -24.9886   20.1055 C   0  0  0  0  0  0  0  0  0  0  0  0
  -26.9329  -30.1476   25.2394 C   0  0  0  0  0  0  0  0  0  0  0  0
  -25.9614  -32.0109   26.6004 C   0  0  0  0  0  0  0  0  0  0  0  0
  -27.9559  -32.4283   25.1616 C   0  0  0  0  0  0  0  0  0  0  0  0
  -22.7517  -35.5036   21.9476 C   0  0  0  0  0  0  0  0  0  0  0  0
  -19.5834  -27.0672   20.1577 C   0  0  0  0  0  0  0  0  0  1  0  0
  -25.6953  -32.0943   24.0799 C   0  0  1  0  0  0  0  0  0  0  0  0
  -24.0786  -35.5230   24.0636 C   0  0  2  0  0  0  0  0  0  0  0  0
  -18.6604  -26.1332   20.9654 C   0  0  0  0  0  0  0  0  0  0  0  0
  -26.6208  -31.6574   25.2503 C   0  0  0  0  0  0  0  0  0  0  0  0
  -27.1157  -15.9395   19.7398 N   0  0  0  0  0  0  0  0  0  0  0  0
  -27.4526  -16.7563   18.7271 N   0  0  0  0  0  0  0  0  0  0  0  0
  -25.5159  -30.8905   21.9253 N   0  0  0  0  0  0  0  0  0  0  0  0
  -27.8072  -20.0779   20.5778 N   0  0  0  0  0  0  0  0  0  0  0  0
  -27.5875  -16.8806   16.3656 N   0  0  0  0  0  0  0  0  0  0  0  0
  -26.0355  -12.7039   17.1020 N   0  0  0  0  0  0  0  0  0  0  0  0
  -25.6719  -21.0697   20.4386 N   0  0  0  0  0  0  0  0  0  0  0  0
  -20.5588  -24.7134   21.7945 N   0  0  0  0  0  0  0  0  0  0  0  0
  -27.3561  -28.4130   19.9831 N   0  0  0  0  0  0  0  0  0  0  0  0
  -25.4049  -33.5237   24.0494 N   0  0  0  0  0  0  0  0  0  0  0  0
  -21.2501  -24.0934   23.9666 N   0  3  0  0  0  0  0  0  0  0  0  0
  -22.8597  -35.9925   23.3463 N   0  3  0  0  0  0  0  0  0  0  0  0
  -26.6606  -14.1988   15.4793 O   0  0  0  0  0  0  0  0  0  0  0  0
  -26.5515  -28.5653   22.1630 O   0  0  0  0  0  0  0  0  0  0  0  0
  -27.3596  -32.2378   22.3959 O   0  0  0  0  0  0  0  0  0  0  0  0
  -23.0992  -33.3177   24.1856 O   0  0  0  0  0  0  0  0  0  0  0  0
  -19.1278  -25.7106   23.3290 O   0  0  0  0  0  0  0  0  0  0  0  0
  -27.5504  -22.3540   20.8898 O   0  0  0  0  0  0  0  0  0  0  0  0
  -25.0034  -10.4023   22.0692 O   0  0  0  0  0  0  0  0  0  0  0  0
  -20.0805  -28.1378   20.9596 O   0  0  0  0  0  0  0  0  0  1  0  0
  -20.4413   -7.8085   20.3768 F   0  0  0  0  0  0  0  0  0  0  0  0
  -24.8689   -9.2655   19.5527 F   0  0  0  0  0  0  0  0  0  0  0  0
  1  2  1  0  0  0  0
  1  7  2  0  0  0  0
  2  8  2  0  0  0  0
  3 12  2  0  0  0  0
  3 19  1  0  0  0  0
  4 13  1  0  0  0  0
  4 19  2  0  0  0  0
  5 10  2  0  0  0  0
  5 20  1  0  0  0  0
  6 11  1  0  0  0  0
  6 20  2  0  0  0  0
  7 22  1  0  0  0  0
  8 24  1  0  0  0  0
  9 14  2  0  0  0  0
  9 23  1  0  0  0  0
 10 26  1  0  0  0  0
 11 26  2  0  0  0  0
 12 27  1  0  0  0  0
 13 27  2  0  0  0  0
 14 28  1  0  0  0  0
 15 16  2  0  0  0  0
 15 29  1  0  0  0  0
 16 30  1  0  0  0  0
 17 25  1  0  0  0  0
 17 28  2  0  0  0  0
 18 30  2  0  0  0  0
 18 31  1  0  0  0  0
 19 32  1  0  0  0  0
 20 34  1  0  0  0  0
 21 32  1  0  0  0  0
 21 33  2  0  0  0  0
 21 35  1  0  0  0  0
 22 24  2  0  0  0  0
 22 41  1  0  0  0  0
 23 25  2  0  0  0  0
 23 42  1  0  0  0  0
 24 50  1  0  0  0  0
 25 43  1  0  0  0  0
 26 71  1  0  0  0  0
 27 83  1  0  0  0  0
 28 84  1  0  0  0  0
 29 31  2  0  0  0  0
 29 83  1  0  0  0  0
 30 85  1  0  0  0  0
 31 86  1  0  0  0  0
 32 65  2  0  0  0  0
 33 66  1  0  0  0  0
 33 69  1  0  0  0  0
 34 72  1  0  0  0  0
 34 75  2  0  0  0  0
 35 70  1  0  0  0  0
 35 77  2  0  0  0  0
 36 51  1  0  0  0  0
 36 73  1  0  0  0  0
 36 78  2  0  0  0  0
 37 61  1  0  0  0  0
 37 67  1  0  0  0  0
 37 79  2  0  0  0  0
 38 62  1  0  0  0  0
 38 74  1  0  0  0  0
 38 80  2  0  0  0  0
 39 63  1  0  0  0  0
 39 72  1  0  0  0  0
 39 81  2  0  0  0  0
 40 68  1  0  0  0  0
 40 71  1  0  0  0  0
 40 82  2  0  0  0  0
 41 44  1  0  0  0  0
 42 51  1  0  0  0  0
 43 67  1  0  0  0  0
 44 46  1  0  0  0  0
 45 47  1  0  0  0  0
 45 48  1  0  0  0  0
 46 50  1  0  0  0  0
 47 52  1  0  0  0  0
 48 68  1  0  0  0  0
 49 52  1  0  0  0  0
 49 68  1  0  0  0  0
 50 73  1  0  0  0  0
 51 67  1  0  0  0  0
 52 66  1  0  0  0  0
 53 62  1  0  0  0  0
 54 63  1  0  0  0  0
 55 63  1  0  0  0  0
 56 64  1  0  0  0  0
 57 64  1  0  0  0  0
 58 64  1  0  0  0  0
 59 76  1  0  0  0  0
 60 63  1  0  0  0  0
 60 84  1  0  0  0  0
 61 64  1  0  0  0  0
 61 74  1  0  0  0  0
 62 76  1  0  0  0  0
 65 66  1  0  0  0  0
M  CHG  2  75   1  76   1
M  ISO  4  40 100  60 101  71 100  84 101
M  END
> <Batch ID>
0079

> <Smiles>
CNC(C)C(=O)NC(C(=O)N1Cc2cc([101O:1][101CH2:1]C(C)(C)C(=O)NC(=N)c3ccc([100NH:0][100C:0](=O)N4CCCC(n5nc(-c6ccc(Oc7ccc(F)cc7F)cc6)c(C(N)=O)c5N)C4)cc3)ccc2CC1C(=O)NC1CCCc2ccccc21)C(C)(C)C

> <Shape>
0.321

> <Color>
0.082

> <Negative vol penalty>
0.000

$$$$

  -OEChem-04042323593D

 87 96  0     1  0  0  0  0  0999 V2000
  -28.8949  -36.6858   18.9472 C   0  0  0  0  0  0  0  0  0  0  0  0
  -29.1115  -35.3213   18.7839 C   0  0  0  0  0  0  0  0  0  0  0  0
  -23.4321   -9.2898   20.4107 C   0  0  0  0  0  0  0  0  0  0  0  0
  -23.1117  -10.9021   22.1812 C   0  0  0  0  0  0  0  0  0  0  0  0
  -28.2003  -37.1516   20.0628 C   0  0  0  0  0  0  0  0  0  0  0  0
  -28.6346  -34.4218   19.7368 C   0  0  0  0  0  0  0  0  0  0  0  0
  -26.5082  -28.7687   18.7239 C   0  0  0  0  0  0  0  0  0  0  0  0
  -22.6407   -8.3729   21.1025 C   0  0  0  0  0  0  0  0  0  0  0  0
  -22.3202   -9.9852   22.8730 C   0  0  0  0  0  0  0  0  0  0  0  0
  -27.0981  -27.5105   18.8367 C   0  0  0  0  0  0  0  0  0  0  0  0
  -22.9899   -6.2494   23.7089 C   0  0  0  0  0  0  0  0  0  0  0  0
  -23.4490   -4.9353   23.7975 C   0  0  0  0  0  0  0  0  0  0  0  0
  -26.1553  -27.2732   21.0445 C   0  0  0  0  0  0  0  0  0  0  0  0
  -28.4142  -20.1927   19.9303 C   0  0  0  0  0  0  0  0  0  0  0  0
  -30.4570  -18.4184   20.6097 C   0  0  0  0  0  0  0  0  0  0  0  0
  -21.4609   -4.1641   22.6617 C   0  0  0  0  0  0  0  0  0  0  0  0
  -23.6676  -10.5544   20.9501 C   0  0  0  0  0  0  0  0  0  0  0  0
  -24.0564  -12.4537   19.2920 C   0  0  0  0  0  0  0  0  0  0  0  0
  -27.7063  -36.2567   21.0250 C   0  0  0  0  0  0  0  0  0  0  0  0
  -25.7452  -29.2941   19.7766 C   0  0  0  0  0  0  0  0  0  0  0  0
  -27.9339  -34.8762   20.8670 C   0  0  0  0  0  0  0  0  0  0  0  0
  -25.5547  -28.5373   20.9415 C   0  0  0  0  0  0  0  0  0  0  0  0
  -29.6003  -20.6740   20.4844 C   0  0  0  0  0  0  0  0  0  0  0  0
  -28.2494  -18.8243   19.7159 C   0  0  0  0  0  0  0  0  0  0  0  0
  -29.2708  -17.9371   20.0556 C   0  0  0  0  0  0  0  0  0  0  0  0
  -22.0847   -8.7206   22.3336 C   0  0  0  0  0  0  0  0  0  0  0  0
  -26.9241  -26.7637   19.9983 C   0  0  0  0  0  0  0  0  0  0  0  0
  -21.7663   -6.5209   23.0967 C   0  0  0  0  0  0  0  0  0  0  0  0
  -22.6845   -3.8926   23.2739 C   0  0  0  0  0  0  0  0  0  0  0  0
  -30.6217  -19.7868   20.8241 C   0  0  0  0  0  0  0  0  0  0  0  0
  -21.0018   -5.4783   22.5731 C   0  0  0  0  0  0  0  0  0  0  0  0
  -24.4855  -11.5018   20.2362 C   0  0  0  0  0  0  0  0  0  0  0  0
  -25.2059  -13.1017   18.9110 C   0  0  0  0  0  0  0  0  0  0  0  0
  -29.4166  -24.3123   20.7946 C   0  0  0  0  0  0  0  0  0  0  0  0
  -30.7350  -24.0825   21.3298 C   0  0  0  0  0  0  0  0  0  0  0  0
  -28.7993  -23.0170   20.3949 C   0  0  0  0  0  0  0  0  0  0  0  0
  -31.6095  -24.9800   21.7971 C   0  0  0  0  0  0  0  0  0  0  0  0
  -28.7582  -25.4608   20.6378 C   0  0  0  0  0  0  0  0  0  1  0  0
  -22.7367  -12.7276   18.8031 C   0  0  0  0  0  0  0  0  0  0  0  0
  -25.9778  -31.8436   21.6606 C   0  0  0  0  0  0  0  0  0  0  0  0
  -23.0735  -30.8496   22.7091 C   0  0  0  0  0  0  0  0  0  0  0  0
  -20.8592  -28.2833   23.1061 C   0  0  0  0  0  0  0  0  0  0  0  0
  -30.0560  -15.5449   20.1401 C   0  0  0  0  0  0  0  0  0  0  0  0
  -27.0025  -36.8109   22.2383 C   0  0  0  0  0  0  0  0  0  0  0  0
  -25.0935  -30.6416   19.6286 C   0  0  0  0  0  0  0  0  0  0  0  0
  -24.7280  -29.0476   22.0924 C   0  0  0  0  0  0  0  0  0  0  0  0
  -30.9797  -22.6048   21.2758 C   0  0  0  0  0  0  0  0  0  0  0  0
  -26.2043  -35.7638   23.0108 C   0  0  0  0  0  0  0  0  0  0  0  0
  -30.0628  -11.9993   19.8148 C   0  0  0  0  0  0  0  0  0  0  0  0
  -27.0352  -34.5004   23.2116 C   0  0  0  0  0  0  0  0  0  0  0  0
  -28.5771  -11.6321   19.8178 C   0  0  0  0  0  0  0  0  0  0  0  0
  -30.3623  -13.1589   20.7632 C   0  0  0  0  0  0  0  0  0  0  0  0
  -28.0516  -13.9893   20.5624 C   0  0  0  0  0  0  0  0  0  0  0  0
  -27.4106  -33.8674   21.8663 C   0  0  1  0  0  0  0  0  0  0  0  0
  -24.7630  -31.2956   20.9666 C   0  0  1  0  0  0  0  0  0  0  0  0
  -27.6904  -12.8689   19.5735 C   0  0  2  0  0  0  0  0  0  0  0  0
  -18.5834  -27.7703   24.0306 C   0  0  0  0  0  0  0  0  0  0  0  0
  -24.2097  -30.9227   25.5399 C   0  0  0  0  0  0  0  0  0  0  0  0
  -22.2660  -29.5295   26.2812 C   0  0  0  0  0  0  0  0  0  0  0  0
  -21.8781  -31.8022   25.3287 C   0  0  0  0  0  0  0  0  0  0  0  0
  -19.8440  -27.4448   20.4556 C   0  0  0  0  0  0  0  0  0  0  0  0
  -22.5898  -29.9211   23.7967 C   0  0  1  0  0  0  0  0  0  0  0  0
  -19.3767  -28.1752   22.7980 C   0  0  2  0  0  0  0  0  0  0  0  0
  -22.7532  -30.5348   25.2159 C   0  0  0  0  0  0  0  0  0  0  0  0
  -25.8047  -11.5384   20.4423 N   0  0  0  0  0  0  0  0  0  0  0  0
  -26.2144  -12.5210   19.6222 N   0  0  0  0  0  0  0  0  0  0  0  0
  -29.7619  -22.0391   20.6985 N   0  0  0  0  0  0  0  0  0  0  0  0
  -24.1165  -30.3732   21.9022 N   0  0  0  0  0  0  0  0  0  0  0  0
  -29.4876  -14.2963   20.4697 N   0  0  0  0  0  0  0  0  0  0  0  0
  -27.0401  -18.3584   19.1529 N   0  0  0  0  0  0  0  0  0  0  0  0
  -25.4423  -14.1059   18.0402 N   0  0  0  0  0  0  0  0  0  0  0  0
  -21.6689  -11.9682   19.3004 N   0  0  0  0  0  0  0  0  0  0  0  0
  -29.1264  -16.5428   19.8491 N   0  0  0  0  0  0  0  0  0  0  0  0
  -26.2835  -33.1462   21.3150 N   0  0  0  0  0  0  0  0  0  0  0  0
  -21.2165  -29.5692   23.4522 N   0  0  0  0  0  0  0  0  0  0  0  0
  -19.1416  -27.1594   21.7332 N   0  3  0  0  0  0  0  0  0  0  0  0
  -27.6901  -22.8713   19.9092 O   0  0  0  0  0  0  0  0  0  0  0  0
  -22.5133  -13.6084   17.9383 O   0  0  0  0  0  0  0  0  0  0  0  0
  -26.5914  -31.1375   22.4521 O   0  0  0  0  0  0  0  0  0  0  0  0
  -22.5405  -31.9541   22.5757 O   0  0  0  0  0  0  0  0  0  0  0  0
  -21.6232  -27.3221   23.0493 O   0  0  0  0  0  0  0  0  0  0  0  0
  -31.2777  -15.7092   20.0912 O   0  0  0  0  0  0  0  0  0  0  0  0
  -21.3122   -7.8262   23.0088 O   0  0  0  0  0  0  0  0  0  0  0  0
  -27.4992  -25.5356   20.1113 O   0  0  0  0  0  0  0  0  0  1  0  0
  -23.1263   -2.6309   23.3578 F   0  0  0  0  0  0  0  0  0  0  0  0
  -31.7663  -20.2381   21.3568 F   0  0  0  0  0  0  0  0  0  0  0  0
  -19.8260   -5.7331   21.9828 F   0  0  0  0  0  0  0  0  0  0  0  0
  1  2  1  0  0  0  0
  1  5  2  0  0  0  0
  2  6  2  0  0  0  0
  3  8  2  0  0  0  0
  3 17  1  0  0  0  0
  4  9  1  0  0  0  0
  4 17  2  0  0  0  0
  5 19  1  0  0  0  0
  6 21  1  0  0  0  0
  7 10  2  0  0  0  0
  7 20  1  0  0  0  0
  8 26  1  0  0  0  0
  9 26  2  0  0  0  0
 10 27  1  0  0  0  0
 11 12  2  0  0  0  0
 11 28  1  0  0  0  0
 12 29  1  0  0  0  0
 13 22  1  0  0  0  0
 13 27  2  0  0  0  0
 14 23  1  0  0  0  0
 14 24  2  0  0  0  0
 15 25  2  0  0  0  0
 15 30  1  0  0  0  0
 16 29  2  0  0  0  0
 16 31  1  0  0  0  0
 17 32  1  0  0  0  0
 18 32  1  0  0  0  0
 18 33  2  0  0  0  0
 18 39  1  0  0  0  0
 19 21  2  0  0  0  0
 19 44  1  0  0  0  0
 20 22  2  0  0  0  0
 20 45  1  0  0  0  0
 21 54  1  0  0  0  0
 22 46  1  0  0  0  0
 23 30  2  0  0  0  0
 23 67  1  0  0  0  0
 24 25  1  0  0  0  0
 24 70  1  0  0  0  0
 25 73  1  0  0  0  0
 26 83  1  0  0  0  0
 27 84  1  0  0  0  0
 28 31  2  0  0  0  0
 28 83  1  0  0  0  0
 29 85  1  0  0  0  0
 30 86  1  0  0  0  0
 31 87  1  0  0  0  0
 32 65  2  0  0  0  0
 33 66  1  0  0  0  0
 33 71  1  0  0  0  0
 34 35  1  0  0  0  0
 34 36  1  0  0  0  0
 34 38  2  0  0  0  0
 35 37  2  0  0  0  0
 35 47  1  0  0  0  0
 36 67  1  0  0  0  0
 36 77  2  0  0  0  0
 38 84  1  0  0  0  0
 39 72  1  0  0  0  0
 39 78  2  0  0  0  0
 40 55  1  0  0  0  0
 40 74  1  0  0  0  0
 40 79  2  0  0  0  0
 41 62  1  0  0  0  0
 41 68  1  0  0  0  0
 41 80  2  0  0  0  0
 42 63  1  0  0  0  0
 42 75  1  0  0  0  0
 42 81  2  0  0  0  0
 43 69  1  0  0  0  0
 43 73  1  0  0  0  0
 43 82  2  0  0  0  0
 44 48  1  0  0  0  0
 45 55  1  0  0  0  0
 46 68  1  0  0  0  0
 47 67  1  0  0  0  0
 48 50  1  0  0  0  0
 49 51  1  0  0  0  0
 49 52  1  0  0  0  0
 50 54  1  0  0  0  0
 51 56  1  0  0  0  0
 52 69  1  0  0  0  0
 53 56  1  0  0  0  0
 53 69  1  0  0  0  0
 54 74  1  0  0  0  0
 55 68  1  0  0  0  0
 56 66  1  0  0  0  0
 57 63  1  0  0  0  0
 58 64  1  0  0  0  0
 59 64  1  0  0  0  0
 60 64  1  0  0  0  0
 61 76  1  0  0  0  0
 62 64  1  0  0  0  0
 62 75  1  0  0  0  0
 63 76  1  0  0  0  0
 65 66  1  0  0  0  0
M  CHG  1  76   1
M  ISO  4  38 101  43 100  73 100  84 101
M  END
> <Batch ID>
0079

> <Smiles>
C=C1CN(c2cc(N)c([100NH:0][100C:0](=O)N3CCCC(n4nc(-c5ccc(Oc6ccc(F)cc6F)cc5)c(C(N)=O)c4N)C3)cc2F)C(=O)C1=[101CH:1][101O:1]c1ccc2c(c1)CN(C(=O)C(NC(=O)C(C)NC)C(C)(C)C)C(C(=O)NC1CCCc3ccccc31)C2

> <Shape>
0.336

> <Color>
0.110

> <Negative vol penalty>
0.000

$$$$

  -OEChem-04042323593D

 82 90  0     1  0  0  0  0  0999 V2000
  -26.9631  -21.8088   17.1281 C   0  0  0  0  0  0  0  0  0  0  0  0
  -27.6728  -20.6669   17.4855 C   0  0  0  0  0  0  0  0  0  0  0  0
  -30.1889  -17.7317   22.6447 C   0  0  0  0  0  0  0  0  0  0  0  0
  -27.0982  -29.0903   20.4819 C   0  0  0  0  0  0  0  0  0  0  0  0
  -25.5859  -27.2632   20.0216 C   0  0  0  0  0  0  0  0  0  0  0  0
  -30.7039  -16.7406   21.8092 C   0  0  0  0  0  0  0  0  0  0  0  0
  -25.7530  -22.1011   17.7558 C   0  0  0  0  0  0  0  0  0  0  0  0
  -27.1732  -19.8171   18.4718 C   0  0  0  0  0  0  0  0  0  0  0  0
  -27.5100  -14.9321   17.1800 C   0  0  0  0  0  0  0  0  0  0  0  0
  -30.3388  -19.0766   22.3062 C   0  0  0  0  0  0  0  0  0  0  0  0
  -26.1410  -29.9972   20.0272 C   0  0  0  0  0  0  0  0  0  0  0  0
  -24.6287  -28.1702   19.5668 C   0  0  0  0  0  0  0  0  0  0  0  0
  -28.7598  -14.3262   17.3011 C   0  0  0  0  0  0  0  0  0  0  0  0
  -21.6515  -30.0307   18.6218 C   0  0  0  0  0  0  0  0  0  0  0  0
  -20.3360  -29.8560   19.0512 C   0  0  0  0  0  0  0  0  0  0  0  0
  -31.5191  -18.4392   20.2968 C   0  0  0  0  0  0  0  0  0  0  0  0
  -28.0736  -13.3433   19.3946 C   0  0  0  0  0  0  0  0  0  0  0  0
  -21.0500  -30.1157   21.3446 C   0  0  0  0  0  0  0  0  0  0  0  0
  -26.8207  -27.7233   20.4791 C   0  0  0  0  0  0  0  0  0  0  0  0
  -31.3690  -17.0943   20.6353 C   0  0  0  0  0  0  0  0  0  0  0  0
  -27.9773  -26.3150   22.2642 C   0  0  0  0  0  0  0  0  0  0  0  0
  -25.2335  -21.2493   18.7434 C   0  0  0  0  0  0  0  0  0  0  0  0
  -26.5348  -14.7567   18.1722 C   0  0  0  0  0  0  0  0  0  0  0  0
  -25.9556  -20.0989   19.1142 C   0  0  0  0  0  0  0  0  0  0  0  0
  -26.8113  -13.9460   19.2824 C   0  0  0  0  0  0  0  0  0  0  0  0
  -31.0040  -19.4303   21.1323 C   0  0  0  0  0  0  0  0  0  0  0  0
  -24.9062  -29.5372   19.5696 C   0  0  0  0  0  0  0  0  0  0  0  0
  -29.0427  -13.5340   18.4100 C   0  0  0  0  0  0  0  0  0  0  0  0
  -22.6664  -30.2478   19.5539 C   0  0  0  0  0  0  0  0  0  0  0  0
  -20.0352  -29.8985   20.4125 C   0  0  0  0  0  0  0  0  0  0  0  0
  -22.3656  -30.2903   20.9153 C   0  0  0  0  0  0  0  0  0  0  0  0
  -27.8093  -26.7859   20.9482 C   0  0  0  0  0  0  0  0  0  0  0  0
  -29.0427  -25.4516   22.1866 C   0  0  0  0  0  0  0  0  0  0  0  0
  -31.9123  -16.0468   19.7541 C   0  0  0  0  0  0  0  0  0  0  0  0
  -27.2365  -26.6298   23.4507 C   0  0  0  0  0  0  0  0  0  0  0  0
  -24.9922  -16.6910   20.1680 C   0  0  0  0  0  0  0  0  0  0  0  0
  -23.3395  -13.9937   20.8863 C   0  0  0  0  0  0  0  0  0  0  0  0
  -23.2529  -10.5829   20.9632 C   0  0  0  0  0  0  0  0  0  0  0  0
  -31.7887  -21.3185   19.6608 C   0  0  0  0  0  0  0  0  0  0  0  0
  -23.9448  -21.6318   19.4272 C   0  0  0  0  0  0  0  0  0  0  0  0
  -25.1823  -15.3955   18.0135 C   0  0  0  0  0  0  0  0  0  0  0  0
  -25.7917  -13.7097   20.3654 C   0  0  0  0  0  0  0  0  0  0  0  0
  -23.2996  -20.4825   20.1974 C   0  0  0  0  0  0  0  0  0  0  0  0
  -32.3392  -24.6165   18.4373 C   0  0  0  0  0  0  0  0  0  0  0  0
  -24.3406  -19.7556   21.0429 C   0  0  0  0  0  0  0  0  0  0  0  0
  -31.2236  -25.4362   19.0897 C   0  0  0  0  0  0  0  0  0  0  0  0
  -31.8651  -23.2150   18.0569 C   0  0  0  0  0  0  0  0  0  0  0  0
  -30.1237  -23.2741   19.7985 C   0  0  0  0  0  0  0  0  0  0  0  0
  -25.4342  -19.1395   20.1620 C   0  0  1  0  0  0  0  0  0  0  0  0
  -24.4430  -15.5660   19.3371 C   0  0  1  0  0  0  0  0  0  0  0  0
  -30.5718  -24.6711   20.2582 C   0  0  2  0  0  0  0  0  0  0  0  0
  -21.7831   -8.6645   21.6388 C   0  0  0  0  0  0  0  0  0  0  0  0
  -31.9508  -12.7072   16.8680 C   0  0  0  0  0  0  0  0  0  0  0  0
  -24.0220  -14.5056   23.8158 C   0  0  0  0  0  0  0  0  0  0  0  0
  -23.3780  -12.1367   24.3074 C   0  0  0  0  0  0  0  0  0  0  0  0
  -21.6797  -13.7286   23.4107 C   0  0  0  0  0  0  0  0  0  0  0  0
  -23.1422   -9.5418   18.1950 C   0  0  0  0  0  0  0  0  0  0  0  0
  -32.4069  -13.9290   19.0188 C   0  0  0  0  0  0  0  0  0  0  0  0
  -23.5041  -12.8728   21.8840 C   0  0  1  0  0  0  0  0  0  0  0  0
  -22.1978   -9.5916   20.5068 C   0  0  2  0  0  0  0  0  0  0  0  0
  -31.3730  -13.6166   17.9420 C   0  0  2  0  0  0  0  0  0  1  0  0
  -23.1661  -13.3167   23.3352 C   0  0  0  0  0  0  0  0  0  0  0  0
  -28.6970  -26.2650   20.0969 N   0  0  0  0  0  0  0  0  0  0  0  0
  -31.7930  -14.7954   20.0303 N   0  0  0  0  0  0  0  0  0  0  0  0
  -29.4331  -25.4579   20.8798 N   0  0  0  0  0  0  0  0  0  0  0  0
  -24.4862  -14.3609   20.1679 N   0  0  0  0  0  0  0  0  0  0  0  0
  -31.2628  -22.5492   19.2140 N   0  0  0  0  0  0  0  0  0  0  0  0
  -29.6744  -24.6954   23.1093 N   0  0  0  0  0  0  0  0  0  0  0  0
  -26.1722  -27.5364   23.3530 N   0  0  0  0  0  0  0  0  0  0  0  0
  -31.1559  -20.7965   20.7885 N   0  0  0  0  0  0  0  0  0  0  0  0
  -24.9573  -17.9221   19.5415 N   0  0  0  0  0  0  0  0  0  0  0  0
  -22.6902  -11.7662   21.3927 N   0  0  0  0  0  0  0  0  0  0  0  0
  -22.7189   -8.7600   19.3853 N   0  3  0  0  0  0  0  0  0  0  0  0
  -27.5207  -26.1347   24.5677 O   0  0  0  0  0  0  0  0  0  0  0  0
  -25.4149  -16.4594   21.2947 O   0  0  0  0  0  0  0  0  0  0  0  0
  -22.2326  -14.5192   20.7442 O   0  0  0  0  0  0  0  0  0  0  0  0
  -24.4558  -10.3314   20.9443 O   0  0  0  0  0  0  0  0  0  0  0  0
  -32.7485  -20.7816   19.1017 O   0  0  0  0  0  0  0  0  0  0  0  0
  -23.9719  -30.4219   19.1260 O   0  0  0  0  0  0  0  0  0  0  0  0
  -30.2620  -12.9419   18.5310 O   0  0  0  0  0  0  0  0  0  1  0  0
  -18.7715  -29.7323   20.8246 F   0  0  0  0  0  0  0  0  0  0  0  0
  -23.3361  -30.4997   21.8153 F   0  0  0  0  0  0  0  0  0  0  0  0
  1  2  1  0  0  0  0
  1  7  2  0  0  0  0
  2  8  2  0  0  0  0
  3  6  2  0  0  0  0
  3 10  1  0  0  0  0
  4 11  2  0  0  0  0
  4 19  1  0  0  0  0
  5 12  1  0  0  0  0
  5 19  2  0  0  0  0
  6 20  1  0  0  0  0
  7 22  1  0  0  0  0
  8 24  1  0  0  0  0
  9 13  2  0  0  0  0
  9 23  1  0  0  0  0
 10 26  2  0  0  0  0
 11 27  1  0  0  0  0
 12 27  2  0  0  0  0
 13 28  1  0  0  0  0
 14 15  2  0  0  0  0
 14 29  1  0  0  0  0
 15 30  1  0  0  0  0
 16 20  2  0  0  0  0
 16 26  1  0  0  0  0
 17 25  1  0  0  0  0
 17 28  2  0  0  0  0
 18 30  2  0  0  0  0
 18 31  1  0  0  0  0
 19 32  1  0  0  0  0
 20 34  1  0  0  0  0
 21 32  1  0  0  0  0
 21 33  2  0  0  0  0
 21 35  1  0  0  0  0
 22 24  2  0  0  0  0
 22 40  1  0  0  0  0
 23 25  2  0  0  0  0
 23 41  1  0  0  0  0
 24 49  1  0  0  0  0
 25 42  1  0  0  0  0
 26 70  1  0  0  0  0
 27 79  1  0  0  0  0
 28 80  1  0  0  0  0
 29 31  2  0  0  0  0
 29 79  1  0  0  0  0
 30 81  1  0  0  0  0
 31 82  1  0  0  0  0
 32 63  2  0  0  0  0
 33 65  1  0  0  0  0
 33 68  1  0  0  0  0
 34 64  2  0  0  0  0
 35 69  1  0  0  0  0
 35 74  2  0  0  0  0
 36 50  1  0  0  0  0
 36 71  1  0  0  0  0
 36 75  2  0  0  0  0
 37 59  1  0  0  0  0
 37 66  1  0  0  0  0
 37 76  2  0  0  0  0
 38 60  1  0  0  0  0
 38 72  1  0  0  0  0
 38 77  2  0  0  0  0
 39 67  1  0  0  0  0
 39 70  1  0  0  0  0
 39 78  2  0  0  0  0
 40 43  1  0  0  0  0
 41 50  1  0  0  0  0
 42 66  1  0  0  0  0
 43 45  1  0  0  0  0
 44 46  1  0  0  0  0
 44 47  1  0  0  0  0
 45 49  1  0  0  0  0
 46 51  1  0  0  0  0
 47 67  1  0  0  0  0
 48 51  1  0  0  0  0
 48 67  1  0  0  0  0
 49 71  1  0  0  0  0
 50 66  1  0  0  0  0
 51 65  1  0  0  0  0
 52 60  1  0  0  0  0
 53 61  1  0  0  0  0
 54 62  1  0  0  0  0
 55 62  1  0  0  0  0
 56 62  1  0  0  0  0
 57 73  1  0  0  0  0
 58 61  1  0  0  0  0
 58 64  1  0  0  0  0
 59 62  1  0  0  0  0
 59 72  1  0  0  0  0
 60 73  1  0  0  0  0
 61 80  1  0  0  0  0
 63 65  1  0  0  0  0
M  CHG  1  73   1
M  ISO  4  39 100  61 101  70 100  80 101
M  END
> <Batch ID>
0079

> <Smiles>
CNC(C)C(=O)NC(C(=O)N1Cc2cc([101O:1][101CH:1](C)CN=Cc3cccc([100NH:0][100C:0](=O)N4CCCC(n5nc(-c6ccc(Oc7ccc(F)cc7F)cc6)c(C(N)=O)c5N)C4)c3)ccc2CC1C(=O)NC1CCCc2ccccc21)C(C)(C)C

> <Shape>
0.234

> <Color>
0.074

> <Negative vol penalty>
0.000

$$$$

  -OEChem-04042323593D

 87 96  0     1  0  0  0  0  0999 V2000
  -19.8168  -30.4775   24.9376 C   0  0  0  0  0  0  0  0  0  0  0  0
  -21.1190  -30.2130   24.5254 C   0  0  0  0  0  0  0  0  0  0  0  0
  -24.6969  -13.8967   21.1167 C   0  0  0  0  0  0  0  0  0  0  0  0
  -26.6786  -13.3890   19.8312 C   0  0  0  0  0  0  0  0  0  0  0  0
  -18.7663  -29.6854   24.4760 C   0  0  0  0  0  0  0  0  0  0  0  0
  -21.3715  -29.1556   23.6521 C   0  0  0  0  0  0  0  0  0  0  0  0
  -24.5655  -30.4273   19.9338 C   0  0  0  0  0  0  0  0  0  0  0  0
  -24.1264  -12.6892   20.7142 C   0  0  0  0  0  0  0  0  0  0  0  0
  -26.1081  -12.1814   19.4288 C   0  0  0  0  0  0  0  0  0  0  0  0
  -25.9223  -30.4804   20.2502 C   0  0  0  0  0  0  0  0  0  0  0  0
  -24.3720   -9.4200   21.5420 C   0  0  0  0  0  0  0  0  0  0  0  0
  -23.7417   -8.6447   22.5152 C   0  0  0  0  0  0  0  0  0  0  0  0
  -26.2308  -28.2991   19.2675 C   0  0  0  0  0  0  0  0  0  0  0  0
  -32.8237  -23.4101   22.6265 C   0  0  0  0  0  0  0  0  0  0  0  0
  -30.9637  -23.2599   21.0919 C   0  0  0  0  0  0  0  0  0  0  0  0
  -32.2386  -21.2827   21.6421 C   0  0  0  0  0  0  0  0  0  0  0  0
  -21.6643   -8.7970   21.2912 C   0  0  0  0  0  0  0  0  0  0  0  0
  -25.9730  -14.2467   20.6751 C   0  0  0  0  0  0  0  0  0  0  0  0
  -27.3592  -15.7209   22.2283 C   0  0  0  0  0  0  0  0  0  0  0  0
  -19.0049  -28.6238   23.5891 C   0  0  0  0  0  0  0  0  0  0  0  0
  -24.0282  -29.3030   19.2904 C   0  0  0  0  0  0  0  0  0  0  0  0
  -20.3234  -28.3478   23.1793 C   0  0  0  0  0  0  0  0  0  0  0  0
  -24.8674  -28.2352   18.9417 C   0  0  0  0  0  0  0  0  0  0  0  0
  -31.7788  -24.0191   21.9315 C   0  0  0  0  0  0  0  0  0  0  0  0
  -33.0536  -22.0420   22.4817 C   0  0  0  0  0  0  0  0  0  0  0  0
  -31.1936  -21.8917   20.9472 C   0  0  0  0  0  0  0  0  0  0  0  0
  -24.8320  -11.8315   19.8703 C   0  0  0  0  0  0  0  0  0  0  0  0
  -26.7546  -29.4150   19.9197 C   0  0  0  0  0  0  0  0  0  0  0  0
  -23.6484   -9.8840   20.4434 C   0  0  0  0  0  0  0  0  0  0  0  0
  -22.3879   -8.3331   22.3898 C   0  0  0  0  0  0  0  0  0  0  0  0
  -22.2946   -9.5724   20.3180 C   0  0  0  0  0  0  0  0  0  0  0  0
  -26.5626  -15.4942   21.0900 C   0  0  0  0  0  0  0  0  0  0  0  0
  -27.6662  -17.0585   22.1717 C   0  0  0  0  0  0  0  0  0  0  0  0
  -30.6761  -27.5048   21.8876 C   0  0  0  0  0  0  0  0  0  0  0  0
  -31.7830  -27.6048   22.8054 C   0  0  0  0  0  0  0  0  0  0  0  0
  -30.5267  -26.0965   21.4257 C   0  0  0  0  0  0  0  0  0  0  0  0
  -32.2409  -28.6899   23.4388 C   0  0  0  0  0  0  0  0  0  0  0  0
  -29.8488  -28.4611   21.4520 C   0  0  0  0  0  0  0  0  0  0  0  0
  -27.7839  -14.8044   23.2459 C   0  0  0  0  0  0  0  0  0  0  0  0
  -21.8332  -27.1280   20.0352 C   0  0  0  0  0  0  0  0  0  0  0  0
  -22.3300  -26.1489   16.9829 C   0  0  0  0  0  0  0  0  0  0  0  0
  -24.4149  -26.0218   14.2840 C   0  0  0  0  0  0  0  0  0  0  0  0
  -29.2843  -21.5688   19.3358 C   0  0  0  0  0  0  0  0  0  0  0  0
  -17.8431  -27.7659   23.1545 C   0  0  0  0  0  0  0  0  0  0  0  0
  -22.5677  -29.2726   18.9320 C   0  0  0  0  0  0  0  0  0  0  0  0
  -24.3438  -27.0141   18.2323 C   0  0  0  0  0  0  0  0  0  0  0  0
  -32.3658  -26.2307   22.9421 C   0  0  0  0  0  0  0  0  0  0  0  0
  -18.1489  -26.8980   21.9365 C   0  0  0  0  0  0  0  0  0  0  0  0
  -25.8236  -20.7391   19.2256 C   0  0  0  0  0  0  0  0  0  0  0  0
  -19.4968  -26.2030   22.1011 C   0  0  0  0  0  0  0  0  0  0  0  0
  -25.7729  -19.3193   19.7944 C   0  0  0  0  0  0  0  0  0  0  0  0
  -27.0730  -20.9654   18.3761 C   0  0  0  0  0  0  0  0  0  0  0  0
  -28.2907  -19.2117   19.6052 C   0  0  0  0  0  0  0  0  0  0  0  0
  -20.6344  -27.2252   22.2134 C   0  0  1  0  0  0  0  0  0  0  0  0
  -22.0297  -27.8584   18.7370 C   0  0  1  0  0  0  0  0  0  0  0  0
  -27.0827  -18.9562   20.5212 C   0  0  2  0  0  0  0  0  0  0  0  0
  -24.5586  -25.1201   11.9465 C   0  0  0  0  0  0  0  0  0  0  0  0
  -22.8418  -23.3541   18.0951 C   0  0  0  0  0  0  0  0  0  0  0  0
  -23.8858  -22.7481   15.9016 C   0  0  0  0  0  0  0  0  0  0  0  0
  -21.4823  -23.4089   15.9967 C   0  0  0  0  0  0  0  0  0  0  0  0
  -24.6933  -28.7333   13.1310 C   0  0  0  0  0  0  0  0  0  0  0  0
  -28.7310  -28.2224   20.4917 C   0  0  0  0  0  0  0  0  0  1  0  0
  -23.2660  -25.1727   16.3122 C   0  0  1  0  0  0  0  0  0  0  0  0
  -24.1768  -26.3103   12.8128 C   0  0  2  0  0  0  0  0  0  0  0  0
  -22.8788  -23.6930   16.5915 C   0  0  0  0  0  0  0  0  0  0  0  0
  -26.3750  -16.5992   20.3635 N   0  0  0  0  0  0  0  0  0  0  0  0
  -27.0582  -17.5332   21.0469 N   0  0  0  0  0  0  0  0  0  0  0  0
  -31.5480  -25.3834   22.0763 N   0  0  0  0  0  0  0  0  0  0  0  0
  -22.9076  -27.0289   17.9090 N   0  0  0  0  0  0  0  0  0  0  0  0
  -28.2749  -20.6045   19.1311 N   0  0  0  0  0  0  0  0  0  0  0  0
  -34.1100  -21.4257   23.1842 N   0  0  0  0  0  0  0  0  0  0  0  0
  -28.3942  -17.8631   22.9748 N   0  0  0  0  0  0  0  0  0  0  0  0
  -27.3786  -13.4661   23.1510 N   0  0  0  0  0  0  0  0  0  0  0  0
  -30.3644  -21.1205   20.0955 N   0  0  0  0  0  0  0  0  0  0  0  0
  -20.9668  -27.7567   20.9090 N   0  0  0  0  0  0  0  0  0  0  0  0
  -23.2826  -25.5292   14.8976 N   0  0  0  0  0  0  0  0  0  0  0  0
  -24.9833  -27.4858   12.3783 N   0  3  0  0  0  0  0  0  0  0  0  0
  -29.6844  -25.6835   20.6463 O   0  0  0  0  0  0  0  0  0  0  0  0
  -28.4879  -15.1652   24.2194 O   0  0  0  0  0  0  0  0  0  0  0  0
  -22.4228  -26.0713   20.2292 O   0  0  0  0  0  0  0  0  0  0  0  0
  -21.1317  -26.1360   16.6904 O   0  0  0  0  0  0  0  0  0  0  0  0
  -25.4981  -26.2108   14.8330 O   0  0  0  0  0  0  0  0  0  0  0  0
  -29.1845  -22.7165   18.8945 O   0  0  0  0  0  0  0  0  0  0  0  0
  -24.2758  -10.6530   19.4776 O   0  0  0  0  0  0  0  0  0  0  0  0
  -28.0791  -29.4641   20.2280 O   0  0  0  0  0  0  0  0  0  1  0  0
  -21.7831   -7.5873   23.3237 F   0  0  0  0  0  0  0  0  0  0  0  0
  -21.5945  -10.0142   19.2642 F   0  0  0  0  0  0  0  0  0  0  0  0
  1  2  1  0  0  0  0
  1  5  2  0  0  0  0
  2  6  2  0  0  0  0
  3  8  2  0  0  0  0
  3 18  1  0  0  0  0
  4  9  1  0  0  0  0
  4 18  2  0  0  0  0
  5 20  1  0  0  0  0
  6 22  1  0  0  0  0
  7 10  2  0  0  0  0
  7 21  1  0  0  0  0
  8 27  1  0  0  0  0
  9 27  2  0  0  0  0
 10 28  1  0  0  0  0
 11 12  2  0  0  0  0
 11 29  1  0  0  0  0
 12 30  1  0  0  0  0
 13 23  1  0  0  0  0
 13 28  2  0  0  0  0
 14 24  1  0  0  0  0
 14 25  2  0  0  0  0
 15 24  2  0  0  0  0
 15 26  1  0  0  0  0
 16 25  1  0  0  0  0
 16 26  2  0  0  0  0
 17 30  2  0  0  0  0
 17 31  1  0  0  0  0
 18 32  1  0  0  0  0
 19 32  1  0  0  0  0
 19 33  2  0  0  0  0
 19 39  1  0  0  0  0
 20 22  2  0  0  0  0
 20 44  1  0  0  0  0
 21 23  2  0  0  0  0
 21 45  1  0  0  0  0
 22 54  1  0  0  0  0
 23 46  1  0  0  0  0
 24 68  1  0  0  0  0
 25 71  1  0  0  0  0
 26 74  1  0  0  0  0
 27 84  1  0  0  0  0
 28 85  1  0  0  0  0
 29 31  2  0  0  0  0
 29 84  1  0  0  0  0
 30 86  1  0  0  0  0
 31 87  1  0  0  0  0
 32 66  2  0  0  0  0
 33 67  1  0  0  0  0
 33 72  1  0  0  0  0
 34 35  1  0  0  0  0
 34 36  1  0  0  0  0
 34 38  2  0  0  0  0
 35 37  2  0  0  0  0
 35 47  1  0  0  0  0
 36 68  1  0  0  0  0
 36 78  2  0  0  0  0
 38 62  1  0  0  0  0
 39 73  1  0  0  0  0
 39 79  2  0  0  0  0
 40 55  1  0  0  0  0
 40 75  1  0  0  0  0
 40 80  2  0  0  0  0
 41 63  1  0  0  0  0
 41 69  1  0  0  0  0
 41 81  2  0  0  0  0
 42 64  1  0  0  0  0
 42 76  1  0  0  0  0
 42 82  2  0  0  0  0
 43 70  1  0  0  0  0
 43 74  1  0  0  0  0
 43 83  2  0  0  0  0
 44 48  1  0  0  0  0
 45 55  1  0  0  0  0
 46 69  1  0  0  0  0
 47 68  1  0  0  0  0
 48 50  1  0  0  0  0
 49 51  1  0  0  0  0
 49 52  1  0  0  0  0
 50 54  1  0  0  0  0
 51 56  1  0  0  0  0
 52 70  1  0  0  0  0
 53 56  1  0  0  0  0
 53 70  1  0  0  0  0
 54 75  1  0  0  0  0
 55 69  1  0  0  0  0
 56 67  1  0  0  0  0
 57 64  1  0  0  0  0
 58 65  1  0  0  0  0
 59 65  1  0  0  0  0
 60 65  1  0  0  0  0
 61 77  1  0  0  0  0
 62 85  1  0  0  0  0
 63 65  1  0  0  0  0
 63 76  1  0  0  0  0
 64 77  1  0  0  0  0
 66 67  1  0  0  0  0
M  CHG  1  77   1
M  ISO  4  43 100  62 101  74 100  85 101
M  END
> <Batch ID>
0079

> <Smiles>
C=C1CN(c2cc(N)cc([100NH:0][100C:0](=O)N3CCCC(n4nc(-c5ccc(Oc6ccc(F)cc6F)cc5)c(C(N)=O)c4N)C3)c2)C(=O)C1=C[101CH2:1][101O:1]c1ccc2c(c1)CN(C(=O)C(NC(=O)C(C)NC)C(C)(C)C)C(C(=O)NC1CCCc3ccccc31)C2

> <Shape>
0.239

> <Color>
0.071

> <Negative vol penalty>
0.000

$$$$

  -OEChem-04042323593D

 86 95  0     1  0  0  0  0  0999 V2000
  -31.1526  -35.1851   21.1772 C   0  0  0  0  0  0  0  0  0  0  0  0
  -30.9327  -33.8986   20.6955 C   0  0  0  0  0  0  0  0  0  0  0  0
  -24.7545   -8.7803   21.5827 C   0  0  0  0  0  0  0  0  0  0  0  0
  -23.1972  -10.2481   20.4613 C   0  0  0  0  0  0  0  0  0  0  0  0
  -30.5607  -35.5914   22.3724 C   0  0  0  0  0  0  0  0  0  0  0  0
  -30.1215  -33.0173   21.4094 C   0  0  0  0  0  0  0  0  0  0  0  0
  -26.3809  -28.7581   19.0914 C   0  0  0  0  0  0  0  0  0  0  0  0
  -23.7346   -8.3443   22.4284 C   0  0  0  0  0  0  0  0  0  0  0  0
  -22.1773   -9.8120   21.3070 C   0  0  0  0  0  0  0  0  0  0  0  0
  -26.5263  -27.3844   18.9026 C   0  0  0  0  0  0  0  0  0  0  0  0
  -21.1238   -6.2006   22.2830 C   0  0  0  0  0  0  0  0  0  0  0  0
  -21.0164   -4.8296   22.5157 C   0  0  0  0  0  0  0  0  0  0  0  0
  -25.3914  -26.9830   20.9931 C   0  0  0  0  0  0  0  0  0  0  0  0
  -25.3423  -19.9902   18.2319 C   0  0  0  0  0  0  0  0  0  0  0  0
  -27.2321  -18.6962   19.0009 C   0  0  0  0  0  0  0  0  0  0  0  0
  -25.4268  -17.6116   17.8170 C   0  0  0  0  0  0  0  0  0  0  0  0
  -21.3510   -5.2045   24.8789 C   0  0  0  0  0  0  0  0  0  0  0  0
  -24.4858   -9.7322   20.5991 C   0  0  0  0  0  0  0  0  0  0  0  0
  -25.9104   -9.6303   18.4854 C   0  0  0  0  0  0  0  0  0  0  0  0
  -29.7341  -34.7177   23.0963 C   0  0  0  0  0  0  0  0  0  0  0  0
  -25.7482  -29.2557   20.2397 C   0  0  0  0  0  0  0  0  0  0  0  0
  -29.5191  -33.4118   22.6161 C   0  0  0  0  0  0  0  0  0  0  0  0
  -25.2369  -28.3634   21.1929 C   0  0  0  0  0  0  0  0  0  0  0  0
  -26.5740  -19.9204   18.8829 C   0  0  0  0  0  0  0  0  0  0  0  0
  -24.7687  -18.8358   17.6990 C   0  0  0  0  0  0  0  0  0  0  0  0
  -26.6585  -17.5418   18.4680 C   0  0  0  0  0  0  0  0  0  0  0  0
  -22.4460   -8.8601   22.2906 C   0  0  0  0  0  0  0  0  0  0  0  0
  -26.0341  -26.4967   19.8549 C   0  0  0  0  0  0  0  0  0  0  0  0
  -21.3449   -7.0737   23.3482 C   0  0  0  0  0  0  0  0  0  0  0  0
  -21.1300   -4.3315   23.8137 C   0  0  0  0  0  0  0  0  0  0  0  0
  -21.4585   -6.5756   24.6461 C   0  0  0  0  0  0  0  0  0  0  0  0
  -25.5391  -10.1834   19.7256 C   0  0  0  0  0  0  0  0  0  0  0  0
  -26.9548  -10.4138   18.0589 C   0  0  0  0  0  0  0  0  0  0  0  0
  -27.5418  -23.2491   20.0451 C   0  0  0  0  0  0  0  0  0  0  0  0
  -28.6723  -22.4845   20.5087 C   0  0  0  0  0  0  0  0  0  0  0  0
  -26.5747  -22.3535   19.3512 C   0  0  0  0  0  0  0  0  0  0  0  0
  -29.7496  -22.9153   21.1736 C   0  0  0  0  0  0  0  0  0  0  0  0
  -27.2999  -24.5545   20.1653 C   0  0  0  0  0  0  0  0  0  1  0  0
  -25.3605   -8.5086   17.7819 C   0  0  0  0  0  0  0  0  0  0  0  0
  -26.6402  -31.0962   22.6729 C   0  0  0  0  0  0  0  0  0  0  0  0
  -23.4993  -30.9059   23.4611 C   0  0  0  0  0  0  0  0  0  0  0  0
  -20.5564  -29.1917   23.2433 C   0  0  0  0  0  0  0  0  0  0  0  0
  -28.5566  -16.0562   19.2004 C   0  0  0  0  0  0  0  0  0  0  0  0
  -29.1542  -35.1863   24.4074 C   0  0  0  0  0  0  0  0  0  0  0  0
  -25.5756  -30.7395   20.4156 C   0  0  0  0  0  0  0  0  0  0  0  0
  -24.5317  -28.8461   22.4331 C   0  0  0  0  0  0  0  0  0  0  0  0
  -28.4342  -21.0604   20.1063 C   0  0  0  0  0  0  0  0  0  0  0  0
  -28.0062  -34.3156   24.9115 C   0  0  0  0  0  0  0  0  0  0  0  0
  -30.5218  -13.1354   19.7333 C   0  0  0  0  0  0  0  0  0  0  0  0
  -28.3709  -32.8382   24.8066 C   0  0  0  0  0  0  0  0  0  0  0  0
  -29.5018  -11.9961   19.6729 C   0  0  0  0  0  0  0  0  0  0  0  0
  -29.9425  -14.3803   20.4028 C   0  0  0  0  0  0  0  0  0  0  0  0
  -27.6542  -13.7174   19.7759 C   0  0  0  0  0  0  0  0  0  0  0  0
  -28.6255  -32.4349   23.3491 C   0  0  1  0  0  0  0  0  0  0  0  0
  -25.3707  -31.1488   21.8709 C   0  0  1  0  0  0  0  0  0  0  0  0
  -28.1709  -12.4635   19.0516 C   0  0  2  0  0  0  0  0  0  0  0  0
  -18.1725  -29.2635   24.0238 C   0  0  0  0  0  0  0  0  0  0  0  0
  -24.3792  -29.9653   26.2271 C   0  0  0  0  0  0  0  0  0  0  0  0
  -22.0411  -29.1612   26.6209 C   0  0  0  0  0  0  0  0  0  0  0  0
  -22.4754  -31.5869   26.2334 C   0  0  0  0  0  0  0  0  0  0  0  0
  -19.5319  -29.3500   20.4712 C   0  0  0  0  0  0  0  0  0  0  0  0
  -22.6622  -29.9699   24.2989 C   0  0  1  0  0  0  0  0  0  0  0  0
  -19.1455  -29.6496   22.9206 C   0  0  2  0  0  0  0  0  0  0  0  0
  -22.9044  -30.1615   25.8228 C   0  0  0  0  0  0  0  0  0  0  0  0
  -26.2869  -11.2368   20.0649 N   0  0  0  0  0  0  0  0  0  0  0  0
  -27.1386  -11.3519   19.0317 N   0  0  0  0  0  0  0  0  0  0  0  0
  -27.1473  -21.0716   19.4135 N   0  0  0  0  0  0  0  0  0  0  0  0
  -24.3933  -30.3060   22.5628 N   0  0  0  0  0  0  0  0  0  0  0  0
  -28.6852  -14.7669   19.7590 N   0  0  0  0  0  0  0  0  0  0  0  0
  -23.5233  -18.9057   17.0407 N   0  0  0  0  0  0  0  0  0  0  0  0
  -27.7247  -10.3849   16.9504 N   0  0  0  0  0  0  0  0  0  0  0  0
  -24.2898   -7.8152   18.3627 N   0  0  0  0  0  0  0  0  0  0  0  0
  -27.3281  -16.2987   18.5867 N   0  0  0  0  0  0  0  0  0  0  0  0
  -27.3724  -32.2678   22.6447 N   0  0  0  0  0  0  0  0  0  0  0  0
  -21.2791  -30.1763   23.8832 N   0  0  0  0  0  0  0  0  0  0  0  0
  -18.6796  -29.0335   21.6461 N   0  3  0  0  0  0  0  0  0  0  0  0
  -25.5178  -22.6938   18.8466 O   0  0  0  0  0  0  0  0  0  0  0  0
  -25.8159   -8.1222   16.6788 O   0  0  0  0  0  0  0  0  0  0  0  0
  -26.9330  -30.0693   23.2741 O   0  0  0  0  0  0  0  0  0  0  0  0
  -23.3600  -32.1244   23.5934 O   0  0  0  0  0  0  0  0  0  0  0  0
  -20.9743  -28.0713   22.9596 O   0  0  0  0  0  0  0  0  0  0  0  0
  -29.4789  -16.8747   19.2380 O   0  0  0  0  0  0  0  0  0  0  0  0
  -21.4505   -8.4347   23.1155 O   0  0  0  0  0  0  0  0  0  0  0  0
  -26.1753  -25.1554   19.6734 O   0  0  0  0  0  0  0  0  0  1  0  0
  -21.0253   -3.0150   24.0373 F   0  0  0  0  0  0  0  0  0  0  0  0
  -21.6697   -7.4096   25.6736 F   0  0  0  0  0  0  0  0  0  0  0  0
  1  2  1  0  0  0  0
  1  5  2  0  0  0  0
  2  6  2  0  0  0  0
  3  8  2  0  0  0  0
  3 18  1  0  0  0  0
  4  9  1  0  0  0  0
  4 18  2  0  0  0  0
  5 20  1  0  0  0  0
  6 22  1  0  0  0  0
  7 10  2  0  0  0  0
  7 21  1  0  0  0  0
  8 27  1  0  0  0  0
  9 27  2  0  0  0  0
 10 28  1  0  0  0  0
 11 12  2  0  0  0  0
 11 29  1  0  0  0  0
 12 30  1  0  0  0  0
 13 23  1  0  0  0  0
 13 28  2  0  0  0  0
 14 24  1  0  0  0  0
 14 25  2  0  0  0  0
 15 24  2  0  0  0  0
 15 26  1  0  0  0  0
 16 25  1  0  0  0  0
 16 26  2  0  0  0  0
 17 30  2  0  0  0  0
 17 31  1  0  0  0  0
 18 32  1  0  0  0  0
 19 32  1  0  0  0  0
 19 33  2  0  0  0  0
 19 39  1  0  0  0  0
 20 22  2  0  0  0  0
 20 44  1  0  0  0  0
 21 23  2  0  0  0  0
 21 45  1  0  0  0  0
 22 54  1  0  0  0  0
 23 46  1  0  0  0  0
 24 67  1  0  0  0  0
 25 70  1  0  0  0  0
 26 73  1  0  0  0  0
 27 83  1  0  0  0  0
 28 84  1  0  0  0  0
 29 31  2  0  0  0  0
 29 83  1  0  0  0  0
 30 85  1  0  0  0  0
 31 86  1  0  0  0  0
 32 65  2  0  0  0  0
 33 66  1  0  0  0  0
 33 71  1  0  0  0  0
 34 35  1  0  0  0  0
 34 36  1  0  0  0  0
 34 38  2  0  0  0  0
 35 37  2  0  0  0  0
 35 47  1  0  0  0  0
 36 67  1  0  0  0  0
 36 77  2  0  0  0  0
 38 84  1  0  0  0  0
 39 72  1  0  0  0  0
 39 78  2  0  0  0  0
 40 55  1  0  0  0  0
 40 74  1  0  0  0  0
 40 79  2  0  0  0  0
 41 62  1  0  0  0  0
 41 68  1  0  0  0  0
 41 80  2  0  0  0  0
 42 63  1  0  0  0  0
 42 75  1  0  0  0  0
 42 81  2  0  0  0  0
 43 69  1  0  0  0  0
 43 73  1  0  0  0  0
 43 82  2  0  0  0  0
 44 48  1  0  0  0  0
 45 55  1  0  0  0  0
 46 68  1  0  0  0  0
 47 67  1  0  0  0  0
 48 50  1  0  0  0  0
 49 51  1  0  0  0  0
 49 52  1  0  0  0  0
 50 54  1  0  0  0  0
 51 56  1  0  0  0  0
 52 69  1  0  0  0  0
 53 56  1  0  0  0  0
 53 69  1  0  0  0  0
 54 74  1  0  0  0  0
 55 68  1  0  0  0  0
 56 66  1  0  0  0  0
 57 63  1  0  0  0  0
 58 64  1  0  0  0  0
 59 64  1  0  0  0  0
 60 64  1  0  0  0  0
 61 76  1  0  0  0  0
 62 64  1  0  0  0  0
 62 75  1  0  0  0  0
 63 76  1  0  0  0  0
 65 66  1  0  0  0  0
M  CHG  1  76   1
M  ISO  4  38 101  43 100  73 100  84 101
M  END
> <Batch ID>
0079

> <Smiles>
C=C1CN(c2cc(N)cc([100NH:0][100C:0](=O)N3CCCC(n4nc(-c5ccc(Oc6ccc(F)cc6F)cc5)c(C(N)=O)c4N)C3)c2)C(=O)C1=[101CH:1][101O:1]c1ccc2c(c1)CN(C(=O)C(NC(=O)C(C)NC)C(C)(C)C)C(C(=O)NC1CCCc3ccccc31)C2

> <Shape>
0.274

> <Color>
0.101

> <Negative vol penalty>
0.000

$$$$
