
  -OEChem-04052300023D

 85 94  0     1  0  0  0  0  0999 V2000
  -29.1274  -35.4435   22.5744 C   0  0  0  0  0  0  0  0  0  0  0  0
  -29.1305  -34.0534   22.5180 C   0  0  0  0  0  0  0  0  0  0  0  0
  -22.5906  -12.8389   18.5324 C   0  0  0  0  0  0  0  0  0  0  0  0
  -22.4499  -11.5765   20.5876 C   0  0  0  0  0  0  0  0  0  0  0  0
  -31.3458  -19.3830   20.4804 C   0  0  0  0  0  0  0  0  0  0  0  0
  -29.5100  -18.5304   19.1615 C   0  0  0  0  0  0  0  0  0  0  0  0
  -27.9760  -36.1213   22.9729 C   0  0  0  0  0  0  0  0  0  0  0  0
  -27.9824  -33.3403   22.8613 C   0  0  0  0  0  0  0  0  0  0  0  0
  -26.9553  -29.6180   19.5849 C   0  0  0  0  0  0  0  0  0  0  0  0
  -30.7260  -20.6313   20.5363 C   0  0  0  0  0  0  0  0  0  0  0  0
  -28.8901  -19.7788   19.2174 C   0  0  0  0  0  0  0  0  0  0  0  0
  -21.4361  -12.2097   18.0668 C   0  0  0  0  0  0  0  0  0  0  0  0
  -21.2953  -10.9473   20.1220 C   0  0  0  0  0  0  0  0  0  0  0  0
  -27.7060  -28.4483   19.6944 C   0  0  0  0  0  0  0  0  0  0  0  0
  -18.5146   -8.7454   19.3287 C   0  0  0  0  0  0  0  0  0  0  0  0
  -18.4136   -7.3651   19.5021 C   0  0  0  0  0  0  0  0  0  0  0  0
  -25.8883  -27.4005   20.8850 C   0  0  0  0  0  0  0  0  0  0  0  0
  -20.4082   -7.0524   18.1751 C   0  0  0  0  0  0  0  0  0  0  0  0
  -23.0976  -12.5222   19.7928 C   0  0  0  0  0  0  0  0  0  0  0  0
  -30.7378  -18.3326   19.7930 C   0  0  0  0  0  0  0  0  0  0  0  0
  -24.3684  -14.3666   21.0138 C   0  0  0  0  0  0  0  0  0  0  0  0
  -26.8103  -35.4165   23.3120 C   0  0  0  0  0  0  0  0  0  0  0  0
  -25.6676  -29.6915   20.1351 C   0  0  0  0  0  0  0  0  0  0  0  0
  -26.8148  -34.0092   23.2661 C   0  0  0  0  0  0  0  0  0  0  0  0
  -25.1224  -28.5715   20.7789 C   0  0  0  0  0  0  0  0  0  0  0  0
  -29.4982  -20.8292   19.9048 C   0  0  0  0  0  0  0  0  0  0  0  0
  -20.7884  -11.2639   18.8616 C   0  0  0  0  0  0  0  0  0  0  0  0
  -27.1736  -27.3402   20.3471 C   0  0  0  0  0  0  0  0  0  0  0  0
  -19.5624   -9.2793   18.5784 C   0  0  0  0  0  0  0  0  0  0  0  0
  -19.3604   -6.5186   18.9254 C   0  0  0  0  0  0  0  0  0  0  0  0
  -20.5092   -8.4328   18.0016 C   0  0  0  0  0  0  0  0  0  0  0  0
  -24.2905  -13.1714   20.2741 C   0  0  0  0  0  0  0  0  0  0  0  0
  -25.7129  -14.5544   21.2222 C   0  0  0  0  0  0  0  0  0  0  0  0
  -28.0325  -23.8694   19.9497 C   0  0  0  0  0  0  0  0  0  0  0  0
  -27.7210  -22.5289   19.4521 C   0  0  0  0  0  0  0  0  0  0  0  0
  -27.3981  -25.0548   19.9029 C   0  0  0  0  0  0  0  0  0  1  0  0
  -31.3980  -17.0031   19.7333 C   0  0  0  0  0  0  0  0  0  0  0  0
  -23.3192  -15.2299   21.4717 C   0  0  0  0  0  0  0  0  0  0  0  0
  -24.2881  -31.4604   22.3871 C   0  0  0  0  0  0  0  0  0  0  0  0
  -21.6028  -29.9381   21.3900 C   0  0  0  0  0  0  0  0  0  0  0  0
  -20.2089  -27.2191   19.8700 C   0  0  0  0  0  0  0  0  0  0  0  0
  -30.9628  -14.5835   19.4513 C   0  0  0  0  0  0  0  0  0  0  0  0
  -25.6046  -36.1909   23.7823 C   0  0  0  0  0  0  0  0  0  0  0  0
  -24.8604  -30.9518   19.9851 C   0  0  0  0  0  0  0  0  0  0  0  0
  -23.7368  -28.5924   21.3690 C   0  0  0  0  0  0  0  0  0  0  0  0
  -29.3299  -23.3310   20.5079 C   0  0  0  0  0  0  0  0  0  0  0  0
  -24.3140  -35.3758   23.7695 C   0  0  0  0  0  0  0  0  0  0  0  0
  -29.6377  -11.4539   20.4244 C   0  0  0  0  0  0  0  0  0  0  0  0
  -24.5422  -34.0048   24.3980 C   0  0  0  0  0  0  0  0  0  0  0  0
  -28.1343  -11.7190   20.5416 C   0  0  0  0  0  0  0  0  0  0  0  0
  -30.2585  -12.2148   19.2537 C   0  0  0  0  0  0  0  0  0  0  0  0
  -28.4841  -13.9180   19.3474 C   0  0  0  0  0  0  0  0  0  0  0  0
  -25.5814  -33.2013   23.6068 C   0  0  1  0  0  0  0  0  0  0  0  0
  -23.7588  -31.0840   21.0322 C   0  0  1  0  0  0  0  0  0  0  0  0
  -27.8255  -13.2296   20.5539 C   0  0  1  0  0  0  0  0  0  0  0  0
  -17.9870  -26.2405   19.2353 C   0  0  0  0  0  0  0  0  0  0  0  0
  -21.1280  -29.1379   24.2959 C   0  0  0  0  0  0  0  0  0  0  0  0
  -19.4941  -27.4235   23.4839 C   0  0  0  0  0  0  0  0  0  0  0  0
  -19.0725  -29.8452   23.0594 C   0  0  0  0  0  0  0  0  0  0  0  0
  -20.8873  -27.2505   16.9894 C   0  0  0  0  0  0  0  0  0  0  0  0
  -20.8952  -28.6597   21.7694 C   0  0  1  0  0  0  0  0  0  0  0  0
  -19.1555  -27.1024   18.7832 C   0  0  2  0  0  0  0  0  0  0  0  0
  -20.1743  -28.7665   23.1429 C   0  0  0  0  0  0  0  0  0  0  0  0
  -25.4900  -12.6376   20.0289 N   0  0  0  0  0  0  0  0  0  0  0  0
  -26.3344  -13.5015   20.6179 N   0  0  0  0  0  0  0  0  0  0  0  0
  -28.8876  -22.0606   19.9606 N   0  0  0  0  0  0  0  0  0  0  0  0
  -22.9895  -29.8498   21.2021 N   0  0  0  0  0  0  0  0  0  0  0  0
  -29.9278  -13.6381   19.3439 N   0  0  0  0  0  0  0  0  0  0  0  0
  -26.4123  -15.5159   21.8616 N   0  0  0  0  0  0  0  0  0  0  0  0
  -21.9937  -14.8885   21.1703 N   0  0  0  0  0  0  0  0  0  0  0  0
  -30.5425  -15.9125   19.5750 N   0  0  0  0  0  0  0  0  0  0  0  0
  -24.9883  -32.6516   22.4066 N   0  0  0  0  0  0  0  0  0  0  0  0
  -20.0119  -28.3357   20.6545 N   0  0  0  0  0  0  0  0  0  0  0  0
  -19.7422  -26.4927   17.5564 N   0  3  0  0  0  0  0  0  0  0  0  0
  -26.8051  -22.0346   18.8283 O   0  0  0  0  0  0  0  0  0  0  0  0
  -32.6234  -16.9411   19.7845 O   0  0  0  0  0  0  0  0  0  0  0  0
  -23.5512  -16.2818   22.1145 O   0  0  0  0  0  0  0  0  0  0  0  0
  -24.0756  -30.7254   23.3443 O   0  0  0  0  0  0  0  0  0  0  0  0
  -20.9483  -30.9753   21.2580 O   0  0  0  0  0  0  0  0  0  0  0  0
  -21.1137  -26.3994   20.0113 O   0  0  0  0  0  0  0  0  0  0  0  0
  -32.1568  -14.2687   19.4738 O   0  0  0  0  0  0  0  0  0  0  0  0
  -19.6617  -10.6499   18.4077 O   0  0  0  0  0  0  0  0  0  0  0  0
  -27.9044  -26.1974   20.4559 O   0  0  0  0  0  0  0  0  0  1  0  0
  -19.2642   -5.1932   19.0933 F   0  0  0  0  0  0  0  0  0  0  0  0
  -21.5186   -8.9399   17.2807 F   0  0  0  0  0  0  0  0  0  0  0  0
  1  2  1  0  0  0  0
  1  7  2  0  0  0  0
  2  8  2  0  0  0  0
  3 12  2  0  0  0  0
  3 19  1  0  0  0  0
  4 13  1  0  0  0  0
  4 19  2  0  0  0  0
  5 10  2  0  0  0  0
  5 20  1  0  0  0  0
  6 11  1  0  0  0  0
  6 20  2  0  0  0  0
  7 22  1  0  0  0  0
  8 24  1  0  0  0  0
  9 14  2  0  0  0  0
  9 23  1  0  0  0  0
 10 26  1  0  0  0  0
 11 26  2  0  0  0  0
 12 27  1  0  0  0  0
 13 27  2  0  0  0  0
 14 28  1  0  0  0  0
 15 16  2  0  0  0  0
 15 29  1  0  0  0  0
 16 30  1  0  0  0  0
 17 25  1  0  0  0  0
 17 28  2  0  0  0  0
 18 30  2  0  0  0  0
 18 31  1  0  0  0  0
 19 32  1  0  0  0  0
 20 37  1  0  0  0  0
 21 32  1  0  0  0  0
 21 33  2  0  0  0  0
 21 38  1  0  0  0  0
 22 24  2  0  0  0  0
 22 43  1  0  0  0  0
 23 25  2  0  0  0  0
 23 44  1  0  0  0  0
 24 53  1  0  0  0  0
 25 45  1  0  0  0  0
 26 66  1  0  0  0  0
 27 82  1  0  0  0  0
 28 83  1  0  0  0  0
 29 31  2  0  0  0  0
 29 82  1  0  0  0  0
 30 84  1  0  0  0  0
 31 85  1  0  0  0  0
 32 64  2  0  0  0  0
 33 65  1  0  0  0  0
 33 69  1  0  0  0  0
 34 35  1  0  0  0  0
 34 36  2  0  0  0  0
 34 46  1  0  0  0  0
 35 66  1  0  0  0  0
 35 75  2  0  0  0  0
 36 83  1  0  0  0  0
 37 71  1  0  0  0  0
 37 76  2  0  0  0  0
 38 70  1  0  0  0  0
 38 77  2  0  0  0  0
 39 54  1  0  0  0  0
 39 72  1  0  0  0  0
 39 78  2  0  0  0  0
 40 61  1  0  0  0  0
 40 67  1  0  0  0  0
 40 79  2  0  0  0  0
 41 62  1  0  0  0  0
 41 73  1  0  0  0  0
 41 80  2  0  0  0  0
 42 68  1  0  0  0  0
 42 71  1  0  0  0  0
 42 81  2  0  0  0  0
 43 47  1  0  0  0  0
 44 54  1  0  0  0  0
 45 67  1  0  0  0  0
 46 66  1  0  0  0  0
 47 49  1  0  0  0  0
 48 50  1  0  0  0  0
 48 51  1  0  0  0  0
 49 53  1  0  0  0  0
 50 55  1  0  0  0  0
 51 68  1  0  0  0  0
 52 55  1  0  0  0  0
 52 68  1  0  0  0  0
 53 72  1  0  0  0  0
 54 67  1  0  0  0  0
 55 65  1  0  0  0  0
 56 62  1  0  0  0  0
 57 63  1  0  0  0  0
 58 63  1  0  0  0  0
 59 63  1  0  0  0  0
 60 74  1  0  0  0  0
 61 63  1  0  0  0  0
 61 73  1  0  0  0  0
 62 74  1  0  0  0  0
 64 65  1  0  0  0  0
M  CHG  1  74   1
M  ISO  4  36 101  42 100  71 100  83 101
M  END
> <Batch ID>
0080

> <Smiles>
CNC(C)C(=O)NC(C(=O)N1Cc2cc([101O:1][101CH:1]=C3CN(c4ccc(C(=O)[100NH:0][100C:0](=O)N5CCCC(n6nc(-c7ccc(Oc8ccc(F)cc8F)cc7)c(C(N)=O)c6N)C5)cc4)C3=O)ccc2CC1C(=O)NC1CCCc2ccccc21)C(C)(C)C

> <Shape>
0.299

> <Color>
0.081

> <Negative vol penalty>
0.000

$$$$

  -OEChem-04052300023D

 86 94  0     1  0  0  0  0  0999 V2000
  -20.1077  -22.7843   20.1197 C   0  0  0  0  0  0  0  0  0  0  0  0
  -21.4757  -22.5847   19.9646 C   0  0  0  0  0  0  0  0  0  0  0  0
  -33.7272  -24.8128   17.4009 C   0  0  0  0  0  0  0  0  0  0  0  0
  -23.7797  -30.3062   21.1583 C   0  0  0  0  0  0  0  0  0  0  0  0
  -25.8753  -30.5498   22.3358 C   0  0  0  0  0  0  0  0  0  0  0  0
  -34.3228  -23.6137   17.7920 C   0  0  0  0  0  0  0  0  0  0  0  0
  -19.3622  -21.9109   20.9105 C   0  0  0  0  0  0  0  0  0  0  0  0
  -22.0993  -21.5122   20.6013 C   0  0  0  0  0  0  0  0  0  0  0  0
  -26.8000  -18.2043   18.4877 C   0  0  0  0  0  0  0  0  0  0  0  0
  -32.3675  -25.0236   17.6301 C   0  0  0  0  0  0  0  0  0  0  0  0
  -23.1614  -31.1452   22.0852 C   0  0  0  0  0  0  0  0  0  0  0  0
  -25.2569  -31.3889   23.2627 C   0  0  0  0  0  0  0  0  0  0  0  0
  -28.1707  -18.2562   18.7371 C   0  0  0  0  0  0  0  0  0  0  0  0
  -24.2739  -34.6178   23.4298 C   0  0  0  0  0  0  0  0  0  0  0  0
  -24.9425  -35.7879   23.7896 C   0  0  0  0  0  0  0  0  0  0  0  0
  -32.1990  -22.8359   18.6414 C   0  0  0  0  0  0  0  0  0  0  0  0
  -27.9289  -16.5190   20.3933 C   0  0  0  0  0  0  0  0  0  0  0  0
  -24.9836  -35.0563   26.0918 C   0  0  0  0  0  0  0  0  0  0  0  0
  -25.1367  -30.0084   21.2836 C   0  0  0  0  0  0  0  0  0  0  0  0
  -33.5587  -22.6252   18.4122 C   0  0  0  0  0  0  0  0  0  0  0  0
  -26.4069  -29.5187   19.1262 C   0  0  0  0  0  0  0  0  0  0  0  0
  -19.9753  -20.8216   21.5494 C   0  0  0  0  0  0  0  0  0  0  0  0
  -25.9803  -17.3155   19.1981 C   0  0  0  0  0  0  0  0  0  0  0  0
  -21.3616  -20.6242   21.4025 C   0  0  0  0  0  0  0  0  0  0  0  0
  -26.5485  -16.4560   20.1492 C   0  0  0  0  0  0  0  0  0  0  0  0
  -31.6034  -24.0351   18.2503 C   0  0  0  0  0  0  0  0  0  0  0  0
  -23.8999  -31.6866   23.1374 C   0  0  0  0  0  0  0  0  0  0  0  0
  -28.7349  -17.4155   19.6921 C   0  0  0  0  0  0  0  0  0  0  0  0
  -23.9601  -33.6670   24.4009 C   0  0  0  0  0  0  0  0  0  0  0  0
  -25.2974  -36.0071   25.1206 C   0  0  0  0  0  0  0  0  0  0  0  0
  -24.3150  -33.8863   25.7320 C   0  0  0  0  0  0  0  0  0  0  0  0
  -25.7759  -29.1413   20.3267 C   0  0  0  0  0  0  0  0  0  0  0  0
  -26.8495  -28.3366   18.5846 C   0  0  0  0  0  0  0  0  0  0  0  0
  -34.1964  -21.3444   18.8296 C   0  0  0  0  0  0  0  0  0  0  0  0
  -26.5777  -30.8213   18.5519 C   0  0  0  0  0  0  0  0  0  0  0  0
  -33.2210  -19.2638   18.8850 C   0  0  0  0  0  0  0  0  0  0  0  0
  -32.2832  -18.3293   19.5949 C   0  0  0  0  0  0  0  0  0  0  0  0
  -23.5213  -17.6339   21.1869 C   0  0  0  0  0  0  0  0  0  0  0  0
  -23.4315  -14.3983   20.9733 C   0  0  0  0  0  0  0  0  0  0  0  0
  -25.0955  -11.4905   20.3234 C   0  0  0  0  0  0  0  0  0  0  0  0
  -29.3212  -23.3726   19.0865 C   0  0  0  0  0  0  0  0  0  0  0  0
  -19.1365  -19.9318   22.4323 C   0  0  0  0  0  0  0  0  0  0  0  0
  -24.5077  -17.2530   18.8983 C   0  0  0  0  0  0  0  0  0  0  0  0
  -25.7152  -15.4696   20.9246 C   0  0  0  0  0  0  0  0  0  0  0  0
  -19.8068  -18.6025   22.7699 C   0  0  0  0  0  0  0  0  0  0  0  0
  -25.8536  -23.5447   19.8760 C   0  0  0  0  0  0  0  0  0  0  0  0
  -21.2551  -18.8271   23.1926 C   0  0  0  0  0  0  0  0  0  0  0  0
  -25.5762  -25.0471   19.9649 C   0  0  0  0  0  0  0  0  0  0  0  0
  -27.2348  -23.1896   20.4238 C   0  0  0  0  0  0  0  0  0  0  0  0
  -28.0702  -25.4546   19.9325 C   0  0  0  0  0  0  0  0  0  0  0  0
  -22.0698  -19.4579   22.0569 C   0  0  1  0  0  0  0  0  0  0  0  0
  -23.6885  -16.6706   20.0459 C   0  0  1  0  0  0  0  0  0  0  0  0
  -26.7166  -25.8691   19.3329 C   0  0  2  0  0  0  0  0  0  0  0  0
  -35.1712  -18.0366   17.9390 C   0  0  0  0  0  0  0  0  0  0  0  0
  -24.7673   -9.0032   20.2679 C   0  0  0  0  0  0  0  0  0  0  0  0
  -23.5347  -14.3192   24.0217 C   0  0  0  0  0  0  0  0  0  0  0  0
  -24.1576  -11.8992   23.8684 C   0  0  0  0  0  0  0  0  0  0  0  0
  -21.9569  -12.6769   22.9884 C   0  0  0  0  0  0  0  0  0  0  0  0
  -25.7403  -11.3531   17.4382 C   0  0  0  0  0  0  0  0  0  0  0  0
  -33.8655  -18.7437   17.6237 C   0  0  0  0  0  0  0  0  0  0  0  0
  -30.8381  -18.4010   19.1811 C   0  0  0  0  0  0  0  0  0  1  0  0
  -24.0708  -13.2589   21.7295 C   0  0  1  0  0  0  0  0  0  0  0  0
  -24.7331  -10.2932   19.4633 C   0  0  2  0  0  0  0  0  0  0  0  0
  -23.4457  -13.0584   23.1389 C   0  0  0  0  0  0  0  0  0  0  0  0
  -25.8122  -27.8226   20.5359 N   0  0  0  0  0  0  0  0  0  0  0  0
  -33.3691  -20.4282   19.4328 N   0  0  0  0  0  0  0  0  0  0  0  0
  -26.4712  -27.3610   19.4594 N   0  0  0  0  0  0  0  0  0  0  0  0
  -24.2794  -15.4508   20.6000 N   0  0  0  0  0  0  0  0  0  0  0  0
  -28.2649  -24.0046   19.7761 N   0  0  0  0  0  0  0  0  0  0  0  0
  -27.5214  -28.0469   17.4502 N   0  0  0  0  0  0  0  0  0  0  0  0
  -26.0615  -31.9278   19.2401 N   0  0  0  0  0  0  0  0  0  0  0  0
  -30.2223  -24.2494   18.4833 N   0  0  0  0  0  0  0  0  0  0  0  0
  -22.4188  -18.4587   21.0699 N   0  0  0  0  0  0  0  0  0  0  0  0
  -23.9765  -12.0896   20.8622 N   0  0  0  0  0  0  0  0  0  0  0  0
  -25.6885  -10.1637   18.3268 N   0  3  0  0  0  0  0  0  0  0  0  0
  -35.3849  -21.1549   18.5916 O   0  0  0  0  0  0  0  0  0  0  0  0
  -27.1560  -30.9970   17.4527 O   0  0  0  0  0  0  0  0  0  0  0  0
  -32.7557  -17.5756   20.4315 O   0  0  0  0  0  0  0  0  0  0  0  0
  -24.3316  -17.6281   22.1062 O   0  0  0  0  0  0  0  0  0  0  0  0
  -22.2258  -14.3528   20.7168 O   0  0  0  0  0  0  0  0  0  0  0  0
  -26.2553  -11.8553   20.5025 O   0  0  0  0  0  0  0  0  0  0  0  0
  -29.4042  -22.1439   19.0119 O   0  0  0  0  0  0  0  0  0  0  0  0
  -23.2969  -32.5056   24.0420 O   0  0  0  0  0  0  0  0  0  0  0  0
  -30.0724  -17.4645   19.9381 O   0  0  0  0  0  0  0  0  0  1  0  0
  -25.9409  -37.1300   25.4658 F   0  0  0  0  0  0  0  0  0  0  0  0
  -24.0172  -32.9759   26.6692 F   0  0  0  0  0  0  0  0  0  0  0  0
  1  2  1  0  0  0  0
  1  7  2  0  0  0  0
  2  8  2  0  0  0  0
  3  6  2  0  0  0  0
  3 10  1  0  0  0  0
  4 11  2  0  0  0  0
  4 19  1  0  0  0  0
  5 12  1  0  0  0  0
  5 19  2  0  0  0  0
  6 20  1  0  0  0  0
  7 22  1  0  0  0  0
  8 24  1  0  0  0  0
  9 13  2  0  0  0  0
  9 23  1  0  0  0  0
 10 26  2  0  0  0  0
 11 27  1  0  0  0  0
 12 27  2  0  0  0  0
 13 28  1  0  0  0  0
 14 15  2  0  0  0  0
 14 29  1  0  0  0  0
 15 30  1  0  0  0  0
 16 20  2  0  0  0  0
 16 26  1  0  0  0  0
 17 25  1  0  0  0  0
 17 28  2  0  0  0  0
 18 30  2  0  0  0  0
 18 31  1  0  0  0  0
 19 32  1  0  0  0  0
 20 34  1  0  0  0  0
 21 32  1  0  0  0  0
 21 33  2  0  0  0  0
 21 35  1  0  0  0  0
 22 24  2  0  0  0  0
 22 42  1  0  0  0  0
 23 25  2  0  0  0  0
 23 43  1  0  0  0  0
 24 51  1  0  0  0  0
 25 44  1  0  0  0  0
 26 72  1  0  0  0  0
 27 83  1  0  0  0  0
 28 84  1  0  0  0  0
 29 31  2  0  0  0  0
 29 83  1  0  0  0  0
 30 85  1  0  0  0  0
 31 86  1  0  0  0  0
 32 65  2  0  0  0  0
 33 67  1  0  0  0  0
 33 70  1  0  0  0  0
 34 66  1  0  0  0  0
 34 76  2  0  0  0  0
 35 71  1  0  0  0  0
 35 77  2  0  0  0  0
 36 37  1  0  0  0  0
 36 60  1  0  0  0  0
 36 66  2  0  0  0  0
 37 61  1  0  0  0  0
 37 78  2  0  0  0  0
 38 52  1  0  0  0  0
 38 73  1  0  0  0  0
 38 79  2  0  0  0  0
 39 62  1  0  0  0  0
 39 68  1  0  0  0  0
 39 80  2  0  0  0  0
 40 63  1  0  0  0  0
 40 74  1  0  0  0  0
 40 81  2  0  0  0  0
 41 69  1  0  0  0  0
 41 72  1  0  0  0  0
 41 82  2  0  0  0  0
 42 45  1  0  0  0  0
 43 52  1  0  0  0  0
 44 68  1  0  0  0  0
 45 47  1  0  0  0  0
 46 48  1  0  0  0  0
 46 49  1  0  0  0  0
 47 51  1  0  0  0  0
 48 53  1  0  0  0  0
 49 69  1  0  0  0  0
 50 53  1  0  0  0  0
 50 69  1  0  0  0  0
 51 73  1  0  0  0  0
 52 68  1  0  0  0  0
 53 67  1  0  0  0  0
 54 60  1  0  0  0  0
 55 63  1  0  0  0  0
 56 64  1  0  0  0  0
 57 64  1  0  0  0  0
 58 64  1  0  0  0  0
 59 75  1  0  0  0  0
 61 84  1  0  0  0  0
 62 64  1  0  0  0  0
 62 74  1  0  0  0  0
 63 75  1  0  0  0  0
 65 67  1  0  0  0  0
M  CHG  1  75   1
M  ISO  4  41 100  61 101  72 100  84 101
M  END
> <Batch ID>
0080

> <Smiles>
C=CC(NC(=O)c1cccc([100NH:0][100C:0](=O)N2CCCC(n3nc(-c4ccc(Oc5ccc(F)cc5F)cc4)c(C(N)=O)c3N)C2)c1)C(=O)[101CH2:1][101O:1]c1ccc2c(c1)CN(C(=O)C(NC(=O)C(C)NC)C(C)(C)C)C(C(=O)NC1CCCc3ccccc31)C2

> <Shape>
0.202

> <Color>
0.086

> <Negative vol penalty>
0.000

$$$$

  -OEChem-04052300023D

 93102  0     1  0  0  0  0  0999 V2000
  -21.4683  -29.5378   11.8433 C   0  0  0  0  0  0  0  0  0  0  0  0
  -22.1876  -28.7315   12.7197 C   0  0  0  0  0  0  0  0  0  0  0  0
  -24.8576   -8.7716   21.4077 C   0  0  0  0  0  0  0  0  0  0  0  0
  -23.2091  -10.2216   20.3992 C   0  0  0  0  0  0  0  0  0  0  0  0
  -21.8085  -30.8818   11.6959 C   0  0  0  0  0  0  0  0  0  0  0  0
  -23.2482  -29.2687   13.4483 C   0  0  0  0  0  0  0  0  0  0  0  0
  -24.9422  -27.7628   19.1377 C   0  0  0  0  0  0  0  0  0  0  0  0
  -23.8712   -7.8138   21.6430 C   0  0  0  0  0  0  0  0  0  0  0  0
  -22.2227   -9.2638   20.6344 C   0  0  0  0  0  0  0  0  0  0  0  0
  -25.9370  -26.9176   19.6275 C   0  0  0  0  0  0  0  0  0  0  0  0
  -21.3900   -7.2914   23.8779 C   0  0  0  0  0  0  0  0  0  0  0  0
  -21.3658   -6.6818   25.1322 C   0  0  0  0  0  0  0  0  0  0  0  0
  -28.2880  -17.7909   20.6118 C   0  0  0  0  0  0  0  0  0  0  0  0
  -28.5072  -20.0226   19.7127 C   0  0  0  0  0  0  0  0  0  0  0  0
  -27.4101  -28.8104   19.8848 C   0  0  0  0  0  0  0  0  0  0  0  0
  -21.6948   -4.5266   24.0911 C   0  0  0  0  0  0  0  0  0  0  0  0
  -24.5265   -9.9755   20.7858 C   0  0  0  0  0  0  0  0  0  0  0  0
  -28.4531  -18.6422   19.5193 C   0  0  0  0  0  0  0  0  0  0  0  0
  -26.3481  -11.6117   21.5016 C   0  0  0  0  0  0  0  0  0  0  0  0
  -22.8677  -31.4381   12.4303 C   0  0  0  0  0  0  0  0  0  0  0  0
  -25.1781  -29.1389   19.0073 C   0  0  0  0  0  0  0  0  0  0  0  0
  -23.6037  -30.6211   13.3096 C   0  0  0  0  0  0  0  0  0  0  0  0
  -26.4159  -29.6713   19.3955 C   0  0  0  0  0  0  0  0  0  0  0  0
  -28.2311  -19.7003   22.0911 C   0  0  0  0  0  0  0  0  0  0  0  0
  -28.1770  -18.3199   21.8977 C   0  0  0  0  0  0  0  0  0  0  0  0
  -28.3962  -20.5516   20.9986 C   0  0  0  0  0  0  0  0  0  0  0  0
  -22.5538   -8.0599   21.2564 C   0  0  0  0  0  0  0  0  0  0  0  0
  -27.1722  -27.4409   19.9984 C   0  0  0  0  0  0  0  0  0  0  0  0
  -21.5665   -6.5186   22.7301 C   0  0  0  0  0  0  0  0  0  0  0  0
  -21.5182   -5.2994   25.2389 C   0  0  0  0  0  0  0  0  0  0  0  0
  -21.7190   -5.1362   22.8368 C   0  0  0  0  0  0  0  0  0  0  0  0
  -25.5448  -10.9655   20.5430 C   0  0  0  0  0  0  0  0  0  0  0  0
  -27.1484  -12.4531   20.7682 C   0  0  0  0  0  0  0  0  0  0  0  0
  -26.5841  -16.1106   24.4360 C   0  0  0  0  0  0  0  0  0  0  0  0
  -25.3770  -16.2101   25.0124 C   0  0  0  0  0  0  0  0  0  0  0  0
  -28.1705  -25.3260   20.0316 C   0  0  0  0  0  0  0  0  0  1  0  0
  -28.5715  -18.0791   18.1497 C   0  0  0  0  0  0  0  0  0  0  0  0
  -26.3690  -11.4644   22.9277 C   0  0  0  0  0  0  0  0  0  0  0  0
  -28.6254  -24.3070   20.7707 C   0  0  0  0  0  0  0  0  0  0  0  0
  -28.6120  -22.9245   20.1903 C   0  0  0  0  0  0  0  0  0  0  0  0
  -25.2401  -31.1836   16.5744 C   0  0  0  0  0  0  0  0  0  0  0  0
  -25.5969  -33.3789   18.9356 C   0  0  0  0  0  0  0  0  0  0  0  0
  -26.5843  -34.0637   22.1299 C   0  0  0  0  0  0  0  0  0  0  0  0
  -27.9054  -16.1671   16.7270 C   0  0  0  0  0  0  0  0  0  0  0  0
  -23.2284  -32.8846   12.2021 C   0  0  0  0  0  0  0  0  0  0  0  0
  -24.0855  -30.0410   18.5024 C   0  0  0  0  0  0  0  0  0  0  0  0
  -26.7124  -31.1445   19.2942 C   0  0  0  0  0  0  0  0  0  0  0  0
  -27.7788  -15.5683   25.1712 C   0  0  0  0  0  0  0  0  0  0  0  0
  -26.8417  -16.5594   23.0187 C   0  0  0  0  0  0  0  0  0  0  0  0
  -24.1267  -33.4673   13.2901 C   0  0  0  0  0  0  0  0  0  0  0  0
  -28.9168  -16.5818   25.1046 C   0  0  0  0  0  0  0  0  0  0  0  0
  -27.8974  -12.7644   15.7685 C   0  0  0  0  0  0  0  0  0  0  0  0
  -25.2729  -32.5112   13.6048 C   0  0  0  0  0  0  0  0  0  0  0  0
  -27.3581  -12.0419   17.0061 C   0  0  0  0  0  0  0  0  0  0  0  0
  -29.2298  -16.9750   23.6603 C   0  0  0  0  0  0  0  0  0  0  0  0
  -27.1995  -14.1053   15.5453 C   0  0  0  0  0  0  0  0  0  0  0  0
  -26.6506  -14.2813   17.9381 C   0  0  0  0  0  0  0  0  0  0  0  0
  -24.7450  -31.1731   14.1360 C   0  0  1  0  0  0  0  0  0  0  0  0
  -24.6115  -31.3530   17.9285 C   0  0  1  0  0  0  0  0  0  0  0  0
  -27.3702  -12.9583   18.2461 C   0  0  1  0  0  0  0  0  0  0  0  0
  -28.1134  -20.2671   23.4720 C   0  0  0  0  0  0  0  0  0  0  0  0
  -26.7916  -35.9562   23.7647 C   0  0  0  0  0  0  0  0  0  0  0  0
  -28.0744  -34.3780   17.4612 C   0  0  0  0  0  0  0  0  0  0  0  0
  -28.7527  -35.5728   19.5542 C   0  0  0  0  0  0  0  0  0  0  0  0
  -26.6239  -36.1830   18.4059 C   0  0  0  0  0  0  0  0  0  0  0  0
  -24.7148  -32.7794   24.0311 C   0  0  0  0  0  0  0  0  0  0  0  0
  -26.7730  -33.9912   19.6573 C   0  0  1  0  0  0  0  0  0  0  0  0
  -25.9069  -34.8310   23.2509 C   0  0  2  0  0  0  0  0  0  0  0  0
  -27.5514  -35.0032   18.7699 C   0  0  0  0  0  0  0  0  0  0  0  0
  -25.8105  -11.3625   19.2956 N   0  0  0  0  0  0  0  0  0  0  0  0
  -26.7896  -12.2673   19.4655 N   0  0  0  0  0  0  0  0  0  0  0  0
  -28.0124  -17.4482   22.9822 N   0  0  1  0  0  0  0  0  0  0  0  0
  -25.6141  -31.9846   18.7887 N   0  0  0  0  0  0  0  0  0  0  0  0
  -27.2633  -14.9170   16.7620 N   0  0  0  0  0  0  0  0  0  0  0  0
  -28.1169  -13.3264   21.1169 N   0  0  0  0  0  0  0  0  0  0  0  0
  -25.5359  -12.2884   23.6967 N   0  0  0  0  0  0  0  0  0  0  0  0
  -28.4543  -21.9556   21.1717 N   0  0  0  0  0  0  0  0  0  0  0  0
  -27.9506  -16.8459   17.9499 N   0  0  0  0  0  0  0  0  0  0  0  0
  -24.3512  -31.2998   15.5228 N   0  0  0  0  0  0  0  0  0  0  0  0
  -26.2428  -34.5625   20.8906 N   0  0  0  0  0  0  0  0  0  0  0  0
  -25.5971  -33.9198   24.3888 N   0  3  0  0  0  0  0  0  0  0  0  0
  -29.1559  -18.7267   17.2854 O   0  0  0  0  0  0  0  0  0  0  0  0
  -27.1167  -10.6383   23.5039 O   0  0  0  0  0  0  0  0  0  0  0  0
  -28.7313  -22.7470   18.9828 O   0  0  0  0  0  0  0  0  0  0  0  0
  -26.4430  -30.9651   16.4897 O   0  0  0  0  0  0  0  0  0  0  0  0
  -24.6927  -34.1100   18.5239 O   0  0  0  0  0  0  0  0  0  0  0  0
  -27.3435  -33.1188   22.3333 O   0  0  0  0  0  0  0  0  0  0  0  0
  -28.4271  -16.6229   15.7046 O   0  0  0  0  0  0  0  0  0  0  0  0
  -29.1101  -24.4775   22.0516 O   0  0  0  0  0  0  0  0  0  0  0  0
  -21.5911   -7.1254   21.4856 O   0  0  0  0  0  0  0  0  0  0  0  0
  -28.1451  -26.6181   20.4761 O   0  0  0  0  0  0  0  0  0  1  0  0
  -21.4965   -4.7143   26.4436 F   0  0  0  0  0  0  0  0  0  0  0  0
  -21.8901   -4.3887   21.7378 F   0  0  0  0  0  0  0  0  0  0  0  0
  1  2  1  0  0  0  0
  1  5  2  0  0  0  0
  2  6  2  0  0  0  0
  3  8  2  0  0  0  0
  3 17  1  0  0  0  0
  4  9  1  0  0  0  0
  4 17  2  0  0  0  0
  5 20  1  0  0  0  0
  6 22  1  0  0  0  0
  7 10  2  0  0  0  0
  7 21  1  0  0  0  0
  8 27  1  0  0  0  0
  9 27  2  0  0  0  0
 10 28  1  0  0  0  0
 11 12  2  0  0  0  0
 11 29  1  0  0  0  0
 12 30  1  0  0  0  0
 13 18  2  0  0  0  0
 13 25  1  0  0  0  0
 14 18  1  0  0  0  0
 14 26  2  0  0  0  0
 15 23  1  0  0  0  0
 15 28  2  0  0  0  0
 16 30  2  0  0  0  0
 16 31  1  0  0  0  0
 17 32  1  0  0  0  0
 18 37  1  0  0  0  0
 19 32  1  0  0  0  0
 19 33  2  0  0  0  0
 19 38  1  0  0  0  0
 20 22  2  0  0  0  0
 20 45  1  0  0  0  0
 21 23  2  0  0  0  0
 21 46  1  0  0  0  0
 22 58  1  0  0  0  0
 23 47  1  0  0  0  0
 24 25  2  0  0  0  0
 24 26  1  0  0  0  0
 24 61  1  0  0  0  0
 25 72  1  0  0  0  0
 26 77  1  0  0  0  0
 27 90  1  0  0  0  0
 28 91  1  0  0  0  0
 29 31  2  0  0  0  0
 29 90  1  0  0  0  0
 30 92  1  0  0  0  0
 31 93  1  0  0  0  0
 32 70  2  0  0  0  0
 33 71  1  0  0  0  0
 33 75  1  0  0  0  0
 34 35  2  0  0  0  0
 34 48  1  0  0  0  0
 34 49  1  0  0  0  0
 36 39  2  0  0  0  0
 36 91  1  0  0  0  0
 37 78  1  0  0  0  0
 37 82  2  0  0  0  0
 38 76  1  0  0  0  0
 38 83  2  0  0  0  0
 39 40  1  0  0  0  0
 39 89  1  0  0  0  0
 40 77  1  0  0  0  0
 40 84  2  0  0  0  0
 41 59  1  0  0  0  0
 41 79  1  0  0  0  0
 41 85  2  0  0  0  0
 42 67  1  0  0  0  0
 42 73  1  0  0  0  0
 42 86  2  0  0  0  0
 43 68  1  0  0  0  0
 43 80  1  0  0  0  0
 43 87  2  0  0  0  0
 44 74  1  0  0  0  0
 44 78  1  0  0  0  0
 44 88  2  0  0  0  0
 45 50  1  0  0  0  0
 46 59  1  0  0  0  0
 47 73  1  0  0  0  0
 48 51  1  0  0  0  0
 49 72  1  0  0  0  0
 50 53  1  0  0  0  0
 51 55  1  0  0  0  0
 52 54  1  0  0  0  0
 52 56  1  0  0  0  0
 53 58  1  0  0  0  0
 54 60  1  0  0  0  0
 55 72  1  0  0  0  0
 56 74  1  0  0  0  0
 57 60  1  0  0  0  0
 57 74  1  0  0  0  0
 58 79  1  0  0  0  0
 59 73  1  0  0  0  0
 60 71  1  0  0  0  0
 62 68  1  0  0  0  0
 63 69  1  0  0  0  0
 64 69  1  0  0  0  0
 65 69  1  0  0  0  0
 66 81  1  0  0  0  0
 67 69  1  0  0  0  0
 67 80  1  0  0  0  0
 68 81  1  0  0  0  0
 70 71  1  0  0  0  0
M  CHG  1  81   1
M  ISO  4  36 101  44 100  78 100  91 101
M  END
> <Batch ID>
0080

> <Smiles>
C=C1CCCN(c2cc(C(=O)[100NH:0][100C:0](=O)N3CCCC(n4nc(-c5ccc(Oc6ccc(F)cc6F)cc5)c(C(N)=O)c4N)C3)cc(NC(=O)C(=O)[101CH2:1][101O:1]c3ccc4c(c3)CN(C(=O)C(NC(=O)C(C)NC)C(C)(C)C)C(C(=O)NC3CCCc5ccccc53)C4)c2C)C1

> <Shape>
0.238

> <Color>
0.110

> <Negative vol penalty>
0.000

$$$$

  -OEChem-04052300023D

 87 96  0     1  0  0  0  0  0999 V2000
  -28.8701  -33.3088   22.4213 C   0  0  0  0  0  0  0  0  0  0  0  0
  -28.7128  -31.9438   22.2036 C   0  0  0  0  0  0  0  0  0  0  0  0
  -34.1008  -21.1522   20.7579 C   0  0  0  0  0  0  0  0  0  0  0  0
  -26.7809  -13.0662   20.0637 C   0  0  0  0  0  0  0  0  0  0  0  0
  -24.5984  -13.6933   20.8887 C   0  0  0  0  0  0  0  0  0  0  0  0
  -32.7977  -21.2095   20.2638 C   0  0  0  0  0  0  0  0  0  0  0  0
  -27.8689  -34.0299   23.0705 C   0  0  0  0  0  0  0  0  0  0  0  0
  -27.5546  -31.2988   22.6361 C   0  0  0  0  0  0  0  0  0  0  0  0
  -25.6676  -28.1489   19.1487 C   0  0  0  0  0  0  0  0  0  0  0  0
  -34.4749  -21.9573   21.8338 C   0  0  0  0  0  0  0  0  0  0  0  0
  -26.5847  -11.7671   20.5321 C   0  0  0  0  0  0  0  0  0  0  0  0
  -24.4022  -12.3942   21.3571 C   0  0  0  0  0  0  0  0  0  0  0  0
  -26.2935  -26.9116   19.0029 C   0  0  0  0  0  0  0  0  0  0  0  0
  -23.5462   -9.3878   20.0728 C   0  0  0  0  0  0  0  0  0  0  0  0
  -22.3120   -8.7890   19.8203 C   0  0  0  0  0  0  0  0  0  0  0  0
  -32.2426  -22.8772   21.9215 C   0  0  0  0  0  0  0  0  0  0  0  0
  -24.5614  -25.8856   20.3319 C   0  0  0  0  0  0  0  0  0  0  0  0
  -21.9416   -8.5508   22.1958 C   0  0  0  0  0  0  0  0  0  0  0  0
  -25.7878  -14.0293   20.2421 C   0  0  0  0  0  0  0  0  0  0  0  0
  -31.8686  -22.0720   20.8456 C   0  0  0  0  0  0  0  0  0  0  0  0
  -25.6550  -15.8774   18.4887 C   0  0  0  0  0  0  0  0  0  0  0  0
  -26.6936  -33.3953   23.5025 C   0  0  0  0  0  0  0  0  0  0  0  0
  -24.4878  -28.2659   19.8975 C   0  0  0  0  0  0  0  0  0  0  0  0
  -26.5373  -32.0118   23.2929 C   0  0  0  0  0  0  0  0  0  0  0  0
  -23.9211  -27.1250   20.4835 C   0  0  0  0  0  0  0  0  0  0  0  0
  -33.5457  -22.8199   22.4156 C   0  0  0  0  0  0  0  0  0  0  0  0
  -25.3953  -11.4310   21.1788 C   0  0  0  0  0  0  0  0  0  0  0  0
  -25.7420  -25.7803   19.5970 C   0  0  0  0  0  0  0  0  0  0  0  0
  -23.9782   -9.5681   21.3868 C   0  0  0  0  0  0  0  0  0  0  0  0
  -21.5097   -8.3706   20.8818 C   0  0  0  0  0  0  0  0  0  0  0  0
  -23.1759   -9.1496   22.4483 C   0  0  0  0  0  0  0  0  0  0  0  0
  -25.9901  -15.3716   19.7590 C   0  0  0  0  0  0  0  0  0  0  0  0
  -26.0473  -17.1931   18.5286 C   0  0  0  0  0  0  0  0  0  0  0  0
  -35.1664  -24.6194   25.1613 C   0  0  0  0  0  0  0  0  0  0  0  0
  -33.9322  -25.1259   25.2059 C   0  0  0  0  0  0  0  0  0  0  0  0
  -35.1975  -23.6383   24.0583 C   0  0  0  0  0  0  0  0  0  0  0  0
  -28.3522  -23.3131   19.8523 C   0  0  0  0  0  0  0  0  0  0  0  0
  -29.7080  -23.2211   20.3566 C   0  0  0  0  0  0  0  0  0  0  0  0
  -27.6297  -24.4377   19.9210 C   0  0  0  0  0  0  0  0  0  1  0  0
  -30.4966  -22.1311   20.3246 C   0  0  0  0  0  0  0  0  0  0  0  0
  -25.0438  -15.2170   17.3724 C   0  0  0  0  0  0  0  0  0  0  0  0
  -29.8990  -20.9213   19.7245 C   0  0  0  0  0  0  0  0  0  0  0  0
  -23.6471  -29.8408   22.5274 C   0  0  0  0  0  0  0  0  0  0  0  0
  -20.6963  -28.7130   21.7903 C   0  0  0  0  0  0  0  0  0  0  0  0
  -18.8098  -26.3555   20.1997 C   0  0  0  0  0  0  0  0  0  0  0  0
  -25.6599  -34.2074   24.2419 C   0  0  0  0  0  0  0  0  0  0  0  0
  -23.8104  -29.6030   20.0229 C   0  0  0  0  0  0  0  0  0  0  0  0
  -22.6450  -27.1937   21.2805 C   0  0  0  0  0  0  0  0  0  0  0  0
  -33.0362  -24.5491   24.1645 C   0  0  0  0  0  0  0  0  0  0  0  0
  -24.2993  -33.5215   24.3354 C   0  0  0  0  0  0  0  0  0  0  0  0
  -27.5214  -20.0876   22.3860 C   0  0  0  0  0  0  0  0  0  0  0  0
  -24.4636  -32.0647   24.7567 C   0  0  0  0  0  0  0  0  0  0  0  0
  -26.9185  -18.7933   21.8464 C   0  0  0  0  0  0  0  0  0  0  0  0
  -28.9953  -20.2320   22.0102 C   0  0  0  0  0  0  0  0  0  0  0  0
  -28.6484  -18.8166   20.0060 C   0  0  0  0  0  0  0  0  0  0  0  0
  -25.2845  -31.2813   23.7252 C   0  0  1  0  0  0  0  0  0  0  0  0
  -22.8913  -29.6956   21.2370 C   0  0  1  0  0  0  0  0  0  0  0  0
  -27.1537  -18.6731   20.3323 C   0  0  1  0  0  0  0  0  0  0  0  0
  -33.4327  -26.1516   26.1585 C   0  0  0  0  0  0  0  0  0  0  0  0
  -16.4262  -25.6746   19.8093 C   0  0  0  0  0  0  0  0  0  0  0  0
  -20.5577  -27.5837   24.6215 C   0  0  0  0  0  0  0  0  0  0  0  0
  -18.6465  -26.1465   23.8798 C   0  0  0  0  0  0  0  0  0  0  0  0
  -18.4363  -28.6312   23.8111 C   0  0  0  0  0  0  0  0  0  0  0  0
  -19.0680  -26.7041   17.2721 C   0  0  0  0  0  0  0  0  0  0  0  0
  -19.9146  -27.4653   22.1238 C   0  0  1  0  0  0  0  0  0  0  0  0
  -17.6052  -26.4790   19.2841 C   0  0  2  0  0  0  0  0  0  0  0  0
  -19.4139  -27.4554   23.5957 C   0  0  0  0  0  0  0  0  0  0  0  0
  -26.5521  -16.2910   20.5482 N   0  0  0  0  0  0  0  0  0  0  0  0
  -26.5733  -17.3877   19.7718 N   0  0  0  0  0  0  0  0  0  0  0  0
  -33.9202  -23.6243   23.4924 N   0  0  0  0  0  0  0  0  0  0  0  0
  -29.2021  -20.0550   20.5650 N   0  0  0  0  0  0  0  0  0  0  0  0
  -22.0236  -28.5247   21.3797 N   0  0  0  0  0  0  0  0  0  0  0  0
  -25.9902  -18.1910   17.6211 N   0  0  0  0  0  0  0  0  0  0  0  0
  -24.7043  -13.8634   17.5010 N   0  0  0  0  0  0  0  0  0  0  0  0
  -24.4691  -30.9505   22.5762 N   0  0  0  0  0  0  0  0  0  0  0  0
  -18.8506  -27.3724   21.1300 N   0  0  0  0  0  0  0  0  0  0  0  0
  -17.9399  -25.9853   17.9184 N   0  3  0  0  0  0  0  0  0  0  0  0
  -36.1862  -22.9930   23.7496 O   0  0  0  0  0  0  0  0  0  0  0  0
  -24.8208  -15.8055   16.2873 O   0  0  0  0  0  0  0  0  0  0  0  0
  -30.0577  -20.7490   18.5146 O   0  0  0  0  0  0  0  0  0  0  0  0
  -23.4946  -29.0085   23.4138 O   0  0  0  0  0  0  0  0  0  0  0  0
  -20.1472  -29.8136   21.8836 O   0  0  0  0  0  0  0  0  0  0  0  0
  -19.6303  -25.4457   20.1019 O   0  0  0  0  0  0  0  0  0  0  0  0
  -25.2034  -10.1634   21.6358 O   0  0  0  0  0  0  0  0  0  0  0  0
  -26.3512  -24.5715   19.4569 O   0  0  0  0  0  0  0  0  0  1  0  0
  -20.3238   -7.7970   20.6393 F   0  0  0  0  0  0  0  0  0  0  0  0
  -23.5850   -9.3212   23.7128 F   0  0  0  0  0  0  0  0  0  0  0  0
  1  2  1  0  0  0  0
  1  7  2  0  0  0  0
  2  8  2  0  0  0  0
  3  6  1  0  0  0  0
  3 10  2  0  0  0  0
  4 11  2  0  0  0  0
  4 19  1  0  0  0  0
  5 12  1  0  0  0  0
  5 19  2  0  0  0  0
  6 20  2  0  0  0  0
  7 22  1  0  0  0  0
  8 24  1  0  0  0  0
  9 13  2  0  0  0  0
  9 23  1  0  0  0  0
 10 26  1  0  0  0  0
 11 27  1  0  0  0  0
 12 27  2  0  0  0  0
 13 28  1  0  0  0  0
 14 15  2  0  0  0  0
 14 29  1  0  0  0  0
 15 30  1  0  0  0  0
 16 20  1  0  0  0  0
 16 26  2  0  0  0  0
 17 25  1  0  0  0  0
 17 28  2  0  0  0  0
 18 30  2  0  0  0  0
 18 31  1  0  0  0  0
 19 32  1  0  0  0  0
 20 40  1  0  0  0  0
 21 32  1  0  0  0  0
 21 33  2  0  0  0  0
 21 41  1  0  0  0  0
 22 24  2  0  0  0  0
 22 46  1  0  0  0  0
 23 25  2  0  0  0  0
 23 47  1  0  0  0  0
 24 56  1  0  0  0  0
 25 48  1  0  0  0  0
 26 70  1  0  0  0  0
 27 84  1  0  0  0  0
 28 85  1  0  0  0  0
 29 31  2  0  0  0  0
 29 84  1  0  0  0  0
 30 86  1  0  0  0  0
 31 87  1  0  0  0  0
 32 68  2  0  0  0  0
 33 69  1  0  0  0  0
 33 73  1  0  0  0  0
 34 35  2  0  0  0  0
 34 36  1  0  0  0  0
 35 49  1  0  0  0  0
 35 59  1  0  0  0  0
 36 70  1  0  0  0  0
 36 78  2  0  0  0  0
 37 38  1  0  0  0  0
 37 39  2  0  0  0  0
 38 40  2  0  0  0  0
 39 85  1  0  0  0  0
 40 42  1  0  0  0  0
 41 74  1  0  0  0  0
 41 79  2  0  0  0  0
 42 71  1  0  0  0  0
 42 80  2  0  0  0  0
 43 57  1  0  0  0  0
 43 75  1  0  0  0  0
 43 81  2  0  0  0  0
 44 65  1  0  0  0  0
 44 72  1  0  0  0  0
 44 82  2  0  0  0  0
 45 66  1  0  0  0  0
 45 76  1  0  0  0  0
 45 83  2  0  0  0  0
 46 50  1  0  0  0  0
 47 57  1  0  0  0  0
 48 72  1  0  0  0  0
 49 70  1  0  0  0  0
 50 52  1  0  0  0  0
 51 53  1  0  0  0  0
 51 54  1  0  0  0  0
 52 56  1  0  0  0  0
 53 58  1  0  0  0  0
 54 71  1  0  0  0  0
 55 58  1  0  0  0  0
 55 71  1  0  0  0  0
 56 75  1  0  0  0  0
 57 72  1  0  0  0  0
 58 69  1  0  0  0  0
 60 66  1  0  0  0  0
 61 67  1  0  0  0  0
 62 67  1  0  0  0  0
 63 67  1  0  0  0  0
 64 77  1  0  0  0  0
 65 67  1  0  0  0  0
 65 76  1  0  0  0  0
 66 77  1  0  0  0  0
 68 69  1  0  0  0  0
M  CHG  1  77   1
M  ISO  4  39 101  40 100  42 100  85 101
M  END
> <Batch ID>
0080

> <Smiles>
C=C1CC(=O)N(c2cccc([100C:0](=CC=[101CH:1][101O:1]c3ccc4c(c3)CN(C(=O)C(NC(=O)C(C)NC)C(C)(C)C)C(C(=O)NC3CCCc5ccccc53)C4)[100C:0](=O)N3CCCC(n4nc(-c5ccc(Oc6ccc(F)cc6F)cc5)c(C(N)=O)c4N)C3)c2)C1

> <Shape>
0.268

> <Color>
0.055

> <Negative vol penalty>
0.000

$$$$

  -OEChem-04052300023D

 87 96  0     1  0  0  0  0  0999 V2000
  -28.7444  -37.6771   22.1812 C   0  0  0  0  0  0  0  0  0  0  0  0
  -29.1144  -36.4392   21.6651 C   0  0  0  0  0  0  0  0  0  0  0  0
  -24.6219   -8.6672   22.3264 C   0  0  0  0  0  0  0  0  0  0  0  0
  -24.0247   -9.1132   20.0283 C   0  0  0  0  0  0  0  0  0  0  0  0
  -29.2320  -20.0882   18.5081 C   0  0  0  0  0  0  0  0  0  0  0  0
  -31.6190  -19.8080   18.7544 C   0  0  0  0  0  0  0  0  0  0  0  0
  -27.8157  -37.7491   23.2186 C   0  0  0  0  0  0  0  0  0  0  0  0
  -28.5566  -35.2726   22.1869 C   0  0  0  0  0  0  0  0  0  0  0  0
  -27.1927  -30.1516   19.1175 C   0  0  0  0  0  0  0  0  0  0  0  0
  -29.3629  -21.4487   18.7862 C   0  0  0  0  0  0  0  0  0  0  0  0
  -31.7500  -21.1686   19.0325 C   0  0  0  0  0  0  0  0  0  0  0  0
  -23.4166   -7.9891   22.5081 C   0  0  0  0  0  0  0  0  0  0  0  0
  -22.8194   -8.4351   20.2099 C   0  0  0  0  0  0  0  0  0  0  0  0
  -27.8670  -28.9406   18.9668 C   0  0  0  0  0  0  0  0  0  0  0  0
  -22.1364   -4.9457   21.7790 C   0  0  0  0  0  0  0  0  0  0  0  0
  -22.1752   -3.7223   22.4480 C   0  0  0  0  0  0  0  0  0  0  0  0
  -26.5601  -27.9965   20.7612 C   0  0  0  0  0  0  0  0  0  0  0  0
  -20.6962   -4.6025   24.1435 C   0  0  0  0  0  0  0  0  0  0  0  0
  -24.9260   -9.2293   21.0866 C   0  0  0  0  0  0  0  0  0  0  0  0
  -30.3600  -19.2678   18.4923 C   0  0  0  0  0  0  0  0  0  0  0  0
  -27.3974   -9.3858   20.4738 C   0  0  0  0  0  0  0  0  0  0  0  0
  -27.2390  -36.5834   23.7469 C   0  0  0  0  0  0  0  0  0  0  0  0
  -26.2030  -30.2977   20.1002 C   0  0  0  0  0  0  0  0  0  0  0  0
  -27.6203  -35.3291   23.2332 C   0  0  0  0  0  0  0  0  0  0  0  0
  -25.8730  -29.2096   20.9207 C   0  0  0  0  0  0  0  0  0  0  0  0
  -30.6219  -21.9889   19.0483 C   0  0  0  0  0  0  0  0  0  0  0  0
  -22.5154   -7.8730   21.4498 C   0  0  0  0  0  0  0  0  0  0  0  0
  -27.5528  -27.8638   19.7906 C   0  0  0  0  0  0  0  0  0  0  0  0
  -21.3775   -5.9975   22.2924 C   0  0  0  0  0  0  0  0  0  0  0  0
  -21.4552   -3.5507   23.6302 C   0  0  0  0  0  0  0  0  0  0  0  0
  -20.6574   -5.8259   23.4746 C   0  0  0  0  0  0  0  0  0  0  0  0
  -26.1706   -9.9304   20.8985 C   0  0  0  0  0  0  0  0  0  0  0  0
  -28.2598  -10.4546   20.4562 C   0  0  0  0  0  0  0  0  0  0  0  0
  -30.3099  -25.5734   19.6982 C   0  0  0  0  0  0  0  0  0  0  0  0
  -31.7348  -25.4158   19.8478 C   0  0  0  0  0  0  0  0  0  0  0  0
  -29.6871  -24.2612   19.3677 C   0  0  0  0  0  0  0  0  0  0  0  0
  -32.6469  -26.3483   20.1426 C   0  0  0  0  0  0  0  0  0  0  0  0
  -29.5659  -26.6732   19.8158 C   0  0  0  0  0  0  0  0  0  1  0  0
  -30.2214  -17.8262   18.1978 C   0  0  0  0  0  0  0  0  0  0  0  0
  -27.7277   -8.0346   20.1261 C   0  0  0  0  0  0  0  0  0  0  0  0
  -25.8444  -32.1388   22.6664 C   0  0  0  0  0  0  0  0  0  0  0  0
  -22.9029  -30.7742   22.7534 C   0  0  0  0  0  0  0  0  0  0  0  0
  -20.9039  -28.1419   21.9037 C   0  0  0  0  0  0  0  0  0  0  0  0
  -29.1960  -15.6694   18.8861 C   0  0  0  0  0  0  0  0  0  0  0  0
  -26.2749  -36.7086   24.8999 C   0  0  0  0  0  0  0  0  0  0  0  0
  -25.4663  -31.6024   20.2322 C   0  0  0  0  0  0  0  0  0  0  0  0
  -24.8043  -29.3086   21.9773 C   0  0  0  0  0  0  0  0  0  0  0  0
  -32.0443  -23.9689   19.6085 C   0  0  0  0  0  0  0  0  0  0  0  0
  -25.4499  -35.4476   25.1438 C   0  0  0  0  0  0  0  0  0  0  0  0
  -27.7819  -15.1255   22.2717 C   0  0  0  0  0  0  0  0  0  0  0  0
  -26.3443  -34.2121   25.1227 C   0  0  0  0  0  0  0  0  0  0  0  0
  -27.2694  -13.6956   22.1403 C   0  0  0  0  0  0  0  0  0  0  0  0
  -27.7099  -15.8888   20.9498 C   0  0  0  0  0  0  0  0  0  0  0  0
  -27.8854  -13.7506   19.6954 C   0  0  0  0  0  0  0  0  0  0  0  0
  -27.0187  -34.0426   23.7560 C   0  0  1  0  0  0  0  0  0  0  0  0
  -24.8351  -31.7956   21.6076 C   0  0  1  0  0  0  0  0  0  0  0  0
  -28.0056  -12.9643   21.0088 C   0  0  2  0  0  0  0  0  0  0  0  0
  -18.5550  -27.2931   22.1474 C   0  0  0  0  0  0  0  0  0  0  0  0
  -23.4862  -29.9976   25.6459 C   0  0  0  0  0  0  0  0  0  0  0  0
  -21.5786  -28.3808   25.5233 C   0  0  0  0  0  0  0  0  0  0  0  0
  -21.1615  -30.8233   25.2360 C   0  0  0  0  0  0  0  0  0  0  0  0
  -20.4775  -28.1394   18.9750 C   0  0  0  0  0  0  0  0  0  0  0  0
  -22.3164  -29.5377   23.3907 C   0  0  1  0  0  0  0  0  0  0  0  0
  -19.5203  -28.0875   21.2815 C   0  0  2  0  0  0  0  0  0  0  0  0
  -22.1572  -29.6832   24.9304 C   0  0  0  0  0  0  0  0  0  0  0  0
  -26.2432  -11.2432   21.1339 N   0  0  0  0  0  0  0  0  0  0  0  0
  -27.5260  -11.5324   20.8562 N   0  0  0  0  0  0  0  0  0  0  0  0
  -30.7527  -23.3460   19.3257 N   0  0  0  0  0  0  0  0  0  0  0  0
  -24.1167  -30.6070   22.0718 N   0  0  0  0  0  0  0  0  0  0  0  0
  -28.3275  -15.1411   19.8458 N   0  0  0  0  0  0  0  0  0  0  0  0
  -29.5668  -10.5682   20.1379 N   0  0  0  0  0  0  0  0  0  0  0  0
  -26.7221   -7.0610   20.1993 N   0  0  0  0  0  0  0  0  0  0  0  0
  -29.4511  -17.0883   19.0122 N   0  0  0  0  0  0  0  0  0  0  0  0
  -26.0851  -33.4933   22.7963 N   0  0  0  0  0  0  0  0  0  0  0  0
  -21.0692  -29.2667   22.6840 N   0  0  0  0  0  0  0  0  0  0  0  0
  -30.8772  -17.3468   17.1411 N   0  3  0  0  0  0  0  0  0  0  0  0
  -19.5817  -27.4473   19.9371 N   0  3  0  0  0  0  0  0  0  0  0  0
  -28.4992  -24.0590   19.1795 O   0  0  0  0  0  0  0  0  0  0  0  0
  -28.8844   -7.6974   19.7773 O   0  0  0  0  0  0  0  0  0  0  0  0
  -26.3652  -31.2412   23.3183 O   0  0  0  0  0  0  0  0  0  0  0  0
  -22.3025  -31.8474   22.8506 O   0  0  0  0  0  0  0  0  0  0  0  0
  -21.7519  -27.2716   21.7192 O   0  0  0  0  0  0  0  0  0  0  0  0
  -29.7095  -15.0418   17.9661 O   0  0  0  0  0  0  0  0  0  0  0  0
  -21.3393   -7.2112   21.6266 O   0  0  0  0  0  0  0  0  0  0  0  0
  -28.2098  -26.6809   19.6461 O   0  0  0  0  0  0  0  0  0  1  0  0
  -21.4914   -2.3754   24.2717 F   0  0  0  0  0  0  0  0  0  0  0  0
  -19.9256   -6.8323   23.9719 F   0  0  0  0  0  0  0  0  0  0  0  0
  1  2  1  0  0  0  0
  1  7  2  0  0  0  0
  2  8  2  0  0  0  0
  3 12  2  0  0  0  0
  3 19  1  0  0  0  0
  4 13  1  0  0  0  0
  4 19  2  0  0  0  0
  5 10  2  0  0  0  0
  5 20  1  0  0  0  0
  6 11  1  0  0  0  0
  6 20  2  0  0  0  0
  7 22  1  0  0  0  0
  8 24  1  0  0  0  0
  9 14  2  0  0  0  0
  9 23  1  0  0  0  0
 10 26  1  0  0  0  0
 11 26  2  0  0  0  0
 12 27  1  0  0  0  0
 13 27  2  0  0  0  0
 14 28  1  0  0  0  0
 15 16  2  0  0  0  0
 15 29  1  0  0  0  0
 16 30  1  0  0  0  0
 17 25  1  0  0  0  0
 17 28  2  0  0  0  0
 18 30  2  0  0  0  0
 18 31  1  0  0  0  0
 19 32  1  0  0  0  0
 20 39  1  0  0  0  0
 21 32  1  0  0  0  0
 21 33  2  0  0  0  0
 21 40  1  0  0  0  0
 22 24  2  0  0  0  0
 22 45  1  0  0  0  0
 23 25  2  0  0  0  0
 23 46  1  0  0  0  0
 24 55  1  0  0  0  0
 25 47  1  0  0  0  0
 26 68  1  0  0  0  0
 27 84  1  0  0  0  0
 28 85  1  0  0  0  0
 29 31  2  0  0  0  0
 29 84  1  0  0  0  0
 30 86  1  0  0  0  0
 31 87  1  0  0  0  0
 32 66  2  0  0  0  0
 33 67  1  0  0  0  0
 33 71  1  0  0  0  0
 34 35  1  0  0  0  0
 34 36  1  0  0  0  0
 34 38  2  0  0  0  0
 35 37  2  0  0  0  0
 35 48  1  0  0  0  0
 36 68  1  0  0  0  0
 36 78  2  0  0  0  0
 38 85  1  0  0  0  0
 39 73  1  0  0  0  0
 39 76  2  0  0  0  0
 40 72  1  0  0  0  0
 40 79  2  0  0  0  0
 41 56  1  0  0  0  0
 41 74  1  0  0  0  0
 41 80  2  0  0  0  0
 42 63  1  0  0  0  0
 42 69  1  0  0  0  0
 42 81  2  0  0  0  0
 43 64  1  0  0  0  0
 43 75  1  0  0  0  0
 43 82  2  0  0  0  0
 44 70  1  0  0  0  0
 44 73  1  0  0  0  0
 44 83  2  0  0  0  0
 45 49  1  0  0  0  0
 46 56  1  0  0  0  0
 47 69  1  0  0  0  0
 48 68  1  0  0  0  0
 49 51  1  0  0  0  0
 50 52  1  0  0  0  0
 50 53  1  0  0  0  0
 51 55  1  0  0  0  0
 52 57  1  0  0  0  0
 53 70  1  0  0  0  0
 54 57  1  0  0  0  0
 54 70  1  0  0  0  0
 55 74  1  0  0  0  0
 56 69  1  0  0  0  0
 57 67  1  0  0  0  0
 58 64  1  0  0  0  0
 59 65  1  0  0  0  0
 60 65  1  0  0  0  0
 61 65  1  0  0  0  0
 62 77  1  0  0  0  0
 63 65  1  0  0  0  0
 63 75  1  0  0  0  0
 64 77  1  0  0  0  0
 66 67  1  0  0  0  0
M  CHG  2  76   1  77   1
M  ISO  4  38 101  44 100  73 100  85 101
M  END
> <Batch ID>
0080

> <Smiles>
C=C1CN(c2ccc(C(N)=[100N:0][100C:0](=O)N3CCCC(n4nc(-c5ccc(Oc6ccc(F)cc6F)cc5)c(C(N)=O)c4N)C3)cc2)C(=O)C1=[101CH:1][101O:1]c1ccc2c(c1)CN(C(=O)C(NC(=O)C(C)NC)C(C)(C)C)C(C(=O)NC1CCCc3ccccc31)C2

> <Shape>
0.322

> <Color>
0.103

> <Negative vol penalty>
0.000

$$$$

  -OEChem-04052300023D

 86 94  0     1  0  0  0  0  0999 V2000
  -19.6477  -34.4568   21.8567 C   0  0  0  0  0  0  0  0  0  0  0  0
  -20.9015  -34.0134   21.4482 C   0  0  0  0  0  0  0  0  0  0  0  0
  -24.3956   -9.5479   21.9939 C   0  0  0  0  0  0  0  0  0  0  0  0
  -22.8784  -10.6660   20.4823 C   0  0  0  0  0  0  0  0  0  0  0  0
  -28.2828  -21.2957   21.5920 C   0  0  0  0  0  0  0  0  0  0  0  0
  -18.9438  -33.7514   22.8319 C   0  0  0  0  0  0  0  0  0  0  0  0
  -21.4526  -32.8649   22.0155 C   0  0  0  0  0  0  0  0  0  0  0  0
  -24.9955  -28.7188   19.2294 C   0  0  0  0  0  0  0  0  0  0  0  0
  -27.2870  -20.4357   22.0549 C   0  0  0  0  0  0  0  0  0  0  0  0
  -23.6282   -8.3866   21.9052 C   0  0  0  0  0  0  0  0  0  0  0  0
  -22.1110   -9.5046   20.3935 C   0  0  0  0  0  0  0  0  0  0  0  0
  -26.3770  -28.5332   19.2004 C   0  0  0  0  0  0  0  0  0  0  0  0
  -23.2105   -5.8377   19.7231 C   0  0  0  0  0  0  0  0  0  0  0  0
  -23.8829   -4.6283   19.5472 C   0  0  0  0  0  0  0  0  0  0  0  0
  -28.0001  -20.4206   19.3579 C   0  0  0  0  0  0  0  0  0  0  0  0
  -26.1905  -26.9123   20.9772 C   0  0  0  0  0  0  0  0  0  0  0  0
  -22.9431   -3.8050   21.6150 C   0  0  0  0  0  0  0  0  0  0  0  0
  -24.0207  -10.6877   21.2825 C   0  0  0  0  0  0  0  0  0  0  0  0
  -28.6394  -21.2882   20.2435 C   0  0  0  0  0  0  0  0  0  0  0  0
  -25.8979  -12.2548   20.5561 C   0  0  0  0  0  0  0  0  0  0  0  0
  -19.4824  -32.5884   23.4045 C   0  0  0  0  0  0  0  0  0  0  0  0
  -24.2011  -28.0093   20.1414 C   0  0  0  0  0  0  0  0  0  0  0  0
  -20.7558  -32.1441   23.0002 C   0  0  0  0  0  0  0  0  0  0  0  0
  -24.7989  -27.0888   21.0140 C   0  0  0  0  0  0  0  0  0  0  0  0
  -26.6478  -19.5680   21.1694 C   0  0  0  0  0  0  0  0  0  0  0  0
  -22.4859   -8.3649   21.1049 C   0  0  0  0  0  0  0  0  0  0  0  0
  -26.9751  -27.6320   20.0764 C   0  0  0  0  0  0  0  0  0  0  0  0
  -22.4045   -6.0308   20.8450 C   0  0  0  0  0  0  0  0  0  0  0  0
  -23.7491   -3.6120   20.4931 C   0  0  0  0  0  0  0  0  0  0  0  0
  -27.0044  -19.5605   19.8208 C   0  0  0  0  0  0  0  0  0  0  0  0
  -22.2708   -5.0144   21.7910 C   0  0  0  0  0  0  0  0  0  0  0  0
  -24.8127  -11.8879   21.3743 C   0  0  0  0  0  0  0  0  0  0  0  0
  -26.3029  -13.4715   21.0482 C   0  0  0  0  0  0  0  0  0  0  0  0
  -29.6937  -22.1989   19.7523 C   0  0  0  0  0  0  0  0  0  0  0  0
  -26.4872  -11.5582   19.4502 C   0  0  0  0  0  0  0  0  0  0  0  0
  -29.9356  -25.9429   19.7353 C   0  0  0  0  0  0  0  0  0  0  0  0
  -30.4133  -24.5477   19.4713 C   0  0  0  0  0  0  0  0  0  0  0  0
  -22.2907  -28.8131   22.5514 C   0  0  0  0  0  0  0  0  0  0  0  0
  -21.6157  -25.6403   22.5626 C   0  0  0  0  0  0  0  0  0  0  0  0
  -22.5976  -22.4667   21.7811 C   0  0  0  0  0  0  0  0  0  0  0  0
  -25.1654  -18.5795   22.9502 C   0  0  0  0  0  0  0  0  0  0  0  0
  -18.7046  -31.8860   24.4891 C   0  0  0  0  0  0  0  0  0  0  0  0
  -22.7092  -28.2011   20.1418 C   0  0  0  0  0  0  0  0  0  0  0  0
  -23.9882  -26.2874   21.9984 C   0  0  0  0  0  0  0  0  0  0  0  0
  -19.1962  -30.4685   24.7707 C   0  0  0  0  0  0  0  0  0  0  0  0
  -25.0075  -15.9039   25.2941 C   0  0  0  0  0  0  0  0  0  0  0  0
  -20.7171  -30.4438   24.8852 C   0  0  0  0  0  0  0  0  0  0  0  0
  -25.0320  -14.6508   24.4159 C   0  0  0  0  0  0  0  0  0  0  0  0
  -24.2104  -17.0348   24.6464 C   0  0  0  0  0  0  0  0  0  0  0  0
  -24.6413  -16.1225   22.3989 C   0  0  0  0  0  0  0  0  0  0  0  0
  -21.3763  -30.8889   23.5742 C   0  0  1  0  0  0  0  0  0  0  0  0
  -22.0562  -27.8048   21.4624 C   0  0  1  0  0  0  0  0  0  0  0  0
  -25.4870  -14.9776   22.9800 C   0  0  2  0  0  0  0  0  0  0  0  0
  -30.9819  -26.9904   19.9848 C   0  0  0  0  0  0  0  0  0  0  0  0
  -21.8511  -20.0766   21.9471 C   0  0  0  0  0  0  0  0  0  0  0  0
  -22.3260  -25.6271   25.5299 C   0  0  0  0  0  0  0  0  0  0  0  0
  -22.4879  -23.1317   25.4087 C   0  0  0  0  0  0  0  0  0  0  0  0
  -20.3166  -24.2636   24.9322 C   0  0  0  0  0  0  0  0  0  0  0  0
  -22.6056  -22.1385   18.8399 C   0  0  0  0  0  0  0  0  0  0  0  0
  -22.1952  -24.4265   23.2480 C   0  0  1  0  0  0  0  0  0  0  0  0
  -21.8706  -21.3298   21.0859 C   0  0  2  0  0  0  0  0  0  0  0  0
  -21.8472  -24.3786   24.7626 C   0  0  0  0  0  0  0  0  0  0  0  0
  -24.5452  -12.7977   22.3148 N   0  0  0  0  0  0  0  0  0  0  0  0
  -28.6527  -26.1150   19.7594 N   0  0  0  0  0  0  0  0  0  1  0  0
  -25.4683  -13.7484   22.0908 N   0  0  0  0  0  0  0  0  0  0  0  0
  -22.5340  -26.5150   21.9646 N   0  0  0  0  0  0  0  0  0  0  0  0
  -24.6999  -17.2917   23.2902 N   0  0  0  0  0  0  0  0  0  0  0  0
  -27.2880  -14.3208   20.6866 N   0  0  0  0  0  0  0  0  0  0  0  0
  -25.9478  -10.3197   19.0767 N   0  0  0  0  0  0  0  0  0  0  0  0
  -25.6366  -18.6958   21.6429 N   0  0  0  0  0  0  0  0  0  0  0  0
  -29.5081  -23.5178   19.8973 N   0  0  0  0  0  0  0  0  0  0  0  0
  -21.3426  -29.8171   22.6022 N   0  0  0  0  0  0  0  0  0  0  0  0
  -21.7299  -23.2693   22.4911 N   0  0  0  0  0  0  0  0  0  0  0  0
  -30.7750  -21.6551   19.1944 N   0  3  0  0  0  0  0  0  0  0  0  0
  -22.5373  -21.0019   19.7940 N   0  3  0  0  0  0  0  0  0  0  0  0
  -27.4736  -12.0127   18.8224 O   0  0  0  0  0  0  0  0  0  0  0  0
  -31.4776  -24.3421   18.9170 O   0  0  0  0  0  0  0  0  0  0  0  0
  -23.2592  -28.6886   23.2917 O   0  0  0  0  0  0  0  0  0  0  0  0
  -20.3930  -25.8027   22.5518 O   0  0  0  0  0  0  0  0  0  0  0  0
  -23.8141  -22.6246   21.7053 O   0  0  0  0  0  0  0  0  0  0  0  0
  -25.1727  -19.5036   23.7675 O   0  0  0  0  0  0  0  0  0  0  0  0
  -21.7370   -7.2317   21.0179 O   0  0  0  0  0  0  0  0  0  0  0  0
  -28.3233  -27.4495   20.0507 O   0  0  0  0  0  0  0  0  0  1  0  0
  -24.3936   -2.4501   20.3232 F   0  0  0  0  0  0  0  0  0  0  0  0
  -26.3976  -18.7298   18.9610 F   0  0  0  0  0  0  0  0  0  0  0  0
  -21.4969   -5.1936   22.8703 F   0  0  0  0  0  0  0  0  0  0  0  0
  1  2  1  0  0  0  0
  1  6  2  0  0  0  0
  2  7  2  0  0  0  0
  3 10  2  0  0  0  0
  3 18  1  0  0  0  0
  4 11  1  0  0  0  0
  4 18  2  0  0  0  0
  5  9  2  0  0  0  0
  5 19  1  0  0  0  0
  6 21  1  0  0  0  0
  7 23  1  0  0  0  0
  8 12  2  0  0  0  0
  8 22  1  0  0  0  0
  9 25  1  0  0  0  0
 10 26  1  0  0  0  0
 11 26  2  0  0  0  0
 12 27  1  0  0  0  0
 13 14  2  0  0  0  0
 13 28  1  0  0  0  0
 14 29  1  0  0  0  0
 15 19  2  0  0  0  0
 15 30  1  0  0  0  0
 16 24  1  0  0  0  0
 16 27  2  0  0  0  0
 17 29  2  0  0  0  0
 17 31  1  0  0  0  0
 18 32  1  0  0  0  0
 19 34  1  0  0  0  0
 20 32  1  0  0  0  0
 20 33  2  0  0  0  0
 20 35  1  0  0  0  0
 21 23  2  0  0  0  0
 21 42  1  0  0  0  0
 22 24  2  0  0  0  0
 22 43  1  0  0  0  0
 23 51  1  0  0  0  0
 24 44  1  0  0  0  0
 25 30  2  0  0  0  0
 25 70  1  0  0  0  0
 26 82  1  0  0  0  0
 27 83  1  0  0  0  0
 28 31  2  0  0  0  0
 28 82  1  0  0  0  0
 29 84  1  0  0  0  0
 30 85  1  0  0  0  0
 31 86  1  0  0  0  0
 32 63  2  0  0  0  0
 33 65  1  0  0  0  0
 33 68  1  0  0  0  0
 34 71  1  0  0  0  0
 34 74  2  0  0  0  0
 35 69  1  0  0  0  0
 35 76  2  0  0  0  0
 36 37  1  0  0  0  0
 36 54  1  0  0  0  0
 36 64  2  0  0  0  0
 37 71  1  0  0  0  0
 37 77  2  0  0  0  0
 38 52  1  0  0  0  0
 38 72  1  0  0  0  0
 38 78  2  0  0  0  0
 39 60  1  0  0  0  0
 39 66  1  0  0  0  0
 39 79  2  0  0  0  0
 40 61  1  0  0  0  0
 40 73  1  0  0  0  0
 40 80  2  0  0  0  0
 41 67  1  0  0  0  0
 41 70  1  0  0  0  0
 41 81  2  0  0  0  0
 42 45  1  0  0  0  0
 43 52  1  0  0  0  0
 44 66  1  0  0  0  0
 45 47  1  0  0  0  0
 46 48  1  0  0  0  0
 46 49  1  0  0  0  0
 47 51  1  0  0  0  0
 48 53  1  0  0  0  0
 49 67  1  0  0  0  0
 50 53  1  0  0  0  0
 50 67  1  0  0  0  0
 51 72  1  0  0  0  0
 52 66  1  0  0  0  0
 53 65  1  0  0  0  0
 55 61  1  0  0  0  0
 56 62  1  0  0  0  0
 57 62  1  0  0  0  0
 58 62  1  0  0  0  0
 59 75  1  0  0  0  0
 60 62  1  0  0  0  0
 60 73  1  0  0  0  0
 61 75  1  0  0  0  0
 63 65  1  0  0  0  0
 64 83  1  0  0  0  0
M  CHG  2  74   1  75   1
M  ISO  4  41 100  64 101  70 100  83 101
M  END
> <Batch ID>
0080

> <Smiles>
CNC(C)C(=O)NC(C(=O)N1Cc2cc([101O:1][101N:1]=C(C)C(=O)NC(=N)c3ccc([100NH:0][100C:0](=O)N4CCCC(n5nc(-c6ccc(Oc7ccc(F)cc7F)cc6)c(C(N)=O)c5N)C4)c(F)c3)ccc2CC1C(=O)NC1CCCc2ccccc21)C(C)(C)C

> <Shape>
0.233

> <Color>
0.103

> <Negative vol penalty>
0.000

$$$$

  -OEChem-04052300023D

 86 95  0     1  0  0  0  0  0999 V2000
  -29.3820  -31.2586   26.7083 C   0  0  0  0  0  0  0  0  0  0  0  0
  -29.0329  -30.2282   25.8413 C   0  0  0  0  0  0  0  0  0  0  0  0
  -23.1183  -10.1097   20.7524 C   0  0  0  0  0  0  0  0  0  0  0  0
  -24.6138   -8.8435   22.1656 C   0  0  0  0  0  0  0  0  0  0  0  0
  -28.4057  -32.1404   27.1701 C   0  0  0  0  0  0  0  0  0  0  0  0
  -27.7069  -30.0782   25.4365 C   0  0  0  0  0  0  0  0  0  0  0  0
  -27.2797  -29.2076   20.4661 C   0  0  0  0  0  0  0  0  0  0  0  0
  -27.8338  -20.4549   19.1400 C   0  0  0  0  0  0  0  0  0  0  0  0
  -28.0419  -19.8217   16.8178 C   0  0  0  0  0  0  0  0  0  0  0  0
  -28.0805  -19.1362   19.5217 C   0  0  0  0  0  0  0  0  0  0  0  0
  -28.2887  -18.5030   17.1995 C   0  0  0  0  0  0  0  0  0  0  0  0
  -22.2657   -9.0091   20.6684 C   0  0  0  0  0  0  0  0  0  0  0  0
  -23.7612   -7.7428   22.0816 C   0  0  0  0  0  0  0  0  0  0  0  0
  -27.5544  -27.9155   20.0201 C   0  0  0  0  0  0  0  0  0  0  0  0
  -20.8582   -6.7302   23.4845 C   0  0  0  0  0  0  0  0  0  0  0  0
  -20.5723   -6.0425   24.6638 C   0  0  0  0  0  0  0  0  0  0  0  0
  -25.1891  -27.4504   19.9295 C   0  0  0  0  0  0  0  0  0  0  0  0
  -21.5125   -4.0283   23.7171 C   0  0  0  0  0  0  0  0  0  0  0  0
  -24.2924  -10.0270   21.5009 C   0  0  0  0  0  0  0  0  0  0  0  0
  -25.1408  -12.1938   22.5462 C   0  0  0  0  0  0  0  0  0  0  0  0
  -27.0689  -32.0070   26.7631 C   0  0  0  0  0  0  0  0  0  0  0  0
  -25.9557  -29.6279   20.6579 C   0  0  0  0  0  0  0  0  0  0  0  0
  -26.7116  -30.9582   25.8944 C   0  0  0  0  0  0  0  0  0  0  0  0
  -24.9002  -28.7491   20.3756 C   0  0  0  0  0  0  0  0  0  0  0  0
  -27.8145  -20.7977   17.7881 C   0  0  0  0  0  0  0  0  0  0  0  0
  -28.3079  -18.1602   18.5515 C   0  0  0  0  0  0  0  0  0  0  0  0
  -22.5871   -7.8256   21.3330 C   0  0  0  0  0  0  0  0  0  0  0  0
  -26.5092  -27.0357   19.7545 C   0  0  0  0  0  0  0  0  0  0  0  0
  -21.4712   -6.0670   22.4214 C   0  0  0  0  0  0  0  0  0  0  0  0
  -20.8994   -4.6915   24.7802 C   0  0  0  0  0  0  0  0  0  0  0  0
  -21.7984   -4.7161   22.5378 C   0  0  0  0  0  0  0  0  0  0  0  0
  -25.1739  -11.1634   21.5876 C   0  0  0  0  0  0  0  0  0  0  0  0
  -26.1772  -13.0236   22.1944 C   0  0  0  0  0  0  0  0  0  0  0  0
  -27.1206  -24.3701   17.4358 C   0  0  0  0  0  0  0  0  0  0  0  0
  -27.2439  -24.0018   16.0477 C   0  0  0  0  0  0  0  0  0  0  0  0
  -27.3265  -23.1729   18.2977 C   0  0  0  0  0  0  0  0  0  0  0  0
  -27.1290  -24.7827   14.9681 C   0  0  0  0  0  0  0  0  0  0  0  0
  -26.8651  -25.5633   17.9724 C   0  0  0  0  0  0  0  0  0  1  0  0
  -24.2526  -12.3838   23.6556 C   0  0  0  0  0  0  0  0  0  0  0  0
  -24.2555  -30.6164   23.1551 C   0  0  0  0  0  0  0  0  0  0  0  0
  -21.9950  -31.1812   20.8983 C   0  0  0  0  0  0  0  0  0  0  0  0
  -20.7448  -30.4598   17.8058 C   0  0  0  0  0  0  0  0  0  0  0  0
  -28.7969  -15.7859   17.9870 C   0  0  0  0  0  0  0  0  0  0  0  0
  -26.0405  -32.9558   27.3263 C   0  0  0  0  0  0  0  0  0  0  0  0
  -25.6753  -31.0335   21.1140 C   0  0  0  0  0  0  0  0  0  0  0  0
  -23.4607  -29.1580   20.5459 C   0  0  0  0  0  0  0  0  0  0  0  0
  -27.5359  -22.5322   16.0074 C   0  0  0  0  0  0  0  0  0  0  0  0
  -24.7238  -32.9553   26.5539 C   0  0  0  0  0  0  0  0  0  0  0  0
  -29.9428  -12.3973   18.8895 C   0  0  0  0  0  0  0  0  0  0  0  0
  -24.2671  -31.5263   26.2783 C   0  0  0  0  0  0  0  0  0  0  0  0
  -28.7679  -11.8435   19.6939 C   0  0  0  0  0  0  0  0  0  0  0  0
  -29.4865  -13.4108   17.8443 C   0  0  0  0  0  0  0  0  0  0  0  0
  -27.5010  -13.9760   19.2113 C   0  0  0  0  0  0  0  0  0  0  0  0
  -25.2883  -30.7779   25.4130 C   0  0  1  0  0  0  0  0  0  0  0  0
  -24.3049  -31.1879   21.7663 C   0  0  1  0  0  0  0  0  0  0  0  0
  -27.9331  -12.9840   20.3017 C   0  0  1  0  0  0  0  0  0  0  0  0
  -18.8657  -31.0551   16.2527 C   0  0  0  0  0  0  0  0  0  0  0  0
  -20.0793  -29.5000   22.5756 C   0  0  0  0  0  0  0  0  0  0  0  0
  -18.5814  -29.3376   20.5760 C   0  0  0  0  0  0  0  0  0  0  0  0
  -19.0672  -31.5640   21.5909 C   0  0  0  0  0  0  0  0  0  0  0  0
  -28.8196  -16.5123   20.3623 C   0  0  0  0  0  0  0  0  0  0  0  0
  -22.6145  -31.4502   15.7364 C   0  0  0  0  0  0  0  0  0  0  0  0
  -20.8756  -30.3775   20.2817 C   0  0  1  0  0  0  0  0  0  0  0  0
  -20.2979  -31.3569   16.6656 C   0  0  2  0  0  0  0  0  0  0  0  0
  -19.6779  -30.1861   21.2546 C   0  0  0  0  0  0  0  0  0  0  0  0
  -26.1537  -11.3221   20.6937 N   0  0  0  0  0  0  0  0  0  0  0  0
  -26.7457  -12.4619   21.0892 N   0  0  0  0  0  0  0  0  0  0  0  0
  -27.5680  -22.1129   17.4072 N   0  0  0  0  0  0  0  0  0  0  0  0
  -23.2381  -30.5407   21.0001 N   0  0  0  0  0  0  0  0  0  0  0  0
  -28.6572  -14.4588   18.4406 N   0  0  0  0  0  0  0  0  0  0  0  0
  -26.6485  -14.1717   22.7256 N   0  0  0  0  0  0  0  0  0  0  0  0
  -23.2433  -11.4361   23.8734 N   0  0  0  0  0  0  0  0  0  0  0  0
  -25.1674  -31.1790   24.0277 N   0  0  0  0  0  0  0  0  0  0  0  0
  -20.5302  -31.0493   19.0336 N   0  0  0  0  0  0  0  0  0  0  0  0
  -28.5633  -16.7950   18.9462 N   0  0  0  0  0  0  0  0  0  0  0  0
  -21.1794  -31.1649   15.4794 N   0  3  0  0  0  0  0  0  0  0  0  0
  -27.2870  -23.1520   19.5165 O   0  0  0  0  0  0  0  0  0  0  0  0
  -24.3409  -13.3736   24.4212 O   0  0  0  0  0  0  0  0  0  0  0  0
  -23.4488  -29.7317   23.4160 O   0  0  0  0  0  0  0  0  0  0  0  0
  -21.7764  -32.3372   21.2691 O   0  0  0  0  0  0  0  0  0  0  0  0
  -21.2319  -29.3459   17.6253 O   0  0  0  0  0  0  0  0  0  0  0  0
  -29.1329  -16.0465   16.8257 O   0  0  0  0  0  0  0  0  0  0  0  0
  -21.7552   -6.7514   21.2515 O   0  0  0  0  0  0  0  0  0  0  0  0
  -26.7745  -25.7738   19.3197 O   0  0  0  0  0  0  0  0  0  1  0  0
  -20.6262   -4.0316   25.9133 F   0  0  0  0  0  0  0  0  0  0  0  0
  -22.3885   -4.0739   21.5203 F   0  0  0  0  0  0  0  0  0  0  0  0
  1  2  1  0  0  0  0
  1  5  2  0  0  0  0
  2  6  2  0  0  0  0
  3 12  2  0  0  0  0
  3 19  1  0  0  0  0
  4 13  1  0  0  0  0
  4 19  2  0  0  0  0
  5 21  1  0  0  0  0
  6 23  1  0  0  0  0
  7 14  2  0  0  0  0
  7 22  1  0  0  0  0
  8 10  2  0  0  0  0
  8 25  1  0  0  0  0
  9 11  1  0  0  0  0
  9 25  2  0  0  0  0
 10 26  1  0  0  0  0
 11 26  2  0  0  0  0
 12 27  1  0  0  0  0
 13 27  2  0  0  0  0
 14 28  1  0  0  0  0
 15 16  2  0  0  0  0
 15 29  1  0  0  0  0
 16 30  1  0  0  0  0
 17 24  1  0  0  0  0
 17 28  2  0  0  0  0
 18 30  2  0  0  0  0
 18 31  1  0  0  0  0
 19 32  1  0  0  0  0
 20 32  1  0  0  0  0
 20 33  2  0  0  0  0
 20 39  1  0  0  0  0
 21 23  2  0  0  0  0
 21 44  1  0  0  0  0
 22 24  2  0  0  0  0
 22 45  1  0  0  0  0
 23 54  1  0  0  0  0
 24 46  1  0  0  0  0
 25 68  1  0  0  0  0
 26 75  1  0  0  0  0
 27 83  1  0  0  0  0
 28 84  1  0  0  0  0
 29 31  2  0  0  0  0
 29 83  1  0  0  0  0
 30 85  1  0  0  0  0
 31 86  1  0  0  0  0
 32 66  2  0  0  0  0
 33 67  1  0  0  0  0
 33 71  1  0  0  0  0
 34 35  1  0  0  0  0
 34 36  1  0  0  0  0
 34 38  2  0  0  0  0
 35 37  2  0  0  0  0
 35 47  1  0  0  0  0
 36 68  1  0  0  0  0
 36 77  2  0  0  0  0
 38 84  1  0  0  0  0
 39 72  1  0  0  0  0
 39 78  2  0  0  0  0
 40 55  1  0  0  0  0
 40 73  1  0  0  0  0
 40 79  2  0  0  0  0
 41 63  1  0  0  0  0
 41 69  1  0  0  0  0
 41 80  2  0  0  0  0
 42 64  1  0  0  0  0
 42 74  1  0  0  0  0
 42 81  2  0  0  0  0
 43 70  1  0  0  0  0
 43 75  1  0  0  0  0
 43 82  2  0  0  0  0
 44 48  1  0  0  0  0
 45 55  1  0  0  0  0
 46 69  1  0  0  0  0
 47 68  1  0  0  0  0
 48 50  1  0  0  0  0
 49 51  1  0  0  0  0
 49 52  1  0  0  0  0
 50 54  1  0  0  0  0
 51 56  1  0  0  0  0
 52 70  1  0  0  0  0
 53 56  1  0  0  0  0
 53 70  1  0  0  0  0
 54 73  1  0  0  0  0
 55 69  1  0  0  0  0
 56 67  1  0  0  0  0
 57 64  1  0  0  0  0
 58 65  1  0  0  0  0
 59 65  1  0  0  0  0
 60 65  1  0  0  0  0
 61 75  1  0  0  0  0
 62 76  1  0  0  0  0
 63 65  1  0  0  0  0
 63 74  1  0  0  0  0
 64 76  1  0  0  0  0
 66 67  1  0  0  0  0
M  CHG  1  76   1
M  ISO  4  38 101  43 100  75 100  84 101
M  END
> <Batch ID>
0080

> <Smiles>
C=C1CN(c2ccc([100N:0](C)[100C:0](=O)N3CCCC(n4nc(-c5ccc(Oc6ccc(F)cc6F)cc5)c(C(N)=O)c4N)C3)cc2)C(=O)C1=[101CH:1][101O:1]c1ccc2c(c1)CN(C(=O)C(NC(=O)C(C)NC)C(C)(C)C)C(C(=O)NC1CCCc3ccccc31)C2

> <Shape>
0.306

> <Color>
0.135

> <Negative vol penalty>
0.000

$$$$

  -OEChem-04052300023D

 85 94  0     1  0  0  0  0  0999 V2000
  -21.4151  -21.4601   10.5410 C   0  0  0  0  0  0  0  0  0  0  0  0
  -22.2062  -22.3070   11.3106 C   0  0  0  0  0  0  0  0  0  0  0  0
  -27.4115  -27.7362   24.4414 C   0  0  0  0  0  0  0  0  0  0  0  0
  -27.3284  -18.2457   21.8899 C   0  0  0  0  0  0  0  0  0  0  0  0
  -28.1511  -17.3990   19.7820 C   0  0  0  0  0  0  0  0  0  0  0  0
  -20.1686  -21.0518   11.0134 C   0  0  0  0  0  0  0  0  0  0  0  0
  -21.7505  -22.7471   12.5529 C   0  0  0  0  0  0  0  0  0  0  0  0
  -25.1299  -23.8102   17.5484 C   0  0  0  0  0  0  0  0  0  0  0  0
  -26.4771  -28.5127   23.7563 C   0  0  0  0  0  0  0  0  0  0  0  0
  -28.2512  -26.8729   23.7376 C   0  0  0  0  0  0  0  0  0  0  0  0
  -26.2779  -17.3291   21.8481 C   0  0  0  0  0  0  0  0  0  0  0  0
  -27.1005  -16.4824   19.7402 C   0  0  0  0  0  0  0  0  0  0  0  0
  -25.6517  -24.9814   18.0961 C   0  0  0  0  0  0  0  0  0  0  0  0
  -26.3359  -13.5068   21.1479 C   0  0  0  0  0  0  0  0  0  0  0  0
  -26.6386  -12.1922   20.7931 C   0  0  0  0  0  0  0  0  0  0  0  0
  -23.7501  -25.1309   19.5728 C   0  0  0  0  0  0  0  0  0  0  0  0
  -27.2219  -27.5625   21.6635 C   0  0  0  0  0  0  0  0  0  0  0  0
  -25.1454  -12.3590   18.9011 C   0  0  0  0  0  0  0  0  0  0  0  0
  -28.2650  -18.2807   20.8568 C   0  0  0  0  0  0  0  0  0  0  0  0
  -30.6222  -19.0380   21.4715 C   0  0  0  0  0  0  0  0  0  0  0  0
  -19.7015  -21.4794   12.2663 C   0  0  0  0  0  0  0  0  0  0  0  0
  -23.9068  -23.2957   18.0020 C   0  0  0  0  0  0  0  0  0  0  0  0
  -20.4959  -22.3452   13.0420 C   0  0  0  0  0  0  0  0  0  0  0  0
  -23.2162  -23.9517   19.0310 C   0  0  0  0  0  0  0  0  0  0  0  0
  -26.3822  -28.4259   22.3673 C   0  0  0  0  0  0  0  0  0  0  0  0
  -28.1564  -26.7860   22.3487 C   0  0  0  0  0  0  0  0  0  0  0  0
  -26.1639  -16.4474   20.7733 C   0  0  0  0  0  0  0  0  0  0  0  0
  -24.9604  -25.6434   19.1064 C   0  0  0  0  0  0  0  0  0  0  0  0
  -25.4379  -14.2475   20.3793 C   0  0  0  0  0  0  0  0  0  0  0  0
  -26.0434  -11.6183   19.6697 C   0  0  0  0  0  0  0  0  0  0  0  0
  -24.8427  -13.6736   19.2559 C   0  0  0  0  0  0  0  0  0  0  0  0
  -29.3501  -19.2277   20.8991 C   0  0  0  0  0  0  0  0  0  0  0  0
  -31.2786  -20.2240   21.2503 C   0  0  0  0  0  0  0  0  0  0  0  0
  -24.1126  -30.1938   20.6098 C   0  0  0  0  0  0  0  0  0  0  0  0
  -24.7667  -28.9172   20.4574 C   0  0  0  0  0  0  0  0  0  0  0  0
  -24.8626  -30.3913   21.8595 C   0  0  0  0  0  0  0  0  0  0  0  0
  -23.2193  -30.9252   19.9514 C   0  0  0  0  0  0  0  0  0  0  0  0
  -24.7210  -27.9281   19.5466 C   0  0  0  0  0  0  0  0  0  1  0  0
  -31.1622  -17.8921   22.1430 C   0  0  0  0  0  0  0  0  0  0  0  0
  -21.0748  -22.7400   16.6699 C   0  0  0  0  0  0  0  0  0  0  0  0
  -20.4218  -21.3916   19.5470 C   0  0  0  0  0  0  0  0  0  0  0  0
  -21.1183  -21.2017   22.8825 C   0  0  0  0  0  0  0  0  0  0  0  0
  -28.9539  -25.7823   20.2152 C   0  0  0  0  0  0  0  0  0  0  0  0
  -18.3270  -21.0494   12.7140 C   0  0  0  0  0  0  0  0  0  0  0  0
  -23.3707  -22.0168   17.4194 C   0  0  0  0  0  0  0  0  0  0  0  0
  -21.9092  -23.4294   19.5673 C   0  0  0  0  0  0  0  0  0  0  0  0
  -18.0785  -21.2602   14.2054 C   0  0  0  0  0  0  0  0  0  0  0  0
  -31.4407  -23.9199   18.2259 C   0  0  0  0  0  0  0  0  0  0  0  0
  -18.5405  -22.6498   14.6324 C   0  0  0  0  0  0  0  0  0  0  0  0
  -31.2427  -22.4796   18.6953 C   0  0  0  0  0  0  0  0  0  0  0  0
  -30.1503  -24.7289   18.3191 C   0  0  0  0  0  0  0  0  0  0  0  0
  -29.3292  -23.2708   20.1438 C   0  0  0  0  0  0  0  0  0  0  0  0
  -20.0470  -22.8242   14.4055 C   0  0  1  0  0  0  0  0  0  0  0  0
  -21.8637  -21.8632   17.6007 C   0  0  1  0  0  0  0  0  0  0  0  0
  -30.6218  -22.4417   20.1025 C   0  0  1  0  0  0  0  0  0  0  0  0
  -20.3924  -20.0367   24.9833 C   0  0  0  0  0  0  0  0  0  0  0  0
  -17.9599  -23.1884   19.6898 C   0  0  0  0  0  0  0  0  0  0  0  0
  -17.8255  -22.6917   22.1400 C   0  0  0  0  0  0  0  0  0  0  0  0
  -17.5883  -20.8449   20.4799 C   0  0  0  0  0  0  0  0  0  0  0  0
  -30.1524  -25.2786   22.3317 C   0  0  0  0  0  0  0  0  0  0  0  0
  -23.7837  -19.9719   23.2596 C   0  0  0  0  0  0  0  0  0  0  0  0
  -19.8602  -21.8879   20.8575 C   0  0  1  0  0  0  0  0  0  0  0  0
  -21.3450  -20.0123   23.7981 C   0  0  2  0  0  0  0  0  0  0  0  0
  -18.3321  -22.1644   20.7806 C   0  0  0  0  0  0  0  0  0  0  0  0
  -29.2049  -20.4390   20.3553 N   0  0  0  0  0  0  0  0  0  0  0  0
  -30.3942  -21.0212   20.5851 N   0  0  0  0  0  0  0  0  0  0  0  0
  -25.4649  -29.1889   21.6953 N   0  0  0  0  0  0  0  0  0  0  0  0
  -21.4230  -22.1790   18.9610 N   0  0  0  0  0  0  0  0  0  0  0  0
  -29.5568  -24.6389   19.6537 N   0  0  0  0  0  0  0  0  0  0  0  0
  -32.5203  -20.6525   21.5619 N   0  0  0  0  0  0  0  0  0  0  0  0
  -30.3523  -16.7569   22.2838 N   0  0  0  0  0  0  0  0  0  0  0  0
  -20.7959  -22.1567   15.4487 N   0  0  0  0  0  0  0  0  0  0  0  0
  -20.2391  -20.9017   21.8636 N   0  0  0  0  0  0  0  0  0  0  0  0
  -29.0259  -25.8923   21.6208 N   0  0  0  0  0  0  0  0  0  0  0  0
  -22.7418  -20.0173   24.3176 N   0  3  0  0  0  0  0  0  0  0  0  0
  -24.9230  -31.2663   22.6984 O   0  0  0  0  0  0  0  0  0  0  0  0
  -32.3228  -17.8811   22.6190 O   0  0  0  0  0  0  0  0  0  0  0  0
  -20.7424  -23.8622   17.0333 O   0  0  0  0  0  0  0  0  0  0  0  0
  -19.9932  -20.3403   19.0648 O   0  0  0  0  0  0  0  0  0  0  0  0
  -21.6635  -22.2895   23.0562 O   0  0  0  0  0  0  0  0  0  0  0  0
  -28.4204  -26.6498   19.5135 O   0  0  0  0  0  0  0  0  0  0  0  0
  -25.1391  -15.5527   20.7323 O   0  0  0  0  0  0  0  0  0  0  0  0
  -25.4671  -26.7871   19.6423 O   0  0  0  0  0  0  0  0  0  1  0  0
  -26.3353  -10.3564   19.3283 F   0  0  0  0  0  0  0  0  0  0  0  0
  -23.9802  -14.3806   18.5129 F   0  0  0  0  0  0  0  0  0  0  0  0
  1  2  1  0  0  0  0
  1  6  2  0  0  0  0
  2  7  2  0  0  0  0
  3  9  2  0  0  0  0
  3 10  1  0  0  0  0
  4 11  2  0  0  0  0
  4 19  1  0  0  0  0
  5 12  1  0  0  0  0
  5 19  2  0  0  0  0
  6 21  1  0  0  0  0
  7 23  1  0  0  0  0
  8 13  2  0  0  0  0
  8 22  1  0  0  0  0
  9 25  1  0  0  0  0
 10 26  2  0  0  0  0
 11 27  1  0  0  0  0
 12 27  2  0  0  0  0
 13 28  1  0  0  0  0
 14 15  2  0  0  0  0
 14 29  1  0  0  0  0
 15 30  1  0  0  0  0
 16 24  1  0  0  0  0
 16 28  2  0  0  0  0
 17 25  2  0  0  0  0
 17 26  1  0  0  0  0
 18 30  2  0  0  0  0
 18 31  1  0  0  0  0
 19 32  1  0  0  0  0
 20 32  1  0  0  0  0
 20 33  2  0  0  0  0
 20 39  1  0  0  0  0
 21 23  2  0  0  0  0
 21 44  1  0  0  0  0
 22 24  2  0  0  0  0
 22 45  1  0  0  0  0
 23 53  1  0  0  0  0
 24 46  1  0  0  0  0
 25 67  1  0  0  0  0
 26 74  1  0  0  0  0
 27 82  1  0  0  0  0
 28 83  1  0  0  0  0
 29 31  2  0  0  0  0
 29 82  1  0  0  0  0
 30 84  1  0  0  0  0
 31 85  1  0  0  0  0
 32 65  2  0  0  0  0
 33 66  1  0  0  0  0
 33 70  1  0  0  0  0
 34 35  1  0  0  0  0
 34 36  1  0  0  0  0
 34 37  2  0  0  0  0
 35 38  2  0  0  0  0
 35 67  1  0  0  0  0
 36 67  1  0  0  0  0
 36 76  2  0  0  0  0
 38 83  1  0  0  0  0
 39 71  1  0  0  0  0
 39 77  2  0  0  0  0
 40 54  1  0  0  0  0
 40 72  1  0  0  0  0
 40 78  2  0  0  0  0
 41 62  1  0  0  0  0
 41 68  1  0  0  0  0
 41 79  2  0  0  0  0
 42 63  1  0  0  0  0
 42 73  1  0  0  0  0
 42 80  2  0  0  0  0
 43 69  1  0  0  0  0
 43 74  1  0  0  0  0
 43 81  2  0  0  0  0
 44 47  1  0  0  0  0
 45 54  1  0  0  0  0
 46 68  1  0  0  0  0
 47 49  1  0  0  0  0
 48 50  1  0  0  0  0
 48 51  1  0  0  0  0
 49 53  1  0  0  0  0
 50 55  1  0  0  0  0
 51 69  1  0  0  0  0
 52 55  1  0  0  0  0
 52 69  1  0  0  0  0
 53 72  1  0  0  0  0
 54 68  1  0  0  0  0
 55 66  1  0  0  0  0
 56 63  1  0  0  0  0
 57 64  1  0  0  0  0
 58 64  1  0  0  0  0
 59 64  1  0  0  0  0
 60 74  1  0  0  0  0
 61 75  1  0  0  0  0
 62 64  1  0  0  0  0
 62 73  1  0  0  0  0
 63 75  1  0  0  0  0
 65 66  1  0  0  0  0
M  CHG  1  75   1
M  ISO  4  38 101  43 100  74 100  83 101
M  END
> <Batch ID>
0080

> <Smiles>
C=C1C(=O)N(c2cccc([100N:0](C)[100C:0](=O)N3CCCC(n4nc(-c5ccc(Oc6ccc(F)cc6F)cc5)c(C(N)=O)c4N)C3)c2)C1=[101CH:1][101O:1]c1ccc2c(c1)CN(C(=O)C(NC(=O)C(C)NC)C(C)(C)C)C(C(=O)NC1CCCc3ccccc31)C2

> <Shape>
0.168

> <Color>
0.071

> <Negative vol penalty>
0.000

$$$$

  -OEChem-04052300023D

 85 94  0     1  0  0  0  0  0999 V2000
  -28.5506  -30.2890   11.9202 C   0  0  0  0  0  0  0  0  0  0  0  0
  -27.7944  -29.3962   12.6728 C   0  0  0  0  0  0  0  0  0  0  0  0
  -22.6203  -10.2928   20.2581 C   0  0  0  0  0  0  0  0  0  0  0  0
  -24.2782   -9.5316   21.8420 C   0  0  0  0  0  0  0  0  0  0  0  0
  -29.9320  -30.3533   12.0979 C   0  0  0  0  0  0  0  0  0  0  0  0
  -28.4194  -28.5663   13.6029 C   0  0  0  0  0  0  0  0  0  0  0  0
  -26.1584  -26.7068   18.9821 C   0  0  0  0  0  0  0  0  0  0  0  0
  -21.8697   -9.1402   20.4898 C   0  0  0  0  0  0  0  0  0  0  0  0
  -23.5276   -8.3791   22.0738 C   0  0  0  0  0  0  0  0  0  0  0  0
  -25.5326  -25.5257   19.3787 C   0  0  0  0  0  0  0  0  0  0  0  0
  -19.7394   -7.9875   22.8491 C   0  0  0  0  0  0  0  0  0  0  0  0
  -18.3642   -8.1349   23.0297 C   0  0  0  0  0  0  0  0  0  0  0  0
  -29.2215  -17.1633   20.0311 C   0  0  0  0  0  0  0  0  0  0  0  0
  -28.4692  -18.3727   20.0697 C   0  0  0  0  0  0  0  0  0  0  0  0
  -27.6455  -24.6829   20.1817 C   0  0  0  0  0  0  0  0  0  0  0  0
  -17.9609   -6.7166   21.1158 C   0  0  0  0  0  0  0  0  0  0  0  0
  -23.8246  -10.4885   20.9341 C   0  0  0  0  0  0  0  0  0  0  0  0
  -24.1983  -13.0118   20.9011 C   0  0  0  0  0  0  0  0  0  0  0  0
  -30.5730  -29.5306   13.0376 C   0  0  0  0  0  0  0  0  0  0  0  0
  -27.5367  -26.8807   19.1728 C   0  0  0  0  0  0  0  0  0  0  0  0
  -29.8108  -28.6187   13.7925 C   0  0  0  0  0  0  0  0  0  0  0  0
  -28.2859  -25.8681   19.7890 C   0  0  0  0  0  0  0  0  0  0  0  0
  -22.3233   -8.1834   21.3977 C   0  0  0  0  0  0  0  0  0  0  0  0
  -26.2766  -24.5124   19.9760 C   0  0  0  0  0  0  0  0  0  0  0  0
  -20.2254   -7.2047   21.8018 C   0  0  0  0  0  0  0  0  0  0  0  0
  -17.4749   -7.4995   22.1631 C   0  0  0  0  0  0  0  0  0  0  0  0
  -19.3361   -6.5693   20.9352 C   0  0  0  0  0  0  0  0  0  0  0  0
  -24.6007  -11.6786   20.6947 C   0  0  0  0  0  0  0  0  0  0  0  0
  -29.5135  -16.6951   21.2933 C   0  0  0  0  0  0  0  0  0  0  0  0
  -25.2869  -13.7609   20.5266 C   0  0  0  0  0  0  0  0  0  0  0  0
  -28.2146  -18.7827   21.3600 C   0  0  0  0  0  0  0  0  0  0  0  0
  -26.2904  -21.8685   22.0596 C   0  0  0  0  0  0  0  0  0  0  0  0
  -26.8889  -20.9149   21.0878 C   0  0  0  0  0  0  0  0  0  0  0  0
  -22.9520  -13.5269   21.3879 C   0  0  0  0  0  0  0  0  0  0  0  0
  -30.2403  -15.5257   21.6688 C   0  0  0  0  0  0  0  0  0  0  0  0
  -25.7201  -23.0163   21.6856 C   0  0  0  0  0  0  0  0  0  1  0  0
  -30.8160  -14.5977   20.6684 C   0  0  0  0  0  0  0  0  0  0  0  0
  -30.0272  -27.3356   17.2508 C   0  0  0  0  0  0  0  0  0  0  0  0
  -31.6210  -27.7223   20.0495 C   0  0  0  0  0  0  0  0  0  0  0  0
  -31.7877  -27.0927   23.3995 C   0  0  0  0  0  0  0  0  0  0  0  0
  -32.0745  -29.6024   13.1607 C   0  0  0  0  0  0  0  0  0  0  0  0
  -28.1919  -28.1713   18.7637 C   0  0  0  0  0  0  0  0  0  0  0  0
  -29.7647  -26.0136   20.0346 C   0  0  0  0  0  0  0  0  0  0  0  0
  -26.4514  -21.3588   23.4490 C   0  0  0  0  0  0  0  0  0  0  0  0
  -32.6129  -28.9536   14.4333 C   0  0  0  0  0  0  0  0  0  0  0  0
  -29.5199  -12.4553   18.1020 C   0  0  0  0  0  0  0  0  0  0  0  0
  -31.9667  -27.5892   14.6515 C   0  0  0  0  0  0  0  0  0  0  0  0
  -28.1046  -12.1410   18.5859 C   0  0  0  0  0  0  0  0  0  0  0  0
  -27.4206  -20.2001   23.2824 C   0  0  0  0  0  0  0  0  0  0  0  0
  -30.4908  -12.5960   19.2699 C   0  0  0  0  0  0  0  0  0  0  0  0
  -28.6492  -13.2959   20.7756 C   0  0  0  0  0  0  0  0  0  0  0  0
  -30.4491  -27.7195   14.8289 C   0  0  1  0  0  0  0  0  0  0  0  0
  -29.6945  -28.0337   18.5390 C   0  0  1  0  0  0  0  0  0  0  0  0
  -27.6344  -13.1738   19.6255 C   0  0  2  0  0  0  0  0  0  0  0  0
  -25.1125  -23.9895   22.6437 C   0  0  0  0  0  0  0  0  0  0  0  0
  -33.2273  -27.5076   25.4126 C   0  0  0  0  0  0  0  0  0  0  0  0
  -33.5840  -25.5967   19.0808 C   0  0  0  0  0  0  0  0  0  0  0  0
  -34.3972  -25.3731   21.4381 C   0  0  0  0  0  0  0  0  0  0  0  0
  -34.6429  -27.5453   20.2367 C   0  0  0  0  0  0  0  0  0  0  0  0
  -29.6280  -28.5688   24.7837 C   0  0  0  0  0  0  0  0  0  0  0  0
  -32.3497  -26.8038   21.0005 C   0  0  1  0  0  0  0  0  0  0  0  0
  -32.0530  -28.0045   24.5838 C   0  0  2  0  0  0  0  0  0  0  0  0
  -33.7159  -26.3259   20.4328 C   0  0  0  0  0  0  0  0  0  0  0  0
  -25.8476  -11.5832   20.2253 N   0  0  0  0  0  0  0  0  0  0  0  0
  -30.4699  -15.1617   22.9176 N   0  0  0  0  0  0  0  0  0  0  0  0
  -26.2380  -12.8658   20.1336 N   0  0  0  0  0  0  0  0  0  0  0  0
  -27.5070  -19.9210   21.8575 N   0  0  0  0  0  0  0  0  0  0  0  0
  -29.9971  -13.5563   20.2549 N   0  0  0  0  0  0  0  0  0  0  0  0
  -30.3607  -27.2915   19.6112 N   0  0  0  0  0  0  0  0  0  0  0  0
  -25.5137  -15.0914   20.4983 N   0  0  0  0  0  0  0  0  0  0  0  0
  -22.8016  -13.7183   22.7681 N   0  0  0  0  0  0  0  0  0  0  0  0
  -30.1342  -28.1819   16.1636 N   0  0  0  0  0  0  0  0  0  0  0  0
  -32.4470  -27.5215   22.2670 N   0  0  0  0  0  0  0  0  0  0  0  0
  -30.8523  -28.0732   25.4639 N   0  3  0  0  0  0  0  0  0  0  0  0
  -26.8135  -21.0557   19.8786 O   0  0  0  0  0  0  0  0  0  0  0  0
  -21.9941  -13.7936   20.6231 O   0  0  0  0  0  0  0  0  0  0  0  0
  -31.9594  -14.8500   20.3117 O   0  0  0  0  0  0  0  0  0  0  0  0
  -30.1773  -26.1194   17.2439 O   0  0  0  0  0  0  0  0  0  0  0  0
  -32.1473  -28.7861   19.7136 O   0  0  0  0  0  0  0  0  0  0  0  0
  -31.0705  -26.0973   23.4727 O   0  0  0  0  0  0  0  0  0  0  0  0
  -21.5910   -7.0587   21.6243 O   0  0  0  0  0  0  0  0  0  0  0  0
  -25.6684  -23.3584   20.3634 O   0  0  0  0  0  0  0  0  0  1  0  0
  -16.1543   -7.6399   22.3375 F   0  0  0  0  0  0  0  0  0  0  0  0
  -19.7970   -5.8150   19.9280 F   0  0  0  0  0  0  0  0  0  0  0  0
  -28.8816  -17.7118   22.5178 S   0  0  0  0  0  0  0  0  0  0  0  0
  1  2  1  0  0  0  0
  1  5  2  0  0  0  0
  2  6  2  0  0  0  0
  3  8  2  0  0  0  0
  3 17  1  0  0  0  0
  4  9  1  0  0  0  0
  4 17  2  0  0  0  0
  5 19  1  0  0  0  0
  6 21  1  0  0  0  0
  7 10  2  0  0  0  0
  7 20  1  0  0  0  0
  8 23  1  0  0  0  0
  9 23  2  0  0  0  0
 10 24  1  0  0  0  0
 11 12  2  0  0  0  0
 11 25  1  0  0  0  0
 12 26  1  0  0  0  0
 13 14  1  0  0  0  0
 13 29  2  0  0  0  0
 14 31  2  0  0  0  0
 15 22  1  0  0  0  0
 15 24  2  0  0  0  0
 16 26  2  0  0  0  0
 16 27  1  0  0  0  0
 17 28  1  0  0  0  0
 18 28  1  0  0  0  0
 18 30  2  0  0  0  0
 18 34  1  0  0  0  0
 19 21  2  0  0  0  0
 19 41  1  0  0  0  0
 20 22  2  0  0  0  0
 20 42  1  0  0  0  0
 21 52  1  0  0  0  0
 22 43  1  0  0  0  0
 23 81  1  0  0  0  0
 24 82  1  0  0  0  0
 25 27  2  0  0  0  0
 25 81  1  0  0  0  0
 26 83  1  0  0  0  0
 27 84  1  0  0  0  0
 28 64  2  0  0  0  0
 29 35  1  0  0  0  0
 29 85  1  0  0  0  0
 30 66  1  0  0  0  0
 30 70  1  0  0  0  0
 31 67  1  0  0  0  0
 31 85  1  0  0  0  0
 32 33  1  0  0  0  0
 32 36  2  0  0  0  0
 32 44  1  0  0  0  0
 33 67  1  0  0  0  0
 33 75  2  0  0  0  0
 34 71  1  0  0  0  0
 34 76  2  0  0  0  0
 35 37  1  0  0  0  0
 35 65  2  0  0  0  0
 36 55  1  0  0  0  0
 36 82  1  0  0  0  0
 37 68  1  0  0  0  0
 37 77  2  0  0  0  0
 38 53  1  0  0  0  0
 38 72  1  0  0  0  0
 38 78  2  0  0  0  0
 39 61  1  0  0  0  0
 39 69  1  0  0  0  0
 39 79  2  0  0  0  0
 40 62  1  0  0  0  0
 40 73  1  0  0  0  0
 40 80  2  0  0  0  0
 41 45  1  0  0  0  0
 42 53  1  0  0  0  0
 43 69  1  0  0  0  0
 44 49  1  0  0  0  0
 45 47  1  0  0  0  0
 46 48  1  0  0  0  0
 46 50  1  0  0  0  0
 47 52  1  0  0  0  0
 48 54  1  0  0  0  0
 49 67  1  0  0  0  0
 50 68  1  0  0  0  0
 51 54  1  0  0  0  0
 51 68  1  0  0  0  0
 52 72  1  0  0  0  0
 53 69  1  0  0  0  0
 54 66  1  0  0  0  0
 56 62  1  0  0  0  0
 57 63  1  0  0  0  0
 58 63  1  0  0  0  0
 59 63  1  0  0  0  0
 60 74  1  0  0  0  0
 61 63  1  0  0  0  0
 61 73  1  0  0  0  0
 62 74  1  0  0  0  0
 64 66  1  0  0  0  0
M  CHG  1  74   1
M  ISO  4  35 100  36 101  37 100  82 101
M  END
> <Batch ID>
0080

> <Smiles>
CNC(C)C(=O)NC(C(=O)N1Cc2cc([101O:1][101C:1](C)=C3CCN(c4ccc([100C:0](=N)[100C:0](=O)N5CCCC(n6nc(-c7ccc(Oc8ccc(F)cc8F)cc7)c(C(N)=O)c6N)C5)s4)C3=O)ccc2CC1C(=O)NC1CCCc2ccccc21)C(C)(C)C

> <Shape>
0.224

> <Color>
0.167

> <Negative vol penalty>
0.000

$$$$

  -OEChem-04052300023D

 82 90  0     1  0  0  0  0  0999 V2000
  -21.8499  -12.3695   19.6227 C   0  0  0  0  0  0  0  0  0  0  0  0
  -21.7181  -13.7322   19.8698 C   0  0  0  0  0  0  0  0  0  0  0  0
  -18.0947  -27.9704   22.9773 C   0  0  0  0  0  0  0  0  0  0  0  0
  -29.3967  -28.7564   25.4943 C   0  0  0  0  0  0  0  0  0  0  0  0
  -28.1979  -26.7348   24.9348 C   0  0  0  0  0  0  0  0  0  0  0  0
  -18.2248  -26.6085   22.7051 C   0  0  0  0  0  0  0  0  0  0  0  0
  -23.0570  -11.7266   19.8941 C   0  0  0  0  0  0  0  0  0  0  0  0
  -22.7929  -14.4526   20.3895 C   0  0  0  0  0  0  0  0  0  0  0  0
  -23.4888  -18.8781   18.0283 C   0  0  0  0  0  0  0  0  0  0  0  0
  -19.1946  -28.8172   22.8400 C   0  0  0  0  0  0  0  0  0  0  0  0
  -29.9987  -28.1020   26.5690 C   0  0  0  0  0  0  0  0  0  0  0  0
  -28.7999  -26.0804   26.0095 C   0  0  0  0  0  0  0  0  0  0  0  0
  -22.6322  -19.9237   18.3700 C   0  0  0  0  0  0  0  0  0  0  0  0
  -28.4083  -25.9186   29.3638 C   0  0  0  0  0  0  0  0  0  0  0  0
  -27.5963  -25.1318   30.1806 C   0  0  0  0  0  0  0  0  0  0  0  0
  -20.5547  -26.9403   22.1586 C   0  0  0  0  0  0  0  0  0  0  0  0
  -24.3377  -20.8436   19.8066 C   0  0  0  0  0  0  0  0  0  0  0  0
  -28.9319  -23.1924   29.6400 C   0  0  0  0  0  0  0  0  0  0  0  0
  -28.4963  -28.0728   24.6772 C   0  0  0  0  0  0  0  0  0  0  0  0
  -19.4547  -26.0935   22.2958 C   0  0  0  0  0  0  0  0  0  0  0  0
  -28.3516  -28.8304   22.2456 C   0  0  0  0  0  0  0  0  0  0  0  0
  -24.1502  -12.4414   20.4084 C   0  0  0  0  0  0  0  0  0  0  0  0
  -24.7746  -18.8014   18.5826 C   0  0  0  0  0  0  0  0  0  0  0  0
  -24.0153  -13.8184   20.6693 C   0  0  0  0  0  0  0  0  0  0  0  0
  -25.2097  -19.7975   19.4684 C   0  0  0  0  0  0  0  0  0  0  0  0
  -20.4246  -28.3021   22.4307 C   0  0  0  0  0  0  0  0  0  0  0  0
  -29.7003  -26.7640   26.8266 C   0  0  0  0  0  0  0  0  0  0  0  0
  -23.0555  -20.9051   19.2615 C   0  0  0  0  0  0  0  0  0  0  0  0
  -29.4820  -25.3424   28.6850 C   0  0  0  0  0  0  0  0  0  0  0  0
  -27.8582  -23.7687   30.3187 C   0  0  0  0  0  0  0  0  0  0  0  0
  -29.7439  -23.9793   28.8232 C   0  0  0  0  0  0  0  0  0  0  0  0
  -27.8737  -28.7483   23.5672 C   0  0  0  0  0  0  0  0  0  0  0  0
  -27.4052  -29.5738   21.5838 C   0  0  0  0  0  0  0  0  0  0  0  0
  -21.0295  -22.9841   21.3427 C   0  0  0  0  0  0  0  0  0  0  0  0
  -19.5923  -24.6368   22.0050 C   0  0  0  0  0  0  0  0  0  0  0  0
  -29.5444  -28.2835   21.6679 C   0  0  0  0  0  0  0  0  0  0  0  0
  -26.2993  -16.7131   20.4314 C   0  0  0  0  0  0  0  0  0  0  0  0
  -28.8373  -18.6504   19.8590 C   0  0  0  0  0  0  0  0  0  0  0  0
  -29.9815  -21.7496   19.0031 C   0  0  0  0  0  0  0  0  0  0  0  0
  -21.5829  -30.5374   22.5207 C   0  0  0  0  0  0  0  0  0  0  0  0
  -25.4198  -11.6936   20.7303 C   0  0  0  0  0  0  0  0  0  0  0  0
  -25.6962  -17.6818   18.1833 C   0  0  0  0  0  0  0  0  0  0  0  0
  -26.5877  -19.7719   20.0756 C   0  0  0  0  0  0  0  0  0  0  0  0
  -26.6292  -12.6038   20.9284 C   0  0  0  0  0  0  0  0  0  0  0  0
  -24.1449  -33.0023   22.3258 C   0  0  0  0  0  0  0  0  0  0  0  0
  -26.2710  -13.7780   21.8338 C   0  0  0  0  0  0  0  0  0  0  0  0
  -25.4356  -32.1978   22.4957 C   0  0  0  0  0  0  0  0  0  0  0  0
  -23.0154  -32.4526   23.1953 C   0  0  0  0  0  0  0  0  0  0  0  0
  -24.0411  -30.2127   23.2042 C   0  0  0  0  0  0  0  0  0  0  0  0
  -25.1663  -14.6391   21.2095 C   0  0  1  0  0  0  0  0  0  0  0  0
  -26.7992  -17.4226   19.2048 C   0  0  1  0  0  0  0  0  0  0  0  0
  -25.1893  -30.6890   22.2994 C   0  0  2  0  0  0  0  0  0  0  0  0
  -32.1066  -23.0379   18.6542 C   0  0  0  0  0  0  0  0  0  0  0  0
  -29.2190  -18.8345   22.8807 C   0  0  0  0  0  0  0  0  0  0  0  0
  -30.6913  -20.8240   22.5035 C   0  0  0  0  0  0  0  0  0  0  0  0
  -31.3384  -18.6015   21.5738 C   0  0  0  0  0  0  0  0  0  0  0  0
  -29.3257  -22.2889   16.1679 C   0  0  0  0  0  0  0  0  0  0  0  0
  -22.3746  -22.4892   20.8995 C   0  0  0  0  0  0  0  0  0  1  0  0
  -29.4209  -19.8728   20.5255 C   0  0  1  0  0  0  0  0  0  0  0  0
  -31.0258  -22.1950   17.9953 C   0  0  2  0  0  0  0  0  0  0  0  0
  -30.1407  -19.5329   21.8611 C   0  0  0  0  0  0  0  0  0  0  0  0
  -26.7138  -29.3886   23.7368 N   0  0  0  0  0  0  0  0  0  0  0  0
  -20.8499  -24.2347   21.6083 N   0  0  0  0  0  0  0  0  0  0  0  0
  -26.4550  -29.8802   22.5131 N   0  0  0  0  0  0  0  0  0  0  0  0
  -27.4496  -18.6535   19.6589 N   0  0  0  0  0  0  0  0  0  0  0  0
  -22.8367  -31.0194   22.9526 N   0  0  0  0  0  0  0  0  0  0  0  0
  -27.3013  -29.9889   20.3034 N   0  0  0  0  0  0  0  0  0  0  0  0
  -30.4071  -27.5454   22.4896 N   0  0  0  0  0  0  0  0  0  0  0  0
  -21.5417  -29.1626   22.2911 N   0  0  0  0  0  0  0  0  0  0  0  0
  -25.7127  -15.4889   20.1733 N   0  0  0  0  0  0  0  0  0  0  0  0
  -30.2769  -20.5105   19.5309 N   0  0  0  0  0  0  0  0  0  0  0  0
  -30.3922  -23.0034   16.9156 N   0  3  0  0  0  0  0  0  0  0  0  0
  -18.6079  -23.9138   22.1325 O   0  0  0  0  0  0  0  0  0  0  0  0
  -29.8448  -28.4585   20.4626 O   0  0  0  0  0  0  0  0  0  0  0  0
  -26.4371  -17.2368   21.5306 O   0  0  0  0  0  0  0  0  0  0  0  0
  -29.5861  -17.7300   19.5218 O   0  0  0  0  0  0  0  0  0  0  0  0
  -29.0036  -22.4343   19.2957 O   0  0  0  0  0  0  0  0  0  0  0  0
  -20.6245  -31.2929   22.3398 O   0  0  0  0  0  0  0  0  0  0  0  0
  -30.2877  -26.1251   27.8751 O   0  0  0  0  0  0  0  0  0  0  0  0
  -22.2211  -21.9264   19.5971 O   0  0  0  0  0  0  0  0  0  1  0  0
  -27.0793  -23.0135   31.1044 F   0  0  0  0  0  0  0  0  0  0  0  0
  -30.7747  -23.4203   28.1745 F   0  0  0  0  0  0  0  0  0  0  0  0
  1  2  1  0  0  0  0
  1  7  2  0  0  0  0
  2  8  2  0  0  0  0
  3  6  2  0  0  0  0
  3 10  1  0  0  0  0
  4 11  2  0  0  0  0
  4 19  1  0  0  0  0
  5 12  1  0  0  0  0
  5 19  2  0  0  0  0
  6 20  1  0  0  0  0
  7 22  1  0  0  0  0
  8 24  1  0  0  0  0
  9 13  2  0  0  0  0
  9 23  1  0  0  0  0
 10 26  2  0  0  0  0
 11 27  1  0  0  0  0
 12 27  2  0  0  0  0
 13 28  1  0  0  0  0
 14 15  2  0  0  0  0
 14 29  1  0  0  0  0
 15 30  1  0  0  0  0
 16 20  2  0  0  0  0
 16 26  1  0  0  0  0
 17 25  1  0  0  0  0
 17 28  2  0  0  0  0
 18 30  2  0  0  0  0
 18 31  1  0  0  0  0
 19 32  1  0  0  0  0
 20 35  1  0  0  0  0
 21 32  1  0  0  0  0
 21 33  2  0  0  0  0
 21 36  1  0  0  0  0
 22 24  2  0  0  0  0
 22 41  1  0  0  0  0
 23 25  2  0  0  0  0
 23 42  1  0  0  0  0
 24 50  1  0  0  0  0
 25 43  1  0  0  0  0
 26 69  1  0  0  0  0
 27 79  1  0  0  0  0
 28 80  1  0  0  0  0
 29 31  2  0  0  0  0
 29 79  1  0  0  0  0
 30 81  1  0  0  0  0
 31 82  1  0  0  0  0
 32 62  2  0  0  0  0
 33 64  1  0  0  0  0
 33 67  1  0  0  0  0
 34 58  1  0  0  0  0
 34 63  2  0  0  0  0
 35 63  1  0  0  0  0
 35 73  2  0  0  0  0
 36 68  1  0  0  0  0
 36 74  2  0  0  0  0
 37 51  1  0  0  0  0
 37 70  1  0  0  0  0
 37 75  2  0  0  0  0
 38 59  1  0  0  0  0
 38 65  1  0  0  0  0
 38 76  2  0  0  0  0
 39 60  1  0  0  0  0
 39 71  1  0  0  0  0
 39 77  2  0  0  0  0
 40 66  1  0  0  0  0
 40 69  1  0  0  0  0
 40 78  2  0  0  0  0
 41 44  1  0  0  0  0
 42 51  1  0  0  0  0
 43 65  1  0  0  0  0
 44 46  1  0  0  0  0
 45 47  1  0  0  0  0
 45 48  1  0  0  0  0
 46 50  1  0  0  0  0
 47 52  1  0  0  0  0
 48 66  1  0  0  0  0
 49 52  1  0  0  0  0
 49 66  1  0  0  0  0
 50 70  1  0  0  0  0
 51 65  1  0  0  0  0
 52 64  1  0  0  0  0
 53 60  1  0  0  0  0
 54 61  1  0  0  0  0
 55 61  1  0  0  0  0
 56 61  1  0  0  0  0
 57 72  1  0  0  0  0
 58 80  1  0  0  0  0
 59 61  1  0  0  0  0
 59 71  1  0  0  0  0
 60 72  1  0  0  0  0
 62 64  1  0  0  0  0
M  CHG  1  72   1
M  ISO  4  40 100  58 101  69 100  80 101
M  END
> <Batch ID>
0080

> <Smiles>
CNC(C)C(=O)NC(C(=O)N1Cc2cc([101O:1][101CH:1]=CNC(=O)c3cccc([100NH:0][100C:0](=O)N4CCCC(n5nc(-c6ccc(Oc7ccc(F)cc7F)cc6)c(C(N)=O)c5N)C4)c3)ccc2CC1C(=O)NC1CCCc2ccccc21)C(C)(C)C

> <Shape>
0.216

> <Color>
0.085

> <Negative vol penalty>
0.000

$$$$

  -OEChem-04052300023D

 85 94  0     1  0  0  0  0  0999 V2000
  -21.9656  -12.1930   19.0880 C   0  0  0  0  0  0  0  0  0  0  0  0
  -21.8028  -13.5169   19.4833 C   0  0  0  0  0  0  0  0  0  0  0  0
  -20.0405  -26.4231   26.1823 C   0  0  0  0  0  0  0  0  0  0  0  0
  -27.1290  -25.6491   17.3290 C   0  0  0  0  0  0  0  0  0  0  0  0
  -25.0968  -24.8416   18.3562 C   0  0  0  0  0  0  0  0  0  0  0  0
  -20.0616  -27.7022   25.6264 C   0  0  0  0  0  0  0  0  0  0  0  0
  -23.1633  -11.5300   19.3524 C   0  0  0  0  0  0  0  0  0  0  0  0
  -22.8372  -14.1782   20.1443 C   0  0  0  0  0  0  0  0  0  0  0  0
  -23.6100  -18.8526   18.3562 C   0  0  0  0  0  0  0  0  0  0  0  0
  -20.3381  -25.3137   25.3909 C   0  0  0  0  0  0  0  0  0  0  0  0
  -27.0897  -24.5918   16.4200 C   0  0  0  0  0  0  0  0  0  0  0  0
  -25.0574  -23.7843   17.4472 C   0  0  0  0  0  0  0  0  0  0  0  0
  -22.7223  -19.8462   18.7666 C   0  0  0  0  0  0  0  0  0  0  0  0
  -24.1513  -23.3024   14.2274 C   0  0  0  0  0  0  0  0  0  0  0  0
  -22.9262  -23.0104   13.6279 C   0  0  0  0  0  0  0  0  0  0  0  0
  -20.6778  -26.7625   23.4876 C   0  0  0  0  0  0  0  0  0  0  0  0
  -24.3319  -20.6027   20.3964 C   0  0  0  0  0  0  0  0  0  0  0  0
  -22.9966  -20.7858   14.5678 C   0  0  0  0  0  0  0  0  0  0  0  0
  -26.1326  -25.7739   18.2972 C   0  0  0  0  0  0  0  0  0  0  0  0
  -20.3802  -27.8719   24.2791 C   0  0  0  0  0  0  0  0  0  0  0  0
  -27.1935  -27.1525   20.1631 C   0  0  0  0  0  0  0  0  0  0  0  0
  -24.2165  -12.1866   20.0083 C   0  0  0  0  0  0  0  0  0  0  0  0
  -24.8632  -18.7195   18.9712 C   0  0  0  0  0  0  0  0  0  0  0  0
  -24.0497  -13.5230   20.4189 C   0  0  0  0  0  0  0  0  0  0  0  0
  -25.2347  -19.6082   19.9901 C   0  0  0  0  0  0  0  0  0  0  0  0
  -20.6567  -25.4834   24.0436 C   0  0  0  0  0  0  0  0  0  0  0  0
  -26.0539  -23.6595   16.4791 C   0  0  0  0  0  0  0  0  0  0  0  0
  -23.0820  -20.7196   19.7888 C   0  0  0  0  0  0  0  0  0  0  0  0
  -24.7992  -22.3361   14.9970 C   0  0  0  0  0  0  0  0  0  0  0  0
  -22.3488  -21.7521   13.7982 C   0  0  0  0  0  0  0  0  0  0  0  0
  -24.2218  -21.0778   15.1672 C   0  0  0  0  0  0  0  0  0  0  0  0
  -26.1730  -26.8655   19.2368 C   0  0  0  0  0  0  0  0  0  0  0  0
  -26.7589  -28.2812   20.8140 C   0  0  0  0  0  0  0  0  0  0  0  0
  -21.4687  -22.7969   22.1684 C   0  0  0  0  0  0  0  0  0  0  0  0
  -21.0057  -23.0611   23.5312 C   0  0  0  0  0  0  0  0  0  0  0  0
  -21.8023  -21.6817   21.4940 C   0  0  0  0  0  0  0  0  0  1  0  0
  -20.4023  -29.2348   23.6884 C   0  0  0  0  0  0  0  0  0  0  0  0
  -28.4243  -26.4608   20.4128 C   0  0  0  0  0  0  0  0  0  0  0  0
  -26.3069  -16.4392   20.6504 C   0  0  0  0  0  0  0  0  0  0  0  0
  -28.8486  -18.4450   20.4541 C   0  0  0  0  0  0  0  0  0  0  0  0
  -30.0003  -21.6295   20.0306 C   0  0  0  0  0  0  0  0  0  0  0  0
  -21.3838  -30.5908   21.8658 C   0  0  0  0  0  0  0  0  0  0  0  0
  -25.4752  -11.4140   20.3142 C   0  0  0  0  0  0  0  0  0  0  0  0
  -25.8200  -17.6595   18.4987 C   0  0  0  0  0  0  0  0  0  0  0  0
  -26.5764  -19.5203   20.6689 C   0  0  0  0  0  0  0  0  0  0  0  0
  -21.4037  -24.2808   21.8879 C   0  0  0  0  0  0  0  0  0  0  0  0
  -26.6598  -12.3021   20.6861 C   0  0  0  0  0  0  0  0  0  0  0  0
  -24.0407  -32.1739   20.1536 C   0  0  0  0  0  0  0  0  0  0  0  0
  -26.2360  -13.3607   21.6992 C   0  0  0  0  0  0  0  0  0  0  0  0
  -24.9928  -31.0220   19.8204 C   0  0  0  0  0  0  0  0  0  0  0  0
  -22.5767  -31.7538   20.0301 C   0  0  0  0  0  0  0  0  0  0  0  0
  -23.1597  -29.3986   20.4436 C   0  0  0  0  0  0  0  0  0  0  0  0
  -25.1577  -14.2820   21.1161 C   0  0  1  0  0  0  0  0  0  0  0  0
  -26.8665  -17.2897   19.5453 C   0  0  1  0  0  0  0  0  0  0  0  0
  -24.6454  -29.7512   20.6215 C   0  0  1  0  0  0  0  0  0  0  0  0
  -31.6649  -23.4816   19.7203 C   0  0  0  0  0  0  0  0  0  0  0  0
  -29.0559  -18.2782   23.4937 C   0  0  0  0  0  0  0  0  0  0  0  0
  -30.5221  -20.3068   23.4353 C   0  0  0  0  0  0  0  0  0  0  0  0
  -31.2489  -18.2116   22.2932 C   0  0  0  0  0  0  0  0  0  0  0  0
  -29.9875  -21.3047   17.0890 C   0  0  0  0  0  0  0  0  0  0  0  0
  -29.3780  -19.5849   21.2903 C   0  0  1  0  0  0  0  0  0  0  0  0
  -31.0944  -22.1954   19.1433 C   0  0  2  0  0  0  0  0  0  0  0  0
  -30.0251  -19.0961   22.6169 C   0  0  0  0  0  0  0  0  0  0  0  0
  -25.1659  -27.7412   19.2914 N   0  0  0  0  0  0  0  0  0  0  0  0
  -25.5514  -28.5894   20.2598 N   0  0  0  0  0  0  0  0  0  0  0  0
  -20.9504  -24.3892   23.2633 N   0  0  0  0  0  0  0  0  0  0  0  0
  -27.4745  -18.4631   20.1758 N   0  0  0  0  0  0  0  0  0  0  0  0
  -22.3277  -30.5498   20.8248 N   0  0  0  0  0  0  0  0  0  0  0  0
  -27.2956  -29.0301   21.8007 N   0  0  0  0  0  0  0  0  0  0  0  0
  -28.4328  -25.4363   21.3691 N   0  0  0  0  0  0  0  0  0  0  0  0
  -21.2497  -29.4027   22.5929 N   0  0  0  0  0  0  0  0  0  0  0  0
  -25.7512  -15.2499   20.2187 N   0  0  0  0  0  0  0  0  0  0  0  0
  -30.2808  -20.3392   20.4275 N   0  0  0  0  0  0  0  0  0  0  0  0
  -30.5593  -22.4870   17.7833 N   0  3  0  0  0  0  0  0  0  0  0  0
  -20.7766  -22.3796   24.5088 O   0  0  0  0  0  0  0  0  0  0  0  0
  -19.6680  -30.1011   24.1556 O   0  0  0  0  0  0  0  0  0  0  0  0
  -29.4889  -26.7538   19.8175 O   0  0  0  0  0  0  0  0  0  0  0  0
  -26.3755  -16.8322   21.8091 O   0  0  0  0  0  0  0  0  0  0  0  0
  -29.6268  -17.5746   20.0562 O   0  0  0  0  0  0  0  0  0  0  0  0
  -28.9989  -22.2696   20.3436 O   0  0  0  0  0  0  0  0  0  0  0  0
  -20.7433  -31.6082   22.1485 O   0  0  0  0  0  0  0  0  0  0  0  0
  -26.0151  -22.6278   15.5921 O   0  0  0  0  0  0  0  0  0  0  0  0
  -22.2171  -21.6899   20.1918 O   0  0  0  0  0  0  0  0  0  1  0  0
  -21.1715  -21.4724   13.2238 F   0  0  0  0  0  0  0  0  0  0  0  0
  -24.8388  -20.1458   15.9065 F   0  0  0  0  0  0  0  0  0  0  0  0
  1  2  1  0  0  0  0
  1  7  2  0  0  0  0
  2  8  2  0  0  0  0
  3  6  1  0  0  0  0
  3 10  2  0  0  0  0
  4 11  2  0  0  0  0
  4 19  1  0  0  0  0
  5 12  1  0  0  0  0
  5 19  2  0  0  0  0
  6 20  2  0  0  0  0
  7 22  1  0  0  0  0
  8 24  1  0  0  0  0
  9 13  2  0  0  0  0
  9 23  1  0  0  0  0
 10 26  1  0  0  0  0
 11 27  1  0  0  0  0
 12 27  2  0  0  0  0
 13 28  1  0  0  0  0
 14 15  2  0  0  0  0
 14 29  1  0  0  0  0
 15 30  1  0  0  0  0
 16 20  1  0  0  0  0
 16 26  2  0  0  0  0
 17 25  1  0  0  0  0
 17 28  2  0  0  0  0
 18 30  2  0  0  0  0
 18 31  1  0  0  0  0
 19 32  1  0  0  0  0
 20 37  1  0  0  0  0
 21 32  1  0  0  0  0
 21 33  2  0  0  0  0
 21 38  1  0  0  0  0
 22 24  2  0  0  0  0
 22 43  1  0  0  0  0
 23 25  2  0  0  0  0
 23 44  1  0  0  0  0
 24 53  1  0  0  0  0
 25 45  1  0  0  0  0
 26 66  1  0  0  0  0
 27 82  1  0  0  0  0
 28 83  1  0  0  0  0
 29 31  2  0  0  0  0
 29 82  1  0  0  0  0
 30 84  1  0  0  0  0
 31 85  1  0  0  0  0
 32 64  2  0  0  0  0
 33 65  1  0  0  0  0
 33 69  1  0  0  0  0
 34 35  1  0  0  0  0
 34 36  2  0  0  0  0
 34 46  1  0  0  0  0
 35 66  1  0  0  0  0
 35 75  2  0  0  0  0
 36 83  1  0  0  0  0
 37 71  1  0  0  0  0
 37 76  2  0  0  0  0
 38 70  1  0  0  0  0
 38 77  2  0  0  0  0
 39 54  1  0  0  0  0
 39 72  1  0  0  0  0
 39 78  2  0  0  0  0
 40 61  1  0  0  0  0
 40 67  1  0  0  0  0
 40 79  2  0  0  0  0
 41 62  1  0  0  0  0
 41 73  1  0  0  0  0
 41 80  2  0  0  0  0
 42 68  1  0  0  0  0
 42 71  1  0  0  0  0
 42 81  2  0  0  0  0
 43 47  1  0  0  0  0
 44 54  1  0  0  0  0
 45 67  1  0  0  0  0
 46 66  1  0  0  0  0
 47 49  1  0  0  0  0
 48 50  1  0  0  0  0
 48 51  1  0  0  0  0
 49 53  1  0  0  0  0
 50 55  1  0  0  0  0
 51 68  1  0  0  0  0
 52 55  1  0  0  0  0
 52 68  1  0  0  0  0
 53 72  1  0  0  0  0
 54 67  1  0  0  0  0
 55 65  1  0  0  0  0
 56 62  1  0  0  0  0
 57 63  1  0  0  0  0
 58 63  1  0  0  0  0
 59 63  1  0  0  0  0
 60 74  1  0  0  0  0
 61 63  1  0  0  0  0
 61 73  1  0  0  0  0
 62 74  1  0  0  0  0
 64 65  1  0  0  0  0
M  CHG  1  74   1
M  ISO  4  36 101  42 100  71 100  83 101
M  END
> <Batch ID>
0080

> <Smiles>
CNC(C)C(=O)NC(C(=O)N1Cc2cc([101O:1][101CH:1]=C3CN(c4cccc(C(=O)[100NH:0][100C:0](=O)N5CCCC(n6nc(-c7ccc(Oc8ccc(F)cc8F)cc7)c(C(N)=O)c6N)C5)c4)C3=O)ccc2CC1C(=O)NC1CCCc2ccccc21)C(C)(C)C

> <Shape>
0.209

> <Color>
0.087

> <Negative vol penalty>
0.000

$$$$

  -OEChem-04052300023D

 83 92  0     1  0  0  0  0  0999 V2000
  -26.2045  -35.2490   23.5162 C   0  0  0  0  0  0  0  0  0  0  0  0
  -26.7199  -33.9845   23.2502 C   0  0  0  0  0  0  0  0  0  0  0  0
  -23.9517  -14.0933   19.3185 C   0  0  0  0  0  0  0  0  0  0  0  0
  -25.7834  -14.7667   20.7428 C   0  0  0  0  0  0  0  0  0  0  0  0
  -24.8959  -35.3841   23.9782 C   0  0  0  0  0  0  0  0  0  0  0  0
  -25.9275  -32.8542   23.4472 C   0  0  0  0  0  0  0  0  0  0  0  0
  -26.2569  -29.5589   19.6161 C   0  0  0  0  0  0  0  0  0  0  0  0
  -29.7626  -24.4339   18.3365 C   0  0  0  0  0  0  0  0  0  0  0  0
  -30.4669  -22.8824   20.0494 C   0  0  0  0  0  0  0  0  0  0  0  0
  -29.1082  -23.3991   17.6683 C   0  0  0  0  0  0  0  0  0  0  0  0
  -29.8125  -21.8476   19.3811 C   0  0  0  0  0  0  0  0  0  0  0  0
  -24.2488  -12.7539   19.5697 C   0  0  0  0  0  0  0  0  0  0  0  0
  -26.0805  -13.4272   20.9940 C   0  0  0  0  0  0  0  0  0  0  0  0
  -27.3898  -28.7476   19.5697 C   0  0  0  0  0  0  0  0  0  0  0  0
  -24.3003   -9.1613   20.1229 C   0  0  0  0  0  0  0  0  0  0  0  0
  -23.2381   -8.3044   20.4109 C   0  0  0  0  0  0  0  0  0  0  0  0
  -26.1236  -26.9345   20.5333 C   0  0  0  0  0  0  0  0  0  0  0  0
  -22.6726   -9.6521   22.3347 C   0  0  0  0  0  0  0  0  0  0  0  0
  -24.7190  -15.0998   19.9050 C   0  0  0  0  0  0  0  0  0  0  0  0
  -23.5405  -17.3128   20.3757 C   0  0  0  0  0  0  0  0  0  0  0  0
  -24.0838  -34.2555   24.1717 C   0  0  0  0  0  0  0  0  0  0  0  0
  -25.0496  -29.0666   20.1324 C   0  0  0  0  0  0  0  0  0  0  0  0
  -24.6073  -32.9742   23.9135 C   0  0  0  0  0  0  0  0  0  0  0  0
  -24.9761  -27.7408   20.5828 C   0  0  0  0  0  0  0  0  0  0  0  0
  -30.4420  -24.1755   19.5271 C   0  0  0  0  0  0  0  0  0  0  0  0
  -29.1331  -22.1060   18.1906 C   0  0  0  0  0  0  0  0  0  0  0  0
  -25.3132  -12.4208   20.4075 C   0  0  0  0  0  0  0  0  0  0  0  0
  -27.3240  -27.4361   20.0310 C   0  0  0  0  0  0  0  0  0  0  0  0
  -24.5487  -10.2636   20.9408 C   0  0  0  0  0  0  0  0  0  0  0  0
  -22.4242   -8.5498   21.5168 C   0  0  0  0  0  0  0  0  0  0  0  0
  -23.7349  -10.5090   22.0467 C   0  0  0  0  0  0  0  0  0  0  0  0
  -24.4129  -16.4837   19.6455 C   0  0  0  0  0  0  0  0  0  0  0  0
  -23.5978  -18.5241   19.7307 C   0  0  0  0  0  0  0  0  0  0  0  0
  -31.9534  -26.5475   21.3505 C   0  0  0  0  0  0  0  0  0  0  0  0
  -30.6822  -26.3384   20.7091 C   0  0  0  0  0  0  0  0  0  0  0  0
  -32.5047  -27.4885   22.1143 C   0  0  0  0  0  0  0  0  0  0  0  0
  -29.5362  -27.0426   20.6807 C   0  0  0  0  0  0  0  0  0  1  0  0
  -22.7492  -17.0147   21.5336 C   0  0  0  0  0  0  0  0  0  0  0  0
  -23.1787  -29.8366   22.5840 C   0  0  0  0  0  0  0  0  0  0  0  0
  -21.2197  -27.5992   21.2883 C   0  0  0  0  0  0  0  0  0  0  0  0
  -20.8876  -24.8216   19.3334 C   0  0  0  0  0  0  0  0  0  0  0  0
  -27.7485  -21.1407   16.3204 C   0  0  0  0  0  0  0  0  0  0  0  0
  -22.6912  -34.4483   24.7176 C   0  0  0  0  0  0  0  0  0  0  0  0
  -23.8296  -29.9461   20.1508 C   0  0  0  0  0  0  0  0  0  0  0  0
  -23.6986  -27.1580   21.1276 C   0  0  0  0  0  0  0  0  0  0  0  0
  -32.3960  -25.2408   20.7933 C   0  0  0  0  0  0  0  0  0  0  0  0
  -21.7939  -33.2257   24.5431 C   0  0  0  0  0  0  0  0  0  0  0  0
  -24.3806  -20.4318   15.4085 C   0  0  0  0  0  0  0  0  0  0  0  0
  -22.5310  -31.9581   24.9634 C   0  0  0  0  0  0  0  0  0  0  0  0
  -23.9253  -19.4190   16.4615 C   0  0  0  0  0  0  0  0  0  0  0  0
  -25.8423  -20.2239   15.0162 C   0  0  0  0  0  0  0  0  0  0  0  0
  -26.3326  -19.1784   17.1924 C   0  0  0  0  0  0  0  0  0  0  0  0
  -23.7706  -31.7258   24.0911 C   0  0  1  0  0  0  0  0  0  0  0  0
  -22.7877  -29.5012   21.1725 C   0  0  1  0  0  0  0  0  0  0  0  0
  -24.8855  -19.3891   17.6668 C   0  0  2  0  0  0  0  0  0  0  0  0
  -19.1681  -23.1991   18.4920 C   0  0  0  0  0  0  0  0  0  0  0  0
  -21.1579  -26.2497   24.0242 C   0  0  0  0  0  0  0  0  0  0  0  0
  -20.2516  -24.1970   22.9138 C   0  0  0  0  0  0  0  0  0  0  0  0
  -18.9521  -26.3253   22.8482 C   0  0  0  0  0  0  0  0  0  0  0  0
  -21.4235  -25.5379   16.5123 C   0  0  0  0  0  0  0  0  0  0  0  0
  -21.0464  -26.1082   21.4486 C   0  0  1  0  0  0  0  0  0  0  0  0
  -19.9214  -24.4898   18.2106 C   0  0  2  0  0  0  0  0  0  0  0  0
  -20.3767  -25.7313   22.8003 C   0  0  0  0  0  0  0  0  0  0  0  0
  -24.9826  -17.1148   18.6153 N   0  0  0  0  0  0  0  0  0  0  0  0
  -24.4669  -18.3534   18.6936 N   0  0  0  0  0  0  0  0  0  0  0  0
  -31.0936  -25.2027   20.1898 N   0  0  0  0  0  0  0  0  0  0  0  0
  -22.5346  -28.0595   21.1307 N   0  0  0  0  0  0  0  0  0  0  0  0
  -26.6930  -20.2111   16.2082 N   0  0  0  0  0  0  0  0  0  0  0  0
  -22.9890  -19.7078   19.9552 N   0  0  0  0  0  0  0  0  0  0  0  0
  -22.8083  -15.7205   22.0682 N   0  0  0  0  0  0  0  0  0  0  0  0
  -28.4683  -21.0549   17.5117 N   0  0  0  0  0  0  0  0  0  0  0  0
  -23.3889  -31.1845   22.8044 N   0  0  0  0  0  0  0  0  0  0  0  0
  -20.3140  -25.6535   20.2717 N   0  0  0  0  0  0  0  0  0  0  0  0
  -20.6567  -24.3338   16.9237 N   0  3  0  0  0  0  0  0  0  0  0  0
  -21.9989  -17.8661   22.0682 O   0  0  0  0  0  0  0  0  0  0  0  0
  -23.2806  -28.9392   23.4122 O   0  0  0  0  0  0  0  0  0  0  0  0
  -20.2244  -28.3279   21.2954 O   0  0  0  0  0  0  0  0  0  0  0  0
  -22.0351  -24.3835   19.3761 O   0  0  0  0  0  0  0  0  0  0  0  0
  -27.9785  -21.9711   15.4375 O   0  0  0  0  0  0  0  0  0  0  0  0
  -25.6032  -11.1138   20.6530 O   0  0  0  0  0  0  0  0  0  0  0  0
  -28.4285  -26.6423   19.9875 O   0  0  0  0  0  0  0  0  0  1  0  0
  -21.4032   -7.7277   21.7925 F   0  0  0  0  0  0  0  0  0  0  0  0
  -23.9679  -11.5670   22.8354 F   0  0  0  0  0  0  0  0  0  0  0  0
  1  2  1  0  0  0  0
  1  5  2  0  0  0  0
  2  6  2  0  0  0  0
  3 12  2  0  0  0  0
  3 19  1  0  0  0  0
  4 13  1  0  0  0  0
  4 19  2  0  0  0  0
  5 21  1  0  0  0  0
  6 23  1  0  0  0  0
  7 14  2  0  0  0  0
  7 22  1  0  0  0  0
  8 10  2  0  0  0  0
  8 25  1  0  0  0  0
  9 11  1  0  0  0  0
  9 25  2  0  0  0  0
 10 26  1  0  0  0  0
 11 26  2  0  0  0  0
 12 27  1  0  0  0  0
 13 27  2  0  0  0  0
 14 28  1  0  0  0  0
 15 16  2  0  0  0  0
 15 29  1  0  0  0  0
 16 30  1  0  0  0  0
 17 24  1  0  0  0  0
 17 28  2  0  0  0  0
 18 30  2  0  0  0  0
 18 31  1  0  0  0  0
 19 32  1  0  0  0  0
 20 32  1  0  0  0  0
 20 33  2  0  0  0  0
 20 38  1  0  0  0  0
 21 23  2  0  0  0  0
 21 43  1  0  0  0  0
 22 24  2  0  0  0  0
 22 44  1  0  0  0  0
 23 53  1  0  0  0  0
 24 45  1  0  0  0  0
 25 66  1  0  0  0  0
 26 71  1  0  0  0  0
 27 80  1  0  0  0  0
 28 81  1  0  0  0  0
 29 31  2  0  0  0  0
 29 80  1  0  0  0  0
 30 82  1  0  0  0  0
 31 83  1  0  0  0  0
 32 64  2  0  0  0  0
 33 65  1  0  0  0  0
 33 69  1  0  0  0  0
 34 35  1  0  0  0  0
 34 36  2  0  0  0  0
 34 46  1  0  0  0  0
 35 37  2  0  0  0  0
 35 66  1  0  0  0  0
 37 81  1  0  0  0  0
 38 70  1  0  0  0  0
 38 75  2  0  0  0  0
 39 54  1  0  0  0  0
 39 72  1  0  0  0  0
 39 76  2  0  0  0  0
 40 61  1  0  0  0  0
 40 67  1  0  0  0  0
 40 77  2  0  0  0  0
 41 62  1  0  0  0  0
 41 73  1  0  0  0  0
 41 78  2  0  0  0  0
 42 68  1  0  0  0  0
 42 71  1  0  0  0  0
 42 79  2  0  0  0  0
 43 47  1  0  0  0  0
 44 54  1  0  0  0  0
 45 67  1  0  0  0  0
 46 66  1  0  0  0  0
 47 49  1  0  0  0  0
 48 50  1  0  0  0  0
 48 51  1  0  0  0  0
 49 53  1  0  0  0  0
 50 55  1  0  0  0  0
 51 68  1  0  0  0  0
 52 55  1  0  0  0  0
 52 68  1  0  0  0  0
 53 72  1  0  0  0  0
 54 67  1  0  0  0  0
 55 65  1  0  0  0  0
 56 62  1  0  0  0  0
 57 63  1  0  0  0  0
 58 63  1  0  0  0  0
 59 63  1  0  0  0  0
 60 74  1  0  0  0  0
 61 63  1  0  0  0  0
 61 73  1  0  0  0  0
 62 74  1  0  0  0  0
 64 65  1  0  0  0  0
M  CHG  1  74   1
M  ISO  4  37 101  42 100  71 100  81 101
M  END
> <Batch ID>
0080

> <Smiles>
C=C1CN(c2ccc([100NH:0][100C:0](=O)N3CCCC(n4nc(-c5ccc(Oc6ccc(F)cc6F)cc5)c(C(N)=O)c4N)C3)cc2)C1=[101CH:1][101O:1]c1ccc2c(c1)CN(C(=O)C(NC(=O)C(C)NC)C(C)(C)C)C(C(=O)NC1CCCc3ccccc31)C2

> <Shape>
0.256

> <Color>
0.094

> <Negative vol penalty>
0.000

$$$$

  -OEChem-04052300023D

 84 93  0     1  0  0  0  0  0999 V2000
  -28.0974  -35.2115   25.8456 C   0  0  0  0  0  0  0  0  0  0  0  0
  -28.4547  -34.0612   25.1494 C   0  0  0  0  0  0  0  0  0  0  0  0
  -23.8115  -10.2083   22.2904 C   0  0  0  0  0  0  0  0  0  0  0  0
  -25.0475   -8.1817   21.8405 C   0  0  0  0  0  0  0  0  0  0  0  0
  -26.7954  -35.3607   26.3215 C   0  0  0  0  0  0  0  0  0  0  0  0
  -27.5105  -33.0590   24.9297 C   0  0  0  0  0  0  0  0  0  0  0  0
  -27.0527  -29.4482   20.0044 C   0  0  0  0  0  0  0  0  0  0  0  0
  -28.0025  -19.5494   21.5635 C   0  0  0  0  0  0  0  0  0  0  0  0
  -28.7039  -19.8136   19.2667 C   0  0  0  0  0  0  0  0  0  0  0  0
  -28.3139  -18.1911   21.5024 C   0  0  0  0  0  0  0  0  0  0  0  0
  -29.0154  -18.4553   19.2056 C   0  0  0  0  0  0  0  0  0  0  0  0
  -22.6135   -9.5033   22.1748 C   0  0  0  0  0  0  0  0  0  0  0  0
  -23.8495   -7.4767   21.7250 C   0  0  0  0  0  0  0  0  0  0  0  0
  -27.4799  -28.1449   19.7538 C   0  0  0  0  0  0  0  0  0  0  0  0
  -21.1257   -5.0692   21.6681 C   0  0  0  0  0  0  0  0  0  0  0  0
  -21.0366   -3.8317   22.3054 C   0  0  0  0  0  0  0  0  0  0  0  0
  -25.2886  -27.3212   20.3361 C   0  0  0  0  0  0  0  0  0  0  0  0
  -21.4483   -4.8982   24.4339 C   0  0  0  0  0  0  0  0  0  0  0  0
  -25.0285   -9.5475   22.1232 C   0  0  0  0  0  0  0  0  0  0  0  0
  -27.0246  -10.4781   23.4106 C   0  0  0  0  0  0  0  0  0  0  0  0
  -25.8321  -34.3640   26.0991 C   0  0  0  0  0  0  0  0  0  0  0  0
  -25.7413  -29.6972   20.4339 C   0  0  0  0  0  0  0  0  0  0  0  0
  -26.1947  -33.1944   25.4042 C   0  0  0  0  0  0  0  0  0  0  0  0
  -24.8465  -28.6288   20.5889 C   0  0  0  0  0  0  0  0  0  0  0  0
  -28.1974  -20.3606   20.4456 C   0  0  0  0  0  0  0  0  0  0  0  0
  -28.8204  -17.6441   20.3235 C   0  0  0  0  0  0  0  0  0  0  0  0
  -22.6325   -8.1375   21.8922 C   0  0  0  0  0  0  0  0  0  0  0  0
  -26.5986  -27.0809   19.9224 C   0  0  0  0  0  0  0  0  0  0  0  0
  -21.3762   -6.2212   22.4137 C   0  0  0  0  0  0  0  0  0  0  0  0
  -21.1978   -3.7461   23.6883 C   0  0  0  0  0  0  0  0  0  0  0  0
  -21.5374   -6.1357   23.7965 C   0  0  0  0  0  0  0  0  0  0  0  0
  -26.2664  -10.2753   22.2419 C   0  0  0  0  0  0  0  0  0  0  0  0
  -28.1003  -11.2251   22.9966 C   0  0  0  0  0  0  0  0  0  0  0  0
  -27.3471  -23.6243   20.5810 C   0  0  0  0  0  0  0  0  0  0  0  0
  -27.3949  -22.4831   21.4958 C   0  0  0  0  0  0  0  0  0  0  0  0
  -26.9635  -24.9077   20.7063 C   0  0  0  0  0  0  0  0  0  1  0  0
  -26.7786  -10.0312   24.7505 C   0  0  0  0  0  0  0  0  0  0  0  0
  -24.4372  -30.9613   23.0426 C   0  0  0  0  0  0  0  0  0  0  0  0
  -21.6897  -30.6509   21.3464 C   0  0  0  0  0  0  0  0  0  0  0  0
  -19.9913  -29.0649   18.8470 C   0  0  0  0  0  0  0  0  0  0  0  0
  -29.0487  -15.5183   19.0491 C   0  0  0  0  0  0  0  0  0  0  0  0
  -24.4500  -34.5491   26.6737 C   0  0  0  0  0  0  0  0  0  0  0  0
  -25.2882  -31.1112   20.6742 C   0  0  0  0  0  0  0  0  0  0  0  0
  -23.4222  -28.8447   21.0286 C   0  0  0  0  0  0  0  0  0  0  0  0
  -27.8972  -22.7365   19.4883 C   0  0  0  0  0  0  0  0  0  0  0  0
  -23.4097  -33.6069   26.0735 C   0  0  0  0  0  0  0  0  0  0  0  0
  -30.3141  -12.0739   18.6679 C   0  0  0  0  0  0  0  0  0  0  0  0
  -23.9493  -32.1812   26.0184 C   0  0  0  0  0  0  0  0  0  0  0  0
  -29.4192  -11.2757   19.6145 C   0  0  0  0  0  0  0  0  0  0  0  0
  -29.5947  -13.2950   18.1027 C   0  0  0  0  0  0  0  0  0  0  0  0
  -28.1280  -13.3941   20.0950 C   0  0  0  0  0  0  0  0  0  0  0  0
  -25.1921  -32.0959   25.1243 C   0  0  1  0  0  0  0  0  0  0  0  0
  -24.0812  -31.2023   21.6028 C   0  0  1  0  0  0  0  0  0  0  0  0
  -28.8385  -12.1812   20.7146 C   0  0  1  0  0  0  0  0  0  0  0  0
  -17.7497  -29.0015   17.7207 C   0  0  0  0  0  0  0  0  0  0  0  0
  -20.5394  -29.1274   23.7267 C   0  0  0  0  0  0  0  0  0  0  0  0
  -18.7206  -28.2908   22.2234 C   0  0  0  0  0  0  0  0  0  0  0  0
  -18.9543  -30.7368   22.6536 C   0  0  0  0  0  0  0  0  0  0  0  0
  -29.8040  -15.6189   21.4132 C   0  0  0  0  0  0  0  0  0  0  0  0
  -21.1531  -29.8275   16.2341 C   0  0  0  0  0  0  0  0  0  0  0  0
  -20.6491  -29.5691   21.1853 C   0  0  1  0  0  0  0  0  0  0  0  0
  -19.1471  -29.6011   17.7050 C   0  0  2  0  0  0  0  0  0  0  0  0
  -19.7432  -29.4265   22.4408 C   0  0  0  0  0  0  0  0  0  0  0  0
  -26.8139  -10.8474   21.1663 N   0  0  0  0  0  0  0  0  0  0  0  0
  -27.9276  -11.4171   21.6574 N   0  0  0  0  0  0  0  0  0  0  0  0
  -27.8900  -21.7001   20.5056 N   0  0  0  0  0  0  0  0  0  0  0  0
  -23.0287  -30.2448   21.2572 N   0  0  0  0  0  0  0  0  0  0  0  0
  -29.0132  -14.1143   19.1667 N   0  0  0  0  0  0  0  0  0  0  0  0
  -29.1676  -11.7299   23.6512 N   0  0  0  0  0  0  0  0  0  0  0  0
  -25.6263   -9.2737   25.0012 N   0  0  0  0  0  0  0  0  0  0  0  0
  -24.8115  -32.1012   23.7280 N   0  0  0  0  0  0  0  0  0  0  0  0
  -19.9245  -29.8793   19.9577 N   0  0  0  0  0  0  0  0  0  0  0  0
  -29.1429  -16.2381   20.2598 N   0  0  0  0  0  0  0  0  0  0  0  0
  -19.7821  -29.2788   16.3958 N   0  3  0  0  0  0  0  0  0  0  0  0
  -27.1010  -22.3006   22.6590 O   0  0  0  0  0  0  0  0  0  0  0  0
  -27.5489  -10.3096   25.7005 O   0  0  0  0  0  0  0  0  0  0  0  0
  -24.3753  -29.8254   23.4983 O   0  0  0  0  0  0  0  0  0  0  0  0
  -21.3276  -31.8146   21.5371 O   0  0  0  0  0  0  0  0  0  0  0  0
  -20.6417  -28.0254   18.7636 O   0  0  0  0  0  0  0  0  0  0  0  0
  -29.0281  -16.0815   17.9482 O   0  0  0  0  0  0  0  0  0  0  0  0
  -21.4637   -7.4492   21.7796 O   0  0  0  0  0  0  0  0  0  0  0  0
  -27.0131  -25.8078   19.6792 O   0  0  0  0  0  0  0  0  0  1  0  0
  -21.1107   -2.5579   24.3004 F   0  0  0  0  0  0  0  0  0  0  0  0
  -21.7771   -7.2391   24.5182 F   0  0  0  0  0  0  0  0  0  0  0  0
  1  2  1  0  0  0  0
  1  5  2  0  0  0  0
  2  6  2  0  0  0  0
  3 12  2  0  0  0  0
  3 19  1  0  0  0  0
  4 13  1  0  0  0  0
  4 19  2  0  0  0  0
  5 21  1  0  0  0  0
  6 23  1  0  0  0  0
  7 14  2  0  0  0  0
  7 22  1  0  0  0  0
  8 10  2  0  0  0  0
  8 25  1  0  0  0  0
  9 11  1  0  0  0  0
  9 25  2  0  0  0  0
 10 26  1  0  0  0  0
 11 26  2  0  0  0  0
 12 27  1  0  0  0  0
 13 27  2  0  0  0  0
 14 28  1  0  0  0  0
 15 16  2  0  0  0  0
 15 29  1  0  0  0  0
 16 30  1  0  0  0  0
 17 24  1  0  0  0  0
 17 28  2  0  0  0  0
 18 30  2  0  0  0  0
 18 31  1  0  0  0  0
 19 32  1  0  0  0  0
 20 32  1  0  0  0  0
 20 33  2  0  0  0  0
 20 37  1  0  0  0  0
 21 23  2  0  0  0  0
 21 42  1  0  0  0  0
 22 24  2  0  0  0  0
 22 43  1  0  0  0  0
 23 52  1  0  0  0  0
 24 44  1  0  0  0  0
 25 66  1  0  0  0  0
 26 73  1  0  0  0  0
 27 81  1  0  0  0  0
 28 82  1  0  0  0  0
 29 31  2  0  0  0  0
 29 81  1  0  0  0  0
 30 83  1  0  0  0  0
 31 84  1  0  0  0  0
 32 64  2  0  0  0  0
 33 65  1  0  0  0  0
 33 69  1  0  0  0  0
 34 35  1  0  0  0  0
 34 36  2  0  0  0  0
 34 45  1  0  0  0  0
 35 66  1  0  0  0  0
 35 75  2  0  0  0  0
 36 82  1  0  0  0  0
 37 70  1  0  0  0  0
 37 76  2  0  0  0  0
 38 53  1  0  0  0  0
 38 71  1  0  0  0  0
 38 77  2  0  0  0  0
 39 61  1  0  0  0  0
 39 67  1  0  0  0  0
 39 78  2  0  0  0  0
 40 62  1  0  0  0  0
 40 72  1  0  0  0  0
 40 79  2  0  0  0  0
 41 68  1  0  0  0  0
 41 73  1  0  0  0  0
 41 80  2  0  0  0  0
 42 46  1  0  0  0  0
 43 53  1  0  0  0  0
 44 67  1  0  0  0  0
 45 66  1  0  0  0  0
 46 48  1  0  0  0  0
 47 49  1  0  0  0  0
 47 50  1  0  0  0  0
 48 52  1  0  0  0  0
 49 54  1  0  0  0  0
 50 68  1  0  0  0  0
 51 54  1  0  0  0  0
 51 68  1  0  0  0  0
 52 71  1  0  0  0  0
 53 67  1  0  0  0  0
 54 65  1  0  0  0  0
 55 62  1  0  0  0  0
 56 63  1  0  0  0  0
 57 63  1  0  0  0  0
 58 63  1  0  0  0  0
 59 73  1  0  0  0  0
 60 74  1  0  0  0  0
 61 63  1  0  0  0  0
 61 72  1  0  0  0  0
 62 74  1  0  0  0  0
 64 65  1  0  0  0  0
M  CHG  1  74   1
M  ISO  4  36 101  41 100  73 100  82 101
M  END
> <Batch ID>
0080

> <Smiles>
CNC(C)C(=O)NC(C(=O)N1Cc2cc([101O:1][101CH:1]=C3CN(c4ccc([100N:0](C)[100C:0](=O)N5CCCC(n6nc(-c7ccc(Oc8ccc(F)cc8F)cc7)c(C(N)=O)c6N)C5)cc4)C3=O)ccc2CC1C(=O)NC1CCCc2ccccc21)C(C)(C)C

> <Shape>
0.320

> <Color>
0.093

> <Negative vol penalty>
0.000

$$$$

  -OEChem-04052300023D

 84 93  0     1  0  0  0  0  0999 V2000
  -31.4149  -22.3167   15.0147 C   0  0  0  0  0  0  0  0  0  0  0  0
  -30.7047  -21.5214   15.9083 C   0  0  0  0  0  0  0  0  0  0  0  0
  -29.2601  -23.2310   21.2759 C   0  0  0  0  0  0  0  0  0  0  0  0
  -27.5585  -23.1337   19.5636 C   0  0  0  0  0  0  0  0  0  0  0  0
  -30.7431  -23.2551   14.2324 C   0  0  0  0  0  0  0  0  0  0  0  0
  -29.3223  -21.6648   16.0209 C   0  0  0  0  0  0  0  0  0  0  0  0
  -26.9103  -17.2135   16.1354 C   0  0  0  0  0  0  0  0  0  0  0  0
  -28.2415  -13.6594   19.9817 C   0  0  0  0  0  0  0  0  0  0  0  0
  -27.9601  -14.0750   22.3450 C   0  0  0  0  0  0  0  0  0  0  0  0
  -29.5871  -14.0133   20.0797 C   0  0  0  0  0  0  0  0  0  0  0  0
  -29.3057  -14.4289   22.4430 C   0  0  0  0  0  0  0  0  0  0  0  0
  -29.2768  -24.6225   21.1803 C   0  0  0  0  0  0  0  0  0  0  0  0
  -27.5751  -24.5252   19.4680 C   0  0  0  0  0  0  0  0  0  0  0  0
  -26.9281  -16.5105   17.3392 C   0  0  0  0  0  0  0  0  0  0  0  0
  -26.9106  -28.0725   19.0285 C   0  0  0  0  0  0  0  0  0  0  0  0
  -25.6839  -28.7344   18.9770 C   0  0  0  0  0  0  0  0  0  0  0  0
  -24.7054  -17.3084   17.8313 C   0  0  0  0  0  0  0  0  0  0  0  0
  -25.0990  -27.8182   21.1347 C   0  0  0  0  0  0  0  0  0  0  0  0
  -28.4010  -22.4866   20.4676 C   0  0  0  0  0  0  0  0  0  0  0  0
  -27.5773  -20.2643   21.4113 C   0  0  0  0  0  0  0  0  0  0  0  0
  -29.3505  -23.4034   14.3285 C   0  0  0  0  0  0  0  0  0  0  0  0
  -25.7922  -17.9794   15.7750 C   0  0  0  0  0  0  0  0  0  0  0  0
  -28.6313  -22.6070   15.2402 C   0  0  0  0  0  0  0  0  0  0  0  0
  -24.6749  -18.0182   16.6212 C   0  0  0  0  0  0  0  0  0  0  0  0
  -27.4279  -13.6903   21.1144 C   0  0  0  0  0  0  0  0  0  0  0  0
  -30.1193  -14.3980   21.3103 C   0  0  0  0  0  0  0  0  0  0  0  0
  -28.4342  -25.2696   20.2764 C   0  0  0  0  0  0  0  0  0  0  0  0
  -25.8268  -16.5601   18.1887 C   0  0  0  0  0  0  0  0  0  0  0  0
  -27.2315  -27.2833   20.1330 C   0  0  0  0  0  0  0  0  0  0  0  0
  -24.7781  -28.6073   20.0301 C   0  0  0  0  0  0  0  0  0  0  0  0
  -26.3256  -27.1562   21.1861 C   0  0  0  0  0  0  0  0  0  0  0  0
  -28.3838  -21.0492   20.5655 C   0  0  0  0  0  0  0  0  0  0  0  0
  -27.9377  -18.9701   21.1255 C   0  0  0  0  0  0  0  0  0  0  0  0
  -24.2549  -12.7038   20.6739 C   0  0  0  0  0  0  0  0  0  0  0  0
  -25.0856  -13.8247   20.3215 C   0  0  0  0  0  0  0  0  0  0  0  0
  -23.0022  -12.3199   20.4370 C   0  0  0  0  0  0  0  0  0  0  0  0
  -24.8863  -14.9189   19.5645 C   0  0  0  0  0  0  0  0  0  1  0  0
  -26.5905  -20.6690   22.3695 C   0  0  0  0  0  0  0  0  0  0  0  0
  -25.2740  -21.0642   15.2102 C   0  0  0  0  0  0  0  0  0  0  0  0
  -22.3274  -20.0123   14.3538 C   0  0  0  0  0  0  0  0  0  0  0  0
  -19.9173  -17.6110   14.6218 C   0  0  0  0  0  0  0  0  0  0  0  0
  -32.2358  -15.3447   20.3536 C   0  0  0  0  0  0  0  0  0  0  0  0
  -28.6742  -24.4641   13.4965 C   0  0  0  0  0  0  0  0  0  0  0  0
  -25.7781  -18.7105   14.4606 C   0  0  0  0  0  0  0  0  0  0  0  0
  -23.4420  -18.8093   16.2710 C   0  0  0  0  0  0  0  0  0  0  0  0
  -25.4114  -12.1430   21.4236 C   0  0  0  0  0  0  0  0  0  0  0  0
  -27.1600  -24.2934   13.4055 C   0  0  0  0  0  0  0  0  0  0  0  0
  -30.7629  -17.0434   17.4145 C   0  0  0  0  0  0  0  0  0  0  0  0
  -26.5700  -24.0174   14.7848 C   0  0  0  0  0  0  0  0  0  0  0  0
  -30.0179  -18.2206   18.0410 C   0  0  0  0  0  0  0  0  0  0  0  0
  -31.9663  -16.6237   18.2531 C   0  0  0  0  0  0  0  0  0  0  0  0
  -30.8764  -17.4920   20.3024 C   0  0  0  0  0  0  0  0  0  0  0  0
  -27.1278  -22.7158   15.3731 C   0  0  1  0  0  0  0  0  0  0  0  0
  -24.7898  -19.8724   14.4338 C   0  0  1  0  0  0  0  0  0  0  0  0
  -29.6361  -17.9078   19.4972 C   0  0  1  0  0  0  0  0  0  0  0  0
  -17.6022  -17.0471   13.8345 C   0  0  0  0  0  0  0  0  0  0  0  0
  -21.1694  -22.0503   16.3071 C   0  0  0  0  0  0  0  0  0  0  0  0
  -18.9926  -20.8186   16.1933 C   0  0  0  0  0  0  0  0  0  0  0  0
  -19.9386  -21.8685   14.1377 C   0  0  0  0  0  0  0  0  0  0  0  0
  -32.2643  -14.2776   22.5654 C   0  0  0  0  0  0  0  0  0  0  0  0
  -20.8470  -15.1355   13.2926 C   0  0  0  0  0  0  0  0  0  0  0  0
  -21.0214  -19.7856   15.0763 C   0  0  1  0  0  0  0  0  0  0  0  0
  -19.0918  -16.8907   13.5710 C   0  0  2  0  0  0  0  0  0  0  0  0
  -20.3044  -21.1173   15.4364 C   0  0  0  0  0  0  0  0  0  0  0  0
  -29.1954  -20.3149   19.7999 N   0  0  0  0  0  0  0  0  0  0  0  0
  -28.9009  -19.0552   20.1637 N   0  0  0  0  0  0  0  0  0  0  0  0
  -26.0911  -13.3407   21.0169 N   0  0  0  0  0  0  0  0  0  0  0  0
  -23.4790  -19.5122   14.9779 N   0  0  0  0  0  0  0  0  0  0  0  0
  -31.5986  -16.3875   19.6501 N   0  0  0  0  0  0  0  0  0  0  0  0
  -27.5215  -17.7791   21.6058 N   0  0  0  0  0  0  0  0  0  0  0  0
  -26.3443  -22.0385   22.5374 N   0  0  0  0  0  0  0  0  0  0  0  0
  -26.4817  -21.5704   14.7689 N   0  0  0  0  0  0  0  0  0  0  0  0
  -20.2361  -18.8940   14.2298 N   0  0  0  0  0  0  0  0  0  0  0  0
  -31.5109  -14.7639   21.4116 N   0  0  0  0  0  0  0  0  0  0  0  0
  -19.4176  -15.4365   13.5635 N   0  3  0  0  0  0  0  0  0  0  0  0
  -25.9579  -19.8413   23.0683 O   0  0  0  0  0  0  0  0  0  0  0  0
  -24.6010  -21.4937   16.1399 O   0  0  0  0  0  0  0  0  0  0  0  0
  -22.3250  -20.6050   13.2719 O   0  0  0  0  0  0  0  0  0  0  0  0
  -20.2434  -17.0891   15.6857 O   0  0  0  0  0  0  0  0  0  0  0  0
  -33.3928  -14.9919   20.0941 O   0  0  0  0  0  0  0  0  0  0  0  0
  -28.4500  -26.6274   20.1830 O   0  0  0  0  0  0  0  0  0  0  0  0
  -25.8419  -15.8753   19.3646 O   0  0  0  0  0  0  0  0  0  1  0  0
  -23.6008  -29.2443   19.9812 F   0  0  0  0  0  0  0  0  0  0  0  0
  -26.6288  -26.4004   22.2504 F   0  0  0  0  0  0  0  0  0  0  0  0
  1  2  1  0  0  0  0
  1  5  2  0  0  0  0
  2  6  2  0  0  0  0
  3 12  2  0  0  0  0
  3 19  1  0  0  0  0
  4 13  1  0  0  0  0
  4 19  2  0  0  0  0
  5 21  1  0  0  0  0
  6 23  1  0  0  0  0
  7 14  2  0  0  0  0
  7 22  1  0  0  0  0
  8 10  2  0  0  0  0
  8 25  1  0  0  0  0
  9 11  1  0  0  0  0
  9 25  2  0  0  0  0
 10 26  1  0  0  0  0
 11 26  2  0  0  0  0
 12 27  1  0  0  0  0
 13 27  2  0  0  0  0
 14 28  1  0  0  0  0
 15 16  2  0  0  0  0
 15 29  1  0  0  0  0
 16 30  1  0  0  0  0
 17 24  1  0  0  0  0
 17 28  2  0  0  0  0
 18 30  2  0  0  0  0
 18 31  1  0  0  0  0
 19 32  1  0  0  0  0
 20 32  1  0  0  0  0
 20 33  2  0  0  0  0
 20 38  1  0  0  0  0
 21 23  2  0  0  0  0
 21 43  1  0  0  0  0
 22 24  2  0  0  0  0
 22 44  1  0  0  0  0
 23 53  1  0  0  0  0
 24 45  1  0  0  0  0
 25 67  1  0  0  0  0
 26 74  1  0  0  0  0
 27 81  1  0  0  0  0
 28 82  1  0  0  0  0
 29 31  2  0  0  0  0
 29 81  1  0  0  0  0
 30 83  1  0  0  0  0
 31 84  1  0  0  0  0
 32 65  2  0  0  0  0
 33 66  1  0  0  0  0
 33 70  1  0  0  0  0
 34 35  1  0  0  0  0
 34 36  2  0  0  0  0
 34 46  1  0  0  0  0
 35 37  2  0  0  0  0
 35 67  1  0  0  0  0
 37 82  1  0  0  0  0
 38 71  1  0  0  0  0
 38 76  2  0  0  0  0
 39 54  1  0  0  0  0
 39 72  1  0  0  0  0
 39 77  2  0  0  0  0
 40 62  1  0  0  0  0
 40 68  1  0  0  0  0
 40 78  2  0  0  0  0
 41 63  1  0  0  0  0
 41 73  1  0  0  0  0
 41 79  2  0  0  0  0
 42 69  1  0  0  0  0
 42 74  1  0  0  0  0
 42 80  2  0  0  0  0
 43 47  1  0  0  0  0
 44 54  1  0  0  0  0
 45 68  1  0  0  0  0
 46 67  1  0  0  0  0
 47 49  1  0  0  0  0
 48 50  1  0  0  0  0
 48 51  1  0  0  0  0
 49 53  1  0  0  0  0
 50 55  1  0  0  0  0
 51 69  1  0  0  0  0
 52 55  1  0  0  0  0
 52 69  1  0  0  0  0
 53 72  1  0  0  0  0
 54 68  1  0  0  0  0
 55 66  1  0  0  0  0
 56 63  1  0  0  0  0
 57 64  1  0  0  0  0
 58 64  1  0  0  0  0
 59 64  1  0  0  0  0
 60 74  1  0  0  0  0
 61 75  1  0  0  0  0
 62 64  1  0  0  0  0
 62 73  1  0  0  0  0
 63 75  1  0  0  0  0
 65 66  1  0  0  0  0
M  CHG  1  75   1
M  ISO  4  37 101  42 100  74 100  82 101
M  END
> <Batch ID>
0080

> <Smiles>
C=C1CN(c2ccc([100N:0](C)[100C:0](=O)N3CCCC(n4nc(-c5ccc(Oc6ccc(F)cc6F)cc5)c(C(N)=O)c4N)C3)cc2)C1=[101CH:1][101O:1]c1ccc2c(c1)CN(C(=O)C(NC(=O)C(C)NC)C(C)(C)C)C(C(=O)NC1CCCc3ccccc31)C2

> <Shape>
0.165

> <Color>
0.078

> <Negative vol penalty>
0.000

$$$$

  -OEChem-04052300023D

 84 93  0     1  0  0  0  0  0999 V2000
  -27.3783  -37.7506   23.8460 C   0  0  0  0  0  0  0  0  0  0  0  0
  -27.9648  -36.8071   23.0086 C   0  0  0  0  0  0  0  0  0  0  0  0
  -24.1859   -9.2995   22.2135 C   0  0  0  0  0  0  0  0  0  0  0  0
  -22.9231  -11.2834   21.6598 C   0  0  0  0  0  0  0  0  0  0  0  0
  -26.4957  -37.3416   24.8447 C   0  0  0  0  0  0  0  0  0  0  0  0
  -27.6698  -35.4538   23.1702 C   0  0  0  0  0  0  0  0  0  0  0  0
  -26.9110  -29.4153   19.3918 C   0  0  0  0  0  0  0  0  0  0  0  0
  -26.2998  -19.4060   19.1256 C   0  0  0  0  0  0  0  0  0  0  0  0
  -26.5644  -18.0444   18.9786 C   0  0  0  0  0  0  0  0  0  0  0  0
  -23.3208   -9.0459   23.2778 C   0  0  0  0  0  0  0  0  0  0  0  0
  -22.0579  -11.0298   22.7241 C   0  0  0  0  0  0  0  0  0  0  0  0
  -27.3662  -28.0978   19.3639 C   0  0  0  0  0  0  0  0  0  0  0  0
  -20.2302   -7.7480   23.7209 C   0  0  0  0  0  0  0  0  0  0  0  0
  -19.7721   -6.4410   23.8866 C   0  0  0  0  0  0  0  0  0  0  0  0
  -25.7657  -27.5151   21.0721 C   0  0  0  0  0  0  0  0  0  0  0  0
  -28.8456  -18.4116   19.6847 C   0  0  0  0  0  0  0  0  0  0  0  0
  -20.7712   -6.3696   26.0852 C   0  0  0  0  0  0  0  0  0  0  0  0
  -23.9871  -10.4183   21.4045 C   0  0  0  0  0  0  0  0  0  0  0  0
  -24.7521  -10.2291   18.9782 C   0  0  0  0  0  0  0  0  0  0  0  0
  -26.1822  -35.9836   25.0125 C   0  0  0  0  0  0  0  0  0  0  0  0
  -25.8855  -29.7956   20.2693 C   0  0  0  0  0  0  0  0  0  0  0  0
  -26.7831  -35.0262   24.1730 C   0  0  0  0  0  0  0  0  0  0  0  0
  -25.2975  -28.8374   21.1073 C   0  0  0  0  0  0  0  0  0  0  0  0
  -27.3081  -20.2704   19.5521 C   0  0  0  0  0  0  0  0  0  0  0  0
  -27.8373  -17.5472   19.2582 C   0  0  0  0  0  0  0  0  0  0  0  0
  -22.2568   -9.9110   23.5331 C   0  0  0  0  0  0  0  0  0  0  0  0
  -26.7956  -27.1481   20.2062 C   0  0  0  0  0  0  0  0  0  0  0  0
  -20.9588   -8.3658   24.7373 C   0  0  0  0  0  0  0  0  0  0  0  0
  -20.0426   -5.7518   25.0688 C   0  0  0  0  0  0  0  0  0  0  0  0
  -28.5810  -19.7732   19.8317 C   0  0  0  0  0  0  0  0  0  0  0  0
  -21.2293   -7.6766   25.9194 C   0  0  0  0  0  0  0  0  0  0  0  0
  -24.8808  -10.6812   20.3052 C   0  0  0  0  0  0  0  0  0  0  0  0
  -25.8475  -10.7468   18.3314 C   0  0  0  0  0  0  0  0  0  0  0  0
  -26.6694  -23.5750   19.8071 C   0  0  0  0  0  0  0  0  0  0  0  0
  -25.9252  -22.3530   19.4998 C   0  0  0  0  0  0  0  0  0  0  0  0
  -26.3437  -24.8791   19.8622 C   0  0  0  0  0  0  0  0  0  1  0  0
  -23.7334   -9.4141   18.3835 C   0  0  0  0  0  0  0  0  0  0  0  0
  -25.6518  -31.8329   22.6980 C   0  0  0  0  0  0  0  0  0  0  0  0
  -22.5157  -31.0131   22.5759 C   0  0  0  0  0  0  0  0  0  0  0  0
  -20.1531  -28.7222   21.6721 C   0  0  0  0  0  0  0  0  0  0  0  0
  -29.3136  -15.5077   19.3439 C   0  0  0  0  0  0  0  0  0  0  0  0
  -25.2589  -35.5851   26.1365 C   0  0  0  0  0  0  0  0  0  0  0  0
  -25.3875  -31.2149   20.2681 C   0  0  0  0  0  0  0  0  0  0  0  0
  -24.1798  -29.1901   22.0533 C   0  0  0  0  0  0  0  0  0  0  0  0
  -27.9078  -22.7348   20.0196 C   0  0  0  0  0  0  0  0  0  0  0  0
  -24.7098  -34.1674   26.0001 C   0  0  0  0  0  0  0  0  0  0  0  0
  -30.3676  -12.1136   19.1285 C   0  0  0  0  0  0  0  0  0  0  0  0
  -25.8291  -33.1929   25.6477 C   0  0  0  0  0  0  0  0  0  0  0  0
  -29.0676  -11.3201   19.2790 C   0  0  0  0  0  0  0  0  0  0  0  0
  -30.3753  -13.3618   20.0093 C   0  0  0  0  0  0  0  0  0  0  0  0
  -27.9134  -13.4510   19.9957 C   0  0  0  0  0  0  0  0  0  0  0  0
  -26.4690  -33.5514   24.3010 C   0  0  1  0  0  0  0  0  0  0  0  0
  -24.6890  -31.6041   21.5674 C   0  0  1  0  0  0  0  0  0  0  0  0
  -27.8320  -12.2195   19.0791 C   0  0  2  0  0  0  0  0  0  0  0  0
  -17.6776  -28.3154   21.7361 C   0  0  0  0  0  0  0  0  0  0  0  0
  -22.7064  -30.3347   25.5446 C   0  0  0  0  0  0  0  0  0  0  0  0
  -20.5556  -29.0725   25.3230 C   0  0  0  0  0  0  0  0  0  0  0  0
  -20.6109  -31.5266   24.8793 C   0  0  0  0  0  0  0  0  0  0  0  0
  -19.9788  -28.6052   18.7200 C   0  0  0  0  0  0  0  0  0  0  0  0
  -21.6650  -29.9422   23.2149 C   0  0  1  0  0  0  0  0  0  0  0  0
  -18.8391  -28.8709   20.9266 C   0  0  2  0  0  0  0  0  0  0  0  0
  -21.4068  -30.2125   24.7241 C   0  0  0  0  0  0  0  0  0  0  0  0
  -25.9720  -11.4284   20.4918 N   0  0  0  0  0  0  0  0  0  0  0  0
  -26.5390  -11.4499   19.2736 N   0  0  0  0  0  0  0  0  0  0  0  0
  -27.0443  -21.6128   19.6962 N   0  0  0  0  0  0  0  0  0  0  0  0
  -23.7320  -30.5922   22.0197 N   0  0  0  0  0  0  0  0  0  0  0  0
  -29.1773  -14.1672   19.7625 N   0  0  0  0  0  0  0  0  0  0  0  0
  -26.2771  -10.6647   17.0542 N   0  0  0  0  0  0  0  0  0  0  0  0
  -22.6788   -8.9674   19.1913 N   0  0  0  0  0  0  0  0  0  0  0  0
  -28.1059  -16.1640   19.1087 N   0  0  0  0  0  0  0  0  0  0  0  0
  -25.6250  -33.1165   23.2088 N   0  0  0  0  0  0  0  0  0  0  0  0
  -20.4527  -29.8487   22.4087 N   0  0  0  0  0  0  0  0  0  0  0  0
  -18.8959  -28.1444   19.6267 N   0  3  0  0  0  0  0  0  0  0  0  0
  -24.7813  -22.0992   19.1844 O   0  0  0  0  0  0  0  0  0  0  0  0
  -23.7663   -9.0780   17.1754 O   0  0  0  0  0  0  0  0  0  0  0  0
  -26.3652  -30.9125   23.0797 O   0  0  0  0  0  0  0  0  0  0  0  0
  -22.1125  -32.1788   22.5641 O   0  0  0  0  0  0  0  0  0  0  0  0
  -20.8427  -27.7068   21.6104 O   0  0  0  0  0  0  0  0  0  0  0  0
  -30.4206  -16.0264   19.1781 O   0  0  0  0  0  0  0  0  0  0  0  0
  -21.4123   -9.6637   24.5715 O   0  0  0  0  0  0  0  0  0  0  0  0
  -27.2384  -25.8616   20.1816 O   0  0  0  0  0  0  0  0  0  1  0  0
  -19.6013   -4.4972   25.2284 F   0  0  0  0  0  0  0  0  0  0  0  0
  -29.5580  -20.5949   20.2417 F   0  0  0  0  0  0  0  0  0  0  0  0
  -21.9278   -8.2654   26.8999 F   0  0  0  0  0  0  0  0  0  0  0  0
  1  2  1  0  0  0  0
  1  5  2  0  0  0  0
  2  6  2  0  0  0  0
  3 10  2  0  0  0  0
  3 18  1  0  0  0  0
  4 11  1  0  0  0  0
  4 18  2  0  0  0  0
  5 20  1  0  0  0  0
  6 22  1  0  0  0  0
  7 12  2  0  0  0  0
  7 21  1  0  0  0  0
  8  9  2  0  0  0  0
  8 24  1  0  0  0  0
  9 25  1  0  0  0  0
 10 26  1  0  0  0  0
 11 26  2  0  0  0  0
 12 27  1  0  0  0  0
 13 14  2  0  0  0  0
 13 28  1  0  0  0  0
 14 29  1  0  0  0  0
 15 23  1  0  0  0  0
 15 27  2  0  0  0  0
 16 25  2  0  0  0  0
 16 30  1  0  0  0  0
 17 29  2  0  0  0  0
 17 31  1  0  0  0  0
 18 32  1  0  0  0  0
 19 32  1  0  0  0  0
 19 33  2  0  0  0  0
 19 37  1  0  0  0  0
 20 22  2  0  0  0  0
 20 42  1  0  0  0  0
 21 23  2  0  0  0  0
 21 43  1  0  0  0  0
 22 52  1  0  0  0  0
 23 44  1  0  0  0  0
 24 30  2  0  0  0  0
 24 65  1  0  0  0  0
 25 70  1  0  0  0  0
 26 80  1  0  0  0  0
 27 81  1  0  0  0  0
 28 31  2  0  0  0  0
 28 80  1  0  0  0  0
 29 82  1  0  0  0  0
 30 83  1  0  0  0  0
 31 84  1  0  0  0  0
 32 63  2  0  0  0  0
 33 64  1  0  0  0  0
 33 68  1  0  0  0  0
 34 35  1  0  0  0  0
 34 36  2  0  0  0  0
 34 45  1  0  0  0  0
 35 65  1  0  0  0  0
 35 74  2  0  0  0  0
 36 81  1  0  0  0  0
 37 69  1  0  0  0  0
 37 75  2  0  0  0  0
 38 53  1  0  0  0  0
 38 71  1  0  0  0  0
 38 76  2  0  0  0  0
 39 60  1  0  0  0  0
 39 66  1  0  0  0  0
 39 77  2  0  0  0  0
 40 61  1  0  0  0  0
 40 72  1  0  0  0  0
 40 78  2  0  0  0  0
 41 67  1  0  0  0  0
 41 70  1  0  0  0  0
 41 79  2  0  0  0  0
 42 46  1  0  0  0  0
 43 53  1  0  0  0  0
 44 66  1  0  0  0  0
 45 65  1  0  0  0  0
 46 48  1  0  0  0  0
 47 49  1  0  0  0  0
 47 50  1  0  0  0  0
 48 52  1  0  0  0  0
 49 54  1  0  0  0  0
 50 67  1  0  0  0  0
 51 54  1  0  0  0  0
 51 67  1  0  0  0  0
 52 71  1  0  0  0  0
 53 66  1  0  0  0  0
 54 64  1  0  0  0  0
 55 61  1  0  0  0  0
 56 62  1  0  0  0  0
 57 62  1  0  0  0  0
 58 62  1  0  0  0  0
 59 73  1  0  0  0  0
 60 62  1  0  0  0  0
 60 72  1  0  0  0  0
 61 73  1  0  0  0  0
 63 64  1  0  0  0  0
M  CHG  1  73   1
M  ISO  4  36 101  41 100  70 100  81 101
M  END
> <Batch ID>
0080

> <Smiles>
CNC(C)C(=O)NC(C(=O)N1Cc2cc([101O:1][101CH:1]=C3CN(c4ccc([100NH:0][100C:0](=O)N5CCCC(n6nc(-c7ccc(Oc8ccc(F)cc8F)cc7)c(C(N)=O)c6N)C5)cc4F)C3=O)ccc2CC1C(=O)NC1CCCc2ccccc21)C(C)(C)C

> <Shape>
0.297

> <Color>
0.088

> <Negative vol penalty>
0.000

$$$$

  -OEChem-04052300023D

 85 94  0     1  0  0  0  0  0999 V2000
  -22.8472  -35.3699   16.0094 C   0  0  0  0  0  0  0  0  0  0  0  0
  -23.3629  -34.0817   15.9091 C   0  0  0  0  0  0  0  0  0  0  0  0
  -23.9905  -10.4133   22.8583 C   0  0  0  0  0  0  0  0  0  0  0  0
  -24.2856  -12.3885   24.2179 C   0  0  0  0  0  0  0  0  0  0  0  0
  -23.1350  -36.1495   17.1289 C   0  0  0  0  0  0  0  0  0  0  0  0
  -24.1677  -33.5728   16.9277 C   0  0  0  0  0  0  0  0  0  0  0  0
  -24.4283  -27.7676   18.8611 C   0  0  0  0  0  0  0  0  0  0  0  0
  -28.5007  -20.5176   18.2948 C   0  0  0  0  0  0  0  0  0  0  0  0
  -30.8862  -20.1846   18.4833 C   0  0  0  0  0  0  0  0  0  0  0  0
  -28.2958  -19.1489   18.4686 C   0  0  0  0  0  0  0  0  0  0  0  0
  -30.6814  -18.8159   18.6571 C   0  0  0  0  0  0  0  0  0  0  0  0
  -23.4756   -9.7313   23.9607 C   0  0  0  0  0  0  0  0  0  0  0  0
  -23.7706  -11.7065   25.3204 C   0  0  0  0  0  0  0  0  0  0  0  0
  -25.3113  -26.7251   18.5830 C   0  0  0  0  0  0  0  0  0  0  0  0
  -20.5450   -9.5620   25.6387 C   0  0  0  0  0  0  0  0  0  0  0  0
  -19.3933   -8.7985   25.4486 C   0  0  0  0  0  0  0  0  0  0  0  0
  -26.5562  -27.2550   20.5802 C   0  0  0  0  0  0  0  0  0  0  0  0
  -20.5924   -6.8177   26.1384 C   0  0  0  0  0  0  0  0  0  0  0  0
  -24.3956  -11.7419   22.9869 C   0  0  0  0  0  0  0  0  0  0  0  0
  -24.2086  -13.2041   20.9049 C   0  0  0  0  0  0  0  0  0  0  0  0
  -23.9358  -35.6464   18.1663 C   0  0  0  0  0  0  0  0  0  0  0  0
  -24.6092  -28.5699   19.9969 C   0  0  0  0  0  0  0  0  0  0  0  0
  -24.4676  -34.3469   18.0615 C   0  0  0  0  0  0  0  0  0  0  0  0
  -25.6726  -28.3054   20.8717 C   0  0  0  0  0  0  0  0  0  0  0  0
  -29.7959  -21.0355   18.3021 C   0  0  0  0  0  0  0  0  0  0  0  0
  -29.3862  -18.2980   18.6498 C   0  0  0  0  0  0  0  0  0  0  0  0
  -23.3656  -10.3779   25.1917 C   0  0  0  0  0  0  0  0  0  0  0  0
  -26.3771  -26.4705   19.4411 C   0  0  0  0  0  0  0  0  0  0  0  0
  -21.7205   -8.9533   26.0786 C   0  0  0  0  0  0  0  0  0  0  0  0
  -19.4169   -7.4264   25.6985 C   0  0  0  0  0  0  0  0  0  0  0  0
  -21.7442   -7.5813   26.3285 C   0  0  0  0  0  0  0  0  0  0  0  0
  -24.9281  -12.4467   21.8486 C   0  0  0  0  0  0  0  0  0  0  0  0
  -25.1647  -13.6631   20.0321 C   0  0  0  0  0  0  0  0  0  0  0  0
  -30.4004  -25.1429   17.2768 C   0  0  0  0  0  0  0  0  0  0  0  0
  -31.3646  -24.2502   17.0534 C   0  0  0  0  0  0  0  0  0  0  0  0
  -29.2583  -24.8060   18.0818 C   0  0  0  0  0  0  0  0  0  0  0  0
  -29.0428  -23.3929   18.5483 C   0  0  0  0  0  0  0  0  0  0  0  0
  -28.3411  -25.7296   18.4094 C   0  0  0  0  0  0  0  0  0  1  0  0
  -22.8019  -13.4690   20.8244 C   0  0  0  0  0  0  0  0  0  0  0  0
  -25.1750  -31.6578   20.4949 C   0  0  0  0  0  0  0  0  0  0  0  0
  -24.7850  -30.8278   23.6064 C   0  0  0  0  0  0  0  0  0  0  0  0
  -24.8772  -28.3835   25.9863 C   0  0  0  0  0  0  0  0  0  0  0  0
  -30.1502  -15.9259   19.0182 C   0  0  0  0  0  0  0  0  0  0  0  0
  -24.2582  -36.5437   19.3348 C   0  0  0  0  0  0  0  0  0  0  0  0
  -23.6324  -29.6736   20.2969 C   0  0  0  0  0  0  0  0  0  0  0  0
  -25.8990  -29.1246   22.1152 C   0  0  0  0  0  0  0  0  0  0  0  0
  -31.3345  -22.8703   17.6113 C   0  0  0  0  0  0  0  0  0  0  0  0
  -24.8115  -35.7939   20.5440 C   0  0  0  0  0  0  0  0  0  0  0  0
  -30.0415  -12.4038   19.5284 C   0  0  0  0  0  0  0  0  0  0  0  0
  -25.8920  -34.8077   20.1120 C   0  0  0  0  0  0  0  0  0  0  0  0
  -28.6423  -12.1633   20.0999 C   0  0  0  0  0  0  0  0  0  0  0  0
  -30.6438  -13.7130   20.0353 C   0  0  0  0  0  0  0  0  0  0  0  0
  -28.4011  -14.6592   20.4152 C   0  0  0  0  0  0  0  0  0  0  0  0
  -25.3242  -33.7505   19.1573 C   0  0  1  0  0  0  0  0  0  0  0  0
  -24.2108  -30.7522   21.2076 C   0  0  1  0  0  0  0  0  0  0  0  0
  -27.7271  -13.3843   19.8823 C   0  0  2  0  0  0  0  0  0  0  0  0
  -24.5472  -28.0163   28.4468 C   0  0  0  0  0  0  0  0  0  0  0  0
  -27.4955  -32.1149   24.1596 C   0  0  0  0  0  0  0  0  0  0  0  0
  -27.5429  -30.9082   26.3527 C   0  0  0  0  0  0  0  0  0  0  0  0
  -25.7486  -32.5778   25.8883 C   0  0  0  0  0  0  0  0  0  0  0  0
  -22.6602  -26.4787   25.5226 C   0  0  0  0  0  0  0  0  0  0  0  0
  -25.6986  -30.3434   24.7063 C   0  0  1  0  0  0  0  0  0  0  0  0
  -23.8912  -27.9998   27.0749 C   0  0  2  0  0  0  0  0  0  0  0  0
  -26.6185  -31.4717   25.2523 C   0  0  0  0  0  0  0  0  0  0  0  0
  -26.2400  -12.4233   21.5988 N   0  0  0  0  0  0  0  0  0  0  0  0
  -26.3524  -13.1716   20.4882 N   0  0  0  0  0  0  0  0  0  0  0  0
  -30.0091  -22.4589   18.1210 N   0  0  0  0  0  0  0  0  0  0  0  0
  -24.9204  -30.1966   22.3618 N   0  0  0  0  0  0  0  0  0  0  0  0
  -29.7232  -14.8257   19.7915 N   0  0  0  0  0  0  0  0  0  0  0  0
  -25.0969  -14.4350   18.9267 N   0  0  0  0  0  0  0  0  0  0  0  0
  -21.9616  -12.9202   21.8027 N   0  0  0  0  0  0  0  0  0  0  0  0
  -29.1785  -16.9075   18.8263 N   0  0  0  0  0  0  0  0  0  0  0  0
  -24.5807  -32.7512   19.8942 N   0  0  0  0  0  0  0  0  0  0  0  0
  -24.8371  -29.7347   25.7141 N   0  0  0  0  0  0  0  0  0  0  0  0
  -23.3531  -26.6322   26.8277 N   0  3  0  0  0  0  0  0  0  0  0  0
  -28.0703  -23.1332   19.2581 O   0  0  0  0  0  0  0  0  0  0  0  0
  -22.3027  -14.1581   19.9027 O   0  0  0  0  0  0  0  0  0  0  0  0
  -26.3698  -31.3856   20.4916 O   0  0  0  0  0  0  0  0  0  0  0  0
  -23.9759  -31.7278   23.8448 O   0  0  0  0  0  0  0  0  0  0  0  0
  -25.6124  -27.5671   25.4355 O   0  0  0  0  0  0  0  0  0  0  0  0
  -31.2849  -15.9796   18.5370 O   0  0  0  0  0  0  0  0  0  0  0  0
  -22.8629   -9.7128   26.2676 O   0  0  0  0  0  0  0  0  0  0  0  0
  -27.2409  -25.4540   19.1718 O   0  0  0  0  0  0  0  0  0  1  0  0
  -18.3104   -6.6936   25.5174 F   0  0  0  0  0  0  0  0  0  0  0  0
  -22.8702   -6.9911   26.7524 F   0  0  0  0  0  0  0  0  0  0  0  0
  1  2  1  0  0  0  0
  1  5  2  0  0  0  0
  2  6  2  0  0  0  0
  3 12  2  0  0  0  0
  3 19  1  0  0  0  0
  4 13  1  0  0  0  0
  4 19  2  0  0  0  0
  5 21  1  0  0  0  0
  6 23  1  0  0  0  0
  7 14  2  0  0  0  0
  7 22  1  0  0  0  0
  8 10  2  0  0  0  0
  8 25  1  0  0  0  0
  9 11  1  0  0  0  0
  9 25  2  0  0  0  0
 10 26  1  0  0  0  0
 11 26  2  0  0  0  0
 12 27  1  0  0  0  0
 13 27  2  0  0  0  0
 14 28  1  0  0  0  0
 15 16  2  0  0  0  0
 15 29  1  0  0  0  0
 16 30  1  0  0  0  0
 17 24  1  0  0  0  0
 17 28  2  0  0  0  0
 18 30  2  0  0  0  0
 18 31  1  0  0  0  0
 19 32  1  0  0  0  0
 20 32  1  0  0  0  0
 20 33  2  0  0  0  0
 20 39  1  0  0  0  0
 21 23  2  0  0  0  0
 21 44  1  0  0  0  0
 22 24  2  0  0  0  0
 22 45  1  0  0  0  0
 23 54  1  0  0  0  0
 24 46  1  0  0  0  0
 25 67  1  0  0  0  0
 26 72  1  0  0  0  0
 27 82  1  0  0  0  0
 28 83  1  0  0  0  0
 29 31  2  0  0  0  0
 29 82  1  0  0  0  0
 30 84  1  0  0  0  0
 31 85  1  0  0  0  0
 32 65  2  0  0  0  0
 33 66  1  0  0  0  0
 33 70  1  0  0  0  0
 34 35  2  0  0  0  0
 34 36  1  0  0  0  0
 35 47  1  0  0  0  0
 36 37  1  0  0  0  0
 36 38  2  0  0  0  0
 37 67  1  0  0  0  0
 37 76  2  0  0  0  0
 38 83  1  0  0  0  0
 39 71  1  0  0  0  0
 39 77  2  0  0  0  0
 40 55  1  0  0  0  0
 40 73  1  0  0  0  0
 40 78  2  0  0  0  0
 41 62  1  0  0  0  0
 41 68  1  0  0  0  0
 41 79  2  0  0  0  0
 42 63  1  0  0  0  0
 42 74  1  0  0  0  0
 42 80  2  0  0  0  0
 43 69  1  0  0  0  0
 43 72  1  0  0  0  0
 43 81  2  0  0  0  0
 44 48  1  0  0  0  0
 45 55  1  0  0  0  0
 46 68  1  0  0  0  0
 47 67  1  0  0  0  0
 48 50  1  0  0  0  0
 49 51  1  0  0  0  0
 49 52  1  0  0  0  0
 50 54  1  0  0  0  0
 51 56  1  0  0  0  0
 52 69  1  0  0  0  0
 53 56  1  0  0  0  0
 53 69  1  0  0  0  0
 54 73  1  0  0  0  0
 55 68  1  0  0  0  0
 56 66  1  0  0  0  0
 57 63  1  0  0  0  0
 58 64  1  0  0  0  0
 59 64  1  0  0  0  0
 60 64  1  0  0  0  0
 61 75  1  0  0  0  0
 62 64  1  0  0  0  0
 62 74  1  0  0  0  0
 63 75  1  0  0  0  0
 65 66  1  0  0  0  0
M  CHG  1  75   1
M  ISO  4  38 101  43 100  72 100  83 101
M  END
> <Batch ID>
0080

> <Smiles>
CNC(C)C(=O)NC(C(=O)N1Cc2cc([101O:1][101CH:1]=C3C=CCN(c4ccc([100NH:0][100C:0](=O)N5CCCC(n6nc(-c7ccc(Oc8ccc(F)cc8F)cc7)c(C(N)=O)c6N)C5)cc4)C3=O)ccc2CC1C(=O)NC1CCCc2ccccc21)C(C)(C)C

> <Shape>
0.256

> <Color>
0.118

> <Negative vol penalty>
0.000

$$$$

  -OEChem-04052300023D

 88 97  0     1  0  0  0  0  0999 V2000
  -30.3177  -23.7681   14.0525 C   0  0  0  0  0  0  0  0  0  0  0  0
  -30.0320  -23.2288   15.3027 C   0  0  0  0  0  0  0  0  0  0  0  0
  -31.2907  -16.4092   26.3418 C   0  0  0  0  0  0  0  0  0  0  0  0
  -23.1657  -16.0178   21.4149 C   0  0  0  0  0  0  0  0  0  0  0  0
  -22.5201  -14.9800   19.3309 C   0  0  0  0  0  0  0  0  0  0  0  0
  -31.7952  -15.8521   25.1667 C   0  0  0  0  0  0  0  0  0  0  0  0
  -30.3488  -25.1515   13.8820 C   0  0  0  0  0  0  0  0  0  0  0  0
  -29.7782  -24.0727   16.3834 C   0  0  0  0  0  0  0  0  0  0  0  0
  -25.7795  -22.5862   19.1121 C   0  0  0  0  0  0  0  0  0  0  0  0
  -30.0805  -17.1026   26.3213 C   0  0  0  0  0  0  0  0  0  0  0  0
  -22.1610  -16.9715   21.2512 C   0  0  0  0  0  0  0  0  0  0  0  0
  -21.5154  -15.9336   19.1672 C   0  0  0  0  0  0  0  0  0  0  0  0
  -25.9706  -21.5245   19.9953 C   0  0  0  0  0  0  0  0  0  0  0  0
  -21.6826  -19.8045   19.4709 C   0  0  0  0  0  0  0  0  0  0  0  0
  -22.0093  -21.1378   19.7176 C   0  0  0  0  0  0  0  0  0  0  0  0
  -29.8795  -16.6819   23.9508 C   0  0  0  0  0  0  0  0  0  0  0  0
  -26.1692  -23.0877   21.8218 C   0  0  0  0  0  0  0  0  0  0  0  0
  -20.3267  -21.2297   21.4490 C   0  0  0  0  0  0  0  0  0  0  0  0
  -23.3453  -15.0221   20.4547 C   0  0  0  0  0  0  0  0  0  0  0  0
  -31.0896  -15.9885   23.9712 C   0  0  0  0  0  0  0  0  0  0  0  0
  -24.2778  -12.7937   21.2746 C   0  0  0  0  0  0  0  0  0  0  0  0
  -30.0857  -26.0127   14.9588 C   0  0  0  0  0  0  0  0  0  0  0  0
  -25.7928  -23.9094   19.5762 C   0  0  0  0  0  0  0  0  0  0  0  0
  -29.8071  -25.4690   16.2273 C   0  0  0  0  0  0  0  0  0  0  0  0
  -25.9755  -24.1643   20.9428 C   0  0  0  0  0  0  0  0  0  0  0  0
  -29.3749  -17.2390   25.1258 C   0  0  0  0  0  0  0  0  0  0  0  0
  -21.3358  -16.9294   20.1274 C   0  0  0  0  0  0  0  0  0  0  0  0
  -26.1684  -21.7753   21.3500 C   0  0  0  0  0  0  0  0  0  0  0  0
  -20.6779  -19.1837   20.2131 C   0  0  0  0  0  0  0  0  0  0  0  0
  -21.3314  -21.8505   20.7067 C   0  0  0  0  0  0  0  0  0  0  0  0
  -20.0000  -19.8963   21.2022 C   0  0  0  0  0  0  0  0  0  0  0  0
  -24.3833  -14.0371   20.6229 C   0  0  0  0  0  0  0  0  0  0  0  0
  -25.5295  -12.2396   21.1618 C   0  0  0  0  0  0  0  0  0  0  0  0
  -25.7262  -19.3481   25.1762 C   0  0  0  0  0  0  0  0  0  0  0  0
  -27.0884  -17.5004   25.8885 C   0  0  0  0  0  0  0  0  0  0  0  0
  -26.6992  -19.8289   24.3906 C   0  0  0  0  0  0  0  0  0  0  0  0
  -25.9204  -18.1476   25.9371 C   0  0  0  0  0  0  0  0  0  0  0  0
  -28.0098  -19.0881   24.2879 C   0  0  0  0  0  0  0  0  0  0  0  0
  -31.6282  -15.3946   22.7206 C   0  0  0  0  0  0  0  0  0  0  0  0
  -23.1492  -12.1932   21.9237 C   0  0  0  0  0  0  0  0  0  0  0  0
  -27.6009  -26.4637   19.0195 C   0  0  0  0  0  0  0  0  0  0  0  0
  -25.4004  -27.9451   20.8865 C   0  0  0  0  0  0  0  0  0  0  0  0
  -23.0222  -27.6887   23.3206 C   0  0  0  0  0  0  0  0  0  0  0  0
  -30.9767  -14.5241   20.4976 C   0  0  0  0  0  0  0  0  0  0  0  0
  -30.1773  -27.5017   14.7367 C   0  0  0  0  0  0  0  0  0  0  0  0
  -25.5585  -25.0421   18.6147 C   0  0  0  0  0  0  0  0  0  0  0  0
  -25.9782  -25.5656   21.4947 C   0  0  0  0  0  0  0  0  0  0  0  0
  -29.5283  -28.3242   15.8469 C   0  0  0  0  0  0  0  0  0  0  0  0
  -29.3855  -12.2443   18.3141 C   0  0  0  0  0  0  0  0  0  0  0  0
  -29.9537  -27.8029   17.2158 C   0  0  0  0  0  0  0  0  0  0  0  0
  -27.9126  -12.3179   18.7260 C   0  0  0  0  0  0  0  0  0  0  0  0
  -30.0624  -13.6126   18.3812 C   0  0  0  0  0  0  0  0  0  0  0  0
  -28.4478  -14.3907   20.0681 C   0  0  0  0  0  0  0  0  0  0  0  0
  -29.5020  -26.3515   17.4182 C   0  0  1  0  0  0  0  0  0  0  0  0
  -26.1041  -26.3751   19.1175 C   0  0  1  0  0  0  0  0  0  0  0  0
  -27.7399  -13.0262   20.0846 C   0  0  1  0  0  0  0  0  0  0  0  0
  -21.4217  -29.0773   24.6650 C   0  0  0  0  0  0  0  0  0  0  0  0
  -27.7151  -28.9453   22.6045 C   0  0  0  0  0  0  0  0  0  0  0  0
  -26.0564  -29.4898   24.3991 C   0  0  0  0  0  0  0  0  0  0  0  0
  -25.9194  -30.6352   22.1873 C   0  0  0  0  0  0  0  0  0  0  0  0
  -20.6786  -26.2305   22.2527 C   0  0  0  0  0  0  0  0  0  0  0  0
  -26.5526  -21.0704   23.5886 C   0  0  0  0  0  0  0  0  0  1  0  0
  -25.2538  -28.2028   22.3667 C   0  0  1  0  0  0  0  0  0  0  0  0
  -21.6099  -28.2380   23.4109 C   0  0  2  0  0  0  0  0  0  0  0  0
  -26.2381  -29.2918   22.8790 C   0  0  0  0  0  0  0  0  0  0  0  0
  -25.6055  -14.2602   20.1326 N   0  0  0  0  0  0  0  0  0  0  0  0
  -26.2795  -13.1495   20.4765 N   0  0  0  0  0  0  0  0  0  0  0  0
  -28.1565  -17.9369   25.1056 N   0  0  0  0  0  0  0  0  0  0  0  0
  -25.7512  -26.6398   20.5137 N   0  0  0  0  0  0  0  0  0  0  0  0
  -29.8608  -14.2119   19.7016 N   0  0  0  0  0  0  0  0  0  0  0  0
  -26.0507  -11.0678   21.5831 N   0  0  0  0  0  0  0  0  0  0  0  0
  -21.9387  -12.8992   21.9480 N   0  0  0  0  0  0  0  0  0  0  0  0
  -30.6776  -15.0529   21.7582 N   0  0  0  0  0  0  0  0  0  0  0  0
  -28.0914  -26.3011   17.7379 N   0  0  0  0  0  0  0  0  0  0  0  0
  -23.8466  -28.5170   22.5889 N   0  0  0  0  0  0  0  0  0  0  0  0
  -20.6213  -27.1232   23.4388 N   0  3  0  0  0  0  0  0  0  0  0  0
  -28.8881  -19.5095   23.5331 O   0  0  0  0  0  0  0  0  0  0  0  0
  -32.8434  -15.2773   22.5892 O   0  0  0  0  0  0  0  0  0  0  0  0
  -23.2167  -11.0712   22.4805 O   0  0  0  0  0  0  0  0  0  0  0  0
  -28.2617  -26.6662   20.0314 O   0  0  0  0  0  0  0  0  0  0  0  0
  -25.2036  -28.8661   20.0899 O   0  0  0  0  0  0  0  0  0  0  0  0
  -23.3611  -26.6324   23.8497 O   0  0  0  0  0  0  0  0  0  0  0  0
  -32.1380  -14.3148   20.1332 O   0  0  0  0  0  0  0  0  0  0  0  0
  -24.8494  -17.7456   26.6973 O   0  0  0  0  0  0  0  0  0  0  0  0
  -20.3552  -17.8596   19.9675 O   0  0  0  0  0  0  0  0  0  0  0  0
  -26.3557  -20.7409   22.2142 O   0  0  0  0  0  0  0  0  0  1  0  0
  -21.6463  -23.1305   20.9446 F   0  0  0  0  0  0  0  0  0  0  0  0
  -19.0347  -19.3050   21.9193 F   0  0  0  0  0  0  0  0  0  0  0  0
  1  2  1  0  0  0  0
  1  7  2  0  0  0  0
  2  8  2  0  0  0  0
  3  6  1  0  0  0  0
  3 10  2  0  0  0  0
  4 11  2  0  0  0  0
  4 19  1  0  0  0  0
  5 12  1  0  0  0  0
  5 19  2  0  0  0  0
  6 20  2  0  0  0  0
  7 22  1  0  0  0  0
  8 24  1  0  0  0  0
  9 13  2  0  0  0  0
  9 23  1  0  0  0  0
 10 26  1  0  0  0  0
 11 27  1  0  0  0  0
 12 27  2  0  0  0  0
 13 28  1  0  0  0  0
 14 15  2  0  0  0  0
 14 29  1  0  0  0  0
 15 30  1  0  0  0  0
 16 20  1  0  0  0  0
 16 26  2  0  0  0  0
 17 25  1  0  0  0  0
 17 28  2  0  0  0  0
 18 30  2  0  0  0  0
 18 31  1  0  0  0  0
 19 32  1  0  0  0  0
 20 39  1  0  0  0  0
 21 32  1  0  0  0  0
 21 33  2  0  0  0  0
 21 40  1  0  0  0  0
 22 24  2  0  0  0  0
 22 45  1  0  0  0  0
 23 25  2  0  0  0  0
 23 46  1  0  0  0  0
 24 54  1  0  0  0  0
 25 47  1  0  0  0  0
 26 68  1  0  0  0  0
 27 85  1  0  0  0  0
 28 86  1  0  0  0  0
 29 31  2  0  0  0  0
 29 85  1  0  0  0  0
 30 87  1  0  0  0  0
 31 88  1  0  0  0  0
 32 66  2  0  0  0  0
 33 67  1  0  0  0  0
 33 71  1  0  0  0  0
 34 36  2  0  0  0  0
 34 37  1  0  0  0  0
 35 37  2  0  0  0  0
 35 68  1  0  0  0  0
 36 38  1  0  0  0  0
 36 62  1  0  0  0  0
 37 84  1  0  0  0  0
 38 68  1  0  0  0  0
 38 77  2  0  0  0  0
 39 73  1  0  0  0  0
 39 78  2  0  0  0  0
 40 72  1  0  0  0  0
 40 79  2  0  0  0  0
 41 55  1  0  0  0  0
 41 74  1  0  0  0  0
 41 80  2  0  0  0  0
 42 63  1  0  0  0  0
 42 69  1  0  0  0  0
 42 81  2  0  0  0  0
 43 64  1  0  0  0  0
 43 75  1  0  0  0  0
 43 82  2  0  0  0  0
 44 70  1  0  0  0  0
 44 73  1  0  0  0  0
 44 83  2  0  0  0  0
 45 48  1  0  0  0  0
 46 55  1  0  0  0  0
 47 69  1  0  0  0  0
 48 50  1  0  0  0  0
 49 51  1  0  0  0  0
 49 52  1  0  0  0  0
 50 54  1  0  0  0  0
 51 56  1  0  0  0  0
 52 70  1  0  0  0  0
 53 56  1  0  0  0  0
 53 70  1  0  0  0  0
 54 74  1  0  0  0  0
 55 69  1  0  0  0  0
 56 67  1  0  0  0  0
 57 64  1  0  0  0  0
 58 65  1  0  0  0  0
 59 65  1  0  0  0  0
 60 65  1  0  0  0  0
 61 76  1  0  0  0  0
 62 86  1  0  0  0  0
 63 65  1  0  0  0  0
 63 75  1  0  0  0  0
 64 76  1  0  0  0  0
 66 67  1  0  0  0  0
M  CHG  1  76   1
M  ISO  4  44 100  62 101  73 100  86 101
M  END
> <Batch ID>
0080

> <Smiles>
CNC(C)C(=O)NC(C(=O)N1Cc2cc([101O:1][101CH2:1]C3=CC(=O)CN(c4cccc(C(=O)[100NH:0][100C:0](=O)N5CCCC(n6nc(-c7ccc(Oc8ccc(F)cc8F)cc7)c(C(N)=O)c6N)C5)c4)C3=O)ccc2CC1C(=O)NC1CCCc2ccccc21)C(C)(C)C

> <Shape>
0.186

> <Color>
0.085

> <Negative vol penalty>
0.000

$$$$

  -OEChem-04052300023D

 83 91  0     1  0  0  0  0  0999 V2000
  -21.3412  -30.5680   14.4984 C   0  0  0  0  0  0  0  0  0  0  0  0
  -22.5384  -30.0804   15.0125 C   0  0  0  0  0  0  0  0  0  0  0  0
  -23.9636   -9.6631   21.9471 C   0  0  0  0  0  0  0  0  0  0  0  0
  -24.6499  -11.0908   23.7714 C   0  0  0  0  0  0  0  0  0  0  0  0
  -31.0768  -19.9703   19.6383 C   0  0  0  0  0  0  0  0  0  0  0  0
  -28.7348  -20.4620   19.9702 C   0  0  0  0  0  0  0  0  0  0  0  0
  -20.7960  -31.7476   15.0035 C   0  0  0  0  0  0  0  0  0  0  0  0
  -23.1918  -30.7729   16.0314 C   0  0  0  0  0  0  0  0  0  0  0  0
  -24.8367  -27.7126   19.7156 C   0  0  0  0  0  0  0  0  0  0  0  0
  -30.7643  -18.6285   19.4205 C   0  0  0  0  0  0  0  0  0  0  0  0
  -28.4222  -19.1202   19.7523 C   0  0  0  0  0  0  0  0  0  0  0  0
  -23.5513   -8.6935   22.8611 C   0  0  0  0  0  0  0  0  0  0  0  0
  -24.2376  -10.1211   24.6854 C   0  0  0  0  0  0  0  0  0  0  0  0
  -26.0028  -26.9893   19.4693 C   0  0  0  0  0  0  0  0  0  0  0  0
  -20.8972   -8.1443   24.8827 C   0  0  0  0  0  0  0  0  0  0  0  0
  -19.6600   -7.5366   24.6692 C   0  0  0  0  0  0  0  0  0  0  0  0
  -27.2642  -28.5985   20.7493 C   0  0  0  0  0  0  0  0  0  0  0  0
  -20.7450   -5.3839   24.5091 C   0  0  0  0  0  0  0  0  0  0  0  0
  -24.5129  -10.8618   22.4023 C   0  0  0  0  0  0  0  0  0  0  0  0
  -30.0621  -20.8870   19.9132 C   0  0  0  0  0  0  0  0  0  0  0  0
  -24.1678  -12.9142   20.9271 C   0  0  0  0  0  0  0  0  0  0  0  0
  -21.4380  -32.4498   16.0356 C   0  0  0  0  0  0  0  0  0  0  0  0
  -24.8773  -28.8922   20.4728 C   0  0  0  0  0  0  0  0  0  0  0  0
  -22.6553  -31.9638   16.5498 C   0  0  0  0  0  0  0  0  0  0  0  0
  -26.0967  -29.3336   21.0060 C   0  0  0  0  0  0  0  0  0  0  0  0
  -29.4370  -18.2034   19.4775 C   0  0  0  0  0  0  0  0  0  0  0  0
  -23.6883   -8.9224   24.2302 C   0  0  0  0  0  0  0  0  0  0  0  0
  -27.2173  -27.4337   19.9838 C   0  0  0  0  0  0  0  0  0  0  0  0
  -22.0584   -7.3718   24.9094 C   0  0  0  0  0  0  0  0  0  0  0  0
  -19.5839   -6.1564   24.4824 C   0  0  0  0  0  0  0  0  0  0  0  0
  -21.9823   -5.9916   24.7226 C   0  0  0  0  0  0  0  0  0  0  0  0
  -24.9395  -11.8637   21.4587 C   0  0  0  0  0  0  0  0  0  0  0  0
  -25.0259  -13.5787   20.0854 C   0  0  0  0  0  0  0  0  0  0  0  0
  -30.3949  -22.3157   20.1453 C   0  0  0  0  0  0  0  0  0  0  0  0
  -22.7978  -13.2587   21.1724 C   0  0  0  0  0  0  0  0  0  0  0  0
  -24.2009  -31.9459   19.9060 C   0  0  0  0  0  0  0  0  0  0  0  0
  -24.7706  -32.2578   23.0841 C   0  0  0  0  0  0  0  0  0  0  0  0
  -29.4908  -24.6091   20.0106 C   0  0  0  0  0  0  0  0  0  0  0  0
  -26.3007  -31.0504   25.8854 C   0  0  0  0  0  0  0  0  0  0  0  0
  -30.0076  -15.8024   18.9715 C   0  0  0  0  0  0  0  0  0  0  0  0
  -20.8346  -33.7456   16.5167 C   0  0  0  0  0  0  0  0  0  0  0  0
  -23.6063  -29.6466   20.7519 C   0  0  0  0  0  0  0  0  0  0  0  0
  -26.1908  -30.5828   21.8421 C   0  0  0  0  0  0  0  0  0  0  0  0
  -21.3970  -34.2198   17.8543 C   0  0  0  0  0  0  0  0  0  0  0  0
  -29.6262  -12.3092   18.3980 C   0  0  0  0  0  0  0  0  0  0  0  0
  -22.9194  -34.1239   17.8575 C   0  0  0  0  0  0  0  0  0  0  0  0
  -28.3094  -11.9683   19.0994 C   0  0  0  0  0  0  0  0  0  0  0  0
  -30.4235  -13.3604   19.1681 C   0  0  0  0  0  0  0  0  0  0  0  0
  -28.3661  -14.2452   20.1946 C   0  0  0  0  0  0  0  0  0  0  0  0
  -23.3811  -32.6734   17.6722 C   0  0  1  0  0  0  0  0  0  0  0  0
  -23.8460  -31.1115   21.1041 C   0  0  1  0  0  0  0  0  0  0  0  0
  -27.4980  -13.2381   19.4227 C   0  0  2  0  0  0  0  0  0  0  0  0
  -26.6127  -31.5414   28.3265 C   0  0  0  0  0  0  0  0  0  0  0  0
  -26.7601  -34.4626   22.3838 C   0  0  0  0  0  0  0  0  0  0  0  0
  -27.7055  -34.2467   24.6920 C   0  0  0  0  0  0  0  0  0  0  0  0
  -25.3306  -34.9426   24.3789 C   0  0  0  0  0  0  0  0  0  0  0  0
  -25.0226  -28.5021   26.6802 C   0  0  0  0  0  0  0  0  0  0  0  0
  -28.2260  -25.3190   19.5757 C   0  0  0  0  0  0  0  0  0  1  0  0
  -25.9887  -32.5434   23.9289 C   0  0  1  0  0  0  0  0  0  0  0  0
  -25.7806  -30.8026   27.2899 C   0  0  2  0  0  0  0  0  0  0  0  0
  -26.4451  -34.0263   23.8286 C   0  0  0  0  0  0  0  0  0  0  0  0
  -26.1916  -11.8570   20.9935 N   0  0  0  0  0  0  0  0  0  0  0  0
  -26.2131  -12.9116   20.1607 N   0  0  0  0  0  0  0  0  0  0  0  0
  -24.9215  -31.2891   22.0818 N   0  0  0  0  0  0  0  0  0  0  0  0
  -29.5921  -14.5362   19.4349 N   0  0  0  0  0  0  0  0  0  0  0  0
  -24.8732  -14.6628   19.2954 N   0  0  0  0  0  0  0  0  0  0  0  0
  -22.0603  -12.4701   22.0660 N   0  0  0  0  0  0  0  0  0  0  0  0
  -29.1206  -16.8401   19.2559 N   0  0  0  0  0  0  0  0  0  0  0  0
  -29.3878  -23.2282   19.8356 N   0  0  0  0  0  0  0  0  0  0  0  0
  -23.2427  -31.9368   18.9103 N   0  0  0  0  0  0  0  0  0  0  0  0
  -25.6575  -32.1104   25.2821 N   0  0  0  0  0  0  0  0  0  0  0  0
  -25.8188  -29.3470   27.6072 N   0  3  0  0  0  0  0  0  0  0  0  0
  -31.4945  -22.6058   20.6087 O   0  0  0  0  0  0  0  0  0  0  0  0
  -22.2394  -14.2270   20.6031 O   0  0  0  0  0  0  0  0  0  0  0  0
  -25.2645  -32.5541   19.8869 O   0  0  0  0  0  0  0  0  0  0  0  0
  -23.7217  -32.8666   23.3099 O   0  0  0  0  0  0  0  0  0  0  0  0
  -30.4679  -25.2051   20.4553 O   0  0  0  0  0  0  0  0  0  0  0  0
  -27.1913  -30.3738   25.3759 O   0  0  0  0  0  0  0  0  0  0  0  0
  -31.0589  -15.9506   18.3431 O   0  0  0  0  0  0  0  0  0  0  0  0
  -23.2858   -7.9765   25.1223 O   0  0  0  0  0  0  0  0  0  0  0  0
  -28.3571  -26.7300   19.7443 O   0  0  0  0  0  0  0  0  0  1  0  0
  -18.3956   -5.5728   24.2788 F   0  0  0  0  0  0  0  0  0  0  0  0
  -23.0942   -5.2441   24.7483 F   0  0  0  0  0  0  0  0  0  0  0  0
  1  2  1  0  0  0  0
  1  7  2  0  0  0  0
  2  8  2  0  0  0  0
  3 12  2  0  0  0  0
  3 19  1  0  0  0  0
  4 13  1  0  0  0  0
  4 19  2  0  0  0  0
  5 10  2  0  0  0  0
  5 20  1  0  0  0  0
  6 11  1  0  0  0  0
  6 20  2  0  0  0  0
  7 22  1  0  0  0  0
  8 24  1  0  0  0  0
  9 14  2  0  0  0  0
  9 23  1  0  0  0  0
 10 26  1  0  0  0  0
 11 26  2  0  0  0  0
 12 27  1  0  0  0  0
 13 27  2  0  0  0  0
 14 28  1  0  0  0  0
 15 16  2  0  0  0  0
 15 29  1  0  0  0  0
 16 30  1  0  0  0  0
 17 25  1  0  0  0  0
 17 28  2  0  0  0  0
 18 30  2  0  0  0  0
 18 31  1  0  0  0  0
 19 32  1  0  0  0  0
 20 34  1  0  0  0  0
 21 32  1  0  0  0  0
 21 33  2  0  0  0  0
 21 35  1  0  0  0  0
 22 24  2  0  0  0  0
 22 41  1  0  0  0  0
 23 25  2  0  0  0  0
 23 42  1  0  0  0  0
 24 50  1  0  0  0  0
 25 43  1  0  0  0  0
 26 68  1  0  0  0  0
 27 80  1  0  0  0  0
 28 81  1  0  0  0  0
 29 31  2  0  0  0  0
 29 80  1  0  0  0  0
 30 82  1  0  0  0  0
 31 83  1  0  0  0  0
 32 62  2  0  0  0  0
 33 63  1  0  0  0  0
 33 66  1  0  0  0  0
 34 69  1  0  0  0  0
 34 73  2  0  0  0  0
 35 67  1  0  0  0  0
 35 74  2  0  0  0  0
 36 51  1  0  0  0  0
 36 70  1  0  0  0  0
 36 75  2  0  0  0  0
 37 59  1  0  0  0  0
 37 64  1  0  0  0  0
 37 76  2  0  0  0  0
 38 58  1  0  0  0  0
 38 69  1  0  0  0  0
 38 77  2  0  0  0  0
 39 60  1  0  0  0  0
 39 71  1  0  0  0  0
 39 78  2  0  0  0  0
 40 65  1  0  0  0  0
 40 68  1  0  0  0  0
 40 79  2  0  0  0  0
 41 44  1  0  0  0  0
 42 51  1  0  0  0  0
 43 64  1  0  0  0  0
 44 46  1  0  0  0  0
 45 47  1  0  0  0  0
 45 48  1  0  0  0  0
 46 50  1  0  0  0  0
 47 52  1  0  0  0  0
 48 65  1  0  0  0  0
 49 52  1  0  0  0  0
 49 65  1  0  0  0  0
 50 70  1  0  0  0  0
 51 64  1  0  0  0  0
 52 63  1  0  0  0  0
 53 60  1  0  0  0  0
 54 61  1  0  0  0  0
 55 61  1  0  0  0  0
 56 61  1  0  0  0  0
 57 72  1  0  0  0  0
 58 81  1  0  0  0  0
 59 61  1  0  0  0  0
 59 71  1  0  0  0  0
 60 72  1  0  0  0  0
 62 63  1  0  0  0  0
M  CHG  1  72   1
M  ISO  4  40 100  58 101  68 100  81 101
M  END
> <Batch ID>
0080

> <Smiles>
CNC(C)C(=O)NC(C(=O)N1Cc2cc([101O:1][101CH2:1]C(=O)NC(=O)c3ccc([100NH:0][100C:0](=O)N4CCCC(n5nc(-c6ccc(Oc7ccc(F)cc7F)cc6)c(C(N)=O)c5N)C4)cc3)ccc2CC1C(=O)NC1CCCc2ccccc21)C(C)(C)C

> <Shape>
0.330

> <Color>
0.168

> <Negative vol penalty>
0.000

$$$$

  -OEChem-04052300023D

 86 95  0     1  0  0  0  0  0999 V2000
  -19.7154  -25.2618   24.2302 C   0  0  0  0  0  0  0  0  0  0  0  0
  -20.7777  -25.2391   23.3322 C   0  0  0  0  0  0  0  0  0  0  0  0
  -23.8267   -8.7257   19.9773 C   0  0  0  0  0  0  0  0  0  0  0  0
  -23.1231  -10.4522   21.5138 C   0  0  0  0  0  0  0  0  0  0  0  0
  -18.8618  -26.3635   24.2706 C   0  0  0  0  0  0  0  0  0  0  0  0
  -20.9865  -26.3176   22.4734 C   0  0  0  0  0  0  0  0  0  0  0  0
  -25.8536  -27.6954   22.2324 C   0  0  0  0  0  0  0  0  0  0  0  0
  -27.7745  -19.9791   18.9570 C   0  0  0  0  0  0  0  0  0  0  0  0
  -29.8679  -19.9346   20.1623 C   0  0  0  0  0  0  0  0  0  0  0  0
  -27.7875  -18.5863   18.8830 C   0  0  0  0  0  0  0  0  0  0  0  0
  -29.8809  -18.5417   20.0883 C   0  0  0  0  0  0  0  0  0  0  0  0
  -23.0366   -7.7987   20.6570 C   0  0  0  0  0  0  0  0  0  0  0  0
  -22.3329   -9.5253   22.1936 C   0  0  0  0  0  0  0  0  0  0  0  0
  -26.6982  -26.9142   21.4450 C   0  0  0  0  0  0  0  0  0  0  0  0
  -23.2237   -5.9735   23.4956 C   0  0  0  0  0  0  0  0  0  0  0  0
  -23.7853   -4.7286   23.7791 C   0  0  0  0  0  0  0  0  0  0  0  0
  -26.5340  -28.5379   19.6686 C   0  0  0  0  0  0  0  0  0  0  0  0
  -22.0484   -3.6516   22.4904 C   0  0  0  0  0  0  0  0  0  0  0  0
  -23.8700  -10.0525   20.4057 C   0  0  0  0  0  0  0  0  0  0  0  0
  -24.3034  -11.8207   18.6187 C   0  0  0  0  0  0  0  0  0  0  0  0
  -19.0659  -27.4603   23.4185 C   0  0  0  0  0  0  0  0  0  0  0  0
  -25.3332  -28.9004   21.7389 C   0  0  0  0  0  0  0  0  0  0  0  0
  -20.1340  -27.4344   22.5016 C   0  0  0  0  0  0  0  0  0  0  0  0
  -25.6850  -29.3338   20.4527 C   0  0  0  0  0  0  0  0  0  0  0  0
  -28.8148  -20.6533   19.5967 C   0  0  0  0  0  0  0  0  0  0  0  0
  -28.8407  -17.8676   19.4487 C   0  0  0  0  0  0  0  0  0  0  0  0
  -22.2897   -8.1985   21.7651 C   0  0  0  0  0  0  0  0  0  0  0  0
  -27.0362  -27.3340   20.1618 C   0  0  0  0  0  0  0  0  0  0  0  0
  -22.0744   -6.0575   22.7096 C   0  0  0  0  0  0  0  0  0  0  0  0
  -23.1977   -3.5677   23.2765 C   0  0  0  0  0  0  0  0  0  0  0  0
  -21.4868   -4.8966   22.2070 C   0  0  0  0  0  0  0  0  0  0  0  0
  -24.6865  -11.0104   19.7043 C   0  0  0  0  0  0  0  0  0  0  0  0
  -25.4295  -12.5477   18.3188 C   0  0  0  0  0  0  0  0  0  0  0  0
  -28.2121  -24.2568   19.4586 C   0  0  0  0  0  0  0  0  0  0  0  0
  -29.4605  -24.2400   20.1790 C   0  0  0  0  0  0  0  0  0  0  0  0
  -27.7944  -22.8638   19.1365 C   0  0  0  0  0  0  0  0  0  0  0  0
  -30.1636  -25.2773   20.6461 C   0  0  0  0  0  0  0  0  0  0  0  0
  -23.0424  -11.9084   17.9420 C   0  0  0  0  0  0  0  0  0  0  0  0
  -27.4633  -25.3010   19.0869 C   0  0  0  0  0  0  0  0  0  1  0  0
  -22.4132  -30.0048   21.1407 C   0  0  0  0  0  0  0  0  0  0  0  0
  -24.0035  -32.7679   20.5422 C   0  0  0  0  0  0  0  0  0  0  0  0
  -26.9238  -34.2970   19.6587 C   0  0  0  0  0  0  0  0  0  0  0  0
  -29.8236  -15.5890   19.8825 C   0  0  0  0  0  0  0  0  0  0  0  0
  -18.0888  -28.6082   23.4660 C   0  0  0  0  0  0  0  0  0  0  0  0
  -24.4447  -29.7448   22.6108 C   0  0  0  0  0  0  0  0  0  0  0  0
  -25.1693  -30.6295   19.8837 C   0  0  0  0  0  0  0  0  0  0  0  0
  -29.8627  -22.8038   20.3275 C   0  0  0  0  0  0  0  0  0  0  0  0
  -18.6013  -29.8730   22.7821 C   0  0  0  0  0  0  0  0  0  0  0  0
  -30.2000  -12.0488   19.9358 C   0  0  0  0  0  0  0  0  0  0  0  0
  -19.2063  -29.5371   21.4227 C   0  0  0  0  0  0  0  0  0  0  0  0
  -28.7676  -11.5297   19.7911 C   0  0  0  0  0  0  0  0  0  0  0  0
  -30.2607  -13.3161   20.7868 C   0  0  0  0  0  0  0  0  0  0  0  0
  -27.9320  -13.8775   20.2114 C   0  0  0  0  0  0  0  0  0  0  0  0
  -20.4079  -28.5960   21.5710 C   0  0  1  0  0  0  0  0  0  0  0  0
  -23.5612  -30.7008   21.8154 C   0  0  1  0  0  0  0  0  0  0  0  0
  -27.8123  -12.6389   19.3086 C   0  0  2  0  0  0  0  0  0  0  0  0
  -26.1772  -25.1718   18.3362 C   0  0  0  0  0  0  0  0  0  0  0  0
  -27.9046  -36.5637   19.2146 C   0  0  0  0  0  0  0  0  0  0  0  0
  -22.6051  -32.8392   17.8313 C   0  0  0  0  0  0  0  0  0  0  0  0
  -24.2914  -34.5323   17.0841 C   0  0  0  0  0  0  0  0  0  0  0  0
  -22.7605  -35.0534   18.9834 C   0  0  0  0  0  0  0  0  0  0  0  0
  -28.8869  -34.0056   21.8542 C   0  0  0  0  0  0  0  0  0  0  0  0
  -24.6375  -33.3941   19.3237 C   0  0  1  0  0  0  0  0  0  0  0  0
  -27.6609  -35.4822   20.2556 C   0  0  2  0  0  0  0  0  0  0  0  0
  -23.5820  -33.9294   18.3153 C   0  0  0  0  0  0  0  0  0  0  0  0
  -25.9566  -11.2039   20.0693 N   0  0  0  0  0  0  0  0  0  0  0  0
  -26.3815  -12.1441   19.2081 N   0  0  0  0  0  0  0  0  0  0  0  0
  -28.8021  -22.0425   19.6703 N   0  0  0  0  0  0  0  0  0  0  0  0
  -24.2988  -31.4168   20.7726 N   0  0  0  0  0  0  0  0  0  0  0  0
  -29.3330  -14.3235   20.2678 N   0  0  0  0  0  0  0  0  0  0  0  0
  -25.6882  -13.4863   17.3837 N   0  0  0  0  0  0  0  0  0  0  0  0
  -21.9915  -11.0904   18.3787 N   0  0  0  0  0  0  0  0  0  0  0  0
  -28.8542  -16.4527   19.3736 N   0  0  0  0  0  0  0  0  0  0  0  0
  -21.5749  -29.3315   22.0088 N   0  0  0  0  0  0  0  0  0  0  0  0
  -25.5591  -34.4105   19.8198 N   0  0  0  0  0  0  0  0  0  0  0  0
  -28.9785  -35.0508   20.8024 N   0  3  0  0  0  0  0  0  0  0  0  0
  -26.7844  -22.5395   18.5347 O   0  0  0  0  0  0  0  0  0  0  0  0
  -22.8581  -12.6772   16.9681 O   0  0  0  0  0  0  0  0  0  0  0  0
  -22.2957  -30.0747   19.9230 O   0  0  0  0  0  0  0  0  0  0  0  0
  -23.2788  -33.4543   21.2671 O   0  0  0  0  0  0  0  0  0  0  0  0
  -27.5006  -33.3656   19.1017 O   0  0  0  0  0  0  0  0  0  0  0  0
  -31.0204  -15.8752   19.9701 O   0  0  0  0  0  0  0  0  0  0  0  0
  -21.5184   -7.2943   22.4285 O   0  0  0  0  0  0  0  0  0  0  0  0
  -27.8600  -26.5730   19.3909 O   0  0  0  0  0  0  0  0  0  1  0  0
  -23.7380   -2.3723   23.5475 F   0  0  0  0  0  0  0  0  0  0  0  0
  -20.3833   -4.9711   21.4504 F   0  0  0  0  0  0  0  0  0  0  0  0
  1  2  1  0  0  0  0
  1  5  2  0  0  0  0
  2  6  2  0  0  0  0
  3 12  2  0  0  0  0
  3 19  1  0  0  0  0
  4 13  1  0  0  0  0
  4 19  2  0  0  0  0
  5 21  1  0  0  0  0
  6 23  1  0  0  0  0
  7 14  2  0  0  0  0
  7 22  1  0  0  0  0
  8 10  2  0  0  0  0
  8 25  1  0  0  0  0
  9 11  1  0  0  0  0
  9 25  2  0  0  0  0
 10 26  1  0  0  0  0
 11 26  2  0  0  0  0
 12 27  1  0  0  0  0
 13 27  2  0  0  0  0
 14 28  1  0  0  0  0
 15 16  2  0  0  0  0
 15 29  1  0  0  0  0
 16 30  1  0  0  0  0
 17 24  1  0  0  0  0
 17 28  2  0  0  0  0
 18 30  2  0  0  0  0
 18 31  1  0  0  0  0
 19 32  1  0  0  0  0
 20 32  1  0  0  0  0
 20 33  2  0  0  0  0
 20 38  1  0  0  0  0
 21 23  2  0  0  0  0
 21 44  1  0  0  0  0
 22 24  2  0  0  0  0
 22 45  1  0  0  0  0
 23 54  1  0  0  0  0
 24 46  1  0  0  0  0
 25 68  1  0  0  0  0
 26 73  1  0  0  0  0
 27 83  1  0  0  0  0
 28 84  1  0  0  0  0
 29 31  2  0  0  0  0
 29 83  1  0  0  0  0
 30 85  1  0  0  0  0
 31 86  1  0  0  0  0
 32 66  2  0  0  0  0
 33 67  1  0  0  0  0
 33 71  1  0  0  0  0
 34 35  1  0  0  0  0
 34 36  1  0  0  0  0
 34 39  2  0  0  0  0
 35 37  2  0  0  0  0
 35 47  1  0  0  0  0
 36 68  1  0  0  0  0
 36 77  2  0  0  0  0
 38 72  1  0  0  0  0
 38 78  2  0  0  0  0
 39 57  1  0  0  0  0
 39 84  1  0  0  0  0
 40 55  1  0  0  0  0
 40 74  1  0  0  0  0
 40 79  2  0  0  0  0
 41 63  1  0  0  0  0
 41 69  1  0  0  0  0
 41 80  2  0  0  0  0
 42 64  1  0  0  0  0
 42 75  1  0  0  0  0
 42 81  2  0  0  0  0
 43 70  1  0  0  0  0
 43 73  1  0  0  0  0
 43 82  2  0  0  0  0
 44 48  1  0  0  0  0
 45 55  1  0  0  0  0
 46 69  1  0  0  0  0
 47 68  1  0  0  0  0
 48 50  1  0  0  0  0
 49 51  1  0  0  0  0
 49 52  1  0  0  0  0
 50 54  1  0  0  0  0
 51 56  1  0  0  0  0
 52 70  1  0  0  0  0
 53 56  1  0  0  0  0
 53 70  1  0  0  0  0
 54 74  1  0  0  0  0
 55 69  1  0  0  0  0
 56 67  1  0  0  0  0
 58 64  1  0  0  0  0
 59 65  1  0  0  0  0
 60 65  1  0  0  0  0
 61 65  1  0  0  0  0
 62 76  1  0  0  0  0
 63 65  1  0  0  0  0
 63 75  1  0  0  0  0
 64 76  1  0  0  0  0
 66 67  1  0  0  0  0
M  CHG  1  76   1
M  ISO  4  39 101  43 100  73 100  84 101
M  END
> <Batch ID>
0080

> <Smiles>
C=C1CN(c2ccc([100NH:0][100C:0](=O)N3CCCC(n4nc(-c5ccc(Oc6ccc(F)cc6F)cc5)c(C(N)=O)c4N)C3)cc2)C(=O)C1=[101C:1](C)[101O:1]c1ccc2c(c1)CN(C(=O)C(NC(=O)C(C)NC)C(C)(C)C)C(C(=O)NC1CCCc3ccccc31)C2

> <Shape>
0.295

> <Color>
0.129

> <Negative vol penalty>
0.000

$$$$

  -OEChem-04052300023D

 87 96  0     1  0  0  0  0  0999 V2000
  -31.0804  -35.1358   23.0015 C   0  0  0  0  0  0  0  0  0  0  0  0
  -30.9702  -33.9087   22.3553 C   0  0  0  0  0  0  0  0  0  0  0  0
  -22.8094  -10.7712   19.6688 C   0  0  0  0  0  0  0  0  0  0  0  0
  -23.4526   -9.8981   21.8277 C   0  0  0  0  0  0  0  0  0  0  0  0
  -29.6206  -19.4762   18.6170 C   0  0  0  0  0  0  0  0  0  0  0  0
  -27.8598  -17.9848   17.9011 C   0  0  0  0  0  0  0  0  0  0  0  0
  -30.2317  -35.4411   24.0647 C   0  0  0  0  0  0  0  0  0  0  0  0
  -30.0119  -32.9857   22.7728 C   0  0  0  0  0  0  0  0  0  0  0  0
  -26.8818  -29.0784   19.2456 C   0  0  0  0  0  0  0  0  0  0  0  0
  -28.7055  -20.5271   18.6783 C   0  0  0  0  0  0  0  0  0  0  0  0
  -26.9447  -19.0357   17.9624 C   0  0  0  0  0  0  0  0  0  0  0  0
  -21.8034   -9.8092   19.5794 C   0  0  0  0  0  0  0  0  0  0  0  0
  -22.4465   -8.9361   21.7384 C   0  0  0  0  0  0  0  0  0  0  0  0
  -27.0594  -27.7259   18.9576 C   0  0  0  0  0  0  0  0  0  0  0  0
  -19.0990   -8.7872   22.1767 C   0  0  0  0  0  0  0  0  0  0  0  0
  -18.3059   -8.5745   23.3042 C   0  0  0  0  0  0  0  0  0  0  0  0
  -25.4721  -27.1564   20.6826 C   0  0  0  0  0  0  0  0  0  0  0  0
  -19.0201   -6.2675   23.3714 C   0  0  0  0  0  0  0  0  0  0  0  0
  -23.6341  -10.8156   20.7929 C   0  0  0  0  0  0  0  0  0  0  0  0
  -29.1977  -18.2050   18.2283 C   0  0  0  0  0  0  0  0  0  0  0  0
  -24.5702  -13.0992   21.4385 C   0  0  0  0  0  0  0  0  0  0  0  0
  -29.2561  -34.5252   24.4892 C   0  0  0  0  0  0  0  0  0  0  0  0
  -26.0047  -29.4803   20.2632 C   0  0  0  0  0  0  0  0  0  0  0  0
  -29.1503  -33.2785   23.8435 C   0  0  0  0  0  0  0  0  0  0  0  0
  -25.2832  -28.5148   20.9797 C   0  0  0  0  0  0  0  0  0  0  0  0
  -27.3676  -20.3069   18.3510 C   0  0  0  0  0  0  0  0  0  0  0  0
  -21.6219   -8.8917   20.6142 C   0  0  0  0  0  0  0  0  0  0  0  0
  -26.3567  -26.7645   19.6781 C   0  0  0  0  0  0  0  0  0  0  0  0
  -19.8526   -7.7400   21.6465 C   0  0  0  0  0  0  0  0  0  0  0  0
  -18.2664   -7.3147   23.9016 C   0  0  0  0  0  0  0  0  0  0  0  0
  -19.8132   -6.4802   22.2438 C   0  0  0  0  0  0  0  0  0  0  0  0
  -24.6739  -11.8087   20.8855 C   0  0  0  0  0  0  0  0  0  0  0  0
  -25.8232  -13.6403   21.2850 C   0  0  0  0  0  0  0  0  0  0  0  0
  -25.4900  -23.4240   18.7054 C   0  0  0  0  0  0  0  0  0  0  0  0
  -24.4323  -22.5429   18.2780 C   0  0  0  0  0  0  0  0  0  0  0  0
  -26.7728  -22.6717   18.7903 C   0  0  0  0  0  0  0  0  0  0  0  0
  -23.1413  -22.8303   18.0801 C   0  0  0  0  0  0  0  0  0  0  0  0
  -25.4376  -24.7223   19.0032 C   0  0  0  0  0  0  0  0  0  1  0  0
  -30.1723  -17.0857   18.1628 C   0  0  0  0  0  0  0  0  0  0  0  0
  -23.4420  -13.7504   22.0375 C   0  0  0  0  0  0  0  0  0  0  0  0
  -26.3231  -31.0508   23.0084 C   0  0  0  0  0  0  0  0  0  0  0  0
  -23.0843  -30.8741   23.0356 C   0  0  0  0  0  0  0  0  0  0  0  0
  -20.2611  -29.2731   21.9804 C   0  0  0  0  0  0  0  0  0  0  0  0
  -30.3742  -14.6222   18.2813 C   0  0  0  0  0  0  0  0  0  0  0  0
  -28.3928  -34.8810   25.6736 C   0  0  0  0  0  0  0  0  0  0  0  0
  -25.8042  -30.9444   20.5436 C   0  0  0  0  0  0  0  0  0  0  0  0
  -24.3143  -28.8950   22.0684 C   0  0  0  0  0  0  0  0  0  0  0  0
  -25.0420  -21.1878   18.0816 C   0  0  0  0  0  0  0  0  0  0  0  0
  -27.1550  -33.9984   25.8121 C   0  0  0  0  0  0  0  0  0  0  0  0
  -30.1976  -11.4894   19.9095 C   0  0  0  0  0  0  0  0  0  0  0  0
  -27.5261  -32.5284   25.6450 C   0  0  0  0  0  0  0  0  0  0  0  0
  -28.7379  -11.3997   20.3627 C   0  0  0  0  0  0  0  0  0  0  0  0
  -30.3270  -12.1573   18.5412 C   0  0  0  0  0  0  0  0  0  0  0  0
  -28.2106  -13.3698   18.8711 C   0  0  0  0  0  0  0  0  0  0  0  0
  -28.1069  -32.2610   24.2511 C   0  0  1  0  0  0  0  0  0  0  0  0
  -25.2723  -31.2166   21.9473 C   0  0  1  0  0  0  0  0  0  0  0  0
  -28.0332  -12.7683   20.2747 C   0  0  1  0  0  0  0  0  0  0  0  0
  -17.7620  -29.3365   22.1994 C   0  0  0  0  0  0  0  0  0  0  0  0
  -23.2995  -29.6457   25.8203 C   0  0  0  0  0  0  0  0  0  0  0  0
  -20.9293  -28.8739   25.5871 C   0  0  0  0  0  0  0  0  0  0  0  0
  -21.4539  -31.3124   25.5552 C   0  0  0  0  0  0  0  0  0  0  0  0
  -19.9023  -29.7278   19.0781 C   0  0  0  0  0  0  0  0  0  0  0  0
  -22.0719  -29.8855   23.5617 C   0  0  1  0  0  0  0  0  0  0  0  0
  -18.9646  -29.7998   21.3921 C   0  0  2  0  0  0  0  0  0  0  0  0
  -21.9583  -29.9218   25.1119 C   0  0  0  0  0  0  0  0  0  0  0  0
  -25.8963  -11.5459   20.4156 N   0  0  0  0  0  0  0  0  0  0  0  0
  -26.5721  -12.6787   20.6729 N   0  0  0  0  0  0  0  0  0  0  0  0
  -26.4556  -21.3558   18.4127 N   0  0  0  0  0  0  0  0  0  0  0  0
  -24.1576  -30.3389   22.3094 N   0  0  0  0  0  0  0  0  0  0  0  0
  -29.6420  -13.4512   18.5438 N   0  0  0  0  0  0  0  0  0  0  0  0
  -26.3464  -14.8401   21.6151 N   0  0  0  0  0  0  0  0  0  0  0  0
  -22.2300  -13.0508   22.1148 N   0  0  0  0  0  0  0  0  0  0  0  0
  -29.6382  -15.8104   18.3491 N   0  0  0  0  0  0  0  0  0  0  0  0
  -27.0484  -32.1984   23.2661 N   0  0  0  0  0  0  0  0  0  0  0  0
  -20.8226  -30.1703   22.8642 N   0  0  0  0  0  0  0  0  0  0  0  0
  -18.8010  -29.3233   19.9895 N   0  3  0  0  0  0  0  0  0  0  0  0
  -27.8527  -23.1317   19.1215 O   0  0  0  0  0  0  0  0  0  0  0  0
  -31.3499  -17.3318   17.9167 O   0  0  0  0  0  0  0  0  0  0  0  0
  -23.5024  -14.9242   22.4759 O   0  0  0  0  0  0  0  0  0  0  0  0
  -26.4644  -29.9626   23.5540 O   0  0  0  0  0  0  0  0  0  0  0  0
  -22.9247  -32.0775   23.2546 O   0  0  0  0  0  0  0  0  0  0  0  0
  -20.7271  -28.1740   21.6883 O   0  0  0  0  0  0  0  0  0  0  0  0
  -31.5863  -14.6145   18.0446 O   0  0  0  0  0  0  0  0  0  0  0  0
  -20.6401   -7.9530   20.5275 O   0  0  0  0  0  0  0  0  0  0  0  0
  -26.5287  -25.4437   19.3995 O   0  0  0  0  0  0  0  0  0  1  0  0
  -17.5060   -7.1110   24.9853 F   0  0  0  0  0  0  0  0  0  0  0  0
  -20.5359   -5.4706   21.7397 F   0  0  0  0  0  0  0  0  0  0  0  0
  1  2  1  0  0  0  0
  1  7  2  0  0  0  0
  2  8  2  0  0  0  0
  3 12  2  0  0  0  0
  3 19  1  0  0  0  0
  4 13  1  0  0  0  0
  4 19  2  0  0  0  0
  5 10  2  0  0  0  0
  5 20  1  0  0  0  0
  6 11  1  0  0  0  0
  6 20  2  0  0  0  0
  7 22  1  0  0  0  0
  8 24  1  0  0  0  0
  9 14  2  0  0  0  0
  9 23  1  0  0  0  0
 10 26  1  0  0  0  0
 11 26  2  0  0  0  0
 12 27  1  0  0  0  0
 13 27  2  0  0  0  0
 14 28  1  0  0  0  0
 15 16  2  0  0  0  0
 15 29  1  0  0  0  0
 16 30  1  0  0  0  0
 17 25  1  0  0  0  0
 17 28  2  0  0  0  0
 18 30  2  0  0  0  0
 18 31  1  0  0  0  0
 19 32  1  0  0  0  0
 20 39  1  0  0  0  0
 21 32  1  0  0  0  0
 21 33  2  0  0  0  0
 21 40  1  0  0  0  0
 22 24  2  0  0  0  0
 22 45  1  0  0  0  0
 23 25  2  0  0  0  0
 23 46  1  0  0  0  0
 24 55  1  0  0  0  0
 25 47  1  0  0  0  0
 26 68  1  0  0  0  0
 27 84  1  0  0  0  0
 28 85  1  0  0  0  0
 29 31  2  0  0  0  0
 29 84  1  0  0  0  0
 30 86  1  0  0  0  0
 31 87  1  0  0  0  0
 32 66  2  0  0  0  0
 33 67  1  0  0  0  0
 33 71  1  0  0  0  0
 34 35  1  0  0  0  0
 34 36  1  0  0  0  0
 34 38  2  0  0  0  0
 35 37  2  0  0  0  0
 35 48  1  0  0  0  0
 36 68  1  0  0  0  0
 36 77  2  0  0  0  0
 38 85  1  0  0  0  0
 39 73  1  0  0  0  0
 39 78  2  0  0  0  0
 40 72  1  0  0  0  0
 40 79  2  0  0  0  0
 41 56  1  0  0  0  0
 41 74  1  0  0  0  0
 41 80  2  0  0  0  0
 42 63  1  0  0  0  0
 42 69  1  0  0  0  0
 42 81  2  0  0  0  0
 43 64  1  0  0  0  0
 43 75  1  0  0  0  0
 43 82  2  0  0  0  0
 44 70  1  0  0  0  0
 44 73  1  0  0  0  0
 44 83  2  0  0  0  0
 45 49  1  0  0  0  0
 46 56  1  0  0  0  0
 47 69  1  0  0  0  0
 48 68  1  0  0  0  0
 49 51  1  0  0  0  0
 50 52  1  0  0  0  0
 50 53  1  0  0  0  0
 51 55  1  0  0  0  0
 52 57  1  0  0  0  0
 53 70  1  0  0  0  0
 54 57  1  0  0  0  0
 54 70  1  0  0  0  0
 55 74  1  0  0  0  0
 56 69  1  0  0  0  0
 57 67  1  0  0  0  0
 58 64  1  0  0  0  0
 59 65  1  0  0  0  0
 60 65  1  0  0  0  0
 61 65  1  0  0  0  0
 62 76  1  0  0  0  0
 63 65  1  0  0  0  0
 63 75  1  0  0  0  0
 64 76  1  0  0  0  0
 66 67  1  0  0  0  0
M  CHG  1  76   1
M  ISO  4  38 101  44 100  73 100  85 101
M  END
> <Batch ID>
0080

> <Smiles>
C=C1CN(c2ccc(C(=O)[100NH:0][100C:0](=O)N3CCCC(n4nc(-c5ccc(Oc6ccc(F)cc6F)cc5)c(C(N)=O)c4N)C3)cc2)C(=O)C1=[101CH:1][101O:1]c1ccc2c(c1)CN(C(=O)C(NC(=O)C(C)NC)C(C)(C)C)C(C(=O)NC1CCCc3ccccc31)C2

> <Shape>
0.271

> <Color>
0.139

> <Negative vol penalty>
0.000

$$$$

  -OEChem-04052300023D

 85 94  0     1  0  0  0  0  0999 V2000
  -26.8451  -30.7185   27.4989 C   0  0  0  0  0  0  0  0  0  0  0  0
  -27.0277  -29.5066   26.8405 C   0  0  0  0  0  0  0  0  0  0  0  0
  -22.6127  -10.2410   20.2949 C   0  0  0  0  0  0  0  0  0  0  0  0
  -24.4164   -9.2667   21.5733 C   0  0  0  0  0  0  0  0  0  0  0  0
  -29.2040  -17.0626   20.4686 C   0  0  0  0  0  0  0  0  0  0  0  0
  -29.0637  -17.2329   22.8745 C   0  0  0  0  0  0  0  0  0  0  0  0
  -25.9200  -31.6417   27.0134 C   0  0  0  0  0  0  0  0  0  0  0  0
  -26.2845  -29.2168   25.6968 C   0  0  0  0  0  0  0  0  0  0  0  0
  -28.1432  -26.0315   20.8075 C   0  0  0  0  0  0  0  0  0  0  0  0
  -28.4547  -18.2322   20.3421 C   0  0  0  0  0  0  0  0  0  0  0  0
  -28.3144  -18.4026   22.7480 C   0  0  0  0  0  0  0  0  0  0  0  0
  -21.8959   -9.0489   20.3977 C   0  0  0  0  0  0  0  0  0  0  0  0
  -23.6996   -8.0745   21.6761 C   0  0  0  0  0  0  0  0  0  0  0  0
  -27.9572  -24.7031   20.4274 C   0  0  0  0  0  0  0  0  0  0  0  0
  -21.1404   -6.8597   23.5188 C   0  0  0  0  0  0  0  0  0  0  0  0
  -21.0906   -6.2409   24.7678 C   0  0  0  0  0  0  0  0  0  0  0  0
  -26.0841  -25.3635   19.0582 C   0  0  0  0  0  0  0  0  0  0  0  0
  -22.1411   -4.2750   23.8357 C   0  0  0  0  0  0  0  0  0  0  0  0
  -23.8730  -10.3499   20.8827 C   0  0  0  0  0  0  0  0  0  0  0  0
  -29.5085  -16.5629   21.7348 C   0  0  0  0  0  0  0  0  0  0  0  0
  -24.2222  -12.8518   21.2381 C   0  0  0  0  0  0  0  0  0  0  0  0
  -25.1720  -31.3672   25.8576 C   0  0  0  0  0  0  0  0  0  0  0  0
  -27.2928  -27.0361   20.3236 C   0  0  0  0  0  0  0  0  0  0  0  0
  -25.3476  -30.1367   25.1962 C   0  0  0  0  0  0  0  0  0  0  0  0
  -26.2630  -26.7043   19.4317 C   0  0  0  0  0  0  0  0  0  0  0  0
  -28.0099  -18.9023   21.4817 C   0  0  0  0  0  0  0  0  0  0  0  0
  -22.4393   -7.9656   21.0883 C   0  0  0  0  0  0  0  0  0  0  0  0
  -26.9257  -24.3685   19.5549 C   0  0  0  0  0  0  0  0  0  0  0  0
  -21.6905   -6.1862   22.4281 C   0  0  0  0  0  0  0  0  0  0  0  0
  -21.5910   -4.9485   24.9263 C   0  0  0  0  0  0  0  0  0  0  0  0
  -22.1909   -4.8939   22.5866 C   0  0  0  0  0  0  0  0  0  0  0  0
  -24.6142  -11.5809   20.7764 C   0  0  0  0  0  0  0  0  0  0  0  0
  -25.2655  -13.6777   20.8974 C   0  0  0  0  0  0  0  0  0  0  0  0
  -25.4137  -22.2352   20.9729 C   0  0  0  0  0  0  0  0  0  0  0  0
  -26.4800  -22.1440   20.1697 C   0  0  0  0  0  0  0  0  0  1  0  0
  -27.4096  -20.9748   20.2533 C   0  0  0  0  0  0  0  0  0  0  0  0
  -30.2896  -15.3433   21.8668 C   0  0  0  0  0  0  0  0  0  0  0  0
  -23.0225  -13.2501   21.9146 C   0  0  0  0  0  0  0  0  0  0  0  0
  -30.7771  -14.6074   20.6776 C   0  0  0  0  0  0  0  0  0  0  0  0
  -25.2648  -29.0910   21.6532 C   0  0  0  0  0  0  0  0  0  0  0  0
  -25.0590  -30.2445   18.6284 C   0  0  0  0  0  0  0  0  0  0  0  0
  -25.3975  -29.6738   15.2808 C   0  0  0  0  0  0  0  0  0  0  0  0
  -24.1498  -32.3763   25.3977 C   0  0  0  0  0  0  0  0  0  0  0  0
  -27.5233  -28.4680   20.7223 C   0  0  0  0  0  0  0  0  0  0  0  0
  -25.3353  -27.7482   18.8678 C   0  0  0  0  0  0  0  0  0  0  0  0
  -25.1224  -21.2404   22.0393 C   0  0  0  0  0  0  0  0  0  0  0  0
  -23.6719  -32.1500   23.9657 C   0  0  0  0  0  0  0  0  0  0  0  0
  -29.2652  -12.8902   17.9169 C   0  0  0  0  0  0  0  0  0  0  0  0
  -23.3395  -30.6784   23.7402 C   0  0  0  0  0  0  0  0  0  0  0  0
  -27.9035  -12.4673   18.4671 C   0  0  0  0  0  0  0  0  0  0  0  0
  -26.3883  -20.5200   22.4790 C   0  0  0  0  0  0  0  0  0  0  0  0
  -30.3392  -12.8580   18.9994 C   0  0  0  0  0  0  0  0  0  0  0  0
  -28.6399  -13.2559   20.7609 C   0  0  0  0  0  0  0  0  0  0  0  0
  -24.5781  -29.7963   23.9383 C   0  0  1  0  0  0  0  0  0  0  0  0
  -26.2789  -29.3377   20.5723 C   0  0  1  0  0  0  0  0  0  0  0  0
  -27.5237  -13.3025   19.7028 C   0  0  2  0  0  0  0  0  0  0  0  0
  -25.1213  -30.7961   13.0533 C   0  0  0  0  0  0  0  0  0  0  0  0
  -22.0321  -29.9297   18.8478 C   0  0  0  0  0  0  0  0  0  0  0  0
  -21.8993  -30.1417   16.3567 C   0  0  0  0  0  0  0  0  0  0  0  0
  -22.7832  -32.0329   17.7223 C   0  0  0  0  0  0  0  0  0  0  0  0
  -28.2648  -29.3412   14.6273 C   0  0  0  0  0  0  0  0  0  0  0  0
  -24.1894  -29.9522   17.4296 C   0  0  1  0  0  0  0  0  0  0  0  0
  -26.0823  -30.4731   14.1868 C   0  0  2  0  0  0  0  0  0  0  0  0
  -22.7421  -30.4939   17.6011 C   0  0  0  0  0  0  0  0  0  0  0  0
  -25.8128  -11.5935   20.1872 N   0  0  0  0  0  0  0  0  0  0  0  0
  -30.6128  -14.8203   23.0187 N   0  0  0  0  0  0  0  0  0  0  0  0
  -26.1830  -12.8823   20.2762 N   0  0  0  0  0  0  0  0  0  0  0  0
  -27.2348  -20.1127   21.3497 N   0  0  0  0  0  0  0  0  0  0  0  0
  -29.9316  -13.6302   20.1715 N   0  0  0  0  0  0  0  0  0  0  0  0
  -25.5974  -29.1333   19.2926 N   0  0  0  0  0  0  0  0  0  0  0  0
  -25.4783  -14.9993   21.0714 N   0  0  0  0  0  0  0  0  0  0  0  0
  -22.9994  -13.2067   23.3153 N   0  0  0  0  0  0  0  0  0  0  0  0
  -25.4423  -29.8711   22.7799 N   0  0  0  0  0  0  0  0  0  0  0  0
  -24.8956  -30.4904   16.2720 N   0  0  0  0  0  0  0  0  0  0  0  0
  -27.2299  -29.7057   13.6257 N   0  3  0  0  0  0  0  0  0  0  0  0
  -28.2699  -20.8670   19.3786 O   0  0  0  0  0  0  0  0  0  0  0  0
  -21.9957  -13.6175   21.2947 O   0  0  0  0  0  0  0  0  0  0  0  0
  -31.8805  -14.9417   20.2664 O   0  0  0  0  0  0  0  0  0  0  0  0
  -24.3853  -28.2560   21.4773 O   0  0  0  0  0  0  0  0  0  0  0  0
  -25.2594  -31.4160   18.9589 O   0  0  0  0  0  0  0  0  0  0  0  0
  -25.3128  -28.4479   15.2564 O   0  0  0  0  0  0  0  0  0  0  0  0
  -21.7400   -6.8023   21.1889 O   0  0  0  0  0  0  0  0  0  0  0  0
  -26.7416  -23.0726   19.1827 O   0  0  0  0  0  0  0  0  0  1  0  0
  -21.5445   -4.3549   26.1262 F   0  0  0  0  0  0  0  0  0  0  0  0
  -22.7217   -4.2423   21.5428 F   0  0  0  0  0  0  0  0  0  0  0  0
  1  2  1  0  0  0  0
  1  7  2  0  0  0  0
  2  8  2  0  0  0  0
  3 12  2  0  0  0  0
  3 19  1  0  0  0  0
  4 13  1  0  0  0  0
  4 19  2  0  0  0  0
  5 10  2  0  0  0  0
  5 20  1  0  0  0  0
  6 11  1  0  0  0  0
  6 20  2  0  0  0  0
  7 22  1  0  0  0  0
  8 24  1  0  0  0  0
  9 14  2  0  0  0  0
  9 23  1  0  0  0  0
 10 26  1  0  0  0  0
 11 26  2  0  0  0  0
 12 27  1  0  0  0  0
 13 27  2  0  0  0  0
 14 28  1  0  0  0  0
 15 16  2  0  0  0  0
 15 29  1  0  0  0  0
 16 30  1  0  0  0  0
 17 25  1  0  0  0  0
 17 28  2  0  0  0  0
 18 30  2  0  0  0  0
 18 31  1  0  0  0  0
 19 32  1  0  0  0  0
 20 37  1  0  0  0  0
 21 32  1  0  0  0  0
 21 33  2  0  0  0  0
 21 38  1  0  0  0  0
 22 24  2  0  0  0  0
 22 43  1  0  0  0  0
 23 25  2  0  0  0  0
 23 44  1  0  0  0  0
 24 54  1  0  0  0  0
 25 45  1  0  0  0  0
 26 68  1  0  0  0  0
 27 82  1  0  0  0  0
 28 83  1  0  0  0  0
 29 31  2  0  0  0  0
 29 82  1  0  0  0  0
 30 84  1  0  0  0  0
 31 85  1  0  0  0  0
 32 65  2  0  0  0  0
 33 67  1  0  0  0  0
 33 71  1  0  0  0  0
 34 35  2  0  0  0  0
 34 46  1  0  0  0  0
 35 36  1  0  0  0  0
 35 83  1  0  0  0  0
 36 68  1  0  0  0  0
 36 76  2  0  0  0  0
 37 39  1  0  0  0  0
 37 66  2  0  0  0  0
 38 72  1  0  0  0  0
 38 77  2  0  0  0  0
 39 69  1  0  0  0  0
 39 78  2  0  0  0  0
 40 55  1  0  0  0  0
 40 73  1  0  0  0  0
 40 79  2  0  0  0  0
 41 62  1  0  0  0  0
 41 70  1  0  0  0  0
 41 80  2  0  0  0  0
 42 63  1  0  0  0  0
 42 74  1  0  0  0  0
 42 81  2  0  0  0  0
 43 47  1  0  0  0  0
 44 55  1  0  0  0  0
 45 70  1  0  0  0  0
 46 51  1  0  0  0  0
 47 49  1  0  0  0  0
 48 50  1  0  0  0  0
 48 52  1  0  0  0  0
 49 54  1  0  0  0  0
 50 56  1  0  0  0  0
 51 68  1  0  0  0  0
 52 69  1  0  0  0  0
 53 56  1  0  0  0  0
 53 69  1  0  0  0  0
 54 73  1  0  0  0  0
 55 70  1  0  0  0  0
 56 67  1  0  0  0  0
 57 63  1  0  0  0  0
 58 64  1  0  0  0  0
 59 64  1  0  0  0  0
 60 64  1  0  0  0  0
 61 75  1  0  0  0  0
 62 64  1  0  0  0  0
 62 74  1  0  0  0  0
 63 75  1  0  0  0  0
 65 67  1  0  0  0  0
M  CHG  1  75   1
M  ISO  4  35 101  37 100  39 100  83 101
M  END
> <Batch ID>
0080

> <Smiles>
CNC(C)C(=O)NC(C(=O)N1Cc2cc([101O:1][101C:1]3=CCCN(c4ccc([100C:0](=N)[100C:0](=O)N5CCCC(n6nc(-c7ccc(Oc8ccc(F)cc8F)cc7)c(C(N)=O)c6N)C5)cc4)C3=O)ccc2CC1C(=O)NC1CCCc2ccccc21)C(C)(C)C

> <Shape>
0.335

> <Color>
0.184

> <Negative vol penalty>
0.000

$$$$

  -OEChem-04052300023D

 85 94  0     1  0  0  0  0  0999 V2000
  -28.7701  -34.6849   16.2330 C   0  0  0  0  0  0  0  0  0  0  0  0
  -28.8642  -33.3872   16.7256 C   0  0  0  0  0  0  0  0  0  0  0  0
  -24.0814   -9.6965   22.2603 C   0  0  0  0  0  0  0  0  0  0  0  0
  -24.5297  -11.3748   23.9394 C   0  0  0  0  0  0  0  0  0  0  0  0
  -28.4027  -35.7271   17.0832 C   0  0  0  0  0  0  0  0  0  0  0  0
  -28.5919  -33.1312   18.0690 C   0  0  0  0  0  0  0  0  0  0  0  0
  -25.6805  -29.0383   18.7151 C   0  0  0  0  0  0  0  0  0  0  0  0
  -28.1782  -20.5473   19.3038 C   0  0  0  0  0  0  0  0  0  0  0  0
  -30.5677  -20.2134   19.1796 C   0  0  0  0  0  0  0  0  0  0  0  0
  -27.9816  -19.1684   19.2292 C   0  0  0  0  0  0  0  0  0  0  0  0
  -30.3712  -18.8344   19.1050 C   0  0  0  0  0  0  0  0  0  0  0  0
  -23.6769   -8.8079   23.2565 C   0  0  0  0  0  0  0  0  0  0  0  0
  -24.1252  -10.4862   24.9356 C   0  0  0  0  0  0  0  0  0  0  0  0
  -26.2997  -27.7936   18.6108 C   0  0  0  0  0  0  0  0  0  0  0  0
  -20.9327   -8.2812   25.1603 C   0  0  0  0  0  0  0  0  0  0  0  0
  -19.7616   -7.5548   24.9446 C   0  0  0  0  0  0  0  0  0  0  0  0
  -26.3980  -27.6476   21.0167 C   0  0  0  0  0  0  0  0  0  0  0  0
  -21.0097   -5.4929   25.1116 C   0  0  0  0  0  0  0  0  0  0  0  0
  -24.5078  -10.9800   22.6017 C   0  0  0  0  0  0  0  0  0  0  0  0
  -24.1197  -12.8148   20.8725 C   0  0  0  0  0  0  0  0  0  0  0  0
  -28.1163  -35.4821   18.4355 C   0  0  0  0  0  0  0  0  0  0  0  0
  -25.4248  -29.6029   19.9730 C   0  0  0  0  0  0  0  0  0  0  0  0
  -28.2215  -34.1712   18.9383 C   0  0  0  0  0  0  0  0  0  0  0  0
  -25.7731  -28.8985   21.1343 C   0  0  0  0  0  0  0  0  0  0  0  0
  -29.4712  -21.0698   19.2789 C   0  0  0  0  0  0  0  0  0  0  0  0
  -29.0781  -18.3119   19.1298 C   0  0  0  0  0  0  0  0  0  0  0  0
  -23.6988   -9.2027   24.5941 C   0  0  0  0  0  0  0  0  0  0  0  0
  -26.6612  -27.0993   19.7617 C   0  0  0  0  0  0  0  0  0  0  0  0
  -22.1423   -7.6134   25.3516 C   0  0  0  0  0  0  0  0  0  0  0  0
  -19.8001   -6.1607   24.9202 C   0  0  0  0  0  0  0  0  0  0  0  0
  -22.1809   -6.2193   25.3273 C   0  0  0  0  0  0  0  0  0  0  0  0
  -24.9262  -11.8982   21.5732 C   0  0  0  0  0  0  0  0  0  0  0  0
  -24.9847  -13.4457   20.0122 C   0  0  0  0  0  0  0  0  0  0  0  0
  -29.3278  -24.7162   19.5040 C   0  0  0  0  0  0  0  0  0  0  0  0
  -30.7548  -24.5267   19.4313 C   0  0  0  0  0  0  0  0  0  0  0  0
  -28.6384  -23.3967   19.4548 C   0  0  0  0  0  0  0  0  0  0  0  0
  -31.7175  -25.4548   19.4459 C   0  0  0  0  0  0  0  0  0  0  0  0
  -28.6312  -25.8485   19.6019 C   0  0  0  0  0  0  0  0  0  1  0  0
  -22.7142  -13.0731   20.9890 C   0  0  0  0  0  0  0  0  0  0  0  0
  -26.3627  -32.2392   21.4810 C   0  0  0  0  0  0  0  0  0  0  0  0
  -24.2161  -31.2612   23.7076 C   0  0  0  0  0  0  0  0  0  0  0  0
  -22.4622  -28.6904   25.1083 C   0  0  0  0  0  0  0  0  0  0  0  0
  -29.8573  -15.9229   18.9518 C   0  0  0  0  0  0  0  0  0  0  0  0
  -27.7691  -36.6482   19.3267 C   0  0  0  0  0  0  0  0  0  0  0  0
  -24.7319  -30.9345   20.0688 C   0  0  0  0  0  0  0  0  0  0  0  0
  -25.5022  -29.4518   22.5087 C   0  0  0  0  0  0  0  0  0  0  0  0
  -30.9975  -23.0509   19.3321 C   0  0  0  0  0  0  0  0  0  0  0  0
  -27.1331  -36.2342   20.6513 C   0  0  0  0  0  0  0  0  0  0  0  0
  -29.7741  -12.3676   18.7787 C   0  0  0  0  0  0  0  0  0  0  0  0
  -27.9175  -35.0899   21.2855 C   0  0  0  0  0  0  0  0  0  0  0  0
  -28.4391  -12.0039   19.4327 C   0  0  0  0  0  0  0  0  0  0  0  0
  -30.4354  -13.5613   19.4654 C   0  0  0  0  0  0  0  0  0  0  0  0
  -28.2510  -14.3885   20.2483 C   0  0  0  0  0  0  0  0  0  0  0  0
  -27.9099  -33.8496   20.3839 C   0  0  1  0  0  0  0  0  0  0  0  0
  -24.9850  -31.6458   21.3945 C   0  0  1  0  0  0  0  0  0  0  0  0
  -27.5160  -13.2326   19.5503 C   0  0  2  0  0  0  0  0  0  0  0  0
  -20.8160  -28.1944   26.9362 C   0  0  0  0  0  0  0  0  0  0  0  0
  -26.4499  -31.4779   25.7748 C   0  0  0  0  0  0  0  0  0  0  0  0
  -25.0521  -30.0981   27.3274 C   0  0  0  0  0  0  0  0  0  0  0  0
  -24.2261  -32.3197   26.5497 C   0  0  0  0  0  0  0  0  0  0  0  0
  -20.4379  -27.7188   23.1803 C   0  0  0  0  0  0  0  0  0  0  0  0
  -24.2717  -30.3783   24.9308 C   0  0  1  0  0  0  0  0  0  0  0  0
  -20.9942  -28.5511   25.4686 C   0  0  2  0  0  0  0  0  0  0  0  0
  -25.0069  -31.0587   26.1199 C   0  0  0  0  0  0  0  0  0  0  0  0
  -26.2054  -11.9396   21.1909 N   0  0  0  0  0  0  0  0  0  0  0  0
  -26.2091  -12.8899   20.2407 N   0  0  0  0  0  0  0  0  0  0  0  0
  -29.6675  -22.4452   19.3529 N   0  0  0  0  0  0  0  0  0  0  0  0
  -24.8283  -30.7601   22.5500 N   0  0  0  0  0  0  0  0  0  0  0  0
  -29.5034  -14.6887   19.5370 N   0  0  0  0  0  0  0  0  0  0  0  0
  -24.8099  -14.4160   19.0900 N   0  0  0  0  0  0  0  0  0  0  0  0
  -21.9744  -12.3351   21.9231 N   0  0  0  0  0  0  0  0  0  0  0  0
  -28.8788  -16.9111   19.0540 N   0  0  0  0  0  0  0  0  0  0  0  0
  -26.6432  -33.1574   20.4871 N   0  0  0  0  0  0  0  0  0  0  0  0
  -22.8941  -29.9951   25.2206 N   0  0  0  0  0  0  0  0  0  0  0  0
  -20.3576  -27.4846   24.6451 N   0  3  0  0  0  0  0  0  0  0  0  0
  -27.4330  -23.2161   19.4964 O   0  0  0  0  0  0  0  0  0  0  0  0
  -22.1285  -13.9213   20.2741 O   0  0  0  0  0  0  0  0  0  0  0  0
  -27.1150  -31.8910   22.3835 O   0  0  0  0  0  0  0  0  0  0  0  0
  -23.6441  -32.3520   23.7746 O   0  0  0  0  0  0  0  0  0  0  0  0
  -23.1573  -27.7366   24.7653 O   0  0  0  0  0  0  0  0  0  0  0  0
  -30.9371  -16.0826   18.3769 O   0  0  0  0  0  0  0  0  0  0  0  0
  -23.3040   -8.3360   25.5664 O   0  0  0  0  0  0  0  0  0  0  0  0
  -27.2664  -25.8844   19.6627 O   0  0  0  0  0  0  0  0  0  1  0  0
  -18.6752   -5.4633   24.7146 F   0  0  0  0  0  0  0  0  0  0  0  0
  -23.3398   -5.5722   25.5116 F   0  0  0  0  0  0  0  0  0  0  0  0
  1  2  1  0  0  0  0
  1  5  2  0  0  0  0
  2  6  2  0  0  0  0
  3 12  2  0  0  0  0
  3 19  1  0  0  0  0
  4 13  1  0  0  0  0
  4 19  2  0  0  0  0
  5 21  1  0  0  0  0
  6 23  1  0  0  0  0
  7 14  2  0  0  0  0
  7 22  1  0  0  0  0
  8 10  2  0  0  0  0
  8 25  1  0  0  0  0
  9 11  1  0  0  0  0
  9 25  2  0  0  0  0
 10 26  1  0  0  0  0
 11 26  2  0  0  0  0
 12 27  1  0  0  0  0
 13 27  2  0  0  0  0
 14 28  1  0  0  0  0
 15 16  2  0  0  0  0
 15 29  1  0  0  0  0
 16 30  1  0  0  0  0
 17 24  1  0  0  0  0
 17 28  2  0  0  0  0
 18 30  2  0  0  0  0
 18 31  1  0  0  0  0
 19 32  1  0  0  0  0
 20 32  1  0  0  0  0
 20 33  2  0  0  0  0
 20 39  1  0  0  0  0
 21 23  2  0  0  0  0
 21 44  1  0  0  0  0
 22 24  2  0  0  0  0
 22 45  1  0  0  0  0
 23 54  1  0  0  0  0
 24 46  1  0  0  0  0
 25 67  1  0  0  0  0
 26 72  1  0  0  0  0
 27 82  1  0  0  0  0
 28 83  1  0  0  0  0
 29 31  2  0  0  0  0
 29 82  1  0  0  0  0
 30 84  1  0  0  0  0
 31 85  1  0  0  0  0
 32 65  2  0  0  0  0
 33 66  1  0  0  0  0
 33 70  1  0  0  0  0
 34 35  1  0  0  0  0
 34 36  1  0  0  0  0
 34 38  2  0  0  0  0
 35 37  2  0  0  0  0
 35 47  1  0  0  0  0
 36 67  1  0  0  0  0
 36 76  2  0  0  0  0
 38 83  1  0  0  0  0
 39 71  1  0  0  0  0
 39 77  2  0  0  0  0
 40 55  1  0  0  0  0
 40 73  1  0  0  0  0
 40 78  2  0  0  0  0
 41 62  1  0  0  0  0
 41 68  1  0  0  0  0
 41 79  2  0  0  0  0
 42 63  1  0  0  0  0
 42 74  1  0  0  0  0
 42 80  2  0  0  0  0
 43 69  1  0  0  0  0
 43 72  1  0  0  0  0
 43 81  2  0  0  0  0
 44 48  1  0  0  0  0
 45 55  1  0  0  0  0
 46 68  1  0  0  0  0
 47 67  1  0  0  0  0
 48 50  1  0  0  0  0
 49 51  1  0  0  0  0
 49 52  1  0  0  0  0
 50 54  1  0  0  0  0
 51 56  1  0  0  0  0
 52 69  1  0  0  0  0
 53 56  1  0  0  0  0
 53 69  1  0  0  0  0
 54 73  1  0  0  0  0
 55 68  1  0  0  0  0
 56 66  1  0  0  0  0
 57 63  1  0  0  0  0
 58 64  1  0  0  0  0
 59 64  1  0  0  0  0
 60 64  1  0  0  0  0
 61 75  1  0  0  0  0
 62 64  1  0  0  0  0
 62 74  1  0  0  0  0
 63 75  1  0  0  0  0
 65 66  1  0  0  0  0
M  CHG  1  75   1
M  ISO  4  38 101  43 100  72 100  83 101
M  END
> <Batch ID>
0080

> <Smiles>
C=C1CN(c2ccc([100NH:0][100C:0](=O)N3CCCC(n4nc(-c5ccc(Oc6ccc(F)cc6F)cc5)c(C(N)=O)c4N)C3)cc2)C(=O)C1=[101CH:1][101O:1]c1ccc2c(c1)CN(C(=O)C(NC(=O)C(C)NC)C(C)(C)C)C(C(=O)NC1CCCc3ccccc31)C2

> <Shape>
0.293

> <Color>
0.133

> <Negative vol penalty>
0.000

$$$$

  -OEChem-04052300023D

 90 99  0     1  0  0  0  0  0999 V2000
  -24.6521   -6.6500   23.4099 C   0  0  0  0  0  0  0  0  0  0  0  0
  -25.6962   -7.4432   22.9478 C   0  0  0  0  0  0  0  0  0  0  0  0
  -25.9102  -32.9833   22.4618 C   0  0  0  0  0  0  0  0  0  0  0  0
  -24.2704  -31.9338   23.8923 C   0  0  0  0  0  0  0  0  0  0  0  0
  -23.3475   -6.9115   22.9965 C   0  0  0  0  0  0  0  0  0  0  0  0
  -25.4348   -8.5054   22.0816 C   0  0  0  0  0  0  0  0  0  0  0  0
  -29.4515  -14.1248   21.1580 C   0  0  0  0  0  0  0  0  0  0  0  0
  -26.1230  -33.9671   23.4274 C   0  0  0  0  0  0  0  0  0  0  0  0
  -24.4832  -32.9176   24.8580 C   0  0  0  0  0  0  0  0  0  0  0  0
  -30.2929  -15.1973   20.8615 C   0  0  0  0  0  0  0  0  0  0  0  0
  -27.8095  -34.2734   26.3419 C   0  0  0  0  0  0  0  0  0  0  0  0
  -29.1286  -34.6192   26.6353 C   0  0  0  0  0  0  0  0  0  0  0  0
  -28.6964  -16.0154   19.2398 C   0  0  0  0  0  0  0  0  0  0  0  0
  -29.7592  -23.7666   20.1359 C   0  0  0  0  0  0  0  0  0  0  0  0
  -30.4993  -26.0557   19.9145 C   0  0  0  0  0  0  0  0  0  0  0  0
  -28.6815  -36.8959   25.9613 C   0  0  0  0  0  0  0  0  0  0  0  0
  -24.9839  -31.9667   22.6942 C   0  0  0  0  0  0  0  0  0  0  0  0
  -24.3156  -31.1390   20.3756 C   0  0  0  0  0  0  0  0  0  0  0  0
  -23.0724   -7.9699   22.1149 C   0  0  0  0  0  0  0  0  0  0  0  0
  -28.2209  -14.0019   20.5068 C   0  0  0  0  0  0  0  0  0  0  0  0
  -24.1219   -8.8002   21.6717 C   0  0  0  0  0  0  0  0  0  0  0  0
  -27.8438  -14.9501   19.5417 C   0  0  0  0  0  0  0  0  0  0  0  0
  -31.9837  -24.2436   19.3228 C   0  0  0  0  0  0  0  0  0  0  0  0
  -29.5111  -25.1336   20.2594 C   0  0  0  0  0  0  0  0  0  0  0  0
  -30.9955  -23.3215   19.6676 C   0  0  0  0  0  0  0  0  0  0  0  0
  -25.4095  -33.9343   24.6255 C   0  0  0  0  0  0  0  0  0  0  0  0
  -29.9164  -16.1400   19.9046 C   0  0  0  0  0  0  0  0  0  0  0  0
  -26.9265  -35.2387   25.8581 C   0  0  0  0  0  0  0  0  0  0  0  0
  -29.5646  -35.9305   26.4450 C   0  0  0  0  0  0  0  0  0  0  0  0
  -31.7356  -25.6107   19.4462 C   0  0  0  0  0  0  0  0  0  0  0  0
  -27.3625  -36.5500   25.6678 C   0  0  0  0  0  0  0  0  0  0  0  0
  -24.7632  -30.9504   21.6969 C   0  0  0  0  0  0  0  0  0  0  0  0
  -24.2714  -29.8733   19.8440 C   0  0  0  0  0  0  0  0  0  0  0  0
  -35.7860  -23.0465   17.8558 C   0  0  0  0  0  0  0  0  0  0  0  0
  -37.0708  -23.2351   17.5251 C   0  0  0  0  0  0  0  0  0  0  0  0
  -30.9616  -19.5694   19.5950 C   0  0  0  0  0  0  0  0  0  0  0  0
  -30.2653  -18.4520   19.8275 C   0  0  0  0  0  0  0  0  0  1  0  0
  -23.9706  -32.3501   19.6900 C   0  0  0  0  0  0  0  0  0  0  0  0
  -30.3415  -20.9013   19.8549 C   0  0  0  0  0  0  0  0  0  0  0  0
  -25.0458  -12.0455   20.0978 C   0  0  0  0  0  0  0  0  0  0  0  0
  -24.2810  -15.0148   20.0049 C   0  0  0  0  0  0  0  0  0  0  0  0
  -23.9017  -18.0192   20.8610 C   0  0  0  0  0  0  0  0  0  0  0  0
  -27.1674  -24.8055   21.1228 C   0  0  0  0  0  0  0  0  0  0  0  0
  -21.6410   -8.2131   21.7059 C   0  0  0  0  0  0  0  0  0  0  0  0
  -27.3101  -12.8293   20.7501 C   0  0  0  0  0  0  0  0  0  0  0  0
  -26.5263  -14.7585   18.8414 C   0  0  0  0  0  0  0  0  0  0  0  0
  -35.3487  -22.5987   19.2224 C   0  0  0  0  0  0  0  0  0  0  0  0
  -34.6500  -23.2830   16.8998 C   0  0  0  0  0  0  0  0  0  0  0  0
  -21.5189   -9.0706   20.4505 C   0  0  0  0  0  0  0  0  0  0  0  0
  -23.6412  -25.2987   21.1130 C   0  0  0  0  0  0  0  0  0  0  0  0
  -22.3823  -10.3160   20.5858 C   0  0  0  0  0  0  0  0  0  0  0  0
  -23.4881  -26.8213   21.1352 C   0  0  0  0  0  0  0  0  0  0  0  0
  -34.3199  -23.5692   19.8087 C   0  0  0  0  0  0  0  0  0  0  0  0
  -33.6334  -24.2541   17.5038 C   0  0  0  0  0  0  0  0  0  0  0  0
  -24.8270  -24.8356   21.9575 C   0  0  0  0  0  0  0  0  0  0  0  0
  -25.9525  -27.0072   21.6633 C   0  0  0  0  0  0  0  0  0  0  0  0
  -23.8652   -9.9421   20.7049 C   0  0  1  0  0  0  0  0  0  0  0  0
  -25.8177  -13.1976   20.6706 C   0  0  1  0  0  0  0  0  0  0  0  0
  -24.8105  -27.5260   20.7744 C   0  0  2  0  0  0  0  0  0  0  0  0
  -23.2044  -20.3691   21.3985 C   0  0  0  0  0  0  0  0  0  0  0  0
  -24.1282  -14.8583   16.9626 C   0  0  0  0  0  0  0  0  0  0  0  0
  -23.1151  -17.1478   16.9665 C   0  0  0  0  0  0  0  0  0  0  0  0
  -21.9369  -15.2626   18.0981 C   0  0  0  0  0  0  0  0  0  0  0  0
  -22.6508  -17.1882   23.4113 C   0  0  0  0  0  0  0  0  0  0  0  0
  -24.0241  -16.2287   19.1482 C   0  0  1  0  0  0  0  0  0  0  0  0
  -22.9056  -18.8921   21.6028 C   0  0  2  0  0  0  0  0  0  0  0  0
  -23.3265  -15.8697   17.8059 C   0  0  0  0  0  0  0  0  0  0  0  0
  -24.9873  -29.6660   21.9870 N   0  0  0  0  0  0  0  0  0  0  0  0
  -24.6791  -29.0361   20.8405 N   0  0  0  0  0  0  0  0  0  0  0  0
  -33.2310  -23.8168   18.8518 N   0  0  0  0  0  0  0  0  0  0  0  0
  -25.4974  -14.3492   19.8102 N   0  0  0  0  0  0  0  0  0  0  0  0
  -26.0453  -25.5427   21.5566 N   0  0  0  0  0  0  0  0  0  0  0  0
  -23.9239  -29.4060   18.6261 N   0  0  0  0  0  0  0  0  0  0  0  0
  -24.0729  -33.5633   20.3842 N   0  0  0  0  0  0  0  0  0  0  0  0
  -31.2249  -21.9285   19.5510 N   0  0  0  0  0  0  0  0  0  0  0  0
  -28.2560  -25.5865   20.7362 N   0  0  0  0  0  0  0  0  0  0  0  0
  -24.6252  -11.1262   21.0398 N   0  0  0  0  0  0  0  0  0  0  0  0
  -23.2744  -17.1639   19.9799 N   0  0  0  0  0  0  0  0  0  0  0  0
  -22.9494  -18.6014   23.0638 N   0  3  0  0  0  0  0  0  0  0  0  0
  -23.5674  -32.3546   18.5021 O   0  0  0  0  0  0  0  0  0  0  0  0
  -29.1965  -20.9966   20.2809 O   0  0  0  0  0  0  0  0  0  0  0  0
  -24.8446  -11.9939   18.8901 O   0  0  0  0  0  0  0  0  0  0  0  0
  -23.4259  -14.6609   20.8214 O   0  0  0  0  0  0  0  0  0  0  0  0
  -25.1151  -18.0915   21.0422 O   0  0  0  0  0  0  0  0  0  0  0  0
  -27.1534  -23.5730   21.0704 O   0  0  0  0  0  0  0  0  0  0  0  0
  -25.6170  -34.8940   25.5681 O   0  0  0  0  0  0  0  0  0  0  0  0
  -30.7406  -17.1870   19.6232 O   0  0  0  0  0  0  0  0  0  1  0  0
  -30.8309  -36.2628   26.7282 F   0  0  0  0  0  0  0  0  0  0  0  0
  -32.6780  -26.5063   19.1188 F   0  0  0  0  0  0  0  0  0  0  0  0
  -26.5184  -37.4820   25.2045 F   0  0  0  0  0  0  0  0  0  0  0  0
  1  2  1  0  0  0  0
  1  5  2  0  0  0  0
  2  6  2  0  0  0  0
  3  8  2  0  0  0  0
  3 17  1  0  0  0  0
  4  9  1  0  0  0  0
  4 17  2  0  0  0  0
  5 19  1  0  0  0  0
  6 21  1  0  0  0  0
  7 10  2  0  0  0  0
  7 20  1  0  0  0  0
  8 26  1  0  0  0  0
  9 26  2  0  0  0  0
 10 27  1  0  0  0  0
 11 12  2  0  0  0  0
 11 28  1  0  0  0  0
 12 29  1  0  0  0  0
 13 22  1  0  0  0  0
 13 27  2  0  0  0  0
 14 24  2  0  0  0  0
 14 25  1  0  0  0  0
 15 24  1  0  0  0  0
 15 30  2  0  0  0  0
 16 29  2  0  0  0  0
 16 31  1  0  0  0  0
 17 32  1  0  0  0  0
 18 32  1  0  0  0  0
 18 33  2  0  0  0  0
 18 38  1  0  0  0  0
 19 21  2  0  0  0  0
 19 44  1  0  0  0  0
 20 22  2  0  0  0  0
 20 45  1  0  0  0  0
 21 57  1  0  0  0  0
 22 46  1  0  0  0  0
 23 25  2  0  0  0  0
 23 30  1  0  0  0  0
 23 70  1  0  0  0  0
 24 76  1  0  0  0  0
 25 75  1  0  0  0  0
 26 86  1  0  0  0  0
 27 87  1  0  0  0  0
 28 31  2  0  0  0  0
 28 86  1  0  0  0  0
 29 88  1  0  0  0  0
 30 89  1  0  0  0  0
 31 90  1  0  0  0  0
 32 68  2  0  0  0  0
 33 69  1  0  0  0  0
 33 73  1  0  0  0  0
 34 35  2  0  0  0  0
 34 47  1  0  0  0  0
 34 48  1  0  0  0  0
 36 37  2  0  0  0  0
 36 39  1  0  0  0  0
 37 87  1  0  0  0  0
 38 74  1  0  0  0  0
 38 80  2  0  0  0  0
 39 75  1  0  0  0  0
 39 81  2  0  0  0  0
 40 58  1  0  0  0  0
 40 77  1  0  0  0  0
 40 82  2  0  0  0  0
 41 65  1  0  0  0  0
 41 71  1  0  0  0  0
 41 83  2  0  0  0  0
 42 66  1  0  0  0  0
 42 78  1  0  0  0  0
 42 84  2  0  0  0  0
 43 72  1  0  0  0  0
 43 76  1  0  0  0  0
 43 85  2  0  0  0  0
 44 49  1  0  0  0  0
 45 58  1  0  0  0  0
 46 71  1  0  0  0  0
 47 53  1  0  0  0  0
 48 54  1  0  0  0  0
 49 51  1  0  0  0  0
 50 52  1  0  0  0  0
 50 55  1  0  0  0  0
 51 57  1  0  0  0  0
 52 59  1  0  0  0  0
 53 70  1  0  0  0  0
 54 70  1  0  0  0  0
 55 72  1  0  0  0  0
 56 59  1  0  0  0  0
 56 72  1  0  0  0  0
 57 77  1  0  0  0  0
 58 71  1  0  0  0  0
 59 69  1  0  0  0  0
 60 66  1  0  0  0  0
 61 67  1  0  0  0  0
 62 67  1  0  0  0  0
 63 67  1  0  0  0  0
 64 79  1  0  0  0  0
 65 67  1  0  0  0  0
 65 78  1  0  0  0  0
 66 79  1  0  0  0  0
 68 69  1  0  0  0  0
M  CHG  1  79   1
M  ISO  4  37 101  43 100  76 100  87 101
M  END
> <Batch ID>
0080

> <Smiles>
C=C1CCN(c2c(F)cc([100NH:0][100C:0](=O)N3CCCC(n4nc(-c5ccc(Oc6ccc(F)cc6F)cc5)c(C(N)=O)c4N)C3)cc2NC(=O)C=[101CH:1][101O:1]c2ccc3c(c2)CN(C(=O)C(NC(=O)C(C)NC)C(C)(C)C)C(C(=O)NC2CCCc4ccccc42)C3)CC1

> <Shape>
0.256

> <Color>
0.064

> <Negative vol penalty>
0.000

$$$$

  -OEChem-04052300023D

 84 93  0     1  0  0  0  0  0999 V2000
  -28.5777  -36.2658   21.5224 C   0  0  0  0  0  0  0  0  0  0  0  0
  -28.7404  -34.8920   21.6702 C   0  0  0  0  0  0  0  0  0  0  0  0
  -32.8659  -20.5893   21.3176 C   0  0  0  0  0  0  0  0  0  0  0  0
  -24.1690  -15.0186   22.2960 C   0  0  0  0  0  0  0  0  0  0  0  0
  -26.0222  -13.4995   21.9878 C   0  0  0  0  0  0  0  0  0  0  0  0
  -32.7503  -19.6089   20.3322 C   0  0  0  0  0  0  0  0  0  0  0  0
  -27.3740  -36.8673   21.8874 C   0  0  0  0  0  0  0  0  0  0  0  0
  -27.6997  -34.1191   22.1841 C   0  0  0  0  0  0  0  0  0  0  0  0
  -26.9691  -29.8515   19.5575 C   0  0  0  0  0  0  0  0  0  0  0  0
  -32.0280  -21.7042   21.2938 C   0  0  0  0  0  0  0  0  0  0  0  0
  -23.3327  -13.9400   22.5840 C   0  0  0  0  0  0  0  0  0  0  0  0
  -25.1860  -12.4209   22.2758 C   0  0  0  0  0  0  0  0  0  0  0  0
  -27.8552  -28.8007   19.7908 C   0  0  0  0  0  0  0  0  0  0  0  0
  -22.8373  -10.5920   20.6728 C   0  0  0  0  0  0  0  0  0  0  0  0
  -22.9179   -9.4709   19.8469 C   0  0  0  0  0  0  0  0  0  0  0  0
  -30.9590  -20.8583   19.2992 C   0  0  0  0  0  0  0  0  0  0  0  0
  -26.2269  -27.7556   21.2314 C   0  0  0  0  0  0  0  0  0  0  0  0
  -23.5375   -8.1149   21.7482 C   0  0  0  0  0  0  0  0  0  0  0  0
  -25.5137  -14.7984   21.9978 C   0  0  0  0  0  0  0  0  0  0  0  0
  -31.7969  -19.7433   19.3230 C   0  0  0  0  0  0  0  0  0  0  0  0
  -27.1443  -16.6615   22.6122 C   0  0  0  0  0  0  0  0  0  0  0  0
  -26.3146  -36.1000   22.3970 C   0  0  0  0  0  0  0  0  0  0  0  0
  -25.7073  -29.8677   20.1691 C   0  0  0  0  0  0  0  0  0  0  0  0
  -26.4812  -34.7111   22.5574 C   0  0  0  0  0  0  0  0  0  0  0  0
  -25.3257  -28.8065   21.0022 C   0  0  0  0  0  0  0  0  0  0  0  0
  -31.0746  -21.8387   20.2846 C   0  0  0  0  0  0  0  0  0  0  0  0
  -23.8412  -12.6412   22.5739 C   0  0  0  0  0  0  0  0  0  0  0  0
  -27.4852  -27.7539   20.6302 C   0  0  0  0  0  0  0  0  0  0  0  0
  -23.1068  -10.4746   22.0364 C   0  0  0  0  0  0  0  0  0  0  0  0
  -23.2680   -8.2323   20.3846 C   0  0  0  0  0  0  0  0  0  0  0  0
  -23.4569   -9.2361   22.5740 C   0  0  0  0  0  0  0  0  0  0  0  0
  -26.3779  -15.9121   21.6996 C   0  0  0  0  0  0  0  0  0  0  0  0
  -27.7835  -17.5975   21.8364 C   0  0  0  0  0  0  0  0  0  0  0  0
  -29.1041  -24.5762   20.1572 C   0  0  0  0  0  0  0  0  0  0  0  0
  -29.2553  -23.3207   19.4208 C   0  0  0  0  0  0  0  0  0  0  0  0
  -28.2998  -25.6466   20.0251 C   0  0  0  0  0  0  0  0  0  1  0  0
  -31.6775  -18.7204   18.2964 C   0  0  0  0  0  0  0  0  0  0  0  0
  -27.2673  -16.5239   24.0340 C   0  0  0  0  0  0  0  0  0  0  0  0
  -30.6766  -18.8309   17.2104 C   0  0  0  0  0  0  0  0  0  0  0  0
  -24.2325  -31.7989   22.2182 C   0  0  0  0  0  0  0  0  0  0  0  0
  -21.7014  -29.8598   21.6217 C   0  0  0  0  0  0  0  0  0  0  0  0
  -20.5679  -26.8056   20.6048 C   0  0  0  0  0  0  0  0  0  0  0  0
  -25.0490  -36.8015   22.8220 C   0  0  0  0  0  0  0  0  0  0  0  0
  -24.7528  -30.9952   19.8860 C   0  0  0  0  0  0  0  0  0  0  0  0
  -23.9747  -28.7664   21.6669 C   0  0  0  0  0  0  0  0  0  0  0  0
  -30.2142  -24.1350   21.0833 C   0  0  0  0  0  0  0  0  0  0  0  0
  -23.8630  -35.8586   23.0080 C   0  0  0  0  0  0  0  0  0  0  0  0
  -27.0976  -18.9133   17.0095 C   0  0  0  0  0  0  0  0  0  0  0  0
  -24.2772  -34.6325   23.8153 C   0  0  0  0  0  0  0  0  0  0  0  0
  -26.6560  -18.1667   18.2678 C   0  0  0  0  0  0  0  0  0  0  0  0
  -28.3894  -18.3347   16.4414 C   0  0  0  0  0  0  0  0  0  0  0  0
  -29.0768  -17.5438   18.6888 C   0  0  0  0  0  0  0  0  0  0  0  0
  -25.3668  -33.8354   23.0880 C   0  0  1  0  0  0  0  0  0  0  0  0
  -23.6910  -31.1651   20.9681 C   0  0  1  0  0  0  0  0  0  0  0  0
  -27.7900  -18.1176   19.3072 C   0  0  2  0  0  0  0  0  0  0  0  0
  -18.4493  -25.5062   20.2581 C   0  0  0  0  0  0  0  0  0  0  0  0
  -21.4527  -29.4652   24.6371 C   0  0  0  0  0  0  0  0  0  0  0  0
  -19.9954  -27.4798   24.1869 C   0  0  0  0  0  0  0  0  0  0  0  0
  -19.2758  -29.7482   23.4390 C   0  0  0  0  0  0  0  0  0  0  0  0
  -21.1093  -26.4709   17.7145 C   0  0  0  0  0  0  0  0  0  0  0  0
  -21.1653  -28.5849   22.2270 C   0  0  1  0  0  0  0  0  0  0  0  0
  -19.4880  -26.4108   19.6136 C   0  0  2  0  0  0  0  0  0  0  0  0
  -20.4986  -28.8210   23.6116 C   0  0  0  0  0  0  0  0  0  0  0  0
  -26.5162  -16.3355   20.4404 N   0  0  0  0  0  0  0  0  0  0  0  0
  -32.4293  -17.6535   18.2567 N   0  0  0  0  0  0  0  0  0  0  0  0
  -27.3768  -17.3612   20.5562 N   0  0  0  0  0  0  0  0  0  0  0  0
  -30.2481  -22.9382   20.2615 N   0  0  0  0  0  0  0  0  0  0  0  0
  -29.4330  -18.2688   17.4626 N   0  0  0  0  0  0  0  0  0  0  0  0
  -23.0791  -29.8950   21.3639 N   0  0  0  0  0  0  0  0  0  0  0  0
  -28.6482  -18.5914   22.1313 N   0  0  0  0  0  0  0  0  0  0  0  0
  -26.5410  -15.5095   24.6725 N   0  0  0  0  0  0  0  0  0  0  0  0
  -24.7892  -33.0480   22.0200 N   0  0  0  0  0  0  0  0  0  0  0  0
  -20.2770  -28.0007   21.2279 N   0  0  0  0  0  0  0  0  0  0  0  0
  -20.0867  -25.6886   18.4557 N   0  3  0  0  0  0  0  0  0  0  0  0
  -28.7247  -22.8247   18.4487 O   0  0  0  0  0  0  0  0  0  0  0  0
  -27.9870  -17.2887   24.7202 O   0  0  0  0  0  0  0  0  0  0  0  0
  -31.0559  -19.4092   16.2005 O   0  0  0  0  0  0  0  0  0  0  0  0
  -24.1499  -31.1997   23.2840 O   0  0  0  0  0  0  0  0  0  0  0  0
  -20.9252  -30.7874   21.3797 O   0  0  0  0  0  0  0  0  0  0  0  0
  -21.5675  -26.1203   20.8088 O   0  0  0  0  0  0  0  0  0  0  0  0
  -23.0255  -11.5885   22.8552 O   0  0  0  0  0  0  0  0  0  0  0  0
  -28.3484  -26.7273   20.8601 O   0  0  0  0  0  0  0  0  0  1  0  0
  -23.3439   -7.1554   19.5916 F   0  0  0  0  0  0  0  0  0  0  0  0
  -23.7158   -9.1169   23.8835 F   0  0  0  0  0  0  0  0  0  0  0  0
  1  2  1  0  0  0  0
  1  7  2  0  0  0  0
  2  8  2  0  0  0  0
  3  6  1  0  0  0  0
  3 10  2  0  0  0  0
  4 11  2  0  0  0  0
  4 19  1  0  0  0  0
  5 12  1  0  0  0  0
  5 19  2  0  0  0  0
  6 20  2  0  0  0  0
  7 22  1  0  0  0  0
  8 24  1  0  0  0  0
  9 13  2  0  0  0  0
  9 23  1  0  0  0  0
 10 26  1  0  0  0  0
 11 27  1  0  0  0  0
 12 27  2  0  0  0  0
 13 28  1  0  0  0  0
 14 15  2  0  0  0  0
 14 29  1  0  0  0  0
 15 30  1  0  0  0  0
 16 20  1  0  0  0  0
 16 26  2  0  0  0  0
 17 25  1  0  0  0  0
 17 28  2  0  0  0  0
 18 30  2  0  0  0  0
 18 31  1  0  0  0  0
 19 32  1  0  0  0  0
 20 37  1  0  0  0  0
 21 32  1  0  0  0  0
 21 33  2  0  0  0  0
 21 38  1  0  0  0  0
 22 24  2  0  0  0  0
 22 43  1  0  0  0  0
 23 25  2  0  0  0  0
 23 44  1  0  0  0  0
 24 53  1  0  0  0  0
 25 45  1  0  0  0  0
 26 67  1  0  0  0  0
 27 81  1  0  0  0  0
 28 82  1  0  0  0  0
 29 31  2  0  0  0  0
 29 81  1  0  0  0  0
 30 83  1  0  0  0  0
 31 84  1  0  0  0  0
 32 64  2  0  0  0  0
 33 66  1  0  0  0  0
 33 70  1  0  0  0  0
 34 35  1  0  0  0  0
 34 36  2  0  0  0  0
 34 46  1  0  0  0  0
 35 67  1  0  0  0  0
 35 75  2  0  0  0  0
 36 82  1  0  0  0  0
 37 39  1  0  0  0  0
 37 65  2  0  0  0  0
 38 71  1  0  0  0  0
 38 76  2  0  0  0  0
 39 68  1  0  0  0  0
 39 77  2  0  0  0  0
 40 54  1  0  0  0  0
 40 72  1  0  0  0  0
 40 78  2  0  0  0  0
 41 61  1  0  0  0  0
 41 69  1  0  0  0  0
 41 79  2  0  0  0  0
 42 62  1  0  0  0  0
 42 73  1  0  0  0  0
 42 80  2  0  0  0  0
 43 47  1  0  0  0  0
 44 54  1  0  0  0  0
 45 69  1  0  0  0  0
 46 67  1  0  0  0  0
 47 49  1  0  0  0  0
 48 50  1  0  0  0  0
 48 51  1  0  0  0  0
 49 53  1  0  0  0  0
 50 55  1  0  0  0  0
 51 68  1  0  0  0  0
 52 55  1  0  0  0  0
 52 68  1  0  0  0  0
 53 72  1  0  0  0  0
 54 69  1  0  0  0  0
 55 66  1  0  0  0  0
 56 62  1  0  0  0  0
 57 63  1  0  0  0  0
 58 63  1  0  0  0  0
 59 63  1  0  0  0  0
 60 74  1  0  0  0  0
 61 63  1  0  0  0  0
 61 73  1  0  0  0  0
 62 74  1  0  0  0  0
 64 66  1  0  0  0  0
M  CHG  1  74   1
M  ISO  4  36 101  37 100  39 100  82 101
M  END
> <Batch ID>
0080

> <Smiles>
CNC(C)C(=O)NC(C(=O)N1Cc2cc([101O:1][101CH:1]=C3CN(c4cccc([100C:0](=N)[100C:0](=O)N5CCCC(n6nc(-c7ccc(Oc8ccc(F)cc8F)cc7)c(C(N)=O)c6N)C5)c4)C3=O)ccc2CC1C(=O)NC1CCCc2ccccc21)C(C)(C)C

> <Shape>
0.256

> <Color>
0.074

> <Negative vol penalty>
0.000

$$$$

  -OEChem-04052300023D

 86 95  0     1  0  0  0  0  0999 V2000
  -28.3442  -37.2891   22.9469 C   0  0  0  0  0  0  0  0  0  0  0  0
  -28.7782  -36.0884   22.3945 C   0  0  0  0  0  0  0  0  0  0  0  0
  -23.8076  -11.5253   19.4814 C   0  0  0  0  0  0  0  0  0  0  0  0
  -24.6811  -10.8169   21.6196 C   0  0  0  0  0  0  0  0  0  0  0  0
  -31.8367  -19.6886   18.7832 C   0  0  0  0  0  0  0  0  0  0  0  0
  -29.4707  -19.9447   18.3664 C   0  0  0  0  0  0  0  0  0  0  0  0
  -27.3359  -37.2879   23.9098 C   0  0  0  0  0  0  0  0  0  0  0  0
  -28.2049  -34.8855   22.8055 C   0  0  0  0  0  0  0  0  0  0  0  0
  -27.1890  -29.9249   19.3608 C   0  0  0  0  0  0  0  0  0  0  0  0
  -31.9189  -21.0336   19.1433 C   0  0  0  0  0  0  0  0  0  0  0  0
  -29.5529  -21.2898   18.7265 C   0  0  0  0  0  0  0  0  0  0  0  0
  -23.4554  -10.2078   19.1887 C   0  0  0  0  0  0  0  0  0  0  0  0
  -24.3289   -9.4993   21.3270 C   0  0  0  0  0  0  0  0  0  0  0  0
  -27.8973  -28.7351   19.1976 C   0  0  0  0  0  0  0  0  0  0  0  0
  -23.3330   -6.0028   21.2946 C   0  0  0  0  0  0  0  0  0  0  0  0
  -22.7023   -5.2620   22.2941 C   0  0  0  0  0  0  0  0  0  0  0  0
  -26.4733  -27.6709   20.8282 C   0  0  0  0  0  0  0  0  0  0  0  0
  -20.8960   -6.8657   22.3428 C   0  0  0  0  0  0  0  0  0  0  0  0
  -24.4205  -11.8298   20.6968 C   0  0  0  0  0  0  0  0  0  0  0  0
  -30.6126  -19.1441   18.3947 C   0  0  0  0  0  0  0  0  0  0  0  0
  -23.9931  -14.1595   21.6443 C   0  0  0  0  0  0  0  0  0  0  0  0
  -26.7432  -36.0853   24.3258 C   0  0  0  0  0  0  0  0  0  0  0  0
  -26.1227  -29.9997   20.2684 C   0  0  0  0  0  0  0  0  0  0  0  0
  -27.1887  -34.8681   23.7758 C   0  0  0  0  0  0  0  0  0  0  0  0
  -25.7515  -28.8620   20.9991 C   0  0  0  0  0  0  0  0  0  0  0  0
  -30.7770  -21.8342   19.1149 C   0  0  0  0  0  0  0  0  0  0  0  0
  -23.7160   -9.1948   20.1115 C   0  0  0  0  0  0  0  0  0  0  0  0
  -27.5414  -27.6087   19.9335 C   0  0  0  0  0  0  0  0  0  0  0  0
  -22.7453   -7.1751   20.8192 C   0  0  0  0  0  0  0  0  0  0  0  0
  -21.4838   -5.6935   22.8182 C   0  0  0  0  0  0  0  0  0  0  0  0
  -21.5267   -7.6065   21.3433 C   0  0  0  0  0  0  0  0  0  0  0  0
  -24.7851  -13.1906   20.9995 C   0  0  0  0  0  0  0  0  0  0  0  0
  -24.7889  -15.2780   21.6907 C   0  0  0  0  0  0  0  0  0  0  0  0
  -30.3429  -25.3709   19.9341 C   0  0  0  0  0  0  0  0  0  0  0  0
  -31.7546  -25.2276   20.1873 C   0  0  0  0  0  0  0  0  0  0  0  0
  -29.7744  -24.0699   19.4836 C   0  0  0  0  0  0  0  0  0  0  0  0
  -32.6218  -26.1563   20.6043 C   0  0  0  0  0  0  0  0  0  0  0  0
  -31.5488  -17.0582   17.4610 C   0  0  0  0  0  0  0  0  0  0  0  0
  -29.5699  -26.4505   20.0527 C   0  0  0  0  0  0  0  0  0  1  0  0
  -30.5257  -17.7414   18.0199 C   0  0  0  0  0  0  0  0  0  0  0  0
  -22.6575  -14.0576   22.1556 C   0  0  0  0  0  0  0  0  0  0  0  0
  -29.2927  -16.9492   18.2014 C   0  0  0  0  0  0  0  0  0  0  0  0
  -25.5274  -31.6873   22.8955 C   0  0  0  0  0  0  0  0  0  0  0  0
  -22.6161  -30.2737   22.6739 C   0  0  0  0  0  0  0  0  0  0  0  0
  -20.7433  -27.6624   21.5250 C   0  0  0  0  0  0  0  0  0  0  0  0
  -25.6895  -36.1301   25.4039 C   0  0  0  0  0  0  0  0  0  0  0  0
  -25.3517  -31.2831   20.4132 C   0  0  0  0  0  0  0  0  0  0  0  0
  -24.6016  -28.8845   21.9716 C   0  0  0  0  0  0  0  0  0  0  0  0
  -32.1110  -23.8016   19.8941 C   0  0  0  0  0  0  0  0  0  0  0  0
  -24.8735  -34.8445   25.5120 C   0  0  0  0  0  0  0  0  0  0  0  0
  -29.3611  -16.6286   21.8517 C   0  0  0  0  0  0  0  0  0  0  0  0
  -25.7915  -33.6264   25.4939 C   0  0  0  0  0  0  0  0  0  0  0  0
  -28.1355  -15.7513   22.0924 C   0  0  0  0  0  0  0  0  0  0  0  0
  -30.0648  -16.2806   20.5409 C   0  0  0  0  0  0  0  0  0  0  0  0
  -27.9368  -15.4346   19.5943 C   0  0  0  0  0  0  0  0  0  0  0  0
  -26.5742  -33.5449   24.1778 C   0  0  1  0  0  0  0  0  0  0  0  0
  -24.6111  -31.3884   21.7427 C   0  0  1  0  0  0  0  0  0  0  0  0
  -27.1861  -15.7991   20.8847 C   0  0  1  0  0  0  0  0  0  0  0  0
  -18.4001  -26.7642   21.5347 C   0  0  0  0  0  0  0  0  0  0  0  0
  -22.9868  -29.3445   25.5565 C   0  0  0  0  0  0  0  0  0  0  0  0
  -21.1276  -27.7073   25.1943 C   0  0  0  0  0  0  0  0  0  0  0  0
  -20.6851  -30.1553   25.0096 C   0  0  0  0  0  0  0  0  0  0  0  0
  -20.5475  -27.8183   18.5761 C   0  0  0  0  0  0  0  0  0  0  0  0
  -22.0066  -28.9942   23.1937 C   0  0  1  0  0  0  0  0  0  0  0  0
  -19.4140  -27.6214   20.7931 C   0  0  2  0  0  0  0  0  0  0  0  0
  -21.7245  -29.0501   24.7217 C   0  0  0  0  0  0  0  0  0  0  0  0
  -25.9914  -13.6531   20.6604 N   0  0  0  0  0  0  0  0  0  0  0  0
  -25.9633  -14.9249   21.0938 N   0  0  0  0  0  0  0  0  0  0  0  0
  -30.8583  -23.1754   19.4760 N   0  0  0  0  0  0  0  0  0  0  0  0
  -29.1247  -16.2757   19.4100 N   0  0  0  0  0  0  0  0  0  0  0  0
  -23.8826  -30.1644   22.0825 N   0  0  0  0  0  0  0  0  0  0  0  0
  -24.5916  -16.5193   22.1833 N   0  0  0  0  0  0  0  0  0  0  0  0
  -21.9836  -12.8356   22.0253 N   0  0  0  0  0  0  0  0  0  0  0  0
  -25.7298  -33.0359   23.1183 N   0  0  0  0  0  0  0  0  0  0  0  0
  -20.8243  -28.7438   22.3766 N   0  0  0  0  0  0  0  0  0  0  0  0
  -19.5933  -27.0591   19.4246 N   0  3  0  0  0  0  0  0  0  0  0  0
  -28.6092  -23.8598   19.1910 O   0  0  0  0  0  0  0  0  0  0  0  0
  -22.0728  -15.0264   22.6970 O   0  0  0  0  0  0  0  0  0  0  0  0
  -28.4879  -16.9282   17.2684 O   0  0  0  0  0  0  0  0  0  0  0  0
  -26.0135  -30.7627   23.5363 O   0  0  0  0  0  0  0  0  0  0  0  0
  -21.9884  -31.3301   22.7820 O   0  0  0  0  0  0  0  0  0  0  0  0
  -21.6205  -26.8174   21.3607 O   0  0  0  0  0  0  0  0  0  0  0  0
  -23.3723   -7.9090   19.8263 O   0  0  0  0  0  0  0  0  0  0  0  0
  -28.2314  -26.4463   19.7767 O   0  0  0  0  0  0  0  0  0  1  0  0
  -20.8775   -4.9812   23.7769 F   0  0  0  0  0  0  0  0  0  0  0  0
  -20.9566   -8.7313   20.8898 F   0  0  0  0  0  0  0  0  0  0  0  0
  1  2  1  0  0  0  0
  1  7  2  0  0  0  0
  2  8  2  0  0  0  0
  3 12  2  0  0  0  0
  3 19  1  0  0  0  0
  4 13  1  0  0  0  0
  4 19  2  0  0  0  0
  5 10  2  0  0  0  0
  5 20  1  0  0  0  0
  6 11  1  0  0  0  0
  6 20  2  0  0  0  0
  7 22  1  0  0  0  0
  8 24  1  0  0  0  0
  9 14  2  0  0  0  0
  9 23  1  0  0  0  0
 10 26  1  0  0  0  0
 11 26  2  0  0  0  0
 12 27  1  0  0  0  0
 13 27  2  0  0  0  0
 14 28  1  0  0  0  0
 15 16  2  0  0  0  0
 15 29  1  0  0  0  0
 16 30  1  0  0  0  0
 17 25  1  0  0  0  0
 17 28  2  0  0  0  0
 18 30  2  0  0  0  0
 18 31  1  0  0  0  0
 19 32  1  0  0  0  0
 20 40  1  0  0  0  0
 21 32  1  0  0  0  0
 21 33  2  0  0  0  0
 21 41  1  0  0  0  0
 22 24  2  0  0  0  0
 22 46  1  0  0  0  0
 23 25  2  0  0  0  0
 23 47  1  0  0  0  0
 24 56  1  0  0  0  0
 25 48  1  0  0  0  0
 26 69  1  0  0  0  0
 27 83  1  0  0  0  0
 28 84  1  0  0  0  0
 29 31  2  0  0  0  0
 29 83  1  0  0  0  0
 30 85  1  0  0  0  0
 31 86  1  0  0  0  0
 32 67  2  0  0  0  0
 33 68  1  0  0  0  0
 33 72  1  0  0  0  0
 34 35  1  0  0  0  0
 34 36  1  0  0  0  0
 34 39  2  0  0  0  0
 35 37  2  0  0  0  0
 35 49  1  0  0  0  0
 36 69  1  0  0  0  0
 36 77  2  0  0  0  0
 38 40  2  0  0  0  0
 39 84  1  0  0  0  0
 40 42  1  0  0  0  0
 41 73  1  0  0  0  0
 41 78  2  0  0  0  0
 42 70  1  0  0  0  0
 42 79  2  0  0  0  0
 43 57  1  0  0  0  0
 43 74  1  0  0  0  0
 43 80  2  0  0  0  0
 44 64  1  0  0  0  0
 44 71  1  0  0  0  0
 44 81  2  0  0  0  0
 45 65  1  0  0  0  0
 45 75  1  0  0  0  0
 45 82  2  0  0  0  0
 46 50  1  0  0  0  0
 47 57  1  0  0  0  0
 48 71  1  0  0  0  0
 49 69  1  0  0  0  0
 50 52  1  0  0  0  0
 51 53  1  0  0  0  0
 51 54  1  0  0  0  0
 52 56  1  0  0  0  0
 53 58  1  0  0  0  0
 54 70  1  0  0  0  0
 55 58  1  0  0  0  0
 55 70  1  0  0  0  0
 56 74  1  0  0  0  0
 57 71  1  0  0  0  0
 58 68  1  0  0  0  0
 59 65  1  0  0  0  0
 60 66  1  0  0  0  0
 61 66  1  0  0  0  0
 62 66  1  0  0  0  0
 63 76  1  0  0  0  0
 64 66  1  0  0  0  0
 64 75  1  0  0  0  0
 65 76  1  0  0  0  0
 67 68  1  0  0  0  0
M  CHG  1  76   1
M  ISO  4  39 101  40 100  42 100  84 101
M  END
> <Batch ID>
0080

> <Smiles>
C=C1CN(c2ccc([100C:0](=C)[100C:0](=O)N3CCCC(n4nc(-c5ccc(Oc6ccc(F)cc6F)cc5)c(C(N)=O)c4N)C3)cc2)C(=O)C1=[101CH:1][101O:1]c1ccc2c(c1)CN(C(=O)C(NC(=O)C(C)NC)C(C)(C)C)C(C(=O)NC1CCCc3ccccc31)C2

> <Shape>
0.345

> <Color>
0.084

> <Negative vol penalty>
0.000

$$$$

  -OEChem-04052300023D

 75 82  0     1  0  0  0  0  0999 V2000
  -23.8791  -31.9228   24.3410 C   0  0  0  0  0  0  0  0  0  0  0  0
  -23.9760  -30.5739   24.6670 C   0  0  0  0  0  0  0  0  0  0  0  0
  -24.9567  -13.1244   23.9282 C   0  0  0  0  0  0  0  0  0  0  0  0
  -24.2326  -15.1015   22.7433 C   0  0  0  0  0  0  0  0  0  0  0  0
  -24.1100  -32.3406   23.0310 C   0  0  0  0  0  0  0  0  0  0  0  0
  -24.3029  -29.6417   23.6828 C   0  0  0  0  0  0  0  0  0  0  0  0
  -27.7771  -23.4393   22.8014 C   0  0  0  0  0  0  0  0  0  0  0  0
  -24.6358  -13.7338   25.1411 C   0  0  0  0  0  0  0  0  0  0  0  0
  -23.9116  -15.7109   23.9563 C   0  0  0  0  0  0  0  0  0  0  0  0
  -27.5845  -22.1620   22.2768 C   0  0  0  0  0  0  0  0  0  0  0  0
  -21.3967  -15.5962   26.2108 C   0  0  0  0  0  0  0  0  0  0  0  0
  -20.1765  -16.2667   26.2946 C   0  0  0  0  0  0  0  0  0  0  0  0
  -28.0395  -23.0088   20.0642 C   0  0  0  0  0  0  0  0  0  0  0  0
  -21.3405  -18.3219   26.8025 C   0  0  0  0  0  0  0  0  0  0  0  0
  -24.7552  -13.8083   22.7293 C   0  0  0  0  0  0  0  0  0  0  0  0
  -24.2441  -12.3893   20.6719 C   0  0  0  0  0  0  0  0  0  0  0  0
  -24.4493  -31.4143   22.0324 C   0  0  0  0  0  0  0  0  0  0  0  0
  -28.0921  -24.5149   21.9586 C   0  0  0  0  0  0  0  0  0  0  0  0
  -24.5372  -30.0473   22.3579 C   0  0  0  0  0  0  0  0  0  0  0  0
  -28.2381  -24.2982   20.5810 C   0  0  0  0  0  0  0  0  0  0  0  0
  -24.1132  -15.0269   25.1552 C   0  0  0  0  0  0  0  0  0  0  0  0
  -27.7129  -21.9471   20.9076 C   0  0  0  0  0  0  0  0  0  0  0  0
  -22.5889  -16.2886   26.4230 C   0  0  0  0  0  0  0  0  0  0  0  0
  -20.1483  -17.6295   26.5905 C   0  0  0  0  0  0  0  0  0  0  0  0
  -22.5608  -17.6515   26.7188 C   0  0  0  0  0  0  0  0  0  0  0  0
  -25.0871  -13.1797   21.4760 C   0  0  0  0  0  0  0  0  0  0  0  0
  -25.0260  -12.0343   19.6000 C   0  0  0  0  0  0  0  0  0  0  0  0
  -28.2693  -18.4251   20.4131 C   0  0  0  0  0  0  0  0  0  0  0  0
  -28.3409  -19.6927   20.8312 C   0  0  0  0  0  0  0  0  0  1  0  0
  -22.8765  -12.0100   20.8757 C   0  0  0  0  0  0  0  0  0  0  0  0
  -29.2129  -17.4121   20.9596 C   0  0  0  0  0  0  0  0  0  0  0  0
  -26.6890  -27.2688   21.2165 C   0  0  0  0  0  0  0  0  0  0  0  0
  -29.4486  -27.7891   19.5928 C   0  0  0  0  0  0  0  0  0  0  0  0
  -32.1873  -26.4742   18.0380 C   0  0  0  0  0  0  0  0  0  0  0  0
  -29.7151  -14.9995   20.7434 C   0  0  0  0  0  0  0  0  0  0  0  0
  -24.6434  -31.9075   20.6204 C   0  0  0  0  0  0  0  0  0  0  0  0
  -28.3230  -25.8813   22.5435 C   0  0  0  0  0  0  0  0  0  0  0  0
  -28.5950  -25.4153   19.6360 C   0  0  0  0  0  0  0  0  0  0  0  0
  -25.3521  -30.9024   19.7161 C   0  0  0  0  0  0  0  0  0  0  0  0
  -29.1685  -11.3859   20.4326 C   0  0  0  0  0  0  0  0  0  0  0  0
  -24.7464  -29.5127   19.8848 C   0  0  0  0  0  0  0  0  0  0  0  0
  -28.2815  -11.2501   19.2015 C   0  0  0  0  0  0  0  0  0  0  0  0
  -30.0816  -12.5967   20.3130 C   0  0  0  0  0  0  0  0  0  0  0  0
  -28.3788  -13.7815   18.9279 C   0  0  0  0  0  0  0  0  0  0  0  0
  -24.9138  -29.0089   21.3235 C   0  0  1  0  0  0  0  0  0  0  0  0
  -28.1349  -27.0050   21.5290 C   0  0  1  0  0  0  0  0  0  0  0  0
  -27.4759  -12.5288   18.9266 C   0  0  2  0  0  0  0  0  0  0  0  0
  -34.2467  -27.1477   16.7720 C   0  0  0  0  0  0  0  0  0  0  0  0
  -27.7440  -28.3562   17.1265 C   0  0  0  0  0  0  0  0  0  0  0  0
  -29.8015  -28.0806   15.7269 C   0  0  0  0  0  0  0  0  0  0  0  0
  -29.6876  -29.9007   17.4290 C   0  0  0  0  0  0  0  0  0  0  0  0
  -33.9705  -25.2522   20.0594 C   0  0  0  0  0  0  0  0  0  0  0  0
  -29.9353  -27.5034   18.1927 C   0  0  1  0  0  0  0  0  0  0  0  0
  -33.6629  -26.8166   18.1367 C   0  0  2  0  0  0  0  0  0  0  0  0
  -29.2835  -28.4394   17.1361 C   0  0  0  0  0  0  0  0  0  0  0  0
  -26.3108  -13.3187   20.9591 N   0  0  0  0  0  0  0  0  0  0  0  0
  -26.2425  -12.6109   19.8188 N   0  0  0  0  0  0  0  0  0  0  0  0
  -28.8045  -26.7345   20.2552 N   0  0  0  0  0  0  0  0  0  0  0  0
  -29.3439  -13.8324   20.0411 N   0  0  0  0  0  0  0  0  0  0  0  0
  -24.7849  -11.2883   18.5010 N   0  0  0  0  0  0  0  0  0  0  0  0
  -22.2228  -12.4616   22.0303 N   0  0  0  0  0  0  0  0  0  0  0  0
  -28.9903  -16.1499   20.4102 N   0  0  0  0  0  0  0  0  0  0  0  0
  -26.2667  -28.5437   21.5419 N   0  0  0  0  0  0  0  0  0  0  0  0
  -31.3913  -27.5813   18.2428 N   0  0  0  0  0  0  0  0  0  0  0  0
  -34.4238  -25.6694   18.7076 N   0  3  0  0  0  0  0  0  0  0  0  0
  -22.2577  -11.2783   20.0662 O   0  0  0  0  0  0  0  0  0  0  0  0
  -30.0618  -17.6909   21.8000 O   0  0  0  0  0  0  0  0  0  0  0  0
  -26.0075  -26.3819   20.7159 O   0  0  0  0  0  0  0  0  0  0  0  0
  -29.6394  -28.9047   20.0835 O   0  0  0  0  0  0  0  0  0  0  0  0
  -31.7814  -25.3390   17.7992 O   0  0  0  0  0  0  0  0  0  0  0  0
  -30.6305  -15.0206   21.5723 O   0  0  0  0  0  0  0  0  0  0  0  0
  -23.7996  -15.6217   26.3387 O   0  0  0  0  0  0  0  0  0  0  0  0
  -27.5248  -20.7015   20.3929 O   0  0  0  0  0  0  0  0  0  1  0  0
  -18.9765  -18.2735   26.6694 F   0  0  0  0  0  0  0  0  0  0  0  0
  -23.7029  -18.3222   26.9224 F   0  0  0  0  0  0  0  0  0  0  0  0
  1  2  1  0  0  0  0
  1  5  2  0  0  0  0
  2  6  2  0  0  0  0
  3  8  2  0  0  0  0
  3 15  1  0  0  0  0
  4  9  1  0  0  0  0
  4 15  2  0  0  0  0
  5 17  1  0  0  0  0
  6 19  1  0  0  0  0
  7 10  2  0  0  0  0
  7 18  1  0  0  0  0
  8 21  1  0  0  0  0
  9 21  2  0  0  0  0
 10 22  1  0  0  0  0
 11 12  2  0  0  0  0
 11 23  1  0  0  0  0
 12 24  1  0  0  0  0
 13 20  1  0  0  0  0
 13 22  2  0  0  0  0
 14 24  2  0  0  0  0
 14 25  1  0  0  0  0
 15 26  1  0  0  0  0
 16 26  1  0  0  0  0
 16 27  2  0  0  0  0
 16 30  1  0  0  0  0
 17 19  2  0  0  0  0
 17 36  1  0  0  0  0
 18 20  2  0  0  0  0
 18 37  1  0  0  0  0
 19 45  1  0  0  0  0
 20 38  1  0  0  0  0
 21 72  1  0  0  0  0
 22 73  1  0  0  0  0
 23 25  2  0  0  0  0
 23 72  1  0  0  0  0
 24 74  1  0  0  0  0
 25 75  1  0  0  0  0
 26 56  2  0  0  0  0
 27 57  1  0  0  0  0
 27 60  1  0  0  0  0
 28 29  2  0  0  0  0
 28 31  1  0  0  0  0
 29 73  1  0  0  0  0
 30 61  1  0  0  0  0
 30 66  2  0  0  0  0
 31 62  1  0  0  0  0
 31 67  2  0  0  0  0
 32 46  1  0  0  0  0
 32 63  1  0  0  0  0
 32 68  2  0  0  0  0
 33 53  1  0  0  0  0
 33 58  1  0  0  0  0
 33 69  2  0  0  0  0
 34 54  1  0  0  0  0
 34 64  1  0  0  0  0
 34 70  2  0  0  0  0
 35 59  1  0  0  0  0
 35 62  1  0  0  0  0
 35 71  2  0  0  0  0
 36 39  1  0  0  0  0
 37 46  1  0  0  0  0
 38 58  1  0  0  0  0
 39 41  1  0  0  0  0
 40 42  1  0  0  0  0
 40 43  1  0  0  0  0
 41 45  1  0  0  0  0
 42 47  1  0  0  0  0
 43 59  1  0  0  0  0
 44 47  1  0  0  0  0
 44 59  1  0  0  0  0
 45 63  1  0  0  0  0
 46 58  1  0  0  0  0
 47 57  1  0  0  0  0
 48 54  1  0  0  0  0
 49 55  1  0  0  0  0
 50 55  1  0  0  0  0
 51 55  1  0  0  0  0
 52 65  1  0  0  0  0
 53 55  1  0  0  0  0
 53 64  1  0  0  0  0
 54 65  1  0  0  0  0
 56 57  1  0  0  0  0
M  CHG  1  65   1
M  ISO  4  29 101  35 100  62 100  73 101
M  END
> <Batch ID>
0080

> <Smiles>
CNC(C)C(=O)NC(C(=O)N1Cc2cc([101O:1][101CH:1]=CC(=O)[100NH:0][100C:0](=O)N3CCCC(n4nc(-c5ccc(Oc6ccc(F)cc6F)cc5)c(C(N)=O)c4N)C3)ccc2CC1C(=O)NC1CCCc2ccccc21)C(C)(C)C

> <Shape>
0.221

> <Color>
0.075

> <Negative vol penalty>
0.000

$$$$

  -OEChem-04052300023D

 84 93  0     1  0  0  0  0  0999 V2000
  -31.9667  -36.5933   17.3638 C   0  0  0  0  0  0  0  0  0  0  0  0
  -31.7918  -35.2248   17.1853 C   0  0  0  0  0  0  0  0  0  0  0  0
  -24.4348   -8.2687   21.3129 C   0  0  0  0  0  0  0  0  0  0  0  0
  -24.0937  -10.0301   22.9310 C   0  0  0  0  0  0  0  0  0  0  0  0
  -31.6957  -37.1739   18.6021 C   0  0  0  0  0  0  0  0  0  0  0  0
  -31.3468  -34.4358   18.2455 C   0  0  0  0  0  0  0  0  0  0  0  0
  -27.7032  -29.5253   17.9038 C   0  0  0  0  0  0  0  0  0  0  0  0
  -26.5013  -19.7385   18.5856 C   0  0  0  0  0  0  0  0  0  0  0  0
  -28.8679  -19.9819   19.0064 C   0  0  0  0  0  0  0  0  0  0  0  0
  -26.6477  -18.3516   18.5641 C   0  0  0  0  0  0  0  0  0  0  0  0
  -29.0143  -18.5949   18.9849 C   0  0  0  0  0  0  0  0  0  0  0  0
  -24.0291   -7.3241   22.2555 C   0  0  0  0  0  0  0  0  0  0  0  0
  -23.6879   -9.0854   23.8737 C   0  0  0  0  0  0  0  0  0  0  0  0
  -27.9708  -28.1570   17.9015 C   0  0  0  0  0  0  0  0  0  0  0  0
  -21.1195   -6.1867   23.5491 C   0  0  0  0  0  0  0  0  0  0  0  0
  -20.2261   -5.1991   23.1341 C   0  0  0  0  0  0  0  0  0  0  0  0
  -27.5515  -28.0771   20.2757 C   0  0  0  0  0  0  0  0  0  0  0  0
  -21.8415   -3.4967   23.7081 C   0  0  0  0  0  0  0  0  0  0  0  0
  -24.4672   -9.6217   21.6506 C   0  0  0  0  0  0  0  0  0  0  0  0
  -24.0727  -11.2857   19.7577 C   0  0  0  0  0  0  0  0  0  0  0  0
  -31.2379  -36.3932   19.6752 C   0  0  0  0  0  0  0  0  0  0  0  0
  -27.3677  -30.1829   19.0961 C   0  0  0  0  0  0  0  0  0  0  0  0
  -31.0707  -35.0063   19.4997 C   0  0  0  0  0  0  0  0  0  0  0  0
  -27.2775  -29.4533   20.2901 C   0  0  0  0  0  0  0  0  0  0  0  0
  -27.6114  -20.5537   18.8067 C   0  0  0  0  0  0  0  0  0  0  0  0
  -27.9042  -17.7797   18.7638 C   0  0  0  0  0  0  0  0  0  0  0  0
  -23.6556   -7.7324   23.5359 C   0  0  0  0  0  0  0  0  0  0  0  0
  -27.8978  -27.4333   19.0881 C   0  0  0  0  0  0  0  0  0  0  0  0
  -22.3739   -5.8293   24.0435 C   0  0  0  0  0  0  0  0  0  0  0  0
  -20.5871   -3.8541   23.2136 C   0  0  0  0  0  0  0  0  0  0  0  0
  -22.7349   -4.4843   24.1231 C   0  0  0  0  0  0  0  0  0  0  0  0
  -24.8868  -10.5980   20.6775 C   0  0  0  0  0  0  0  0  0  0  0  0
  -24.9426  -12.0918   19.0649 C   0  0  0  0  0  0  0  0  0  0  0  0
  -27.2587  -23.9004   18.8578 C   0  0  0  0  0  0  0  0  0  0  0  0
  -26.3914  -22.7428   18.6676 C   0  0  0  0  0  0  0  0  0  0  0  0
  -28.3490  -22.9437   19.0157 C   0  0  0  0  0  0  0  0  0  0  0  0
  -27.1178  -25.2382   18.8782 C   0  0  0  0  0  0  0  0  0  1  0  0
  -22.6567  -11.2033   19.5482 C   0  0  0  0  0  0  0  0  0  0  0  0
  -28.6682  -32.5232   20.8094 C   0  0  0  0  0  0  0  0  0  0  0  0
  -25.9432  -32.2387   22.5460 C   0  0  0  0  0  0  0  0  0  0  0  0
  -23.3201  -30.2857   23.5217 C   0  0  0  0  0  0  0  0  0  0  0  0
  -29.2290  -15.6428   18.9223 C   0  0  0  0  0  0  0  0  0  0  0  0
  -31.0033  -37.0581   21.0085 C   0  0  0  0  0  0  0  0  0  0  0  0
  -27.0558  -31.6542   19.0770 C   0  0  0  0  0  0  0  0  0  0  0  0
  -26.9018  -30.1083   21.5932 C   0  0  0  0  0  0  0  0  0  0  0  0
  -30.1771  -36.2122   21.9739 C   0  0  0  0  0  0  0  0  0  0  0  0
  -30.0031  -12.1680   18.9775 C   0  0  0  0  0  0  0  0  0  0  0  0
  -30.6907  -34.7761   21.9994 C   0  0  0  0  0  0  0  0  0  0  0  0
  -28.6741  -11.5063   19.3490 C   0  0  0  0  0  0  0  0  0  0  0  0
  -30.2000  -13.4948   19.7085 C   0  0  0  0  0  0  0  0  0  0  0  0
  -27.7650  -13.7891   19.9402 C   0  0  0  0  0  0  0  0  0  0  0  0
  -30.5659  -34.1211   20.6185 C   0  0  1  0  0  0  0  0  0  0  0  0
  -27.2263  -32.3188   20.4396 C   0  0  1  0  0  0  0  0  0  0  0  0
  -27.4924  -12.4812   19.1794 C   0  0  2  0  0  0  0  0  0  0  0  0
  -21.2754  -30.3164   24.9763 C   0  0  0  0  0  0  0  0  0  0  0  0
  -27.7012  -31.9222   25.0198 C   0  0  0  0  0  0  0  0  0  0  0  0
  -25.7058  -31.0255   26.2374 C   0  0  0  0  0  0  0  0  0  0  0  0
  -25.6805  -33.3577   25.3527 C   0  0  0  0  0  0  0  0  0  0  0  0
  -21.5282  -29.8244   21.2120 C   0  0  0  0  0  0  0  0  0  0  0  0
  -25.5167  -31.4181   23.7392 C   0  0  1  0  0  0  0  0  0  0  0  0
  -21.8280  -30.5589   23.5804 C   0  0  2  0  0  0  0  0  0  0  0  0
  -26.1600  -31.9186   25.0632 C   0  0  0  0  0  0  0  0  0  0  0  0
  -26.1750  -10.9374   20.5803 N   0  0  0  0  0  0  0  0  0  0  0  0
  -26.1769  -11.8472   19.5912 N   0  0  0  0  0  0  0  0  0  0  0  0
  -27.4674  -21.9207   18.8276 N   0  0  0  0  0  0  0  0  0  0  0  0
  -26.6122  -31.5501   21.5242 N   0  0  0  0  0  0  0  0  0  0  0  0
  -29.0435  -14.3686   19.4991 N   0  0  0  0  0  0  0  0  0  0  0  0
  -24.7646  -12.9788   18.0630 N   0  0  0  0  0  0  0  0  0  0  0  0
  -21.9132  -10.3241   20.3473 N   0  0  0  0  0  0  0  0  0  0  0  0
  -28.0533  -16.3708   18.7420 N   0  0  0  0  0  0  0  0  0  0  0  0
  -29.1971  -33.7219   20.3703 N   0  0  0  0  0  0  0  0  0  0  0  0
  -24.0578  -31.4296   23.7421 N   0  0  0  0  0  0  0  0  0  0  0  0
  -21.1015  -29.6734   22.6269 N   0  3  0  0  0  0  0  0  0  0  0  0
  -25.2091  -22.5718   18.4556 O   0  0  0  0  0  0  0  0  0  0  0  0
  -29.5415  -23.0166   19.2260 O   0  0  0  0  0  0  0  0  0  0  0  0
  -22.0706  -11.8769   18.6672 O   0  0  0  0  0  0  0  0  0  0  0  0
  -29.2569  -31.6581   21.4472 O   0  0  0  0  0  0  0  0  0  0  0  0
  -25.6858  -33.4448   22.5184 O   0  0  0  0  0  0  0  0  0  0  0  0
  -23.7848  -29.1685   23.3061 O   0  0  0  0  0  0  0  0  0  0  0  0
  -30.3451  -16.0468   18.5861 O   0  0  0  0  0  0  0  0  0  0  0  0
  -23.2594   -6.8109   24.4559 O   0  0  0  0  0  0  0  0  0  0  0  0
  -28.1592  -26.0978   19.0887 O   0  0  0  0  0  0  0  0  0  1  0  0
  -19.7286   -2.9058   22.8165 F   0  0  0  0  0  0  0  0  0  0  0  0
  -23.9381   -4.1348   24.5983 F   0  0  0  0  0  0  0  0  0  0  0  0
  1  2  1  0  0  0  0
  1  5  2  0  0  0  0
  2  6  2  0  0  0  0
  3 12  2  0  0  0  0
  3 19  1  0  0  0  0
  4 13  1  0  0  0  0
  4 19  2  0  0  0  0
  5 21  1  0  0  0  0
  6 23  1  0  0  0  0
  7 14  2  0  0  0  0
  7 22  1  0  0  0  0
  8 10  2  0  0  0  0
  8 25  1  0  0  0  0
  9 11  1  0  0  0  0
  9 25  2  0  0  0  0
 10 26  1  0  0  0  0
 11 26  2  0  0  0  0
 12 27  1  0  0  0  0
 13 27  2  0  0  0  0
 14 28  1  0  0  0  0
 15 16  2  0  0  0  0
 15 29  1  0  0  0  0
 16 30  1  0  0  0  0
 17 24  1  0  0  0  0
 17 28  2  0  0  0  0
 18 30  2  0  0  0  0
 18 31  1  0  0  0  0
 19 32  1  0  0  0  0
 20 32  1  0  0  0  0
 20 33  2  0  0  0  0
 20 38  1  0  0  0  0
 21 23  2  0  0  0  0
 21 43  1  0  0  0  0
 22 24  2  0  0  0  0
 22 44  1  0  0  0  0
 23 52  1  0  0  0  0
 24 45  1  0  0  0  0
 25 65  1  0  0  0  0
 26 70  1  0  0  0  0
 27 81  1  0  0  0  0
 28 82  1  0  0  0  0
 29 31  2  0  0  0  0
 29 81  1  0  0  0  0
 30 83  1  0  0  0  0
 31 84  1  0  0  0  0
 32 63  2  0  0  0  0
 33 64  1  0  0  0  0
 33 68  1  0  0  0  0
 34 35  1  0  0  0  0
 34 36  1  0  0  0  0
 34 37  2  0  0  0  0
 35 65  1  0  0  0  0
 35 74  2  0  0  0  0
 36 65  1  0  0  0  0
 36 75  2  0  0  0  0
 37 82  1  0  0  0  0
 38 69  1  0  0  0  0
 38 76  2  0  0  0  0
 39 53  1  0  0  0  0
 39 71  1  0  0  0  0
 39 77  2  0  0  0  0
 40 60  1  0  0  0  0
 40 66  1  0  0  0  0
 40 78  2  0  0  0  0
 41 61  1  0  0  0  0
 41 72  1  0  0  0  0
 41 79  2  0  0  0  0
 42 67  1  0  0  0  0
 42 70  1  0  0  0  0
 42 80  2  0  0  0  0
 43 46  1  0  0  0  0
 44 53  1  0  0  0  0
 45 66  1  0  0  0  0
 46 48  1  0  0  0  0
 47 49  1  0  0  0  0
 47 50  1  0  0  0  0
 48 52  1  0  0  0  0
 49 54  1  0  0  0  0
 50 67  1  0  0  0  0
 51 54  1  0  0  0  0
 51 67  1  0  0  0  0
 52 71  1  0  0  0  0
 53 66  1  0  0  0  0
 54 64  1  0  0  0  0
 55 61  1  0  0  0  0
 56 62  1  0  0  0  0
 57 62  1  0  0  0  0
 58 62  1  0  0  0  0
 59 73  1  0  0  0  0
 60 62  1  0  0  0  0
 60 72  1  0  0  0  0
 61 73  1  0  0  0  0
 63 64  1  0  0  0  0
M  CHG  1  73   1
M  ISO  4  37 101  42 100  70 100  82 101
M  END
> <Batch ID>
0080

> <Smiles>
CNC(C)C(=O)NC(C(=O)N1Cc2cc([101O:1][101CH:1]=C3C(=O)N(c4ccc([100NH:0][100C:0](=O)N5CCCC(n6nc(-c7ccc(Oc8ccc(F)cc8F)cc7)c(C(N)=O)c6N)C5)cc4)C3=O)ccc2CC1C(=O)NC1CCCc2ccccc21)C(C)(C)C

> <Shape>
0.262

> <Color>
0.109

> <Negative vol penalty>
0.000

$$$$

  -OEChem-04052300023D

 88 97  0     1  0  0  0  0  0999 V2000
  -28.5039  -36.5793   24.4041 C   0  0  0  0  0  0  0  0  0  0  0  0
  -28.4853  -35.2288   24.7376 C   0  0  0  0  0  0  0  0  0  0  0  0
  -23.1446  -10.2681   19.9082 C   0  0  0  0  0  0  0  0  0  0  0  0
  -24.6059   -9.7347   21.7568 C   0  0  0  0  0  0  0  0  0  0  0  0
  -27.3530  -37.1893   23.9069 C   0  0  0  0  0  0  0  0  0  0  0  0
  -27.3153  -34.4878   24.5751 C   0  0  0  0  0  0  0  0  0  0  0  0
  -27.1720  -28.6660   20.3351 C   0  0  0  0  0  0  0  0  0  0  0  0
  -22.0566   -9.7691   20.6243 C   0  0  0  0  0  0  0  0  0  0  0  0
  -23.5179   -9.2357   22.4729 C   0  0  0  0  0  0  0  0  0  0  0  0
  -27.1180  -27.4206   19.7089 C   0  0  0  0  0  0  0  0  0  0  0  0
  -21.6636   -6.4094   22.5388 C   0  0  0  0  0  0  0  0  0  0  0  0
  -21.8259   -5.1914   23.1990 C   0  0  0  0  0  0  0  0  0  0  0  0
  -24.7556  -27.2635   20.2013 C   0  0  0  0  0  0  0  0  0  0  0  0
  -27.9048  -19.2794   18.7647 C   0  0  0  0  0  0  0  0  0  0  0  0
  -25.8273  -18.3124   17.9994 C   0  0  0  0  0  0  0  0  0  0  0  0
  -21.3473   -6.2703   25.3071 C   0  0  0  0  0  0  0  0  0  0  0  0
  -24.4193  -10.2508   20.4744 C   0  0  0  0  0  0  0  0  0  0  0  0
  -26.0236  -10.3113   18.4919 C   0  0  0  0  0  0  0  0  0  0  0  0
  -26.1710  -36.4531   23.7291 C   0  0  0  0  0  0  0  0  0  0  0  0
  -26.0133  -29.2225   20.8839 C   0  0  0  0  0  0  0  0  0  0  0  0
  -26.1471  -35.0888   24.0763 C   0  0  0  0  0  0  0  0  0  0  0  0
  -24.8010  -28.5163   20.8188 C   0  0  0  0  0  0  0  0  0  0  0  0
  -26.3285  -20.6280   17.5264 C   0  0  0  0  0  0  0  0  0  0  0  0
  -27.0452  -18.1852   18.6673 C   0  0  0  0  0  0  0  0  0  0  0  0
  -22.2432   -9.2529   21.9067 C   0  0  0  0  0  0  0  0  0  0  0  0
  -25.9129  -26.7210   19.6424 C   0  0  0  0  0  0  0  0  0  0  0  0
  -21.3433   -7.5579   23.2628 C   0  0  0  0  0  0  0  0  0  0  0  0
  -21.6677   -5.1219   24.5831 C   0  0  0  0  0  0  0  0  0  0  0  0
  -27.5464  -20.5008   18.1943 C   0  0  0  0  0  0  0  0  0  0  0  0
  -25.4689  -19.5338   17.4289 C   0  0  0  0  0  0  0  0  0  0  0  0
  -21.1851   -7.4883   24.6469 C   0  0  0  0  0  0  0  0  0  0  0  0
  -25.5437  -10.7656   19.7350 C   0  0  0  0  0  0  0  0  0  0  0  0
  -27.0991  -11.1218   18.2221 C   0  0  0  0  0  0  0  0  0  0  0  0
  -25.5160  -24.3378   16.9770 C   0  0  0  0  0  0  0  0  0  0  0  0
  -25.2191  -24.3120   15.5543 C   0  0  0  0  0  0  0  0  0  0  0  0
  -25.8279  -23.0572   17.7201 C   0  0  0  0  0  0  0  0  0  0  0  0
  -24.3782  -25.1573   14.9367 C   0  0  0  0  0  0  0  0  0  0  0  0
  -25.5875  -25.4769   17.6881 C   0  0  0  0  0  0  0  0  0  1  0  0
  -25.5404   -9.2514   17.6560 C   0  0  0  0  0  0  0  0  0  0  0  0
  -24.4482  -32.1152   22.6890 C   0  0  0  0  0  0  0  0  0  0  0  0
  -22.4509  -31.2202   20.5396 C   0  0  0  0  0  0  0  0  0  0  0  0
  -20.7170  -30.1987   17.7851 C   0  0  0  0  0  0  0  0  0  0  0  0
  -28.5794  -16.6487   19.9447 C   0  0  0  0  0  0  0  0  0  0  0  0
  -24.9387  -37.1671   23.2329 C   0  0  0  0  0  0  0  0  0  0  0  0
  -26.0375  -30.5335   21.6219 C   0  0  0  0  0  0  0  0  0  0  0  0
  -23.5872  -29.1383   21.4533 C   0  0  0  0  0  0  0  0  0  0  0  0
  -25.8965  -23.2017   14.8172 C   0  0  0  0  0  0  0  0  0  0  0  0
  -23.8457  -36.2233   22.7380 C   0  0  0  0  0  0  0  0  0  0  0  0
  -30.4985  -13.6865   20.4132 C   0  0  0  0  0  0  0  0  0  0  0  0
  -23.6317  -35.0863   23.7321 C   0  0  0  0  0  0  0  0  0  0  0  0
  -29.4908  -12.5599   20.1733 C   0  0  0  0  0  0  0  0  0  0  0  0
  -25.5830  -21.8862   15.5090 C   0  0  0  0  0  0  0  0  0  0  0  0
  -29.8595  -14.8767   21.1264 C   0  0  0  0  0  0  0  0  0  0  0  0
  -27.6365  -14.2754   20.2511 C   0  0  0  0  0  0  0  0  0  0  0  0
  -24.9042  -34.2456   23.8909 C   0  0  1  0  0  0  0  0  0  0  0  0
  -24.7520  -31.3579   21.4298 C   0  0  1  0  0  0  0  0  0  0  0  0
  -28.2181  -13.0809   19.4773 C   0  0  2  0  0  0  0  0  0  0  0  0
  -18.6016  -30.6460   16.5113 C   0  0  0  0  0  0  0  0  0  0  0  0
  -20.8567  -29.7312   22.6715 C   0  0  0  0  0  0  0  0  0  0  0  0
  -19.0515  -29.3771   20.9733 C   0  0  0  0  0  0  0  0  0  0  0  0
  -19.6750  -31.6916   21.6640 C   0  0  0  0  0  0  0  0  0  0  0  0
  -22.2098  -30.9621   15.3462 C   0  0  0  0  0  0  0  0  0  0  0  0
  -21.2550  -30.3667   20.2010 C   0  0  1  0  0  0  0  0  0  0  0  0
  -20.0791  -30.9787   16.6496 C   0  0  2  0  0  0  0  0  0  0  0  0
  -20.2361  -30.2827   21.3724 C   0  0  0  0  0  0  0  0  0  0  0  0
  -26.2560  -11.7855   20.2212 N   0  0  0  0  0  0  0  0  0  0  0  0
  -27.1945  -11.9787   19.2788 N   0  0  0  0  0  0  0  0  0  0  0  0
  -25.9570  -21.8938   16.9336 N   0  0  0  0  0  0  0  0  0  0  0  0
  -23.5381  -30.5753   21.1418 N   0  0  0  0  0  0  0  0  0  0  0  0
  -28.6622  -15.3185   20.4080 N   0  0  0  0  0  0  0  0  0  0  0  0
  -27.9631  -11.1779   17.1863 N   0  0  0  0  0  0  0  0  0  0  0  0
  -24.4250   -8.5186   18.0839 N   0  0  0  0  0  0  0  0  0  0  0  0
  -27.4087  -16.9445   19.2472 N   0  0  0  0  0  0  0  0  0  0  0  0
  -25.0626  -33.3507   22.7646 N   0  0  0  0  0  0  0  0  0  0  0  0
  -20.7017  -30.9109   18.9657 N   0  0  0  0  0  0  0  0  0  0  0  0
  -20.7549  -30.6617   15.3597 N   0  3  0  0  0  0  0  0  0  0  0  0
  -25.9208  -23.0864   18.9488 O   0  0  0  0  0  0  0  0  0  0  0  0
  -26.0916   -8.9521   16.5697 O   0  0  0  0  0  0  0  0  0  0  0  0
  -23.7095  -31.6171   23.5303 O   0  0  0  0  0  0  0  0  0  0  0  0
  -22.4224  -32.4272   20.2834 O   0  0  0  0  0  0  0  0  0  0  0  0
  -21.1790  -29.0691   17.6401 O   0  0  0  0  0  0  0  0  0  0  0  0
  -29.4926  -17.4577   20.1278 O   0  0  0  0  0  0  0  0  0  0  0  0
  -21.1817   -8.7661   22.6058 O   0  0  0  0  0  0  0  0  0  0  0  0
  -25.8663  -25.5076   19.0257 O   0  0  0  0  0  0  0  0  0  1  0  0
  -21.8220   -3.9519   25.2167 F   0  0  0  0  0  0  0  0  0  0  0  0
  -28.3804  -21.5459   18.2947 F   0  0  0  0  0  0  0  0  0  0  0  0
  -24.2955  -19.6444   16.7898 F   0  0  0  0  0  0  0  0  0  0  0  0
  -20.8761   -8.5880   25.3477 F   0  0  0  0  0  0  0  0  0  0  0  0
  1  2  1  0  0  0  0
  1  5  2  0  0  0  0
  2  6  2  0  0  0  0
  3  8  2  0  0  0  0
  3 17  1  0  0  0  0
  4  9  1  0  0  0  0
  4 17  2  0  0  0  0
  5 19  1  0  0  0  0
  6 21  1  0  0  0  0
  7 10  2  0  0  0  0
  7 20  1  0  0  0  0
  8 25  1  0  0  0  0
  9 25  2  0  0  0  0
 10 26  1  0  0  0  0
 11 12  2  0  0  0  0
 11 27  1  0  0  0  0
 12 28  1  0  0  0  0
 13 22  1  0  0  0  0
 13 26  2  0  0  0  0
 14 24  1  0  0  0  0
 14 29  2  0  0  0  0
 15 24  2  0  0  0  0
 15 30  1  0  0  0  0
 16 28  2  0  0  0  0
 16 31  1  0  0  0  0
 17 32  1  0  0  0  0
 18 32  1  0  0  0  0
 18 33  2  0  0  0  0
 18 39  1  0  0  0  0
 19 21  2  0  0  0  0
 19 44  1  0  0  0  0
 20 22  2  0  0  0  0
 20 45  1  0  0  0  0
 21 55  1  0  0  0  0
 22 46  1  0  0  0  0
 23 29  1  0  0  0  0
 23 30  2  0  0  0  0
 23 68  1  0  0  0  0
 24 73  1  0  0  0  0
 25 83  1  0  0  0  0
 26 84  1  0  0  0  0
 27 31  2  0  0  0  0
 27 83  1  0  0  0  0
 28 85  1  0  0  0  0
 29 86  1  0  0  0  0
 30 87  1  0  0  0  0
 31 88  1  0  0  0  0
 32 66  2  0  0  0  0
 33 67  1  0  0  0  0
 33 71  1  0  0  0  0
 34 35  1  0  0  0  0
 34 36  1  0  0  0  0
 34 38  2  0  0  0  0
 35 37  2  0  0  0  0
 35 47  1  0  0  0  0
 36 68  1  0  0  0  0
 36 77  2  0  0  0  0
 38 84  1  0  0  0  0
 39 72  1  0  0  0  0
 39 78  2  0  0  0  0
 40 56  1  0  0  0  0
 40 74  1  0  0  0  0
 40 79  2  0  0  0  0
 41 63  1  0  0  0  0
 41 69  1  0  0  0  0
 41 80  2  0  0  0  0
 42 64  1  0  0  0  0
 42 75  1  0  0  0  0
 42 81  2  0  0  0  0
 43 70  1  0  0  0  0
 43 73  1  0  0  0  0
 43 82  2  0  0  0  0
 44 48  1  0  0  0  0
 45 56  1  0  0  0  0
 46 69  1  0  0  0  0
 47 52  1  0  0  0  0
 48 50  1  0  0  0  0
 49 51  1  0  0  0  0
 49 53  1  0  0  0  0
 50 55  1  0  0  0  0
 51 57  1  0  0  0  0
 52 68  1  0  0  0  0
 53 70  1  0  0  0  0
 54 57  1  0  0  0  0
 54 70  1  0  0  0  0
 55 74  1  0  0  0  0
 56 69  1  0  0  0  0
 57 67  1  0  0  0  0
 58 64  1  0  0  0  0
 59 65  1  0  0  0  0
 60 65  1  0  0  0  0
 61 65  1  0  0  0  0
 62 76  1  0  0  0  0
 63 65  1  0  0  0  0
 63 75  1  0  0  0  0
 64 76  1  0  0  0  0
 66 67  1  0  0  0  0
M  CHG  1  76   1
M  ISO  4  38 101  43 100  73 100  84 101
M  END
> <Batch ID>
0080

> <Smiles>
C=C1CCN(c2c(F)cc([100NH:0][100C:0](=O)N3CCCC(n4nc(-c5ccc(Oc6ccc(F)cc6F)cc5)c(C(N)=O)c4N)C3)cc2F)C(=O)C1=[101CH:1][101O:1]c1ccc2c(c1)CN(C(=O)C(NC(=O)C(C)NC)C(C)(C)C)C(C(=O)NC1CCCc3ccccc31)C2

> <Shape>
0.289

> <Color>
0.096

> <Negative vol penalty>
0.000

$$$$

  -OEChem-04052300023D

 85 94  0     1  0  0  0  0  0999 V2000
  -18.8815  -30.5524   15.2549 C   0  0  0  0  0  0  0  0  0  0  0  0
  -19.9190  -29.6766   15.5579 C   0  0  0  0  0  0  0  0  0  0  0  0
  -23.2546  -10.7887   21.1899 C   0  0  0  0  0  0  0  0  0  0  0  0
  -24.8258   -9.0147   21.6603 C   0  0  0  0  0  0  0  0  0  0  0  0
  -19.0135  -31.9116   15.5363 C   0  0  0  0  0  0  0  0  0  0  0  0
  -21.0897  -30.1596   16.1416 C   0  0  0  0  0  0  0  0  0  0  0  0
  -24.6165  -27.2859   20.2415 C   0  0  0  0  0  0  0  0  0  0  0  0
  -28.6445  -20.4717   20.0664 C   0  0  0  0  0  0  0  0  0  0  0  0
  -29.1811  -20.5157   17.7111 C   0  0  0  0  0  0  0  0  0  0  0  0
  -28.7153  -19.0787   20.0565 C   0  0  0  0  0  0  0  0  0  0  0  0
  -29.2520  -19.1226   17.7013 C   0  0  0  0  0  0  0  0  0  0  0  0
  -22.2078   -9.8672   21.2110 C   0  0  0  0  0  0  0  0  0  0  0  0
  -23.7789   -8.0931   21.6814 C   0  0  0  0  0  0  0  0  0  0  0  0
  -25.7984  -26.5573   20.1152 C   0  0  0  0  0  0  0  0  0  0  0  0
  -21.3574   -7.1256   23.8311 C   0  0  0  0  0  0  0  0  0  0  0  0
  -21.3373   -6.1937   24.8687 C   0  0  0  0  0  0  0  0  0  0  0  0
  -27.0676  -28.5303   20.6769 C   0  0  0  0  0  0  0  0  0  0  0  0
  -21.4581   -4.3973   23.2576 C   0  0  0  0  0  0  0  0  0  0  0  0
  -24.5637  -10.3624   21.4145 C   0  0  0  0  0  0  0  0  0  0  0  0
  -26.1523  -12.0505   22.4795 C   0  0  0  0  0  0  0  0  0  0  0  0
  -20.1825  -32.4101   16.1326 C   0  0  0  0  0  0  0  0  0  0  0  0
  -24.6518  -28.6472   20.5763 C   0  0  0  0  0  0  0  0  0  0  0  0
  -21.2380  -31.5269   16.4300 C   0  0  0  0  0  0  0  0  0  0  0  0
  -25.8846  -29.2733   20.8094 C   0  0  0  0  0  0  0  0  0  0  0  0
  -28.8774  -21.1902   18.8937 C   0  0  0  0  0  0  0  0  0  0  0  0
  -29.0191  -18.4041   18.8740 C   0  0  0  0  0  0  0  0  0  0  0  0
  -22.4699   -8.5194   21.4568 C   0  0  0  0  0  0  0  0  0  0  0  0
  -27.0243  -27.1802   20.3301 C   0  0  0  0  0  0  0  0  0  0  0  0
  -21.4278   -6.6935   22.5067 C   0  0  0  0  0  0  0  0  0  0  0  0
  -21.3876   -4.8295   24.5819 C   0  0  0  0  0  0  0  0  0  0  0  0
  -21.4782   -5.3293   22.2199 C   0  0  0  0  0  0  0  0  0  0  0  0
  -25.6456  -11.3138   21.3922 C   0  0  0  0  0  0  0  0  0  0  0  0
  -27.1661  -12.8044   21.9408 C   0  0  0  0  0  0  0  0  0  0  0  0
  -28.6061  -24.5545   18.9137 C   0  0  0  0  0  0  0  0  0  0  0  0
  -28.5384  -23.4610   19.8839 C   0  0  0  0  0  0  0  0  0  0  0  0
  -25.7431  -12.0531   23.8537 C   0  0  0  0  0  0  0  0  0  0  0  0
  -28.4563  -25.8975   18.9978 C   0  0  0  0  0  0  0  0  0  1  0  0
  -23.7369  -31.3338   19.1450 C   0  0  0  0  0  0  0  0  0  0  0  0
  -24.5722  -32.6696   21.9805 C   0  0  0  0  0  0  0  0  0  0  0  0
  -26.4231  -32.4753   24.8411 C   0  0  0  0  0  0  0  0  0  0  0  0
  -28.7745  -16.2203   17.7052 C   0  0  0  0  0  0  0  0  0  0  0  0
  -20.2979  -33.8942   16.3746 C   0  0  0  0  0  0  0  0  0  0  0  0
  -23.3667  -29.4125   20.7349 C   0  0  0  0  0  0  0  0  0  0  0  0
  -25.9759  -30.7275   21.1909 C   0  0  0  0  0  0  0  0  0  0  0  0
  -28.9024  -23.5406   17.8326 C   0  0  0  0  0  0  0  0  0  0  0  0
  -21.4219  -34.2688   17.3372 C   0  0  0  0  0  0  0  0  0  0  0  0
  -29.4016  -12.5961   17.4183 C   0  0  0  0  0  0  0  0  0  0  0  0
  -22.7043  -33.5265   16.9752 C   0  0  0  0  0  0  0  0  0  0  0  0
  -28.4690  -12.0046   18.4740 C   0  0  0  0  0  0  0  0  0  0  0  0
  -28.8534  -13.8990   16.8438 C   0  0  0  0  0  0  0  0  0  0  0  0
  -27.6008  -14.3324   18.9351 C   0  0  0  0  0  0  0  0  0  0  0  0
  -22.5135  -32.0090   17.0863 C   0  0  1  0  0  0  0  0  0  0  0  0
  -23.5452  -30.9193   20.5765 C   0  0  1  0  0  0  0  0  0  0  0  0
  -28.1463  -13.0414   19.5639 C   0  0  1  0  0  0  0  0  0  0  0  0
  -28.5742  -26.8354   17.8386 C   0  0  0  0  0  0  0  0  0  0  0  0
  -26.9242  -33.7355   26.9526 C   0  0  0  0  0  0  0  0  0  0  0  0
  -26.3481  -34.5904   20.4098 C   0  0  0  0  0  0  0  0  0  0  0  0
  -27.5108  -35.1578   22.5532 C   0  0  0  0  0  0  0  0  0  0  0  0
  -25.0784  -35.6439   22.2892 C   0  0  0  0  0  0  0  0  0  0  0  0
  -29.7356  -16.2858   19.9947 C   0  0  0  0  0  0  0  0  0  0  0  0
  -25.3845  -30.2814   26.5344 C   0  0  0  0  0  0  0  0  0  0  0  0
  -25.8418  -33.2486   22.5567 C   0  0  1  0  0  0  0  0  0  0  0  0
  -26.0492  -32.6775   26.2985 C   0  0  2  0  0  0  0  0  0  0  0  0
  -26.1935  -34.6332   21.9432 C   0  0  0  0  0  0  0  0  0  0  0  0
  -26.2848  -11.5760   20.2491 N   0  0  0  0  0  0  0  0  0  0  0  0
  -27.2034  -12.4861   20.6151 N   0  0  0  0  0  0  0  0  0  0  0  0
  -28.8072  -22.5640   18.9031 N   0  0  0  0  0  0  0  0  0  0  0  0
  -24.6918  -31.4347   21.3274 N   0  0  0  0  0  0  0  0  0  0  0  0
  -28.5122  -14.8497   17.9027 N   0  0  0  0  0  0  0  0  0  0  0  0
  -28.0204  -13.7020   22.4765 N   0  0  0  0  0  0  0  0  0  0  0  0
  -24.6846  -11.2184   24.2372 N   0  0  0  0  0  0  0  0  0  0  0  0
  -22.5584  -31.5941   18.4720 N   0  0  0  0  0  0  0  0  0  0  0  0
  -25.6627  -33.2646   24.0045 N   0  0  0  0  0  0  0  0  0  0  0  0
  -29.0925  -16.9622   18.8634 N   0  0  0  0  0  0  0  0  0  0  0  0
  -26.2071  -31.4034   27.0553 N   0  3  0  0  0  0  0  0  0  0  0  0
  -28.3186  -23.3802   21.0745 O   0  0  0  0  0  0  0  0  0  0  0  0
  -26.2889  -12.7865   24.7127 O   0  0  0  0  0  0  0  0  0  0  0  0
  -24.8701  -31.4130   18.6855 O   0  0  0  0  0  0  0  0  0  0  0  0
  -23.5122  -33.2867   22.1114 O   0  0  0  0  0  0  0  0  0  0  0  0
  -27.3043  -31.6979   24.4812 O   0  0  0  0  0  0  0  0  0  0  0  0
  -28.7552  -16.7327   16.5798 O   0  0  0  0  0  0  0  0  0  0  0  0
  -21.4485   -7.6200   21.4777 O   0  0  0  0  0  0  0  0  0  0  0  0
  -28.1795  -26.4715   20.2068 O   0  0  0  0  0  0  0  0  0  1  0  0
  -21.3699   -3.9347   25.5785 F   0  0  0  0  0  0  0  0  0  0  0  0
  -21.5471   -4.9082   20.9496 F   0  0  0  0  0  0  0  0  0  0  0  0
  1  2  1  0  0  0  0
  1  5  2  0  0  0  0
  2  6  2  0  0  0  0
  3 12  2  0  0  0  0
  3 19  1  0  0  0  0
  4 13  1  0  0  0  0
  4 19  2  0  0  0  0
  5 21  1  0  0  0  0
  6 23  1  0  0  0  0
  7 14  2  0  0  0  0
  7 22  1  0  0  0  0
  8 10  2  0  0  0  0
  8 25  1  0  0  0  0
  9 11  1  0  0  0  0
  9 25  2  0  0  0  0
 10 26  1  0  0  0  0
 11 26  2  0  0  0  0
 12 27  1  0  0  0  0
 13 27  2  0  0  0  0
 14 28  1  0  0  0  0
 15 16  2  0  0  0  0
 15 29  1  0  0  0  0
 16 30  1  0  0  0  0
 17 24  1  0  0  0  0
 17 28  2  0  0  0  0
 18 30  2  0  0  0  0
 18 31  1  0  0  0  0
 19 32  1  0  0  0  0
 20 32  1  0  0  0  0
 20 33  2  0  0  0  0
 20 36  1  0  0  0  0
 21 23  2  0  0  0  0
 21 42  1  0  0  0  0
 22 24  2  0  0  0  0
 22 43  1  0  0  0  0
 23 52  1  0  0  0  0
 24 44  1  0  0  0  0
 25 67  1  0  0  0  0
 26 74  1  0  0  0  0
 27 82  1  0  0  0  0
 28 83  1  0  0  0  0
 29 31  2  0  0  0  0
 29 82  1  0  0  0  0
 30 84  1  0  0  0  0
 31 85  1  0  0  0  0
 32 65  2  0  0  0  0
 33 66  1  0  0  0  0
 33 70  1  0  0  0  0
 34 35  1  0  0  0  0
 34 37  2  0  0  0  0
 34 45  1  0  0  0  0
 35 67  1  0  0  0  0
 35 76  2  0  0  0  0
 36 71  1  0  0  0  0
 36 77  2  0  0  0  0
 37 55  1  0  0  0  0
 37 83  1  0  0  0  0
 38 53  1  0  0  0  0
 38 72  1  0  0  0  0
 38 78  2  0  0  0  0
 39 62  1  0  0  0  0
 39 68  1  0  0  0  0
 39 79  2  0  0  0  0
 40 63  1  0  0  0  0
 40 73  1  0  0  0  0
 40 80  2  0  0  0  0
 41 69  1  0  0  0  0
 41 74  1  0  0  0  0
 41 81  2  0  0  0  0
 42 46  1  0  0  0  0
 43 53  1  0  0  0  0
 44 68  1  0  0  0  0
 45 67  1  0  0  0  0
 46 48  1  0  0  0  0
 47 49  1  0  0  0  0
 47 50  1  0  0  0  0
 48 52  1  0  0  0  0
 49 54  1  0  0  0  0
 50 69  1  0  0  0  0
 51 54  1  0  0  0  0
 51 69  1  0  0  0  0
 52 72  1  0  0  0  0
 53 68  1  0  0  0  0
 54 66  1  0  0  0  0
 56 63  1  0  0  0  0
 57 64  1  0  0  0  0
 58 64  1  0  0  0  0
 59 64  1  0  0  0  0
 60 74  1  0  0  0  0
 61 75  1  0  0  0  0
 62 64  1  0  0  0  0
 62 73  1  0  0  0  0
 63 75  1  0  0  0  0
 65 66  1  0  0  0  0
M  CHG  1  75   1
M  ISO  4  37 101  41 100  74 100  83 101
M  END
> <Batch ID>
0080

> <Smiles>
CNC(C)C(=O)NC(C(=O)N1Cc2cc([101O:1][101C:1](C)=C3CN(c4ccc([100N:0](C)[100C:0](=O)N5CCCC(n6nc(-c7ccc(Oc8ccc(F)cc8F)cc7)c(C(N)=O)c6N)C5)cc4)C3=O)ccc2CC1C(=O)NC1CCCc2ccccc21)C(C)(C)C

> <Shape>
0.332

> <Color>
0.129

> <Negative vol penalty>
0.000

$$$$

  -OEChem-04052300023D

 87 95  0     1  0  0  0  0  0999 V2000
  -28.7167  -37.0722   19.8390 C   0  0  0  0  0  0  0  0  0  0  0  0
  -29.0459  -35.7240   19.7421 C   0  0  0  0  0  0  0  0  0  0  0  0
  -23.3948  -10.7140   22.3204 C   0  0  0  0  0  0  0  0  0  0  0  0
  -22.7468  -12.7883   21.2648 C   0  0  0  0  0  0  0  0  0  0  0  0
  -28.3326  -19.3181   18.1122 C   0  0  0  0  0  0  0  0  0  0  0  0
  -30.5260  -19.2941   19.1249 C   0  0  0  0  0  0  0  0  0  0  0  0
  -27.7564  -37.4897   20.7595 C   0  0  0  0  0  0  0  0  0  0  0  0
  -28.4156  -34.7925   20.5665 C   0  0  0  0  0  0  0  0  0  0  0  0
  -26.9212  -29.0279   19.1379 C   0  0  0  0  0  0  0  0  0  0  0  0
  -28.2663  -17.9292   18.2228 C   0  0  0  0  0  0  0  0  0  0  0  0
  -30.4597  -17.9052   19.2357 C   0  0  0  0  0  0  0  0  0  0  0  0
  -22.3673  -10.8666   23.2512 C   0  0  0  0  0  0  0  0  0  0  0  0
  -21.7192  -12.9409   22.1956 C   0  0  0  0  0  0  0  0  0  0  0  0
  -27.5425  -27.8066   19.3951 C   0  0  0  0  0  0  0  0  0  0  0  0
  -18.6133  -11.7078   22.6991 C   0  0  0  0  0  0  0  0  0  0  0  0
  -17.3599  -12.0903   22.2214 C   0  0  0  0  0  0  0  0  0  0  0  0
  -26.1300  -27.5016   21.3267 C   0  0  0  0  0  0  0  0  0  0  0  0
  -17.4433  -14.0771   23.5936 C   0  0  0  0  0  0  0  0  0  0  0  0
  -23.5847  -11.6748   21.3272 C   0  0  0  0  0  0  0  0  0  0  0  0
  -29.4625  -20.0005   18.5632 C   0  0  0  0  0  0  0  0  0  0  0  0
  -24.5765  -10.8632   19.1215 C   0  0  0  0  0  0  0  0  0  0  0  0
  -27.1070  -36.5617   21.5889 C   0  0  0  0  0  0  0  0  0  0  0  0
  -25.9053  -29.5011   19.9808 C   0  0  0  0  0  0  0  0  0  0  0  0
  -27.4466  -35.1982   21.4999 C   0  0  0  0  0  0  0  0  0  0  0  0
  -25.4956  -28.7280   21.0765 C   0  0  0  0  0  0  0  0  0  0  0  0
  -29.3298  -17.2228   18.7846 C   0  0  0  0  0  0  0  0  0  0  0  0
  -21.5294  -11.9801   23.1888 C   0  0  0  0  0  0  0  0  0  0  0  0
  -27.1489  -27.0446   20.4913 C   0  0  0  0  0  0  0  0  0  0  0  0
  -19.2818  -12.5099   23.6240 C   0  0  0  0  0  0  0  0  0  0  0  0
  -16.7749  -13.2749   22.6686 C   0  0  0  0  0  0  0  0  0  0  0  0
  -18.6967  -13.6946   24.0713 C   0  0  0  0  0  0  0  0  0  0  0  0
  -24.6463  -11.5180   20.3658 C   0  0  0  0  0  0  0  0  0  0  0  0
  -25.8388  -10.9906   18.5952 C   0  0  0  0  0  0  0  0  0  0  0  0
  -29.5332  -21.4798   18.4451 C   0  0  0  0  0  0  0  0  0  0  0  0
  -23.4697  -10.1992   18.4973 C   0  0  0  0  0  0  0  0  0  0  0  0
  -25.5435  -32.0499   21.8454 C   0  0  0  0  0  0  0  0  0  0  0  0
  -31.8653  -23.9849   19.8852 C   0  0  0  0  0  0  0  0  0  0  0  0
  -29.3631  -24.1065   20.2675 C   0  0  0  0  0  0  0  0  0  0  0  0
  -22.5397  -30.8785   22.2018 C   0  0  0  0  0  0  0  0  0  0  0  0
  -20.4501  -28.1822   22.0977 C   0  0  0  0  0  0  0  0  0  0  0  0
  -30.2277  -14.9589   19.4287 C   0  0  0  0  0  0  0  0  0  0  0  0
  -26.1097  -37.0664   22.6015 C   0  0  0  0  0  0  0  0  0  0  0  0
  -25.2267  -30.8080   19.6743 C   0  0  0  0  0  0  0  0  0  0  0  0
  -24.3960  -29.1818   22.0004 C   0  0  0  0  0  0  0  0  0  0  0  0
  -25.2181  -35.9693   23.1774 C   0  0  0  0  0  0  0  0  0  0  0  0
  -30.4199  -11.4373   19.9174 C   0  0  0  0  0  0  0  0  0  0  0  0
  -26.0534  -34.7568   23.5759 C   0  0  0  0  0  0  0  0  0  0  0  0
  -28.9548  -10.9979   19.9685 C   0  0  0  0  0  0  0  0  0  0  0  0
  -30.6281  -12.7958   20.5844 C   0  0  0  0  0  0  0  0  0  0  0  0
  -28.2882  -13.4292   20.1456 C   0  0  0  0  0  0  0  0  0  0  0  0
  -26.7670  -34.1545   22.3596 C   0  0  1  0  0  0  0  0  0  0  0  0
  -24.5571  -31.4340   20.8939 C   0  0  1  0  0  0  0  0  0  0  0  0
  -28.0179  -12.0963   19.4288 C   0  0  2  0  0  0  0  0  0  0  0  0
  -32.4876  -25.2373   19.3218 C   0  0  0  0  0  0  0  0  0  0  0  0
  -18.0566  -27.5292   22.4748 C   0  0  0  0  0  0  0  0  0  0  0  0
  -22.9831  -31.0042   25.2180 C   0  0  0  0  0  0  0  0  0  0  0  0
  -21.0069  -29.4934   25.5013 C   0  0  0  0  0  0  0  0  0  0  0  0
  -20.7158  -31.7438   24.4652 C   0  0  0  0  0  0  0  0  0  0  0  0
  -20.1278  -27.2987   19.2916 C   0  0  0  0  0  0  0  0  0  0  0  0
  -28.7850  -25.4433   19.8470 C   0  0  0  0  0  0  0  0  0  1  0  0
  -30.4867  -23.5593   19.4055 C   0  0  2  0  0  0  0  0  0  0  0  0
  -21.8734  -29.9169   23.1559 C   0  0  1  0  0  0  0  0  0  0  0  0
  -19.0883  -27.9874   21.4558 C   0  0  2  0  0  0  0  0  0  0  0  0
  -21.6669  -30.5317   24.5690 C   0  0  0  0  0  0  0  0  0  0  0  0
  -25.8572  -12.0237   20.6151 N   0  0  0  0  0  0  0  0  0  0  0  0
  -26.5599  -11.6866   19.5203 N   0  0  0  0  0  0  0  0  0  0  0  0
  -23.7675  -30.4696   21.6624 N   0  0  0  0  0  0  0  0  0  0  0  0
  -29.7098  -13.7870   20.0197 N   0  0  0  0  0  0  0  0  0  0  0  0
  -26.3911  -10.5741   17.4359 N   0  0  0  0  0  0  0  0  0  0  0  0
  -22.2442  -10.1610   19.1762 N   0  0  0  0  0  0  0  0  0  0  0  0
  -29.2613  -15.8119   18.8967 N   0  0  0  0  0  0  0  0  0  0  0  0
  -30.3360  -22.1313   19.3751 N   0  0  0  0  0  0  0  0  0  0  0  0
  -25.8430  -33.3702   21.5687 N   0  0  0  0  0  0  0  0  0  0  0  0
  -20.6405  -29.4854   22.5060 N   0  0  0  0  0  0  0  0  0  0  0  0
  -19.1669  -26.9651   20.3743 N   0  3  0  0  0  0  0  0  0  0  0  0
  -28.8818  -22.0437   17.5698 O   0  0  0  0  0  0  0  0  0  0  0  0
  -23.5690   -9.6416   17.3780 O   0  0  0  0  0  0  0  0  0  0  0  0
  -25.9980  -31.3775   22.7635 O   0  0  0  0  0  0  0  0  0  0  0  0
  -32.4516  -23.3379   20.7567 O   0  0  0  0  0  0  0  0  0  0  0  0
  -28.9662  -23.5143   21.2714 O   0  0  0  0  0  0  0  0  0  0  0  0
  -21.9874  -31.9498   21.9391 O   0  0  0  0  0  0  0  0  0  0  0  0
  -21.2621  -27.2688   22.2276 O   0  0  0  0  0  0  0  0  0  0  0  0
  -31.4409  -15.1758   19.3727 O   0  0  0  0  0  0  0  0  0  0  0  0
  -20.5265  -12.1292   24.0967 O   0  0  0  0  0  0  0  0  0  0  0  0
  -27.7542  -25.8525   20.7450 O   0  0  0  0  0  0  0  0  0  1  0  0
  -15.5719  -13.6429   22.2087 F   0  0  0  0  0  0  0  0  0  0  0  0
  -19.3346  -14.4699   24.9589 F   0  0  0  0  0  0  0  0  0  0  0  0
  1  2  1  0  0  0  0
  1  7  2  0  0  0  0
  2  8  2  0  0  0  0
  3 12  2  0  0  0  0
  3 19  1  0  0  0  0
  4 13  1  0  0  0  0
  4 19  2  0  0  0  0
  5 10  2  0  0  0  0
  5 20  1  0  0  0  0
  6 11  1  0  0  0  0
  6 20  2  0  0  0  0
  7 22  1  0  0  0  0
  8 24  1  0  0  0  0
  9 14  2  0  0  0  0
  9 23  1  0  0  0  0
 10 26  1  0  0  0  0
 11 26  2  0  0  0  0
 12 27  1  0  0  0  0
 13 27  2  0  0  0  0
 14 28  1  0  0  0  0
 15 16  2  0  0  0  0
 15 29  1  0  0  0  0
 16 30  1  0  0  0  0
 17 25  1  0  0  0  0
 17 28  2  0  0  0  0
 18 30  2  0  0  0  0
 18 31  1  0  0  0  0
 19 32  1  0  0  0  0
 20 34  1  0  0  0  0
 21 32  1  0  0  0  0
 21 33  2  0  0  0  0
 21 35  1  0  0  0  0
 22 24  2  0  0  0  0
 22 42  1  0  0  0  0
 23 25  2  0  0  0  0
 23 43  1  0  0  0  0
 24 51  1  0  0  0  0
 25 44  1  0  0  0  0
 26 71  1  0  0  0  0
 27 84  1  0  0  0  0
 28 85  1  0  0  0  0
 29 31  2  0  0  0  0
 29 84  1  0  0  0  0
 30 86  1  0  0  0  0
 31 87  1  0  0  0  0
 32 65  2  0  0  0  0
 33 66  1  0  0  0  0
 33 69  1  0  0  0  0
 34 72  1  0  0  0  0
 34 76  2  0  0  0  0
 35 70  1  0  0  0  0
 35 77  2  0  0  0  0
 36 52  1  0  0  0  0
 36 73  1  0  0  0  0
 36 78  2  0  0  0  0
 37 54  1  0  0  0  0
 37 61  1  0  0  0  0
 37 79  2  0  0  0  0
 38 60  1  0  0  0  0
 38 61  1  0  0  0  0
 38 80  2  0  0  0  0
 39 62  1  0  0  0  0
 39 67  1  0  0  0  0
 39 81  2  0  0  0  0
 40 63  1  0  0  0  0
 40 74  1  0  0  0  0
 40 82  2  0  0  0  0
 41 68  1  0  0  0  0
 41 71  1  0  0  0  0
 41 83  2  0  0  0  0
 42 45  1  0  0  0  0
 43 52  1  0  0  0  0
 44 67  1  0  0  0  0
 45 47  1  0  0  0  0
 46 48  1  0  0  0  0
 46 49  1  0  0  0  0
 47 51  1  0  0  0  0
 48 53  1  0  0  0  0
 49 68  1  0  0  0  0
 50 53  1  0  0  0  0
 50 68  1  0  0  0  0
 51 73  1  0  0  0  0
 52 67  1  0  0  0  0
 53 66  1  0  0  0  0
 55 63  1  0  0  0  0
 56 64  1  0  0  0  0
 57 64  1  0  0  0  0
 58 64  1  0  0  0  0
 59 75  1  0  0  0  0
 60 85  1  0  0  0  0
 61 72  1  0  0  0  0
 62 64  1  0  0  0  0
 62 74  1  0  0  0  0
 63 75  1  0  0  0  0
 65 66  1  0  0  0  0
M  CHG  1  75   1
M  ISO  4  41 100  60 101  71 100  85 101
M  END
> <Batch ID>
0080

> <Smiles>
CNC(C)C(=O)NC(C(=O)N1Cc2cc([101O:1][101CH2:1]C(=O)C(NC(=O)c3ccc([100NH:0][100C:0](=O)N4CCCC(n5nc(-c6ccc(Oc7ccc(F)cc7F)cc6)c(C(N)=O)c5N)C4)cc3)C(C)=O)ccc2CC1C(=O)NC1CCCc2ccccc21)C(C)(C)C

> <Shape>
0.288

> <Color>
0.085

> <Negative vol penalty>
0.000

$$$$

  -OEChem-04052300023D

 86 94  0     1  0  0  0  0  0999 V2000
  -20.5341   -8.7590   24.3412 C   0  0  0  0  0  0  0  0  0  0  0  0
  -21.6620   -9.4707   23.9452 C   0  0  0  0  0  0  0  0  0  0  0  0
  -20.5317  -26.8604   23.2995 C   0  0  0  0  0  0  0  0  0  0  0  0
  -19.5096  -27.5732   21.2296 C   0  0  0  0  0  0  0  0  0  0  0  0
  -29.9806  -22.2695   19.7046 C   0  0  0  0  0  0  0  0  0  0  0  0
  -19.5039   -8.5251   23.4313 C   0  0  0  0  0  0  0  0  0  0  0  0
  -21.7608   -9.9479   22.6388 C   0  0  0  0  0  0  0  0  0  0  0  0
  -23.4224  -14.7274   22.4368 C   0  0  0  0  0  0  0  0  0  0  0  0
  -29.7521  -20.9302   20.0199 C   0  0  0  0  0  0  0  0  0  0  0  0
  -19.4067  -27.2902   24.0031 C   0  0  0  0  0  0  0  0  0  0  0  0
  -18.3844  -28.0029   21.9333 C   0  0  0  0  0  0  0  0  0  0  0  0
  -24.7906  -14.9336   22.6079 C   0  0  0  0  0  0  0  0  0  0  0  0
  -17.4892  -30.6658   23.8143 C   0  0  0  0  0  0  0  0  0  0  0  0
  -16.9585  -31.9138   23.4882 C   0  0  0  0  0  0  0  0  0  0  0  0
  -28.3830  -22.9385   21.3891 C   0  0  0  0  0  0  0  0  0  0  0  0
  -25.0535  -15.1316   20.2182 C   0  0  0  0  0  0  0  0  0  0  0  0
  -14.8627  -30.8678   22.8962 C   0  0  0  0  0  0  0  0  0  0  0  0
  -20.5833  -27.0020   21.9127 C   0  0  0  0  0  0  0  0  0  0  0  0
  -29.2961  -23.2738   20.3893 C   0  0  0  0  0  0  0  0  0  0  0  0
  -21.9684  -25.2823   20.6354 C   0  0  0  0  0  0  0  0  0  0  0  0
  -19.5858   -9.0080   22.1158 C   0  0  0  0  0  0  0  0  0  0  0  0
  -22.8602  -14.7109   21.1523 C   0  0  0  0  0  0  0  0  0  0  0  0
  -20.7313   -9.7191   21.7101 C   0  0  0  0  0  0  0  0  0  0  0  0
  -23.6775  -14.9276   20.0336 C   0  0  0  0  0  0  0  0  0  0  0  0
  -28.8391  -20.5949   21.0197 C   0  0  0  0  0  0  0  0  0  0  0  0
  -28.1545  -21.5991   21.7043 C   0  0  0  0  0  0  0  0  0  0  0  0
  -18.3330  -27.8614   23.3200 C   0  0  0  0  0  0  0  0  0  0  0  0
  -25.6068  -15.1329   21.4984 C   0  0  0  0  0  0  0  0  0  0  0  0
  -16.7067  -29.5188   23.6813 C   0  0  0  0  0  0  0  0  0  0  0  0
  -15.6452  -32.0149   23.0291 C   0  0  0  0  0  0  0  0  0  0  0  0
  -15.3934  -29.6198   23.2223 C   0  0  0  0  0  0  0  0  0  0  0  0
  -21.7454  -26.5589   21.1854 C   0  0  0  0  0  0  0  0  0  0  0  0
  -23.2089  -25.3714   20.0526 C   0  0  0  0  0  0  0  0  0  0  0  0
  -27.4777  -16.5063   21.2080 C   0  0  0  0  0  0  0  0  0  1  0  0
  -29.5400  -24.7001   20.0533 C   0  0  0  0  0  0  0  0  0  0  0  0
  -21.1292  -24.1199   20.6501 C   0  0  0  0  0  0  0  0  0  0  0  0
  -28.7755  -16.8240   21.3091 C   0  0  0  0  0  0  0  0  0  0  0  0
  -29.2448  -18.1304   20.7445 C   0  0  0  0  0  0  0  0  0  0  0  0
  -21.3153  -12.5493   19.4075 C   0  0  0  0  0  0  0  0  0  0  0  0
  -20.9449  -15.0377   17.3598 C   0  0  0  0  0  0  0  0  0  0  0  0
  -22.0680  -18.0590   16.2387 C   0  0  0  0  0  0  0  0  0  0  0  0
  -28.5185  -26.9534   20.1083 C   0  0  0  0  0  0  0  0  0  0  0  0
  -18.4680   -8.6895   21.1546 C   0  0  0  0  0  0  0  0  0  0  0  0
  -21.3783  -14.5138   20.9863 C   0  0  0  0  0  0  0  0  0  0  0  0
  -23.1199  -14.9393   18.6345 C   0  0  0  0  0  0  0  0  0  0  0  0
  -18.4834   -9.5519   19.8951 C   0  0  0  0  0  0  0  0  0  0  0  0
  -26.1486  -29.3972   19.1553 C   0  0  0  0  0  0  0  0  0  0  0  0
  -19.8925   -9.6253   19.3156 C   0  0  0  0  0  0  0  0  0  0  0  0
  -24.8071  -28.7706   19.5450 C   0  0  0  0  0  0  0  0  0  0  0  0
  -27.2416  -29.0773   20.1740 C   0  0  0  0  0  0  0  0  0  0  0  0
  -26.0678  -27.0302   20.8738 C   0  0  0  0  0  0  0  0  0  0  0  0
  -20.8643  -10.2743   20.3086 C   0  0  1  0  0  0  0  0  0  0  0  0
  -20.9948  -14.0045   19.6003 C   0  0  1  0  0  0  0  0  0  0  0  0
  -24.9515  -27.2647   19.8433 C   0  0  1  0  0  0  0  0  0  0  0  0
  -29.8303  -15.9394   21.8975 C   0  0  0  0  0  0  0  0  0  0  0  0
  -22.0826  -20.1950   14.9215 C   0  0  0  0  0  0  0  0  0  0  0  0
  -22.1405  -13.2633   15.1846 C   0  0  0  0  0  0  0  0  0  0  0  0
  -22.5074  -15.3204   13.8055 C   0  0  0  0  0  0  0  0  0  0  0  0
  -20.1926  -14.6479   14.4477 C   0  0  0  0  0  0  0  0  0  0  0  0
  -20.4865  -19.4767   18.2998 C   0  0  0  0  0  0  0  0  0  0  0  0
  -21.7395  -15.6003   16.2062 C   0  0  1  0  0  0  0  0  0  0  0  0
  -21.3419  -19.3618   15.9559 C   0  0  2  0  0  0  0  0  0  0  0  0
  -21.6561  -14.7059   14.9371 C   0  0  0  0  0  0  0  0  0  0  0  0
  -22.7628  -27.3974   20.9712 N   0  0  0  0  0  0  0  0  0  0  0  0
  -23.6370  -26.6462   20.2803 N   0  0  0  0  0  0  0  0  0  0  0  0
  -21.6660  -14.7358   18.5237 N   0  0  0  0  0  0  0  0  0  0  0  0
  -27.3207  -27.6320   20.3932 N   0  0  0  0  0  0  0  0  0  0  0  0
  -27.2260  -21.2829   22.7213 N   0  0  0  0  0  0  0  0  0  0  0  0
  -23.9643  -24.4829   19.3727 N   0  0  0  0  0  0  0  0  0  0  0  0
  -19.8863  -24.2012   21.2927 N   0  0  0  0  0  0  0  0  0  0  0  0
  -28.6245  -19.2283   21.3234 N   0  0  0  0  0  0  0  0  0  0  0  0
  -28.4793  -25.5692   20.3102 N   0  0  0  0  0  0  0  0  0  0  0  0
  -20.6954  -11.7116   20.3150 N   0  0  0  0  0  0  0  0  0  0  0  0
  -21.2618  -16.9645   16.0082 N   0  0  0  0  0  0  0  0  0  0  0  0
  -21.2156  -20.1660   17.2042 N   0  3  0  0  0  0  0  0  0  0  0  0
  -30.6396  -25.0327   19.6195 O   0  0  0  0  0  0  0  0  0  0  0  0
  -21.4784  -23.0362   20.1235 O   0  0  0  0  0  0  0  0  0  0  0  0
  -30.1332  -18.1290   19.8981 O   0  0  0  0  0  0  0  0  0  0  0  0
  -22.0680  -12.2112   18.5014 O   0  0  0  0  0  0  0  0  0  0  0  0
  -19.7279  -14.8789   17.2355 O   0  0  0  0  0  0  0  0  0  0  0  0
  -23.2350  -18.0165   16.6220 O   0  0  0  0  0  0  0  0  0  0  0  0
  -29.5243  -27.5245   19.6753 O   0  0  0  0  0  0  0  0  0  0  0  0
  -17.2349  -28.2806   24.0062 O   0  0  0  0  0  0  0  0  0  0  0  0
  -26.9427  -15.3337   21.6625 O   0  0  0  0  0  0  0  0  0  1  0  0
  -15.1352  -33.2136   22.7175 F   0  0  0  0  0  0  0  0  0  0  0  0
  -14.6365  -28.5215   23.0936 F   0  0  0  0  0  0  0  0  0  0  0  0
  1  2  1  0  0  0  0
  1  6  2  0  0  0  0
  2  7  2  0  0  0  0
  3 10  2  0  0  0  0
  3 18  1  0  0  0  0
  4 11  1  0  0  0  0
  4 18  2  0  0  0  0
  5  9  2  0  0  0  0
  5 19  1  0  0  0  0
  6 21  1  0  0  0  0
  7 23  1  0  0  0  0
  8 12  2  0  0  0  0
  8 22  1  0  0  0  0
  9 25  1  0  0  0  0
 10 27  1  0  0  0  0
 11 27  2  0  0  0  0
 12 28  1  0  0  0  0
 13 14  2  0  0  0  0
 13 29  1  0  0  0  0
 14 30  1  0  0  0  0
 15 19  2  0  0  0  0
 15 26  1  0  0  0  0
 16 24  1  0  0  0  0
 16 28  2  0  0  0  0
 17 30  2  0  0  0  0
 17 31  1  0  0  0  0
 18 32  1  0  0  0  0
 19 35  1  0  0  0  0
 20 32  1  0  0  0  0
 20 33  2  0  0  0  0
 20 36  1  0  0  0  0
 21 23  2  0  0  0  0
 21 43  1  0  0  0  0
 22 24  2  0  0  0  0
 22 44  1  0  0  0  0
 23 52  1  0  0  0  0
 24 45  1  0  0  0  0
 25 26  2  0  0  0  0
 25 71  1  0  0  0  0
 26 68  1  0  0  0  0
 27 83  1  0  0  0  0
 28 84  1  0  0  0  0
 29 31  2  0  0  0  0
 29 83  1  0  0  0  0
 30 85  1  0  0  0  0
 31 86  1  0  0  0  0
 32 64  2  0  0  0  0
 33 65  1  0  0  0  0
 33 69  1  0  0  0  0
 34 37  2  0  0  0  0
 34 84  1  0  0  0  0
 35 72  1  0  0  0  0
 35 76  2  0  0  0  0
 36 70  1  0  0  0  0
 36 77  2  0  0  0  0
 37 38  1  0  0  0  0
 37 55  1  0  0  0  0
 38 71  1  0  0  0  0
 38 78  2  0  0  0  0
 39 53  1  0  0  0  0
 39 73  1  0  0  0  0
 39 79  2  0  0  0  0
 40 61  1  0  0  0  0
 40 66  1  0  0  0  0
 40 80  2  0  0  0  0
 41 62  1  0  0  0  0
 41 74  1  0  0  0  0
 41 81  2  0  0  0  0
 42 67  1  0  0  0  0
 42 72  1  0  0  0  0
 42 82  2  0  0  0  0
 43 46  1  0  0  0  0
 44 53  1  0  0  0  0
 45 66  1  0  0  0  0
 46 48  1  0  0  0  0
 47 49  1  0  0  0  0
 47 50  1  0  0  0  0
 48 52  1  0  0  0  0
 49 54  1  0  0  0  0
 50 67  1  0  0  0  0
 51 54  1  0  0  0  0
 51 67  1  0  0  0  0
 52 73  1  0  0  0  0
 53 66  1  0  0  0  0
 54 65  1  0  0  0  0
 56 62  1  0  0  0  0
 57 63  1  0  0  0  0
 58 63  1  0  0  0  0
 59 63  1  0  0  0  0
 60 75  1  0  0  0  0
 61 63  1  0  0  0  0
 61 74  1  0  0  0  0
 62 75  1  0  0  0  0
 64 65  1  0  0  0  0
M  CHG  1  75   1
M  ISO  4  34 101  42 100  72 100  84 101
M  END
> <Batch ID>
0080

> <Smiles>
CNC(C)C(=O)NC(C(=O)N1Cc2cc([101O:1][101CH:1]=C(C)C(=O)Nc3ccc(C(=O)[100NH:0][100C:0](=O)N4CCCC(n5nc(-c6ccc(Oc7ccc(F)cc7F)cc6)c(C(N)=O)c5N)C4)cc3N)ccc2CC1C(=O)NC1CCCc2ccccc21)C(C)(C)C

> <Shape>
0.211

> <Color>
0.067

> <Negative vol penalty>
0.000

$$$$

  -OEChem-04052300023D

 88 97  0     1  0  0  0  0  0999 V2000
  -25.7786  -34.8583   29.1685 C   0  0  0  0  0  0  0  0  0  0  0  0
  -26.5637  -33.8293   28.6585 C   0  0  0  0  0  0  0  0  0  0  0  0
  -23.1842   -9.7544   20.2646 C   0  0  0  0  0  0  0  0  0  0  0  0
  -23.8072  -10.1455   22.5658 C   0  0  0  0  0  0  0  0  0  0  0  0
  -24.6415  -35.2743   28.4771 C   0  0  0  0  0  0  0  0  0  0  0  0
  -26.2116  -33.2147   27.4574 C   0  0  0  0  0  0  0  0  0  0  0  0
  -30.0173  -31.0247   23.1882 C   0  0  0  0  0  0  0  0  0  0  0  0
  -29.9323  -19.5216   22.4367 C   0  0  0  0  0  0  0  0  0  0  0  0
  -32.0741  -19.0198   21.4378 C   0  0  0  0  0  0  0  0  0  0  0  0
  -29.4987  -18.2255   22.1582 C   0  0  0  0  0  0  0  0  0  0  0  0
  -31.6405  -17.7236   21.1594 C   0  0  0  0  0  0  0  0  0  0  0  0
  -22.4610   -8.6263   20.6520 C   0  0  0  0  0  0  0  0  0  0  0  0
  -23.0840   -9.0175   22.9534 C   0  0  0  0  0  0  0  0  0  0  0  0
  -30.4785  -29.7379   22.9139 C   0  0  0  0  0  0  0  0  0  0  0  0
  -19.4571   -7.9522   22.0502 C   0  0  0  0  0  0  0  0  0  0  0  0
  -18.1829   -7.7816   21.5089 C   0  0  0  0  0  0  0  0  0  0  0  0
  -28.7531  -29.4815   21.2475 C   0  0  0  0  0  0  0  0  0  0  0  0
  -18.8763   -5.6799   20.5397 C   0  0  0  0  0  0  0  0  0  0  0  0
  -23.8573  -10.5139   21.2215 C   0  0  0  0  0  0  0  0  0  0  0  0
  -24.1314  -13.0012   20.7254 C   0  0  0  0  0  0  0  0  0  0  0  0
  -24.2806  -34.6710   27.2619 C   0  0  0  0  0  0  0  0  0  0  0  0
  -28.9120  -31.5464   22.5008 C   0  0  0  0  0  0  0  0  0  0  0  0
  -25.0678  -33.6221   26.7498 C   0  0  0  0  0  0  0  0  0  0  0  0
  -28.2815  -30.7761   21.5132 C   0  0  0  0  0  0  0  0  0  0  0  0
  -31.2200  -19.9188   22.0764 C   0  0  0  0  0  0  0  0  0  0  0  0
  -30.3528  -17.3264   21.5196 C   0  0  0  0  0  0  0  0  0  0  0  0
  -22.4109   -8.2579   21.9964 C   0  0  0  0  0  0  0  0  0  0  0  0
  -29.8446  -28.9650   21.9454 C   0  0  0  0  0  0  0  0  0  0  0  0
  -20.4409   -6.9868   21.8362 C   0  0  0  0  0  0  0  0  0  0  0  0
  -17.8925   -6.6454   20.7537 C   0  0  0  0  0  0  0  0  0  0  0  0
  -20.1504   -5.8506   21.0809 C   0  0  0  0  0  0  0  0  0  0  0  0
  -24.6050  -11.6790   20.8217 C   0  0  0  0  0  0  0  0  0  0  0  0
  -25.2206  -13.7265   20.3081 C   0  0  0  0  0  0  0  0  0  0  0  0
  -32.9482  -23.1231   22.5124 C   0  0  0  0  0  0  0  0  0  0  0  0
  -30.8804  -22.2234   22.9990 C   0  0  0  0  0  0  0  0  0  0  0  0
  -33.9633  -23.9880   22.4171 C   0  0  0  0  0  0  0  0  0  0  0  0
  -22.8239  -13.5268   20.9896 C   0  0  0  0  0  0  0  0  0  0  0  0
  -26.0160  -32.5500   23.3432 C   0  0  0  0  0  0  0  0  0  0  0  0
  -30.6962  -25.5003   22.5867 C   0  0  0  0  0  0  0  0  0  0  0  0
  -25.8353  -33.4180   20.2229 C   0  0  0  0  0  0  0  0  0  0  0  0
  -26.9248  -32.9619   17.0211 C   0  0  0  0  0  0  0  0  0  0  0  0
  -30.6340  -14.9943   20.6093 C   0  0  0  0  0  0  0  0  0  0  0  0
  -23.0164  -35.1227   26.5745 C   0  0  0  0  0  0  0  0  0  0  0  0
  -28.4435  -32.9462   22.7897 C   0  0  0  0  0  0  0  0  0  0  0  0
  -27.1036  -31.2974   20.7328 C   0  0  0  0  0  0  0  0  0  0  0  0
  -32.9789  -21.7084   22.0158 C   0  0  0  0  0  0  0  0  0  0  0  0
  -22.9205  -34.6729   25.1189 C   0  0  0  0  0  0  0  0  0  0  0  0
  -29.7322  -12.2020   18.5926 C   0  0  0  0  0  0  0  0  0  0  0  0
  -23.2869  -33.1977   24.9908 C   0  0  0  0  0  0  0  0  0  0  0  0
  -28.2790  -11.9258   18.9848 C   0  0  0  0  0  0  0  0  0  0  0  0
  -30.5679  -12.6490   19.7908 C   0  0  0  0  0  0  0  0  0  0  0  0
  -28.5625  -13.5054   20.9372 C   0  0  0  0  0  0  0  0  0  0  0  0
  -24.7324  -32.9475   25.4373 C   0  0  1  0  0  0  0  0  0  0  0  0
  -26.9902  -33.1841   22.3911 C   0  0  1  0  0  0  0  0  0  0  0  0
  -27.6662  -13.1147   19.7507 C   0  0  2  0  0  0  0  0  0  0  0  0
  -26.5646  -33.7924   14.6806 C   0  0  0  0  0  0  0  0  0  0  0  0
  -23.2384  -31.8245   20.0596 C   0  0  0  0  0  0  0  0  0  0  0  0
  -23.4360  -31.8910   17.5647 C   0  0  0  0  0  0  0  0  0  0  0  0
  -23.1964  -34.0142   18.8521 C   0  0  0  0  0  0  0  0  0  0  0  0
  -29.7255  -33.8915   16.7960 C   0  0  0  0  0  0  0  0  0  0  0  0
  -31.3168  -24.6275   23.6567 C   0  0  0  0  0  0  0  0  0  0  0  0
  -30.9033  -26.9928   22.7489 C   0  0  0  0  0  0  0  0  0  1  0  0
  -25.3806  -32.7447   18.9505 C   0  0  1  0  0  0  0  0  0  0  0  0
  -27.3729  -33.9498   15.9591 C   0  0  2  0  0  0  0  0  0  0  0  0
  -23.8338  -32.6077   18.8726 C   0  0  0  0  0  0  0  0  0  0  0  0
  -25.8945  -11.5678   20.4920 N   0  0  0  0  0  0  0  0  0  0  0  0
  -26.2405  -12.8295   20.1844 N   0  0  0  0  0  0  0  0  0  0  0  0
  -31.6517  -21.2096   22.3532 N   0  0  0  0  0  0  0  0  0  0  0  0
  -31.7091  -23.3778   23.0766 N   0  0  0  0  0  0  0  0  0  0  0  0
  -26.6788  -32.6695   21.0560 N   0  0  0  0  0  0  0  0  0  0  0  0
  -29.9282  -13.7812   20.4644 N   0  0  0  0  0  0  0  0  0  0  0  0
  -25.3958  -15.0376   20.0386 N   0  0  0  0  0  0  0  0  0  0  0  0
  -21.8210  -12.6429   21.4105 N   0  0  0  0  0  0  0  0  0  0  0  0
  -29.9127  -16.0096   21.2366 N   0  0  0  0  0  0  0  0  0  0  0  0
  -25.6589  -33.3595   24.4047 N   0  0  0  0  0  0  0  0  0  0  0  0
  -25.9692  -33.5052   17.8535 N   0  0  0  0  0  0  0  0  0  0  0  0
  -28.8124  -33.7429   15.6337 N   0  3  0  0  0  0  0  0  0  0  0  0
  -29.7299  -22.1170   23.4053 O   0  0  0  0  0  0  0  0  0  0  0  0
  -22.5487  -14.7415   20.8405 O   0  0  0  0  0  0  0  0  0  0  0  0
  -25.6167  -31.4113   23.1298 O   0  0  0  0  0  0  0  0  0  0  0  0
  -30.0198  -25.0355   21.6695 O   0  0  0  0  0  0  0  0  0  0  0  0
  -25.4618  -34.5684   20.4651 O   0  0  0  0  0  0  0  0  0  0  0  0
  -27.3745  -31.8209   17.1016 O   0  0  0  0  0  0  0  0  0  0  0  0
  -31.7832  -15.1315   20.1822 O   0  0  0  0  0  0  0  0  0  0  0  0
  -21.7051   -7.1573   22.3749 O   0  0  0  0  0  0  0  0  0  0  0  0
  -30.2922  -27.7084   21.6761 O   0  0  0  0  0  0  0  0  0  1  0  0
  -16.6685   -6.4809   20.2352 F   0  0  0  0  0  0  0  0  0  0  0  0
  -21.0911   -4.9191   20.8729 F   0  0  0  0  0  0  0  0  0  0  0  0
  1  2  1  0  0  0  0
  1  5  2  0  0  0  0
  2  6  2  0  0  0  0
  3 12  2  0  0  0  0
  3 19  1  0  0  0  0
  4 13  1  0  0  0  0
  4 19  2  0  0  0  0
  5 21  1  0  0  0  0
  6 23  1  0  0  0  0
  7 14  2  0  0  0  0
  7 22  1  0  0  0  0
  8 10  2  0  0  0  0
  8 25  1  0  0  0  0
  9 11  1  0  0  0  0
  9 25  2  0  0  0  0
 10 26  1  0  0  0  0
 11 26  2  0  0  0  0
 12 27  1  0  0  0  0
 13 27  2  0  0  0  0
 14 28  1  0  0  0  0
 15 16  2  0  0  0  0
 15 29  1  0  0  0  0
 16 30  1  0  0  0  0
 17 24  1  0  0  0  0
 17 28  2  0  0  0  0
 18 30  2  0  0  0  0
 18 31  1  0  0  0  0
 19 32  1  0  0  0  0
 20 32  1  0  0  0  0
 20 33  2  0  0  0  0
 20 37  1  0  0  0  0
 21 23  2  0  0  0  0
 21 43  1  0  0  0  0
 22 24  2  0  0  0  0
 22 44  1  0  0  0  0
 23 53  1  0  0  0  0
 24 45  1  0  0  0  0
 25 68  1  0  0  0  0
 26 74  1  0  0  0  0
 27 85  1  0  0  0  0
 28 86  1  0  0  0  0
 29 31  2  0  0  0  0
 29 85  1  0  0  0  0
 30 87  1  0  0  0  0
 31 88  1  0  0  0  0
 32 66  2  0  0  0  0
 33 67  1  0  0  0  0
 33 72  1  0  0  0  0
 34 36  2  0  0  0  0
 34 46  1  0  0  0  0
 34 69  1  0  0  0  0
 35 68  1  0  0  0  0
 35 69  1  0  0  0  0
 35 78  2  0  0  0  0
 37 73  1  0  0  0  0
 37 79  2  0  0  0  0
 38 54  1  0  0  0  0
 38 75  1  0  0  0  0
 38 80  2  0  0  0  0
 39 61  1  0  0  0  0
 39 62  1  0  0  0  0
 39 81  2  0  0  0  0
 40 63  1  0  0  0  0
 40 70  1  0  0  0  0
 40 82  2  0  0  0  0
 41 64  1  0  0  0  0
 41 76  1  0  0  0  0
 41 83  2  0  0  0  0
 42 71  1  0  0  0  0
 42 74  1  0  0  0  0
 42 84  2  0  0  0  0
 43 47  1  0  0  0  0
 44 54  1  0  0  0  0
 45 70  1  0  0  0  0
 46 68  1  0  0  0  0
 47 49  1  0  0  0  0
 48 50  1  0  0  0  0
 48 51  1  0  0  0  0
 49 53  1  0  0  0  0
 50 55  1  0  0  0  0
 51 71  1  0  0  0  0
 52 55  1  0  0  0  0
 52 71  1  0  0  0  0
 53 75  1  0  0  0  0
 54 70  1  0  0  0  0
 55 67  1  0  0  0  0
 56 64  1  0  0  0  0
 57 65  1  0  0  0  0
 58 65  1  0  0  0  0
 59 65  1  0  0  0  0
 60 77  1  0  0  0  0
 61 69  1  0  0  0  0
 62 86  1  0  0  0  0
 63 65  1  0  0  0  0
 63 76  1  0  0  0  0
 64 77  1  0  0  0  0
 66 67  1  0  0  0  0
M  CHG  1  77   1
M  ISO  4  42 100  62 101  74 100  86 101
M  END
> <Batch ID>
0080

> <Smiles>
C=C1CN(c2ccc([100NH:0][100C:0](=O)N3CCCC(n4nc(-c5ccc(Oc6ccc(F)cc6F)cc5)c(C(N)=O)c4N)C3)cc2)C(=O)N1CC(=O)[101CH2:1][101O:1]c1ccc2c(c1)CN(C(=O)C(NC(=O)C(C)NC)C(C)(C)C)C(C(=O)NC1CCCc3ccccc31)C2

> <Shape>
0.219

> <Color>
0.186

> <Negative vol penalty>
0.000

$$$$

  -OEChem-04052300023D

 86 95  0     1  0  0  0  0  0999 V2000
  -16.7286  -26.6614   22.2847 C   0  0  0  0  0  0  0  0  0  0  0  0
  -17.9489  -26.0531   22.0087 C   0  0  0  0  0  0  0  0  0  0  0  0
  -22.9248  -10.0707   19.9797 C   0  0  0  0  0  0  0  0  0  0  0  0
  -23.8305   -9.9026   22.2131 C   0  0  0  0  0  0  0  0  0  0  0  0
  -29.3928  -16.9514   19.9500 C   0  0  0  0  0  0  0  0  0  0  0  0
  -29.1197  -17.4761   22.2925 C   0  0  0  0  0  0  0  0  0  0  0  0
  -16.6112  -28.0489   22.2152 C   0  0  0  0  0  0  0  0  0  0  0  0
  -19.0523  -26.8320   21.6620 C   0  0  0  0  0  0  0  0  0  0  0  0
  -23.2726  -25.4027   24.0684 C   0  0  0  0  0  0  0  0  0  0  0  0
  -28.7030  -18.1148   19.6090 C   0  0  0  0  0  0  0  0  0  0  0  0
  -28.4299  -18.6395   21.9515 C   0  0  0  0  0  0  0  0  0  0  0  0
  -22.1527   -8.9315   20.2070 C   0  0  0  0  0  0  0  0  0  0  0  0
  -23.0584   -8.7634   22.4405 C   0  0  0  0  0  0  0  0  0  0  0  0
  -23.9287  -24.2712   23.5856 C   0  0  0  0  0  0  0  0  0  0  0  0
  -23.1787   -5.4758   21.6607 C   0  0  0  0  0  0  0  0  0  0  0  0
  -23.7973   -4.3849   22.2711 C   0  0  0  0  0  0  0  0  0  0  0  0
  -25.5070  -25.6855   22.4332 C   0  0  0  0  0  0  0  0  0  0  0  0
  -22.2178   -4.5097   24.0951 C   0  0  0  0  0  0  0  0  0  0  0  0
  -23.7637  -10.5562   20.9827 C   0  0  0  0  0  0  0  0  0  0  0  0
  -29.6011  -16.6320   21.2918 C   0  0  0  0  0  0  0  0  0  0  0  0
  -24.1986  -13.0698   20.9964 C   0  0  0  0  0  0  0  0  0  0  0  0
  -17.7161  -28.8459   21.8768 C   0  0  0  0  0  0  0  0  0  0  0  0
  -23.7230  -26.6862   23.7278 C   0  0  0  0  0  0  0  0  0  0  0  0
  -18.9492  -28.2314   21.5866 C   0  0  0  0  0  0  0  0  0  0  0  0
  -24.8564  -26.8316   22.9150 C   0  0  0  0  0  0  0  0  0  0  0  0
  -28.2216  -18.9589   20.6097 C   0  0  0  0  0  0  0  0  0  0  0  0
  -22.2195   -8.2779   21.4374 C   0  0  0  0  0  0  0  0  0  0  0  0
  -25.0443  -24.4125   22.7655 C   0  0  0  0  0  0  0  0  0  0  0  0
  -22.0796   -6.0838   22.2675 C   0  0  0  0  0  0  0  0  0  0  0  0
  -23.3169   -3.9018   23.4883 C   0  0  0  0  0  0  0  0  0  0  0  0
  -21.5992   -5.6007   23.4846 C   0  0  0  0  0  0  0  0  0  0  0  0
  -24.5620  -11.7326   20.7482 C   0  0  0  0  0  0  0  0  0  0  0  0
  -25.2944  -13.8012   20.6080 C   0  0  0  0  0  0  0  0  0  0  0  0
  -26.3690  -22.1015   20.3654 C   0  0  0  0  0  0  0  0  0  0  0  0
  -26.5283  -21.7963   18.9657 C   0  0  0  0  0  0  0  0  0  0  0  0
  -27.0069  -21.0386   21.1914 C   0  0  0  0  0  0  0  0  0  0  0  0
  -26.1013  -22.4965   17.9094 C   0  0  0  0  0  0  0  0  0  0  0  0
  -25.7649  -23.1425   20.9383 C   0  0  0  0  0  0  0  0  0  1  0  0
  -30.3201  -15.4190   21.6474 C   0  0  0  0  0  0  0  0  0  0  0  0
  -22.9796  -13.6032   21.5304 C   0  0  0  0  0  0  0  0  0  0  0  0
  -30.8443  -14.5012   20.6100 C   0  0  0  0  0  0  0  0  0  0  0  0
  -22.4792  -29.1582   22.1638 C   0  0  0  0  0  0  0  0  0  0  0  0
  -25.2047  -30.6349   23.1195 C   0  0  0  0  0  0  0  0  0  0  0  0
  -28.4544  -30.3521   24.1226 C   0  0  0  0  0  0  0  0  0  0  0  0
  -17.5286  -30.3385   21.7683 C   0  0  0  0  0  0  0  0  0  0  0  0
  -23.0202  -27.8967   24.2785 C   0  0  0  0  0  0  0  0  0  0  0  0
  -25.3921  -28.1874   22.5365 C   0  0  0  0  0  0  0  0  0  0  0  0
  -27.2860  -20.5059   18.8810 C   0  0  0  0  0  0  0  0  0  0  0  0
  -18.8410  -31.1182   21.7591 C   0  0  0  0  0  0  0  0  0  0  0  0
  -29.4239  -12.4513   18.0338 C   0  0  0  0  0  0  0  0  0  0  0  0
  -19.8368  -30.4758   20.7986 C   0  0  0  0  0  0  0  0  0  0  0  0
  -28.0155  -12.1599   18.5508 C   0  0  0  0  0  0  0  0  0  0  0  0
  -30.4305  -12.5412   19.1761 C   0  0  0  0  0  0  0  0  0  0  0  0
  -28.6498  -13.2497   20.7497 C   0  0  0  0  0  0  0  0  0  0  0  0
  -20.1754  -29.0440   21.2310 C   0  0  1  0  0  0  0  0  0  0  0  0
  -23.2580  -29.1546   23.4488 C   0  0  1  0  0  0  0  0  0  0  0  0
  -27.6004  -13.1791   19.6267 C   0  0  2  0  0  0  0  0  0  0  0  0
  -30.4355  -31.7370   24.7968 C   0  0  0  0  0  0  0  0  0  0  0  0
  -25.6846  -31.3669   20.1965 C   0  0  0  0  0  0  0  0  0  0  0  0
  -28.0619  -31.8829   20.7885 C   0  0  0  0  0  0  0  0  0  0  0  0
  -26.2080  -33.1890   21.8277 C   0  0  0  0  0  0  0  0  0  0  0  0
  -28.5472  -29.1197   26.8118 C   0  0  0  0  0  0  0  0  0  0  0  0
  -26.5916  -30.7952   22.5453 C   0  0  1  0  0  0  0  0  0  0  0  0
  -29.2092  -30.9790   25.2809 C   0  0  2  0  0  0  0  0  0  0  0  0
  -26.6255  -31.7828   21.3449 C   0  0  0  0  0  0  0  0  0  0  0  0
  -25.7924  -11.6182   20.2412 N   0  0  0  0  0  0  0  0  0  0  0  0
  -30.5528  -15.0593   22.8808 N   0  0  0  0  0  0  0  0  0  0  0  0
  -26.2116  -12.8929   20.1676 N   0  0  0  0  0  0  0  0  0  0  0  0
  -27.5338  -20.1191   20.2685 N   0  0  0  0  0  0  0  0  0  0  0  0
  -29.9886  -13.4897   20.1965 N   0  0  0  0  0  0  0  0  0  0  0  0
  -24.6667  -29.3404   23.0949 N   0  0  0  0  0  0  0  0  0  0  0  0
  -25.5532  -15.1261   20.6035 N   0  0  0  0  0  0  0  0  0  0  0  0
  -21.9557  -12.7114   21.8777 N   0  0  0  0  0  0  0  0  0  0  0  0
  -21.1117  -29.0574   22.3345 N   0  0  0  0  0  0  0  0  0  0  0  0
  -27.4527  -31.1784   23.6588 N   0  0  0  0  0  0  0  0  0  0  0  0
  -29.6544  -29.9276   26.2387 N   0  3  0  0  0  0  0  0  0  0  0  0
  -27.0454  -21.0044   22.4099 O   0  0  0  0  0  0  0  0  0  0  0  0
  -22.7973  -14.8353   21.6794 O   0  0  0  0  0  0  0  0  0  0  0  0
  -31.9831  -14.7341   20.2265 O   0  0  0  0  0  0  0  0  0  0  0  0
  -23.0748  -29.2474   21.0966 O   0  0  0  0  0  0  0  0  0  0  0  0
  -24.6231  -31.6206   23.5797 O   0  0  0  0  0  0  0  0  0  0  0  0
  -28.7285  -29.2421   23.6718 O   0  0  0  0  0  0  0  0  0  0  0  0
  -21.4660   -7.1663   21.6598 O   0  0  0  0  0  0  0  0  0  0  0  0
  -25.6862  -23.3097   22.2924 O   0  0  0  0  0  0  0  0  0  1  0  0
  -23.9101   -2.8532   24.0736 F   0  0  0  0  0  0  0  0  0  0  0  0
  -20.5429   -6.1799   24.0717 F   0  0  0  0  0  0  0  0  0  0  0  0
  1  2  1  0  0  0  0
  1  7  2  0  0  0  0
  2  8  2  0  0  0  0
  3 12  2  0  0  0  0
  3 19  1  0  0  0  0
  4 13  1  0  0  0  0
  4 19  2  0  0  0  0
  5 10  2  0  0  0  0
  5 20  1  0  0  0  0
  6 11  1  0  0  0  0
  6 20  2  0  0  0  0
  7 22  1  0  0  0  0
  8 24  1  0  0  0  0
  9 14  2  0  0  0  0
  9 23  1  0  0  0  0
 10 26  1  0  0  0  0
 11 26  2  0  0  0  0
 12 27  1  0  0  0  0
 13 27  2  0  0  0  0
 14 28  1  0  0  0  0
 15 16  2  0  0  0  0
 15 29  1  0  0  0  0
 16 30  1  0  0  0  0
 17 25  1  0  0  0  0
 17 28  2  0  0  0  0
 18 30  2  0  0  0  0
 18 31  1  0  0  0  0
 19 32  1  0  0  0  0
 20 39  1  0  0  0  0
 21 32  1  0  0  0  0
 21 33  2  0  0  0  0
 21 40  1  0  0  0  0
 22 24  2  0  0  0  0
 22 45  1  0  0  0  0
 23 25  2  0  0  0  0
 23 46  1  0  0  0  0
 24 55  1  0  0  0  0
 25 47  1  0  0  0  0
 26 69  1  0  0  0  0
 27 83  1  0  0  0  0
 28 84  1  0  0  0  0
 29 31  2  0  0  0  0
 29 83  1  0  0  0  0
 30 85  1  0  0  0  0
 31 86  1  0  0  0  0
 32 66  2  0  0  0  0
 33 68  1  0  0  0  0
 33 72  1  0  0  0  0
 34 35  1  0  0  0  0
 34 36  1  0  0  0  0
 34 38  2  0  0  0  0
 35 37  2  0  0  0  0
 35 48  1  0  0  0  0
 36 69  1  0  0  0  0
 36 77  2  0  0  0  0
 38 84  1  0  0  0  0
 39 41  1  0  0  0  0
 39 67  2  0  0  0  0
 40 73  1  0  0  0  0
 40 78  2  0  0  0  0
 41 70  1  0  0  0  0
 41 79  2  0  0  0  0
 42 56  1  0  0  0  0
 42 74  1  0  0  0  0
 42 80  2  0  0  0  0
 43 63  1  0  0  0  0
 43 71  1  0  0  0  0
 43 81  2  0  0  0  0
 44 64  1  0  0  0  0
 44 75  1  0  0  0  0
 44 82  2  0  0  0  0
 45 49  1  0  0  0  0
 46 56  1  0  0  0  0
 47 71  1  0  0  0  0
 48 69  1  0  0  0  0
 49 51  1  0  0  0  0
 50 52  1  0  0  0  0
 50 53  1  0  0  0  0
 51 55  1  0  0  0  0
 52 57  1  0  0  0  0
 53 70  1  0  0  0  0
 54 57  1  0  0  0  0
 54 70  1  0  0  0  0
 55 74  1  0  0  0  0
 56 71  1  0  0  0  0
 57 68  1  0  0  0  0
 58 64  1  0  0  0  0
 59 65  1  0  0  0  0
 60 65  1  0  0  0  0
 61 65  1  0  0  0  0
 62 76  1  0  0  0  0
 63 65  1  0  0  0  0
 63 75  1  0  0  0  0
 64 76  1  0  0  0  0
 66 68  1  0  0  0  0
M  CHG  1  76   1
M  ISO  4  38 101  39 100  41 100  84 101
M  END
> <Batch ID>
0080

> <Smiles>
C=C1CN(c2ccc([100C:0](=N)[100C:0](=O)N3CCCC(n4nc(-c5ccc(Oc6ccc(F)cc6F)cc5)c(C(N)=O)c4N)C3)cc2)C(=O)C1=[101CH:1][101O:1]c1ccc2c(c1)CN(C(=O)C(NC(=O)C(C)NC)C(C)(C)C)C(C(=O)NC1CCCc3ccccc31)C2

> <Shape>
0.347

> <Color>
0.212

> <Negative vol penalty>
0.000

$$$$

  -OEChem-04052300023D

 85 93  0     1  0  0  0  0  0999 V2000
  -17.7916  -27.0564   22.2526 C   0  0  0  0  0  0  0  0  0  0  0  0
  -18.9989  -26.3873   22.0791 C   0  0  0  0  0  0  0  0  0  0  0  0
  -23.1306   -9.8136   21.5215 C   0  0  0  0  0  0  0  0  0  0  0  0
  -23.8033  -10.8377   23.6038 C   0  0  0  0  0  0  0  0  0  0  0  0
  -30.1294  -19.5191   21.7301 C   0  0  0  0  0  0  0  0  0  0  0  0
  -32.3569  -18.5909   21.6145 C   0  0  0  0  0  0  0  0  0  0  0  0
  -17.7865  -28.3836   22.6797 C   0  0  0  0  0  0  0  0  0  0  0  0
  -20.2021  -27.0456   22.3315 C   0  0  0  0  0  0  0  0  0  0  0  0
  -25.3231  -24.6011   24.6349 C   0  0  0  0  0  0  0  0  0  0  0  0
  -29.6015  -18.3082   21.2822 C   0  0  0  0  0  0  0  0  0  0  0  0
  -31.8290  -17.3799   21.1667 C   0  0  0  0  0  0  0  0  0  0  0  0
  -22.4091   -8.8513   22.2279 C   0  0  0  0  0  0  0  0  0  0  0  0
  -23.0818   -9.8754   24.3102 C   0  0  0  0  0  0  0  0  0  0  0  0
  -26.4956  -24.1430   24.0357 C   0  0  0  0  0  0  0  0  0  0  0  0
  -23.0589   -6.0073   23.9348 C   0  0  0  0  0  0  0  0  0  0  0  0
  -23.1886   -4.6776   23.5340 C   0  0  0  0  0  0  0  0  0  0  0  0
  -27.5391  -26.2759   24.4609 C   0  0  0  0  0  0  0  0  0  0  0  0
  -20.8154   -4.5794   23.0921 C   0  0  0  0  0  0  0  0  0  0  0  0
  -23.8278  -10.8068   22.2095 C   0  0  0  0  0  0  0  0  0  0  0  0
  -31.5071  -19.6605   21.8962 C   0  0  0  0  0  0  0  0  0  0  0  0
  -24.1060  -13.0460   21.0194 C   0  0  0  0  0  0  0  0  0  0  0  0
  -18.9899  -29.0554   22.9467 C   0  0  0  0  0  0  0  0  0  0  0  0
  -25.2461  -25.9059   25.1427 C   0  0  0  0  0  0  0  0  0  0  0  0
  -20.2131  -28.3834   22.7612 C   0  0  0  0  0  0  0  0  0  0  0  0
  -26.3653  -26.7473   25.0684 C   0  0  0  0  0  0  0  0  0  0  0  0
  -30.4513  -17.2386   21.0005 C   0  0  0  0  0  0  0  0  0  0  0  0
  -22.3846   -8.8822   23.6222 C   0  0  0  0  0  0  0  0  0  0  0  0
  -27.6030  -24.9814   23.9461 C   0  0  0  0  0  0  0  0  0  0  0  0
  -21.8075   -6.6231   23.9143 C   0  0  0  0  0  0  0  0  0  0  0  0
  -22.0669   -3.9636   23.1126 C   0  0  0  0  0  0  0  0  0  0  0  0
  -20.6857   -5.9091   23.4929 C   0  0  0  0  0  0  0  0  0  0  0  0
  -24.5738  -11.8008   21.4804 C   0  0  0  0  0  0  0  0  0  0  0  0
  -25.1905  -13.6096   20.3928 C   0  0  0  0  0  0  0  0  0  0  0  0
  -30.8864  -23.0141   21.5391 C   0  0  0  0  0  0  0  0  0  0  0  0
  -32.0673  -20.9454   22.3712 C   0  0  0  0  0  0  0  0  0  0  0  0
  -22.8073  -13.6401   21.1462 C   0  0  0  0  0  0  0  0  0  0  0  0
  -29.7517  -23.7104   21.3455 C   0  0  0  0  0  0  0  0  0  0  0  0
  -31.1615  -22.1021   22.6769 C   0  0  0  0  0  0  0  0  0  0  0  0
  -23.4763  -28.4651   24.4927 C   0  0  0  0  0  0  0  0  0  0  0  0
  -24.9875  -29.6875   27.0897 C   0  0  0  0  0  0  0  0  0  0  0  0
  -27.6990  -29.6230   29.1610 C   0  0  0  0  0  0  0  0  0  0  0  0
  -30.6162  -14.8486   20.2213 C   0  0  0  0  0  0  0  0  0  0  0  0
  -18.9357  -30.5046   23.3609 C   0  0  0  0  0  0  0  0  0  0  0  0
  -23.9827  -26.3760   25.8100 C   0  0  0  0  0  0  0  0  0  0  0  0
  -26.3407  -28.1500   25.6164 C   0  0  0  0  0  0  0  0  0  0  0  0
  -20.2409  -31.0141   23.9668 C   0  0  0  0  0  0  0  0  0  0  0  0
  -29.6568  -11.6076   19.1020 C   0  0  0  0  0  0  0  0  0  0  0  0
  -21.4296  -30.5840   23.1131 C   0  0  0  0  0  0  0  0  0  0  0  0
  -28.2104  -11.4714   19.5831 C   0  0  0  0  0  0  0  0  0  0  0  0
  -30.5196  -12.3682   20.1075 C   0  0  0  0  0  0  0  0  0  0  0  0
  -28.5434  -13.5388   20.9980 C   0  0  0  0  0  0  0  0  0  0  0  0
  -21.5381  -29.0557   23.0486 C   0  0  1  0  0  0  0  0  0  0  0  0
  -23.8485  -27.8955   25.8324 C   0  0  1  0  0  0  0  0  0  0  0  0
  -27.6205  -12.8363   19.9888 C   0  0  2  0  0  0  0  0  0  0  0  0
  -29.4704  -24.6355   20.1930 C   0  0  0  0  0  0  0  0  0  0  0  0
  -28.6687  -30.7674   31.1728 C   0  0  0  0  0  0  0  0  0  0  0  0
  -25.7911  -32.0612   25.3490 C   0  0  0  0  0  0  0  0  0  0  0  0
  -27.4984  -32.6624   27.0787 C   0  0  0  0  0  0  0  0  0  0  0  0
  -25.0745  -32.6634   27.6681 C   0  0  0  0  0  0  0  0  0  0  0  0
  -27.6649  -27.1226   30.7440 C   0  0  0  0  0  0  0  0  0  0  0  0
  -28.6141  -23.5624   22.3274 C   0  0  0  0  0  0  0  0  0  1  0  0
  -26.2641  -30.4601   27.3185 C   0  0  1  0  0  0  0  0  0  0  0  0
  -27.8101  -29.6152   30.6749 C   0  0  2  0  0  0  0  0  0  0  0  0
  -26.1572  -31.9360   26.8414 C   0  0  0  0  0  0  0  0  0  0  0  0
  -25.8556  -11.5855   21.1728 N   0  0  0  0  0  0  0  0  0  0  0  0
  -33.3365  -21.1327   22.5360 N   0  0  0  0  0  0  0  0  0  0  0  0
  -26.2025  -12.7030   20.5117 N   0  0  0  0  0  0  0  0  0  0  0  0
  -25.0803  -28.5656   26.2539 N   0  0  0  0  0  0  0  0  0  0  0  0
  -29.9006  -13.6527   20.4415 N   0  0  0  0  0  0  0  0  0  0  0  0
  -25.3677  -14.7873   19.7572 N   0  0  0  0  0  0  0  0  0  0  0  0
  -21.8082  -12.9245   21.8201 N   0  0  0  0  0  0  0  0  0  0  0  0
  -29.9140  -16.0088   20.5458 N   0  0  0  0  0  0  0  0  0  0  0  0
  -22.1143  -28.5379   24.2710 N   0  0  0  0  0  0  0  0  0  0  0  0
  -26.5830  -30.3114   28.7343 N   0  0  0  0  0  0  0  0  0  0  0  0
  -28.4197  -28.3384   31.1430 N   0  3  0  0  0  0  0  0  0  0  0  0
  -22.5361  -14.7649   20.6617 O   0  0  0  0  0  0  0  0  0  0  0  0
  -30.7043  -22.1790   23.8038 O   0  0  0  0  0  0  0  0  0  0  0  0
  -24.3594  -28.8141   23.7181 O   0  0  0  0  0  0  0  0  0  0  0  0
  -23.9478  -30.0614   27.6381 O   0  0  0  0  0  0  0  0  0  0  0  0
  -28.5220  -29.0766   28.4299 O   0  0  0  0  0  0  0  0  0  0  0  0
  -31.7572  -14.8451   19.7520 O   0  0  0  0  0  0  0  0  0  0  0  0
  -21.6805   -7.9435   24.3118 O   0  0  0  0  0  0  0  0  0  0  0  0
  -28.7485  -24.5370   23.3611 O   0  0  0  0  0  0  0  0  0  1  0  0
  -22.1918   -2.6872   22.7263 F   0  0  0  0  0  0  0  0  0  0  0  0
  -19.4810   -6.4956   23.4699 F   0  0  0  0  0  0  0  0  0  0  0  0
  1  2  1  0  0  0  0
  1  7  2  0  0  0  0
  2  8  2  0  0  0  0
  3 12  2  0  0  0  0
  3 19  1  0  0  0  0
  4 13  1  0  0  0  0
  4 19  2  0  0  0  0
  5 10  2  0  0  0  0
  5 20  1  0  0  0  0
  6 11  1  0  0  0  0
  6 20  2  0  0  0  0
  7 22  1  0  0  0  0
  8 24  1  0  0  0  0
  9 14  2  0  0  0  0
  9 23  1  0  0  0  0
 10 26  1  0  0  0  0
 11 26  2  0  0  0  0
 12 27  1  0  0  0  0
 13 27  2  0  0  0  0
 14 28  1  0  0  0  0
 15 16  2  0  0  0  0
 15 29  1  0  0  0  0
 16 30  1  0  0  0  0
 17 25  1  0  0  0  0
 17 28  2  0  0  0  0
 18 30  2  0  0  0  0
 18 31  1  0  0  0  0
 19 32  1  0  0  0  0
 20 35  1  0  0  0  0
 21 32  1  0  0  0  0
 21 33  2  0  0  0  0
 21 36  1  0  0  0  0
 22 24  2  0  0  0  0
 22 43  1  0  0  0  0
 23 25  2  0  0  0  0
 23 44  1  0  0  0  0
 24 52  1  0  0  0  0
 25 45  1  0  0  0  0
 26 72  1  0  0  0  0
 27 82  1  0  0  0  0
 28 83  1  0  0  0  0
 29 31  2  0  0  0  0
 29 82  1  0  0  0  0
 30 84  1  0  0  0  0
 31 85  1  0  0  0  0
 32 65  2  0  0  0  0
 33 67  1  0  0  0  0
 33 70  1  0  0  0  0
 34 37  2  0  0  0  0
 34 38  1  0  0  0  0
 35 38  1  0  0  0  0
 35 66  2  0  0  0  0
 36 71  1  0  0  0  0
 36 76  2  0  0  0  0
 37 55  1  0  0  0  0
 37 61  1  0  0  0  0
 38 77  2  0  0  0  0
 39 53  1  0  0  0  0
 39 73  1  0  0  0  0
 39 78  2  0  0  0  0
 40 62  1  0  0  0  0
 40 68  1  0  0  0  0
 40 79  2  0  0  0  0
 41 63  1  0  0  0  0
 41 74  1  0  0  0  0
 41 80  2  0  0  0  0
 42 69  1  0  0  0  0
 42 72  1  0  0  0  0
 42 81  2  0  0  0  0
 43 46  1  0  0  0  0
 44 53  1  0  0  0  0
 45 68  1  0  0  0  0
 46 48  1  0  0  0  0
 47 49  1  0  0  0  0
 47 50  1  0  0  0  0
 48 52  1  0  0  0  0
 49 54  1  0  0  0  0
 50 69  1  0  0  0  0
 51 54  1  0  0  0  0
 51 69  1  0  0  0  0
 52 73  1  0  0  0  0
 53 68  1  0  0  0  0
 54 67  1  0  0  0  0
 56 63  1  0  0  0  0
 57 64  1  0  0  0  0
 58 64  1  0  0  0  0
 59 64  1  0  0  0  0
 60 75  1  0  0  0  0
 61 83  1  0  0  0  0
 62 64  1  0  0  0  0
 62 74  1  0  0  0  0
 63 75  1  0  0  0  0
 65 67  1  0  0  0  0
M  CHG  1  75   1
M  ISO  4  42 100  61 101  72 100  83 101
M  END
> <Batch ID>
0080

> <Smiles>
C=C(CC(=O)C(=N)c1ccc([100NH:0][100C:0](=O)N2CCCC(n3nc(-c4ccc(Oc5ccc(F)cc5F)cc4)c(C(N)=O)c3N)C2)cc1)[101CH2:1][101O:1]c1ccc2c(c1)CN(C(=O)C(NC(=O)C(C)NC)C(C)(C)C)C(C(=O)NC1CCCc3ccccc31)C2

> <Shape>
0.272

> <Color>
0.171

> <Negative vol penalty>
0.000

$$$$

  -OEChem-04052300023D

 85 94  0     1  0  0  0  0  0999 V2000
  -19.8444  -31.0586   26.1635 C   0  0  0  0  0  0  0  0  0  0  0  0
  -21.1585  -30.7466   25.8300 C   0  0  0  0  0  0  0  0  0  0  0  0
  -24.4646   -9.5095   21.6981 C   0  0  0  0  0  0  0  0  0  0  0  0
  -24.5655  -10.8559   23.7017 C   0  0  0  0  0  0  0  0  0  0  0  0
  -18.7912  -30.3811   25.5505 C   0  0  0  0  0  0  0  0  0  0  0  0
  -21.4202  -29.7561   24.8840 C   0  0  0  0  0  0  0  0  0  0  0  0
  -26.0137  -29.6539   20.8350 C   0  0  0  0  0  0  0  0  0  0  0  0
  -27.1143  -21.1730   21.2554 C   0  0  0  0  0  0  0  0  0  0  0  0
  -29.5302  -21.1857   21.2768 C   0  0  0  0  0  0  0  0  0  0  0  0
  -27.1245  -19.8244   20.8996 C   0  0  0  0  0  0  0  0  0  0  0  0
  -29.5404  -19.8370   20.9210 C   0  0  0  0  0  0  0  0  0  0  0  0
  -24.1350   -8.3923   22.4654 C   0  0  0  0  0  0  0  0  0  0  0  0
  -24.2358   -9.7386   24.4690 C   0  0  0  0  0  0  0  0  0  0  0  0
  -27.2515  -29.0122   20.8367 C   0  0  0  0  0  0  0  0  0  0  0  0
  -21.3885   -7.1377   23.9870 C   0  0  0  0  0  0  0  0  0  0  0  0
  -20.3496   -6.3242   23.5347 C   0  0  0  0  0  0  0  0  0  0  0  0
  -26.3109  -27.2077   19.5412 C   0  0  0  0  0  0  0  0  0  0  0  0
  -21.8710   -4.4516   23.4084 C   0  0  0  0  0  0  0  0  0  0  0  0
  -24.6799  -10.7413   22.3163 C   0  0  0  0  0  0  0  0  0  0  0  0
  -24.1329  -12.8226   20.9463 C   0  0  0  0  0  0  0  0  0  0  0  0
  -19.0399  -29.3885   24.5895 C   0  0  0  0  0  0  0  0  0  0  0  0
  -24.9107  -29.0711   20.1946 C   0  0  0  0  0  0  0  0  0  0  0  0
  -20.3694  -29.0638   24.2586 C   0  0  0  0  0  0  0  0  0  0  0  0
  -25.0609  -27.8453   19.5306 C   0  0  0  0  0  0  0  0  0  0  0  0
  -28.3172  -21.8537   21.4440 C   0  0  0  0  0  0  0  0  0  0  0  0
  -28.3375  -19.1563   20.7324 C   0  0  0  0  0  0  0  0  0  0  0  0
  -24.0206   -8.5068   23.8509 C   0  0  0  0  0  0  0  0  0  0  0  0
  -27.3995  -27.7876   20.1922 C   0  0  0  0  0  0  0  0  0  0  0  0
  -22.6686   -6.6082   24.1500 C   0  0  0  0  0  0  0  0  0  0  0  0
  -20.5909   -4.9811   23.2454 C   0  0  0  0  0  0  0  0  0  0  0  0
  -22.9099   -5.2651   23.8607 C   0  0  0  0  0  0  0  0  0  0  0  0
  -25.0209  -11.8956   21.5242 C   0  0  0  0  0  0  0  0  0  0  0  0
  -24.9468  -13.7220   20.3020 C   0  0  0  0  0  0  0  0  0  0  0  0
  -27.9561  -25.1107   22.9249 C   0  0  0  0  0  0  0  0  0  0  0  0
  -28.6890  -25.4513   21.8574 C   0  0  0  0  0  0  0  0  0  0  0  0
  -27.7397  -23.6375   22.9050 C   0  0  0  0  0  0  0  0  0  0  0  0
  -22.7004  -12.8667   20.9882 C   0  0  0  0  0  0  0  0  0  0  0  0
  -22.0603  -28.0296   21.1403 C   0  0  0  0  0  0  0  0  0  0  0  0
  -21.5816  -27.6341   17.9564 C   0  0  0  0  0  0  0  0  0  0  0  0
  -22.9362  -27.1723   14.8583 C   0  0  0  0  0  0  0  0  0  0  0  0
  -29.4635  -16.9753   20.1653 C   0  0  0  0  0  0  0  0  0  0  0  0
  -17.8699  -28.6505   23.9885 C   0  0  0  0  0  0  0  0  0  0  0  0
  -23.5890  -29.7889   20.1791 C   0  0  0  0  0  0  0  0  0  0  0  0
  -23.9129  -27.1873   18.8112 C   0  0  0  0  0  0  0  0  0  0  0  0
  -29.0198  -24.2307   21.0479 C   0  0  0  0  0  0  0  0  0  0  0  0
  -18.2242  -27.8752   22.7222 C   0  0  0  0  0  0  0  0  0  0  0  0
  -29.9061  -13.5492   19.3033 C   0  0  0  0  0  0  0  0  0  0  0  0
  -19.5110  -27.0814   22.9247 C   0  0  0  0  0  0  0  0  0  0  0  0
  -28.6016  -12.8898   19.7567 C   0  0  0  0  0  0  0  0  0  0  0  0
  -30.3460  -14.6543   20.2619 C   0  0  0  0  0  0  0  0  0  0  0  0
  -28.0225  -15.0140   20.9975 C   0  0  0  0  0  0  0  0  0  0  0  0
  -20.6932  -28.0127   23.2191 C   0  0  1  0  0  0  0  0  0  0  0  0
  -22.4059  -28.8572   19.9348 C   0  0  1  0  0  0  0  0  0  0  0  0
  -27.5050  -13.9383   20.0286 C   0  0  2  0  0  0  0  0  0  0  0  0
  -30.6732  -26.8773   21.3538 C   0  0  0  0  0  0  0  0  0  0  0  0
  -22.2915  -26.8461   12.4551 C   0  0  0  0  0  0  0  0  0  0  0  0
  -20.8081  -24.7446   18.5587 C   0  0  0  0  0  0  0  0  0  0  0  0
  -21.1031  -24.2319   16.1259 C   0  0  0  0  0  0  0  0  0  0  0  0
  -19.3719  -25.8748   16.8515 C   0  0  0  0  0  0  0  0  0  0  0  0
  -24.3432  -29.6392   14.0253 C   0  0  0  0  0  0  0  0  0  0  0  0
  -29.1576  -26.8125   21.4627 C   0  0  1  0  0  0  0  0  0  1  0  0
  -21.8150  -26.5143   16.9712 C   0  0  1  0  0  0  0  0  0  0  0  0
  -22.6672  -27.8549   13.5293 C   0  0  2  0  0  0  0  0  0  0  0  0
  -20.7959  -25.3526   17.1420 C   0  0  0  0  0  0  0  0  0  0  0  0
  -26.3009  -12.1799   21.2694 N   0  0  0  0  0  0  0  0  0  0  0  0
  -26.2231  -13.2955   20.5242 N   0  0  0  0  0  0  0  0  0  0  0  0
  -28.3073  -23.1559   21.7875 N   0  0  0  0  0  0  0  0  0  0  0  0
  -22.6392  -27.9253   18.8296 N   0  0  0  0  0  0  0  0  0  0  0  0
  -29.2580  -15.6127   20.4685 N   0  0  0  0  0  0  0  0  0  0  0  0
  -24.6880  -14.8281   19.5726 N   0  0  0  0  0  0  0  0  0  0  0  0
  -22.0215  -11.8647   21.6948 N   0  0  0  0  0  0  0  0  0  0  0  0
  -28.3479  -17.7863   20.3709 N   0  0  0  0  0  0  0  0  0  0  0  0
  -21.1628  -28.6343   21.9994 N   0  0  0  0  0  0  0  0  0  0  0  0
  -21.8063  -27.1271   15.6473 N   0  0  0  0  0  0  0  0  0  0  0  0
  -27.0674  -23.0393   23.8728 N   0  3  0  0  0  0  0  0  0  0  0  0
  -23.8764  -28.5977   13.0743 N   0  3  0  0  0  0  0  0  0  0  0  0
  -22.0414  -13.7588   20.4022 O   0  0  0  0  0  0  0  0  0  0  0  0
  -22.5691  -26.9235   21.2798 O   0  0  0  0  0  0  0  0  0  0  0  0
  -20.5033  -28.2331   17.9468 O   0  0  0  0  0  0  0  0  0  0  0  0
  -24.0376  -26.7208   15.1643 O   0  0  0  0  0  0  0  0  0  0  0  0
  -30.5408  -17.3875   19.7276 O   0  0  0  0  0  0  0  0  0  0  0  0
  -23.6988   -7.4169   24.5999 O   0  0  0  0  0  0  0  0  0  0  0  0
  -28.6063  -27.1587   20.1929 O   0  0  0  0  0  0  0  0  0  1  0  0
  -19.5928   -4.1997   22.8125 F   0  0  0  0  0  0  0  0  0  0  0  0
  -24.1373   -4.7505   24.0165 F   0  0  0  0  0  0  0  0  0  0  0  0
  1  2  1  0  0  0  0
  1  5  2  0  0  0  0
  2  6  2  0  0  0  0
  3 12  2  0  0  0  0
  3 19  1  0  0  0  0
  4 13  1  0  0  0  0
  4 19  2  0  0  0  0
  5 21  1  0  0  0  0
  6 23  1  0  0  0  0
  7 14  2  0  0  0  0
  7 22  1  0  0  0  0
  8 10  2  0  0  0  0
  8 25  1  0  0  0  0
  9 11  1  0  0  0  0
  9 25  2  0  0  0  0
 10 26  1  0  0  0  0
 11 26  2  0  0  0  0
 12 27  1  0  0  0  0
 13 27  2  0  0  0  0
 14 28  1  0  0  0  0
 15 16  2  0  0  0  0
 15 29  1  0  0  0  0
 16 30  1  0  0  0  0
 17 24  1  0  0  0  0
 17 28  2  0  0  0  0
 18 30  2  0  0  0  0
 18 31  1  0  0  0  0
 19 32  1  0  0  0  0
 20 32  1  0  0  0  0
 20 33  2  0  0  0  0
 20 37  1  0  0  0  0
 21 23  2  0  0  0  0
 21 42  1  0  0  0  0
 22 24  2  0  0  0  0
 22 43  1  0  0  0  0
 23 52  1  0  0  0  0
 24 44  1  0  0  0  0
 25 67  1  0  0  0  0
 26 72  1  0  0  0  0
 27 82  1  0  0  0  0
 28 83  1  0  0  0  0
 29 31  2  0  0  0  0
 29 82  1  0  0  0  0
 30 84  1  0  0  0  0
 31 85  1  0  0  0  0
 32 65  2  0  0  0  0
 33 66  1  0  0  0  0
 33 70  1  0  0  0  0
 34 35  2  0  0  0  0
 34 36  1  0  0  0  0
 35 45  1  0  0  0  0
 35 61  1  0  0  0  0
 36 67  1  0  0  0  0
 36 75  2  0  0  0  0
 37 71  1  0  0  0  0
 37 77  2  0  0  0  0
 38 53  1  0  0  0  0
 38 73  1  0  0  0  0
 38 78  2  0  0  0  0
 39 62  1  0  0  0  0
 39 68  1  0  0  0  0
 39 79  2  0  0  0  0
 40 63  1  0  0  0  0
 40 74  1  0  0  0  0
 40 80  2  0  0  0  0
 41 69  1  0  0  0  0
 41 72  1  0  0  0  0
 41 81  2  0  0  0  0
 42 46  1  0  0  0  0
 43 53  1  0  0  0  0
 44 68  1  0  0  0  0
 45 67  1  0  0  0  0
 46 48  1  0  0  0  0
 47 49  1  0  0  0  0
 47 50  1  0  0  0  0
 48 52  1  0  0  0  0
 49 54  1  0  0  0  0
 50 69  1  0  0  0  0
 51 54  1  0  0  0  0
 51 69  1  0  0  0  0
 52 73  1  0  0  0  0
 53 68  1  0  0  0  0
 54 66  1  0  0  0  0
 55 61  1  0  0  0  0
 56 63  1  0  0  0  0
 57 64  1  0  0  0  0
 58 64  1  0  0  0  0
 59 64  1  0  0  0  0
 60 76  1  0  0  0  0
 61 83  1  0  0  0  0
 62 64  1  0  0  0  0
 62 74  1  0  0  0  0
 63 76  1  0  0  0  0
 65 66  1  0  0  0  0
M  CHG  2  75   1  76   1
M  ISO  4  41 100  61 101  72 100  83 101
M  END
> <Batch ID>
0080

> <Smiles>
CNC(C)C(=O)NC(C(=O)N1Cc2cc([101O:1][101C:1](C)=C3CC(=N)N(c4ccc([100NH:0][100C:0](=O)N5CCCC(n6nc(-c7ccc(Oc8ccc(F)cc8F)cc7)c(C(N)=O)c6N)C5)cc4)C3)ccc2CC1C(=O)NC1CCCc2ccccc21)C(C)(C)C

> <Shape>
0.292

> <Color>
0.134

> <Negative vol penalty>
0.000

$$$$

  -OEChem-04052300023D

 86 95  0     1  0  0  0  0  0999 V2000
  -26.5134   -9.8849   19.5800 C   0  0  0  0  0  0  0  0  0  0  0  0
  -26.0205  -10.7531   20.5488 C   0  0  0  0  0  0  0  0  0  0  0  0
  -20.4280  -22.5787   21.7373 C   0  0  0  0  0  0  0  0  0  0  0  0
  -25.5675  -30.9192   23.2358 C   0  0  0  0  0  0  0  0  0  0  0  0
  -24.8665  -30.5746   25.5220 C   0  0  0  0  0  0  0  0  0  0  0  0
  -19.6848  -23.5850   22.3542 C   0  0  0  0  0  0  0  0  0  0  0  0
  -27.7107  -10.1770   18.9280 C   0  0  0  0  0  0  0  0  0  0  0  0
  -26.7251  -11.9135   20.8670 C   0  0  0  0  0  0  0  0  0  0  0  0
  -23.7203  -15.9738   21.2273 C   0  0  0  0  0  0  0  0  0  0  0  0
  -21.0669  -21.6096   22.5108 C   0  0  0  0  0  0  0  0  0  0  0  0
  -26.2659  -32.0631   23.6223 C   0  0  0  0  0  0  0  0  0  0  0  0
  -25.5648  -31.7185   25.9086 C   0  0  0  0  0  0  0  0  0  0  0  0
  -22.9761  -16.1133   22.3979 C   0  0  0  0  0  0  0  0  0  0  0  0
  -27.9372  -35.2762   23.9481 C   0  0  0  0  0  0  0  0  0  0  0  0
  -27.8050  -36.4170   23.1565 C   0  0  0  0  0  0  0  0  0  0  0  0
  -20.2195  -22.6532   24.5182 C   0  0  0  0  0  0  0  0  0  0  0  0
  -24.5944  -17.6966   23.2308 C   0  0  0  0  0  0  0  0  0  0  0  0
  -25.4245  -36.4275   23.5691 C   0  0  0  0  0  0  0  0  0  0  0  0
  -24.8678  -30.1749   24.1856 C   0  0  0  0  0  0  0  0  0  0  0  0
  -19.5806  -23.6223   23.7447 C   0  0  0  0  0  0  0  0  0  0  0  0
  -24.6348  -27.6743   23.7381 C   0  0  0  0  0  0  0  0  0  0  0  0
  -28.4255  -11.3465   19.2315 C   0  0  0  0  0  0  0  0  0  0  0  0
  -24.9148  -16.6876   21.0539 C   0  0  0  0  0  0  0  0  0  0  0  0
  -27.9338  -12.2209   20.2194 C   0  0  0  0  0  0  0  0  0  0  0  0
  -25.3506  -17.5663   22.0559 C   0  0  0  0  0  0  0  0  0  0  0  0
  -20.9627  -21.6469   23.9013 C   0  0  0  0  0  0  0  0  0  0  0  0
  -26.2645  -32.4627   24.9587 C   0  0  0  0  0  0  0  0  0  0  0  0
  -23.4147  -16.9726   23.4012 C   0  0  0  0  0  0  0  0  0  0  0  0
  -26.8131  -34.7109   24.5501 C   0  0  0  0  0  0  0  0  0  0  0  0
  -26.5487  -36.9927   22.9670 C   0  0  0  0  0  0  0  0  0  0  0  0
  -25.5567  -35.2866   24.3606 C   0  0  0  0  0  0  0  0  0  0  0  0
  -24.1458  -28.9935   23.7868 C   0  0  0  0  0  0  0  0  0  0  0  0
  -23.5680  -26.9287   23.2995 C   0  0  0  0  0  0  0  0  0  0  0  0
  -22.8975  -18.7238   26.2470 C   0  0  0  0  0  0  0  0  0  0  0  0
  -22.0611  -20.9612   25.9671 C   0  0  0  0  0  0  0  0  0  0  0  0
  -22.4815  -18.3721   25.0264 C   0  0  0  0  0  0  0  0  0  1  0  0
  -22.6750  -20.0522   26.7345 C   0  0  0  0  0  0  0  0  0  0  0  0
  -21.7560  -19.3602   24.1568 C   0  0  0  0  0  0  0  0  0  0  0  0
  -18.8055  -24.6720   24.3865 C   0  0  0  0  0  0  0  0  0  0  0  0
  -25.9369  -27.1682   24.0607 C   0  0  0  0  0  0  0  0  0  0  0  0
  -18.1152  -25.7153   23.5938 C   0  0  0  0  0  0  0  0  0  0  0  0
  -27.9649  -15.8910   20.6463 C   0  0  0  0  0  0  0  0  0  0  0  0
  -28.3354  -19.0836   20.2074 C   0  0  0  0  0  0  0  0  0  0  0  0
  -27.1660  -22.2402   20.7687 C   0  0  0  0  0  0  0  0  0  0  0  0
  -29.7392  -11.5960   18.5339 C   0  0  0  0  0  0  0  0  0  0  0  0
  -25.6921  -16.5462   19.7739 C   0  0  0  0  0  0  0  0  0  0  0  0
  -26.6156  -18.3706   21.9101 C   0  0  0  0  0  0  0  0  0  0  0  0
  -30.2335  -13.0345   18.6625 C   0  0  0  0  0  0  0  0  0  0  0  0
  -19.1206  -28.3414   21.3691 C   0  0  0  0  0  0  0  0  0  0  0  0
  -30.1169  -13.5120   20.1065 C   0  0  0  0  0  0  0  0  0  0  0  0
  -20.5443  -28.6626   21.8226 C   0  0  0  0  0  0  0  0  0  0  0  0
  -18.2366  -27.9415   22.5459 C   0  0  0  0  0  0  0  0  0  0  0  0
  -20.2081  -27.1211   23.8065 C   0  0  0  0  0  0  0  0  0  0  0  0
  -28.6567  -13.5021   20.5746 C   0  0  1  0  0  0  0  0  0  0  0  0
  -27.1606  -16.9325   19.9209 C   0  0  1  0  0  0  0  0  0  0  0  0
  -21.1379  -27.5026   22.6415 C   0  0  2  0  0  0  0  0  0  0  0  0
  -27.7037  -24.6494   20.3172 C   0  0  0  0  0  0  0  0  0  0  0  0
  -30.4977  -19.0017   22.3586 C   0  0  0  0  0  0  0  0  0  0  0  0
  -30.3172  -21.4925   22.5364 C   0  0  0  0  0  0  0  0  0  0  0  0
  -31.0388  -20.4462   20.3900 C   0  0  0  0  0  0  0  0  0  0  0  0
  -24.6526  -22.6383   19.2577 C   0  0  0  0  0  0  0  0  0  0  0  0
  -28.6219  -20.2605   21.1084 C   0  0  1  0  0  0  0  0  0  0  0  0
  -26.9548  -23.4173   19.8337 C   0  0  2  0  0  0  0  0  0  0  0  0
  -30.0960  -20.2837   21.6022 C   0  0  0  0  0  0  0  0  0  0  0  0
  -22.8678  -29.0840   23.4091 N   0  0  0  0  0  0  0  0  0  0  0  0
  -18.6627  -24.7682   25.6809 N   0  0  0  0  0  0  0  0  0  0  0  0
  -22.5448  -27.8122   23.1188 N   0  0  0  0  0  0  0  0  0  0  0  0
  -21.6055  -20.6713   24.6795 N   0  0  0  0  0  0  0  0  0  0  0  0
  -18.8460  -26.8635   23.3223 N   0  0  0  0  0  0  0  0  0  0  0  0
  -27.3440  -18.1931   20.6430 N   0  0  0  0  0  0  0  0  0  0  0  0
  -23.4147  -25.6100   23.0545 N   0  0  0  0  0  0  0  0  0  0  0  0
  -26.9159  -28.0716   24.4963 N   0  0  0  0  0  0  0  0  0  0  0  0
  -27.9482  -14.6472   20.0445 N   0  0  0  0  0  0  0  0  0  0  0  0
  -28.2218  -21.4504   20.3653 N   0  0  0  0  0  0  0  0  0  0  0  0
  -25.5057  -23.7534   19.7432 N   0  3  0  0  0  0  0  0  0  0  0  0
  -21.3497  -19.0023   23.0505 O   0  0  0  0  0  0  0  0  0  0  0  0
  -26.2285  -25.9532   23.9497 O   0  0  0  0  0  0  0  0  0  0  0  0
  -16.9671  -25.4517   23.2613 O   0  0  0  0  0  0  0  0  0  0  0  0
  -28.5581  -16.1939   21.6750 O   0  0  0  0  0  0  0  0  0  0  0  0
  -28.9630  -18.9629   19.1523 O   0  0  0  0  0  0  0  0  0  0  0  0
  -26.4668  -22.0433   21.7601 O   0  0  0  0  0  0  0  0  0  0  0  0
  -23.1363  -20.3045   28.0036 O   0  0  0  0  0  0  0  0  0  0  0  0
  -26.9461  -33.5788   25.3363 O   0  0  0  0  0  0  0  0  0  0  0  0
  -22.6905  -17.1102   24.5451 O   0  0  0  0  0  0  0  0  0  1  0  0
  -26.4222  -38.0892   22.2081 F   0  0  0  0  0  0  0  0  0  0  0  0
  -24.4733  -34.7488   24.9374 F   0  0  0  0  0  0  0  0  0  0  0  0
  1  2  1  0  0  0  0
  1  7  2  0  0  0  0
  2  8  2  0  0  0  0
  3  6  1  0  0  0  0
  3 10  2  0  0  0  0
  4 11  2  0  0  0  0
  4 19  1  0  0  0  0
  5 12  1  0  0  0  0
  5 19  2  0  0  0  0
  6 20  2  0  0  0  0
  7 22  1  0  0  0  0
  8 24  1  0  0  0  0
  9 13  2  0  0  0  0
  9 23  1  0  0  0  0
 10 26  1  0  0  0  0
 11 27  1  0  0  0  0
 12 27  2  0  0  0  0
 13 28  1  0  0  0  0
 14 15  2  0  0  0  0
 14 29  1  0  0  0  0
 15 30  1  0  0  0  0
 16 20  1  0  0  0  0
 16 26  2  0  0  0  0
 17 25  1  0  0  0  0
 17 28  2  0  0  0  0
 18 30  2  0  0  0  0
 18 31  1  0  0  0  0
 19 32  1  0  0  0  0
 20 39  1  0  0  0  0
 21 32  1  0  0  0  0
 21 33  2  0  0  0  0
 21 40  1  0  0  0  0
 22 24  2  0  0  0  0
 22 45  1  0  0  0  0
 23 25  2  0  0  0  0
 23 46  1  0  0  0  0
 24 54  1  0  0  0  0
 25 47  1  0  0  0  0
 26 68  1  0  0  0  0
 27 83  1  0  0  0  0
 28 84  1  0  0  0  0
 29 31  2  0  0  0  0
 29 83  1  0  0  0  0
 30 85  1  0  0  0  0
 31 86  1  0  0  0  0
 32 65  2  0  0  0  0
 33 67  1  0  0  0  0
 33 71  1  0  0  0  0
 34 36  2  0  0  0  0
 34 37  1  0  0  0  0
 35 37  2  0  0  0  0
 35 68  1  0  0  0  0
 36 38  1  0  0  0  0
 36 84  1  0  0  0  0
 37 82  1  0  0  0  0
 38 68  1  0  0  0  0
 38 76  2  0  0  0  0
 39 41  1  0  0  0  0
 39 66  2  0  0  0  0
 40 72  1  0  0  0  0
 40 77  2  0  0  0  0
 41 69  1  0  0  0  0
 41 78  2  0  0  0  0
 42 55  1  0  0  0  0
 42 73  1  0  0  0  0
 42 79  2  0  0  0  0
 43 62  1  0  0  0  0
 43 70  1  0  0  0  0
 43 80  2  0  0  0  0
 44 63  1  0  0  0  0
 44 74  1  0  0  0  0
 44 81  2  0  0  0  0
 45 48  1  0  0  0  0
 46 55  1  0  0  0  0
 47 70  1  0  0  0  0
 48 50  1  0  0  0  0
 49 51  1  0  0  0  0
 49 52  1  0  0  0  0
 50 54  1  0  0  0  0
 51 56  1  0  0  0  0
 52 69  1  0  0  0  0
 53 56  1  0  0  0  0
 53 69  1  0  0  0  0
 54 73  1  0  0  0  0
 55 70  1  0  0  0  0
 56 67  1  0  0  0  0
 57 63  1  0  0  0  0
 58 64  1  0  0  0  0
 59 64  1  0  0  0  0
 60 64  1  0  0  0  0
 61 75  1  0  0  0  0
 62 64  1  0  0  0  0
 62 74  1  0  0  0  0
 63 75  1  0  0  0  0
 65 67  1  0  0  0  0
M  CHG  1  75   1
M  ISO  4  36 101  39 100  41 100  84 101
M  END
> <Batch ID>
0080

> <Smiles>
CNC(C)C(=O)NC(C(=O)N1Cc2cc([101O:1][101C:1]3=CC(=O)CN(c4cccc([100C:0](=N)[100C:0](=O)N5CCCC(n6nc(-c7ccc(Oc8ccc(F)cc8F)cc7)c(C(N)=O)c6N)C5)c4)C3=O)ccc2CC1C(=O)NC1CCCc2ccccc21)C(C)(C)C

> <Shape>
0.230

> <Color>
0.045

> <Negative vol penalty>
0.000

$$$$

  -OEChem-04052300023D

 87 96  0     1  0  0  0  0  0999 V2000
  -28.3191  -36.8805   22.1716 C   0  0  0  0  0  0  0  0  0  0  0  0
  -28.6980  -35.6057   21.7634 C   0  0  0  0  0  0  0  0  0  0  0  0
  -24.9065   -8.9810   21.8718 C   0  0  0  0  0  0  0  0  0  0  0  0
  -23.2558  -10.7449   21.8415 C   0  0  0  0  0  0  0  0  0  0  0  0
  -27.2759  -37.0381   23.0831 C   0  0  0  0  0  0  0  0  0  0  0  0
  -28.0346  -34.4875   22.2673 C   0  0  0  0  0  0  0  0  0  0  0  0
  -26.8439  -29.2650   19.2985 C   0  0  0  0  0  0  0  0  0  0  0  0
  -28.6636  -19.9379   16.7221 C   0  0  0  0  0  0  0  0  0  0  0  0
  -26.4151  -19.3475   17.3800 C   0  0  0  0  0  0  0  0  0  0  0  0
  -28.4439  -21.2481   17.1470 C   0  0  0  0  0  0  0  0  0  0  0  0
  -26.1954  -20.6577   17.8049 C   0  0  0  0  0  0  0  0  0  0  0  0
  -24.1605   -8.2993   22.8332 C   0  0  0  0  0  0  0  0  0  0  0  0
  -22.5097  -10.0631   22.8029 C   0  0  0  0  0  0  0  0  0  0  0  0
  -27.4818  -28.0253   19.2886 C   0  0  0  0  0  0  0  0  0  0  0  0
  -21.4075   -6.3381   22.9202 C   0  0  0  0  0  0  0  0  0  0  0  0
  -21.2216   -4.9669   22.7441 C   0  0  0  0  0  0  0  0  0  0  0  0
  -25.9311  -27.2208   20.9521 C   0  0  0  0  0  0  0  0  0  0  0  0
  -26.1222  -24.9592   18.2929 C   0  0  0  0  0  0  0  0  0  0  0  0
  -22.3216   -4.5469   24.8538 C   0  0  0  0  0  0  0  0  0  0  0  0
  -24.4542  -10.2038   21.3760 C   0  0  0  0  0  0  0  0  0  0  0  0
  -25.1219  -10.7888   18.9844 C   0  0  0  0  0  0  0  0  0  0  0  0
  -26.5930  -35.9217   23.5911 C   0  0  0  0  0  0  0  0  0  0  0  0
  -25.7498  -29.4957   20.1448 C   0  0  0  0  0  0  0  0  0  0  0  0
  -26.9821  -34.6302   23.1875 C   0  0  0  0  0  0  0  0  0  0  0  0
  -25.2795  -28.4635   20.9690 C   0  0  0  0  0  0  0  0  0  0  0  0
  -27.6492  -18.9875   16.8386 C   0  0  0  0  0  0  0  0  0  0  0  0
  -27.2098  -21.6081   17.6884 C   0  0  0  0  0  0  0  0  0  0  0  0
  -22.9621   -8.8403   23.2987 C   0  0  0  0  0  0  0  0  0  0  0  0
  -27.0272  -27.0039   20.1175 C   0  0  0  0  0  0  0  0  0  0  0  0
  -22.0505   -6.8137   24.0630 C   0  0  0  0  0  0  0  0  0  0  0  0
  -27.1862  -24.8376   19.2207 C   0  0  0  0  0  0  0  0  0  1  0  0
  -21.6786   -4.0714   23.7109 C   0  0  0  0  0  0  0  0  0  0  0  0
  -22.5076   -5.9181   25.0298 C   0  0  0  0  0  0  0  0  0  0  0  0
  -25.2247  -10.9088   20.3833 C   0  0  0  0  0  0  0  0  0  0  0  0
  -26.0625  -11.6618   18.4949 C   0  0  0  0  0  0  0  0  0  0  0  0
  -26.0223  -23.7601   17.6222 C   0  0  0  0  0  0  0  0  0  0  0  0
  -27.7038  -23.5679   19.0889 C   0  0  0  0  0  0  0  0  0  0  0  0
  -24.2538   -9.9622   18.1978 C   0  0  0  0  0  0  0  0  0  0  0  0
  -25.1596  -31.4781   22.5584 C   0  0  0  0  0  0  0  0  0  0  0  0
  -22.1761  -30.2223   22.3490 C   0  0  0  0  0  0  0  0  0  0  0  0
  -20.1890  -27.6202   21.3860 C   0  0  0  0  0  0  0  0  0  0  0  0
  -28.5881  -16.6379   18.5669 C   0  0  0  0  0  0  0  0  0  0  0  0
  -25.5029  -36.1396   24.6103 C   0  0  0  0  0  0  0  0  0  0  0  0
  -25.0560  -30.8301   20.1242 C   0  0  0  0  0  0  0  0  0  0  0  0
  -24.0961  -28.6538   21.8812 C   0  0  0  0  0  0  0  0  0  0  0  0
  -24.6040  -34.9221   24.8105 C   0  0  0  0  0  0  0  0  0  0  0  0
  -29.7646  -14.1754   20.8535 C   0  0  0  0  0  0  0  0  0  0  0  0
  -25.4436  -33.6570   24.9571 C   0  0  0  0  0  0  0  0  0  0  0  0
  -28.6773  -13.0998   20.8242 C   0  0  0  0  0  0  0  0  0  0  0  0
  -29.1743  -15.5782   20.7279 C   0  0  0  0  0  0  0  0  0  0  0  0
  -27.2052  -14.7013   19.5331 C   0  0  0  0  0  0  0  0  0  0  0  0
  -26.2704  -33.3940   23.6927 C   0  0  1  0  0  0  0  0  0  0  0  0
  -24.2721  -31.1158   21.4014 C   0  0  1  0  0  0  0  0  0  0  0  0
  -27.7563  -13.2668   19.6006 C   0  0  2  0  0  0  0  0  0  0  0  0
  -17.7953  -26.8667   21.3801 C   0  0  0  0  0  0  0  0  0  0  0  0
  -29.2970  -17.2943   15.7962 C   0  0  0  0  0  0  0  0  0  0  0  0
  -26.8616  -17.1922   15.2806 C   0  0  0  0  0  0  0  0  0  0  0  0
  -22.3748  -29.5763   25.3245 C   0  0  0  0  0  0  0  0  0  0  0  0
  -20.4318  -28.0221   25.0456 C   0  0  0  0  0  0  0  0  0  0  0  0
  -20.1517  -30.4596   24.5949 C   0  0  0  0  0  0  0  0  0  0  0  0
  -20.1187  -27.4812   18.4305 C   0  0  0  0  0  0  0  0  0  0  0  0
  -21.4675  -29.0413   22.9672 C   0  0  1  0  0  0  0  0  0  0  0  0
  -18.8894  -27.5816   20.6024 C   0  0  2  0  0  0  0  0  0  0  0  0
  -27.8841  -17.5866   16.3843 C   0  0  0  0  0  0  0  0  0  0  0  0
  -21.1300  -29.2715   24.4674 C   0  0  0  0  0  0  0  0  0  0  0  0
  -26.1572  -11.7885   20.7582 N   0  0  0  0  0  0  0  0  0  0  0  0
  -26.9887  -22.9219   18.1143 N   0  0  0  0  0  0  0  0  0  0  0  0
  -26.6490  -12.2292   19.5877 N   0  0  0  0  0  0  0  0  0  0  0  0
  -23.4554  -29.9783   21.8296 N   0  0  0  0  0  0  0  0  0  0  0  0
  -28.3124  -15.6701   19.5469 N   0  0  0  0  0  0  0  0  0  0  0  0
  -26.4370  -11.9916   17.2405 N   0  0  0  0  0  0  0  0  0  0  0  0
  -23.3472   -9.1242   18.8612 N   0  0  0  0  0  0  0  0  0  0  0  0
  -25.4376  -32.8284   22.6529 N   0  0  0  0  0  0  0  0  0  0  0  0
  -20.3045  -28.7774   22.1268 N   0  0  0  0  0  0  0  0  0  0  0  0
  -27.7262  -16.6529   17.4771 N   0  0  0  0  0  0  0  0  0  0  0  0
  -19.0862  -26.8711   19.3073 N   0  3  0  0  0  0  0  0  0  0  0  0
  -24.2925   -9.9545   16.9440 O   0  0  0  0  0  0  0  0  0  0  0  0
  -25.5612  -30.5980   23.3106 O   0  0  0  0  0  0  0  0  0  0  0  0
  -21.6124  -31.3191   22.3214 O   0  0  0  0  0  0  0  0  0  0  0  0
  -21.0170  -26.7128   21.3477 O   0  0  0  0  0  0  0  0  0  0  0  0
  -29.5356  -17.4264   18.6539 O   0  0  0  0  0  0  0  0  0  0  0  0
  -25.1875  -23.3769   16.6640 O   0  0  0  0  0  0  0  0  0  0  0  0
  -28.7028  -22.9715   19.7294 O   0  0  0  0  0  0  0  0  0  0  0  0
  -22.2337   -8.1753   24.2366 O   0  0  0  0  0  0  0  0  0  0  0  0
  -27.6483  -25.7931   20.1102 O   0  0  0  0  0  0  0  0  0  1  0  0
  -21.4986   -2.7548   23.5425 F   0  0  0  0  0  0  0  0  0  0  0  0
  -23.1250   -6.3691   26.1303 F   0  0  0  0  0  0  0  0  0  0  0  0
  1  2  1  0  0  0  0
  1  5  2  0  0  0  0
  2  6  2  0  0  0  0
  3 12  2  0  0  0  0
  3 20  1  0  0  0  0
  4 13  1  0  0  0  0
  4 20  2  0  0  0  0
  5 22  1  0  0  0  0
  6 24  1  0  0  0  0
  7 14  2  0  0  0  0
  7 23  1  0  0  0  0
  8 10  2  0  0  0  0
  8 26  1  0  0  0  0
  9 11  1  0  0  0  0
  9 26  2  0  0  0  0
 10 27  1  0  0  0  0
 11 27  2  0  0  0  0
 12 28  1  0  0  0  0
 13 28  2  0  0  0  0
 14 29  1  0  0  0  0
 15 16  2  0  0  0  0
 15 30  1  0  0  0  0
 16 32  1  0  0  0  0
 17 25  1  0  0  0  0
 17 29  2  0  0  0  0
 18 31  1  0  0  0  0
 18 36  2  0  0  0  0
 19 32  2  0  0  0  0
 19 33  1  0  0  0  0
 20 34  1  0  0  0  0
 21 34  1  0  0  0  0
 21 35  2  0  0  0  0
 21 38  1  0  0  0  0
 22 24  2  0  0  0  0
 22 43  1  0  0  0  0
 23 25  2  0  0  0  0
 23 44  1  0  0  0  0
 24 52  1  0  0  0  0
 25 45  1  0  0  0  0
 26 64  1  0  0  0  0
 27 67  1  0  0  0  0
 28 84  1  0  0  0  0
 29 85  1  0  0  0  0
 30 33  2  0  0  0  0
 30 84  1  0  0  0  0
 31 37  2  0  0  0  0
 31 85  1  0  0  0  0
 32 86  1  0  0  0  0
 33 87  1  0  0  0  0
 34 66  2  0  0  0  0
 35 68  1  0  0  0  0
 35 71  1  0  0  0  0
 36 67  1  0  0  0  0
 36 82  1  0  0  0  0
 37 67  1  0  0  0  0
 37 83  1  0  0  0  0
 38 72  1  0  0  0  0
 38 77  2  0  0  0  0
 39 53  1  0  0  0  0
 39 73  1  0  0  0  0
 39 78  2  0  0  0  0
 40 62  1  0  0  0  0
 40 69  1  0  0  0  0
 40 79  2  0  0  0  0
 41 63  1  0  0  0  0
 41 74  1  0  0  0  0
 41 80  2  0  0  0  0
 42 70  1  0  0  0  0
 42 75  1  0  0  0  0
 42 81  2  0  0  0  0
 43 46  1  0  0  0  0
 44 53  1  0  0  0  0
 45 69  1  0  0  0  0
 46 48  1  0  0  0  0
 47 49  1  0  0  0  0
 47 50  1  0  0  0  0
 48 52  1  0  0  0  0
 49 54  1  0  0  0  0
 50 70  1  0  0  0  0
 51 54  1  0  0  0  0
 51 70  1  0  0  0  0
 52 73  1  0  0  0  0
 53 69  1  0  0  0  0
 54 68  1  0  0  0  0
 55 63  1  0  0  0  0
 56 64  1  0  0  0  0
 57 64  1  0  0  0  0
 58 65  1  0  0  0  0
 59 65  1  0  0  0  0
 60 65  1  0  0  0  0
 61 76  1  0  0  0  0
 62 65  1  0  0  0  0
 62 74  1  0  0  0  0
 63 76  1  0  0  0  0
 64 75  1  0  0  0  0
 66 68  1  0  0  0  0
M  CHG  1  76   1
M  ISO  4  31 101  42 100  75 100  85 101
M  END
> <Batch ID>
0080

> <Smiles>
CNC(C)C(=O)NC(C(=O)N1Cc2cc([101O:1][101CH:1]3CC(=O)N(c4ccc(C(C)(C)[100NH:0][100C:0](=O)N5CCCC(n6nc(-c7ccc(Oc8ccc(F)cc8F)cc7)c(C(N)=O)c6N)C5)cc4)C3=O)ccc2CC1C(=O)NC1CCCc2ccccc21)C(C)(C)C

> <Shape>
0.299

> <Color>
0.087

> <Negative vol penalty>
0.000

$$$$

  -OEChem-04052300023D

 87 96  0     1  0  0  0  0  0999 V2000
  -32.4996  -16.7626   23.2162 C   0  0  0  0  0  0  0  0  0  0  0  0
  -31.3303  -17.5040   23.0800 C   0  0  0  0  0  0  0  0  0  0  0  0
  -19.4833  -25.5959   24.9195 C   0  0  0  0  0  0  0  0  0  0  0  0
  -28.3286  -26.5724   21.5654 C   0  0  0  0  0  0  0  0  0  0  0  0
  -29.6020  -28.4446   20.7224 C   0  0  0  0  0  0  0  0  0  0  0  0
  -19.3671  -26.8939   24.4221 C   0  0  0  0  0  0  0  0  0  0  0  0
  -32.5869  -15.4907   22.6519 C   0  0  0  0  0  0  0  0  0  0  0  0
  -30.2479  -16.9742   22.3784 C   0  0  0  0  0  0  0  0  0  0  0  0
  -25.8430  -17.6904   24.7719 C   0  0  0  0  0  0  0  0  0  0  0  0
  -20.4879  -24.7537   24.4429 C   0  0  0  0  0  0  0  0  0  0  0  0
  -29.1092  -25.7000   20.8070 C   0  0  0  0  0  0  0  0  0  0  0  0
  -30.3826  -27.5721   19.9640 C   0  0  0  0  0  0  0  0  0  0  0  0
  -25.2697  -18.9583   24.6846 C   0  0  0  0  0  0  0  0  0  0  0  0
  -32.1733  -24.2845   21.0078 C   0  0  0  0  0  0  0  0  0  0  0  0
  -32.6361  -23.1236   21.6273 C   0  0  0  0  0  0  0  0  0  0  0  0
  -21.2599  -26.5073   22.9712 C   0  0  0  0  0  0  0  0  0  0  0  0
  -23.7808  -18.1599   22.9628 C   0  0  0  0  0  0  0  0  0  0  0  0
  -31.4649  -21.7844   19.9927 C   0  0  0  0  0  0  0  0  0  0  0  0
  -28.5749  -27.9447   21.5230 C   0  0  0  0  0  0  0  0  0  0  0  0
  -20.2554  -27.3495   23.4479 C   0  0  0  0  0  0  0  0  0  0  0  0
  -28.0101  -29.2763   23.6244 C   0  0  0  0  0  0  0  0  0  0  0  0
  -31.5016  -14.9412   21.9512 C   0  0  0  0  0  0  0  0  0  0  0  0
  -25.3961  -16.6488   23.9462 C   0  0  0  0  0  0  0  0  0  0  0  0
  -30.3213  -15.6943   21.8030 C   0  0  0  0  0  0  0  0  0  0  0  0
  -24.3483  -16.8791   23.0433 C   0  0  0  0  0  0  0  0  0  0  0  0
  -21.3762  -25.2093   23.4688 C   0  0  0  0  0  0  0  0  0  0  0  0
  -30.1362  -26.1998   20.0063 C   0  0  0  0  0  0  0  0  0  0  0  0
  -24.2404  -19.1940   23.7780 C   0  0  0  0  0  0  0  0  0  0  0  0
  -31.3562  -24.1953   19.8808 C   0  0  0  0  0  0  0  0  0  0  0  0
  -32.2819  -21.8736   21.1198 C   0  0  0  0  0  0  0  0  0  0  0  0
  -31.0021  -22.9453   19.3732 C   0  0  0  0  0  0  0  0  0  0  0  0
  -27.7686  -28.8465   22.3057 C   0  0  0  0  0  0  0  0  0  0  0  0
  -26.9625  -30.1178   23.9086 C   0  0  0  0  0  0  0  0  0  0  0  0
  -23.7563  -22.5601   22.6417 C   0  0  0  0  0  0  0  0  0  0  0  0
  -24.2237  -23.5997   21.7595 C   0  0  0  0  0  0  0  0  0  0  0  0
  -22.5861  -23.0475   23.4238 C   0  0  0  0  0  0  0  0  0  0  0  0
  -25.2454  -23.5602   20.8976 C   0  0  0  0  0  0  0  0  0  0  0  0
  -24.2238  -21.3231   22.8098 C   0  0  0  0  0  0  0  0  0  1  0  0
  -20.1304  -28.7321   22.9190 C   0  0  0  0  0  0  0  0  0  0  0  0
  -29.0854  -28.9444   24.5129 C   0  0  0  0  0  0  0  0  0  0  0  0
  -26.7276  -14.8418   21.6955 C   0  0  0  0  0  0  0  0  0  0  0  0
  -23.8807  -13.2907   21.8050 C   0  0  0  0  0  0  0  0  0  0  0  0
  -20.5541  -13.3907   22.5604 C   0  0  0  0  0  0  0  0  0  0  0  0
  -21.4010  -30.5731   21.8607 C   0  0  0  0  0  0  0  0  0  0  0  0
  -31.6598  -13.5814   21.3182 C   0  0  0  0  0  0  0  0  0  0  0  0
  -26.0068  -15.2800   24.0713 C   0  0  0  0  0  0  0  0  0  0  0  0
  -23.8184  -15.7894   22.1487 C   0  0  0  0  0  0  0  0  0  0  0  0
  -23.3374  -24.7893   21.9740 C   0  0  0  0  0  0  0  0  0  0  0  0
  -30.3351  -12.9413   20.9110 C   0  0  0  0  0  0  0  0  0  0  0  0
  -23.8709  -33.1010   21.7823 C   0  0  0  0  0  0  0  0  0  0  0  0
  -29.4599  -13.9491   20.1726 C   0  0  0  0  0  0  0  0  0  0  0  0
  -25.1741  -32.3408   22.0434 C   0  0  0  0  0  0  0  0  0  0  0  0
  -22.9092  -32.2956   20.9098 C   0  0  0  0  0  0  0  0  0  0  0  0
  -23.9297  -30.1788   21.6419 C   0  0  0  0  0  0  0  0  0  0  0  0
  -29.1169  -15.1440   21.0704 C   0  0  1  0  0  0  0  0  0  0  0  0
  -25.8220  -14.4266   22.8203 C   0  0  1  0  0  0  0  0  0  0  0  0
  -24.9028  -30.9186   22.5739 C   0  0  1  0  0  0  0  0  0  0  0  0
  -18.4786  -11.9811   22.5066 C   0  0  0  0  0  0  0  0  0  0  0  0
  -23.6828  -13.7017   18.7881 C   0  0  0  0  0  0  0  0  0  0  0  0
  -21.2447  -13.1543   18.9437 C   0  0  0  0  0  0  0  0  0  0  0  0
  -22.9476  -11.4478   19.5843 C   0  0  0  0  0  0  0  0  0  0  0  0
  -20.2196  -13.5653   25.4958 C   0  0  0  0  0  0  0  0  0  0  0  0
  -22.5560  -13.4363   21.0959 C   0  0  1  0  0  0  0  0  0  0  0  0
  -19.6686  -12.4339   23.3382 C   0  0  2  0  0  0  0  0  0  0  0  0
  -22.6188  -12.9563   19.6184 C   0  0  0  0  0  0  0  0  0  0  0  0
  -26.6549  -29.3716   21.7881 N   0  0  0  0  0  0  0  0  0  0  0  0
  -26.1872  -30.1399   22.7867 N   0  0  0  0  0  0  0  0  0  0  0  0
  -22.3782  -24.3692   22.9937 N   0  0  0  0  0  0  0  0  0  0  0  0
  -24.4524  -14.4697   22.3040 N   0  0  0  0  0  0  0  0  0  0  0  0
  -22.6975  -30.9662   21.4854 N   0  0  0  0  0  0  0  0  0  0  0  0
  -26.6381  -30.8337   25.0062 N   0  0  0  0  0  0  0  0  0  0  0  0
  -30.0783  -28.0646   24.0609 N   0  0  0  0  0  0  0  0  0  0  0  0
  -21.3100  -29.3025   22.4398 N   0  0  0  0  0  0  0  0  0  0  0  0
  -28.0727  -14.7887   22.0074 N   0  0  0  0  0  0  0  0  0  0  0  0
  -21.5758  -12.7289   21.9128 N   0  0  0  0  0  0  0  0  0  0  0  0
  -19.1558  -13.0910   24.5737 N   0  3  0  0  0  0  0  0  0  0  0  0
  -21.9629  -22.4082   24.2546 O   0  0  0  0  0  0  0  0  0  0  0  0
  -19.0248  -29.2659   22.8960 O   0  0  0  0  0  0  0  0  0  0  0  0
  -29.1546  -29.4014   25.6790 O   0  0  0  0  0  0  0  0  0  0  0  0
  -26.2419  -15.1834   20.6236 O   0  0  0  0  0  0  0  0  0  0  0  0
  -24.3861  -12.1712   21.9186 O   0  0  0  0  0  0  0  0  0  0  0  0
  -20.3569  -14.6033   22.5275 O   0  0  0  0  0  0  0  0  0  0  0  0
  -20.4150  -31.3048   21.7271 O   0  0  0  0  0  0  0  0  0  0  0  0
  -30.8982  -25.3488   19.2664 O   0  0  0  0  0  0  0  0  0  0  0  0
  -23.6796  -20.4307   23.6903 O   0  0  0  0  0  0  0  0  0  1  0  0
  -32.7276  -20.7589   21.7139 F   0  0  0  0  0  0  0  0  0  0  0  0
  -30.2184  -22.8533   18.2901 F   0  0  0  0  0  0  0  0  0  0  0  0
  1  2  1  0  0  0  0
  1  7  2  0  0  0  0
  2  8  2  0  0  0  0
  3  6  1  0  0  0  0
  3 10  2  0  0  0  0
  4 11  2  0  0  0  0
  4 19  1  0  0  0  0
  5 12  1  0  0  0  0
  5 19  2  0  0  0  0
  6 20  2  0  0  0  0
  7 22  1  0  0  0  0
  8 24  1  0  0  0  0
  9 13  2  0  0  0  0
  9 23  1  0  0  0  0
 10 26  1  0  0  0  0
 11 27  1  0  0  0  0
 12 27  2  0  0  0  0
 13 28  1  0  0  0  0
 14 15  2  0  0  0  0
 14 29  1  0  0  0  0
 15 30  1  0  0  0  0
 16 20  1  0  0  0  0
 16 26  2  0  0  0  0
 17 25  1  0  0  0  0
 17 28  2  0  0  0  0
 18 30  2  0  0  0  0
 18 31  1  0  0  0  0
 19 32  1  0  0  0  0
 20 39  1  0  0  0  0
 21 32  1  0  0  0  0
 21 33  2  0  0  0  0
 21 40  1  0  0  0  0
 22 24  2  0  0  0  0
 22 45  1  0  0  0  0
 23 25  2  0  0  0  0
 23 46  1  0  0  0  0
 24 55  1  0  0  0  0
 25 47  1  0  0  0  0
 26 68  1  0  0  0  0
 27 84  1  0  0  0  0
 28 85  1  0  0  0  0
 29 31  2  0  0  0  0
 29 84  1  0  0  0  0
 30 86  1  0  0  0  0
 31 87  1  0  0  0  0
 32 66  2  0  0  0  0
 33 67  1  0  0  0  0
 33 71  1  0  0  0  0
 34 35  1  0  0  0  0
 34 36  1  0  0  0  0
 34 38  2  0  0  0  0
 35 37  2  0  0  0  0
 35 48  1  0  0  0  0
 36 68  1  0  0  0  0
 36 77  2  0  0  0  0
 38 85  1  0  0  0  0
 39 73  1  0  0  0  0
 39 78  2  0  0  0  0
 40 72  1  0  0  0  0
 40 79  2  0  0  0  0
 41 56  1  0  0  0  0
 41 74  1  0  0  0  0
 41 80  2  0  0  0  0
 42 63  1  0  0  0  0
 42 69  1  0  0  0  0
 42 81  2  0  0  0  0
 43 64  1  0  0  0  0
 43 75  1  0  0  0  0
 43 82  2  0  0  0  0
 44 70  1  0  0  0  0
 44 73  1  0  0  0  0
 44 83  2  0  0  0  0
 45 49  1  0  0  0  0
 46 56  1  0  0  0  0
 47 69  1  0  0  0  0
 48 68  1  0  0  0  0
 49 51  1  0  0  0  0
 50 52  1  0  0  0  0
 50 53  1  0  0  0  0
 51 55  1  0  0  0  0
 52 57  1  0  0  0  0
 53 70  1  0  0  0  0
 54 57  1  0  0  0  0
 54 70  1  0  0  0  0
 55 74  1  0  0  0  0
 56 69  1  0  0  0  0
 57 67  1  0  0  0  0
 58 64  1  0  0  0  0
 59 65  1  0  0  0  0
 60 65  1  0  0  0  0
 61 65  1  0  0  0  0
 62 76  1  0  0  0  0
 63 65  1  0  0  0  0
 63 75  1  0  0  0  0
 64 76  1  0  0  0  0
 66 67  1  0  0  0  0
M  CHG  1  76   1
M  ISO  4  38 101  44 100  73 100  85 101
M  END
> <Batch ID>
0080

> <Smiles>
C=C1CN(c2cccc(C(=O)[100NH:0][100C:0](=O)N3CCCC(n4nc(-c5ccc(Oc6ccc(F)cc6F)cc5)c(C(N)=O)c4N)C3)c2)C(=O)C1=[101CH:1][101O:1]c1ccc2c(c1)CN(C(=O)C(NC(=O)C(C)NC)C(C)(C)C)C(C(=O)NC1CCCc3ccccc31)C2

> <Shape>
0.226

> <Color>
0.060

> <Negative vol penalty>
0.000

$$$$

  -OEChem-04052300023D

 87 96  0     1  0  0  0  0  0999 V2000
  -32.3150  -22.1165   22.7789 C   0  0  0  0  0  0  0  0  0  0  0  0
  -30.9863  -22.4262   23.0515 C   0  0  0  0  0  0  0  0  0  0  0  0
  -18.4383  -28.4902   21.8586 C   0  0  0  0  0  0  0  0  0  0  0  0
  -28.3231  -26.9484   18.7383 C   0  0  0  0  0  0  0  0  0  0  0  0
  -28.4409  -25.8302   20.8767 C   0  0  0  0  0  0  0  0  0  0  0  0
  -19.3629  -28.9575   22.7926 C   0  0  0  0  0  0  0  0  0  0  0  0
  -32.6285  -21.2713   21.7152 C   0  0  0  0  0  0  0  0  0  0  0  0
  -29.9705  -21.8917   22.2598 C   0  0  0  0  0  0  0  0  0  0  0  0
  -24.3719  -20.2159   24.0910 C   0  0  0  0  0  0  0  0  0  0  0  0
  -18.3551  -27.1255   21.5820 C   0  0  0  0  0  0  0  0  0  0  0  0
  -29.6620  -26.6371   18.5017 C   0  0  0  0  0  0  0  0  0  0  0  0
  -29.7799  -25.5188   20.6401 C   0  0  0  0  0  0  0  0  0  0  0  0
  -23.1353  -20.8575   24.0346 C   0  0  0  0  0  0  0  0  0  0  0  0
  -33.1505  -26.4476   17.4928 C   0  0  0  0  0  0  0  0  0  0  0  0
  -33.9725  -27.4547   16.9873 C   0  0  0  0  0  0  0  0  0  0  0  0
  -20.1214  -26.6954   23.1734 C   0  0  0  0  0  0  0  0  0  0  0  0
  -22.6230  -19.6773   21.9940 C   0  0  0  0  0  0  0  0  0  0  0  0
  -33.5178  -28.8051   18.9384 C   0  0  0  0  0  0  0  0  0  0  0  0
  -27.7126  -26.5450   19.9259 C   0  0  0  0  0  0  0  0  0  0  0  0
  -20.2045  -28.0601   23.4500 C   0  0  0  0  0  0  0  0  0  0  0  0
  -25.2035  -26.0942   19.8294 C   0  0  0  0  0  0  0  0  0  0  0  0
  -31.6153  -20.7185   20.9161 C   0  0  0  0  0  0  0  0  0  0  0  0
  -24.7484  -19.3069   23.0919 C   0  0  0  0  0  0  0  0  0  0  0  0
  -30.2708  -21.0394   21.1837 C   0  0  0  0  0  0  0  0  0  0  0  0
  -23.8638  -19.0236   22.0415 C   0  0  0  0  0  0  0  0  0  0  0  0
  -19.1967  -26.2282   22.2394 C   0  0  0  0  0  0  0  0  0  0  0  0
  -30.3904  -25.9223   19.4526 C   0  0  0  0  0  0  0  0  0  0  0  0
  -22.2619  -20.5904   22.9844 C   0  0  0  0  0  0  0  0  0  0  0  0
  -32.5120  -26.6192   18.7210 C   0  0  0  0  0  0  0  0  0  0  0  0
  -34.1562  -28.6334   17.7101 C   0  0  0  0  0  0  0  0  0  0  0  0
  -32.6957  -27.7980   19.4438 C   0  0  0  0  0  0  0  0  0  0  0  0
  -26.3297  -26.8668   20.1712 C   0  0  0  0  0  0  0  0  0  0  0  0
  -24.1335  -26.8313   20.2748 C   0  0  0  0  0  0  0  0  0  0  0  0
  -18.3315  -22.7845   21.3934 C   0  0  0  0  0  0  0  0  0  0  0  0
  -19.6332  -22.6510   21.6593 C   0  0  0  0  0  0  0  0  0  0  0  0
  -17.9678  -24.2065   21.5725 C   0  0  0  0  0  0  0  0  0  0  0  0
  -20.1642  -23.9772   22.0405 C   0  0  0  0  0  0  0  0  0  0  0  0
  -21.1679  -28.5486   24.4235 C   0  0  0  0  0  0  0  0  0  0  0  0
  -25.1312  -24.8239   19.1686 C   0  0  0  0  0  0  0  0  0  0  0  0
  -21.7640  -29.8994   24.3076 C   0  0  0  0  0  0  0  0  0  0  0  0
  -27.0894  -19.1752   20.9457 C   0  0  0  0  0  0  0  0  0  0  0  0
  -25.8650  -16.2278   20.3660 C   0  0  0  0  0  0  0  0  0  0  0  0
  -23.1780  -14.1283   20.5040 C   0  0  0  0  0  0  0  0  0  0  0  0
  -32.0058  -19.8477   19.7482 C   0  0  0  0  0  0  0  0  0  0  0  0
  -26.0747  -18.6031   23.1816 C   0  0  0  0  0  0  0  0  0  0  0  0
  -24.2120  -18.0408   20.9547 C   0  0  0  0  0  0  0  0  0  0  0  0
  -30.8487  -19.0240   19.1889 C   0  0  0  0  0  0  0  0  0  0  0  0
  -23.8651  -31.5896   21.9443 C   0  0  0  0  0  0  0  0  0  0  0  0
  -29.6080  -19.8945   19.0167 C   0  0  0  0  0  0  0  0  0  0  0  0
  -24.6291  -30.4493   21.2722 C   0  0  0  0  0  0  0  0  0  0  0  0
  -23.5919  -31.2885   23.4143 C   0  0  0  0  0  0  0  0  0  0  0  0
  -23.6375  -28.8494   22.9700 C   0  0  0  0  0  0  0  0  0  0  0  0
  -29.1393  -20.4595   20.3630 C   0  0  1  0  0  0  0  0  0  0  0  0
  -26.5670  -18.0824   21.8348 C   0  0  1  0  0  0  0  0  0  0  0  0
  -23.9077  -29.1053   21.4771 C   0  0  2  0  0  0  0  0  0  0  0  0
  -17.3242  -21.7780   20.9771 C   0  0  0  0  0  0  0  0  0  0  0  0
  -22.4717  -11.7919   19.9213 C   0  0  0  0  0  0  0  0  0  0  0  0
  -25.6836  -17.0189   17.4247 C   0  0  0  0  0  0  0  0  0  0  0  0
  -24.1369  -15.0822   17.0712 C   0  0  0  0  0  0  0  0  0  0  0  0
  -26.4795  -14.6829   17.8295 C   0  0  0  0  0  0  0  0  0  0  0  0
  -22.5849  -13.4787   23.3298 C   0  0  0  0  0  0  0  0  0  0  0  0
  -20.5057  -21.4494   21.6302 C   0  0  0  0  0  0  0  0  0  1  0  0
  -24.8055  -15.6725   19.4451 C   0  0  1  0  0  0  0  0  0  0  0  0
  -23.0399  -12.7004   21.0004 C   0  0  2  0  0  0  0  0  0  0  0  0
  -25.2703  -15.6341   17.9619 C   0  0  0  0  0  0  0  0  0  0  0  0
  -26.0052  -28.0073   20.7860 N   0  0  0  0  0  0  0  0  0  0  0  0
  -21.5678  -27.8478   25.4501 N   0  0  0  0  0  0  0  0  0  0  0  0
  -24.6631  -27.9568   20.8341 N   0  0  0  0  0  0  0  0  0  0  0  0
  -19.1135  -24.8678   21.9638 N   0  0  0  0  0  0  0  0  0  0  0  0
  -22.9397  -29.9905   23.5756 N   0  0  0  0  0  0  0  0  0  0  0  0
  -25.5229  -17.3830   21.0832 N   0  0  0  0  0  0  0  0  0  0  0  0
  -22.8007  -26.6199   20.2385 N   0  0  0  0  0  0  0  0  0  0  0  0
  -26.3264  -24.2048   18.7782 N   0  0  0  0  0  0  0  0  0  0  0  0
  -28.4334  -19.4465   21.1179 N   0  0  0  0  0  0  0  0  0  0  0  0
  -24.4338  -14.3707   19.9887 N   0  0  0  0  0  0  0  0  0  0  0  0
  -22.1346  -12.6485   22.1831 N   0  3  0  0  0  0  0  0  0  0  0  0
  -16.8464  -24.6555   21.3951 O   0  0  0  0  0  0  0  0  0  0  0  0
  -21.3255  -24.1869   22.3538 O   0  0  0  0  0  0  0  0  0  0  0  0
  -24.0382  -24.2623   18.9168 O   0  0  0  0  0  0  0  0  0  0  0  0
  -21.1525  -30.7960   24.8736 O   0  0  0  0  0  0  0  0  0  0  0  0
  -26.3297  -19.7302   20.1605 O   0  0  0  0  0  0  0  0  0  0  0  0
  -26.9534  -15.6537   20.4513 O   0  0  0  0  0  0  0  0  0  0  0  0
  -22.2622  -14.9459   20.5638 O   0  0  0  0  0  0  0  0  0  0  0  0
  -31.6968  -25.6181   19.2219 O   0  0  0  0  0  0  0  0  0  0  0  0
  -21.0546  -21.2157   22.9265 O   0  0  0  0  0  0  0  0  0  1  0  0
  -34.9469  -29.5999   17.2253 F   0  0  0  0  0  0  0  0  0  0  0  0
  -32.0860  -27.9681   20.6250 F   0  0  0  0  0  0  0  0  0  0  0  0
  1  2  1  0  0  0  0
  1  7  2  0  0  0  0
  2  8  2  0  0  0  0
  3  6  1  0  0  0  0
  3 10  2  0  0  0  0
  4 11  2  0  0  0  0
  4 19  1  0  0  0  0
  5 12  1  0  0  0  0
  5 19  2  0  0  0  0
  6 20  2  0  0  0  0
  7 22  1  0  0  0  0
  8 24  1  0  0  0  0
  9 13  2  0  0  0  0
  9 23  1  0  0  0  0
 10 26  1  0  0  0  0
 11 27  1  0  0  0  0
 12 27  2  0  0  0  0
 13 28  1  0  0  0  0
 14 15  2  0  0  0  0
 14 29  1  0  0  0  0
 15 30  1  0  0  0  0
 16 20  1  0  0  0  0
 16 26  2  0  0  0  0
 17 25  1  0  0  0  0
 17 28  2  0  0  0  0
 18 30  2  0  0  0  0
 18 31  1  0  0  0  0
 19 32  1  0  0  0  0
 20 38  1  0  0  0  0
 21 32  1  0  0  0  0
 21 33  2  0  0  0  0
 21 39  1  0  0  0  0
 22 24  2  0  0  0  0
 22 44  1  0  0  0  0
 23 25  2  0  0  0  0
 23 45  1  0  0  0  0
 24 53  1  0  0  0  0
 25 46  1  0  0  0  0
 26 69  1  0  0  0  0
 27 84  1  0  0  0  0
 28 85  1  0  0  0  0
 29 31  2  0  0  0  0
 29 84  1  0  0  0  0
 30 86  1  0  0  0  0
 31 87  1  0  0  0  0
 32 66  2  0  0  0  0
 33 68  1  0  0  0  0
 33 72  1  0  0  0  0
 34 35  2  0  0  0  0
 34 36  1  0  0  0  0
 34 56  1  0  0  0  0
 35 37  1  0  0  0  0
 35 62  1  0  0  0  0
 36 69  1  0  0  0  0
 36 77  2  0  0  0  0
 37 69  1  0  0  0  0
 37 78  2  0  0  0  0
 38 40  1  0  0  0  0
 38 67  2  0  0  0  0
 39 73  1  0  0  0  0
 39 79  2  0  0  0  0
 40 70  1  0  0  0  0
 40 80  2  0  0  0  0
 41 54  1  0  0  0  0
 41 74  1  0  0  0  0
 41 81  2  0  0  0  0
 42 63  1  0  0  0  0
 42 71  1  0  0  0  0
 42 82  2  0  0  0  0
 43 64  1  0  0  0  0
 43 75  1  0  0  0  0
 43 83  2  0  0  0  0
 44 47  1  0  0  0  0
 45 54  1  0  0  0  0
 46 71  1  0  0  0  0
 47 49  1  0  0  0  0
 48 50  1  0  0  0  0
 48 51  1  0  0  0  0
 49 53  1  0  0  0  0
 50 55  1  0  0  0  0
 51 70  1  0  0  0  0
 52 55  1  0  0  0  0
 52 70  1  0  0  0  0
 53 74  1  0  0  0  0
 54 71  1  0  0  0  0
 55 68  1  0  0  0  0
 57 64  1  0  0  0  0
 58 65  1  0  0  0  0
 59 65  1  0  0  0  0
 60 65  1  0  0  0  0
 61 76  1  0  0  0  0
 62 85  1  0  0  0  0
 63 65  1  0  0  0  0
 63 75  1  0  0  0  0
 64 76  1  0  0  0  0
 66 68  1  0  0  0  0
M  CHG  1  76   1
M  ISO  4  38 100  40 100  62 101  85 101
M  END
> <Batch ID>
0080

> <Smiles>
CNC(C)C(=O)NC(C(=O)N1Cc2cc([101O:1][101CH2:1]C3=C(C)C(=O)N(c4cccc([100C:0](=N)[100C:0](=O)N5CCCC(n6nc(-c7ccc(Oc8ccc(F)cc8F)cc7)c(C(N)=O)c6N)C5)c4)C3=O)ccc2CC1C(=O)NC1CCCc2ccccc21)C(C)(C)C

> <Shape>
0.197

> <Color>
0.066

> <Negative vol penalty>
0.000

$$$$

  -OEChem-04052300023D

 85 94  0     1  0  0  0  0  0999 V2000
  -31.1452  -35.1915   21.1787 C   0  0  0  0  0  0  0  0  0  0  0  0
  -30.9271  -33.9049   20.6965 C   0  0  0  0  0  0  0  0  0  0  0  0
  -24.7817  -18.8369   17.6953 C   0  0  0  0  0  0  0  0  0  0  0  0
  -24.7509   -8.7863   21.5838 C   0  0  0  0  0  0  0  0  0  0  0  0
  -23.1968  -10.2559   20.4603 C   0  0  0  0  0  0  0  0  0  0  0  0
  -30.5527  -35.5965   22.3741 C   0  0  0  0  0  0  0  0  0  0  0  0
  -30.1171  -33.0222   21.4100 C   0  0  0  0  0  0  0  0  0  0  0  0
  -26.3824  -28.7587   19.0904 C   0  0  0  0  0  0  0  0  0  0  0  0
  -25.3558  -19.9913   18.2276 C   0  0  0  0  0  0  0  0  0  0  0  0
  -25.4395  -17.6125   17.8137 C   0  0  0  0  0  0  0  0  0  0  0  0
  -23.7296   -8.3526   22.4291 C   0  0  0  0  0  0  0  0  0  0  0  0
  -22.1755   -9.8221   21.3055 C   0  0  0  0  0  0  0  0  0  0  0  0
  -26.5297  -27.3853   18.9010 C   0  0  0  0  0  0  0  0  0  0  0  0
  -21.1154   -6.2130   22.2832 C   0  0  0  0  0  0  0  0  0  0  0  0
  -21.0057   -4.8423   22.5168 C   0  0  0  0  0  0  0  0  0  0  0  0
  -25.3953  -26.9816   20.9913 C   0  0  0  0  0  0  0  0  0  0  0  0
  -27.2453  -18.6971   18.9967 C   0  0  0  0  0  0  0  0  0  0  0  0
  -21.3391   -5.2184   24.8800 C   0  0  0  0  0  0  0  0  0  0  0  0
  -24.4845   -9.7381   20.5994 C   0  0  0  0  0  0  0  0  0  0  0  0
  -25.9105   -9.6324   18.4869 C   0  0  0  0  0  0  0  0  0  0  0  0
  -29.7273  -34.7214   23.0976 C   0  0  0  0  0  0  0  0  0  0  0  0
  -25.7490  -29.2550   20.2388 C   0  0  0  0  0  0  0  0  0  0  0  0
  -29.5141  -33.4154   22.6169 C   0  0  0  0  0  0  0  0  0  0  0  0
  -25.2389  -28.3616   21.1916 C   0  0  0  0  0  0  0  0  0  0  0  0
  -26.5876  -19.9214   18.8783 C   0  0  0  0  0  0  0  0  0  0  0  0
  -26.6713  -17.5426   18.4644 C   0  0  0  0  0  0  0  0  0  0  0  0
  -22.4419   -8.8704   22.2899 C   0  0  0  0  0  0  0  0  0  0  0  0
  -26.0387  -26.4966   19.8529 C   0  0  0  0  0  0  0  0  0  0  0  0
  -21.3371   -7.0865   23.3479 C   0  0  0  0  0  0  0  0  0  0  0  0
  -21.1175   -4.3450   23.8152 C   0  0  0  0  0  0  0  0  0  0  0  0
  -21.4489   -6.5892   24.6463 C   0  0  0  0  0  0  0  0  0  0  0  0
  -25.5391  -10.1870   19.7263 C   0  0  0  0  0  0  0  0  0  0  0  0
  -26.9564  -10.4139   18.0606 C   0  0  0  0  0  0  0  0  0  0  0  0
  -27.5508  -23.2510   20.0419 C   0  0  0  0  0  0  0  0  0  0  0  0
  -28.6823  -22.4877   20.5052 C   0  0  0  0  0  0  0  0  0  0  0  0
  -26.5850  -22.3543   19.3476 C   0  0  0  0  0  0  0  0  0  0  0  0
  -29.7591  -22.9198   21.1703 C   0  0  0  0  0  0  0  0  0  0  0  0
  -27.3071  -24.5560   20.1626 C   0  0  0  0  0  0  0  0  0  1  0  0
  -25.3593   -8.5110   17.7837 C   0  0  0  0  0  0  0  0  0  0  0  0
  -26.6384  -31.0959   22.6727 C   0  0  0  0  0  0  0  0  0  0  0  0
  -23.4978  -30.9009   23.4607 C   0  0  0  0  0  0  0  0  0  0  0  0
  -20.5572  -29.1828   23.2422 C   0  0  0  0  0  0  0  0  0  0  0  0
  -28.5664  -16.0545   19.1994 C   0  0  0  0  0  0  0  0  0  0  0  0
  -29.1467  -35.1887   24.4089 C   0  0  0  0  0  0  0  0  0  0  0  0
  -25.5743  -30.7385   20.4153 C   0  0  0  0  0  0  0  0  0  0  0  0
  -24.5330  -28.8429   22.4320 C   0  0  0  0  0  0  0  0  0  0  0  0
  -28.4462  -21.0635   20.1023 C   0  0  0  0  0  0  0  0  0  0  0  0
  -27.9999  -34.3162   24.9127 C   0  0  0  0  0  0  0  0  0  0  0  0
  -30.5266  -13.1309   19.7358 C   0  0  0  0  0  0  0  0  0  0  0  0
  -28.3666  -32.8393   24.8071 C   0  0  0  0  0  0  0  0  0  0  0  0
  -29.5047  -11.9932   19.6754 C   0  0  0  0  0  0  0  0  0  0  0  0
  -29.9488  -14.3773   20.4040 C   0  0  0  0  0  0  0  0  0  0  0  0
  -27.6598  -13.7175   19.7758 C   0  0  0  0  0  0  0  0  0  0  0  0
  -28.6218  -32.4370   23.3495 C   0  0  1  0  0  0  0  0  0  0  0  0
  -25.3688  -31.1470   21.8707 C   0  0  1  0  0  0  0  0  0  0  0  0
  -28.1751  -12.4624   19.0528 C   0  0  2  0  0  0  0  0  0  0  0  0
  -18.1731  -29.2509   24.0227 C   0  0  0  0  0  0  0  0  0  0  0  0
  -24.3789  -29.9604   26.2264 C   0  0  0  0  0  0  0  0  0  0  0  0
  -22.0418  -29.1530   26.6198 C   0  0  0  0  0  0  0  0  0  0  0  0
  -22.4728  -31.5794   26.2333 C   0  0  0  0  0  0  0  0  0  0  0  0
  -19.5325  -29.3407   20.4702 C   0  0  0  0  0  0  0  0  0  0  0  0
  -22.6619  -29.9634   24.2982 C   0  0  1  0  0  0  0  0  0  0  0  0
  -19.1456  -29.6389   22.9197 C   0  0  2  0  0  0  0  0  0  0  0  0
  -22.9038  -30.1547   25.8221 C   0  0  0  0  0  0  0  0  0  0  0  0
  -26.2883  -11.2394   20.0655 N   0  0  0  0  0  0  0  0  0  0  0  0
  -27.1410  -11.3523   19.0329 N   0  0  0  0  0  0  0  0  0  0  0  0
  -27.1593  -21.0732   19.4095 N   0  0  0  0  0  0  0  0  0  0  0  0
  -24.3926  -30.3026   22.5623 N   0  0  0  0  0  0  0  0  0  0  0  0
  -28.6925  -14.7654   19.7590 N   0  0  0  0  0  0  0  0  0  0  0  0
  -27.7271  -10.3830   16.9527 N   0  0  0  0  0  0  0  0  0  0  0  0
  -24.2871   -7.8198   18.3642 N   0  0  0  0  0  0  0  0  0  0  0  0
  -27.3388  -16.2986   18.5845 N   0  0  0  0  0  0  0  0  0  0  0  0
  -27.3689  -32.2684   22.6450 N   0  0  0  0  0  0  0  0  0  0  0  0
  -21.2785  -30.1681   23.8825 N   0  0  0  0  0  0  0  0  0  0  0  0
  -18.6807  -29.0226   21.6450 N   0  3  0  0  0  0  0  0  0  0  0  0
  -25.5276  -22.6934   18.8431 O   0  0  0  0  0  0  0  0  0  0  0  0
  -25.8149   -8.1232   16.6812 O   0  0  0  0  0  0  0  0  0  0  0  0
  -26.9326  -30.0691   23.2735 O   0  0  0  0  0  0  0  0  0  0  0  0
  -23.3567  -32.1191   23.5936 O   0  0  0  0  0  0  0  0  0  0  0  0
  -20.9766  -28.0630   22.9581 O   0  0  0  0  0  0  0  0  0  0  0  0
  -29.4900  -16.8715   19.2371 O   0  0  0  0  0  0  0  0  0  0  0  0
  -21.4451   -8.4472   23.1144 O   0  0  0  0  0  0  0  0  0  0  0  0
  -26.1817  -25.1556   19.6709 O   0  0  0  0  0  0  0  0  0  1  0  0
  -21.0105   -3.0288   24.0397 F   0  0  0  0  0  0  0  0  0  0  0  0
  -21.6607   -7.4235   25.6734 F   0  0  0  0  0  0  0  0  0  0  0  0
  1  2  1  0  0  0  0
  1  6  2  0  0  0  0
  2  7  2  0  0  0  0
  3  9  2  0  0  0  0
  3 10  1  0  0  0  0
  4 11  2  0  0  0  0
  4 19  1  0  0  0  0
  5 12  1  0  0  0  0
  5 19  2  0  0  0  0
  6 21  1  0  0  0  0
  7 23  1  0  0  0  0
  8 13  2  0  0  0  0
  8 22  1  0  0  0  0
  9 25  1  0  0  0  0
 10 26  2  0  0  0  0
 11 27  1  0  0  0  0
 12 27  2  0  0  0  0
 13 28  1  0  0  0  0
 14 15  2  0  0  0  0
 14 29  1  0  0  0  0
 15 30  1  0  0  0  0
 16 24  1  0  0  0  0
 16 28  2  0  0  0  0
 17 25  2  0  0  0  0
 17 26  1  0  0  0  0
 18 30  2  0  0  0  0
 18 31  1  0  0  0  0
 19 32  1  0  0  0  0
 20 32  1  0  0  0  0
 20 33  2  0  0  0  0
 20 39  1  0  0  0  0
 21 23  2  0  0  0  0
 21 44  1  0  0  0  0
 22 24  2  0  0  0  0
 22 45  1  0  0  0  0
 23 54  1  0  0  0  0
 24 46  1  0  0  0  0
 25 67  1  0  0  0  0
 26 72  1  0  0  0  0
 27 82  1  0  0  0  0
 28 83  1  0  0  0  0
 29 31  2  0  0  0  0
 29 82  1  0  0  0  0
 30 84  1  0  0  0  0
 31 85  1  0  0  0  0
 32 65  2  0  0  0  0
 33 66  1  0  0  0  0
 33 70  1  0  0  0  0
 34 35  1  0  0  0  0
 34 36  1  0  0  0  0
 34 38  2  0  0  0  0
 35 37  2  0  0  0  0
 35 47  1  0  0  0  0
 36 67  1  0  0  0  0
 36 76  2  0  0  0  0
 38 83  1  0  0  0  0
 39 71  1  0  0  0  0
 39 77  2  0  0  0  0
 40 55  1  0  0  0  0
 40 73  1  0  0  0  0
 40 78  2  0  0  0  0
 41 62  1  0  0  0  0
 41 68  1  0  0  0  0
 41 79  2  0  0  0  0
 42 63  1  0  0  0  0
 42 74  1  0  0  0  0
 42 80  2  0  0  0  0
 43 69  1  0  0  0  0
 43 72  1  0  0  0  0
 43 81  2  0  0  0  0
 44 48  1  0  0  0  0
 45 55  1  0  0  0  0
 46 68  1  0  0  0  0
 47 67  1  0  0  0  0
 48 50  1  0  0  0  0
 49 51  1  0  0  0  0
 49 52  1  0  0  0  0
 50 54  1  0  0  0  0
 51 56  1  0  0  0  0
 52 69  1  0  0  0  0
 53 56  1  0  0  0  0
 53 69  1  0  0  0  0
 54 73  1  0  0  0  0
 55 68  1  0  0  0  0
 56 66  1  0  0  0  0
 57 63  1  0  0  0  0
 58 64  1  0  0  0  0
 59 64  1  0  0  0  0
 60 64  1  0  0  0  0
 61 75  1  0  0  0  0
 62 64  1  0  0  0  0
 62 74  1  0  0  0  0
 63 75  1  0  0  0  0
 65 66  1  0  0  0  0
M  CHG  1  75   1
M  ISO  4  38 101  43 100  72 100  83 101
M  END
> <Batch ID>
0080

> <Smiles>
C=C1CN(c2cccc([100NH:0][100C:0](=O)N3CCCC(n4nc(-c5ccc(Oc6ccc(F)cc6F)cc5)c(C(N)=O)c4N)C3)c2)C(=O)C1=[101CH:1][101O:1]c1ccc2c(c1)CN(C(=O)C(NC(=O)C(C)NC)C(C)(C)C)C(C(=O)NC1CCCc3ccccc31)C2

> <Shape>
0.275

> <Color>
0.105

> <Negative vol penalty>
0.000

$$$$

  -OEChem-04052300023D

 87 96  0     1  0  0  0  0  0999 V2000
  -33.6497  -30.0704   17.5577 C   0  0  0  0  0  0  0  0  0  0  0  0
  -32.8545  -29.3610   18.4520 C   0  0  0  0  0  0  0  0  0  0  0  0
  -22.8763  -11.5133   18.8539 C   0  0  0  0  0  0  0  0  0  0  0  0
  -23.0453  -10.0122   20.7394 C   0  0  0  0  0  0  0  0  0  0  0  0
  -30.4756  -19.3106   21.4859 C   0  0  0  0  0  0  0  0  0  0  0  0
  -28.5300  -18.4481   20.3424 C   0  0  0  0  0  0  0  0  0  0  0  0
  -33.8244  -31.4441   17.7201 C   0  0  0  0  0  0  0  0  0  0  0  0
  -32.2343  -30.0248   19.5100 C   0  0  0  0  0  0  0  0  0  0  0  0
  -27.3985  -28.6434   20.1027 C   0  0  0  0  0  0  0  0  0  0  0  0
  -29.8115  -20.5173   21.7058 C   0  0  0  0  0  0  0  0  0  0  0  0
  -27.8658  -19.6548   20.5624 C   0  0  0  0  0  0  0  0  0  0  0  0
  -21.8631  -10.7211   18.3140 C   0  0  0  0  0  0  0  0  0  0  0  0
  -22.0320   -9.2201   20.1996 C   0  0  0  0  0  0  0  0  0  0  0  0
  -27.1574  -27.4248   20.7355 C   0  0  0  0  0  0  0  0  0  0  0  0
  -21.7235   -6.8729   17.7858 C   0  0  0  0  0  0  0  0  0  0  0  0
  -21.9116   -5.4908   17.7862 C   0  0  0  0  0  0  0  0  0  0  0  0
  -26.6902  -28.5928   22.7938 C   0  0  0  0  0  0  0  0  0  0  0  0
  -19.9287   -5.2212   19.1399 C   0  0  0  0  0  0  0  0  0  0  0  0
  -23.4675  -11.1588   20.0666 C   0  0  0  0  0  0  0  0  0  0  0  0
  -29.8349  -18.2760   20.8042 C   0  0  0  0  0  0  0  0  0  0  0  0
  -24.3655  -13.0649   21.5046 C   0  0  0  0  0  0  0  0  0  0  0  0
  -33.1983  -32.1267   18.7749 C   0  0  0  0  0  0  0  0  0  0  0  0
  -27.2977  -29.8473   20.8147 C   0  0  0  0  0  0  0  0  0  0  0  0
  -32.4019  -31.4087   19.6874 C   0  0  0  0  0  0  0  0  0  0  0  0
  -26.9280  -29.8256   22.1671 C   0  0  0  0  0  0  0  0  0  0  0  0
  -28.5066  -20.6894   21.2441 C   0  0  0  0  0  0  0  0  0  0  0  0
  -21.4409   -9.5745   18.9869 C   0  0  0  0  0  0  0  0  0  0  0  0
  -26.8060  -27.3991   22.0819 C   0  0  0  0  0  0  0  0  0  0  0  0
  -20.6379   -7.4292   18.4625 C   0  0  0  0  0  0  0  0  0  0  0  0
  -21.0143   -4.6650   18.4632 C   0  0  0  0  0  0  0  0  0  0  0  0
  -19.7406   -6.6033   19.1395 C   0  0  0  0  0  0  0  0  0  0  0  0
  -24.5146  -11.9764   20.6244 C   0  0  0  0  0  0  0  0  0  0  0  0
  -25.6483  -13.4980   21.7354 C   0  0  0  0  0  0  0  0  0  0  0  0
  -26.2662  -23.5672   21.5015 C   0  0  0  0  0  0  0  0  0  0  0  0
  -27.4224  -24.0892   22.1857 C   0  0  0  0  0  0  0  0  0  0  0  0
  -26.5337  -22.1750   21.0444 C   0  0  0  0  0  0  0  0  0  0  0  0
  -25.0895  -24.1540   21.2603 C   0  0  0  0  0  0  0  0  0  0  0  0
  -30.5366  -17.0011   20.5717 C   0  0  0  0  0  0  0  0  0  0  0  0
  -23.1740  -13.6337   22.0636 C   0  0  0  0  0  0  0  0  0  0  0  0
  -27.5840  -25.2946   22.7427 C   0  0  0  0  0  0  0  0  0  1  0  0
  -29.3169  -32.1840   21.5675 C   0  0  0  0  0  0  0  0  0  0  0  0
  -26.6374  -33.5980   22.7262 C   0  0  0  0  0  0  0  0  0  0  0  0
  -23.4694  -33.2427   23.9446 C   0  0  0  0  0  0  0  0  0  0  0  0
  -30.6920  -14.8522   19.7657 C   0  0  0  0  0  0  0  0  0  0  0  0
  -33.4550  -33.6040   18.9374 C   0  0  0  0  0  0  0  0  0  0  0  0
  -27.5349  -31.1553   20.1107 C   0  0  0  0  0  0  0  0  0  0  0  0
  -26.7865  -31.0914   22.9709 C   0  0  0  0  0  0  0  0  0  0  0  0
  -28.4644  -23.0119   22.1721 C   0  0  0  0  0  0  0  0  0  0  0  0
  -32.4607  -34.2965   19.8659 C   0  0  0  0  0  0  0  0  0  0  0  0
  -30.1001  -11.3956   20.6062 C   0  0  0  0  0  0  0  0  0  0  0  0
  -32.2682  -33.4846   21.1429 C   0  0  0  0  0  0  0  0  0  0  0  0
  -28.5778  -11.3227   20.7231 C   0  0  0  0  0  0  0  0  0  0  0  0
  -30.5320  -12.3749   19.5189 C   0  0  0  0  0  0  0  0  0  0  0  0
  -28.4425  -13.6795   19.8030 C   0  0  0  0  0  0  0  0  0  0  0  0
  -31.6927  -32.0974   20.8331 C   0  0  1  0  0  0  0  0  0  0  0  0
  -27.9053  -32.2879   21.0633 C   0  0  1  0  0  0  0  0  0  0  0  0
  -27.9700  -12.7240   20.9120 C   0  0  1  0  0  0  0  0  0  0  0  0
  -28.8386  -25.7271   23.4307 C   0  0  0  0  0  0  0  0  0  0  0  0
  -21.5434  -34.5767   24.8435 C   0  0  0  0  0  0  0  0  0  0  0  0
  -28.1152  -33.9434   25.3732 C   0  0  0  0  0  0  0  0  0  0  0  0
  -25.9072  -34.3828   26.4686 C   0  0  0  0  0  0  0  0  0  0  0  0
  -26.7379  -35.9133   24.6826 C   0  0  0  0  0  0  0  0  0  0  0  0
  -21.6775  -32.3389   21.7694 C   0  0  0  0  0  0  0  0  0  0  0  0
  -25.9212  -33.6044   24.0551 C   0  0  1  0  0  0  0  0  0  0  0  0
  -22.1738  -33.9576   23.6058 C   0  0  2  0  0  0  0  0  0  0  0  0
  -26.6749  -34.4368   25.1305 C   0  0  0  0  0  0  0  0  0  0  0  0
  -25.7914  -11.7331   20.3169 N   0  0  0  0  0  0  0  0  0  0  0  0
  -29.9743  -16.0191   19.9465 N   0  0  0  0  0  0  0  0  0  0  0  0
  -26.4563  -12.6748   21.0076 N   0  0  0  0  0  0  0  0  0  0  0  0
  -27.8449  -21.8933   21.4641 N   0  0  0  0  0  0  0  0  0  0  0  0
  -27.0349  -32.3447   22.2395 N   0  0  0  0  0  0  0  0  0  0  0  0
  -29.9086  -13.6848   19.7130 N   0  0  0  0  0  0  0  0  0  0  0  0
  -26.1527  -14.4989   22.4879 N   0  0  0  0  0  0  0  0  0  0  0  0
  -21.9388  -13.0664   21.7217 N   0  0  0  0  0  0  0  0  0  0  0  0
  -30.2725  -32.1869   20.5693 N   0  0  0  0  0  0  0  0  0  0  0  0
  -24.5638  -34.0661   23.7851 N   0  0  0  0  0  0  0  0  0  0  0  0
  -21.1970  -33.0040   23.0079 N   0  3  0  0  0  0  0  0  0  0  0  0
  -25.7563  -21.4586   20.4362 O   0  0  0  0  0  0  0  0  0  0  0  0
  -23.2025  -14.6262   22.8302 O   0  0  0  0  0  0  0  0  0  0  0  0
  -29.5239  -32.1083   22.7729 O   0  0  0  0  0  0  0  0  0  0  0  0
  -26.8304  -34.6651   22.1382 O   0  0  0  0  0  0  0  0  0  0  0  0
  -23.5065  -32.0721   24.3172 O   0  0  0  0  0  0  0  0  0  0  0  0
  -31.9193  -14.8108   19.6512 O   0  0  0  0  0  0  0  0  0  0  0  0
  -20.4520   -8.8015   18.4605 O   0  0  0  0  0  0  0  0  0  0  0  0
  -26.5708  -26.2109   22.7022 O   0  0  0  0  0  0  0  0  0  1  0  0
  -21.1942   -3.3376   18.4622 F   0  0  0  0  0  0  0  0  0  0  0  0
  -18.6952   -7.1319   19.7904 F   0  0  0  0  0  0  0  0  0  0  0  0
  1  2  1  0  0  0  0
  1  7  2  0  0  0  0
  2  8  2  0  0  0  0
  3 12  2  0  0  0  0
  3 19  1  0  0  0  0
  4 13  1  0  0  0  0
  4 19  2  0  0  0  0
  5 10  2  0  0  0  0
  5 20  1  0  0  0  0
  6 11  1  0  0  0  0
  6 20  2  0  0  0  0
  7 22  1  0  0  0  0
  8 24  1  0  0  0  0
  9 14  2  0  0  0  0
  9 23  1  0  0  0  0
 10 26  1  0  0  0  0
 11 26  2  0  0  0  0
 12 27  1  0  0  0  0
 13 27  2  0  0  0  0
 14 28  1  0  0  0  0
 15 16  2  0  0  0  0
 15 29  1  0  0  0  0
 16 30  1  0  0  0  0
 17 25  1  0  0  0  0
 17 28  2  0  0  0  0
 18 30  2  0  0  0  0
 18 31  1  0  0  0  0
 19 32  1  0  0  0  0
 20 38  1  0  0  0  0
 21 32  1  0  0  0  0
 21 33  2  0  0  0  0
 21 39  1  0  0  0  0
 22 24  2  0  0  0  0
 22 45  1  0  0  0  0
 23 25  2  0  0  0  0
 23 46  1  0  0  0  0
 24 55  1  0  0  0  0
 25 47  1  0  0  0  0
 26 70  1  0  0  0  0
 27 84  1  0  0  0  0
 28 85  1  0  0  0  0
 29 31  2  0  0  0  0
 29 84  1  0  0  0  0
 30 86  1  0  0  0  0
 31 87  1  0  0  0  0
 32 67  2  0  0  0  0
 33 69  1  0  0  0  0
 33 73  1  0  0  0  0
 34 35  1  0  0  0  0
 34 36  1  0  0  0  0
 34 37  2  0  0  0  0
 35 40  2  0  0  0  0
 35 48  1  0  0  0  0
 36 70  1  0  0  0  0
 36 78  2  0  0  0  0
 38 68  2  0  0  0  0
 39 74  1  0  0  0  0
 39 79  2  0  0  0  0
 40 58  1  0  0  0  0
 40 85  1  0  0  0  0
 41 56  1  0  0  0  0
 41 75  1  0  0  0  0
 41 80  2  0  0  0  0
 42 64  1  0  0  0  0
 42 71  1  0  0  0  0
 42 81  2  0  0  0  0
 43 65  1  0  0  0  0
 43 76  1  0  0  0  0
 43 82  2  0  0  0  0
 44 68  1  0  0  0  0
 44 72  1  0  0  0  0
 44 83  2  0  0  0  0
 45 49  1  0  0  0  0
 46 56  1  0  0  0  0
 47 71  1  0  0  0  0
 48 70  1  0  0  0  0
 49 51  1  0  0  0  0
 50 52  1  0  0  0  0
 50 53  1  0  0  0  0
 51 55  1  0  0  0  0
 52 57  1  0  0  0  0
 53 72  1  0  0  0  0
 54 57  1  0  0  0  0
 54 72  1  0  0  0  0
 55 75  1  0  0  0  0
 56 71  1  0  0  0  0
 57 69  1  0  0  0  0
 59 65  1  0  0  0  0
 60 66  1  0  0  0  0
 61 66  1  0  0  0  0
 62 66  1  0  0  0  0
 63 77  1  0  0  0  0
 64 66  1  0  0  0  0
 64 76  1  0  0  0  0
 65 77  1  0  0  0  0
 67 69  1  0  0  0  0
M  CHG  1  77   1
M  ISO  4  40 101  44 100  68 100  85 101
M  END
> <Batch ID>
0080

> <Smiles>
C=C1C(=O)N(c2ccc(C=[100N:0][100C:0](=O)N3CCCC(n4nc(-c5ccc(Oc6ccc(F)cc6F)cc5)c(C(N)=O)c4N)C3)cc2)CC1=[101C:1](C)[101O:1]c1ccc2c(c1)CN(C(=O)C(NC(=O)C(C)NC)C(C)(C)C)C(C(=O)NC1CCCc3ccccc31)C2

> <Shape>
0.219

> <Color>
0.118

> <Negative vol penalty>
0.000

$$$$

  -OEChem-04052300023D

 87 96  0     1  0  0  0  0  0999 V2000
  -15.6114  -30.2863   18.6592 C   0  0  0  0  0  0  0  0  0  0  0  0
  -16.6551  -29.3665   18.6457 C   0  0  0  0  0  0  0  0  0  0  0  0
  -22.9898  -10.2541   19.9563 C   0  0  0  0  0  0  0  0  0  0  0  0
  -23.8773   -9.6248   22.1135 C   0  0  0  0  0  0  0  0  0  0  0  0
  -28.2817  -19.8217   18.0250 C   0  0  0  0  0  0  0  0  0  0  0  0
  -26.7412  -18.0361   17.4999 C   0  0  0  0  0  0  0  0  0  0  0  0
  -15.8744  -31.6337   18.9026 C   0  0  0  0  0  0  0  0  0  0  0  0
  -17.9625  -29.7938   18.8746 C   0  0  0  0  0  0  0  0  0  0  0  0
  -20.4654  -26.7643   22.0688 C   0  0  0  0  0  0  0  0  0  0  0  0
  -27.2175  -20.7212   18.0885 C   0  0  0  0  0  0  0  0  0  0  0  0
  -25.6770  -18.9356   17.5634 C   0  0  0  0  0  0  0  0  0  0  0  0
  -22.1441   -9.1451   19.9807 C   0  0  0  0  0  0  0  0  0  0  0  0
  -23.0315   -8.5159   22.1379 C   0  0  0  0  0  0  0  0  0  0  0  0
  -20.9551  -25.5639   21.5560 C   0  0  0  0  0  0  0  0  0  0  0  0
  -22.9377   -5.4238   20.7738 C   0  0  0  0  0  0  0  0  0  0  0  0
  -23.4820   -4.2023   21.1703 C   0  0  0  0  0  0  0  0  0  0  0  0
  -23.1476  -26.5502   21.3576 C   0  0  0  0  0  0  0  0  0  0  0  0
  -21.9098   -4.0962   23.0017 C   0  0  0  0  0  0  0  0  0  0  0  0
  -23.8564  -10.4939   21.0227 C   0  0  0  0  0  0  0  0  0  0  0  0
  -28.0436  -18.4792   17.7307 C   0  0  0  0  0  0  0  0  0  0  0  0
  -24.4553  -12.9296   21.4878 C   0  0  0  0  0  0  0  0  0  0  0  0
  -17.1846  -32.0762   19.1441 C   0  0  0  0  0  0  0  0  0  0  0  0
  -21.3121  -27.8719   22.2199 C   0  0  0  0  0  0  0  0  0  0  0  0
  -18.2435  -31.1486   19.1201 C   0  0  0  0  0  0  0  0  0  0  0  0
  -22.6668  -27.7627   21.8749 C   0  0  0  0  0  0  0  0  0  0  0  0
  -25.9151  -20.2781   17.8577 C   0  0  0  0  0  0  0  0  0  0  0  0
  -22.1649   -8.2760   21.0715 C   0  0  0  0  0  0  0  0  0  0  0  0
  -22.2958  -25.4576   21.1976 C   0  0  0  0  0  0  0  0  0  0  0  0
  -21.8795   -5.9816   21.4912 C   0  0  0  0  0  0  0  0  0  0  0  0
  -22.9681   -3.5385   22.2843 C   0  0  0  0  0  0  0  0  0  0  0  0
  -21.3655   -5.3178   22.6052 C   0  0  0  0  0  0  0  0  0  0  0  0
  -24.7307  -11.6390   20.9977 C   0  0  0  0  0  0  0  0  0  0  0  0
  -25.5976  -13.6466   21.2279 C   0  0  0  0  0  0  0  0  0  0  0  0
  -24.8313  -22.3167   18.7437 C   0  0  0  0  0  0  0  0  0  0  0  0
  -23.8285  -23.2077   18.8353 C   0  0  0  0  0  0  0  0  0  0  0  0
  -22.8156  -22.0808   16.8431 C   0  0  0  0  0  0  0  0  0  0  0  0
  -22.3759  -22.3308   15.6002 C   0  0  0  0  0  0  0  0  0  0  0  0
  -29.1770  -17.5213   17.6630 C   0  0  0  0  0  0  0  0  0  0  0  0
  -23.2726  -13.4352   22.1213 C   0  0  0  0  0  0  0  0  0  0  0  0
  -21.4026  -30.8083   21.0060 C   0  0  0  0  0  0  0  0  0  0  0  0
  -23.8361  -31.1857   23.1175 C   0  0  0  0  0  0  0  0  0  0  0  0
  -26.2863  -29.7407   25.0029 C   0  0  0  0  0  0  0  0  0  0  0  0
  -29.7696  -15.1302   17.8975 C   0  0  0  0  0  0  0  0  0  0  0  0
  -17.4256  -33.5500   19.3556 C   0  0  0  0  0  0  0  0  0  0  0  0
  -20.7744  -29.1515   22.7995 C   0  0  0  0  0  0  0  0  0  0  0  0
  -23.6217  -28.9162   22.0365 C   0  0  0  0  0  0  0  0  0  0  0  0
  -22.5967  -23.0562   17.9766 C   0  0  0  0  0  0  0  0  0  0  0  0
  -23.6038  -20.8329   17.1796 C   0  0  0  0  0  0  0  0  0  0  0  0
  -18.7920  -33.8631   19.9600 C   0  0  0  0  0  0  0  0  0  0  0  0
  -30.1754  -12.1137   19.6956 C   0  0  0  0  0  0  0  0  0  0  0  0
  -19.8860  -33.0808   19.2404 C   0  0  0  0  0  0  0  0  0  0  0  0
  -28.7744  -11.8286   20.2435 C   0  0  0  0  0  0  0  0  0  0  0  0
  -30.1244  -12.7080   18.2888 C   0  0  0  0  0  0  0  0  0  0  0  0
  -27.8646  -13.5985   18.6867 C   0  0  0  0  0  0  0  0  0  0  0  0
  -19.6720  -31.5696   19.3885 C   0  0  1  0  0  0  0  0  0  0  0  0
  -21.6101  -30.3728   22.4291 C   0  0  1  0  0  0  0  0  0  0  0  0
  -27.8596  -13.0645   20.1282 C   0  0  1  0  0  0  0  0  0  0  0  0
  -28.1395  -30.3098   26.5963 C   0  0  0  0  0  0  0  0  0  0  0  0
  -25.5510  -32.1361   20.7796 C   0  0  0  0  0  0  0  0  0  0  0  0
  -27.5750  -31.7766   22.2087 C   0  0  0  0  0  0  0  0  0  0  0  0
  -25.8488  -33.4432   22.8908 C   0  0  0  0  0  0  0  0  0  0  0  0
  -25.0478  -28.1721   27.1858 C   0  0  0  0  0  0  0  0  0  0  0  0
  -23.8634  -24.3727   19.7759 C   0  0  0  0  0  0  0  0  0  1  0  0
  -25.3304  -30.9755   23.0753 C   0  0  1  0  0  0  0  0  0  0  0  0
  -26.6756  -29.9217   26.4590 C   0  0  2  0  0  0  0  0  0  0  0  0
  -26.0581  -32.0615   22.2336 C   0  0  0  0  0  0  0  0  0  0  0  0
  -25.9521  -11.5389   20.4666 N   0  0  0  0  0  0  0  0  0  0  0  0
  -26.4543  -12.7758   20.6213 N   0  0  0  0  0  0  0  0  0  0  0  0
  -24.8310  -21.1944   17.9224 N   0  0  0  0  0  0  0  0  0  0  0  0
  -23.0468  -30.1481   22.6016 N   0  0  0  0  0  0  0  0  0  0  0  0
  -29.2458  -13.8788   18.2665 N   0  0  0  0  0  0  0  0  0  0  0  0
  -25.9427  -14.9307   21.4612 N   0  0  0  0  0  0  0  0  0  0  0  0
  -22.1916  -12.5636   22.3110 N   0  0  0  0  0  0  0  0  0  0  0  0
  -28.8607  -16.1929   17.9490 N   0  0  0  0  0  0  0  0  0  0  0  0
  -20.0930  -31.1257   20.7001 N   0  0  0  0  0  0  0  0  0  0  0  0
  -25.7715  -30.9007   24.4639 N   0  0  0  0  0  0  0  0  0  0  0  0
  -26.4514  -28.6577   27.2161 N   0  3  0  0  0  0  0  0  0  0  0  0
  -30.2864  -17.9299   17.3310 O   0  0  0  0  0  0  0  0  0  0  0  0
  -23.1712  -14.6290   22.4930 O   0  0  0  0  0  0  0  0  0  0  0  0
  -22.3600  -30.8543   20.2425 O   0  0  0  0  0  0  0  0  0  0  0  0
  -23.3855  -32.2291   23.5972 O   0  0  0  0  0  0  0  0  0  0  0  0
  -26.4284  -28.6777   24.4026 O   0  0  0  0  0  0  0  0  0  0  0  0
  -30.9534  -15.2944   17.5861 O   0  0  0  0  0  0  0  0  0  0  0  0
  -21.3397   -7.1940   21.0958 O   0  0  0  0  0  0  0  0  0  0  0  0
  -22.7762  -24.2873   20.6962 O   0  0  0  0  0  0  0  0  0  1  0  0
  -23.4898   -2.3647   22.6640 F   0  0  0  0  0  0  0  0  0  0  0  0
  -20.3482   -5.8481   23.2977 F   0  0  0  0  0  0  0  0  0  0  0  0
  1  2  1  0  0  0  0
  1  7  2  0  0  0  0
  2  8  2  0  0  0  0
  3 12  2  0  0  0  0
  3 19  1  0  0  0  0
  4 13  1  0  0  0  0
  4 19  2  0  0  0  0
  5 10  2  0  0  0  0
  5 20  1  0  0  0  0
  6 11  1  0  0  0  0
  6 20  2  0  0  0  0
  7 22  1  0  0  0  0
  8 24  1  0  0  0  0
  9 14  2  0  0  0  0
  9 23  1  0  0  0  0
 10 26  1  0  0  0  0
 11 26  2  0  0  0  0
 12 27  1  0  0  0  0
 13 27  2  0  0  0  0
 14 28  1  0  0  0  0
 15 16  2  0  0  0  0
 15 29  1  0  0  0  0
 16 30  1  0  0  0  0
 17 25  1  0  0  0  0
 17 28  2  0  0  0  0
 18 30  2  0  0  0  0
 18 31  1  0  0  0  0
 19 32  1  0  0  0  0
 20 38  1  0  0  0  0
 21 32  1  0  0  0  0
 21 33  2  0  0  0  0
 21 39  1  0  0  0  0
 22 24  2  0  0  0  0
 22 44  1  0  0  0  0
 23 25  2  0  0  0  0
 23 45  1  0  0  0  0
 24 55  1  0  0  0  0
 25 46  1  0  0  0  0
 26 69  1  0  0  0  0
 27 84  1  0  0  0  0
 28 85  1  0  0  0  0
 29 31  2  0  0  0  0
 29 84  1  0  0  0  0
 30 86  1  0  0  0  0
 31 87  1  0  0  0  0
 32 67  2  0  0  0  0
 33 68  1  0  0  0  0
 33 72  1  0  0  0  0
 34 35  2  0  0  0  0
 34 69  1  0  0  0  0
 35 47  1  0  0  0  0
 35 63  1  0  0  0  0
 36 37  2  0  0  0  0
 36 47  1  0  0  0  0
 36 48  1  0  0  0  0
 38 74  1  0  0  0  0
 38 78  2  0  0  0  0
 39 73  1  0  0  0  0
 39 79  2  0  0  0  0
 40 56  1  0  0  0  0
 40 75  1  0  0  0  0
 40 80  2  0  0  0  0
 41 64  1  0  0  0  0
 41 70  1  0  0  0  0
 41 81  2  0  0  0  0
 42 65  1  0  0  0  0
 42 76  1  0  0  0  0
 42 82  2  0  0  0  0
 43 71  1  0  0  0  0
 43 74  1  0  0  0  0
 43 83  2  0  0  0  0
 44 49  1  0  0  0  0
 45 56  1  0  0  0  0
 46 70  1  0  0  0  0
 48 69  1  0  0  0  0
 49 51  1  0  0  0  0
 50 52  1  0  0  0  0
 50 53  1  0  0  0  0
 51 55  1  0  0  0  0
 52 57  1  0  0  0  0
 53 71  1  0  0  0  0
 54 57  1  0  0  0  0
 54 71  1  0  0  0  0
 55 75  1  0  0  0  0
 56 70  1  0  0  0  0
 57 68  1  0  0  0  0
 58 65  1  0  0  0  0
 59 66  1  0  0  0  0
 60 66  1  0  0  0  0
 61 66  1  0  0  0  0
 62 77  1  0  0  0  0
 63 85  1  0  0  0  0
 64 66  1  0  0  0  0
 64 76  1  0  0  0  0
 65 77  1  0  0  0  0
 67 68  1  0  0  0  0
M  CHG  1  77   1
M  ISO  4  43 100  63 101  74 100  85 101
M  END
> <Batch ID>
0080

> <Smiles>
C=C1CC([101CH2:1][101O:1]c2ccc3c(c2)CN(C(=O)C(NC(=O)C(C)NC)C(C)(C)C)C(C(=O)NC2CCCc4ccccc42)C3)=CN(c2ccc(C(=O)[100NH:0][100C:0](=O)N3CCCC(n4nc(-c5ccc(Oc6ccc(F)cc6F)cc5)c(C(N)=O)c4N)C3)cc2)C1

> <Shape>
0.262

> <Color>
0.135

> <Negative vol penalty>
0.000

$$$$

  -OEChem-04052300023D

 87 96  0     1  0  0  0  0  0999 V2000
  -18.2949  -25.4190   21.5540 C   0  0  0  0  0  0  0  0  0  0  0  0
  -19.4159  -25.7522   20.8006 C   0  0  0  0  0  0  0  0  0  0  0  0
  -27.2539  -10.7006   20.1973 C   0  0  0  0  0  0  0  0  0  0  0  0
  -26.4485  -12.1990   18.4818 C   0  0  0  0  0  0  0  0  0  0  0  0
  -17.6581  -26.3927   22.3223 C   0  0  0  0  0  0  0  0  0  0  0  0
  -19.9001  -27.0598   20.8141 C   0  0  0  0  0  0  0  0  0  0  0  0
  -24.9378  -27.2610   21.2901 C   0  0  0  0  0  0  0  0  0  0  0  0
  -26.1086   -9.9180   20.0516 C   0  0  0  0  0  0  0  0  0  0  0  0
  -25.3031  -11.4163   18.3360 C   0  0  0  0  0  0  0  0  0  0  0  0
  -25.6960  -26.9996   20.1497 C   0  0  0  0  0  0  0  0  0  0  0  0
  -22.8766  -10.0264   21.0348 C   0  0  0  0  0  0  0  0  0  0  0  0
  -22.2311   -9.6011   22.1959 C   0  0  0  0  0  0  0  0  0  0  0  0
  -26.0031  -29.3692   19.8182 C   0  0  0  0  0  0  0  0  0  0  0  0
  -28.4371  -21.0547   17.2823 C   0  0  0  0  0  0  0  0  0  0  0  0
  -27.8648  -21.4078   14.9618 C   0  0  0  0  0  0  0  0  0  0  0  0
  -28.7159  -19.2649   15.6835 C   0  0  0  0  0  0  0  0  0  0  0  0
  -22.5809   -7.3001   21.5477 C   0  0  0  0  0  0  0  0  0  0  0  0
  -27.4239  -11.8412   19.4125 C   0  0  0  0  0  0  0  0  0  0  0  0
  -29.9420  -12.2474   19.3738 C   0  0  0  0  0  0  0  0  0  0  0  0
  -18.1405  -27.7107   22.3528 C   0  0  0  0  0  0  0  0  0  0  0  0
  -24.6969  -28.5810   21.6977 C   0  0  0  0  0  0  0  0  0  0  0  0
  -19.2684  -28.0524   21.5825 C   0  0  0  0  0  0  0  0  0  0  0  0
  -25.2436  -29.6446   20.9656 C   0  0  0  0  0  0  0  0  0  0  0  0
  -27.9627  -21.8867   16.2682 C   0  0  0  0  0  0  0  0  0  0  0  0
  -28.8138  -19.7438   16.9899 C   0  0  0  0  0  0  0  0  0  0  0  0
  -25.1332  -10.2758   19.1209 C   0  0  0  0  0  0  0  0  0  0  0  0
  -26.2264  -28.0539   19.4120 C   0  0  0  0  0  0  0  0  0  0  0  0
  -23.3742   -9.0885   20.1301 C   0  0  0  0  0  0  0  0  0  0  0  0
  -22.0832   -8.2381   22.4523 C   0  0  0  0  0  0  0  0  0  0  0  0
  -28.2414  -20.0969   14.6694 C   0  0  0  0  0  0  0  0  0  0  0  0
  -23.2264   -7.7254   20.3866 C   0  0  0  0  0  0  0  0  0  0  0  0
  -28.6065  -12.6504   19.5630 C   0  0  0  0  0  0  0  0  0  0  0  0
  -30.6814  -13.3745   19.6371 C   0  0  0  0  0  0  0  0  0  0  0  0
  -26.8799  -25.9486   16.8634 C   0  0  0  0  0  0  0  0  0  0  0  0
  -28.0925  -25.4156   17.5453 C   0  0  0  0  0  0  0  0  0  0  0  0
  -30.4673  -10.9685   18.9938 C   0  0  0  0  0  0  0  0  0  0  0  0
  -26.3739  -27.1187   17.2732 C   0  0  0  0  0  0  0  0  0  1  0  0
  -22.1000  -30.3765   22.0657 C   0  0  0  0  0  0  0  0  0  0  0  0
  -24.2202  -32.5049   23.2894 C   0  0  0  0  0  0  0  0  0  0  0  0
  -27.4423  -33.6177   23.4512 C   0  0  0  0  0  0  0  0  0  0  0  0
  -29.4545  -19.2164   19.3685 C   0  0  0  0  0  0  0  0  0  0  0  0
  -17.3907  -28.7396   23.1613 C   0  0  0  0  0  0  0  0  0  0  0  0
  -23.8994  -28.8454   22.9452 C   0  0  0  0  0  0  0  0  0  0  0  0
  -25.0312  -31.0791   21.3724 C   0  0  0  0  0  0  0  0  0  0  0  0
  -26.2892  -25.1124   15.7753 C   0  0  0  0  0  0  0  0  0  0  0  0
  -28.2488  -23.9124   17.6558 C   0  0  0  0  0  0  0  0  0  0  0  0
  -18.1896  -30.0155   23.4147 C   0  0  0  0  0  0  0  0  0  0  0  0
  -30.5734  -17.4046   22.2220 C   0  0  0  0  0  0  0  0  0  0  0  0
  -18.8498  -30.4967   22.1265 C   0  0  0  0  0  0  0  0  0  0  0  0
  -30.3231  -15.9428   21.8443 C   0  0  0  0  0  0  0  0  0  0  0  0
  -26.2403  -23.6463   16.1865 C   0  0  0  0  0  0  0  0  0  0  0  0
  -29.4768  -18.3241   21.6876 C   0  0  0  0  0  0  0  0  0  0  0  0
  -28.9625  -16.7422   19.8704 C   0  0  0  0  0  0  0  0  0  0  0  0
  -19.8385  -29.4542   21.5906 C   0  0  1  0  0  0  0  0  0  0  0  0
  -23.2864  -30.2420   22.9778 C   0  0  1  0  0  0  0  0  0  0  0  0
  -30.0748  -15.7862   20.3312 C   0  0  2  0  0  0  0  0  0  0  0  0
  -25.1637  -27.7544   16.6685 C   0  0  0  0  0  0  0  0  0  0  0  0
  -28.8604  -35.3996   24.5054 C   0  0  0  0  0  0  0  0  0  0  0  0
  -23.1242  -34.5474   21.3053 C   0  0  0  0  0  0  0  0  0  0  0  0
  -25.1561  -35.9470   21.7304 C   0  0  0  0  0  0  0  0  0  0  0  0
  -23.5725  -35.4521   23.5933 C   0  0  0  0  0  0  0  0  0  0  0  0
  -29.0997  -31.6202   24.8733 C   0  0  0  0  0  0  0  0  0  0  0  0
  -25.0718  -33.6135   22.7196 C   0  0  1  0  0  0  0  0  0  0  0  0
  -28.3240  -33.9822   24.6320 C   0  0  2  0  0  0  0  0  0  0  0  0
  -24.2337  -34.8632   22.3281 C   0  0  0  0  0  0  0  0  0  0  0  0
  -28.5006  -13.9333   19.9192 N   0  0  0  0  0  0  0  0  0  0  0  0
  -29.7790  -14.3462   19.9560 N   0  0  0  0  0  0  0  0  0  0  0  0
  -27.5854  -23.2015   16.5612 N   0  0  2  0  0  0  0  0  0  0  0  0
  -24.2391  -31.2864   22.5959 N   0  0  0  0  0  0  0  0  0  0  0  0
  -29.3003  -18.1237   20.2476 N   0  0  0  0  0  0  0  0  0  0  0  0
  -32.0089  -13.6193   19.6248 N   0  0  0  0  0  0  0  0  0  0  0  0
  -30.6416  -10.6962   17.6300 N   0  0  0  0  0  0  0  0  0  0  0  0
  -29.2955  -18.8985   18.0201 N   0  0  0  0  0  0  0  0  0  0  0  0
  -21.0733  -29.4946   22.3442 N   0  0  0  0  0  0  0  0  0  0  0  0
  -26.1126  -33.8774   23.7073 N   0  0  0  0  0  0  0  0  0  0  0  0
  -29.4816  -33.0479   24.7220 N   0  3  0  0  0  0  0  0  0  0  0  0
  -28.9120  -26.1708   18.0683 O   0  0  0  0  0  0  0  0  0  0  0  0
  -30.7576  -10.0872   19.8378 O   0  0  0  0  0  0  0  0  0  0  0  0
  -22.1143  -31.2192   21.1761 O   0  0  0  0  0  0  0  0  0  0  0  0
  -23.5678  -32.7102   24.3160 O   0  0  0  0  0  0  0  0  0  0  0  0
  -27.8890  -33.1528   22.4048 O   0  0  0  0  0  0  0  0  0  0  0  0
  -29.7358  -20.3452   19.7794 O   0  0  0  0  0  0  0  0  0  0  0  0
  -24.0156   -9.5122   18.9783 O   0  0  0  0  0  0  0  0  0  0  0  0
  -26.9663  -27.8016   18.2981 O   0  0  0  0  0  0  0  0  0  1  0  0
  -21.4646   -7.8298   23.5681 F   0  0  0  0  0  0  0  0  0  0  0  0
  -28.1464  -19.6363   13.4152 F   0  0  0  0  0  0  0  0  0  0  0  0
  -23.7034   -6.8197   19.5217 F   0  0  0  0  0  0  0  0  0  0  0  0
  1  2  1  0  0  0  0
  1  5  2  0  0  0  0
  2  6  2  0  0  0  0
  3  8  2  0  0  0  0
  3 18  1  0  0  0  0
  4  9  1  0  0  0  0
  4 18  2  0  0  0  0
  5 20  1  0  0  0  0
  6 22  1  0  0  0  0
  7 10  2  0  0  0  0
  7 21  1  0  0  0  0
  8 26  1  0  0  0  0
  9 26  2  0  0  0  0
 10 27  1  0  0  0  0
 11 12  2  0  0  0  0
 11 28  1  0  0  0  0
 12 29  1  0  0  0  0
 13 23  1  0  0  0  0
 13 27  2  0  0  0  0
 14 24  2  0  0  0  0
 14 25  1  0  0  0  0
 15 24  1  0  0  0  0
 15 30  2  0  0  0  0
 16 25  2  0  0  0  0
 16 30  1  0  0  0  0
 17 29  2  0  0  0  0
 17 31  1  0  0  0  0
 18 32  1  0  0  0  0
 19 32  1  0  0  0  0
 19 33  2  0  0  0  0
 19 36  1  0  0  0  0
 20 22  2  0  0  0  0
 20 42  1  0  0  0  0
 21 23  2  0  0  0  0
 21 43  1  0  0  0  0
 22 54  1  0  0  0  0
 23 44  1  0  0  0  0
 24 68  1  0  0  0  0
 25 73  1  0  0  0  0
 26 83  1  0  0  0  0
 27 84  1  0  0  0  0
 28 31  2  0  0  0  0
 28 83  1  0  0  0  0
 29 85  1  0  0  0  0
 30 86  1  0  0  0  0
 31 87  1  0  0  0  0
 32 66  2  0  0  0  0
 33 67  1  0  0  0  0
 33 71  1  0  0  0  0
 34 35  1  0  0  0  0
 34 37  2  0  0  0  0
 34 45  1  0  0  0  0
 35 46  1  0  0  0  0
 35 77  2  0  0  0  0
 36 72  1  0  0  0  0
 36 78  2  0  0  0  0
 37 57  1  0  0  0  0
 37 84  1  0  0  0  0
 38 55  1  0  0  0  0
 38 74  1  0  0  0  0
 38 79  2  0  0  0  0
 39 63  1  0  0  0  0
 39 69  1  0  0  0  0
 39 80  2  0  0  0  0
 40 64  1  0  0  0  0
 40 75  1  0  0  0  0
 40 81  2  0  0  0  0
 41 70  1  0  0  0  0
 41 73  1  0  0  0  0
 41 82  2  0  0  0  0
 42 47  1  0  0  0  0
 43 55  1  0  0  0  0
 44 69  1  0  0  0  0
 45 51  1  0  0  0  0
 46 68  1  0  0  0  0
 47 49  1  0  0  0  0
 48 50  1  0  0  0  0
 48 52  1  0  0  0  0
 49 54  1  0  0  0  0
 50 56  1  0  0  0  0
 51 68  1  0  0  0  0
 52 70  1  0  0  0  0
 53 56  1  0  0  0  0
 53 70  1  0  0  0  0
 54 74  1  0  0  0  0
 55 69  1  0  0  0  0
 56 67  1  0  0  0  0
 58 64  1  0  0  0  0
 59 65  1  0  0  0  0
 60 65  1  0  0  0  0
 61 65  1  0  0  0  0
 62 76  1  0  0  0  0
 63 65  1  0  0  0  0
 63 75  1  0  0  0  0
 64 76  1  0  0  0  0
 66 67  1  0  0  0  0
M  CHG  1  76   1
M  ISO  4  37 101  41 100  73 100  84 101
M  END
> <Batch ID>
0080

> <Smiles>
CNC(C)C(=O)NC(C(=O)N1Cc2cc([101O:1][101C:1](C)=C3CCN(c4cc(F)cc([100NH:0][100C:0](=O)N5CCCC(n6nc(-c7ccc(Oc8ccc(F)cc8F)cc7)c(C(N)=O)c6N)C5)c4)CC3=O)ccc2CC1C(=O)NC1CCCc2ccccc21)C(C)(C)C

> <Shape>
0.310

> <Color>
0.109

> <Negative vol penalty>
0.000

$$$$

  -OEChem-04052300023D

 84 93  0     1  0  0  0  0  0999 V2000
  -18.9462  -26.4566   23.0246 C   0  0  0  0  0  0  0  0  0  0  0  0
  -19.9495  -25.8088   22.3111 C   0  0  0  0  0  0  0  0  0  0  0  0
  -22.9302  -10.0579   19.9926 C   0  0  0  0  0  0  0  0  0  0  0  0
  -23.8504   -9.9076   22.2214 C   0  0  0  0  0  0  0  0  0  0  0  0
  -29.3254  -17.0058   19.9006 C   0  0  0  0  0  0  0  0  0  0  0  0
  -29.0603  -17.5363   22.2427 C   0  0  0  0  0  0  0  0  0  0  0  0
  -18.7054  -27.8132   22.8113 C   0  0  0  0  0  0  0  0  0  0  0  0
  -20.7119  -26.5171   21.3829 C   0  0  0  0  0  0  0  0  0  0  0  0
  -25.6595  -25.5034   21.7545 C   0  0  0  0  0  0  0  0  0  0  0  0
  -28.6215  -18.1606   19.5593 C   0  0  0  0  0  0  0  0  0  0  0  0
  -28.3564  -18.6912   21.9014 C   0  0  0  0  0  0  0  0  0  0  0  0
  -22.1714   -8.9116   20.2285 C   0  0  0  0  0  0  0  0  0  0  0  0
  -23.0915   -8.7613   22.4574 C   0  0  0  0  0  0  0  0  0  0  0  0
  -26.1077  -24.3061   21.1982 C   0  0  0  0  0  0  0  0  0  0  0  0
  -23.2418   -5.4723   21.6888 C   0  0  0  0  0  0  0  0  0  0  0  0
  -23.8754   -4.3901   22.2997 C   0  0  0  0  0  0  0  0  0  0  0  0
  -26.8768  -25.5054   19.2516 C   0  0  0  0  0  0  0  0  0  0  0  0
  -22.3051   -4.5052   24.1322 C   0  0  0  0  0  0  0  0  0  0  0  0
  -23.7697  -10.5560   20.9890 C   0  0  0  0  0  0  0  0  0  0  0  0
  -29.5448  -16.6936   21.2423 C   0  0  0  0  0  0  0  0  0  0  0  0
  -24.1783  -13.0740   20.9910 C   0  0  0  0  0  0  0  0  0  0  0  0
  -19.4716  -28.5407   21.8870 C   0  0  0  0  0  0  0  0  0  0  0  0
  -25.8070  -26.7112   21.0575 C   0  0  0  0  0  0  0  0  0  0  0  0
  -20.4802  -27.8844   21.1560 C   0  0  0  0  0  0  0  0  0  0  0  0
  -26.4319  -26.7170   19.8023 C   0  0  0  0  0  0  0  0  0  0  0  0
  -28.1370  -19.0033   20.5597 C   0  0  0  0  0  0  0  0  0  0  0  0
  -22.2520   -8.2633   21.4609 C   0  0  0  0  0  0  0  0  0  0  0  0
  -26.7138  -24.3066   19.9453 C   0  0  0  0  0  0  0  0  0  0  0  0
  -22.1399   -6.0710   22.2997 C   0  0  0  0  0  0  0  0  0  0  0  0
  -23.4070   -3.9066   23.5213 C   0  0  0  0  0  0  0  0  0  0  0  0
  -21.6715   -5.5874   23.5213 C   0  0  0  0  0  0  0  0  0  0  0  0
  -24.5542  -11.7398   20.7456 C   0  0  0  0  0  0  0  0  0  0  0  0
  -25.2641  -13.8153   20.5936 C   0  0  0  0  0  0  0  0  0  0  0  0
  -27.0937  -20.6760   19.0235 C   0  0  0  0  0  0  0  0  0  0  0  0
  -30.2785  -15.4895   21.5982 C   0  0  0  0  0  0  0  0  0  0  0  0
  -22.9568  -13.5966   21.5301 C   0  0  0  0  0  0  0  0  0  0  0  0
  -30.8063  -14.5733   20.5612 C   0  0  0  0  0  0  0  0  0  0  0  0
  -23.8048  -28.8891   19.8949 C   0  0  0  0  0  0  0  0  0  0  0  0
  -26.5461  -30.5005   19.2539 C   0  0  0  0  0  0  0  0  0  0  0  0
  -29.9074  -30.3841   18.6748 C   0  0  0  0  0  0  0  0  0  0  0  0
  -19.1429  -29.9945   21.6562 C   0  0  0  0  0  0  0  0  0  0  0  0
  -25.3424  -27.9978   21.6830 C   0  0  0  0  0  0  0  0  0  0  0  0
  -26.6325  -27.9896   19.0222 C   0  0  0  0  0  0  0  0  0  0  0  0
  -20.2441  -30.7596   20.9267 C   0  0  0  0  0  0  0  0  0  0  0  0
  -29.3927  -12.4992   18.0006 C   0  0  0  0  0  0  0  0  0  0  0  0
  -20.7394  -29.9641   19.7230 C   0  0  0  0  0  0  0  0  0  0  0  0
  -27.9904  -12.1950   18.5268 C   0  0  0  0  0  0  0  0  0  0  0  0
  -30.4048  -12.6039   19.1368 C   0  0  0  0  0  0  0  0  0  0  0  0
  -28.6259  -13.2995   20.7181 C   0  0  0  0  0  0  0  0  0  0  0  0
  -26.9145  -21.2201   21.0477 C   0  0  0  0  0  0  0  0  0  0  0  0
  -21.3449  -28.6242   20.1584 C   0  0  1  0  0  0  0  0  0  0  0  0
  -25.0806  -29.0991   20.6603 C   0  0  1  0  0  0  0  0  0  0  0  0
  -27.5709  -13.2137   19.6014 C   0  0  2  0  0  0  0  0  0  0  0  0
  -26.4692  -21.9063   19.7273 C   0  0  2  0  0  0  0  0  0  1  0  0
  -24.9726  -22.0639   19.5252 C   0  0  0  0  0  0  0  0  0  0  0  0
  -31.8671  -31.8591   18.1445 C   0  0  0  0  0  0  0  0  0  0  0  0
  -25.5868  -30.7329   16.3667 C   0  0  0  0  0  0  0  0  0  0  0  0
  -27.9265  -31.3369   15.7113 C   0  0  0  0  0  0  0  0  0  0  0  0
  -26.6554  -32.8011   17.2807 C   0  0  0  0  0  0  0  0  0  0  0  0
  -31.3063  -29.6183   21.1678 C   0  0  0  0  0  0  0  0  0  0  0  0
  -27.5034  -30.5603   18.0881 C   0  0  1  0  0  0  0  0  0  0  0  0
  -31.0566  -31.1946   19.2464 C   0  0  2  0  0  0  0  0  0  0  0  0
  -26.9126  -31.3334   16.8753 C   0  0  0  0  0  0  0  0  0  0  0  0
  -25.7828  -11.6364   20.2319 N   0  0  0  0  0  0  0  0  0  0  0  0
  -30.5220  -15.1368   22.8316 N   0  0  0  0  0  0  0  0  0  0  0  0
  -26.1883  -12.9151   20.1513 N   0  0  0  0  0  0  0  0  0  0  0  0
  -27.4434  -20.1417   20.2222 N   0  0  0  0  0  0  0  0  0  0  0  0
  -29.9589  -13.5515   20.1563 N   0  0  0  0  0  0  0  0  0  0  0  0
  -26.1555  -29.2209   19.6733 N   0  0  0  0  0  0  0  0  0  0  0  0
  -25.5089  -15.1429   20.5828 N   0  0  0  0  0  0  0  0  0  0  0  0
  -21.9443  -12.6954   21.8865 N   0  0  0  0  0  0  0  0  0  0  0  0
  -22.6766  -28.8204   20.6899 N   0  0  0  0  0  0  0  0  0  0  0  0
  -28.7450  -31.1229   18.6079 N   0  0  0  0  0  0  0  0  0  0  0  0
  -31.9669  -30.3174   20.0356 N   0  3  0  0  0  0  0  0  0  0  0  0
  -27.2421  -20.3066   17.8809 O   0  0  0  0  0  0  0  0  0  0  0  0
  -22.7625  -14.8273   21.6756 O   0  0  0  0  0  0  0  0  0  0  0  0
  -31.9404  -14.8168   20.1702 O   0  0  0  0  0  0  0  0  0  0  0  0
  -23.8411  -28.7977   18.6734 O   0  0  0  0  0  0  0  0  0  0  0  0
  -26.1648  -31.5501   19.7777 O   0  0  0  0  0  0  0  0  0  0  0  0
  -30.0295  -29.2140   18.3193 O   0  0  0  0  0  0  0  0  0  0  0  0
  -21.5115   -7.1448   21.6916 O   0  0  0  0  0  0  0  0  0  0  0  0
  -27.1516  -23.1393   19.3998 O   0  0  0  0  0  0  0  0  0  1  0  0
  -24.0145   -2.8664   24.1071 F   0  0  0  0  0  0  0  0  0  0  0  0
  -20.6127   -6.1577   24.1124 F   0  0  0  0  0  0  0  0  0  0  0  0
  1  2  1  0  0  0  0
  1  7  2  0  0  0  0
  2  8  2  0  0  0  0
  3 12  2  0  0  0  0
  3 19  1  0  0  0  0
  4 13  1  0  0  0  0
  4 19  2  0  0  0  0
  5 10  2  0  0  0  0
  5 20  1  0  0  0  0
  6 11  1  0  0  0  0
  6 20  2  0  0  0  0
  7 22  1  0  0  0  0
  8 24  1  0  0  0  0
  9 14  2  0  0  0  0
  9 23  1  0  0  0  0
 10 26  1  0  0  0  0
 11 26  2  0  0  0  0
 12 27  1  0  0  0  0
 13 27  2  0  0  0  0
 14 28  1  0  0  0  0
 15 16  2  0  0  0  0
 15 29  1  0  0  0  0
 16 30  1  0  0  0  0
 17 25  1  0  0  0  0
 17 28  2  0  0  0  0
 18 30  2  0  0  0  0
 18 31  1  0  0  0  0
 19 32  1  0  0  0  0
 20 35  1  0  0  0  0
 21 32  1  0  0  0  0
 21 33  2  0  0  0  0
 21 36  1  0  0  0  0
 22 24  2  0  0  0  0
 22 41  1  0  0  0  0
 23 25  2  0  0  0  0
 23 42  1  0  0  0  0
 24 51  1  0  0  0  0
 25 43  1  0  0  0  0
 26 67  1  0  0  0  0
 27 81  1  0  0  0  0
 28 82  1  0  0  0  0
 29 31  2  0  0  0  0
 29 81  1  0  0  0  0
 30 83  1  0  0  0  0
 31 84  1  0  0  0  0
 32 64  2  0  0  0  0
 33 66  1  0  0  0  0
 33 70  1  0  0  0  0
 34 54  1  0  0  0  0
 34 67  1  0  0  0  0
 34 75  2  0  0  0  0
 35 37  1  0  0  0  0
 35 65  2  0  0  0  0
 36 71  1  0  0  0  0
 36 76  2  0  0  0  0
 37 68  1  0  0  0  0
 37 77  2  0  0  0  0
 38 52  1  0  0  0  0
 38 72  1  0  0  0  0
 38 78  2  0  0  0  0
 39 61  1  0  0  0  0
 39 69  1  0  0  0  0
 39 79  2  0  0  0  0
 40 62  1  0  0  0  0
 40 73  1  0  0  0  0
 40 80  2  0  0  0  0
 41 44  1  0  0  0  0
 42 52  1  0  0  0  0
 43 69  1  0  0  0  0
 44 46  1  0  0  0  0
 45 47  1  0  0  0  0
 45 48  1  0  0  0  0
 46 51  1  0  0  0  0
 47 53  1  0  0  0  0
 48 68  1  0  0  0  0
 49 53  1  0  0  0  0
 49 68  1  0  0  0  0
 50 54  1  0  0  0  0
 50 67  1  0  0  0  0
 51 72  1  0  0  0  0
 52 69  1  0  0  0  0
 53 66  1  0  0  0  0
 54 55  1  0  0  0  0
 54 82  1  0  0  0  0
 56 62  1  0  0  0  0
 57 63  1  0  0  0  0
 58 63  1  0  0  0  0
 59 63  1  0  0  0  0
 60 74  1  0  0  0  0
 61 63  1  0  0  0  0
 61 73  1  0  0  0  0
 62 74  1  0  0  0  0
 64 66  1  0  0  0  0
M  CHG  1  74   1
M  ISO  4  35 100  37 100  54 101  82 101
M  END
> <Batch ID>
0080

> <Smiles>
CNC(C)C(=O)NC(C(=O)N1Cc2cc([101O:1][101C:1]3(C)CN(c4ccc([100C:0](=N)[100C:0](=O)N5CCCC(n6nc(-c7ccc(Oc8ccc(F)cc8F)cc7)c(C(N)=O)c6N)C5)cc4)C3=O)ccc2CC1C(=O)NC1CCCc2ccccc21)C(C)(C)C

> <Shape>
0.317

> <Color>
0.221

> <Negative vol penalty>
0.000

$$$$

  -OEChem-04052300023D

 84 92  0     1  0  0  0  0  0999 V2000
  -28.7070  -31.0635   26.9728 C   0  0  0  0  0  0  0  0  0  0  0  0
  -28.6028  -30.0502   26.0252 C   0  0  0  0  0  0  0  0  0  0  0  0
  -23.7007   -9.4694   20.4010 C   0  0  0  0  0  0  0  0  0  0  0  0
  -22.8582  -11.3496   21.6627 C   0  0  0  0  0  0  0  0  0  0  0  0
  -29.7094  -20.6858   19.8935 C   0  0  0  0  0  0  0  0  0  0  0  0
  -27.7381  -20.5753   18.5011 C   0  0  0  0  0  0  0  0  0  0  0  0
  -27.5562  -31.6818   27.4599 C   0  0  0  0  0  0  0  0  0  0  0  0
  -27.3476  -29.6538   25.5651 C   0  0  0  0  0  0  0  0  0  0  0  0
  -27.2127  -29.0863   20.5347 C   0  0  0  0  0  0  0  0  0  0  0  0
  -29.7282  -19.2936   19.9775 C   0  0  0  0  0  0  0  0  0  0  0  0
  -27.7569  -19.1831   18.5850 C   0  0  0  0  0  0  0  0  0  0  0  0
  -22.8495   -8.6165   21.1036 C   0  0  0  0  0  0  0  0  0  0  0  0
  -22.0069  -10.4968   22.3652 C   0  0  0  0  0  0  0  0  0  0  0  0
  -27.7656  -27.9187   20.0106 C   0  0  0  0  0  0  0  0  0  0  0  0
  -22.7680   -7.1207   24.1335 C   0  0  0  0  0  0  0  0  0  0  0  0
  -23.2993   -5.9204   24.6054 C   0  0  0  0  0  0  0  0  0  0  0  0
  -25.5563  -26.9718   19.8057 C   0  0  0  0  0  0  0  0  0  0  0  0
  -21.6895   -4.6904   23.2890 C   0  0  0  0  0  0  0  0  0  0  0  0
  -23.7052  -10.8360   20.6807 C   0  0  0  0  0  0  0  0  0  0  0  0
  -28.7143  -21.3267   19.1554 C   0  0  0  0  0  0  0  0  0  0  0  0
  -24.3058  -12.3981   18.7554 C   0  0  0  0  0  0  0  0  0  0  0  0
  -26.2868  -31.2994   26.9983 C   0  0  0  0  0  0  0  0  0  0  0  0
  -25.8261  -29.2016   20.7087 C   0  0  0  0  0  0  0  0  0  0  0  0
  -26.1786  -30.2667   26.0475 C   0  0  0  0  0  0  0  0  0  0  0  0
  -24.9882  -28.1430   20.3298 C   0  0  0  0  0  0  0  0  0  0  0  0
  -28.7520  -18.5422   19.3232 C   0  0  0  0  0  0  0  0  0  0  0  0
  -22.0025   -9.1302   22.0856 C   0  0  0  0  0  0  0  0  0  0  0  0
  -26.9376  -26.8601   19.6487 C   0  0  0  0  0  0  0  0  0  0  0  0
  -21.6974   -7.1058   23.2394 C   0  0  0  0  0  0  0  0  0  0  0  0
  -22.7601   -4.7053   24.1831 C   0  0  0  0  0  0  0  0  0  0  0  0
  -21.1582   -5.8907   22.8172 C   0  0  0  0  0  0  0  0  0  0  0  0
  -24.5847  -11.7174   19.9557 C   0  0  0  0  0  0  0  0  0  0  0  0
  -25.4558  -13.0977   18.4823 C   0  0  0  0  0  0  0  0  0  0  0  0
  -28.6942  -22.8045   19.0663 C   0  0  0  0  0  0  0  0  0  0  0  0
  -23.1138  -12.3981   17.9586 C   0  0  0  0  0  0  0  0  0  0  0  0
  -23.9058  -29.6187   23.2071 C   0  0  0  0  0  0  0  0  0  0  0  0
  -21.6211  -29.8595   20.9171 C   0  0  0  0  0  0  0  0  0  0  0  0
  -20.6141  -29.1232   17.7405 C   0  0  0  0  0  0  0  0  0  0  0  0
  -28.7826  -24.7174   17.4106 C   0  0  0  0  0  0  0  0  0  0  0  0
  -29.6875  -16.3355   20.0987 C   0  0  0  0  0  0  0  0  0  0  0  0
  -25.0688  -31.9644   27.5893 C   0  0  0  0  0  0  0  0  0  0  0  0
  -25.2432  -30.4780   21.2504 C   0  0  0  0  0  0  0  0  0  0  0  0
  -23.4915  -28.2243   20.4776 C   0  0  0  0  0  0  0  0  0  0  0  0
  -23.7978  -31.7431   26.7732 C   0  0  0  0  0  0  0  0  0  0  0  0
  -30.0535  -12.8270   20.5822 C   0  0  0  0  0  0  0  0  0  0  0  0
  -23.6622  -30.2745   26.3841 C   0  0  0  0  0  0  0  0  0  0  0  0
  -28.6404  -12.2816   20.3636 C   0  0  0  0  0  0  0  0  0  0  0  0
  -30.0356  -14.1817   21.2882 C   0  0  0  0  0  0  0  0  0  0  0  0
  -27.7716  -14.6536   20.4392 C   0  0  0  0  0  0  0  0  0  0  0  0
  -24.8362  -29.8259   25.5055 C   0  0  1  0  0  0  0  0  0  0  0  0
  -23.8591  -30.2898   21.8636 C   0  0  1  0  0  0  0  0  0  0  0  0
  -27.7356  -13.3210   19.6733 C   0  0  2  0  0  0  0  0  0  0  0  0
  -18.6818  -29.4218   16.1675 C   0  0  0  0  0  0  0  0  0  0  0  0
  -20.0763  -27.6906   22.4068 C   0  0  0  0  0  0  0  0  0  0  0  0
  -18.6868  -27.3650   20.3497 C   0  0  0  0  0  0  0  0  0  0  0  0
  -18.6662  -29.5616   21.5318 C   0  0  0  0  0  0  0  0  0  0  0  0
  -28.9845  -24.2538   14.9671 C   0  0  0  0  0  0  0  0  0  0  0  0
  -22.2691  -30.6384   15.8107 C   0  0  0  0  0  0  0  0  0  0  0  0
  -28.6887  -25.8468   18.3986 C   0  0  0  0  0  0  0  0  0  1  0  0
  -20.7113  -28.8856   20.2080 C   0  0  1  0  0  0  0  0  0  0  0  0
  -20.0083  -29.9880   16.6499 C   0  0  2  0  0  0  0  0  0  0  0  0
  -19.5635  -28.3731   21.1230 C   0  0  0  0  0  0  0  0  0  0  0  0
  -25.8153  -11.9624   20.4135 N   0  0  0  0  0  0  0  0  0  0  0  0
  -26.3200  -12.8047   19.4959 N   0  0  0  0  0  0  0  0  0  0  0  0
  -22.9701  -29.4907   21.0179 N   0  0  0  0  0  0  0  0  0  0  0  0
  -29.1616  -15.1162   20.5757 N   0  0  0  0  0  0  0  0  0  0  0  0
  -25.8019  -13.9288   17.4764 N   0  0  0  0  0  0  0  0  0  0  0  0
  -28.5754  -23.4601   20.2207 N   0  0  0  0  0  0  0  0  0  0  0  0
  -22.0257  -11.6240   18.3842 N   0  0  0  0  0  0  0  0  0  0  0  0
  -28.7709  -17.1280   19.4084 N   0  0  0  0  0  0  0  0  0  0  0  0
  -24.6594  -30.2946   24.1477 N   0  0  0  0  0  0  0  0  0  0  0  0
  -20.2548  -29.5605   18.9978 N   0  0  0  0  0  0  0  0  0  0  0  0
  -28.7759  -23.3383   17.8375 N   0  3  0  0  0  0  0  0  0  0  0  0
  -28.8901  -25.0880   16.1785 N   0  3  0  0  0  0  0  0  0  0  0  0
  -20.9333  -30.0760   15.4848 N   0  3  0  0  0  0  0  0  0  0  0  0
  -23.0223  -13.0518   16.8920 O   0  0  0  0  0  0  0  0  0  0  0  0
  -23.3017  -28.5664   23.3782 O   0  0  0  0  0  0  0  0  0  0  0  0
  -21.1536  -30.9121   21.3588 O   0  0  0  0  0  0  0  0  0  0  0  0
  -21.3312  -28.1542   17.5009 O   0  0  0  0  0  0  0  0  0  0  0  0
  -30.8712  -16.6409   20.2649 O   0  0  0  0  0  0  0  0  0  0  0  0
  -21.1716   -8.2983   22.7712 O   0  0  0  0  0  0  0  0  0  0  0  0
  -27.4747  -25.7190   19.1376 O   0  0  0  0  0  0  0  0  0  1  0  0
  -23.2714   -3.5527   24.6352 F   0  0  0  0  0  0  0  0  0  0  0  0
  -20.1305   -5.8700   21.9574 F   0  0  0  0  0  0  0  0  0  0  0  0
  1  2  1  0  0  0  0
  1  7  2  0  0  0  0
  2  8  2  0  0  0  0
  3 12  2  0  0  0  0
  3 19  1  0  0  0  0
  4 13  1  0  0  0  0
  4 19  2  0  0  0  0
  5 10  2  0  0  0  0
  5 20  1  0  0  0  0
  6 11  1  0  0  0  0
  6 20  2  0  0  0  0
  7 22  1  0  0  0  0
  8 24  1  0  0  0  0
  9 14  2  0  0  0  0
  9 23  1  0  0  0  0
 10 26  1  0  0  0  0
 11 26  2  0  0  0  0
 12 27  1  0  0  0  0
 13 27  2  0  0  0  0
 14 28  1  0  0  0  0
 15 16  2  0  0  0  0
 15 29  1  0  0  0  0
 16 30  1  0  0  0  0
 17 25  1  0  0  0  0
 17 28  2  0  0  0  0
 18 30  2  0  0  0  0
 18 31  1  0  0  0  0
 19 32  1  0  0  0  0
 20 34  1  0  0  0  0
 21 32  1  0  0  0  0
 21 33  2  0  0  0  0
 21 35  1  0  0  0  0
 22 24  2  0  0  0  0
 22 41  1  0  0  0  0
 23 25  2  0  0  0  0
 23 42  1  0  0  0  0
 24 50  1  0  0  0  0
 25 43  1  0  0  0  0
 26 70  1  0  0  0  0
 27 81  1  0  0  0  0
 28 82  1  0  0  0  0
 29 31  2  0  0  0  0
 29 81  1  0  0  0  0
 30 83  1  0  0  0  0
 31 84  1  0  0  0  0
 32 63  2  0  0  0  0
 33 64  1  0  0  0  0
 33 67  1  0  0  0  0
 34 68  1  0  0  0  0
 34 73  2  0  0  0  0
 35 69  1  0  0  0  0
 35 76  2  0  0  0  0
 36 51  1  0  0  0  0
 36 71  1  0  0  0  0
 36 77  2  0  0  0  0
 37 60  1  0  0  0  0
 37 65  1  0  0  0  0
 37 78  2  0  0  0  0
 38 61  1  0  0  0  0
 38 72  1  0  0  0  0
 38 79  2  0  0  0  0
 39 59  1  0  0  0  0
 39 73  1  0  0  0  0
 39 74  2  0  0  0  0
 40 66  1  0  0  0  0
 40 70  1  0  0  0  0
 40 80  2  0  0  0  0
 41 44  1  0  0  0  0
 42 51  1  0  0  0  0
 43 65  1  0  0  0  0
 44 46  1  0  0  0  0
 45 47  1  0  0  0  0
 45 48  1  0  0  0  0
 46 50  1  0  0  0  0
 47 52  1  0  0  0  0
 48 66  1  0  0  0  0
 49 52  1  0  0  0  0
 49 66  1  0  0  0  0
 50 71  1  0  0  0  0
 51 65  1  0  0  0  0
 52 64  1  0  0  0  0
 53 61  1  0  0  0  0
 54 62  1  0  0  0  0
 55 62  1  0  0  0  0
 56 62  1  0  0  0  0
 57 74  1  0  0  0  0
 58 75  1  0  0  0  0
 59 82  1  0  0  0  0
 60 62  1  0  0  0  0
 60 72  1  0  0  0  0
 61 75  1  0  0  0  0
 63 64  1  0  0  0  0
M  CHG  3  73   1  74   1  75   1
M  ISO  4  40 100  59 101  70 100  82 101
M  END
> <Batch ID>
0080

> <Smiles>
CNC(=NC(=N)c1ccc([100NH:0][100C:0](=O)N2CCCC(n3nc(-c4ccc(Oc5ccc(F)cc5F)cc4)c(C(N)=O)c3N)C2)cc1)[101CH2:1][101O:1]c1ccc2c(c1)CN(C(=O)C(NC(=O)C(C)NC)C(C)(C)C)C(C(=O)NC1CCCc3ccccc31)C2

> <Shape>
0.321

> <Color>
0.087

> <Negative vol penalty>
0.000

$$$$

  -OEChem-04052300023D

 86 95  0     1  0  0  0  0  0999 V2000
  -28.2315  -36.7490   26.0102 C   0  0  0  0  0  0  0  0  0  0  0  0
  -28.7402  -35.6050   25.4036 C   0  0  0  0  0  0  0  0  0  0  0  0
  -24.2097   -9.4834   21.5640 C   0  0  0  0  0  0  0  0  0  0  0  0
  -24.8155  -10.7384   23.5376 C   0  0  0  0  0  0  0  0  0  0  0  0
  -26.8928  -36.7950   26.3969 C   0  0  0  0  0  0  0  0  0  0  0  0
  -27.9105  -34.5059   25.1843 C   0  0  0  0  0  0  0  0  0  0  0  0
  -28.1186  -30.6219   20.4538 C   0  0  0  0  0  0  0  0  0  0  0  0
  -28.2241  -20.7343   20.8200 C   0  0  0  0  0  0  0  0  0  0  0  0
  -30.5910  -20.4454   20.4310 C   0  0  0  0  0  0  0  0  0  0  0  0
  -28.0015  -19.4077   20.4511 C   0  0  0  0  0  0  0  0  0  0  0  0
  -30.3684  -19.1187   20.0622 C   0  0  0  0  0  0  0  0  0  0  0  0
  -23.8720   -8.3906   22.3625 C   0  0  0  0  0  0  0  0  0  0  0  0
  -24.4778   -9.6456   24.3361 C   0  0  0  0  0  0  0  0  0  0  0  0
  -28.6815  -29.3552   20.3043 C   0  0  0  0  0  0  0  0  0  0  0  0
  -21.2798   -7.4372   24.3129 C   0  0  0  0  0  0  0  0  0  0  0  0
  -20.0843   -6.7751   24.0336 C   0  0  0  0  0  0  0  0  0  0  0  0
  -26.5435  -28.3533   20.7984 C   0  0  0  0  0  0  0  0  0  0  0  0
  -21.3100   -4.7330   23.6281 C   0  0  0  0  0  0  0  0  0  0  0  0
  -24.6815  -10.6572   22.1516 C   0  0  0  0  0  0  0  0  0  0  0  0
  -24.1855  -12.8354   20.9198 C   0  0  0  0  0  0  0  0  0  0  0  0
  -26.0439  -35.6995   26.1735 C   0  0  0  0  0  0  0  0  0  0  0  0
  -26.7641  -30.7639   20.7881 C   0  0  0  0  0  0  0  0  0  0  0  0
  -26.5595  -34.5368   25.5696 C   0  0  0  0  0  0  0  0  0  0  0  0
  -25.9652  -29.6229   20.9491 C   0  0  0  0  0  0  0  0  0  0  0  0
  -29.5188  -21.2532   20.8099 C   0  0  0  0  0  0  0  0  0  0  0  0
  -29.0736  -18.5998   20.0723 C   0  0  0  0  0  0  0  0  0  0  0  0
  -24.0060   -8.4718   23.7485 C   0  0  0  0  0  0  0  0  0  0  0  0
  -27.8947  -28.2207   20.4794 C   0  0  0  0  0  0  0  0  0  0  0  0
  -22.4904   -6.7472   24.2497 C   0  0  0  0  0  0  0  0  0  0  0  0
  -20.0994   -5.4230   23.6913 C   0  0  0  0  0  0  0  0  0  0  0  0
  -22.5055   -5.3951   23.9074 C   0  0  0  0  0  0  0  0  0  0  0  0
  -25.0310  -11.7861   21.3273 C   0  0  0  0  0  0  0  0  0  0  0  0
  -24.9891  -13.6476   20.1577 C   0  0  0  0  0  0  0  0  0  0  0  0
  -28.8112  -23.6110   20.9920 C   0  0  0  0  0  0  0  0  0  0  0  0
  -28.9129  -24.8872   21.3887 C   0  0  0  0  0  0  0  0  0  0  0  0
  -30.1097  -25.2856   22.1813 C   0  0  0  0  0  0  0  0  0  0  0  0
  -31.0948  -24.2043   22.4759 C   0  0  0  0  0  0  0  0  0  0  0  0
  -31.9394  -24.3947   23.5000 C   0  0  0  0  0  0  0  0  0  0  0  0
  -22.7978  -13.0561   21.2049 C   0  0  0  0  0  0  0  0  0  0  0  0
  -25.1783  -32.0264   23.2366 C   0  0  0  0  0  0  0  0  0  0  0  0
  -22.5897  -31.3648   21.3971 C   0  0  0  0  0  0  0  0  0  0  0  0
  -21.2158  -29.4962   18.8935 C   0  0  0  0  0  0  0  0  0  0  0  0
  -29.7996  -16.3159   19.2957 C   0  0  0  0  0  0  0  0  0  0  0  0
  -24.6157  -35.7785   26.6516 C   0  0  0  0  0  0  0  0  0  0  0  0
  -26.1657  -32.1376   20.9195 C   0  0  0  0  0  0  0  0  0  0  0  0
  -24.5011  -29.7215   21.2884 C   0  0  0  0  0  0  0  0  0  0  0  0
  -31.1013  -22.9542   21.6386 C   0  0  0  0  0  0  0  0  0  0  0  0
  -23.7100  -34.7104   26.0440 C   0  0  0  0  0  0  0  0  0  0  0  0
  -29.6485  -12.8923   18.3295 C   0  0  0  0  0  0  0  0  0  0  0  0
  -24.3833  -33.3429   26.1030 C   0  0  0  0  0  0  0  0  0  0  0  0
  -28.3641  -12.3857   18.9898 C   0  0  0  0  0  0  0  0  0  0  0  0
  -30.3804  -13.9012   19.2128 C   0  0  0  0  0  0  0  0  0  0  0  0
  -28.2779  -14.5224   20.3366 C   0  0  0  0  0  0  0  0  0  0  0  0
  -25.6848  -33.3334   25.2923 C   0  0  1  0  0  0  0  0  0  0  0  0
  -24.8970  -32.1581   21.7665 C   0  0  1  0  0  0  0  0  0  0  0  0
  -27.4722  -13.5527   19.4566 C   0  0  2  0  0  0  0  0  0  0  0  0
  -19.0691  -29.1582   17.6386 C   0  0  0  0  0  0  0  0  0  0  0  0
  -21.4330  -29.8598   23.7860 C   0  0  0  0  0  0  0  0  0  0  0  0
  -19.8035  -28.7752   22.2251 C   0  0  0  0  0  0  0  0  0  0  0  0
  -19.7782  -31.2510   22.5288 C   0  0  0  0  0  0  0  0  0  0  0  0
  -22.4707  -30.2343   16.3168 C   0  0  0  0  0  0  0  0  0  0  0  0
  -27.8759  -25.9279   21.1110 C   0  0  0  0  0  0  0  0  0  1  0  0
  -21.6680  -30.1802   21.2349 C   0  0  1  0  0  0  0  0  0  0  0  0
  -20.4022  -29.8892   17.6736 C   0  0  2  0  0  0  0  0  0  0  0  0
  -20.6987  -30.0143   22.4392 C   0  0  0  0  0  0  0  0  0  0  0  0
  -26.2763  -11.9172   20.8623 N   0  0  0  0  0  0  0  0  0  0  0  0
  -26.2191  -13.0583   20.1548 N   0  0  0  0  0  0  0  0  0  0  0  0
  -29.7457  -22.6062   21.1840 N   0  0  0  0  0  0  0  0  0  0  0  0
  -23.9638  -31.0866   21.4126 N   0  0  0  0  0  0  0  0  0  0  0  0
  -29.4744  -14.9801   19.6128 N   0  0  0  0  0  0  0  0  0  0  0  0
  -24.7566  -14.8013   19.4963 N   0  0  0  0  0  0  0  0  0  0  0  0
  -22.1233  -12.1232   22.0042 N   0  0  0  0  0  0  0  0  0  0  0  0
  -28.8475  -17.2521   19.6977 N   0  0  0  0  0  0  0  0  0  0  0  0
  -25.3982  -33.2307   23.8774 N   0  0  0  0  0  0  0  0  0  0  0  0
  -20.9999  -30.3557   19.9499 N   0  0  0  0  0  0  0  0  0  0  0  0
  -21.1495  -29.5639   16.4259 N   0  3  0  0  0  0  0  0  0  0  0  0
  -30.2579  -26.4394   22.5711 O   0  0  0  0  0  0  0  0  0  0  0  0
  -22.1703  -14.0425   20.7502 O   0  0  0  0  0  0  0  0  0  0  0  0
  -25.1932  -30.9145   23.7516 O   0  0  0  0  0  0  0  0  0  0  0  0
  -22.1085  -32.4960   21.4988 O   0  0  0  0  0  0  0  0  0  0  0  0
  -21.9648  -28.5219   18.9091 O   0  0  0  0  0  0  0  0  0  0  0  0
  -30.8327  -16.6052   18.6866 O   0  0  0  0  0  0  0  0  0  0  0  0
  -23.6764   -7.4058   24.5280 O   0  0  0  0  0  0  0  0  0  0  0  0
  -28.4418  -26.9831   20.3346 O   0  0  0  0  0  0  0  0  0  1  0  0
  -18.9511   -4.7869   23.4247 F   0  0  0  0  0  0  0  0  0  0  0  0
  -23.6654   -4.7267   23.8462 F   0  0  0  0  0  0  0  0  0  0  0  0
  1  2  1  0  0  0  0
  1  5  2  0  0  0  0
  2  6  2  0  0  0  0
  3 12  2  0  0  0  0
  3 19  1  0  0  0  0
  4 13  1  0  0  0  0
  4 19  2  0  0  0  0
  5 21  1  0  0  0  0
  6 23  1  0  0  0  0
  7 14  2  0  0  0  0
  7 22  1  0  0  0  0
  8 10  2  0  0  0  0
  8 25  1  0  0  0  0
  9 11  1  0  0  0  0
  9 25  2  0  0  0  0
 10 26  1  0  0  0  0
 11 26  2  0  0  0  0
 12 27  1  0  0  0  0
 13 27  2  0  0  0  0
 14 28  1  0  0  0  0
 15 16  2  0  0  0  0
 15 29  1  0  0  0  0
 16 30  1  0  0  0  0
 17 24  1  0  0  0  0
 17 28  2  0  0  0  0
 18 30  2  0  0  0  0
 18 31  1  0  0  0  0
 19 32  1  0  0  0  0
 20 32  1  0  0  0  0
 20 33  2  0  0  0  0
 20 39  1  0  0  0  0
 21 23  2  0  0  0  0
 21 44  1  0  0  0  0
 22 24  2  0  0  0  0
 22 45  1  0  0  0  0
 23 54  1  0  0  0  0
 24 46  1  0  0  0  0
 25 68  1  0  0  0  0
 26 73  1  0  0  0  0
 27 83  1  0  0  0  0
 28 84  1  0  0  0  0
 29 31  2  0  0  0  0
 29 83  1  0  0  0  0
 30 85  1  0  0  0  0
 31 86  1  0  0  0  0
 32 66  2  0  0  0  0
 33 67  1  0  0  0  0
 33 71  1  0  0  0  0
 34 35  2  0  0  0  0
 34 68  1  0  0  0  0
 35 36  1  0  0  0  0
 35 62  1  0  0  0  0
 36 37  1  0  0  0  0
 36 77  2  0  0  0  0
 37 38  2  0  0  0  0
 37 47  1  0  0  0  0
 39 72  1  0  0  0  0
 39 78  2  0  0  0  0
 40 55  1  0  0  0  0
 40 74  1  0  0  0  0
 40 79  2  0  0  0  0
 41 63  1  0  0  0  0
 41 69  1  0  0  0  0
 41 80  2  0  0  0  0
 42 64  1  0  0  0  0
 42 75  1  0  0  0  0
 42 81  2  0  0  0  0
 43 70  1  0  0  0  0
 43 73  1  0  0  0  0
 43 82  2  0  0  0  0
 44 48  1  0  0  0  0
 45 55  1  0  0  0  0
 46 69  1  0  0  0  0
 47 68  1  0  0  0  0
 48 50  1  0  0  0  0
 49 51  1  0  0  0  0
 49 52  1  0  0  0  0
 50 54  1  0  0  0  0
 51 56  1  0  0  0  0
 52 70  1  0  0  0  0
 53 56  1  0  0  0  0
 53 70  1  0  0  0  0
 54 74  1  0  0  0  0
 55 69  1  0  0  0  0
 56 67  1  0  0  0  0
 57 64  1  0  0  0  0
 58 65  1  0  0  0  0
 59 65  1  0  0  0  0
 60 65  1  0  0  0  0
 61 76  1  0  0  0  0
 62 84  1  0  0  0  0
 63 65  1  0  0  0  0
 63 75  1  0  0  0  0
 64 76  1  0  0  0  0
 66 67  1  0  0  0  0
M  CHG  1  76   1
M  ISO  4  43 100  62 101  73 100  84 101
M  END
> <Batch ID>
0080

> <Smiles>
C=C1CN(c2ccc([100NH:0][100C:0](=O)N3CCCC(n4nc(-c5ccc(Oc6ccc(F)cc6F)cc5)c(C(N)=O)c4N)C3)cc2)C=C([101CH2:1][101O:1]c2ccc3c(c2)CN(C(=O)C(NC(=O)C(C)NC)C(C)(C)C)C(C(=O)NC2CCCc4ccccc42)C3)C1=O

> <Shape>
0.330

> <Color>
0.124

> <Negative vol penalty>
0.000

$$$$

  -OEChem-04052300023D

 85 94  0     1  0  0  0  0  0999 V2000
  -28.7701  -34.6849   16.2330 C   0  0  0  0  0  0  0  0  0  0  0  0
  -28.8642  -33.3872   16.7256 C   0  0  0  0  0  0  0  0  0  0  0  0
  -24.0814   -9.6965   22.2603 C   0  0  0  0  0  0  0  0  0  0  0  0
  -24.5297  -11.3748   23.9394 C   0  0  0  0  0  0  0  0  0  0  0  0
  -28.4027  -35.7271   17.0832 C   0  0  0  0  0  0  0  0  0  0  0  0
  -28.5919  -33.1312   18.0690 C   0  0  0  0  0  0  0  0  0  0  0  0
  -25.6805  -29.0383   18.7151 C   0  0  0  0  0  0  0  0  0  0  0  0
  -28.1782  -20.5473   19.3038 C   0  0  0  0  0  0  0  0  0  0  0  0
  -30.5677  -20.2134   19.1796 C   0  0  0  0  0  0  0  0  0  0  0  0
  -27.9816  -19.1684   19.2292 C   0  0  0  0  0  0  0  0  0  0  0  0
  -30.3712  -18.8344   19.1050 C   0  0  0  0  0  0  0  0  0  0  0  0
  -23.6769   -8.8079   23.2565 C   0  0  0  0  0  0  0  0  0  0  0  0
  -24.1252  -10.4862   24.9356 C   0  0  0  0  0  0  0  0  0  0  0  0
  -26.2997  -27.7936   18.6108 C   0  0  0  0  0  0  0  0  0  0  0  0
  -20.9327   -8.2812   25.1603 C   0  0  0  0  0  0  0  0  0  0  0  0
  -19.7616   -7.5548   24.9446 C   0  0  0  0  0  0  0  0  0  0  0  0
  -26.3980  -27.6476   21.0167 C   0  0  0  0  0  0  0  0  0  0  0  0
  -21.0097   -5.4929   25.1116 C   0  0  0  0  0  0  0  0  0  0  0  0
  -24.5078  -10.9800   22.6017 C   0  0  0  0  0  0  0  0  0  0  0  0
  -24.1197  -12.8148   20.8725 C   0  0  0  0  0  0  0  0  0  0  0  0
  -28.1163  -35.4821   18.4355 C   0  0  0  0  0  0  0  0  0  0  0  0
  -25.4248  -29.6029   19.9730 C   0  0  0  0  0  0  0  0  0  0  0  0
  -28.2215  -34.1712   18.9383 C   0  0  0  0  0  0  0  0  0  0  0  0
  -25.7731  -28.8985   21.1343 C   0  0  0  0  0  0  0  0  0  0  0  0
  -29.4712  -21.0698   19.2789 C   0  0  0  0  0  0  0  0  0  0  0  0
  -29.0781  -18.3119   19.1298 C   0  0  0  0  0  0  0  0  0  0  0  0
  -23.6988   -9.2027   24.5941 C   0  0  0  0  0  0  0  0  0  0  0  0
  -26.6612  -27.0993   19.7617 C   0  0  0  0  0  0  0  0  0  0  0  0
  -22.1423   -7.6134   25.3516 C   0  0  0  0  0  0  0  0  0  0  0  0
  -19.8001   -6.1607   24.9202 C   0  0  0  0  0  0  0  0  0  0  0  0
  -22.1809   -6.2193   25.3273 C   0  0  0  0  0  0  0  0  0  0  0  0
  -24.9262  -11.8982   21.5732 C   0  0  0  0  0  0  0  0  0  0  0  0
  -24.9847  -13.4457   20.0122 C   0  0  0  0  0  0  0  0  0  0  0  0
  -29.3278  -24.7162   19.5040 C   0  0  0  0  0  0  0  0  0  0  0  0
  -30.7548  -24.5267   19.4313 C   0  0  0  0  0  0  0  0  0  0  0  0
  -28.6384  -23.3967   19.4548 C   0  0  0  0  0  0  0  0  0  0  0  0
  -31.7175  -25.4548   19.4459 C   0  0  0  0  0  0  0  0  0  0  0  0
  -28.6312  -25.8485   19.6019 C   0  0  0  0  0  0  0  0  0  1  0  0
  -22.7142  -13.0731   20.9890 C   0  0  0  0  0  0  0  0  0  0  0  0
  -26.3627  -32.2392   21.4810 C   0  0  0  0  0  0  0  0  0  0  0  0
  -24.2161  -31.2612   23.7076 C   0  0  0  0  0  0  0  0  0  0  0  0
  -22.4622  -28.6904   25.1083 C   0  0  0  0  0  0  0  0  0  0  0  0
  -29.8573  -15.9229   18.9518 C   0  0  0  0  0  0  0  0  0  0  0  0
  -27.7691  -36.6482   19.3267 C   0  0  0  0  0  0  0  0  0  0  0  0
  -24.7319  -30.9345   20.0688 C   0  0  0  0  0  0  0  0  0  0  0  0
  -25.5022  -29.4518   22.5087 C   0  0  0  0  0  0  0  0  0  0  0  0
  -30.9975  -23.0509   19.3321 C   0  0  0  0  0  0  0  0  0  0  0  0
  -27.1331  -36.2342   20.6513 C   0  0  0  0  0  0  0  0  0  0  0  0
  -29.7741  -12.3676   18.7787 C   0  0  0  0  0  0  0  0  0  0  0  0
  -27.9175  -35.0899   21.2855 C   0  0  0  0  0  0  0  0  0  0  0  0
  -28.4391  -12.0039   19.4327 C   0  0  0  0  0  0  0  0  0  0  0  0
  -30.4354  -13.5613   19.4654 C   0  0  0  0  0  0  0  0  0  0  0  0
  -28.2510  -14.3885   20.2483 C   0  0  0  0  0  0  0  0  0  0  0  0
  -27.9099  -33.8496   20.3839 C   0  0  1  0  0  0  0  0  0  0  0  0
  -24.9850  -31.6458   21.3945 C   0  0  1  0  0  0  0  0  0  0  0  0
  -27.5160  -13.2326   19.5503 C   0  0  2  0  0  0  0  0  0  0  0  0
  -20.8160  -28.1944   26.9362 C   0  0  0  0  0  0  0  0  0  0  0  0
  -26.4499  -31.4779   25.7748 C   0  0  0  0  0  0  0  0  0  0  0  0
  -25.0521  -30.0981   27.3274 C   0  0  0  0  0  0  0  0  0  0  0  0
  -24.2261  -32.3197   26.5497 C   0  0  0  0  0  0  0  0  0  0  0  0
  -20.4379  -27.7188   23.1803 C   0  0  0  0  0  0  0  0  0  0  0  0
  -24.2717  -30.3783   24.9308 C   0  0  1  0  0  0  0  0  0  0  0  0
  -20.9942  -28.5511   25.4686 C   0  0  2  0  0  0  0  0  0  0  0  0
  -25.0069  -31.0587   26.1199 C   0  0  0  0  0  0  0  0  0  0  0  0
  -26.2054  -11.9396   21.1909 N   0  0  0  0  0  0  0  0  0  0  0  0
  -26.2091  -12.8899   20.2407 N   0  0  0  0  0  0  0  0  0  0  0  0
  -29.6675  -22.4452   19.3529 N   0  0  0  0  0  0  0  0  0  0  0  0
  -24.8283  -30.7601   22.5500 N   0  0  0  0  0  0  0  0  0  0  0  0
  -29.5034  -14.6887   19.5370 N   0  0  0  0  0  0  0  0  0  0  0  0
  -24.8099  -14.4160   19.0900 N   0  0  0  0  0  0  0  0  0  0  0  0
  -21.9744  -12.3351   21.9231 N   0  0  0  0  0  0  0  0  0  0  0  0
  -28.8788  -16.9111   19.0540 N   0  0  0  0  0  0  0  0  0  0  0  0
  -26.6432  -33.1574   20.4871 N   0  0  0  0  0  0  0  0  0  0  0  0
  -22.8941  -29.9951   25.2206 N   0  0  0  0  0  0  0  0  0  0  0  0
  -20.3576  -27.4846   24.6451 N   0  3  0  0  0  0  0  0  0  0  0  0
  -27.4330  -23.2161   19.4964 O   0  0  0  0  0  0  0  0  0  0  0  0
  -22.1285  -13.9213   20.2741 O   0  0  0  0  0  0  0  0  0  0  0  0
  -27.1150  -31.8910   22.3835 O   0  0  0  0  0  0  0  0  0  0  0  0
  -23.6441  -32.3520   23.7746 O   0  0  0  0  0  0  0  0  0  0  0  0
  -23.1573  -27.7366   24.7653 O   0  0  0  0  0  0  0  0  0  0  0  0
  -30.9371  -16.0826   18.3769 O   0  0  0  0  0  0  0  0  0  0  0  0
  -23.3040   -8.3360   25.5664 O   0  0  0  0  0  0  0  0  0  0  0  0
  -27.2664  -25.8844   19.6627 O   0  0  0  0  0  0  0  0  0  1  0  0
  -18.6752   -5.4633   24.7146 F   0  0  0  0  0  0  0  0  0  0  0  0
  -23.3398   -5.5722   25.5116 F   0  0  0  0  0  0  0  0  0  0  0  0
  1  2  1  0  0  0  0
  1  5  2  0  0  0  0
  2  6  2  0  0  0  0
  3 12  2  0  0  0  0
  3 19  1  0  0  0  0
  4 13  1  0  0  0  0
  4 19  2  0  0  0  0
  5 21  1  0  0  0  0
  6 23  1  0  0  0  0
  7 14  2  0  0  0  0
  7 22  1  0  0  0  0
  8 10  2  0  0  0  0
  8 25  1  0  0  0  0
  9 11  1  0  0  0  0
  9 25  2  0  0  0  0
 10 26  1  0  0  0  0
 11 26  2  0  0  0  0
 12 27  1  0  0  0  0
 13 27  2  0  0  0  0
 14 28  1  0  0  0  0
 15 16  2  0  0  0  0
 15 29  1  0  0  0  0
 16 30  1  0  0  0  0
 17 24  1  0  0  0  0
 17 28  2  0  0  0  0
 18 30  2  0  0  0  0
 18 31  1  0  0  0  0
 19 32  1  0  0  0  0
 20 32  1  0  0  0  0
 20 33  2  0  0  0  0
 20 39  1  0  0  0  0
 21 23  2  0  0  0  0
 21 44  1  0  0  0  0
 22 24  2  0  0  0  0
 22 45  1  0  0  0  0
 23 54  1  0  0  0  0
 24 46  1  0  0  0  0
 25 67  1  0  0  0  0
 26 72  1  0  0  0  0
 27 82  1  0  0  0  0
 28 83  1  0  0  0  0
 29 31  2  0  0  0  0
 29 82  1  0  0  0  0
 30 84  1  0  0  0  0
 31 85  1  0  0  0  0
 32 65  2  0  0  0  0
 33 66  1  0  0  0  0
 33 70  1  0  0  0  0
 34 35  1  0  0  0  0
 34 36  1  0  0  0  0
 34 38  2  0  0  0  0
 35 37  2  0  0  0  0
 35 47  1  0  0  0  0
 36 67  1  0  0  0  0
 36 76  2  0  0  0  0
 38 83  1  0  0  0  0
 39 71  1  0  0  0  0
 39 77  2  0  0  0  0
 40 55  1  0  0  0  0
 40 73  1  0  0  0  0
 40 78  2  0  0  0  0
 41 62  1  0  0  0  0
 41 68  1  0  0  0  0
 41 79  2  0  0  0  0
 42 63  1  0  0  0  0
 42 74  1  0  0  0  0
 42 80  2  0  0  0  0
 43 69  1  0  0  0  0
 43 72  1  0  0  0  0
 43 81  2  0  0  0  0
 44 48  1  0  0  0  0
 45 55  1  0  0  0  0
 46 68  1  0  0  0  0
 47 67  1  0  0  0  0
 48 50  1  0  0  0  0
 49 51  1  0  0  0  0
 49 52  1  0  0  0  0
 50 54  1  0  0  0  0
 51 56  1  0  0  0  0
 52 69  1  0  0  0  0
 53 56  1  0  0  0  0
 53 69  1  0  0  0  0
 54 73  1  0  0  0  0
 55 68  1  0  0  0  0
 56 66  1  0  0  0  0
 57 63  1  0  0  0  0
 58 64  1  0  0  0  0
 59 64  1  0  0  0  0
 60 64  1  0  0  0  0
 61 75  1  0  0  0  0
 62 64  1  0  0  0  0
 62 74  1  0  0  0  0
 63 75  1  0  0  0  0
 65 66  1  0  0  0  0
M  CHG  1  75   1
M  ISO  4  38 101  43 100  72 100  83 101
M  END
> <Batch ID>
0080

> <Smiles>
C=C1CN(c2ccc([100NH:0][100C:0](=O)N3CCCC(n4nc(-c5ccc(Oc6ccc(F)cc6F)cc5)c(C(N)=O)c4N)C3)cc2)C(=O)C1=[101CH:1][101O:1]c1ccc2c(c1)CN(C(=O)C(NC(=O)C(C)NC)C(C)(C)C)C(C(=O)NC1CCCc3ccccc31)C2

> <Shape>
0.293

> <Color>
0.133

> <Negative vol penalty>
0.000

$$$$

  -OEChem-04052300023D

 83 92  0     1  0  0  0  0  0999 V2000
  -19.5489  -24.8527   24.3157 C   0  0  0  0  0  0  0  0  0  0  0  0
  -20.4370  -24.7804   23.2473 C   0  0  0  0  0  0  0  0  0  0  0  0
  -23.7835   -9.1965   20.4438 C   0  0  0  0  0  0  0  0  0  0  0  0
  -22.7454  -10.9459   21.7473 C   0  0  0  0  0  0  0  0  0  0  0  0
  -18.8717  -26.0428   24.5784 C   0  0  0  0  0  0  0  0  0  0  0  0
  -20.6476  -25.8979   22.4403 C   0  0  0  0  0  0  0  0  0  0  0  0
  -25.5516  -26.6833   21.4508 C   0  0  0  0  0  0  0  0  0  0  0  0
  -22.8928   -8.2674   20.9814 C   0  0  0  0  0  0  0  0  0  0  0  0
  -21.8546  -10.0168   22.2848 C   0  0  0  0  0  0  0  0  0  0  0  0
  -26.1416  -25.8782   20.4775 C   0  0  0  0  0  0  0  0  0  0  0  0
  -21.1229   -5.3698   22.2834 C   0  0  0  0  0  0  0  0  0  0  0  0
  -21.6397   -4.1484   22.7154 C   0  0  0  0  0  0  0  0  0  0  0  0
  -29.8381  -20.4304   19.6467 C   0  0  0  0  0  0  0  0  0  0  0  0
  -30.0200  -19.1620   20.2698 C   0  0  0  0  0  0  0  0  0  0  0  0
  -25.9121  -27.6628   18.8707 C   0  0  0  0  0  0  0  0  0  0  0  0
  -23.0576   -5.3061   24.2923 C   0  0  0  0  0  0  0  0  0  0  0  0
  -23.7098  -10.5358   20.8268 C   0  0  0  0  0  0  0  0  0  0  0  0
  -24.4570  -12.2633   19.1049 C   0  0  0  0  0  0  0  0  0  0  0  0
  -19.0813  -27.1783   23.7800 C   0  0  0  0  0  0  0  0  0  0  0  0
  -25.1267  -27.9826   21.1380 C   0  0  0  0  0  0  0  0  0  0  0  0
  -19.9715  -27.1038   22.6917 C   0  0  0  0  0  0  0  0  0  0  0  0
  -25.3192  -28.4833   19.8425 C   0  0  0  0  0  0  0  0  0  0  0  0
  -21.9283   -8.6775   21.9018 C   0  0  0  0  0  0  0  0  0  0  0  0
  -26.3194  -26.3668   19.1864 C   0  0  0  0  0  0  0  0  0  0  0  0
  -21.5735   -6.5594   22.8558 C   0  0  0  0  0  0  0  0  0  0  0  0
  -22.6070   -4.1165   23.7199 C   0  0  0  0  0  0  0  0  0  0  0  0
  -22.5408   -6.5275   23.8603 C   0  0  0  0  0  0  0  0  0  0  0  0
  -24.6300  -11.4959   20.2723 C   0  0  0  0  0  0  0  0  0  0  0  0
  -25.6041  -13.0131   19.0137 C   0  0  0  0  0  0  0  0  0  0  0  0
  -28.5941  -20.5485   19.0669 C   0  0  0  0  0  0  0  0  0  0  0  0
  -28.9078  -18.3590   20.1427 C   0  0  0  0  0  0  0  0  0  0  0  0
  -26.9523  -23.2367   18.0894 C   0  0  0  0  0  0  0  0  0  0  0  0
  -28.2894  -22.8918   18.5737 C   0  0  0  0  0  0  0  0  0  0  0  0
  -23.3575  -12.2955   18.1851 C   0  0  0  0  0  0  0  0  0  0  0  0
  -26.2839  -24.4017   17.9186 C   0  0  0  0  0  0  0  0  0  1  0  0
  -22.3263  -29.4865   21.1326 C   0  0  0  0  0  0  0  0  0  0  0  0
  -24.1589  -32.0759   20.4552 C   0  0  0  0  0  0  0  0  0  0  0  0
  -27.0763  -33.3078   19.1830 C   0  0  0  0  0  0  0  0  0  0  0  0
  -29.5223  -16.2222   21.3271 C   0  0  0  0  0  0  0  0  0  0  0  0
  -18.2908  -28.4285   24.0742 C   0  0  0  0  0  0  0  0  0  0  0  0
  -24.5162  -28.8479   22.2061 C   0  0  0  0  0  0  0  0  0  0  0  0
  -24.8989  -29.8783   19.4609 C   0  0  0  0  0  0  0  0  0  0  0  0
  -26.6756  -21.7646   17.8870 C   0  0  0  0  0  0  0  0  0  0  0  0
  -18.8521  -29.6771   23.3987 C   0  0  0  0  0  0  0  0  0  0  0  0
  -29.9582  -12.6973   21.5755 C   0  0  0  0  0  0  0  0  0  0  0  0
  -19.1753  -29.3929   21.9353 C   0  0  0  0  0  0  0  0  0  0  0  0
  -28.5967  -12.1336   21.1626 C   0  0  0  0  0  0  0  0  0  0  0  0
  -29.8174  -13.9897   22.3777 C   0  0  0  0  0  0  0  0  0  0  0  0
  -27.6416  -14.4677   21.3258 C   0  0  0  0  0  0  0  0  0  0  0  0
  -20.2453  -28.3018   21.8085 C   0  0  1  0  0  0  0  0  0  0  0  0
  -23.6532  -29.9728   21.6430 C   0  0  1  0  0  0  0  0  0  0  0  0
  -27.7346  -13.2007   20.4600 C   0  0  2  0  0  0  0  0  0  0  0  0
  -24.8869  -24.5056   17.3941 C   0  0  0  0  0  0  0  0  0  0  0  0
  -28.2710  -35.4675   18.7296 C   0  0  0  0  0  0  0  0  0  0  0  0
  -22.3591  -32.5617   18.0397 C   0  0  0  0  0  0  0  0  0  0  0  0
  -24.1153  -34.0949   17.1271 C   0  0  0  0  0  0  0  0  0  0  0  0
  -23.0012  -34.6275   19.2945 C   0  0  0  0  0  0  0  0  0  0  0  0
  -29.3137  -32.5814   20.9790 C   0  0  0  0  0  0  0  0  0  0  0  0
  -24.6646  -32.7264   19.1902 C   0  0  1  0  0  0  0  0  0  0  0  0
  -28.0557  -34.3350   19.7215 C   0  0  2  0  0  0  0  0  0  0  0  0
  -23.5413  -33.4756   18.4192 C   0  0  0  0  0  0  0  0  0  0  0  0
  -25.7954  -11.7360   20.8792 N   0  0  0  0  0  0  0  0  0  0  0  0
  -26.3650  -12.6627   20.0899 N   0  0  0  0  0  0  0  0  0  0  0  0
  -28.0268  -21.5750   18.3845 N   0  0  0  0  0  0  0  0  0  0  0  0
  -24.3010  -30.6835   20.5387 N   0  0  0  0  0  0  0  0  0  0  0  0
  -28.9919  -14.9549   21.6484 N   0  0  0  0  0  0  0  0  0  0  0  0
  -26.0260  -13.9314   18.1186 N   0  0  0  0  0  0  0  0  0  0  0  0
  -22.2582  -11.4608   18.4285 N   0  0  0  0  0  0  0  0  0  0  0  0
  -28.6572  -17.0429   20.6042 N   0  0  0  0  0  0  0  0  0  0  0  0
  -21.5574  -28.8461   22.0855 N   0  0  0  0  0  0  0  0  0  0  0  0
  -25.7847  -33.5731   19.5862 N   0  0  0  0  0  0  0  0  0  0  0  0
  -29.3736  -33.6977   20.0005 N   0  3  0  0  0  0  0  0  0  0  0  0
  -29.2173  -23.5191   19.0416 O   0  0  0  0  0  0  0  0  0  0  0  0
  -23.3573  -13.0303   17.1685 O   0  0  0  0  0  0  0  0  0  0  0  0
  -22.0220  -29.6794   19.9613 O   0  0  0  0  0  0  0  0  0  0  0  0
  -23.6629  -32.7781   21.3397 O   0  0  0  0  0  0  0  0  0  0  0  0
  -27.4219  -32.3664   18.4725 O   0  0  0  0  0  0  0  0  0  0  0  0
  -30.6700  -16.5448   21.6446 O   0  0  0  0  0  0  0  0  0  0  0  0
  -21.0588   -7.7712   22.4264 O   0  0  0  0  0  0  0  0  0  0  0  0
  -26.8944  -25.5828   18.2344 O   0  0  0  0  0  0  0  0  0  1  0  0
  -23.1021   -2.9434   24.1357 F   0  0  0  0  0  0  0  0  0  0  0  0
  -22.9767   -7.6670   24.4148 F   0  0  0  0  0  0  0  0  0  0  0  0
  -27.6515  -19.1341   19.2749 S   0  0  0  0  0  0  0  0  0  0  0  0
  1  2  1  0  0  0  0
  1  5  2  0  0  0  0
  2  6  2  0  0  0  0
  3  8  2  0  0  0  0
  3 17  1  0  0  0  0
  4  9  1  0  0  0  0
  4 17  2  0  0  0  0
  5 19  1  0  0  0  0
  6 21  1  0  0  0  0
  7 10  2  0  0  0  0
  7 20  1  0  0  0  0
  8 23  1  0  0  0  0
  9 23  2  0  0  0  0
 10 24  1  0  0  0  0
 11 12  2  0  0  0  0
 11 25  1  0  0  0  0
 12 26  1  0  0  0  0
 13 14  1  0  0  0  0
 13 30  2  0  0  0  0
 14 31  2  0  0  0  0
 15 22  1  0  0  0  0
 15 24  2  0  0  0  0
 16 26  2  0  0  0  0
 16 27  1  0  0  0  0
 17 28  1  0  0  0  0
 18 28  1  0  0  0  0
 18 29  2  0  0  0  0
 18 34  1  0  0  0  0
 19 21  2  0  0  0  0
 19 40  1  0  0  0  0
 20 22  2  0  0  0  0
 20 41  1  0  0  0  0
 21 50  1  0  0  0  0
 22 42  1  0  0  0  0
 23 79  1  0  0  0  0
 24 80  1  0  0  0  0
 25 27  2  0  0  0  0
 25 79  1  0  0  0  0
 26 81  1  0  0  0  0
 27 82  1  0  0  0  0
 28 62  2  0  0  0  0
 29 63  1  0  0  0  0
 29 67  1  0  0  0  0
 30 64  1  0  0  0  0
 30 83  1  0  0  0  0
 31 69  1  0  0  0  0
 31 83  1  0  0  0  0
 32 33  1  0  0  0  0
 32 35  2  0  0  0  0
 32 43  1  0  0  0  0
 33 64  1  0  0  0  0
 33 73  2  0  0  0  0
 34 68  1  0  0  0  0
 34 74  2  0  0  0  0
 35 53  1  0  0  0  0
 35 80  1  0  0  0  0
 36 51  1  0  0  0  0
 36 70  1  0  0  0  0
 36 75  2  0  0  0  0
 37 59  1  0  0  0  0
 37 65  1  0  0  0  0
 37 76  2  0  0  0  0
 38 60  1  0  0  0  0
 38 71  1  0  0  0  0
 38 77  2  0  0  0  0
 39 66  1  0  0  0  0
 39 69  1  0  0  0  0
 39 78  2  0  0  0  0
 40 44  1  0  0  0  0
 41 51  1  0  0  0  0
 42 65  1  0  0  0  0
 43 64  1  0  0  0  0
 44 46  1  0  0  0  0
 45 47  1  0  0  0  0
 45 48  1  0  0  0  0
 46 50  1  0  0  0  0
 47 52  1  0  0  0  0
 48 66  1  0  0  0  0
 49 52  1  0  0  0  0
 49 66  1  0  0  0  0
 50 70  1  0  0  0  0
 51 65  1  0  0  0  0
 52 63  1  0  0  0  0
 54 60  1  0  0  0  0
 55 61  1  0  0  0  0
 56 61  1  0  0  0  0
 57 61  1  0  0  0  0
 58 72  1  0  0  0  0
 59 61  1  0  0  0  0
 59 71  1  0  0  0  0
 60 72  1  0  0  0  0
 62 63  1  0  0  0  0
M  CHG  1  72   1
M  ISO  4  35 101  39 100  69 100  80 101
M  END
> <Batch ID>
0080

> <Smiles>
CNC(C)C(=O)NC(C(=O)N1Cc2cc([101O:1][101C:1](C)=C3CN(c4ccc([100NH:0][100C:0](=O)N5CCCC(n6nc(-c7ccc(Oc8ccc(F)cc8F)cc7)c(C(N)=O)c6N)C5)s4)C3=O)ccc2CC1C(=O)NC1CCCc2ccccc21)C(C)(C)C

> <Shape>
0.277

> <Color>
0.114

> <Negative vol penalty>
0.000

$$$$

  -OEChem-04052300023D

 86 95  0     1  0  0  0  0  0999 V2000
  -19.7154  -25.2618   24.2302 C   0  0  0  0  0  0  0  0  0  0  0  0
  -20.7777  -25.2391   23.3322 C   0  0  0  0  0  0  0  0  0  0  0  0
  -23.8267   -8.7257   19.9773 C   0  0  0  0  0  0  0  0  0  0  0  0
  -23.1231  -10.4522   21.5138 C   0  0  0  0  0  0  0  0  0  0  0  0
  -18.8618  -26.3635   24.2706 C   0  0  0  0  0  0  0  0  0  0  0  0
  -20.9865  -26.3176   22.4734 C   0  0  0  0  0  0  0  0  0  0  0  0
  -25.8536  -27.6954   22.2324 C   0  0  0  0  0  0  0  0  0  0  0  0
  -27.7745  -19.9791   18.9570 C   0  0  0  0  0  0  0  0  0  0  0  0
  -29.8679  -19.9346   20.1623 C   0  0  0  0  0  0  0  0  0  0  0  0
  -27.7875  -18.5863   18.8830 C   0  0  0  0  0  0  0  0  0  0  0  0
  -29.8809  -18.5417   20.0883 C   0  0  0  0  0  0  0  0  0  0  0  0
  -23.0366   -7.7987   20.6570 C   0  0  0  0  0  0  0  0  0  0  0  0
  -22.3329   -9.5253   22.1936 C   0  0  0  0  0  0  0  0  0  0  0  0
  -26.6982  -26.9142   21.4450 C   0  0  0  0  0  0  0  0  0  0  0  0
  -23.2237   -5.9735   23.4956 C   0  0  0  0  0  0  0  0  0  0  0  0
  -23.7853   -4.7286   23.7791 C   0  0  0  0  0  0  0  0  0  0  0  0
  -26.5340  -28.5379   19.6686 C   0  0  0  0  0  0  0  0  0  0  0  0
  -22.0484   -3.6516   22.4904 C   0  0  0  0  0  0  0  0  0  0  0  0
  -23.8700  -10.0525   20.4057 C   0  0  0  0  0  0  0  0  0  0  0  0
  -24.3034  -11.8207   18.6187 C   0  0  0  0  0  0  0  0  0  0  0  0
  -19.0659  -27.4603   23.4185 C   0  0  0  0  0  0  0  0  0  0  0  0
  -25.3332  -28.9004   21.7389 C   0  0  0  0  0  0  0  0  0  0  0  0
  -20.1340  -27.4344   22.5016 C   0  0  0  0  0  0  0  0  0  0  0  0
  -25.6850  -29.3338   20.4527 C   0  0  0  0  0  0  0  0  0  0  0  0
  -28.8148  -20.6533   19.5967 C   0  0  0  0  0  0  0  0  0  0  0  0
  -28.8407  -17.8676   19.4487 C   0  0  0  0  0  0  0  0  0  0  0  0
  -22.2897   -8.1985   21.7651 C   0  0  0  0  0  0  0  0  0  0  0  0
  -27.0362  -27.3340   20.1618 C   0  0  0  0  0  0  0  0  0  0  0  0
  -22.0744   -6.0575   22.7096 C   0  0  0  0  0  0  0  0  0  0  0  0
  -23.1977   -3.5677   23.2765 C   0  0  0  0  0  0  0  0  0  0  0  0
  -21.4868   -4.8966   22.2070 C   0  0  0  0  0  0  0  0  0  0  0  0
  -24.6865  -11.0104   19.7043 C   0  0  0  0  0  0  0  0  0  0  0  0
  -25.4295  -12.5477   18.3188 C   0  0  0  0  0  0  0  0  0  0  0  0
  -28.2121  -24.2568   19.4586 C   0  0  0  0  0  0  0  0  0  0  0  0
  -29.4605  -24.2400   20.1790 C   0  0  0  0  0  0  0  0  0  0  0  0
  -27.7944  -22.8638   19.1365 C   0  0  0  0  0  0  0  0  0  0  0  0
  -30.1636  -25.2773   20.6461 C   0  0  0  0  0  0  0  0  0  0  0  0
  -23.0424  -11.9084   17.9420 C   0  0  0  0  0  0  0  0  0  0  0  0
  -27.4633  -25.3010   19.0869 C   0  0  0  0  0  0  0  0  0  1  0  0
  -22.4132  -30.0048   21.1407 C   0  0  0  0  0  0  0  0  0  0  0  0
  -24.0035  -32.7679   20.5422 C   0  0  0  0  0  0  0  0  0  0  0  0
  -26.9238  -34.2970   19.6587 C   0  0  0  0  0  0  0  0  0  0  0  0
  -29.8236  -15.5890   19.8825 C   0  0  0  0  0  0  0  0  0  0  0  0
  -18.0888  -28.6082   23.4660 C   0  0  0  0  0  0  0  0  0  0  0  0
  -24.4447  -29.7448   22.6108 C   0  0  0  0  0  0  0  0  0  0  0  0
  -25.1693  -30.6295   19.8837 C   0  0  0  0  0  0  0  0  0  0  0  0
  -29.8627  -22.8038   20.3275 C   0  0  0  0  0  0  0  0  0  0  0  0
  -18.6013  -29.8730   22.7821 C   0  0  0  0  0  0  0  0  0  0  0  0
  -30.2000  -12.0488   19.9358 C   0  0  0  0  0  0  0  0  0  0  0  0
  -19.2063  -29.5371   21.4227 C   0  0  0  0  0  0  0  0  0  0  0  0
  -28.7676  -11.5297   19.7911 C   0  0  0  0  0  0  0  0  0  0  0  0
  -30.2607  -13.3161   20.7868 C   0  0  0  0  0  0  0  0  0  0  0  0
  -27.9320  -13.8775   20.2114 C   0  0  0  0  0  0  0  0  0  0  0  0
  -20.4079  -28.5960   21.5710 C   0  0  1  0  0  0  0  0  0  0  0  0
  -23.5612  -30.7008   21.8154 C   0  0  1  0  0  0  0  0  0  0  0  0
  -27.8123  -12.6389   19.3086 C   0  0  2  0  0  0  0  0  0  0  0  0
  -26.1772  -25.1718   18.3362 C   0  0  0  0  0  0  0  0  0  0  0  0
  -27.9046  -36.5637   19.2146 C   0  0  0  0  0  0  0  0  0  0  0  0
  -22.6051  -32.8392   17.8313 C   0  0  0  0  0  0  0  0  0  0  0  0
  -24.2914  -34.5323   17.0841 C   0  0  0  0  0  0  0  0  0  0  0  0
  -22.7605  -35.0534   18.9834 C   0  0  0  0  0  0  0  0  0  0  0  0
  -28.8869  -34.0056   21.8542 C   0  0  0  0  0  0  0  0  0  0  0  0
  -24.6375  -33.3941   19.3237 C   0  0  1  0  0  0  0  0  0  0  0  0
  -27.6609  -35.4822   20.2556 C   0  0  2  0  0  0  0  0  0  0  0  0
  -23.5820  -33.9294   18.3153 C   0  0  0  0  0  0  0  0  0  0  0  0
  -25.9566  -11.2039   20.0693 N   0  0  0  0  0  0  0  0  0  0  0  0
  -26.3815  -12.1441   19.2081 N   0  0  0  0  0  0  0  0  0  0  0  0
  -28.8021  -22.0425   19.6703 N   0  0  0  0  0  0  0  0  0  0  0  0
  -24.2988  -31.4168   20.7726 N   0  0  0  0  0  0  0  0  0  0  0  0
  -29.3330  -14.3235   20.2678 N   0  0  0  0  0  0  0  0  0  0  0  0
  -25.6882  -13.4863   17.3837 N   0  0  0  0  0  0  0  0  0  0  0  0
  -21.9915  -11.0904   18.3787 N   0  0  0  0  0  0  0  0  0  0  0  0
  -28.8542  -16.4527   19.3736 N   0  0  0  0  0  0  0  0  0  0  0  0
  -21.5749  -29.3315   22.0088 N   0  0  0  0  0  0  0  0  0  0  0  0
  -25.5591  -34.4105   19.8198 N   0  0  0  0  0  0  0  0  0  0  0  0
  -28.9785  -35.0508   20.8024 N   0  3  0  0  0  0  0  0  0  0  0  0
  -26.7844  -22.5395   18.5347 O   0  0  0  0  0  0  0  0  0  0  0  0
  -22.8581  -12.6772   16.9681 O   0  0  0  0  0  0  0  0  0  0  0  0
  -22.2957  -30.0747   19.9230 O   0  0  0  0  0  0  0  0  0  0  0  0
  -23.2788  -33.4543   21.2671 O   0  0  0  0  0  0  0  0  0  0  0  0
  -27.5006  -33.3656   19.1017 O   0  0  0  0  0  0  0  0  0  0  0  0
  -31.0204  -15.8752   19.9701 O   0  0  0  0  0  0  0  0  0  0  0  0
  -21.5184   -7.2943   22.4285 O   0  0  0  0  0  0  0  0  0  0  0  0
  -27.8600  -26.5730   19.3909 O   0  0  0  0  0  0  0  0  0  1  0  0
  -23.7380   -2.3723   23.5475 F   0  0  0  0  0  0  0  0  0  0  0  0
  -20.3833   -4.9711   21.4504 F   0  0  0  0  0  0  0  0  0  0  0  0
  1  2  1  0  0  0  0
  1  5  2  0  0  0  0
  2  6  2  0  0  0  0
  3 12  2  0  0  0  0
  3 19  1  0  0  0  0
  4 13  1  0  0  0  0
  4 19  2  0  0  0  0
  5 21  1  0  0  0  0
  6 23  1  0  0  0  0
  7 14  2  0  0  0  0
  7 22  1  0  0  0  0
  8 10  2  0  0  0  0
  8 25  1  0  0  0  0
  9 11  1  0  0  0  0
  9 25  2  0  0  0  0
 10 26  1  0  0  0  0
 11 26  2  0  0  0  0
 12 27  1  0  0  0  0
 13 27  2  0  0  0  0
 14 28  1  0  0  0  0
 15 16  2  0  0  0  0
 15 29  1  0  0  0  0
 16 30  1  0  0  0  0
 17 24  1  0  0  0  0
 17 28  2  0  0  0  0
 18 30  2  0  0  0  0
 18 31  1  0  0  0  0
 19 32  1  0  0  0  0
 20 32  1  0  0  0  0
 20 33  2  0  0  0  0
 20 38  1  0  0  0  0
 21 23  2  0  0  0  0
 21 44  1  0  0  0  0
 22 24  2  0  0  0  0
 22 45  1  0  0  0  0
 23 54  1  0  0  0  0
 24 46  1  0  0  0  0
 25 68  1  0  0  0  0
 26 73  1  0  0  0  0
 27 83  1  0  0  0  0
 28 84  1  0  0  0  0
 29 31  2  0  0  0  0
 29 83  1  0  0  0  0
 30 85  1  0  0  0  0
 31 86  1  0  0  0  0
 32 66  2  0  0  0  0
 33 67  1  0  0  0  0
 33 71  1  0  0  0  0
 34 35  1  0  0  0  0
 34 36  1  0  0  0  0
 34 39  2  0  0  0  0
 35 37  2  0  0  0  0
 35 47  1  0  0  0  0
 36 68  1  0  0  0  0
 36 77  2  0  0  0  0
 38 72  1  0  0  0  0
 38 78  2  0  0  0  0
 39 57  1  0  0  0  0
 39 84  1  0  0  0  0
 40 55  1  0  0  0  0
 40 74  1  0  0  0  0
 40 79  2  0  0  0  0
 41 63  1  0  0  0  0
 41 69  1  0  0  0  0
 41 80  2  0  0  0  0
 42 64  1  0  0  0  0
 42 75  1  0  0  0  0
 42 81  2  0  0  0  0
 43 70  1  0  0  0  0
 43 73  1  0  0  0  0
 43 82  2  0  0  0  0
 44 48  1  0  0  0  0
 45 55  1  0  0  0  0
 46 69  1  0  0  0  0
 47 68  1  0  0  0  0
 48 50  1  0  0  0  0
 49 51  1  0  0  0  0
 49 52  1  0  0  0  0
 50 54  1  0  0  0  0
 51 56  1  0  0  0  0
 52 70  1  0  0  0  0
 53 56  1  0  0  0  0
 53 70  1  0  0  0  0
 54 74  1  0  0  0  0
 55 69  1  0  0  0  0
 56 67  1  0  0  0  0
 58 64  1  0  0  0  0
 59 65  1  0  0  0  0
 60 65  1  0  0  0  0
 61 65  1  0  0  0  0
 62 76  1  0  0  0  0
 63 65  1  0  0  0  0
 63 75  1  0  0  0  0
 64 76  1  0  0  0  0
 66 67  1  0  0  0  0
M  CHG  1  76   1
M  ISO  4  39 101  43 100  73 100  84 101
M  END
> <Batch ID>
0080

> <Smiles>
C=C1CN(c2ccc([100NH:0][100C:0](=O)N3CCCC(n4nc(-c5ccc(Oc6ccc(F)cc6F)cc5)c(C(N)=O)c4N)C3)cc2)C(=O)C1=[101C:1](C)[101O:1]c1ccc2c(c1)CN(C(=O)C(NC(=O)C(C)NC)C(C)(C)C)C(C(=O)NC1CCCc3ccccc31)C2

> <Shape>
0.295

> <Color>
0.129

> <Negative vol penalty>
0.000

$$$$

  -OEChem-04052300023D

 84 93  0     1  0  0  0  0  0999 V2000
  -28.5777  -36.2658   21.5224 C   0  0  0  0  0  0  0  0  0  0  0  0
  -28.7404  -34.8920   21.6702 C   0  0  0  0  0  0  0  0  0  0  0  0
  -32.8659  -20.5893   21.3176 C   0  0  0  0  0  0  0  0  0  0  0  0
  -24.1690  -15.0186   22.2960 C   0  0  0  0  0  0  0  0  0  0  0  0
  -26.0222  -13.4995   21.9878 C   0  0  0  0  0  0  0  0  0  0  0  0
  -32.7503  -19.6089   20.3322 C   0  0  0  0  0  0  0  0  0  0  0  0
  -27.3740  -36.8673   21.8874 C   0  0  0  0  0  0  0  0  0  0  0  0
  -27.6997  -34.1191   22.1841 C   0  0  0  0  0  0  0  0  0  0  0  0
  -26.9691  -29.8515   19.5575 C   0  0  0  0  0  0  0  0  0  0  0  0
  -32.0280  -21.7042   21.2938 C   0  0  0  0  0  0  0  0  0  0  0  0
  -23.3327  -13.9400   22.5840 C   0  0  0  0  0  0  0  0  0  0  0  0
  -25.1860  -12.4209   22.2758 C   0  0  0  0  0  0  0  0  0  0  0  0
  -27.8552  -28.8007   19.7908 C   0  0  0  0  0  0  0  0  0  0  0  0
  -22.8373  -10.5920   20.6728 C   0  0  0  0  0  0  0  0  0  0  0  0
  -22.9179   -9.4709   19.8469 C   0  0  0  0  0  0  0  0  0  0  0  0
  -30.9590  -20.8583   19.2992 C   0  0  0  0  0  0  0  0  0  0  0  0
  -26.2269  -27.7556   21.2314 C   0  0  0  0  0  0  0  0  0  0  0  0
  -23.5375   -8.1149   21.7482 C   0  0  0  0  0  0  0  0  0  0  0  0
  -25.5137  -14.7984   21.9978 C   0  0  0  0  0  0  0  0  0  0  0  0
  -31.7969  -19.7433   19.3230 C   0  0  0  0  0  0  0  0  0  0  0  0
  -27.1443  -16.6615   22.6122 C   0  0  0  0  0  0  0  0  0  0  0  0
  -26.3146  -36.1000   22.3970 C   0  0  0  0  0  0  0  0  0  0  0  0
  -25.7073  -29.8677   20.1691 C   0  0  0  0  0  0  0  0  0  0  0  0
  -26.4812  -34.7111   22.5574 C   0  0  0  0  0  0  0  0  0  0  0  0
  -25.3257  -28.8065   21.0022 C   0  0  0  0  0  0  0  0  0  0  0  0
  -31.0746  -21.8387   20.2846 C   0  0  0  0  0  0  0  0  0  0  0  0
  -23.8412  -12.6412   22.5739 C   0  0  0  0  0  0  0  0  0  0  0  0
  -27.4852  -27.7539   20.6302 C   0  0  0  0  0  0  0  0  0  0  0  0
  -23.1068  -10.4746   22.0364 C   0  0  0  0  0  0  0  0  0  0  0  0
  -23.2680   -8.2323   20.3846 C   0  0  0  0  0  0  0  0  0  0  0  0
  -23.4569   -9.2361   22.5740 C   0  0  0  0  0  0  0  0  0  0  0  0
  -26.3779  -15.9121   21.6996 C   0  0  0  0  0  0  0  0  0  0  0  0
  -27.7835  -17.5975   21.8364 C   0  0  0  0  0  0  0  0  0  0  0  0
  -29.1041  -24.5762   20.1572 C   0  0  0  0  0  0  0  0  0  0  0  0
  -29.2553  -23.3207   19.4208 C   0  0  0  0  0  0  0  0  0  0  0  0
  -28.2998  -25.6466   20.0251 C   0  0  0  0  0  0  0  0  0  1  0  0
  -31.6775  -18.7204   18.2964 C   0  0  0  0  0  0  0  0  0  0  0  0
  -27.2673  -16.5239   24.0340 C   0  0  0  0  0  0  0  0  0  0  0  0
  -30.6766  -18.8309   17.2104 C   0  0  0  0  0  0  0  0  0  0  0  0
  -24.2325  -31.7989   22.2182 C   0  0  0  0  0  0  0  0  0  0  0  0
  -21.7014  -29.8598   21.6217 C   0  0  0  0  0  0  0  0  0  0  0  0
  -20.5679  -26.8056   20.6048 C   0  0  0  0  0  0  0  0  0  0  0  0
  -25.0490  -36.8015   22.8220 C   0  0  0  0  0  0  0  0  0  0  0  0
  -24.7528  -30.9952   19.8860 C   0  0  0  0  0  0  0  0  0  0  0  0
  -23.9747  -28.7664   21.6669 C   0  0  0  0  0  0  0  0  0  0  0  0
  -30.2142  -24.1350   21.0833 C   0  0  0  0  0  0  0  0  0  0  0  0
  -23.8630  -35.8586   23.0080 C   0  0  0  0  0  0  0  0  0  0  0  0
  -27.0976  -18.9133   17.0095 C   0  0  0  0  0  0  0  0  0  0  0  0
  -24.2772  -34.6325   23.8153 C   0  0  0  0  0  0  0  0  0  0  0  0
  -26.6560  -18.1667   18.2678 C   0  0  0  0  0  0  0  0  0  0  0  0
  -28.3894  -18.3347   16.4414 C   0  0  0  0  0  0  0  0  0  0  0  0
  -29.0768  -17.5438   18.6888 C   0  0  0  0  0  0  0  0  0  0  0  0
  -25.3668  -33.8354   23.0880 C   0  0  1  0  0  0  0  0  0  0  0  0
  -23.6910  -31.1651   20.9681 C   0  0  1  0  0  0  0  0  0  0  0  0
  -27.7900  -18.1176   19.3072 C   0  0  2  0  0  0  0  0  0  0  0  0
  -18.4493  -25.5062   20.2581 C   0  0  0  0  0  0  0  0  0  0  0  0
  -21.4527  -29.4652   24.6371 C   0  0  0  0  0  0  0  0  0  0  0  0
  -19.9954  -27.4798   24.1869 C   0  0  0  0  0  0  0  0  0  0  0  0
  -19.2758  -29.7482   23.4390 C   0  0  0  0  0  0  0  0  0  0  0  0
  -21.1093  -26.4709   17.7145 C   0  0  0  0  0  0  0  0  0  0  0  0
  -21.1653  -28.5849   22.2270 C   0  0  1  0  0  0  0  0  0  0  0  0
  -19.4880  -26.4108   19.6136 C   0  0  2  0  0  0  0  0  0  0  0  0
  -20.4986  -28.8210   23.6116 C   0  0  0  0  0  0  0  0  0  0  0  0
  -26.5162  -16.3355   20.4404 N   0  0  0  0  0  0  0  0  0  0  0  0
  -32.4293  -17.6535   18.2567 N   0  0  0  0  0  0  0  0  0  0  0  0
  -27.3768  -17.3612   20.5562 N   0  0  0  0  0  0  0  0  0  0  0  0
  -30.2481  -22.9382   20.2615 N   0  0  0  0  0  0  0  0  0  0  0  0
  -29.4330  -18.2688   17.4626 N   0  0  0  0  0  0  0  0  0  0  0  0
  -23.0791  -29.8950   21.3639 N   0  0  0  0  0  0  0  0  0  0  0  0
  -28.6482  -18.5914   22.1313 N   0  0  0  0  0  0  0  0  0  0  0  0
  -26.5410  -15.5095   24.6725 N   0  0  0  0  0  0  0  0  0  0  0  0
  -24.7892  -33.0480   22.0200 N   0  0  0  0  0  0  0  0  0  0  0  0
  -20.2770  -28.0007   21.2279 N   0  0  0  0  0  0  0  0  0  0  0  0
  -20.0867  -25.6886   18.4557 N   0  3  0  0  0  0  0  0  0  0  0  0
  -28.7247  -22.8247   18.4487 O   0  0  0  0  0  0  0  0  0  0  0  0
  -27.9870  -17.2887   24.7202 O   0  0  0  0  0  0  0  0  0  0  0  0
  -31.0559  -19.4092   16.2005 O   0  0  0  0  0  0  0  0  0  0  0  0
  -24.1499  -31.1997   23.2840 O   0  0  0  0  0  0  0  0  0  0  0  0
  -20.9252  -30.7874   21.3797 O   0  0  0  0  0  0  0  0  0  0  0  0
  -21.5675  -26.1203   20.8088 O   0  0  0  0  0  0  0  0  0  0  0  0
  -23.0255  -11.5885   22.8552 O   0  0  0  0  0  0  0  0  0  0  0  0
  -28.3484  -26.7273   20.8601 O   0  0  0  0  0  0  0  0  0  1  0  0
  -23.3439   -7.1554   19.5916 F   0  0  0  0  0  0  0  0  0  0  0  0
  -23.7158   -9.1169   23.8835 F   0  0  0  0  0  0  0  0  0  0  0  0
  1  2  1  0  0  0  0
  1  7  2  0  0  0  0
  2  8  2  0  0  0  0
  3  6  1  0  0  0  0
  3 10  2  0  0  0  0
  4 11  2  0  0  0  0
  4 19  1  0  0  0  0
  5 12  1  0  0  0  0
  5 19  2  0  0  0  0
  6 20  2  0  0  0  0
  7 22  1  0  0  0  0
  8 24  1  0  0  0  0
  9 13  2  0  0  0  0
  9 23  1  0  0  0  0
 10 26  1  0  0  0  0
 11 27  1  0  0  0  0
 12 27  2  0  0  0  0
 13 28  1  0  0  0  0
 14 15  2  0  0  0  0
 14 29  1  0  0  0  0
 15 30  1  0  0  0  0
 16 20  1  0  0  0  0
 16 26  2  0  0  0  0
 17 25  1  0  0  0  0
 17 28  2  0  0  0  0
 18 30  2  0  0  0  0
 18 31  1  0  0  0  0
 19 32  1  0  0  0  0
 20 37  1  0  0  0  0
 21 32  1  0  0  0  0
 21 33  2  0  0  0  0
 21 38  1  0  0  0  0
 22 24  2  0  0  0  0
 22 43  1  0  0  0  0
 23 25  2  0  0  0  0
 23 44  1  0  0  0  0
 24 53  1  0  0  0  0
 25 45  1  0  0  0  0
 26 67  1  0  0  0  0
 27 81  1  0  0  0  0
 28 82  1  0  0  0  0
 29 31  2  0  0  0  0
 29 81  1  0  0  0  0
 30 83  1  0  0  0  0
 31 84  1  0  0  0  0
 32 64  2  0  0  0  0
 33 66  1  0  0  0  0
 33 70  1  0  0  0  0
 34 35  1  0  0  0  0
 34 36  2  0  0  0  0
 34 46  1  0  0  0  0
 35 67  1  0  0  0  0
 35 75  2  0  0  0  0
 36 82  1  0  0  0  0
 37 39  1  0  0  0  0
 37 65  2  0  0  0  0
 38 71  1  0  0  0  0
 38 76  2  0  0  0  0
 39 68  1  0  0  0  0
 39 77  2  0  0  0  0
 40 54  1  0  0  0  0
 40 72  1  0  0  0  0
 40 78  2  0  0  0  0
 41 61  1  0  0  0  0
 41 69  1  0  0  0  0
 41 79  2  0  0  0  0
 42 62  1  0  0  0  0
 42 73  1  0  0  0  0
 42 80  2  0  0  0  0
 43 47  1  0  0  0  0
 44 54  1  0  0  0  0
 45 69  1  0  0  0  0
 46 67  1  0  0  0  0
 47 49  1  0  0  0  0
 48 50  1  0  0  0  0
 48 51  1  0  0  0  0
 49 53  1  0  0  0  0
 50 55  1  0  0  0  0
 51 68  1  0  0  0  0
 52 55  1  0  0  0  0
 52 68  1  0  0  0  0
 53 72  1  0  0  0  0
 54 69  1  0  0  0  0
 55 66  1  0  0  0  0
 56 62  1  0  0  0  0
 57 63  1  0  0  0  0
 58 63  1  0  0  0  0
 59 63  1  0  0  0  0
 60 74  1  0  0  0  0
 61 63  1  0  0  0  0
 61 73  1  0  0  0  0
 62 74  1  0  0  0  0
 64 66  1  0  0  0  0
M  CHG  1  74   1
M  ISO  4  36 101  37 100  39 100  82 101
M  END
> <Batch ID>
0080

> <Smiles>
CNC(C)C(=O)NC(C(=O)N1Cc2cc([101O:1][101CH:1]=C3CN(c4cccc([100C:0](=N)[100C:0](=O)N5CCCC(n6nc(-c7ccc(Oc8ccc(F)cc8F)cc7)c(C(N)=O)c6N)C5)c4)C3=O)ccc2CC1C(=O)NC1CCCc2ccccc21)C(C)(C)C

> <Shape>
0.256

> <Color>
0.074

> <Negative vol penalty>
0.000

$$$$

  -OEChem-04052300023D

 84 92  0     1  0  0  0  0  0999 V2000
  -24.7828  -10.2895   21.2138 C   0  0  0  0  0  0  0  0  0  0  0  0
  -25.7098  -11.1483   21.7935 C   0  0  0  0  0  0  0  0  0  0  0  0
  -21.5753  -26.9333   22.5596 C   0  0  0  0  0  0  0  0  0  0  0  0
  -21.0550  -26.5604   20.2299 C   0  0  0  0  0  0  0  0  0  0  0  0
  -24.1303  -10.6633   20.0409 C   0  0  0  0  0  0  0  0  0  0  0  0
  -25.9759  -12.3861   21.2071 C   0  0  0  0  0  0  0  0  0  0  0  0
  -29.3851  -19.5692   20.3302 C   0  0  0  0  0  0  0  0  0  0  0  0
  -20.2265  -27.1723   22.8225 C   0  0  0  0  0  0  0  0  0  0  0  0
  -19.7062  -26.7994   20.4929 C   0  0  0  0  0  0  0  0  0  0  0  0
  -29.6266  -20.5958   19.4183 C   0  0  0  0  0  0  0  0  0  0  0  0
  -18.0272  -29.7109   22.4441 C   0  0  0  0  0  0  0  0  0  0  0  0
  -17.7082  -30.8074   23.2451 C   0  0  0  0  0  0  0  0  0  0  0  0
  -27.2692  -20.6981   18.9182 C   0  0  0  0  0  0  0  0  0  0  0  0
  -16.6500  -29.3339   24.8408 C   0  0  0  0  0  0  0  0  0  0  0  0
  -21.9896  -26.6274   21.2632 C   0  0  0  0  0  0  0  0  0  0  0  0
  -24.0526  -25.1436   21.0392 C   0  0  0  0  0  0  0  0  0  0  0  0
  -24.3983  -11.9013   19.4337 C   0  0  0  0  0  0  0  0  0  0  0  0
  -28.0828  -19.0910   20.5360 C   0  0  0  0  0  0  0  0  0  0  0  0
  -25.3100  -12.7917   20.0364 C   0  0  0  0  0  0  0  0  0  0  0  0
  -27.0133  -19.6686   19.8367 C   0  0  0  0  0  0  0  0  0  0  0  0
  -19.2919  -27.1053   21.7892 C   0  0  0  0  0  0  0  0  0  0  0  0
  -28.5689  -21.1588   18.7105 C   0  0  0  0  0  0  0  0  0  0  0  0
  -17.6575  -28.4259   22.8414 C   0  0  0  0  0  0  0  0  0  0  0  0
  -17.0197  -30.6189   24.4435 C   0  0  0  0  0  0  0  0  0  0  0  0
  -16.9690  -28.2374   24.0398 C   0  0  0  0  0  0  0  0  0  0  0  0
  -23.3829  -26.3810   20.9909 C   0  0  0  0  0  0  0  0  0  0  0  0
  -25.3499  -25.4420   20.7009 C   0  0  0  0  0  0  0  0  0  0  0  0
  -32.8459  -29.4912   16.9798 C   0  0  0  0  0  0  0  0  0  0  0  0
  -33.0447  -30.3042   18.1439 C   0  0  0  0  0  0  0  0  0  0  0  0
  -32.1364  -28.3662   16.8542 C   0  0  0  0  0  0  0  0  0  0  0  0
  -32.4256  -30.2637   19.3255 C   0  0  0  0  0  0  0  0  0  0  0  0
  -31.0358  -28.0819   19.0807 C   0  0  0  0  0  0  0  0  0  0  0  0
  -31.3644  -27.6599   17.8503 C   0  0  0  0  0  0  0  0  0  0  0  0
  -31.3817  -29.3288   19.8117 C   0  0  0  0  0  0  0  0  0  0  0  0
  -29.3682  -23.3153   18.2844 C   0  0  0  0  0  0  0  0  0  1  0  0
  -23.5472  -23.8411   21.3610 C   0  0  0  0  0  0  0  0  0  0  0  0
  -30.1648  -24.1505   17.5995 C   0  0  0  0  0  0  0  0  0  0  0  0
  -30.6810  -25.3673   18.3065 C   0  0  0  0  0  0  0  0  0  0  0  0
  -26.5606  -16.2946   20.2067 C   0  0  0  0  0  0  0  0  0  0  0  0
  -24.1161  -18.0525   21.6165 C   0  0  0  0  0  0  0  0  0  0  0  0
  -22.9138  -15.4344   23.4442 C   0  0  0  0  0  0  0  0  0  0  0  0
  -29.8065  -28.6601   21.3377 C   0  0  0  0  0  0  0  0  0  0  0  0
  -23.6577  -12.2587   18.1692 C   0  0  0  0  0  0  0  0  0  0  0  0
  -27.8398  -18.0031   21.5468 C   0  0  0  0  0  0  0  0  0  0  0  0
  -25.5977  -19.1937   20.0245 C   0  0  0  0  0  0  0  0  0  0  0  0
  -24.3260  -13.3845   17.3868 C   0  0  0  0  0  0  0  0  0  0  0  0
  -27.3848  -29.6579   18.8066 C   0  0  0  0  0  0  0  0  0  0  0  0
  -24.6374  -14.5489   18.3152 C   0  0  0  0  0  0  0  0  0  0  0  0
  -26.1686  -28.8126   19.1834 C   0  0  0  0  0  0  0  0  0  0  0  0
  -28.1676  -30.0968   20.0409 C   0  0  0  0  0  0  0  0  0  0  0  0
  -27.3716  -28.1131   21.2994 C   0  0  0  0  0  0  0  0  0  0  0  0
  -25.6381  -14.1302   19.3997 C   0  0  1  0  0  0  0  0  0  0  0  0
  -26.5145  -17.2705   21.3481 C   0  0  1  0  0  0  0  0  0  0  0  0
  -26.5754  -27.6273   20.0767 C   0  0  1  0  0  0  0  0  0  0  0  0
  -21.2957  -14.1152   24.8366 C   0  0  0  0  0  0  0  0  0  0  0  0
  -25.2863  -19.7105   23.8940 C   0  0  0  0  0  0  0  0  0  0  0  0
  -23.9592  -18.3173   25.4959 C   0  0  0  0  0  0  0  0  0  0  0  0
  -22.7878  -19.7040   23.7849 C   0  0  0  0  0  0  0  0  0  0  0  0
  -21.6106  -14.2846   21.0487 C   0  0  0  0  0  0  0  0  0  0  0  0
  -24.0218  -17.6203   23.0585 C   0  0  1  0  0  0  0  0  0  0  0  0
  -21.5418  -14.7867   23.4945 C   0  0  2  0  0  0  0  0  0  0  0  0
  -24.0321  -18.8258   24.0403 C   0  0  0  0  0  0  0  0  0  0  0  0
  -24.1882  -27.3902   20.6490 N   0  0  0  0  0  0  0  0  0  0  0  0
  -30.7722  -29.5585   20.9238 N   0  0  0  0  0  0  0  0  0  0  0  0
  -25.3774  -26.7875   20.4795 N   0  0  0  0  0  0  0  0  0  0  0  0
  -25.4027  -18.1917   21.0805 N   0  0  0  0  0  0  0  0  0  0  0  0
  -28.5043  -28.9467   20.8874 N   0  0  0  0  0  0  0  0  0  0  0  0
  -26.4584  -24.6820   20.5742 N   0  0  0  0  0  0  0  0  0  0  0  0
  -22.1898  -23.7125   21.6855 N   0  0  0  0  0  0  0  0  0  0  0  0
  -30.8936  -26.4328   17.4453 N   0  0  0  0  0  0  0  0  0  0  0  0
  -25.7466  -15.1910   20.3768 N   0  0  0  0  0  0  0  0  0  0  0  0
  -22.8329  -16.7804   23.1560 N   0  0  0  0  0  0  0  0  0  0  0  0
  -21.4153  -13.7577   22.4239 N   0  3  0  0  0  0  0  0  0  0  0  0
  -24.2812  -22.8240   21.3768 O   0  0  0  0  0  0  0  0  0  0  0  0
  -30.8820  -25.3811   19.5183 O   0  0  0  0  0  0  0  0  0  0  0  0
  -27.2802  -16.5264   19.2422 O   0  0  0  0  0  0  0  0  0  0  0  0
  -23.0793  -18.2686   20.9829 O   0  0  0  0  0  0  0  0  0  0  0  0
  -23.9531  -14.8097   23.6445 O   0  0  0  0  0  0  0  0  0  0  0  0
  -30.0403  -27.6797   22.0488 O   0  0  0  0  0  0  0  0  0  0  0  0
  -30.5410  -23.9628   16.2875 O   0  0  0  0  0  0  0  0  0  0  0  0
  -17.9756  -27.3383   22.0455 O   0  0  0  0  0  0  0  0  0  0  0  0
  -28.8018  -22.1614   17.8203 O   0  0  0  0  0  0  0  0  0  1  0  0
  -16.7148  -31.6718   25.2133 F   0  0  0  0  0  0  0  0  0  0  0  0
  -16.6123  -27.0052   24.4273 F   0  0  0  0  0  0  0  0  0  0  0  0
  1  2  1  0  0  0  0
  1  5  2  0  0  0  0
  2  6  2  0  0  0  0
  3  8  2  0  0  0  0
  3 15  1  0  0  0  0
  4  9  1  0  0  0  0
  4 15  2  0  0  0  0
  5 17  1  0  0  0  0
  6 19  1  0  0  0  0
  7 10  2  0  0  0  0
  7 18  1  0  0  0  0
  8 21  1  0  0  0  0
  9 21  2  0  0  0  0
 10 22  1  0  0  0  0
 11 12  2  0  0  0  0
 11 23  1  0  0  0  0
 12 24  1  0  0  0  0
 13 20  1  0  0  0  0
 13 22  2  0  0  0  0
 14 24  2  0  0  0  0
 14 25  1  0  0  0  0
 15 26  1  0  0  0  0
 16 26  1  0  0  0  0
 16 27  2  0  0  0  0
 16 36  1  0  0  0  0
 17 19  2  0  0  0  0
 17 43  1  0  0  0  0
 18 20  2  0  0  0  0
 18 44  1  0  0  0  0
 19 52  1  0  0  0  0
 20 45  1  0  0  0  0
 21 81  1  0  0  0  0
 22 82  1  0  0  0  0
 23 25  2  0  0  0  0
 23 81  1  0  0  0  0
 24 83  1  0  0  0  0
 25 84  1  0  0  0  0
 26 63  2  0  0  0  0
 27 65  1  0  0  0  0
 27 68  1  0  0  0  0
 28 29  1  0  0  0  0
 28 30  2  0  0  0  0
 29 31  2  0  0  0  0
 30 33  1  0  0  0  0
 31 34  1  0  0  0  0
 32 33  2  0  0  0  0
 32 34  1  0  0  0  0
 33 70  1  0  0  0  0
 34 64  2  0  0  0  0
 35 37  2  0  0  0  0
 35 82  1  0  0  0  0
 36 69  1  0  0  0  0
 36 74  2  0  0  0  0
 37 38  1  0  0  0  0
 37 80  1  0  0  0  0
 38 70  1  0  0  0  0
 38 75  2  0  0  0  0
 39 53  1  0  0  0  0
 39 71  1  0  0  0  0
 39 76  2  0  0  0  0
 40 60  1  0  0  0  0
 40 66  1  0  0  0  0
 40 77  2  0  0  0  0
 41 61  1  0  0  0  0
 41 72  1  0  0  0  0
 41 78  2  0  0  0  0
 42 64  1  0  0  0  0
 42 67  1  0  0  0  0
 42 79  2  0  0  0  0
 43 46  1  0  0  0  0
 44 53  1  0  0  0  0
 45 66  1  0  0  0  0
 46 48  1  0  0  0  0
 47 49  1  0  0  0  0
 47 50  1  0  0  0  0
 48 52  1  0  0  0  0
 49 54  1  0  0  0  0
 50 67  1  0  0  0  0
 51 54  1  0  0  0  0
 51 67  1  0  0  0  0
 52 71  1  0  0  0  0
 53 66  1  0  0  0  0
 54 65  1  0  0  0  0
 55 61  1  0  0  0  0
 56 62  1  0  0  0  0
 57 62  1  0  0  0  0
 58 62  1  0  0  0  0
 59 73  1  0  0  0  0
 60 62  1  0  0  0  0
 60 72  1  0  0  0  0
 61 73  1  0  0  0  0
 63 65  1  0  0  0  0
M  CHG  1  73   1
M  ISO  4  35 101  42 100  64 100  82 101
M  END
> <Batch ID>
0080

> <Smiles>
CNC(C)C(=O)NC(C(=O)N1Cc2cc([101O:1][101CH2:1]C(=O)C(=O)Nc3ccccc(=[100N:0][100C:0](=O)N4CCCC(n5nc(-c6ccc(Oc7ccc(F)cc7F)cc6)c(C(N)=O)c5N)C4)c3)ccc2CC1C(=O)NC1CCCc2ccccc21)C(C)(C)C

> <Shape>
0.216

> <Color>
0.063

> <Negative vol penalty>
0.000

$$$$

  -OEChem-04052300023D

 86 95  0     1  0  0  0  0  0999 V2000
  -16.8775  -31.6065   23.8447 C   0  0  0  0  0  0  0  0  0  0  0  0
  -18.1218  -32.1235   24.1911 C   0  0  0  0  0  0  0  0  0  0  0  0
  -24.4588  -13.2690   20.0425 C   0  0  0  0  0  0  0  0  0  0  0  0
  -26.3984  -13.3039   21.4825 C   0  0  0  0  0  0  0  0  0  0  0  0
  -16.7740  -30.2981   23.3742 C   0  0  0  0  0  0  0  0  0  0  0  0
  -19.2632  -31.3319   24.0683 C   0  0  0  0  0  0  0  0  0  0  0  0
  -26.2503  -31.8061   22.5610 C   0  0  0  0  0  0  0  0  0  0  0  0
  -29.0498  -23.5587   24.0814 C   0  0  0  0  0  0  0  0  0  0  0  0
  -28.4068  -22.6739   23.2158 C   0  0  0  0  0  0  0  0  0  0  0  0
  -24.5141  -11.8758   20.0017 C   0  0  0  0  0  0  0  0  0  0  0  0
  -26.4538  -11.9107   21.4418 C   0  0  0  0  0  0  0  0  0  0  0  0
  -27.4912  -31.4382   23.0791 C   0  0  0  0  0  0  0  0  0  0  0  0
  -23.6389   -9.2887   21.9951 C   0  0  0  0  0  0  0  0  0  0  0  0
  -22.4443   -8.5874   22.1585 C   0  0  0  0  0  0  0  0  0  0  0  0
  -27.2017  -29.2184   22.1801 C   0  0  0  0  0  0  0  0  0  0  0  0
  -29.8786  -23.3561   21.4253 C   0  0  0  0  0  0  0  0  0  0  0  0
  -22.7310   -7.5905   19.9765 C   0  0  0  0  0  0  0  0  0  0  0  0
  -25.4010  -13.9830   20.7829 C   0  0  0  0  0  0  0  0  0  0  0  0
  -24.6438  -16.2188   21.7501 C   0  0  0  0  0  0  0  0  0  0  0  0
  -17.9159  -29.4933   23.2364 C   0  0  0  0  0  0  0  0  0  0  0  0
  -25.4695  -30.8782   21.8568 C   0  0  0  0  0  0  0  0  0  0  0  0
  -19.1747  -30.0111   23.5969 C   0  0  0  0  0  0  0  0  0  0  0  0
  -25.9523  -29.5778   21.6520 C   0  0  0  0  0  0  0  0  0  0  0  0
  -30.1071  -24.3423   23.6190 C   0  0  0  0  0  0  0  0  0  0  0  0
  -28.8212  -22.5726   21.8878 C   0  0  0  0  0  0  0  0  0  0  0  0
  -25.5116  -11.1967   20.7014 C   0  0  0  0  0  0  0  0  0  0  0  0
  -27.9659  -30.1434   22.8912 C   0  0  0  0  0  0  0  0  0  0  0  0
  -24.3796   -9.1409   20.8224 C   0  0  0  0  0  0  0  0  0  0  0  0
  -21.9903   -7.7383   21.1493 C   0  0  0  0  0  0  0  0  0  0  0  0
  -30.5215  -24.2410   22.2910 C   0  0  0  0  0  0  0  0  0  0  0  0
  -23.9256   -8.2918   19.8131 C   0  0  0  0  0  0  0  0  0  0  0  0
  -25.3447  -15.4222   20.8250 C   0  0  0  0  0  0  0  0  0  0  0  0
  -24.9094  -17.5094   21.3625 C   0  0  0  0  0  0  0  0  0  0  0  0
  -28.5642  -28.7924   25.4781 C   0  0  0  0  0  0  0  0  0  0  0  0
  -29.2167  -28.7484   24.3088 C   0  0  0  0  0  0  0  0  0  1  0  0
  -30.0967  -27.5892   23.9737 C   0  0  0  0  0  0  0  0  0  0  0  0
  -23.8258  -15.8272   22.8606 C   0  0  0  0  0  0  0  0  0  0  0  0
  -22.6016  -29.5762   22.2853 C   0  0  0  0  0  0  0  0  0  0  0  0
  -23.1708  -28.3060   19.3554 C   0  0  0  0  0  0  0  0  0  0  0  0
  -25.4539  -27.3501   17.0058 C   0  0  0  0  0  0  0  0  0  0  0  0
  -28.4532  -21.4528   19.6613 C   0  0  0  0  0  0  0  0  0  0  0  0
  -17.7484  -28.0694   22.7683 C   0  0  0  0  0  0  0  0  0  0  0  0
  -24.1449  -31.2985   21.2813 C   0  0  0  0  0  0  0  0  0  0  0  0
  -25.1617  -28.5500   20.8858 C   0  0  0  0  0  0  0  0  0  0  0  0
  -28.6091  -27.6851   26.4765 C   0  0  0  0  0  0  0  0  0  0  0  0
  -19.0528  -27.4204   22.3129 C   0  0  0  0  0  0  0  0  0  0  0  0
  -27.0987  -19.3040   17.1663 C   0  0  0  0  0  0  0  0  0  0  0  0
  -20.1638  -27.6889   23.3232 C   0  0  0  0  0  0  0  0  0  0  0  0
  -26.4640  -18.1681   17.9718 C   0  0  0  0  0  0  0  0  0  0  0  0
  -28.9429  -26.3597   25.8122 C   0  0  0  0  0  0  0  0  0  0  0  0
  -28.3939  -19.7991   17.8075 C   0  0  0  0  0  0  0  0  0  0  0  0
  -27.6474  -19.0380   20.0285 C   0  0  0  0  0  0  0  0  0  0  0  0
  -20.4390  -29.1918   23.4542 C   0  0  1  0  0  0  0  0  0  0  0  0
  -23.2059  -30.1241   21.0235 C   0  0  1  0  0  0  0  0  0  0  0  0
  -26.3063  -18.5499   19.4567 C   0  0  2  0  0  0  0  0  0  0  0  0
  -25.6189  -26.3101   14.7280 C   0  0  0  0  0  0  0  0  0  0  0  0
  -22.5777  -25.5683   20.5650 C   0  0  0  0  0  0  0  0  0  0  0  0
  -23.6607  -24.5263   18.5627 C   0  0  0  0  0  0  0  0  0  0  0  0
  -21.6182  -25.9311   18.2842 C   0  0  0  0  0  0  0  0  0  0  0  0
  -26.7638  -29.7519   15.8767 C   0  0  0  0  0  0  0  0  0  0  0  0
  -30.7976  -25.2920   24.5546 C   0  0  0  0  0  0  0  0  0  0  0  0
  -23.8191  -27.0414   18.8460 C   0  0  1  0  0  0  0  0  0  0  0  0
  -25.5314  -27.6101   15.5122 C   0  0  2  0  0  0  0  0  0  0  0  0
  -22.9332  -25.7853   19.0806 C   0  0  0  0  0  0  0  0  0  0  0  0
  -26.0058  -16.1461   19.9178 N   0  0  0  0  0  0  0  0  0  0  0  0
  -25.7213  -17.4112   20.2710 N   0  0  0  0  0  0  0  0  0  0  0  0
  -29.9985  -26.4807   24.8118 N   0  0  0  0  0  0  0  0  0  0  0  0
  -23.8698  -29.0073   20.3480 N   0  0  0  0  0  0  0  0  0  0  0  0
  -28.1670  -20.1463   19.2121 N   0  0  0  0  0  0  0  0  0  0  0  0
  -24.5252  -18.7073   21.8521 N   0  0  0  0  0  0  0  0  0  0  0  0
  -23.6585  -14.4596   23.1178 N   0  0  0  0  0  0  0  0  0  0  0  0
  -28.1668  -21.6752   21.0079 N   0  0  0  0  0  0  0  0  0  0  0  0
  -21.2232  -29.6616   22.3322 N   0  0  0  0  0  0  0  0  0  0  0  0
  -24.1488  -27.2869   17.4462 N   0  0  0  0  0  0  0  0  0  0  0  0
  -26.7310  -28.4342   15.1914 N   0  3  0  0  0  0  0  0  0  0  0  0
  -30.8507  -27.6723   23.0042 O   0  0  0  0  0  0  0  0  0  0  0  0
  -23.2467  -16.6649   23.5930 O   0  0  0  0  0  0  0  0  0  0  0  0
  -23.3317  -29.1092   23.1516 O   0  0  0  0  0  0  0  0  0  0  0  0
  -22.0878  -28.6623   18.8846 O   0  0  0  0  0  0  0  0  0  0  0  0
  -26.4514  -27.2128   17.7106 O   0  0  0  0  0  0  0  0  0  0  0  0
  -28.8924  -22.3190   18.9005 O   0  0  0  0  0  0  0  0  0  0  0  0
  -25.5658   -9.8372   20.6620 O   0  0  0  0  0  0  0  0  0  0  0  0
  -29.1765  -29.7815   23.3963 O   0  0  0  0  0  0  0  0  0  1  0  0
  -20.8439   -7.0638   21.3070 F   0  0  0  0  0  0  0  0  0  0  0  0
  -31.5365  -24.9897   21.8375 F   0  0  0  0  0  0  0  0  0  0  0  0
  -24.6335   -8.1449   18.6848 F   0  0  0  0  0  0  0  0  0  0  0  0
  1  2  1  0  0  0  0
  1  5  2  0  0  0  0
  2  6  2  0  0  0  0
  3 10  2  0  0  0  0
  3 18  1  0  0  0  0
  4 11  1  0  0  0  0
  4 18  2  0  0  0  0
  5 20  1  0  0  0  0
  6 22  1  0  0  0  0
  7 12  2  0  0  0  0
  7 21  1  0  0  0  0
  8  9  2  0  0  0  0
  8 24  1  0  0  0  0
  9 25  1  0  0  0  0
 10 26  1  0  0  0  0
 11 26  2  0  0  0  0
 12 27  1  0  0  0  0
 13 14  2  0  0  0  0
 13 28  1  0  0  0  0
 14 29  1  0  0  0  0
 15 23  1  0  0  0  0
 15 27  2  0  0  0  0
 16 25  2  0  0  0  0
 16 30  1  0  0  0  0
 17 29  2  0  0  0  0
 17 31  1  0  0  0  0
 18 32  1  0  0  0  0
 19 32  1  0  0  0  0
 19 33  2  0  0  0  0
 19 37  1  0  0  0  0
 20 22  2  0  0  0  0
 20 42  1  0  0  0  0
 21 23  2  0  0  0  0
 21 43  1  0  0  0  0
 22 53  1  0  0  0  0
 23 44  1  0  0  0  0
 24 30  2  0  0  0  0
 24 61  1  0  0  0  0
 25 72  1  0  0  0  0
 26 82  1  0  0  0  0
 27 83  1  0  0  0  0
 28 31  2  0  0  0  0
 28 82  1  0  0  0  0
 29 84  1  0  0  0  0
 30 85  1  0  0  0  0
 31 86  1  0  0  0  0
 32 65  2  0  0  0  0
 33 66  1  0  0  0  0
 33 70  1  0  0  0  0
 34 35  2  0  0  0  0
 34 45  1  0  0  0  0
 35 36  1  0  0  0  0
 35 83  1  0  0  0  0
 36 67  1  0  0  0  0
 36 76  2  0  0  0  0
 37 71  1  0  0  0  0
 37 77  2  0  0  0  0
 38 54  1  0  0  0  0
 38 73  1  0  0  0  0
 38 78  2  0  0  0  0
 39 62  1  0  0  0  0
 39 68  1  0  0  0  0
 39 79  2  0  0  0  0
 40 63  1  0  0  0  0
 40 74  1  0  0  0  0
 40 80  2  0  0  0  0
 41 69  1  0  0  0  0
 41 72  1  0  0  0  0
 41 81  2  0  0  0  0
 42 46  1  0  0  0  0
 43 54  1  0  0  0  0
 44 68  1  0  0  0  0
 45 50  1  0  0  0  0
 46 48  1  0  0  0  0
 47 49  1  0  0  0  0
 47 51  1  0  0  0  0
 48 53  1  0  0  0  0
 49 55  1  0  0  0  0
 50 67  1  0  0  0  0
 51 69  1  0  0  0  0
 52 55  1  0  0  0  0
 52 69  1  0  0  0  0
 53 73  1  0  0  0  0
 54 68  1  0  0  0  0
 55 66  1  0  0  0  0
 56 63  1  0  0  0  0
 57 64  1  0  0  0  0
 58 64  1  0  0  0  0
 59 64  1  0  0  0  0
 60 75  1  0  0  0  0
 61 67  1  0  0  0  0
 62 64  1  0  0  0  0
 62 74  1  0  0  0  0
 63 75  1  0  0  0  0
 65 66  1  0  0  0  0
M  CHG  1  75   1
M  ISO  4  35 101  41 100  72 100  83 101
M  END
> <Batch ID>
0080

> <Smiles>
CNC(C)C(=O)NC(C(=O)N1Cc2cc([101O:1][101C:1]3=CCCN(Cc4ccc([100NH:0][100C:0](=O)N5CCCC(n6nc(-c7ccc(Oc8ccc(F)cc8F)cc7)c(C(N)=O)c6N)C5)cc4F)C3=O)ccc2CC1C(=O)NC1CCCc2ccccc21)C(C)(C)C

> <Shape>
0.249

> <Color>
0.109

> <Negative vol penalty>
0.000

$$$$

  -OEChem-04052300023D

 87 96  0     1  0  0  0  0  0999 V2000
  -27.9057  -37.5897   20.1140 C   0  0  0  0  0  0  0  0  0  0  0  0
  -28.4003  -36.3045   19.9168 C   0  0  0  0  0  0  0  0  0  0  0  0
  -25.7162  -10.8223   23.2005 C   0  0  0  0  0  0  0  0  0  0  0  0
  -25.4218  -13.0996   23.9516 C   0  0  0  0  0  0  0  0  0  0  0  0
  -26.9310  -37.8190   21.0842 C   0  0  0  0  0  0  0  0  0  0  0  0
  -27.9214  -35.2479   20.6907 C   0  0  0  0  0  0  0  0  0  0  0  0
  -27.1263  -29.4433   18.9073 C   0  0  0  0  0  0  0  0  0  0  0  0
  -30.4612  -20.2758   18.4255 C   0  0  0  0  0  0  0  0  0  0  0  0
  -29.9487  -19.0200   18.1001 C   0  0  0  0  0  0  0  0  0  0  0  0
  -25.9482  -10.4186   24.5153 C   0  0  0  0  0  0  0  0  0  0  0  0
  -25.6538  -12.6959   25.2665 C   0  0  0  0  0  0  0  0  0  0  0  0
  -27.9062  -28.2985   19.0648 C   0  0  0  0  0  0  0  0  0  0  0  0
  -24.1139   -9.7466   27.2751 C   0  0  0  0  0  0  0  0  0  0  0  0
  -23.4718   -8.5915   27.7214 C   0  0  0  0  0  0  0  0  0  0  0  0
  -26.6088  -27.6890   21.0050 C   0  0  0  0  0  0  0  0  0  0  0  0
  -28.0601  -19.4138   19.5544 C   0  0  0  0  0  0  0  0  0  0  0  0
  -25.6163   -7.5713   28.1660 C   0  0  0  0  0  0  0  0  0  0  0  0
  -25.4531  -12.1628   22.9186 C   0  0  0  0  0  0  0  0  0  0  0  0
  -23.9748  -12.6400   20.8951 C   0  0  0  0  0  0  0  0  0  0  0  0
  -26.4329  -36.7631   21.8637 C   0  0  0  0  0  0  0  0  0  0  0  0
  -26.0870  -29.7257   19.8053 C   0  0  0  0  0  0  0  0  0  0  0  0
  -26.9401  -35.4636   21.6732 C   0  0  0  0  0  0  0  0  0  0  0  0
  -25.8155  -28.8368   20.8552 C   0  0  0  0  0  0  0  0  0  0  0  0
  -29.7732  -21.1006   19.3155 C   0  0  0  0  0  0  0  0  0  0  0  0
  -28.7481  -18.5890   18.6645 C   0  0  0  0  0  0  0  0  0  0  0  0
  -25.9169  -11.3554   25.5483 C   0  0  0  0  0  0  0  0  0  0  0  0
  -27.6494  -27.4226   20.1155 C   0  0  0  0  0  0  0  0  0  0  0  0
  -25.5071   -9.8140   27.2742 C   0  0  0  0  0  0  0  0  0  0  0  0
  -24.2231   -7.5039   28.1669 C   0  0  0  0  0  0  0  0  0  0  0  0
  -28.5726  -20.6696   19.8799 C   0  0  0  0  0  0  0  0  0  0  0  0
  -26.2583   -8.7264   27.7196 C   0  0  0  0  0  0  0  0  0  0  0  0
  -25.2139  -12.5805   21.5605 C   0  0  0  0  0  0  0  0  0  0  0  0
  -24.2824  -13.0958   19.6365 C   0  0  0  0  0  0  0  0  0  0  0  0
  -31.4187  -24.8718   20.2294 C   0  0  0  0  0  0  0  0  0  0  0  0
  -31.5472  -22.4717   20.2381 C   0  0  0  0  0  0  0  0  0  0  0  0
  -30.2036  -24.8557   19.6651 C   0  0  0  0  0  0  0  0  0  0  0  0
  -32.1049  -23.6493   20.5339 C   0  0  0  0  0  0  0  0  0  0  0  0
  -29.5381  -23.5352   19.3640 C   0  0  0  0  0  0  0  0  0  0  0  0
  -22.6629  -12.3127   21.3721 C   0  0  0  0  0  0  0  0  0  0  0  0
  -25.4657  -32.0801   21.8485 C   0  0  0  0  0  0  0  0  0  0  0  0
  -22.6488  -30.5097   22.1974 C   0  0  0  0  0  0  0  0  0  0  0  0
  -20.9172  -27.5786   21.9600 C   0  0  0  0  0  0  0  0  0  0  0  0
  -28.7849  -16.3720   17.4687 C   0  0  0  0  0  0  0  0  0  0  0  0
  -25.4136  -37.0680   22.9327 C   0  0  0  0  0  0  0  0  0  0  0  0
  -25.2378  -30.9511   19.6059 C   0  0  0  0  0  0  0  0  0  0  0  0
  -24.6984  -29.0838   21.8346 C   0  0  0  0  0  0  0  0  0  0  0  0
  -24.6884  -35.8299   23.4537 C   0  0  0  0  0  0  0  0  0  0  0  0
  -27.8313  -13.1055   16.4210 C   0  0  0  0  0  0  0  0  0  0  0  0
  -25.6840  -34.7122   23.7476 C   0  0  0  0  0  0  0  0  0  0  0  0
  -26.9342  -12.6079   17.5566 C   0  0  0  0  0  0  0  0  0  0  0  0
  -28.9908  -13.9519   16.9434 C   0  0  0  0  0  0  0  0  0  0  0  0
  -27.7044  -14.5695   18.9517 C   0  0  0  0  0  0  0  0  0  0  0  0
  -26.4278  -34.2873   22.4757 C   0  0  1  0  0  0  0  0  0  0  0  0
  -24.5348  -31.4049   20.8815 C   0  0  1  0  0  0  0  0  0  0  0  0
  -26.4855  -13.7663   18.4691 C   0  0  2  0  0  0  0  0  0  0  0  0
  -18.6401  -26.5987   22.3501 C   0  0  0  0  0  0  0  0  0  0  0  0
  -23.1724  -30.4958   25.2033 C   0  0  0  0  0  0  0  0  0  0  0  0
  -21.4150  -28.7272   25.4308 C   0  0  0  0  0  0  0  0  0  0  0  0
  -20.8057  -30.9836   24.5589 C   0  0  0  0  0  0  0  0  0  0  0  0
  -20.6171  -26.8446   19.1087 C   0  0  0  0  0  0  0  0  0  0  0  0
  -29.4537  -26.0913   19.3230 C   0  0  0  0  0  0  0  0  0  1  0  0
  -22.1424  -29.4103   23.0994 C   0  0  1  0  0  0  0  0  0  0  0  0
  -19.5707  -27.2515   21.3399 C   0  0  2  0  0  0  0  0  0  0  0  0
  -21.9062  -29.9003   24.5560 C   0  0  0  0  0  0  0  0  0  0  0  0
  -26.2329  -12.9674   20.7884 N   0  0  0  0  0  0  0  0  0  0  0  0
  -25.6345  -13.2743   19.6249 N   0  0  0  0  0  0  0  0  0  0  0  0
  -30.2916  -22.3644   19.6414 N   0  0  0  0  0  0  0  0  0  0  0  0
  -23.9002  -30.2987   21.6013 N   0  0  0  0  0  0  0  0  0  0  0  0
  -28.4896  -15.0318   17.7964 N   0  0  0  0  0  0  0  0  0  0  0  0
  -23.5256  -13.3572   18.5496 N   0  0  0  0  0  0  0  0  0  0  0  0
  -22.5254  -11.8591   22.6911 N   0  0  0  0  0  0  0  0  0  0  0  0
  -28.2277  -17.3133   18.3337 N   0  0  0  0  0  0  0  0  0  0  0  0
  -25.5854  -33.4431   21.6558 N   0  0  0  0  0  0  0  0  0  0  0  0
  -20.9536  -28.8662   22.4519 N   0  0  0  0  0  0  0  0  0  0  0  0
  -19.7430  -26.3201   20.1893 N   0  3  0  0  0  0  0  0  0  0  0  0
  -28.4036  -23.5227   18.8831 O   0  0  0  0  0  0  0  0  0  0  0  0
  -21.6448  -12.4036   20.6449 O   0  0  0  0  0  0  0  0  0  0  0  0
  -26.0322  -31.4139   22.7070 O   0  0  0  0  0  0  0  0  0  0  0  0
  -21.9564  -31.5155   22.0224 O   0  0  0  0  0  0  0  0  0  0  0  0
  -21.8427  -26.7712   22.0070 O   0  0  0  0  0  0  0  0  0  0  0  0
  -29.4581  -16.6644   16.4771 O   0  0  0  0  0  0  0  0  0  0  0  0
  -33.3388  -23.7904   21.1206 O   0  0  0  0  0  0  0  0  0  0  0  0
  -26.1430  -10.9618   26.8315 O   0  0  0  0  0  0  0  0  0  0  0  0
  -28.4095  -26.3047   20.2720 O   0  0  0  0  0  0  0  0  0  1  0  0
  -23.6064   -6.3953   28.5969 F   0  0  0  0  0  0  0  0  0  0  0  0
  -27.9030  -21.4538   20.7370 F   0  0  0  0  0  0  0  0  0  0  0  0
  -27.5971   -8.7858   27.7222 F   0  0  0  0  0  0  0  0  0  0  0  0
  1  2  1  0  0  0  0
  1  5  2  0  0  0  0
  2  6  2  0  0  0  0
  3 10  2  0  0  0  0
  3 18  1  0  0  0  0
  4 11  1  0  0  0  0
  4 18  2  0  0  0  0
  5 20  1  0  0  0  0
  6 22  1  0  0  0  0
  7 12  2  0  0  0  0
  7 21  1  0  0  0  0
  8  9  2  0  0  0  0
  8 24  1  0  0  0  0
  9 25  1  0  0  0  0
 10 26  1  0  0  0  0
 11 26  2  0  0  0  0
 12 27  1  0  0  0  0
 13 14  2  0  0  0  0
 13 28  1  0  0  0  0
 14 29  1  0  0  0  0
 15 23  1  0  0  0  0
 15 27  2  0  0  0  0
 16 25  2  0  0  0  0
 16 30  1  0  0  0  0
 17 29  2  0  0  0  0
 17 31  1  0  0  0  0
 18 32  1  0  0  0  0
 19 32  1  0  0  0  0
 19 33  2  0  0  0  0
 19 39  1  0  0  0  0
 20 22  2  0  0  0  0
 20 44  1  0  0  0  0
 21 23  2  0  0  0  0
 21 45  1  0  0  0  0
 22 53  1  0  0  0  0
 23 46  1  0  0  0  0
 24 30  2  0  0  0  0
 24 67  1  0  0  0  0
 25 72  1  0  0  0  0
 26 83  1  0  0  0  0
 27 84  1  0  0  0  0
 28 31  2  0  0  0  0
 28 83  1  0  0  0  0
 29 85  1  0  0  0  0
 30 86  1  0  0  0  0
 31 87  1  0  0  0  0
 32 65  2  0  0  0  0
 33 66  1  0  0  0  0
 33 70  1  0  0  0  0
 34 36  2  0  0  0  0
 34 37  1  0  0  0  0
 35 37  2  0  0  0  0
 35 67  1  0  0  0  0
 36 38  1  0  0  0  0
 36 61  1  0  0  0  0
 37 82  1  0  0  0  0
 38 67  1  0  0  0  0
 38 76  2  0  0  0  0
 39 71  1  0  0  0  0
 39 77  2  0  0  0  0
 40 54  1  0  0  0  0
 40 73  1  0  0  0  0
 40 78  2  0  0  0  0
 41 62  1  0  0  0  0
 41 68  1  0  0  0  0
 41 79  2  0  0  0  0
 42 63  1  0  0  0  0
 42 74  1  0  0  0  0
 42 80  2  0  0  0  0
 43 69  1  0  0  0  0
 43 72  1  0  0  0  0
 43 81  2  0  0  0  0
 44 47  1  0  0  0  0
 45 54  1  0  0  0  0
 46 68  1  0  0  0  0
 47 49  1  0  0  0  0
 48 50  1  0  0  0  0
 48 51  1  0  0  0  0
 49 53  1  0  0  0  0
 50 55  1  0  0  0  0
 51 69  1  0  0  0  0
 52 55  1  0  0  0  0
 52 69  1  0  0  0  0
 53 73  1  0  0  0  0
 54 68  1  0  0  0  0
 55 66  1  0  0  0  0
 56 63  1  0  0  0  0
 57 64  1  0  0  0  0
 58 64  1  0  0  0  0
 59 64  1  0  0  0  0
 60 75  1  0  0  0  0
 61 84  1  0  0  0  0
 62 64  1  0  0  0  0
 62 74  1  0  0  0  0
 63 75  1  0  0  0  0
 65 66  1  0  0  0  0
M  CHG  1  75   1
M  ISO  4  43 100  61 101  72 100  84 101
M  END
> <Batch ID>
0080

> <Smiles>
CNC(C)C(=O)NC(C(=O)N1Cc2cc([101O:1][101CH2:1]C3=CC(=O)CN(c4ccc([100NH:0][100C:0](=O)N5CCCC(n6nc(-c7ccc(Oc8ccc(F)cc8F)cc7)c(C(N)=O)c6N)C5)cc4F)C3=O)ccc2CC1C(=O)NC1CCCc2ccccc21)C(C)(C)C

> <Shape>
0.271

> <Color>
0.085

> <Negative vol penalty>
0.000

$$$$

  -OEChem-04052300023D

 87 96  0     1  0  0  0  0  0999 V2000
  -28.4432  -36.9979   21.2904 C   0  0  0  0  0  0  0  0  0  0  0  0
  -28.8182  -35.6582   21.2938 C   0  0  0  0  0  0  0  0  0  0  0  0
  -23.7290   -9.7887   19.7561 C   0  0  0  0  0  0  0  0  0  0  0  0
  -24.5773   -9.7338   22.0176 C   0  0  0  0  0  0  0  0  0  0  0  0
  -27.1835  -37.3692   21.7585 C   0  0  0  0  0  0  0  0  0  0  0  0
  -27.9339  -34.6891   21.7664 C   0  0  0  0  0  0  0  0  0  0  0  0
  -27.2887  -28.9658   19.6849 C   0  0  0  0  0  0  0  0  0  0  0  0
  -28.7331  -20.4769   21.8148 C   0  0  0  0  0  0  0  0  0  0  0  0
  -29.9797  -20.1743   23.8621 C   0  0  0  0  0  0  0  0  0  0  0  0
  -28.8391  -19.1119   21.5485 C   0  0  0  0  0  0  0  0  0  0  0  0
  -30.0857  -18.8092   23.5958 C   0  0  0  0  0  0  0  0  0  0  0  0
  -23.3225   -8.4598   19.8763 C   0  0  0  0  0  0  0  0  0  0  0  0
  -24.1708   -8.4049   22.1379 C   0  0  0  0  0  0  0  0  0  0  0  0
  -27.7855  -27.7428   20.1337 C   0  0  0  0  0  0  0  0  0  0  0  0
  -21.2940   -6.7231   22.7001 C   0  0  0  0  0  0  0  0  0  0  0  0
  -20.6340   -6.3524   23.8716 C   0  0  0  0  0  0  0  0  0  0  0  0
  -25.7242  -27.3488   21.3232 C   0  0  0  0  0  0  0  0  0  0  0  0
  -22.3702   -4.7386   24.3391 C   0  0  0  0  0  0  0  0  0  0  0  0
  -24.3565  -10.4257   20.8268 C   0  0  0  0  0  0  0  0  0  0  0  0
  -24.0269  -12.9485   21.0126 C   0  0  0  0  0  0  0  0  0  0  0  0
  -26.2797  -36.4031   22.2281 C   0  0  0  0  0  0  0  0  0  0  0  0
  -26.0080  -29.3951   20.0614 C   0  0  0  0  0  0  0  0  0  0  0  0
  -26.6614  -35.0480   22.2425 C   0  0  0  0  0  0  0  0  0  0  0  0
  -25.2125  -28.5764   20.8757 C   0  0  0  0  0  0  0  0  0  0  0  0
  -29.3034  -21.0082   22.9717 C   0  0  0  0  0  0  0  0  0  0  0  0
  -29.5154  -18.2780   22.4389 C   0  0  0  0  0  0  0  0  0  0  0  0
  -23.5433   -7.7679   21.0672 C   0  0  0  0  0  0  0  0  0  0  0  0
  -27.0044  -26.9355   20.9553 C   0  0  0  0  0  0  0  0  0  0  0  0
  -22.4921   -6.1015   22.3480 C   0  0  0  0  0  0  0  0  0  0  0  0
  -21.1721   -5.3602   24.6911 C   0  0  0  0  0  0  0  0  0  0  0  0
  -23.0302   -5.1094   23.1675 C   0  0  0  0  0  0  0  0  0  0  0  0
  -24.7772  -11.7982   20.7030 C   0  0  0  0  0  0  0  0  0  0  0  0
  -24.8680  -13.9951   20.7234 C   0  0  0  0  0  0  0  0  0  0  0  0
  -28.6918  -24.6105   23.1009 C   0  0  0  0  0  0  0  0  0  0  0  0
  -29.4339  -24.4394   24.3246 C   0  0  0  0  0  0  0  0  0  0  0  0
  -28.5417  -23.2985   22.4118 C   0  0  0  0  0  0  0  0  0  0  0  0
  -29.7780  -25.3677   25.2237 C   0  0  0  0  0  0  0  0  0  0  0  0
  -29.1368  -16.0882   24.3714 C   0  0  0  0  0  0  0  0  0  0  0  0
  -28.1755  -25.7217   22.5758 C   0  0  0  0  0  0  0  0  0  1  0  0
  -29.7053  -15.9187   23.1756 C   0  0  0  0  0  0  0  0  0  0  0  0
  -22.6894  -13.0608   21.5166 C   0  0  0  0  0  0  0  0  0  0  0  0
  -24.8617  -31.8672   21.6980 C   0  0  0  0  0  0  0  0  0  0  0  0
  -21.9992  -30.6486   20.7798 C   0  0  0  0  0  0  0  0  0  0  0  0
  -20.1978  -27.9343   19.7625 C   0  0  0  0  0  0  0  0  0  0  0  0
  -29.8154  -16.4381   20.8211 C   0  0  0  0  0  0  0  0  0  0  0  0
  -24.9469  -36.8577   22.7682 C   0  0  0  0  0  0  0  0  0  0  0  0
  -25.4763  -30.7047   19.5470 C   0  0  0  0  0  0  0  0  0  0  0  0
  -23.8230  -28.9823   21.2919 C   0  0  0  0  0  0  0  0  0  0  0  0
  -29.7740  -22.9836   24.4322 C   0  0  0  0  0  0  0  0  0  0  0  0
  -23.9276  -35.7294   22.9032 C   0  0  0  0  0  0  0  0  0  0  0  0
  -29.2864  -14.1026   18.2806 C   0  0  0  0  0  0  0  0  0  0  0  0
  -24.5632  -34.5124   23.5678 C   0  0  0  0  0  0  0  0  0  0  0  0
  -28.0085  -13.3793   18.7045 C   0  0  0  0  0  0  0  0  0  0  0  0
  -30.1819  -14.3808   19.4824 C   0  0  0  0  0  0  0  0  0  0  0  0
  -28.2297  -14.4480   21.0016 C   0  0  0  0  0  0  0  0  0  0  0  0
  -25.7208  -33.9648   22.7241 C   0  0  1  0  0  0  0  0  0  0  0  0
  -24.3572  -31.2763   20.4119 C   0  0  1  0  0  0  0  0  0  0  0  0
  -27.2829  -14.1492   19.8219 C   0  0  2  0  0  0  0  0  0  0  0  0
  -17.8723  -27.2400   19.1244 C   0  0  0  0  0  0  0  0  0  0  0  0
  -21.1897  -30.6652   23.7216 C   0  0  0  0  0  0  0  0  0  0  0  0
  -19.3058  -29.1222   23.1399 C   0  0  0  0  0  0  0  0  0  0  0  0
  -19.3978  -31.4067   22.1423 C   0  0  0  0  0  0  0  0  0  0  0  0
  -21.0534  -27.1539   17.0389 C   0  0  0  0  0  0  0  0  0  0  0  0
  -21.0306  -29.6440   21.3556 C   0  0  1  0  0  0  0  0  0  0  0  0
  -19.2144  -27.7483   18.6212 C   0  0  2  0  0  0  0  0  0  0  0  0
  -20.2579  -30.2025   22.5838 C   0  0  0  0  0  0  0  0  0  0  0  0
  -26.0007  -12.0866   20.2516 N   0  0  0  0  0  0  0  0  0  0  0  0
  -26.0257  -13.4301   20.2753 N   0  0  0  0  0  0  0  0  0  0  0  0
  -29.1981  -22.3698   23.2373 N   0  0  0  0  0  0  0  0  0  0  0  0
  -23.3504  -30.2745   20.7683 N   0  0  0  0  0  0  0  0  0  0  0  0
  -29.4550  -15.1089   20.5230 N   0  0  0  0  0  0  0  0  0  0  0  0
  -24.7229  -15.3343   20.8111 N   0  0  0  0  0  0  0  0  0  0  0  0
  -21.9657  -11.8853   21.7587 N   0  0  0  0  0  0  0  0  0  0  0  0
  -25.2131  -33.2003   21.6050 N   0  0  0  0  0  0  0  0  0  0  0  0
  -20.1745  -29.2232   20.2518 N   0  0  0  0  0  0  0  0  0  0  0  0
  -29.6257  -16.8605   22.1626 N   0  0  0  0  0  0  0  0  0  0  0  0
  -19.7473  -26.7685   17.6327 N   0  3  0  0  0  0  0  0  0  0  0  0
  -27.9647  -23.1061   21.3547 O   0  0  0  0  0  0  0  0  0  0  0  0
  -22.1461  -14.1712   21.7299 O   0  0  0  0  0  0  0  0  0  0  0  0
  -24.9261  -31.1658   22.7008 O   0  0  0  0  0  0  0  0  0  0  0  0
  -21.5717  -31.7226   20.3492 O   0  0  0  0  0  0  0  0  0  0  0  0
  -20.9124  -27.0261   20.1808 O   0  0  0  0  0  0  0  0  0  0  0  0
  -30.2922  -17.1916   19.9626 O   0  0  0  0  0  0  0  0  0  0  0  0
  -23.1466   -6.4713   21.1849 O   0  0  0  0  0  0  0  0  0  0  0  0
  -27.4871  -25.7416   21.3953 O   0  0  0  0  0  0  0  0  0  1  0  0
  -20.5389   -5.0053   25.8169 F   0  0  0  0  0  0  0  0  0  0  0  0
  -24.1815   -4.5095   22.8351 F   0  0  0  0  0  0  0  0  0  0  0  0
  1  2  1  0  0  0  0
  1  5  2  0  0  0  0
  2  6  2  0  0  0  0
  3 12  2  0  0  0  0
  3 19  1  0  0  0  0
  4 13  1  0  0  0  0
  4 19  2  0  0  0  0
  5 21  1  0  0  0  0
  6 23  1  0  0  0  0
  7 14  2  0  0  0  0
  7 22  1  0  0  0  0
  8 10  2  0  0  0  0
  8 25  1  0  0  0  0
  9 11  1  0  0  0  0
  9 25  2  0  0  0  0
 10 26  1  0  0  0  0
 11 26  2  0  0  0  0
 12 27  1  0  0  0  0
 13 27  2  0  0  0  0
 14 28  1  0  0  0  0
 15 16  2  0  0  0  0
 15 29  1  0  0  0  0
 16 30  1  0  0  0  0
 17 24  1  0  0  0  0
 17 28  2  0  0  0  0
 18 30  2  0  0  0  0
 18 31  1  0  0  0  0
 19 32  1  0  0  0  0
 20 32  1  0  0  0  0
 20 33  2  0  0  0  0
 20 41  1  0  0  0  0
 21 23  2  0  0  0  0
 21 46  1  0  0  0  0
 22 24  2  0  0  0  0
 22 47  1  0  0  0  0
 23 56  1  0  0  0  0
 24 48  1  0  0  0  0
 25 69  1  0  0  0  0
 26 76  1  0  0  0  0
 27 84  1  0  0  0  0
 28 85  1  0  0  0  0
 29 31  2  0  0  0  0
 29 84  1  0  0  0  0
 30 86  1  0  0  0  0
 31 87  1  0  0  0  0
 32 67  2  0  0  0  0
 33 68  1  0  0  0  0
 33 72  1  0  0  0  0
 34 35  1  0  0  0  0
 34 36  1  0  0  0  0
 34 39  2  0  0  0  0
 35 37  2  0  0  0  0
 35 49  1  0  0  0  0
 36 69  1  0  0  0  0
 36 78  2  0  0  0  0
 38 40  2  0  0  0  0
 39 85  1  0  0  0  0
 40 76  1  0  0  0  0
 41 73  1  0  0  0  0
 41 79  2  0  0  0  0
 42 57  1  0  0  0  0
 42 74  1  0  0  0  0
 42 80  2  0  0  0  0
 43 64  1  0  0  0  0
 43 70  1  0  0  0  0
 43 81  2  0  0  0  0
 44 65  1  0  0  0  0
 44 75  1  0  0  0  0
 44 82  2  0  0  0  0
 45 71  1  0  0  0  0
 45 76  1  0  0  0  0
 45 83  2  0  0  0  0
 46 50  1  0  0  0  0
 47 57  1  0  0  0  0
 48 70  1  0  0  0  0
 49 69  1  0  0  0  0
 50 52  1  0  0  0  0
 51 53  1  0  0  0  0
 51 54  1  0  0  0  0
 52 56  1  0  0  0  0
 53 58  1  0  0  0  0
 54 71  1  0  0  0  0
 55 58  1  0  0  0  0
 55 71  1  0  0  0  0
 56 74  1  0  0  0  0
 57 70  1  0  0  0  0
 58 68  1  0  0  0  0
 59 65  1  0  0  0  0
 60 66  1  0  0  0  0
 61 66  1  0  0  0  0
 62 66  1  0  0  0  0
 63 77  1  0  0  0  0
 64 66  1  0  0  0  0
 64 75  1  0  0  0  0
 65 77  1  0  0  0  0
 67 68  1  0  0  0  0
M  CHG  1  77   1
M  ISO  4  39 101  45 100  76 100  85 101
M  END
> <Batch ID>
0080

> <Smiles>
C=C[100N:0](c1ccc(N2CC(=C)C(=[101CH:1][101O:1]c3ccc4c(c3)CN(C(=O)C(NC(=O)C(C)NC)C(C)(C)C)C(C(=O)NC3CCCc5ccccc53)C4)C2=O)cc1)[100C:0](=O)N1CCCC(n2nc(-c3ccc(Oc4ccc(F)cc4F)cc3)c(C(N)=O)c2N)C1

> <Shape>
0.307

> <Color>
0.147

> <Negative vol penalty>
0.000

$$$$

  -OEChem-04052300023D

 86 95  0     1  0  0  0  0  0999 V2000
  -28.9003  -37.5438   23.8894 C   0  0  0  0  0  0  0  0  0  0  0  0
  -29.3324  -36.2520   23.6072 C   0  0  0  0  0  0  0  0  0  0  0  0
  -24.4258  -10.7620   23.5610 C   0  0  0  0  0  0  0  0  0  0  0  0
  -24.2806  -12.6745   25.0301 C   0  0  0  0  0  0  0  0  0  0  0  0
  -27.6988  -37.7431   24.5681 C   0  0  0  0  0  0  0  0  0  0  0  0
  -28.5638  -35.1584   24.0045 C   0  0  0  0  0  0  0  0  0  0  0  0
  -27.9057  -29.8458   21.0299 C   0  0  0  0  0  0  0  0  0  0  0  0
  -30.0018  -21.7362   20.2975 C   0  0  0  0  0  0  0  0  0  0  0  0
  -30.0066  -20.3445   20.3905 C   0  0  0  0  0  0  0  0  0  0  0  0
  -23.9354   -9.9433   24.5783 C   0  0  0  0  0  0  0  0  0  0  0  0
  -23.7901  -11.8559   26.0474 C   0  0  0  0  0  0  0  0  0  0  0  0
  -28.5126  -28.6007   21.1882 C   0  0  0  0  0  0  0  0  0  0  0  0
  -23.0603   -7.2882   26.9039 C   0  0  0  0  0  0  0  0  0  0  0  0
  -23.6987   -6.0671   27.1203 C   0  0  0  0  0  0  0  0  0  0  0  0
  -26.6483  -27.8697   22.5333 C   0  0  0  0  0  0  0  0  0  0  0  0
  -27.6238  -20.3097   19.9928 C   0  0  0  0  0  0  0  0  0  0  0  0
  -25.7646   -7.2298   27.5864 C   0  0  0  0  0  0  0  0  0  0  0  0
  -24.5985  -12.1276   23.7869 C   0  0  0  0  0  0  0  0  0  0  0  0
  -24.3568  -13.6637   21.7647 C   0  0  0  0  0  0  0  0  0  0  0  0
  -26.9103  -36.6517   24.9654 C   0  0  0  0  0  0  0  0  0  0  0  0
  -26.6685  -30.1163   21.6321 C   0  0  0  0  0  0  0  0  0  0  0  0
  -27.3513  -35.3432   24.6903 C   0  0  0  0  0  0  0  0  0  0  0  0
  -26.0266  -29.1182   22.3789 C   0  0  0  0  0  0  0  0  0  0  0  0
  -28.8079  -22.4148   20.0523 C   0  0  0  0  0  0  0  0  0  0  0  0
  -27.6190  -21.7015   19.8999 C   0  0  0  0  0  0  0  0  0  0  0  0
  -28.8176  -19.6312   20.2381 C   0  0  0  0  0  0  0  0  0  0  0  0
  -23.6175  -10.4902   25.8214 C   0  0  0  0  0  0  0  0  0  0  0  0
  -27.8853  -27.6133   21.9424 C   0  0  0  0  0  0  0  0  0  0  0  0
  -23.7741   -8.4802   27.0287 C   0  0  0  0  0  0  0  0  0  0  0  0
  -25.0509   -6.0379   27.4616 C   0  0  0  0  0  0  0  0  0  0  0  0
  -25.1262   -8.4509   27.3700 C   0  0  0  0  0  0  0  0  0  0  0  0
  -25.1057  -12.9737   22.7367 C   0  0  0  0  0  0  0  0  0  0  0  0
  -25.2973  -14.3180   21.0072 C   0  0  0  0  0  0  0  0  0  0  0  0
  -24.6993  -23.2859   19.2966 C   0  0  0  0  0  0  0  0  0  0  0  0
  -25.1629  -21.9094   19.4748 C   0  0  0  0  0  0  0  0  0  0  0  0
  -23.5156  -23.8381   19.0561 C   0  0  0  0  0  0  0  0  0  0  0  0
  -29.2401  -24.4418   21.0166 C   0  0  0  0  0  0  0  0  0  0  0  0
  -22.9378  -13.7092   21.5644 C   0  0  0  0  0  0  0  0  0  0  0  0
  -25.6405  -32.1879   23.8128 C   0  0  0  0  0  0  0  0  0  0  0  0
  -22.7390  -30.9531   23.0520 C   0  0  0  0  0  0  0  0  0  0  0  0
  -20.9424  -28.3373   21.7965 C   0  0  0  0  0  0  0  0  0  0  0  0
  -29.9202  -17.3905   20.5693 C   0  0  0  0  0  0  0  0  0  0  0  0
  -25.6423  -36.9155   25.7383 C   0  0  0  0  0  0  0  0  0  0  0  0
  -26.0144  -31.4555   21.4295 C   0  0  0  0  0  0  0  0  0  0  0  0
  -24.6882  -29.3514   23.0292 C   0  0  0  0  0  0  0  0  0  0  0  0
  -26.1190  -23.7619   19.5024 C   0  0  0  0  0  0  0  0  0  0  0  0
  -24.7021  -35.7142   25.7944 C   0  0  0  0  0  0  0  0  0  0  0  0
  -30.3384  -13.8709   20.9076 C   0  0  0  0  0  0  0  0  0  0  0  0
  -25.4750  -34.4473   26.1472 C   0  0  0  0  0  0  0  0  0  0  0  0
  -28.9527  -13.3805   21.3337 C   0  0  0  0  0  0  0  0  0  0  0  0
  -30.6758  -15.2258   21.5274 C   0  0  0  0  0  0  0  0  0  0  0  0
  -28.2856  -15.7844   21.7372 C   0  0  0  0  0  0  0  0  0  0  0  0
  -26.5332  -34.1322   25.0831 C   0  0  1  0  0  0  0  0  0  0  0  0
  -24.9960  -31.7932   22.5141 C   0  0  1  0  0  0  0  0  0  0  0  0
  -27.8744  -14.4537   21.0864 C   0  0  2  0  0  0  0  0  0  0  0  0
  -18.5862  -27.6062   21.3366 C   0  0  0  0  0  0  0  0  0  0  0  0
  -22.3293  -30.4107   26.0265 C   0  0  0  0  0  0  0  0  0  0  0  0
  -20.4563  -28.8657   25.4156 C   0  0  0  0  0  0  0  0  0  0  0  0
  -20.3111  -31.2882   24.8385 C   0  0  0  0  0  0  0  0  0  0  0  0
  -21.4612  -28.0948   18.8928 C   0  0  0  0  0  0  0  0  0  0  0  0
  -29.3114  -25.9394   21.0368 C   0  0  0  0  0  0  0  0  0  1  0  0
  -21.9023  -29.8013   23.5542 C   0  0  1  0  0  0  0  0  0  0  0  0
  -19.8249  -28.2831   20.7705 C   0  0  2  0  0  0  0  0  0  0  0  0
  -21.2759  -30.0874   24.9482 C   0  0  0  0  0  0  0  0  0  0  0  0
  -26.4206  -13.1711   22.6105 N   0  0  0  0  0  0  0  0  0  0  0  0
  -28.8257  -23.8170   19.9633 N   0  0  0  0  0  0  0  0  0  0  0  0
  -26.5054  -13.9925   21.5502 N   0  0  0  0  0  0  0  0  0  0  0  0
  -26.4125  -22.3627   19.6540 N   0  0  0  0  0  0  0  0  0  0  0  0
  -24.0921  -30.6792   22.8072 N   0  0  0  0  0  0  0  0  0  0  0  0
  -29.6119  -16.1929   21.2486 N   0  0  0  0  0  0  0  0  0  0  0  0
  -25.2006  -15.1342   19.9363 N   0  0  0  0  0  0  0  0  0  0  0  0
  -22.1166  -12.9783   22.4337 N   0  0  0  0  0  0  0  0  0  0  0  0
  -28.8228  -18.2174   20.3315 N   0  0  0  0  0  0  0  0  0  0  0  0
  -25.9158  -33.5381   23.9168 N   0  0  0  0  0  0  0  0  0  0  0  0
  -20.9264  -29.5187   22.5072 N   0  0  0  0  0  0  0  0  0  0  0  0
  -20.2648  -27.5256   19.5648 N   0  3  0  0  0  0  0  0  0  0  0  0
  -24.6362  -20.8162   19.4634 O   0  0  0  0  0  0  0  0  0  0  0  0
  -22.4146  -14.3652   20.6319 O   0  0  0  0  0  0  0  0  0  0  0  0
  -25.8696  -31.3312   24.6584 O   0  0  0  0  0  0  0  0  0  0  0  0
  -22.2098  -32.0535   22.8763 O   0  0  0  0  0  0  0  0  0  0  0  0
  -21.7467  -27.4214   21.9543 O   0  0  0  0  0  0  0  0  0  0  0  0
  -31.0683  -17.6499   20.1998 O   0  0  0  0  0  0  0  0  0  0  0  0
  -23.1386   -9.6917   26.8142 O   0  0  0  0  0  0  0  0  0  0  0  0
  -28.4758  -26.3974   22.0991 O   0  0  0  0  0  0  0  0  0  1  0  0
  -25.6634   -4.8652   27.6709 F   0  0  0  0  0  0  0  0  0  0  0  0
  -25.8168   -9.5928   27.4925 F   0  0  0  0  0  0  0  0  0  0  0  0
  1  2  1  0  0  0  0
  1  5  2  0  0  0  0
  2  6  2  0  0  0  0
  3 10  2  0  0  0  0
  3 18  1  0  0  0  0
  4 11  1  0  0  0  0
  4 18  2  0  0  0  0
  5 20  1  0  0  0  0
  6 22  1  0  0  0  0
  7 12  2  0  0  0  0
  7 21  1  0  0  0  0
  8  9  2  0  0  0  0
  8 24  1  0  0  0  0
  9 26  1  0  0  0  0
 10 27  1  0  0  0  0
 11 27  2  0  0  0  0
 12 28  1  0  0  0  0
 13 14  2  0  0  0  0
 13 29  1  0  0  0  0
 14 30  1  0  0  0  0
 15 23  1  0  0  0  0
 15 28  2  0  0  0  0
 16 25  1  0  0  0  0
 16 26  2  0  0  0  0
 17 30  2  0  0  0  0
 17 31  1  0  0  0  0
 18 32  1  0  0  0  0
 19 32  1  0  0  0  0
 19 33  2  0  0  0  0
 19 38  1  0  0  0  0
 20 22  2  0  0  0  0
 20 43  1  0  0  0  0
 21 23  2  0  0  0  0
 21 44  1  0  0  0  0
 22 53  1  0  0  0  0
 23 45  1  0  0  0  0
 24 25  2  0  0  0  0
 24 66  1  0  0  0  0
 25 68  1  0  0  0  0
 26 73  1  0  0  0  0
 27 83  1  0  0  0  0
 28 84  1  0  0  0  0
 29 31  2  0  0  0  0
 29 83  1  0  0  0  0
 30 85  1  0  0  0  0
 31 86  1  0  0  0  0
 32 65  2  0  0  0  0
 33 67  1  0  0  0  0
 33 71  1  0  0  0  0
 34 35  1  0  0  0  0
 34 36  2  0  0  0  0
 34 46  1  0  0  0  0
 35 68  1  0  0  0  0
 35 77  2  0  0  0  0
 37 61  1  0  0  0  0
 37 66  2  0  0  0  0
 38 72  1  0  0  0  0
 38 78  2  0  0  0  0
 39 54  1  0  0  0  0
 39 74  1  0  0  0  0
 39 79  2  0  0  0  0
 40 62  1  0  0  0  0
 40 69  1  0  0  0  0
 40 80  2  0  0  0  0
 41 63  1  0  0  0  0
 41 75  1  0  0  0  0
 41 81  2  0  0  0  0
 42 70  1  0  0  0  0
 42 73  1  0  0  0  0
 42 82  2  0  0  0  0
 43 47  1  0  0  0  0
 44 54  1  0  0  0  0
 45 69  1  0  0  0  0
 46 68  1  0  0  0  0
 47 49  1  0  0  0  0
 48 50  1  0  0  0  0
 48 51  1  0  0  0  0
 49 53  1  0  0  0  0
 50 55  1  0  0  0  0
 51 70  1  0  0  0  0
 52 55  1  0  0  0  0
 52 70  1  0  0  0  0
 53 74  1  0  0  0  0
 54 69  1  0  0  0  0
 55 67  1  0  0  0  0
 56 63  1  0  0  0  0
 57 64  1  0  0  0  0
 58 64  1  0  0  0  0
 59 64  1  0  0  0  0
 60 76  1  0  0  0  0
 61 84  1  0  0  0  0
 62 64  1  0  0  0  0
 62 75  1  0  0  0  0
 63 76  1  0  0  0  0
 65 67  1  0  0  0  0
M  CHG  1  76   1
M  ISO  4  42 100  61 101  73 100  84 101
M  END
> <Batch ID>
0080

> <Smiles>
C=C1CN(c2cc([100NH:0][100C:0](=O)N3CCCC(n4nc(-c5ccc(Oc6ccc(F)cc6F)cc5)c(C(N)=O)c4N)C3)ccc2NC=[101CH:1][101O:1]c2ccc3c(c2)CN(C(=O)C(NC(=O)C(C)NC)C(C)(C)C)C(C(=O)NC2CCCc4ccccc42)C3)C1=O

> <Shape>
0.274

> <Color>
0.112

> <Negative vol penalty>
0.000

$$$$

  -OEChem-04052300023D

 85 94  0     1  0  0  0  0  0999 V2000
  -30.3057  -34.8280   24.2290 C   0  0  0  0  0  0  0  0  0  0  0  0
  -30.3000  -33.5784   23.6174 C   0  0  0  0  0  0  0  0  0  0  0  0
  -24.7154   -8.8623   21.5867 C   0  0  0  0  0  0  0  0  0  0  0  0
  -23.1949  -10.3880   20.4926 C   0  0  0  0  0  0  0  0  0  0  0  0
  -29.2162  -35.2301   25.0005 C   0  0  0  0  0  0  0  0  0  0  0  0
  -29.2053  -32.7298   23.7779 C   0  0  0  0  0  0  0  0  0  0  0  0
  -26.9335  -28.8284   19.6397 C   0  0  0  0  0  0  0  0  0  0  0  0
  -23.6863   -8.4401   22.4283 C   0  0  0  0  0  0  0  0  0  0  0  0
  -22.1657   -9.9658   21.3341 C   0  0  0  0  0  0  0  0  0  0  0  0
  -27.0956  -27.4559   19.4566 C   0  0  0  0  0  0  0  0  0  0  0  0
  -21.0195   -6.3685   22.2564 C   0  0  0  0  0  0  0  0  0  0  0  0
  -20.8765   -4.9972   22.4680 C   0  0  0  0  0  0  0  0  0  0  0  0
  -25.0570  -27.0576   20.6832 C   0  0  0  0  0  0  0  0  0  0  0  0
  -27.4257  -18.7596   19.1435 C   0  0  0  0  0  0  0  0  0  0  0  0
  -21.2263   -5.3262   24.8358 C   0  0  0  0  0  0  0  0  0  0  0  0
  -25.5564  -20.0141   18.3764 C   0  0  0  0  0  0  0  0  0  0  0  0
  -25.6193  -17.7541   17.9679 C   0  0  0  0  0  0  0  0  0  0  0  0
  -24.4697   -9.8363   20.6189 C   0  0  0  0  0  0  0  0  0  0  0  0
  -25.8864   -9.7300   18.5000 C   0  0  0  0  0  0  0  0  0  0  0  0
  -28.1034  -34.3899   25.1626 C   0  0  0  0  0  0  0  0  0  0  0  0
  -25.8358  -29.3262   20.3565 C   0  0  0  0  0  0  0  0  0  0  0  0
  -28.1005  -33.1205   24.5534 C   0  0  0  0  0  0  0  0  0  0  0  0
  -24.8819  -28.4370   20.8718 C   0  0  0  0  0  0  0  0  0  0  0  0
  -26.7767  -19.9842   19.0318 C   0  0  0  0  0  0  0  0  0  0  0  0
  -26.8427  -17.6184   18.6040 C   0  0  0  0  0  0  0  0  0  0  0  0
  -22.4114   -8.9918   22.3020 C   0  0  0  0  0  0  0  0  0  0  0  0
  -26.1588  -26.5700   19.9808 C   0  0  0  0  0  0  0  0  0  0  0  0
  -21.2660   -7.2186   23.3345 C   0  0  0  0  0  0  0  0  0  0  0  0
  -20.9799   -4.4761   23.7577 C   0  0  0  0  0  0  0  0  0  0  0  0
  -21.3693   -6.6975   24.6242 C   0  0  0  0  0  0  0  0  0  0  0  0
  -25.5326  -10.2733   19.7496 C   0  0  0  0  0  0  0  0  0  0  0  0
  -26.9500  -10.4924   18.0830 C   0  0  0  0  0  0  0  0  0  0  0  0
  -27.7041  -23.3277   20.1847 C   0  0  0  0  0  0  0  0  0  0  0  0
  -28.8419  -22.5775   20.6538 C   0  0  0  0  0  0  0  0  0  0  0  0
  -26.7489  -22.4188   19.4916 C   0  0  0  0  0  0  0  0  0  0  0  0
  -29.9126  -23.0228   21.3199 C   0  0  0  0  0  0  0  0  0  0  0  0
  -27.4448  -24.6427   20.3007 C   0  0  0  0  0  0  0  0  0  1  0  0
  -25.3054   -8.6344   17.7805 C   0  0  0  0  0  0  0  0  0  0  0  0
  -25.4787  -31.0097   23.0289 C   0  0  0  0  0  0  0  0  0  0  0  0
  -22.3562  -31.0088   22.1505 C   0  0  0  0  0  0  0  0  0  0  0  0
  -19.8405  -29.5121   20.3960 C   0  0  0  0  0  0  0  0  0  0  0  0
  -28.7026  -16.0720   19.3081 C   0  0  0  0  0  0  0  0  0  0  0  0
  -26.9695  -34.8490   26.0448 C   0  0  0  0  0  0  0  0  0  0  0  0
  -25.6612  -30.8109   20.5223 C   0  0  0  0  0  0  0  0  0  0  0  0
  -23.6750  -28.9216   21.6316 C   0  0  0  0  0  0  0  0  0  0  0  0
  -28.6209  -21.1494   20.2559 C   0  0  0  0  0  0  0  0  0  0  0  0
  -25.6872  -34.0421   25.8579 C   0  0  0  0  0  0  0  0  0  0  0  0
  -30.5914  -13.0925   19.7901 C   0  0  0  0  0  0  0  0  0  0  0  0
  -25.9934  -32.5477   25.8488 C   0  0  0  0  0  0  0  0  0  0  0  0
  -29.5415  -11.9815   19.7146 C   0  0  0  0  0  0  0  0  0  0  0  0
  -30.0466  -14.3416   20.4805 C   0  0  0  0  0  0  0  0  0  0  0  0
  -27.7402  -13.7490   19.8494 C   0  0  0  0  0  0  0  0  0  0  0  0
  -26.9207  -32.1817   24.6836 C   0  0  1  0  0  0  0  0  0  0  0  0
  -24.7783  -31.1797   21.7106 C   0  0  1  0  0  0  0  0  0  0  0  0
  -28.2221  -12.4936   19.1043 C   0  0  2  0  0  0  0  0  0  0  0  0
  -17.3890  -29.7203   19.9017 C   0  0  0  0  0  0  0  0  0  0  0  0
  -21.7065  -29.9083   24.9212 C   0  0  0  0  0  0  0  0  0  0  0  0
  -19.4499  -29.2545   24.0559 C   0  0  0  0  0  0  0  0  0  0  0  0
  -20.1207  -31.6568   24.0950 C   0  0  0  0  0  0  0  0  0  0  0  0
  -20.3348  -29.8429   17.4969 C   0  0  0  0  0  0  0  0  0  0  0  0
  -21.1750  -30.1029   22.4021 C   0  0  1  0  0  0  0  0  0  0  0  0
  -18.7965  -30.0783   19.4505 C   0  0  2  0  0  0  0  0  0  0  0  0
  -20.6367  -30.2211   23.8559 C   0  0  0  0  0  0  0  0  0  0  0  0
  -24.9588  -18.9267   17.8396 N   0  0  0  0  0  0  0  0  0  0  0  0
  -26.3086  -11.3012   20.1034 N   0  0  0  0  0  0  0  0  0  0  0  0
  -27.1607  -11.4099   19.0698 N   0  0  0  0  0  0  0  0  0  0  0  0
  -27.3357  -21.1437   19.5599 N   0  0  0  0  0  0  0  0  0  0  0  0
  -23.5520  -30.3819   21.7726 N   0  0  0  0  0  0  0  0  0  0  0  0
  -28.7984  -14.7712   19.8462 N   0  0  0  0  0  0  0  0  0  0  0  0
  -27.7164  -10.4606   16.9721 N   0  0  0  0  0  0  0  0  0  0  0  0
  -24.2182   -7.9604   18.3533 N   0  0  0  0  0  0  0  0  0  0  0  0
  -27.4796  -16.3564   18.7015 N   0  0  0  0  0  0  0  0  0  0  0  0
  -26.1768  -32.1279   23.4434 N   0  0  0  0  0  0  0  0  0  0  0  0
  -20.1909  -30.4200   21.3729 N   0  0  0  0  0  0  0  0  0  0  0  0
  -18.9993  -29.5433   18.0745 N   0  3  0  0  0  0  0  0  0  0  0  0
  -25.6896  -22.7454   18.9831 O   0  0  0  0  0  0  0  0  0  0  0  0
  -25.7480   -8.2535   16.6703 O   0  0  0  0  0  0  0  0  0  0  0  0
  -25.3911  -29.9435   23.6267 O   0  0  0  0  0  0  0  0  0  0  0  0
  -22.2208  -32.2283   22.2773 O   0  0  0  0  0  0  0  0  0  0  0  0
  -20.2966  -28.3766   20.2818 O   0  0  0  0  0  0  0  0  0  0  0  0
  -29.6463  -16.8653   19.3560 O   0  0  0  0  0  0  0  0  0  0  0  0
  -21.4069   -8.5799   23.1228 O   0  0  0  0  0  0  0  0  0  0  0  0
  -26.3150  -25.2298   19.8041 O   0  0  0  0  0  0  0  0  0  1  0  0
  -20.8410   -3.1594   23.9610 F   0  0  0  0  0  0  0  0  0  0  0  0
  -21.6048   -7.5094   25.6640 F   0  0  0  0  0  0  0  0  0  0  0  0
  1  2  1  0  0  0  0
  1  5  2  0  0  0  0
  2  6  2  0  0  0  0
  3  8  2  0  0  0  0
  3 18  1  0  0  0  0
  4  9  1  0  0  0  0
  4 18  2  0  0  0  0
  5 20  1  0  0  0  0
  6 22  1  0  0  0  0
  7 10  2  0  0  0  0
  7 21  1  0  0  0  0
  8 26  1  0  0  0  0
  9 26  2  0  0  0  0
 10 27  1  0  0  0  0
 11 12  2  0  0  0  0
 11 28  1  0  0  0  0
 12 29  1  0  0  0  0
 13 23  1  0  0  0  0
 13 27  2  0  0  0  0
 14 24  2  0  0  0  0
 14 25  1  0  0  0  0
 15 29  2  0  0  0  0
 15 30  1  0  0  0  0
 16 24  1  0  0  0  0
 16 64  2  0  0  0  0
 17 25  2  0  0  0  0
 17 64  1  0  0  0  0
 18 31  1  0  0  0  0
 19 31  1  0  0  0  0
 19 32  2  0  0  0  0
 19 38  1  0  0  0  0
 20 22  2  0  0  0  0
 20 43  1  0  0  0  0
 21 23  2  0  0  0  0
 21 44  1  0  0  0  0
 22 53  1  0  0  0  0
 23 45  1  0  0  0  0
 24 67  1  0  0  0  0
 25 72  1  0  0  0  0
 26 82  1  0  0  0  0
 27 83  1  0  0  0  0
 28 30  2  0  0  0  0
 28 82  1  0  0  0  0
 29 84  1  0  0  0  0
 30 85  1  0  0  0  0
 31 65  2  0  0  0  0
 32 66  1  0  0  0  0
 32 70  1  0  0  0  0
 33 34  1  0  0  0  0
 33 35  1  0  0  0  0
 33 37  2  0  0  0  0
 34 36  2  0  0  0  0
 34 46  1  0  0  0  0
 35 67  1  0  0  0  0
 35 76  2  0  0  0  0
 37 83  1  0  0  0  0
 38 71  1  0  0  0  0
 38 77  2  0  0  0  0
 39 54  1  0  0  0  0
 39 73  1  0  0  0  0
 39 78  2  0  0  0  0
 40 61  1  0  0  0  0
 40 68  1  0  0  0  0
 40 79  2  0  0  0  0
 41 62  1  0  0  0  0
 41 74  1  0  0  0  0
 41 80  2  0  0  0  0
 42 69  1  0  0  0  0
 42 72  1  0  0  0  0
 42 81  2  0  0  0  0
 43 47  1  0  0  0  0
 44 54  1  0  0  0  0
 45 68  1  0  0  0  0
 46 67  1  0  0  0  0
 47 49  1  0  0  0  0
 48 50  1  0  0  0  0
 48 51  1  0  0  0  0
 49 53  1  0  0  0  0
 50 55  1  0  0  0  0
 51 69  1  0  0  0  0
 52 55  1  0  0  0  0
 52 69  1  0  0  0  0
 53 73  1  0  0  0  0
 54 68  1  0  0  0  0
 55 66  1  0  0  0  0
 56 62  1  0  0  0  0
 57 63  1  0  0  0  0
 58 63  1  0  0  0  0
 59 63  1  0  0  0  0
 60 75  1  0  0  0  0
 61 63  1  0  0  0  0
 61 74  1  0  0  0  0
 62 75  1  0  0  0  0
 65 66  1  0  0  0  0
M  CHG  1  75   1
M  ISO  4  37 101  42 100  72 100  83 101
M  END
> <Batch ID>
0080

> <Smiles>
C=C1CN(c2cncc([100NH:0][100C:0](=O)N3CCCC(n4nc(-c5ccc(Oc6ccc(F)cc6F)cc5)c(C(N)=O)c4N)C3)c2)C(=O)C1=[101CH:1][101O:1]c1ccc2c(c1)CN(C(=O)C(NC(=O)C(C)NC)C(C)(C)C)C(C(=O)NC1CCCc3ccccc31)C2

> <Shape>
0.293

> <Color>
0.089

> <Negative vol penalty>
0.000

$$$$

  -OEChem-04052300023D

 86 95  0     1  0  0  0  0  0999 V2000
  -27.8174  -34.0452   24.9518 C   0  0  0  0  0  0  0  0  0  0  0  0
  -28.0289  -32.7780   24.4181 C   0  0  0  0  0  0  0  0  0  0  0  0
  -25.9454  -18.9909   16.6568 C   0  0  0  0  0  0  0  0  0  0  0  0
  -24.3562   -9.6058   21.7095 C   0  0  0  0  0  0  0  0  0  0  0  0
  -23.4233  -10.7772   19.8136 C   0  0  0  0  0  0  0  0  0  0  0  0
  -26.5571  -34.3960   25.4339 C   0  0  0  0  0  0  0  0  0  0  0  0
  -26.9802  -31.8603   24.3673 C   0  0  0  0  0  0  0  0  0  0  0  0
  -26.7095  -29.4643   19.9141 C   0  0  0  0  0  0  0  0  0  0  0  0
  -26.2190  -20.2499   17.1912 C   0  0  0  0  0  0  0  0  0  0  0  0
  -26.5018  -17.8509   17.2370 C   0  0  0  0  0  0  0  0  0  0  0  0
  -23.0752   -9.2136   22.0976 C   0  0  0  0  0  0  0  0  0  0  0  0
  -22.1422  -10.3849   20.2016 C   0  0  0  0  0  0  0  0  0  0  0  0
  -27.6166  -28.4291   19.6919 C   0  0  0  0  0  0  0  0  0  0  0  0
  -20.8068   -6.8734   21.1970 C   0  0  0  0  0  0  0  0  0  0  0  0
  -20.6232   -5.5439   21.5769 C   0  0  0  0  0  0  0  0  0  0  0  0
  -25.9060  -26.8199   20.2427 C   0  0  0  0  0  0  0  0  0  0  0  0
  -27.6056  -19.2291   18.8861 C   0  0  0  0  0  0  0  0  0  0  0  0
  -19.8976   -6.2692   23.7643 C   0  0  0  0  0  0  0  0  0  0  0  0
  -24.5303  -10.3877   20.5676 C   0  0  0  0  0  0  0  0  0  0  0  0
  -26.7307  -10.1040   19.3084 C   0  0  0  0  0  0  0  0  0  0  0  0
  -25.4900  -33.4854   25.3801 C   0  0  0  0  0  0  0  0  0  0  0  0
  -25.3947  -29.1849   20.3136 C   0  0  0  0  0  0  0  0  0  0  0  0
  -25.7048  -32.1987   24.8504 C   0  0  0  0  0  0  0  0  0  0  0  0
  -24.9834  -27.8532   20.4669 C   0  0  0  0  0  0  0  0  0  0  0  0
  -27.0492  -20.3690   18.3058 C   0  0  0  0  0  0  0  0  0  0  0  0
  -27.3319  -17.9701   18.3516 C   0  0  0  0  0  0  0  0  0  0  0  0
  -21.9682   -9.6031   21.3436 C   0  0  0  0  0  0  0  0  0  0  0  0
  -27.2158  -27.1068   19.8589 C   0  0  0  0  0  0  0  0  0  0  0  0
  -20.5359   -7.9008   22.1008 C   0  0  0  0  0  0  0  0  0  0  0  0
  -20.1685   -5.2418   22.8605 C   0  0  0  0  0  0  0  0  0  0  0  0
  -20.0813   -7.5987   23.3844 C   0  0  0  0  0  0  0  0  0  0  0  0
  -25.8533  -10.7937   20.1665 C   0  0  0  0  0  0  0  0  0  0  0  0
  -27.8487  -10.8996   19.2488 C   0  0  0  0  0  0  0  0  0  0  0  0
  -27.6714  -23.8824   18.9977 C   0  0  0  0  0  0  0  0  0  0  0  0
  -27.8244  -23.3182   20.3458 C   0  0  0  0  0  0  0  0  0  0  0  0
  -27.3513  -22.7970   18.0485 C   0  0  0  0  0  0  0  0  0  0  0  0
  -26.5511   -8.8558   18.6262 C   0  0  0  0  0  0  0  0  0  0  0  0
  -27.8008  -25.1747   18.6777 C   0  0  0  0  0  0  0  0  0  1  0  0
  -23.6383  -29.8566   22.8763 C   0  0  0  0  0  0  0  0  0  0  0  0
  -21.2708  -28.4892   21.1305 C   0  0  0  0  0  0  0  0  0  0  0  0
  -20.3858  -26.3512   18.6221 C   0  0  0  0  0  0  0  0  0  0  0  0
  -28.7407  -16.7535   20.0493 C   0  0  0  0  0  0  0  0  0  0  0  0
  -24.1576  -33.8937   25.9568 C   0  0  0  0  0  0  0  0  0  0  0  0
  -24.4208  -30.3118   20.5234 C   0  0  0  0  0  0  0  0  0  0  0  0
  -23.5774  -27.4994   20.8747 C   0  0  0  0  0  0  0  0  0  0  0  0
  -27.6007  -21.8366   20.2719 C   0  0  0  0  0  0  0  0  0  0  0  0
  -23.0044  -32.9922   25.5235 C   0  0  0  0  0  0  0  0  0  0  0  0
  -30.3109  -14.0977   21.8264 C   0  0  0  0  0  0  0  0  0  0  0  0
  -23.3946  -31.5238   25.6589 C   0  0  0  0  0  0  0  0  0  0  0  0
  -29.4293  -12.8850   21.5194 C   0  0  0  0  0  0  0  0  0  0  0  0
  -29.4862  -15.3747   21.9775 C   0  0  0  0  0  0  0  0  0  0  0  0
  -27.7019  -14.4544   20.5497 C   0  0  0  0  0  0  0  0  0  0  0  0
  -24.5860  -31.1840   24.7553 C   0  0  1  0  0  0  0  0  0  0  0  0
  -23.2516  -29.9309   21.4263 C   0  0  1  0  0  0  0  0  0  0  0  0
  -28.4941  -13.1562   20.3246 C   0  0  2  0  0  0  0  0  0  0  0  0
  -27.6359  -25.7042   17.2895 C   0  0  0  0  0  0  0  0  0  0  0  0
  -18.3741  -25.4119   17.4523 C   0  0  0  0  0  0  0  0  0  0  0  0
  -20.7477  -26.6525   23.5102 C   0  0  0  0  0  0  0  0  0  0  0  0
  -19.4355  -25.1637   21.9837 C   0  0  0  0  0  0  0  0  0  0  0  0
  -18.6873  -27.5099   22.3815 C   0  0  0  0  0  0  0  0  0  0  0  0
  -21.2218  -27.4904   16.0216 C   0  0  0  0  0  0  0  0  0  0  0  0
  -20.7383  -27.0863   20.9651 C   0  0  1  0  0  0  0  0  0  0  0  0
  -19.4274  -26.5088   17.4554 C   0  0  2  0  0  0  0  0  0  0  0  0
  -19.9293  -26.6095   22.2043 C   0  0  0  0  0  0  0  0  0  0  0  0
  -26.3696  -11.9392   20.6196 N   0  0  0  0  0  0  0  0  0  0  0  0
  -27.5835  -11.9754   20.0441 N   0  0  0  0  0  0  0  0  0  0  0  0
  -27.3216  -21.6266   18.8393 N   0  0  0  0  0  0  0  0  0  0  0  0
  -22.6640  -28.6367   21.0742 N   0  0  0  0  0  0  0  0  0  0  0  0
  -28.6278  -15.5686   20.8069 N   0  0  0  0  0  0  0  0  0  0  0  0
  -29.0230  -10.7768   18.5942 N   0  0  0  0  0  0  0  0  0  0  0  0
  -25.3417   -8.1686   18.7977 N   0  0  0  0  0  0  0  0  0  0  0  0
  -27.8968  -16.8117   18.9407 N   0  0  0  0  0  0  0  0  0  0  0  0
  -24.1528  -31.0349   23.3825 N   0  0  0  0  0  0  0  0  0  0  0  0
  -19.9800  -27.0819   19.7187 N   0  0  0  0  0  0  0  0  0  0  0  0
  -20.1694  -26.4516   16.1642 N   0  3  0  0  0  0  0  0  0  0  0  0
  -28.0891  -23.9480   21.3554 O   0  0  0  0  0  0  0  0  0  0  0  0
  -27.1616  -22.9248   16.8516 O   0  0  0  0  0  0  0  0  0  0  0  0
  -27.4432   -8.3564   17.8994 O   0  0  0  0  0  0  0  0  0  0  0  0
  -23.4801  -28.8082   23.4908 O   0  0  0  0  0  0  0  0  0  0  0  0
  -20.4795  -29.4208   21.2963 O   0  0  0  0  0  0  0  0  0  0  0  0
  -21.3916  -25.6470   18.5674 O   0  0  0  0  0  0  0  0  0  0  0  0
  -29.5473  -17.6388   20.3454 O   0  0  0  0  0  0  0  0  0  0  0  0
  -20.7180   -9.2203   21.7218 O   0  0  0  0  0  0  0  0  0  0  0  0
  -28.0993  -26.0945   19.6433 O   0  0  0  0  0  0  0  0  0  1  0  0
  -19.9908   -3.9651   23.2247 F   0  0  0  0  0  0  0  0  0  0  0  0
  -19.8182   -8.5815   24.2566 F   0  0  0  0  0  0  0  0  0  0  0  0
  1  2  1  0  0  0  0
  1  6  2  0  0  0  0
  2  7  2  0  0  0  0
  3  9  2  0  0  0  0
  3 10  1  0  0  0  0
  4 11  2  0  0  0  0
  4 19  1  0  0  0  0
  5 12  1  0  0  0  0
  5 19  2  0  0  0  0
  6 21  1  0  0  0  0
  7 23  1  0  0  0  0
  8 13  2  0  0  0  0
  8 22  1  0  0  0  0
  9 25  1  0  0  0  0
 10 26  2  0  0  0  0
 11 27  1  0  0  0  0
 12 27  2  0  0  0  0
 13 28  1  0  0  0  0
 14 15  2  0  0  0  0
 14 29  1  0  0  0  0
 15 30  1  0  0  0  0
 16 24  1  0  0  0  0
 16 28  2  0  0  0  0
 17 25  2  0  0  0  0
 17 26  1  0  0  0  0
 18 30  2  0  0  0  0
 18 31  1  0  0  0  0
 19 32  1  0  0  0  0
 20 32  1  0  0  0  0
 20 33  2  0  0  0  0
 20 37  1  0  0  0  0
 21 23  2  0  0  0  0
 21 43  1  0  0  0  0
 22 24  2  0  0  0  0
 22 44  1  0  0  0  0
 23 53  1  0  0  0  0
 24 45  1  0  0  0  0
 25 67  1  0  0  0  0
 26 72  1  0  0  0  0
 27 83  1  0  0  0  0
 28 84  1  0  0  0  0
 29 31  2  0  0  0  0
 29 83  1  0  0  0  0
 30 85  1  0  0  0  0
 31 86  1  0  0  0  0
 32 65  2  0  0  0  0
 33 66  1  0  0  0  0
 33 70  1  0  0  0  0
 34 35  1  0  0  0  0
 34 36  1  0  0  0  0
 34 38  2  0  0  0  0
 35 46  1  0  0  0  0
 35 76  2  0  0  0  0
 36 67  1  0  0  0  0
 36 77  2  0  0  0  0
 37 71  1  0  0  0  0
 37 78  2  0  0  0  0
 38 56  1  0  0  0  0
 38 84  1  0  0  0  0
 39 54  1  0  0  0  0
 39 73  1  0  0  0  0
 39 79  2  0  0  0  0
 40 62  1  0  0  0  0
 40 68  1  0  0  0  0
 40 80  2  0  0  0  0
 41 63  1  0  0  0  0
 41 74  1  0  0  0  0
 41 81  2  0  0  0  0
 42 69  1  0  0  0  0
 42 72  1  0  0  0  0
 42 82  2  0  0  0  0
 43 47  1  0  0  0  0
 44 54  1  0  0  0  0
 45 68  1  0  0  0  0
 46 67  1  0  0  0  0
 47 49  1  0  0  0  0
 48 50  1  0  0  0  0
 48 51  1  0  0  0  0
 49 53  1  0  0  0  0
 50 55  1  0  0  0  0
 51 69  1  0  0  0  0
 52 55  1  0  0  0  0
 52 69  1  0  0  0  0
 53 73  1  0  0  0  0
 54 68  1  0  0  0  0
 55 66  1  0  0  0  0
 57 63  1  0  0  0  0
 58 64  1  0  0  0  0
 59 64  1  0  0  0  0
 60 64  1  0  0  0  0
 61 75  1  0  0  0  0
 62 64  1  0  0  0  0
 62 74  1  0  0  0  0
 63 75  1  0  0  0  0
 65 66  1  0  0  0  0
M  CHG  1  75   1
M  ISO  4  38 101  42 100  72 100  84 101
M  END
> <Batch ID>
0080

> <Smiles>
CNC(C)C(=O)NC(C(=O)N1Cc2cc([101O:1][101C:1](C)=C3C(=O)CN(c4cccc([100NH:0][100C:0](=O)N5CCCC(n6nc(-c7ccc(Oc8ccc(F)cc8F)cc7)c(C(N)=O)c6N)C5)c4)C3=O)ccc2CC1C(=O)NC1CCCc2ccccc21)C(C)(C)C

> <Shape>
0.289

> <Color>
0.082

> <Negative vol penalty>
0.000

$$$$

  -OEChem-04052300023D

 87 96  0     1  0  0  0  0  0999 V2000
  -26.1460  -35.7608   22.3089 C   0  0  0  0  0  0  0  0  0  0  0  0
  -26.6832  -34.4794   22.2394 C   0  0  0  0  0  0  0  0  0  0  0  0
  -24.3470   -8.7216   19.9978 C   0  0  0  0  0  0  0  0  0  0  0  0
  -23.1852  -10.4378   21.2395 C   0  0  0  0  0  0  0  0  0  0  0  0
  -24.8502  -35.9471   22.7888 C   0  0  0  0  0  0  0  0  0  0  0  0
  -25.9254  -33.3836   22.6507 C   0  0  0  0  0  0  0  0  0  0  0  0
  -26.2106  -29.4993   19.4140 C   0  0  0  0  0  0  0  0  0  0  0  0
  -29.8077  -20.0838   21.7732 C   0  0  0  0  0  0  0  0  0  0  0  0
  -29.8644  -18.6915   21.7111 C   0  0  0  0  0  0  0  0  0  0  0  0
  -23.4182   -7.7770   20.4344 C   0  0  0  0  0  0  0  0  0  0  0  0
  -22.2563   -9.4932   21.6760 C   0  0  0  0  0  0  0  0  0  0  0  0
  -27.3609  -28.7130   19.4629 C   0  0  0  0  0  0  0  0  0  0  0  0
  -20.2652   -6.8382   19.6533 C   0  0  0  0  0  0  0  0  0  0  0  0
  -19.7538   -5.9476   18.7094 C   0  0  0  0  0  0  0  0  0  0  0  0
  -26.1712  -27.0639   20.7606 C   0  0  0  0  0  0  0  0  0  0  0  0
  -28.1489  -20.0946   20.0166 C   0  0  0  0  0  0  0  0  0  0  0  0
  -20.6314   -4.0925   19.9843 C   0  0  0  0  0  0  0  0  0  0  0  0
  -24.2305  -10.0520   20.4005 C   0  0  0  0  0  0  0  0  0  0  0  0
  -25.1165  -11.8194   18.7883 C   0  0  0  0  0  0  0  0  0  0  0  0
  -24.0726  -34.8520   23.1972 C   0  0  0  0  0  0  0  0  0  0  0  0
  -25.0331  -29.0782   20.0485 C   0  0  0  0  0  0  0  0  0  0  0  0
  -24.6185  -33.5555   23.1378 C   0  0  0  0  0  0  0  0  0  0  0  0
  -25.0066  -27.8455   20.7162 C   0  0  0  0  0  0  0  0  0  0  0  0
  -28.2057  -18.7023   19.9545 C   0  0  0  0  0  0  0  0  0  0  0  0
  -28.9499  -20.7854   20.9260 C   0  0  0  0  0  0  0  0  0  0  0  0
  -29.0634  -18.0007   20.8017 C   0  0  0  0  0  0  0  0  0  0  0  0
  -22.3728   -8.1628   21.2734 C   0  0  0  0  0  0  0  0  0  0  0  0
  -27.3421  -27.4965   20.1387 C   0  0  0  0  0  0  0  0  0  0  0  0
  -20.9598   -6.3559   20.7627 C   0  0  0  0  0  0  0  0  0  0  0  0
  -19.9369   -4.5748   18.8749 C   0  0  0  0  0  0  0  0  0  0  0  0
  -21.1428   -4.9831   20.9282 C   0  0  0  0  0  0  0  0  0  0  0  0
  -25.1900  -11.0282   19.9503 C   0  0  0  0  0  0  0  0  0  0  0  0
  -26.2621  -12.5766   18.8154 C   0  0  0  0  0  0  0  0  0  0  0  0
  -28.6473  -24.3980   20.4515 C   0  0  0  0  0  0  0  0  0  0  0  0
  -28.9785  -24.3574   21.8537 C   0  0  0  0  0  0  0  0  0  0  0  0
  -28.5916  -23.0139   19.9039 C   0  0  0  0  0  0  0  0  0  0  0  0
  -29.1233  -25.3805   22.7027 C   0  0  0  0  0  0  0  0  0  0  0  0
  -24.1032  -11.8659   17.7750 C   0  0  0  0  0  0  0  0  0  0  0  0
  -28.4046  -25.4687   19.6592 C   0  0  0  0  0  0  0  0  0  1  0  0
  -23.2244  -30.2134   22.4030 C   0  0  0  0  0  0  0  0  0  0  0  0
  -21.2796  -27.7543   21.5705 C   0  0  0  0  0  0  0  0  0  0  0  0
  -20.9521  -24.6826   20.1199 C   0  0  0  0  0  0  0  0  0  0  0  0
  -29.9371  -15.7546   21.5353 C   0  0  0  0  0  0  0  0  0  0  0  0
  -22.6941  -35.1076   23.7531 C   0  0  0  0  0  0  0  0  0  0  0  0
  -23.7932  -29.9255   19.9638 C   0  0  0  0  0  0  0  0  0  0  0  0
  -23.7620  -27.3387   21.3964 C   0  0  0  0  0  0  0  0  0  0  0  0
  -29.1422  -22.9144   22.2248 C   0  0  0  0  0  0  0  0  0  0  0  0
  -21.8217  -33.8566   23.8176 C   0  0  0  0  0  0  0  0  0  0  0  0
  -30.3727  -12.2273   21.7485 C   0  0  0  0  0  0  0  0  0  0  0  0
  -22.6027  -32.6914   24.4168 C   0  0  0  0  0  0  0  0  0  0  0  0
  -29.0571  -11.6660   21.2041 C   0  0  0  0  0  0  0  0  0  0  0  0
  -30.1522  -13.5017   22.5615 C   0  0  0  0  0  0  0  0  0  0  0  0
  -28.0757  -13.9915   21.3297 C   0  0  0  0  0  0  0  0  0  0  0  0
  -23.8187  -32.3392   23.5513 C   0  0  1  0  0  0  0  0  0  0  0  0
  -22.7961  -29.6389   21.0824 C   0  0  1  0  0  0  0  0  0  0  0  0
  -28.2540  -12.7436   20.4496 C   0  0  2  0  0  0  0  0  0  0  0  0
  -27.3351  -17.9879   18.9724 C   0  0  0  0  0  0  0  0  0  0  0  0
  -28.0676  -25.3845   18.2043 C   0  0  0  0  0  0  0  0  0  0  0  0
  -19.2464  -22.9102   19.6237 C   0  0  0  0  0  0  0  0  0  0  0  0
  -21.3396  -26.8817   24.4937 C   0  0  0  0  0  0  0  0  0  0  0  0
  -20.4480  -24.6553   23.7749 C   0  0  0  0  0  0  0  0  0  0  0  0
  -19.0955  -26.7179   23.4019 C   0  0  0  0  0  0  0  0  0  0  0  0
  -21.3786  -24.9256   17.2013 C   0  0  0  0  0  0  0  0  0  0  0  0
  -21.1480  -26.3083   21.9836 C   0  0  1  0  0  0  0  0  0  0  0  0
  -19.9584  -24.1493   19.1038 C   0  0  2  0  0  0  0  0  0  0  0  0
  -20.5320  -26.1510   23.4024 C   0  0  0  0  0  0  0  0  0  0  0  0
  -26.2951  -11.2610   20.6636 N   0  0  0  0  0  0  0  0  0  0  0  0
  -26.9265  -12.2070   19.9477 N   0  0  0  0  0  0  0  0  0  0  0  0
  -28.8915  -22.1739   20.9899 N   0  0  0  0  0  0  0  0  0  0  0  0
  -22.5771  -28.2061   21.2909 N   0  0  0  0  0  0  0  0  0  0  0  0
  -29.3886  -14.4782   21.7816 N   0  0  0  0  0  0  0  0  0  0  0  0
  -26.7560  -13.5157   17.9808 N   0  0  0  0  0  0  0  0  0  0  0  0
  -22.9922  -11.0209   17.9019 N   0  0  0  0  0  0  0  0  0  0  0  0
  -29.1344  -16.5863   20.7552 N   0  0  0  0  0  0  0  0  0  0  0  0
  -23.4087  -31.5828   22.3876 N   0  0  0  0  0  0  0  0  0  0  0  0
  -20.3891  -25.6492   20.9262 N   0  0  0  0  0  0  0  0  0  0  0  0
  -20.6552  -23.7935   17.8353 N   0  3  0  0  0  0  0  0  0  0  0  0
  -28.3364  -22.7091   18.7508 O   0  0  0  0  0  0  0  0  0  0  0  0
  -24.1886  -12.6221   16.7779 O   0  0  0  0  0  0  0  0  0  0  0  0
  -23.3751  -29.4695   23.3652 O   0  0  0  0  0  0  0  0  0  0  0  0
  -20.2676  -28.4553   21.4917 O   0  0  0  0  0  0  0  0  0  0  0  0
  -22.1108  -24.2793   20.1936 O   0  0  0  0  0  0  0  0  0  0  0  0
  -31.0497  -16.0759   21.9605 O   0  0  0  0  0  0  0  0  0  0  0  0
  -21.4661   -7.2413   21.6993 O   0  0  0  0  0  0  0  0  0  0  0  0
  -28.4636  -26.7273   20.1884 O   0  0  0  0  0  0  0  0  0  1  0  0
  -19.4444   -3.7196   17.9691 F   0  0  0  0  0  0  0  0  0  0  0  0
  -21.8082   -4.5137   21.9925 F   0  0  0  0  0  0  0  0  0  0  0  0
  1  2  1  0  0  0  0
  1  5  2  0  0  0  0
  2  6  2  0  0  0  0
  3 10  2  0  0  0  0
  3 18  1  0  0  0  0
  4 11  1  0  0  0  0
  4 18  2  0  0  0  0
  5 20  1  0  0  0  0
  6 22  1  0  0  0  0
  7 12  2  0  0  0  0
  7 21  1  0  0  0  0
  8  9  2  0  0  0  0
  8 25  1  0  0  0  0
  9 26  1  0  0  0  0
 10 27  1  0  0  0  0
 11 27  2  0  0  0  0
 12 28  1  0  0  0  0
 13 14  2  0  0  0  0
 13 29  1  0  0  0  0
 14 30  1  0  0  0  0
 15 23  1  0  0  0  0
 15 28  2  0  0  0  0
 16 24  1  0  0  0  0
 16 25  2  0  0  0  0
 17 30  2  0  0  0  0
 17 31  1  0  0  0  0
 18 32  1  0  0  0  0
 19 32  1  0  0  0  0
 19 33  2  0  0  0  0
 19 38  1  0  0  0  0
 20 22  2  0  0  0  0
 20 44  1  0  0  0  0
 21 23  2  0  0  0  0
 21 45  1  0  0  0  0
 22 54  1  0  0  0  0
 23 46  1  0  0  0  0
 24 26  2  0  0  0  0
 24 57  1  0  0  0  0
 25 69  1  0  0  0  0
 26 74  1  0  0  0  0
 27 84  1  0  0  0  0
 28 85  1  0  0  0  0
 29 31  2  0  0  0  0
 29 84  1  0  0  0  0
 30 86  1  0  0  0  0
 31 87  1  0  0  0  0
 32 67  2  0  0  0  0
 33 68  1  0  0  0  0
 33 72  1  0  0  0  0
 34 35  1  0  0  0  0
 34 36  1  0  0  0  0
 34 39  2  0  0  0  0
 35 37  2  0  0  0  0
 35 47  1  0  0  0  0
 36 69  1  0  0  0  0
 36 78  2  0  0  0  0
 38 73  1  0  0  0  0
 38 79  2  0  0  0  0
 39 58  1  0  0  0  0
 39 85  1  0  0  0  0
 40 55  1  0  0  0  0
 40 75  1  0  0  0  0
 40 80  2  0  0  0  0
 41 64  1  0  0  0  0
 41 70  1  0  0  0  0
 41 81  2  0  0  0  0
 42 65  1  0  0  0  0
 42 76  1  0  0  0  0
 42 82  2  0  0  0  0
 43 71  1  0  0  0  0
 43 74  1  0  0  0  0
 43 83  2  0  0  0  0
 44 48  1  0  0  0  0
 45 55  1  0  0  0  0
 46 70  1  0  0  0  0
 47 69  1  0  0  0  0
 48 50  1  0  0  0  0
 49 51  1  0  0  0  0
 49 52  1  0  0  0  0
 50 54  1  0  0  0  0
 51 56  1  0  0  0  0
 52 71  1  0  0  0  0
 53 56  1  0  0  0  0
 53 71  1  0  0  0  0
 54 75  1  0  0  0  0
 55 70  1  0  0  0  0
 56 68  1  0  0  0  0
 59 65  1  0  0  0  0
 60 66  1  0  0  0  0
 61 66  1  0  0  0  0
 62 66  1  0  0  0  0
 63 77  1  0  0  0  0
 64 66  1  0  0  0  0
 64 76  1  0  0  0  0
 65 77  1  0  0  0  0
 67 68  1  0  0  0  0
M  CHG  1  77   1
M  ISO  4  39 101  43 100  74 100  85 101
M  END
> <Batch ID>
0080

> <Smiles>
C=C1CN(c2ccc([100NH:0][100C:0](=O)N3CCCC(n4nc(-c5ccc(Oc6ccc(F)cc6F)cc5)c(C(N)=O)c4N)C3)c(C)c2)C(=O)C1=[101C:1](C)[101O:1]c1ccc2c(c1)CN(C(=O)C(NC(=O)C(C)NC)C(C)(C)C)C(C(=O)NC1CCCc3ccccc31)C2

> <Shape>
0.309

> <Color>
0.115

> <Negative vol penalty>
0.000

$$$$

  -OEChem-04052300023D

 82 90  0     1  0  0  0  0  0999 V2000
  -27.7661  -25.0433   15.9394 C   0  0  0  0  0  0  0  0  0  0  0  0
  -26.6724  -25.7930   16.3576 C   0  0  0  0  0  0  0  0  0  0  0  0
  -26.7022  -13.7764   19.2901 C   0  0  0  0  0  0  0  0  0  0  0  0
  -24.5933  -14.3083   20.3420 C   0  0  0  0  0  0  0  0  0  0  0  0
  -21.5812  -22.9816   22.3300 C   0  0  0  0  0  0  0  0  0  0  0  0
  -23.0085  -24.8294   21.7090 C   0  0  0  0  0  0  0  0  0  0  0  0
  -28.8714  -24.9035   16.7760 C   0  0  0  0  0  0  0  0  0  0  0  0
  -26.6886  -26.4128   17.6076 C   0  0  0  0  0  0  0  0  0  0  0  0
  -22.9478  -29.4321   18.6534 C   0  0  0  0  0  0  0  0  0  0  0  0
  -22.6681  -22.1120   22.2406 C   0  0  0  0  0  0  0  0  0  0  0  0
  -24.0954  -23.9598   21.6197 C   0  0  0  0  0  0  0  0  0  0  0  0
  -26.6872  -12.5198   19.8953 C   0  0  0  0  0  0  0  0  0  0  0  0
  -24.5782  -13.0516   20.9472 C   0  0  0  0  0  0  0  0  0  0  0  0
  -21.6595  -28.9713   18.9213 C   0  0  0  0  0  0  0  0  0  0  0  0
  -23.8470   -9.8725   20.0648 C   0  0  0  0  0  0  0  0  0  0  0  0
  -22.6511   -9.1551   20.0356 C   0  0  0  0  0  0  0  0  0  0  0  0
  -22.0172  -29.3581   21.2754 C   0  0  0  0  0  0  0  0  0  0  0  0
  -22.6077   -9.1294   22.4511 C   0  0  0  0  0  0  0  0  0  0  0  0
  -25.6553  -14.6707   19.5135 C   0  0  0  0  0  0  0  0  0  0  0  0
  -21.7514  -24.3403   22.0641 C   0  0  0  0  0  0  0  0  0  0  0  0
  -25.1323  -16.3158   17.6352 C   0  0  0  0  0  0  0  0  0  0  0  0
  -28.8951  -25.5120   18.0418 C   0  0  0  0  0  0  0  0  0  0  0  0
  -23.7857  -29.8498   19.6974 C   0  0  0  0  0  0  0  0  0  0  0  0
  -27.8047  -26.3034   18.4566 C   0  0  0  0  0  0  0  0  0  0  0  0
  -23.3147  -29.8262   21.0179 C   0  0  0  0  0  0  0  0  0  0  0  0
  -23.9253  -22.6011   21.8855 C   0  0  0  0  0  0  0  0  0  0  0  0
  -25.6252  -12.1574   20.7238 C   0  0  0  0  0  0  0  0  0  0  0  0
  -21.1950  -28.9315   20.2327 C   0  0  0  0  0  0  0  0  0  0  0  0
  -24.4232  -10.2183   21.2871 C   0  0  0  0  0  0  0  0  0  0  0  0
  -22.0314   -8.7836   21.2288 C   0  0  0  0  0  0  0  0  0  0  0  0
  -23.8036   -9.8468   22.4802 C   0  0  0  0  0  0  0  0  0  0  0  0
  -25.6705  -15.9691   18.8890 C   0  0  0  0  0  0  0  0  0  0  0  0
  -25.4037  -17.6558   17.5037 C   0  0  0  0  0  0  0  0  0  0  0  0
  -20.5991  -25.2621   22.1586 C   0  0  0  0  0  0  0  0  0  0  0  0
  -24.4482  -15.4996   16.6753 C   0  0  0  0  0  0  0  0  0  0  0  0
  -26.5881  -28.8859   20.8469 C   0  0  0  0  0  0  0  0  0  0  0  0
  -26.2956  -31.5297   22.7035 C   0  0  0  0  0  0  0  0  0  0  0  0
  -24.2435  -33.8391   24.1535 C   0  0  0  0  0  0  0  0  0  0  0  0
  -26.3428  -22.0377   21.4562 C   0  0  0  0  0  0  0  0  0  0  0  0
  -19.7236  -27.4110   21.2932 C   0  0  0  0  0  0  0  0  0  1  0  0
  -30.1203  -25.3344   18.9035 C   0  0  0  0  0  0  0  0  0  0  0  0
  -25.1632  -30.3694   19.3892 C   0  0  0  0  0  0  0  0  0  0  0  0
  -24.1676  -30.2826   22.1723 C   0  0  0  0  0  0  0  0  0  0  0  0
  -29.8648  -25.6530   20.3730 C   0  0  0  0  0  0  0  0  0  0  0  0
  -28.5573  -20.9899   18.8725 C   0  0  0  0  0  0  0  0  0  0  0  0
  -29.1644  -26.9976   20.4992 C   0  0  0  0  0  0  0  0  0  0  0  0
  -28.0157  -19.6176   18.4653 C   0  0  0  0  0  0  0  0  0  0  0  0
  -28.4287  -21.2268   20.3762 C   0  0  0  0  0  0  0  0  0  0  0  0
  -26.5398  -19.6515   20.5165 C   0  0  0  0  0  0  0  0  0  0  0  0
  -27.7873  -26.9614   19.8245 C   0  0  1  0  0  0  0  0  0  0  0  0
  -26.1134  -30.2862   20.5798 C   0  0  1  0  0  0  0  0  0  0  0  0
  -26.5883  -19.3933   19.0017 C   0  0  2  0  0  0  0  0  0  0  0  0
  -24.2919  -35.8568   25.6448 C   0  0  0  0  0  0  0  0  0  0  0  0
  -26.7466  -29.7271   25.1237 C   0  0  0  0  0  0  0  0  0  0  0  0
  -25.8546  -31.5648   26.5712 C   0  0  0  0  0  0  0  0  0  0  0  0
  -27.9257  -31.9300   25.2295 C   0  0  0  0  0  0  0  0  0  0  0  0
  -23.0686  -35.5627   22.0541 C   0  0  0  0  0  0  0  0  0  0  0  0
  -25.6897  -31.8258   24.0541 C   0  0  1  0  0  0  0  0  0  0  0  0
  -24.3133  -35.3545   24.2095 C   0  0  2  0  0  0  0  0  0  0  0  0
  -26.5385  -31.2514   25.2233 C   0  0  0  0  0  0  0  0  0  0  0  0
  -26.2408  -17.0053   19.5097 N   0  0  0  0  0  0  0  0  0  0  0  0
  -26.0626  -18.0162   18.6423 N   0  0  0  0  0  0  0  0  0  0  0  0
  -25.5093  -30.7762   21.8204 N   0  0  0  0  0  0  0  0  0  0  0  0
  -27.0490  -21.0000   20.8119 N   0  0  0  0  0  0  0  0  0  0  0  0
  -25.1407  -18.5492   16.5264 N   0  0  0  0  0  0  0  0  0  0  0  0
  -24.2537  -14.1431   16.9694 N   0  0  0  0  0  0  0  0  0  0  0  0
  -25.0288  -21.7169   21.7953 N   0  0  0  0  0  0  0  0  0  0  0  0
  -20.6513  -26.4493   21.3400 N   0  0  0  0  0  0  0  0  0  0  0  0
  -27.2472  -28.3024   19.7817 N   0  0  0  0  0  0  0  0  0  0  0  0
  -25.4992  -33.2713   24.1080 N   0  0  0  0  0  0  0  0  0  0  0  0
  -18.5968  -27.4359   21.9926 N   0  3  0  0  0  0  0  0  0  0  0  0
  -23.1572  -35.9535   23.4846 N   0  3  0  0  0  0  0  0  0  0  0  0
  -19.6539  -25.0454   22.9027 O   0  0  0  0  0  0  0  0  0  0  0  0
  -24.0366  -15.9559   15.5817 O   0  0  0  0  0  0  0  0  0  0  0  0
  -26.3736  -28.3732   21.9391 O   0  0  0  0  0  0  0  0  0  0  0  0
  -27.4220  -31.9573   22.4391 O   0  0  0  0  0  0  0  0  0  0  0  0
  -23.1813  -33.2207   24.1541 O   0  0  0  0  0  0  0  0  0  0  0  0
  -26.8565  -23.1396   21.6656 O   0  0  0  0  0  0  0  0  0  0  0  0
  -25.6101  -10.9312   21.3143 O   0  0  0  0  0  0  0  0  0  0  0  0
  -19.9382  -28.4816   20.4970 O   0  0  0  0  0  0  0  0  0  1  0  0
  -20.8823   -8.0960   21.2006 F   0  0  0  0  0  0  0  0  0  0  0  0
  -24.3518  -10.1771   23.6576 F   0  0  0  0  0  0  0  0  0  0  0  0
  1  2  1  0  0  0  0
  1  7  2  0  0  0  0
  2  8  2  0  0  0  0
  3 12  2  0  0  0  0
  3 19  1  0  0  0  0
  4 13  1  0  0  0  0
  4 19  2  0  0  0  0
  5 10  2  0  0  0  0
  5 20  1  0  0  0  0
  6 11  1  0  0  0  0
  6 20  2  0  0  0  0
  7 22  1  0  0  0  0
  8 24  1  0  0  0  0
  9 14  2  0  0  0  0
  9 23  1  0  0  0  0
 10 26  1  0  0  0  0
 11 26  2  0  0  0  0
 12 27  1  0  0  0  0
 13 27  2  0  0  0  0
 14 28  1  0  0  0  0
 15 16  2  0  0  0  0
 15 29  1  0  0  0  0
 16 30  1  0  0  0  0
 17 25  1  0  0  0  0
 17 28  2  0  0  0  0
 18 30  2  0  0  0  0
 18 31  1  0  0  0  0
 19 32  1  0  0  0  0
 20 34  1  0  0  0  0
 21 32  1  0  0  0  0
 21 33  2  0  0  0  0
 21 35  1  0  0  0  0
 22 24  2  0  0  0  0
 22 41  1  0  0  0  0
 23 25  2  0  0  0  0
 23 42  1  0  0  0  0
 24 50  1  0  0  0  0
 25 43  1  0  0  0  0
 26 67  1  0  0  0  0
 27 79  1  0  0  0  0
 28 80  1  0  0  0  0
 29 31  2  0  0  0  0
 29 79  1  0  0  0  0
 30 81  1  0  0  0  0
 31 82  1  0  0  0  0
 32 61  2  0  0  0  0
 33 62  1  0  0  0  0
 33 65  1  0  0  0  0
 34 68  1  0  0  0  0
 34 73  2  0  0  0  0
 35 66  1  0  0  0  0
 35 74  2  0  0  0  0
 36 51  1  0  0  0  0
 36 69  1  0  0  0  0
 36 75  2  0  0  0  0
 37 58  1  0  0  0  0
 37 63  1  0  0  0  0
 37 76  2  0  0  0  0
 38 59  1  0  0  0  0
 38 70  1  0  0  0  0
 38 77  2  0  0  0  0
 39 64  1  0  0  0  0
 39 67  1  0  0  0  0
 39 78  2  0  0  0  0
 40 68  1  0  0  0  0
 40 71  2  0  0  0  0
 40 80  1  0  0  0  0
 41 44  1  0  0  0  0
 42 51  1  0  0  0  0
 43 63  1  0  0  0  0
 44 46  1  0  0  0  0
 45 47  1  0  0  0  0
 45 48  1  0  0  0  0
 46 50  1  0  0  0  0
 47 52  1  0  0  0  0
 48 64  1  0  0  0  0
 49 52  1  0  0  0  0
 49 64  1  0  0  0  0
 50 69  1  0  0  0  0
 51 63  1  0  0  0  0
 52 62  1  0  0  0  0
 53 59  1  0  0  0  0
 54 60  1  0  0  0  0
 55 60  1  0  0  0  0
 56 60  1  0  0  0  0
 57 72  1  0  0  0  0
 58 60  1  0  0  0  0
 58 70  1  0  0  0  0
 59 72  1  0  0  0  0
 61 62  1  0  0  0  0
M  CHG  2  71   1  72   1
M  ISO  4  39 100  40 101  67 100  80 101
M  END
> <Batch ID>
0080

> <Smiles>
CNC(C)C(=O)NC(C(=O)N1Cc2cc([101O:1][101C:1](N)=NC(=O)c3ccc([100NH:0][100C:0](=O)N4CCCC(n5nc(-c6ccc(Oc7ccc(F)cc7F)cc6)c(C(N)=O)c5N)C4)cc3)ccc2CC1C(=O)NC1CCCc2ccccc21)C(C)(C)C

> <Shape>
0.300

> <Color>
0.083

> <Negative vol penalty>
0.000

$$$$

  -OEChem-04052300023D

 85 93  0     1  0  0  0  0  0999 V2000
  -28.2473  -35.7286   16.6939 C   0  0  0  0  0  0  0  0  0  0  0  0
  -28.5455  -34.4474   17.1469 C   0  0  0  0  0  0  0  0  0  0  0  0
  -23.6063   -9.7731   22.1933 C   0  0  0  0  0  0  0  0  0  0  0  0
  -24.3159  -11.2738   23.9487 C   0  0  0  0  0  0  0  0  0  0  0  0
  -27.6644  -36.6543   17.5583 C   0  0  0  0  0  0  0  0  0  0  0  0
  -28.2619  -34.0916   18.4650 C   0  0  0  0  0  0  0  0  0  0  0  0
  -26.0885  -29.5315   18.8215 C   0  0  0  0  0  0  0  0  0  0  0  0
  -23.0543   -8.9182   23.1473 C   0  0  0  0  0  0  0  0  0  0  0  0
  -23.7639  -10.4190   24.9027 C   0  0  0  0  0  0  0  0  0  0  0  0
  -26.9209  -28.4188   18.7078 C   0  0  0  0  0  0  0  0  0  0  0  0
  -20.2492   -8.7649   25.0291 C   0  0  0  0  0  0  0  0  0  0  0  0
  -18.9754   -8.2534   24.7815 C   0  0  0  0  0  0  0  0  0  0  0  0
  -30.8206  -20.2241   19.7395 C   0  0  0  0  0  0  0  0  0  0  0  0
  -29.0379  -18.5991   19.6042 C   0  0  0  0  0  0  0  0  0  0  0  0
  -26.9343  -28.1910   21.1093 C   0  0  0  0  0  0  0  0  0  0  0  0
  -31.3403  -17.8813   19.4597 C   0  0  0  0  0  0  0  0  0  0  0  0
  -19.8641   -6.0077   24.8491 C   0  0  0  0  0  0  0  0  0  0  0  0
  -24.2371  -10.9509   22.5940 C   0  0  0  0  0  0  0  0  0  0  0  0
  -29.4589  -19.9217   19.7425 C   0  0  0  0  0  0  0  0  0  0  0  0
  -24.1685  -12.9034   20.9537 C   0  0  0  0  0  0  0  0  0  0  0  0
  -27.3647  -36.3065   18.8849 C   0  0  0  0  0  0  0  0  0  0  0  0
  -25.6810  -29.9896   20.0826 C   0  0  0  0  0  0  0  0  0  0  0  0
  -27.6757  -35.0139   19.3483 C   0  0  0  0  0  0  0  0  0  0  0  0
  -26.0947  -29.3082   21.2361 C   0  0  0  0  0  0  0  0  0  0  0  0
  -31.7613  -19.2039   19.5980 C   0  0  0  0  0  0  0  0  0  0  0  0
  -29.9786  -17.5789   19.4628 C   0  0  0  0  0  0  0  0  0  0  0  0
  -23.1331   -9.2411   24.5020 C   0  0  0  0  0  0  0  0  0  0  0  0
  -27.3462  -27.7501   19.8519 C   0  0  0  0  0  0  0  0  0  0  0  0
  -21.3305   -7.8979   25.1866 C   0  0  0  0  0  0  0  0  0  0  0  0
  -18.7829   -6.8748   24.6915 C   0  0  0  0  0  0  0  0  0  0  0  0
  -21.1380   -6.5193   25.0967 C   0  0  0  0  0  0  0  0  0  0  0  0
  -24.8080  -11.8341   21.6090 C   0  0  0  0  0  0  0  0  0  0  0  0
  -25.1312  -13.4217   20.1224 C   0  0  0  0  0  0  0  0  0  0  0  0
  -28.4319  -24.3511   20.1836 C   0  0  0  0  0  0  0  0  0  0  0  0
  -27.7108  -25.4727   20.2408 C   0  0  0  0  0  0  0  0  0  1  0  0
  -28.4545  -21.0114   19.8950 C   0  0  0  0  0  0  0  0  0  0  0  0
  -22.8244  -13.3851   21.0846 C   0  0  0  0  0  0  0  0  0  0  0  0
  -27.8877  -23.0889   20.7462 C   0  0  0  0  0  0  0  0  0  0  0  0
  -26.0721  -32.6829   21.7248 C   0  0  0  0  0  0  0  0  0  0  0  0
  -24.0321  -31.2538   23.8030 C   0  0  0  0  0  0  0  0  0  0  0  0
  -22.6956  -28.3607   25.0237 C   0  0  0  0  0  0  0  0  0  0  0  0
  -30.3529  -15.1047   19.1713 C   0  0  0  0  0  0  0  0  0  0  0  0
  -26.7781  -37.3559   19.7956 C   0  0  0  0  0  0  0  0  0  0  0  0
  -24.7614  -31.1753   20.1870 C   0  0  0  0  0  0  0  0  0  0  0  0
  -25.6690  -29.7476   22.6124 C   0  0  0  0  0  0  0  0  0  0  0  0
  -26.1655  -36.7823   21.0707 C   0  0  0  0  0  0  0  0  0  0  0  0
  -29.6836  -11.6243   18.8314 C   0  0  0  0  0  0  0  0  0  0  0  0
  -27.1091  -35.7661   21.7061 C   0  0  0  0  0  0  0  0  0  0  0  0
  -28.3028  -11.4566   19.4698 C   0  0  0  0  0  0  0  0  0  0  0  0
  -30.5291  -12.6587   19.5722 C   0  0  0  0  0  0  0  0  0  0  0  0
  -28.5069  -13.7987   20.3970 C   0  0  0  0  0  0  0  0  0  0  0  0
  -27.3604  -34.5824   20.7641 C   0  0  1  0  0  0  0  0  0  0  0  0
  -24.8254  -31.8632   21.5471 C   0  0  1  0  0  0  0  0  0  0  0  0
  -27.5951  -12.8143   19.6466 C   0  0  2  0  0  0  0  0  0  0  0  0
  -27.1015  -20.8259   19.2365 C   0  0  0  0  0  0  0  0  0  0  0  0
  -21.0811  -27.5096   26.7461 C   0  0  0  0  0  0  0  0  0  0  0  0
  -26.0973  -31.7682   25.9894 C   0  0  0  0  0  0  0  0  0  0  0  0
  -24.8948  -30.1024   27.4202 C   0  0  0  0  0  0  0  0  0  0  0  0
  -23.7274  -32.1773   26.6757 C   0  0  0  0  0  0  0  0  0  0  0  0
  -20.9627  -27.1341   22.9618 C   0  0  0  0  0  0  0  0  0  0  0  0
  -24.1865  -30.3433   24.9971 C   0  0  1  0  0  0  0  0  0  0  0  0
  -21.2600  -27.9533   25.3025 C   0  0  2  0  0  0  0  0  0  0  0  0
  -24.7363  -31.0904   26.2449 C   0  0  0  0  0  0  0  0  0  0  0  0
  -26.0786  -11.6810   21.2270 N   0  0  0  0  0  0  0  0  0  0  0  0
  -28.7859  -22.0638   20.5833 N   0  0  0  0  0  0  0  0  0  0  0  0
  -26.2453  -12.6609   20.3224 N   0  0  0  0  0  0  0  0  0  0  0  0
  -24.7746  -30.9159   22.6626 N   0  0  0  0  0  0  0  0  0  0  0  0
  -29.7961  -13.9203   19.6983 N   0  0  0  0  0  0  0  0  0  0  0  0
  -33.1382  -19.5094   19.5945 N   0  0  0  0  0  0  0  0  0  0  0  0
  -25.1249  -14.4495   19.2472 N   0  0  0  0  0  0  0  0  0  0  0  0
  -21.9671  -12.7370   21.9842 N   0  0  0  0  0  0  0  0  0  0  0  0
  -29.5507  -16.2355   19.3215 N   0  0  0  0  0  0  0  0  0  0  0  0
  -26.2316  -33.6769   20.7782 N   0  0  0  0  0  0  0  0  0  0  0  0
  -22.8861  -29.7146   25.2020 N   0  0  0  0  0  0  0  0  0  0  0  0
  -20.8586  -26.8280   24.4117 N   0  3  0  0  0  0  0  0  0  0  0  0
  -22.3915  -14.3509   20.4114 O   0  0  0  0  0  0  0  0  0  0  0  0
  -26.7687  -23.0068   21.2390 O   0  0  0  0  0  0  0  0  0  0  0  0
  -26.8322  -32.4331   22.6530 O   0  0  0  0  0  0  0  0  0  0  0  0
  -23.2750  -32.2248   23.8768 O   0  0  0  0  0  0  0  0  0  0  0  0
  -23.5622  -27.5575   24.6855 O   0  0  0  0  0  0  0  0  0  0  0  0
  -31.4477  -15.1101   18.6026 O   0  0  0  0  0  0  0  0  0  0  0  0
  -22.5944   -8.4073   25.4332 O   0  0  0  0  0  0  0  0  0  0  0  0
  -28.1592  -26.6642   19.7437 O   0  0  0  0  0  0  0  0  0  1  0  0
  -17.5593   -6.3836   24.4553 F   0  0  0  0  0  0  0  0  0  0  0  0
  -22.1727   -5.6814   25.2484 F   0  0  0  0  0  0  0  0  0  0  0  0
  1  2  1  0  0  0  0
  1  5  2  0  0  0  0
  2  6  2  0  0  0  0
  3  8  2  0  0  0  0
  3 18  1  0  0  0  0
  4  9  1  0  0  0  0
  4 18  2  0  0  0  0
  5 21  1  0  0  0  0
  6 23  1  0  0  0  0
  7 10  2  0  0  0  0
  7 22  1  0  0  0  0
  8 27  1  0  0  0  0
  9 27  2  0  0  0  0
 10 28  1  0  0  0  0
 11 12  2  0  0  0  0
 11 29  1  0  0  0  0
 12 30  1  0  0  0  0
 13 19  1  0  0  0  0
 13 25  2  0  0  0  0
 14 19  2  0  0  0  0
 14 26  1  0  0  0  0
 15 24  1  0  0  0  0
 15 28  2  0  0  0  0
 16 25  1  0  0  0  0
 16 26  2  0  0  0  0
 17 30  2  0  0  0  0
 17 31  1  0  0  0  0
 18 32  1  0  0  0  0
 19 36  1  0  0  0  0
 20 32  1  0  0  0  0
 20 33  2  0  0  0  0
 20 37  1  0  0  0  0
 21 23  2  0  0  0  0
 21 43  1  0  0  0  0
 22 24  2  0  0  0  0
 22 44  1  0  0  0  0
 23 52  1  0  0  0  0
 24 45  1  0  0  0  0
 25 69  1  0  0  0  0
 26 72  1  0  0  0  0
 27 82  1  0  0  0  0
 28 83  1  0  0  0  0
 29 31  2  0  0  0  0
 29 82  1  0  0  0  0
 30 84  1  0  0  0  0
 31 85  1  0  0  0  0
 32 64  2  0  0  0  0
 33 66  1  0  0  0  0
 33 70  1  0  0  0  0
 34 35  2  0  0  0  0
 34 38  1  0  0  0  0
 35 83  1  0  0  0  0
 36 55  1  0  0  0  0
 36 65  2  0  0  0  0
 37 71  1  0  0  0  0
 37 76  2  0  0  0  0
 38 65  1  0  0  0  0
 38 77  2  0  0  0  0
 39 53  1  0  0  0  0
 39 73  1  0  0  0  0
 39 78  2  0  0  0  0
 40 61  1  0  0  0  0
 40 67  1  0  0  0  0
 40 79  2  0  0  0  0
 41 62  1  0  0  0  0
 41 74  1  0  0  0  0
 41 80  2  0  0  0  0
 42 68  1  0  0  0  0
 42 72  1  0  0  0  0
 42 81  2  0  0  0  0
 43 46  1  0  0  0  0
 44 53  1  0  0  0  0
 45 67  1  0  0  0  0
 46 48  1  0  0  0  0
 47 49  1  0  0  0  0
 47 50  1  0  0  0  0
 48 52  1  0  0  0  0
 49 54  1  0  0  0  0
 50 68  1  0  0  0  0
 51 54  1  0  0  0  0
 51 68  1  0  0  0  0
 52 73  1  0  0  0  0
 53 67  1  0  0  0  0
 54 66  1  0  0  0  0
 56 62  1  0  0  0  0
 57 63  1  0  0  0  0
 58 63  1  0  0  0  0
 59 63  1  0  0  0  0
 60 75  1  0  0  0  0
 61 63  1  0  0  0  0
 61 74  1  0  0  0  0
 62 75  1  0  0  0  0
 64 66  1  0  0  0  0
M  CHG  1  75   1
M  ISO  4  35 101  42 100  72 100  83 101
M  END
> <Batch ID>
0080

> <Smiles>
C=C(NC(=O)C=[101CH:1][101O:1]c1ccc2c(c1)CN(C(=O)C(NC(=O)C(C)NC)C(C)(C)C)C(C(=O)NC1CCCc3ccccc31)C2)c1cc(N)cc([100NH:0][100C:0](=O)N2CCCC(n3nc(-c4ccc(Oc5ccc(F)cc5F)cc4)c(C(N)=O)c3N)C2)c1

> <Shape>
0.274

> <Color>
0.153

> <Negative vol penalty>
0.000

$$$$

  -OEChem-04052300023D

 85 94  0     1  0  0  0  0  0999 V2000
  -25.2709  -19.2699   22.5445 C   0  0  0  0  0  0  0  0  0  0  0  0
  -26.0537  -19.9820   23.4462 C   0  0  0  0  0  0  0  0  0  0  0  0
  -23.0814   -9.8565   19.9481 C   0  0  0  0  0  0  0  0  0  0  0  0
  -23.8341   -9.8807   22.2438 C   0  0  0  0  0  0  0  0  0  0  0  0
  -25.5017  -19.3953   21.1762 C   0  0  0  0  0  0  0  0  0  0  0  0
  -27.0597  -20.8288   22.9796 C   0  0  0  0  0  0  0  0  0  0  0  0
  -29.3431  -23.6355   26.3130 C   0  0  0  0  0  0  0  0  0  0  0  0
  -30.4421  -18.3736   24.0157 C   0  0  0  0  0  0  0  0  0  0  0  0
  -32.6297  -17.5256   23.4390 C   0  0  0  0  0  0  0  0  0  0  0  0
  -29.8591  -17.4821   23.1151 C   0  0  0  0  0  0  0  0  0  0  0  0
  -32.0467  -16.6340   22.5385 C   0  0  0  0  0  0  0  0  0  0  0  0
  -22.3391   -8.7036   20.2036 C   0  0  0  0  0  0  0  0  0  0  0  0
  -23.0917   -8.7278   22.4993 C   0  0  0  0  0  0  0  0  0  0  0  0
  -30.2399  -23.1181   27.2467 C   0  0  0  0  0  0  0  0  0  0  0  0
  -19.8633   -7.9275   23.0972 C   0  0  0  0  0  0  0  0  0  0  0  0
  -19.1028   -7.8940   24.2659 C   0  0  0  0  0  0  0  0  0  0  0  0
  -32.0806  -23.9803   25.9475 C   0  0  0  0  0  0  0  0  0  0  0  0
  -20.3458   -5.9642   25.0195 C   0  0  0  0  0  0  0  0  0  0  0  0
  -23.8290  -10.4451   20.9682 C   0  0  0  0  0  0  0  0  0  0  0  0
  -24.1661  -12.9701   20.8319 C   0  0  0  0  0  0  0  0  0  0  0  0
  -26.5194  -20.2347   20.6939 C   0  0  0  0  0  0  0  0  0  0  0  0
  -29.8095  -24.3209   25.1820 C   0  0  0  0  0  0  0  0  0  0  0  0
  -27.2925  -20.9872   21.6014 C   0  0  0  0  0  0  0  0  0  0  0  0
  -31.1875  -24.5076   25.0022 C   0  0  0  0  0  0  0  0  0  0  0  0
  -31.8274  -18.3954   24.1776 C   0  0  0  0  0  0  0  0  0  0  0  0
  -30.6614  -16.6123   22.3766 C   0  0  0  0  0  0  0  0  0  0  0  0
  -22.3442   -8.1392   21.4792 C   0  0  0  0  0  0  0  0  0  0  0  0
  -31.6090  -23.2880   27.0625 C   0  0  0  0  0  0  0  0  0  0  0  0
  -20.8651   -6.9793   22.8895 C   0  0  0  0  0  0  0  0  0  0  0  0
  -19.3441   -6.9124   25.2271 C   0  0  0  0  0  0  0  0  0  0  0  0
  -21.1063   -5.9977   23.8507 C   0  0  0  0  0  0  0  0  0  0  0  0
  -24.5965  -11.6357   20.7047 C   0  0  0  0  0  0  0  0  0  0  0  0
  -25.2578  -13.7193   20.4670 C   0  0  0  0  0  0  0  0  0  0  0  0
  -33.8403  -20.7091   26.1325 C   0  0  0  0  0  0  0  0  0  0  0  0
  -32.7500  -20.6674   26.9014 C   0  0  0  0  0  0  0  0  0  0  0  0
  -31.7914  -19.7473   26.2449 C   0  0  0  0  0  0  0  0  0  0  0  0
  -22.8932  -13.4861   21.2434 C   0  0  0  0  0  0  0  0  0  0  0  0
  -29.6232  -23.8570   22.0429 C   0  0  0  0  0  0  0  0  0  0  0  0
  -31.0464  -26.7694   21.9212 C   0  0  0  0  0  0  0  0  0  0  0  0
  -32.9817  -29.1153   23.4699 C   0  0  0  0  0  0  0  0  0  0  0  0
  -30.7213  -14.7773   20.6516 C   0  0  0  0  0  0  0  0  0  0  0  0
  -26.7209  -20.3390   19.2027 C   0  0  0  0  0  0  0  0  0  0  0  0
  -28.8281  -24.8961   24.1979 C   0  0  0  0  0  0  0  0  0  0  0  0
  -31.7386  -25.2534   23.8154 C   0  0  0  0  0  0  0  0  0  0  0  0
  -33.7307  -19.8529   24.9239 C   0  0  0  0  0  0  0  0  0  0  0  0
  -28.0845  -20.9086   18.8254 C   0  0  0  0  0  0  0  0  0  0  0  0
  -29.6193  -12.3450   18.2965 C   0  0  0  0  0  0  0  0  0  0  0  0
  -28.3519  -22.1822   19.6134 C   0  0  0  0  0  0  0  0  0  0  0  0
  -28.1789  -12.0534   18.7235 C   0  0  0  0  0  0  0  0  0  0  0  0
  -30.5301  -12.5839   19.4994 C   0  0  0  0  0  0  0  0  0  0  0  0
  -28.6174  -13.3139   20.8697 C   0  0  0  0  0  0  0  0  0  0  0  0
  -28.4124  -21.8909   21.1182 C   0  0  1  0  0  0  0  0  0  0  0  0
  -29.4339  -25.1305   22.8175 C   0  0  1  0  0  0  0  0  0  0  0  0
  -27.6486  -13.1306   19.6900 C   0  0  2  0  0  0  0  0  0  0  0  0
  -33.4893  -21.0379   29.2551 C   0  0  0  0  0  0  0  0  0  0  0  0
  -34.0055  -31.3772   23.1052 C   0  0  0  0  0  0  0  0  0  0  0  0
  -33.1798  -25.5135   20.1377 C   0  0  0  0  0  0  0  0  0  0  0  0
  -34.6292  -27.5047   20.5880 C   0  0  0  0  0  0  0  0  0  0  0  0
  -32.4390  -27.7948   19.4297 C   0  0  0  0  0  0  0  0  0  0  0  0
  -31.4780  -30.2890   25.7327 C   0  0  0  0  0  0  0  0  0  0  0  0
  -32.4617  -21.3726   28.1851 C   0  0  1  0  0  0  0  0  0  1  0  0
  -32.4732  -27.2621   21.9010 C   0  0  1  0  0  0  0  0  0  0  0  0
  -32.8049  -30.6132   23.6415 C   0  0  2  0  0  0  0  0  0  0  0  0
  -33.1703  -27.0030   20.5356 C   0  0  0  0  0  0  0  0  0  0  0  0
  -25.8628  -11.5397   20.2910 N   0  0  0  0  0  0  0  0  0  0  0  0
  -26.2375  -12.8231   20.1551 N   0  0  0  0  0  0  0  0  0  0  0  0
  -32.4083  -19.2836   25.0744 N   0  0  0  0  0  0  0  0  0  0  0  0
  -30.7391  -25.7916   22.8779 N   0  0  0  0  0  0  0  0  0  0  0  0
  -29.9663  -13.6196   20.3679 N   0  0  0  0  0  0  0  0  0  0  0  0
  -25.4658  -15.0506   20.3855 N   0  0  0  0  0  0  0  0  0  0  0  0
  -21.8821  -12.5772   21.5837 N   0  0  0  0  0  0  0  0  0  0  0  0
  -30.0695  -15.7065   21.4617 N   0  0  0  0  0  0  0  0  0  0  0  0
  -28.4574  -23.1433   21.8401 N   0  0  0  0  0  0  0  0  0  0  0  0
  -32.4255  -28.6672   22.2904 N   0  0  0  0  0  0  0  0  0  0  0  0
  -32.6371  -30.9532   25.0828 N   0  3  0  0  0  0  0  0  0  0  0  0
  -30.6845  -19.4778   26.6829 O   0  0  0  0  0  0  0  0  0  0  0  0
  -22.6543  -14.7166   21.2915 O   0  0  0  0  0  0  0  0  0  0  0  0
  -30.7437  -23.5458   21.6565 O   0  0  0  0  0  0  0  0  0  0  0  0
  -30.2327  -27.2402   21.1225 O   0  0  0  0  0  0  0  0  0  0  0  0
  -33.5589  -28.4136   24.2974 O   0  0  0  0  0  0  0  0  0  0  0  0
  -31.8515  -14.9451   20.1864 O   0  0  0  0  0  0  0  0  0  0  0  0
  -21.6198   -7.0143   21.7290 O   0  0  0  0  0  0  0  0  0  0  0  0
  -32.4866  -22.7834   27.9720 O   0  0  0  0  0  0  0  0  0  1  0  0
  -18.6147   -6.8813   26.3501 F   0  0  0  0  0  0  0  0  0  0  0  0
  -22.0681   -5.0848   23.6573 F   0  0  0  0  0  0  0  0  0  0  0  0
  1  2  1  0  0  0  0
  1  5  2  0  0  0  0
  2  6  2  0  0  0  0
  3 12  2  0  0  0  0
  3 19  1  0  0  0  0
  4 13  1  0  0  0  0
  4 19  2  0  0  0  0
  5 21  1  0  0  0  0
  6 23  1  0  0  0  0
  7 14  2  0  0  0  0
  7 22  1  0  0  0  0
  8 10  2  0  0  0  0
  8 25  1  0  0  0  0
  9 11  1  0  0  0  0
  9 25  2  0  0  0  0
 10 26  1  0  0  0  0
 11 26  2  0  0  0  0
 12 27  1  0  0  0  0
 13 27  2  0  0  0  0
 14 28  1  0  0  0  0
 15 16  2  0  0  0  0
 15 29  1  0  0  0  0
 16 30  1  0  0  0  0
 17 24  1  0  0  0  0
 17 28  2  0  0  0  0
 18 30  2  0  0  0  0
 18 31  1  0  0  0  0
 19 32  1  0  0  0  0
 20 32  1  0  0  0  0
 20 33  2  0  0  0  0
 20 37  1  0  0  0  0
 21 23  2  0  0  0  0
 21 42  1  0  0  0  0
 22 24  2  0  0  0  0
 22 43  1  0  0  0  0
 23 52  1  0  0  0  0
 24 44  1  0  0  0  0
 25 67  1  0  0  0  0
 26 72  1  0  0  0  0
 27 82  1  0  0  0  0
 28 83  1  0  0  0  0
 29 31  2  0  0  0  0
 29 82  1  0  0  0  0
 30 84  1  0  0  0  0
 31 85  1  0  0  0  0
 32 65  2  0  0  0  0
 33 66  1  0  0  0  0
 33 70  1  0  0  0  0
 34 35  2  0  0  0  0
 34 45  1  0  0  0  0
 35 36  1  0  0  0  0
 35 61  1  0  0  0  0
 36 67  1  0  0  0  0
 36 76  2  0  0  0  0
 37 71  1  0  0  0  0
 37 77  2  0  0  0  0
 38 53  1  0  0  0  0
 38 73  1  0  0  0  0
 38 78  2  0  0  0  0
 39 62  1  0  0  0  0
 39 68  1  0  0  0  0
 39 79  2  0  0  0  0
 40 63  1  0  0  0  0
 40 74  1  0  0  0  0
 40 80  2  0  0  0  0
 41 69  1  0  0  0  0
 41 72  1  0  0  0  0
 41 81  2  0  0  0  0
 42 46  1  0  0  0  0
 43 53  1  0  0  0  0
 44 68  1  0  0  0  0
 45 67  1  0  0  0  0
 46 48  1  0  0  0  0
 47 49  1  0  0  0  0
 47 50  1  0  0  0  0
 48 52  1  0  0  0  0
 49 54  1  0  0  0  0
 50 69  1  0  0  0  0
 51 54  1  0  0  0  0
 51 69  1  0  0  0  0
 52 73  1  0  0  0  0
 53 68  1  0  0  0  0
 54 66  1  0  0  0  0
 55 61  1  0  0  0  0
 56 63  1  0  0  0  0
 57 64  1  0  0  0  0
 58 64  1  0  0  0  0
 59 64  1  0  0  0  0
 60 75  1  0  0  0  0
 61 83  1  0  0  0  0
 62 64  1  0  0  0  0
 62 74  1  0  0  0  0
 63 75  1  0  0  0  0
 65 66  1  0  0  0  0
M  CHG  1  75   1
M  ISO  4  41 100  61 101  72 100  83 101
M  END
> <Batch ID>
0080

> <Smiles>
CNC(C)C(=O)NC(C(=O)N1Cc2cc([101O:1][101CH:1](C)C3=CCN(c4ccc([100NH:0][100C:0](=O)N5CCCC(n6nc(-c7ccc(Oc8ccc(F)cc8F)cc7)c(C(N)=O)c6N)C5)cc4)C3=O)ccc2CC1C(=O)NC1CCCc2ccccc21)C(C)(C)C

> <Shape>
0.212

> <Color>
0.192

> <Negative vol penalty>
0.000

$$$$

  -OEChem-04052300023D

 84 92  0     1  0  0  0  0  0999 V2000
  -30.3784  -32.4532   25.2926 C   0  0  0  0  0  0  0  0  0  0  0  0
  -29.9303  -31.2715   24.7112 C   0  0  0  0  0  0  0  0  0  0  0  0
  -25.0945   -7.9172   21.3830 C   0  0  0  0  0  0  0  0  0  0  0  0
  -23.9155  -10.0246   21.4587 C   0  0  0  0  0  0  0  0  0  0  0  0
  -27.6068  -18.3929   21.0654 C   0  0  0  0  0  0  0  0  0  0  0  0
  -29.9302  -18.4617   21.7244 C   0  0  0  0  0  0  0  0  0  0  0  0
  -29.4593  -33.3776   25.7873 C   0  0  0  0  0  0  0  0  0  0  0  0
  -28.5627  -31.0129   24.6251 C   0  0  0  0  0  0  0  0  0  0  0  0
  -27.2048  -29.2304   20.0838 C   0  0  0  0  0  0  0  0  0  0  0  0
  -27.7940  -17.1151   20.5385 C   0  0  0  0  0  0  0  0  0  0  0  0
  -30.1174  -17.1838   21.1976 C   0  0  0  0  0  0  0  0  0  0  0  0
  -24.2602   -7.4145   22.3815 C   0  0  0  0  0  0  0  0  0  0  0  0
  -23.0811   -9.5219   22.4571 C   0  0  0  0  0  0  0  0  0  0  0  0
  -27.4680  -27.8864   19.8226 C   0  0  0  0  0  0  0  0  0  0  0  0
  -22.2092   -5.4561   24.6558 C   0  0  0  0  0  0  0  0  0  0  0  0
  -21.6936   -4.1714   24.4843 C   0  0  0  0  0  0  0  0  0  0  0  0
  -25.1680  -27.3473   20.3111 C   0  0  0  0  0  0  0  0  0  0  0  0
  -20.6112   -4.8785   22.4433 C   0  0  0  0  0  0  0  0  0  0  0  0
  -24.9222   -9.2222   20.9217 C   0  0  0  0  0  0  0  0  0  0  0  0
  -28.6749  -19.0662   21.6583 C   0  0  0  0  0  0  0  0  0  0  0  0
  -25.5798   -9.6780   18.4994 C   0  0  0  0  0  0  0  0  0  0  0  0
  -28.0795  -33.1347   25.6985 C   0  0  0  0  0  0  0  0  0  0  0  0
  -25.9217  -29.6421   20.4718 C   0  0  0  0  0  0  0  0  0  0  0  0
  -27.6244  -31.9344   25.1202 C   0  0  0  0  0  0  0  0  0  0  0  0
  -24.8905  -28.6975   20.5741 C   0  0  0  0  0  0  0  0  0  0  0  0
  -29.0493  -16.5105   20.6046 C   0  0  0  0  0  0  0  0  0  0  0  0
  -23.2535   -8.2169   22.9185 C   0  0  0  0  0  0  0  0  0  0  0  0
  -26.4502  -26.9442   19.9390 C   0  0  0  0  0  0  0  0  0  0  0  0
  -21.9257   -6.4520   23.7212 C   0  0  0  0  0  0  0  0  0  0  0  0
  -20.8947   -3.8826   23.3780 C   0  0  0  0  0  0  0  0  0  0  0  0
  -21.1268   -6.1631   22.6149 C   0  0  0  0  0  0  0  0  0  0  0  0
  -25.7842   -9.7422   19.8908 C   0  0  0  0  0  0  0  0  0  0  0  0
  -26.6742  -10.3106   17.9621 C   0  0  0  0  0  0  0  0  0  0  0  0
  -27.3873  -23.5450   20.5792 C   0  0  0  0  0  0  0  0  0  0  0  0
  -27.1130  -24.8430   20.7240 C   0  0  0  0  0  0  0  0  0  1  0  0
  -28.4768  -20.4198   22.2163 C   0  0  0  0  0  0  0  0  0  0  0  0
  -24.4974   -9.0986   17.7589 C   0  0  0  0  0  0  0  0  0  0  0  0
  -27.8240  -22.7646   21.7537 C   0  0  0  0  0  0  0  0  0  0  0  0
  -24.6963  -31.0261   23.0576 C   0  0  0  0  0  0  0  0  0  0  0  0
  -21.9971  -31.1029   21.2602 C   0  0  0  0  0  0  0  0  0  0  0  0
  -20.2017  -29.7901   18.6718 C   0  0  0  0  0  0  0  0  0  0  0  0
  -30.4200  -14.4700   20.0531 C   0  0  0  0  0  0  0  0  0  0  0  0
  -27.1255  -34.1421   26.2899 C   0  0  0  0  0  0  0  0  0  0  0  0
  -25.6475  -31.0993   20.7240 C   0  0  0  0  0  0  0  0  0  0  0  0
  -23.4909  -29.0908   20.9677 C   0  0  0  0  0  0  0  0  0  0  0  0
  -25.6835  -33.9630   25.8221 C   0  0  0  0  0  0  0  0  0  0  0  0
  -31.2871  -11.2277   18.8646 C   0  0  0  0  0  0  0  0  0  0  0  0
  -25.2748  -32.4955   25.9016 C   0  0  0  0  0  0  0  0  0  0  0  0
  -29.9547  -10.4748   18.8605 C   0  0  0  0  0  0  0  0  0  0  0  0
  -31.3944  -12.1841   20.0510 C   0  0  0  0  0  0  0  0  0  0  0  0
  -28.9418  -12.3697   20.1910 C   0  0  0  0  0  0  0  0  0  0  0  0
  -26.1482  -31.6292   24.9861 C   0  0  1  0  0  0  0  0  0  0  0  0
  -24.4288  -31.3332   21.6113 C   0  0  1  0  0  0  0  0  0  0  0  0
  -28.7605  -11.4420   18.9785 C   0  0  2  0  0  0  0  0  0  0  0  0
  -18.0145  -30.0369   17.4664 C   0  0  0  0  0  0  0  0  0  0  0  0
  -20.5704  -29.7070   23.5680 C   0  0  0  0  0  0  0  0  0  0  0  0
  -18.7157  -29.1378   21.9854 C   0  0  0  0  0  0  0  0  0  0  0  0
  -19.2491  -31.5256   22.4720 C   0  0  0  0  0  0  0  0  0  0  0  0
  -21.5497  -30.4337   16.1169 C   0  0  0  0  0  0  0  0  0  0  0  0
  -20.8315  -30.1688   21.0412 C   0  0  1  0  0  0  0  0  0  0  0  0
  -19.4777  -30.4491   17.5116 C   0  0  2  0  0  0  0  0  0  0  0  0
  -19.8684  -30.1268   22.2611 C   0  0  0  0  0  0  0  0  0  0  0  0
  -26.9192  -10.3661   20.2170 N   0  0  0  0  0  0  0  0  0  0  0  0
  -27.4380  -10.6997   19.0229 N   0  0  0  0  0  0  0  0  0  0  0  0
  -23.2743  -30.5267   21.2100 N   0  0  0  0  0  0  0  0  0  0  0  0
  -30.2310  -13.0725   20.0964 N   0  0  0  0  0  0  0  0  0  0  0  0
  -27.0481  -10.5662   16.6903 N   0  0  0  0  0  0  0  0  0  0  0  0
  -23.4538   -8.4884   18.4680 N   0  0  0  0  0  0  0  0  0  0  0  0
  -29.2396  -15.2123   20.0694 N   0  0  0  0  0  0  0  0  0  0  0  0
  -28.0683  -21.3919   21.3880 N   0  0  0  0  0  0  0  0  0  0  0  0
  -25.7260  -31.7648   23.6085 N   0  0  0  0  0  0  0  0  0  0  0  0
  -20.1998  -30.5894   19.7953 N   0  0  0  0  0  0  0  0  0  0  0  0
  -28.7190  -20.5966   23.5149 N   0  3  0  0  0  0  0  0  0  0  0  0
  -20.1139  -30.0664   16.2194 N   0  3  0  0  0  0  0  0  0  0  0  0
  -24.4650   -9.1067   16.5049 O   0  0  0  0  0  0  0  0  0  0  0  0
  -27.9703  -23.1867   22.8885 O   0  0  0  0  0  0  0  0  0  0  0  0
  -24.0176  -30.1826   23.6317 O   0  0  0  0  0  0  0  0  0  0  0  0
  -21.7825  -32.3009   21.4610 O   0  0  0  0  0  0  0  0  0  0  0  0
  -20.7141  -28.6759   18.5907 O   0  0  0  0  0  0  0  0  0  0  0  0
  -31.5450  -14.9707   19.9775 O   0  0  0  0  0  0  0  0  0  0  0  0
  -22.4390   -7.7267   23.8925 O   0  0  0  0  0  0  0  0  0  0  0  0
  -26.7046  -25.6317   19.6853 O   0  0  0  0  0  0  0  0  0  1  0  0
  -20.4009   -2.6485   23.2125 F   0  0  0  0  0  0  0  0  0  0  0  0
  -20.8520   -7.1154   21.7130 F   0  0  0  0  0  0  0  0  0  0  0  0
  1  2  1  0  0  0  0
  1  7  2  0  0  0  0
  2  8  2  0  0  0  0
  3 12  2  0  0  0  0
  3 19  1  0  0  0  0
  4 13  1  0  0  0  0
  4 19  2  0  0  0  0
  5 10  2  0  0  0  0
  5 20  1  0  0  0  0
  6 11  1  0  0  0  0
  6 20  2  0  0  0  0
  7 22  1  0  0  0  0
  8 24  1  0  0  0  0
  9 14  2  0  0  0  0
  9 23  1  0  0  0  0
 10 26  1  0  0  0  0
 11 26  2  0  0  0  0
 12 27  1  0  0  0  0
 13 27  2  0  0  0  0
 14 28  1  0  0  0  0
 15 16  2  0  0  0  0
 15 29  1  0  0  0  0
 16 30  1  0  0  0  0
 17 25  1  0  0  0  0
 17 28  2  0  0  0  0
 18 30  2  0  0  0  0
 18 31  1  0  0  0  0
 19 32  1  0  0  0  0
 20 36  1  0  0  0  0
 21 32  1  0  0  0  0
 21 33  2  0  0  0  0
 21 37  1  0  0  0  0
 22 24  2  0  0  0  0
 22 43  1  0  0  0  0
 23 25  2  0  0  0  0
 23 44  1  0  0  0  0
 24 52  1  0  0  0  0
 25 45  1  0  0  0  0
 26 69  1  0  0  0  0
 27 81  1  0  0  0  0
 28 82  1  0  0  0  0
 29 31  2  0  0  0  0
 29 81  1  0  0  0  0
 30 83  1  0  0  0  0
 31 84  1  0  0  0  0
 32 63  2  0  0  0  0
 33 64  1  0  0  0  0
 33 67  1  0  0  0  0
 34 35  2  0  0  0  0
 34 38  1  0  0  0  0
 35 82  1  0  0  0  0
 36 70  1  0  0  0  0
 36 73  2  0  0  0  0
 37 68  1  0  0  0  0
 37 75  2  0  0  0  0
 38 70  1  0  0  0  0
 38 76  2  0  0  0  0
 39 53  1  0  0  0  0
 39 71  1  0  0  0  0
 39 77  2  0  0  0  0
 40 60  1  0  0  0  0
 40 65  1  0  0  0  0
 40 78  2  0  0  0  0
 41 61  1  0  0  0  0
 41 72  1  0  0  0  0
 41 79  2  0  0  0  0
 42 66  1  0  0  0  0
 42 69  1  0  0  0  0
 42 80  2  0  0  0  0
 43 46  1  0  0  0  0
 44 53  1  0  0  0  0
 45 65  1  0  0  0  0
 46 48  1  0  0  0  0
 47 49  1  0  0  0  0
 47 50  1  0  0  0  0
 48 52  1  0  0  0  0
 49 54  1  0  0  0  0
 50 66  1  0  0  0  0
 51 54  1  0  0  0  0
 51 66  1  0  0  0  0
 52 71  1  0  0  0  0
 53 65  1  0  0  0  0
 54 64  1  0  0  0  0
 55 61  1  0  0  0  0
 56 62  1  0  0  0  0
 57 62  1  0  0  0  0
 58 62  1  0  0  0  0
 59 74  1  0  0  0  0
 60 62  1  0  0  0  0
 60 72  1  0  0  0  0
 61 74  1  0  0  0  0
 63 64  1  0  0  0  0
M  CHG  2  73   1  74   1
M  ISO  4  35 101  42 100  69 100  82 101
M  END
> <Batch ID>
0080

> <Smiles>
CNC(C)C(=O)NC(C(=O)N1Cc2cc([101O:1][101CH:1]=CC(=O)NC(=N)c3ccc([100NH:0][100C:0](=O)N4CCCC(n5nc(-c6ccc(Oc7ccc(F)cc7F)cc6)c(C(N)=O)c5N)C4)cc3)ccc2CC1C(=O)NC1CCCc2ccccc21)C(C)(C)C

> <Shape>
0.295

> <Color>
0.081

> <Negative vol penalty>
0.000

$$$$

  -OEChem-04052300023D

 83 91  0     1  0  0  0  0  0999 V2000
  -21.3412  -30.5680   14.4984 C   0  0  0  0  0  0  0  0  0  0  0  0
  -22.5384  -30.0804   15.0125 C   0  0  0  0  0  0  0  0  0  0  0  0
  -23.9636   -9.6631   21.9471 C   0  0  0  0  0  0  0  0  0  0  0  0
  -24.6499  -11.0908   23.7714 C   0  0  0  0  0  0  0  0  0  0  0  0
  -31.0768  -19.9703   19.6383 C   0  0  0  0  0  0  0  0  0  0  0  0
  -28.7348  -20.4620   19.9702 C   0  0  0  0  0  0  0  0  0  0  0  0
  -20.7960  -31.7476   15.0035 C   0  0  0  0  0  0  0  0  0  0  0  0
  -23.1918  -30.7729   16.0314 C   0  0  0  0  0  0  0  0  0  0  0  0
  -24.8367  -27.7126   19.7156 C   0  0  0  0  0  0  0  0  0  0  0  0
  -30.7643  -18.6285   19.4205 C   0  0  0  0  0  0  0  0  0  0  0  0
  -28.4222  -19.1202   19.7523 C   0  0  0  0  0  0  0  0  0  0  0  0
  -23.5513   -8.6935   22.8611 C   0  0  0  0  0  0  0  0  0  0  0  0
  -24.2376  -10.1211   24.6854 C   0  0  0  0  0  0  0  0  0  0  0  0
  -26.0028  -26.9893   19.4693 C   0  0  0  0  0  0  0  0  0  0  0  0
  -20.8972   -8.1443   24.8827 C   0  0  0  0  0  0  0  0  0  0  0  0
  -19.6600   -7.5366   24.6692 C   0  0  0  0  0  0  0  0  0  0  0  0
  -27.2642  -28.5985   20.7493 C   0  0  0  0  0  0  0  0  0  0  0  0
  -20.7450   -5.3839   24.5091 C   0  0  0  0  0  0  0  0  0  0  0  0
  -24.5129  -10.8618   22.4023 C   0  0  0  0  0  0  0  0  0  0  0  0
  -30.0621  -20.8870   19.9132 C   0  0  0  0  0  0  0  0  0  0  0  0
  -24.1678  -12.9142   20.9271 C   0  0  0  0  0  0  0  0  0  0  0  0
  -21.4380  -32.4498   16.0356 C   0  0  0  0  0  0  0  0  0  0  0  0
  -24.8773  -28.8922   20.4728 C   0  0  0  0  0  0  0  0  0  0  0  0
  -22.6553  -31.9638   16.5498 C   0  0  0  0  0  0  0  0  0  0  0  0
  -26.0967  -29.3336   21.0060 C   0  0  0  0  0  0  0  0  0  0  0  0
  -29.4370  -18.2034   19.4775 C   0  0  0  0  0  0  0  0  0  0  0  0
  -23.6883   -8.9224   24.2302 C   0  0  0  0  0  0  0  0  0  0  0  0
  -27.2173  -27.4337   19.9838 C   0  0  0  0  0  0  0  0  0  0  0  0
  -22.0584   -7.3718   24.9094 C   0  0  0  0  0  0  0  0  0  0  0  0
  -19.5839   -6.1564   24.4824 C   0  0  0  0  0  0  0  0  0  0  0  0
  -21.9823   -5.9916   24.7226 C   0  0  0  0  0  0  0  0  0  0  0  0
  -24.9395  -11.8637   21.4587 C   0  0  0  0  0  0  0  0  0  0  0  0
  -25.0259  -13.5787   20.0854 C   0  0  0  0  0  0  0  0  0  0  0  0
  -30.3949  -22.3157   20.1453 C   0  0  0  0  0  0  0  0  0  0  0  0
  -22.7978  -13.2587   21.1724 C   0  0  0  0  0  0  0  0  0  0  0  0
  -24.2009  -31.9459   19.9060 C   0  0  0  0  0  0  0  0  0  0  0  0
  -24.7706  -32.2578   23.0841 C   0  0  0  0  0  0  0  0  0  0  0  0
  -29.4908  -24.6091   20.0106 C   0  0  0  0  0  0  0  0  0  0  0  0
  -26.3007  -31.0504   25.8854 C   0  0  0  0  0  0  0  0  0  0  0  0
  -30.0076  -15.8024   18.9715 C   0  0  0  0  0  0  0  0  0  0  0  0
  -20.8346  -33.7456   16.5167 C   0  0  0  0  0  0  0  0  0  0  0  0
  -23.6063  -29.6466   20.7519 C   0  0  0  0  0  0  0  0  0  0  0  0
  -26.1908  -30.5828   21.8421 C   0  0  0  0  0  0  0  0  0  0  0  0
  -21.3970  -34.2198   17.8543 C   0  0  0  0  0  0  0  0  0  0  0  0
  -29.6262  -12.3092   18.3980 C   0  0  0  0  0  0  0  0  0  0  0  0
  -22.9194  -34.1239   17.8575 C   0  0  0  0  0  0  0  0  0  0  0  0
  -28.3094  -11.9683   19.0994 C   0  0  0  0  0  0  0  0  0  0  0  0
  -30.4235  -13.3604   19.1681 C   0  0  0  0  0  0  0  0  0  0  0  0
  -28.3661  -14.2452   20.1946 C   0  0  0  0  0  0  0  0  0  0  0  0
  -23.3811  -32.6734   17.6722 C   0  0  1  0  0  0  0  0  0  0  0  0
  -23.8460  -31.1115   21.1041 C   0  0  1  0  0  0  0  0  0  0  0  0
  -27.4980  -13.2381   19.4227 C   0  0  2  0  0  0  0  0  0  0  0  0
  -26.6127  -31.5414   28.3265 C   0  0  0  0  0  0  0  0  0  0  0  0
  -26.7601  -34.4626   22.3838 C   0  0  0  0  0  0  0  0  0  0  0  0
  -27.7055  -34.2467   24.6920 C   0  0  0  0  0  0  0  0  0  0  0  0
  -25.3306  -34.9426   24.3789 C   0  0  0  0  0  0  0  0  0  0  0  0
  -25.0226  -28.5021   26.6802 C   0  0  0  0  0  0  0  0  0  0  0  0
  -28.2260  -25.3190   19.5757 C   0  0  0  0  0  0  0  0  0  1  0  0
  -25.9887  -32.5434   23.9289 C   0  0  1  0  0  0  0  0  0  0  0  0
  -25.7806  -30.8026   27.2899 C   0  0  2  0  0  0  0  0  0  0  0  0
  -26.4451  -34.0263   23.8286 C   0  0  0  0  0  0  0  0  0  0  0  0
  -26.1916  -11.8570   20.9935 N   0  0  0  0  0  0  0  0  0  0  0  0
  -26.2131  -12.9116   20.1607 N   0  0  0  0  0  0  0  0  0  0  0  0
  -24.9215  -31.2891   22.0818 N   0  0  0  0  0  0  0  0  0  0  0  0
  -29.5921  -14.5362   19.4349 N   0  0  0  0  0  0  0  0  0  0  0  0
  -24.8732  -14.6628   19.2954 N   0  0  0  0  0  0  0  0  0  0  0  0
  -22.0603  -12.4701   22.0660 N   0  0  0  0  0  0  0  0  0  0  0  0
  -29.1206  -16.8401   19.2559 N   0  0  0  0  0  0  0  0  0  0  0  0
  -29.3878  -23.2282   19.8356 N   0  0  0  0  0  0  0  0  0  0  0  0
  -23.2427  -31.9368   18.9103 N   0  0  0  0  0  0  0  0  0  0  0  0
  -25.6575  -32.1104   25.2821 N   0  0  0  0  0  0  0  0  0  0  0  0
  -25.8188  -29.3470   27.6072 N   0  3  0  0  0  0  0  0  0  0  0  0
  -31.4945  -22.6058   20.6087 O   0  0  0  0  0  0  0  0  0  0  0  0
  -22.2394  -14.2270   20.6031 O   0  0  0  0  0  0  0  0  0  0  0  0
  -25.2645  -32.5541   19.8869 O   0  0  0  0  0  0  0  0  0  0  0  0
  -23.7217  -32.8666   23.3099 O   0  0  0  0  0  0  0  0  0  0  0  0
  -30.4679  -25.2051   20.4553 O   0  0  0  0  0  0  0  0  0  0  0  0
  -27.1913  -30.3738   25.3759 O   0  0  0  0  0  0  0  0  0  0  0  0
  -31.0589  -15.9506   18.3431 O   0  0  0  0  0  0  0  0  0  0  0  0
  -23.2858   -7.9765   25.1223 O   0  0  0  0  0  0  0  0  0  0  0  0
  -28.3571  -26.7300   19.7443 O   0  0  0  0  0  0  0  0  0  1  0  0
  -18.3956   -5.5728   24.2788 F   0  0  0  0  0  0  0  0  0  0  0  0
  -23.0942   -5.2441   24.7483 F   0  0  0  0  0  0  0  0  0  0  0  0
  1  2  1  0  0  0  0
  1  7  2  0  0  0  0
  2  8  2  0  0  0  0
  3 12  2  0  0  0  0
  3 19  1  0  0  0  0
  4 13  1  0  0  0  0
  4 19  2  0  0  0  0
  5 10  2  0  0  0  0
  5 20  1  0  0  0  0
  6 11  1  0  0  0  0
  6 20  2  0  0  0  0
  7 22  1  0  0  0  0
  8 24  1  0  0  0  0
  9 14  2  0  0  0  0
  9 23  1  0  0  0  0
 10 26  1  0  0  0  0
 11 26  2  0  0  0  0
 12 27  1  0  0  0  0
 13 27  2  0  0  0  0
 14 28  1  0  0  0  0
 15 16  2  0  0  0  0
 15 29  1  0  0  0  0
 16 30  1  0  0  0  0
 17 25  1  0  0  0  0
 17 28  2  0  0  0  0
 18 30  2  0  0  0  0
 18 31  1  0  0  0  0
 19 32  1  0  0  0  0
 20 34  1  0  0  0  0
 21 32  1  0  0  0  0
 21 33  2  0  0  0  0
 21 35  1  0  0  0  0
 22 24  2  0  0  0  0
 22 41  1  0  0  0  0
 23 25  2  0  0  0  0
 23 42  1  0  0  0  0
 24 50  1  0  0  0  0
 25 43  1  0  0  0  0
 26 68  1  0  0  0  0
 27 80  1  0  0  0  0
 28 81  1  0  0  0  0
 29 31  2  0  0  0  0
 29 80  1  0  0  0  0
 30 82  1  0  0  0  0
 31 83  1  0  0  0  0
 32 62  2  0  0  0  0
 33 63  1  0  0  0  0
 33 66  1  0  0  0  0
 34 69  1  0  0  0  0
 34 73  2  0  0  0  0
 35 67  1  0  0  0  0
 35 74  2  0  0  0  0
 36 51  1  0  0  0  0
 36 70  1  0  0  0  0
 36 75  2  0  0  0  0
 37 59  1  0  0  0  0
 37 64  1  0  0  0  0
 37 76  2  0  0  0  0
 38 58  1  0  0  0  0
 38 69  1  0  0  0  0
 38 77  2  0  0  0  0
 39 60  1  0  0  0  0
 39 71  1  0  0  0  0
 39 78  2  0  0  0  0
 40 65  1  0  0  0  0
 40 68  1  0  0  0  0
 40 79  2  0  0  0  0
 41 44  1  0  0  0  0
 42 51  1  0  0  0  0
 43 64  1  0  0  0  0
 44 46  1  0  0  0  0
 45 47  1  0  0  0  0
 45 48  1  0  0  0  0
 46 50  1  0  0  0  0
 47 52  1  0  0  0  0
 48 65  1  0  0  0  0
 49 52  1  0  0  0  0
 49 65  1  0  0  0  0
 50 70  1  0  0  0  0
 51 64  1  0  0  0  0
 52 63  1  0  0  0  0
 53 60  1  0  0  0  0
 54 61  1  0  0  0  0
 55 61  1  0  0  0  0
 56 61  1  0  0  0  0
 57 72  1  0  0  0  0
 58 81  1  0  0  0  0
 59 61  1  0  0  0  0
 59 71  1  0  0  0  0
 60 72  1  0  0  0  0
 62 63  1  0  0  0  0
M  CHG  1  72   1
M  ISO  4  40 100  58 101  68 100  81 101
M  END
> <Batch ID>
0080

> <Smiles>
CNC(C)C(=O)NC(C(=O)N1Cc2cc([101O:1][101CH2:1]C(=O)NC(=O)c3ccc([100NH:0][100C:0](=O)N4CCCC(n5nc(-c6ccc(Oc7ccc(F)cc7F)cc6)c(C(N)=O)c5N)C4)cc3)ccc2CC1C(=O)NC1CCCc2ccccc21)C(C)(C)C

> <Shape>
0.330

> <Color>
0.168

> <Negative vol penalty>
0.000

$$$$

  -OEChem-04052300023D

 84 93  0     1  0  0  0  0  0999 V2000
  -27.3760  -37.7449   23.8602 C   0  0  0  0  0  0  0  0  0  0  0  0
  -27.9646  -36.8012   23.0246 C   0  0  0  0  0  0  0  0  0  0  0  0
  -24.1838   -9.2870   22.1900 C   0  0  0  0  0  0  0  0  0  0  0  0
  -22.9184  -11.2676   21.6306 C   0  0  0  0  0  0  0  0  0  0  0  0
  -26.4881  -37.3366   24.8546 C   0  0  0  0  0  0  0  0  0  0  0  0
  -27.6666  -35.4483   23.1837 C   0  0  0  0  0  0  0  0  0  0  0  0
  -26.9147  -29.4144   19.3965 C   0  0  0  0  0  0  0  0  0  0  0  0
  -28.5675  -19.7717   19.8358 C   0  0  0  0  0  0  0  0  0  0  0  0
  -28.8333  -18.4103   19.6890 C   0  0  0  0  0  0  0  0  0  0  0  0
  -23.3139   -9.0306   23.2498 C   0  0  0  0  0  0  0  0  0  0  0  0
  -22.0485  -11.0112   22.6904 C   0  0  0  0  0  0  0  0  0  0  0  0
  -27.3679  -28.0962   19.3695 C   0  0  0  0  0  0  0  0  0  0  0  0
  -20.2247   -7.7239   23.6765 C   0  0  0  0  0  0  0  0  0  0  0  0
  -19.7694   -6.4156   23.8394 C   0  0  0  0  0  0  0  0  0  0  0  0
  -25.7587  -27.5146   21.0700 C   0  0  0  0  0  0  0  0  0  0  0  0
  -26.2900  -19.4044   19.1180 C   0  0  0  0  0  0  0  0  0  0  0  0
  -20.7574   -6.3460   26.0430 C   0  0  0  0  0  0  0  0  0  0  0  0
  -23.9860  -10.4056   21.3804 C   0  0  0  0  0  0  0  0  0  0  0  0
  -24.7639  -10.2195   18.9581 C   0  0  0  0  0  0  0  0  0  0  0  0
  -26.1716  -35.9789   25.0197 C   0  0  0  0  0  0  0  0  0  0  0  0
  -25.8859  -29.7956   20.2697 C   0  0  0  0  0  0  0  0  0  0  0  0
  -26.7747  -35.0213   24.1821 C   0  0  0  0  0  0  0  0  0  0  0  0
  -25.2926  -28.8377   21.1043 C   0  0  0  0  0  0  0  0  0  0  0  0
  -27.2958  -20.2688   19.5503 C   0  0  0  0  0  0  0  0  0  0  0  0
  -27.8275  -17.5460   19.2567 C   0  0  0  0  0  0  0  0  0  0  0  0
  -22.2463   -9.8926   23.5000 C   0  0  0  0  0  0  0  0  0  0  0  0
  -26.7918  -27.1467   20.2083 C   0  0  0  0  0  0  0  0  0  0  0  0
  -20.9465   -8.3433   24.6969 C   0  0  0  0  0  0  0  0  0  0  0  0
  -20.0357   -5.7266   25.0226 C   0  0  0  0  0  0  0  0  0  0  0  0
  -26.5558  -18.0430   18.9712 C   0  0  0  0  0  0  0  0  0  0  0  0
  -21.2128   -7.6544   25.8801 C   0  0  0  0  0  0  0  0  0  0  0  0
  -24.8846  -10.6713   20.2859 C   0  0  0  0  0  0  0  0  0  0  0  0
  -25.8612  -10.7405   18.3170 C   0  0  0  0  0  0  0  0  0  0  0  0
  -26.6615  -23.5741   19.8055 C   0  0  0  0  0  0  0  0  0  0  0  0
  -25.9167  -22.3537   19.4937 C   0  0  0  0  0  0  0  0  0  0  0  0
  -26.3377  -24.8788   19.8603 C   0  0  0  0  0  0  0  0  0  1  0  0
  -23.7505   -9.4020   18.3578 C   0  0  0  0  0  0  0  0  0  0  0  0
  -25.6448  -31.8311   22.6991 C   0  0  0  0  0  0  0  0  0  0  0  0
  -22.5079  -31.0167   22.5622 C   0  0  0  0  0  0  0  0  0  0  0  0
  -20.1455  -28.7306   21.6459 C   0  0  0  0  0  0  0  0  0  0  0  0
  -29.3089  -15.5105   19.3492 C   0  0  0  0  0  0  0  0  0  0  0  0
  -25.2427  -35.5810   26.1393 C   0  0  0  0  0  0  0  0  0  0  0  0
  -25.3902  -31.2158   20.2676 C   0  0  0  0  0  0  0  0  0  0  0  0
  -24.1713  -29.1915   22.0455 C   0  0  0  0  0  0  0  0  0  0  0  0
  -27.8975  -22.7317   20.0228 C   0  0  0  0  0  0  0  0  0  0  0  0
  -24.6918  -34.1643   25.9992 C   0  0  0  0  0  0  0  0  0  0  0  0
  -30.3733  -12.1194   19.1378 C   0  0  0  0  0  0  0  0  0  0  0  0
  -25.8111  -33.1882   25.6509 C   0  0  0  0  0  0  0  0  0  0  0  0
  -29.0748  -11.3223   19.2813 C   0  0  0  0  0  0  0  0  0  0  0  0
  -30.3731  -13.3672   20.0192 C   0  0  0  0  0  0  0  0  0  0  0  0
  -27.9110  -13.4497   19.9930 C   0  0  0  0  0  0  0  0  0  0  0  0
  -26.4576  -33.5469   24.3074 C   0  0  1  0  0  0  0  0  0  0  0  0
  -24.6866  -31.6050   21.5640 C   0  0  1  0  0  0  0  0  0  0  0  0
  -27.8378  -12.2183   19.0754 C   0  0  2  0  0  0  0  0  0  0  0  0
  -17.6691  -28.3279   21.6984 C   0  0  0  0  0  0  0  0  0  0  0  0
  -22.6841  -30.3354   25.5312 C   0  0  0  0  0  0  0  0  0  0  0  0
  -20.5322  -29.0770   25.2988 C   0  0  0  0  0  0  0  0  0  0  0  0
  -20.5935  -31.5314   24.8576 C   0  0  0  0  0  0  0  0  0  0  0  0
  -19.9842  -28.6165   18.6929 C   0  0  0  0  0  0  0  0  0  0  0  0
  -21.6525  -29.9466   23.1965 C   0  0  1  0  0  0  0  0  0  0  0  0
  -18.8351  -28.8822   20.8946 C   0  0  2  0  0  0  0  0  0  0  0  0
  -21.3880  -30.2160   24.7048 C   0  0  0  0  0  0  0  0  0  0  0  0
  -25.9728  -11.4216   20.4784 N   0  0  0  0  0  0  0  0  0  0  0  0
  -26.5459  -11.4450   19.2630 N   0  0  0  0  0  0  0  0  0  0  0  0
  -27.0337  -21.6114   19.6944 N   0  0  0  0  0  0  0  0  0  0  0  0
  -23.7259  -30.5943   22.0111 N   0  0  0  0  0  0  0  0  0  0  0  0
  -29.1742  -14.1695   19.7665 N   0  0  0  0  0  0  0  0  0  0  0  0
  -26.2976  -10.6601   17.0420 N   0  0  0  0  0  0  0  0  0  0  0  0
  -22.6930   -8.9520   19.1600 N   0  0  0  0  0  0  0  0  0  0  0  0
  -28.1006  -16.1636   19.1081 N   0  0  0  0  0  0  0  0  0  0  0  0
  -25.6178  -33.1144   23.2110 N   0  0  0  0  0  0  0  0  0  0  0  0
  -20.4436  -29.8559   22.3848 N   0  0  0  0  0  0  0  0  0  0  0  0
  -18.8966  -28.1567   19.5943 N   0  3  0  0  0  0  0  0  0  0  0  0
  -24.7738  -22.1021   19.1729 O   0  0  0  0  0  0  0  0  0  0  0  0
  -23.7905   -9.0664   17.1497 O   0  0  0  0  0  0  0  0  0  0  0  0
  -26.3549  -30.9092   23.0832 O   0  0  0  0  0  0  0  0  0  0  0  0
  -22.1067  -32.1831   22.5497 O   0  0  0  0  0  0  0  0  0  0  0  0
  -20.8337  -27.7141   21.5863 O   0  0  0  0  0  0  0  0  0  0  0  0
  -30.4153  -16.0323   19.1893 O   0  0  0  0  0  0  0  0  0  0  0  0
  -21.3971   -9.6425   24.5339 O   0  0  0  0  0  0  0  0  0  0  0  0
  -27.2326  -25.8594   20.1845 O   0  0  0  0  0  0  0  0  0  1  0  0
  -19.5971   -4.4708   25.1795 F   0  0  0  0  0  0  0  0  0  0  0  0
  -25.5817  -17.2218   18.5536 F   0  0  0  0  0  0  0  0  0  0  0  0
  -21.9047   -8.2446   26.8644 F   0  0  0  0  0  0  0  0  0  0  0  0
  1  2  1  0  0  0  0
  1  5  2  0  0  0  0
  2  6  2  0  0  0  0
  3 10  2  0  0  0  0
  3 18  1  0  0  0  0
  4 11  1  0  0  0  0
  4 18  2  0  0  0  0
  5 20  1  0  0  0  0
  6 22  1  0  0  0  0
  7 12  2  0  0  0  0
  7 21  1  0  0  0  0
  8  9  2  0  0  0  0
  8 24  1  0  0  0  0
  9 25  1  0  0  0  0
 10 26  1  0  0  0  0
 11 26  2  0  0  0  0
 12 27  1  0  0  0  0
 13 14  2  0  0  0  0
 13 28  1  0  0  0  0
 14 29  1  0  0  0  0
 15 23  1  0  0  0  0
 15 27  2  0  0  0  0
 16 24  2  0  0  0  0
 16 30  1  0  0  0  0
 17 29  2  0  0  0  0
 17 31  1  0  0  0  0
 18 32  1  0  0  0  0
 19 32  1  0  0  0  0
 19 33  2  0  0  0  0
 19 37  1  0  0  0  0
 20 22  2  0  0  0  0
 20 42  1  0  0  0  0
 21 23  2  0  0  0  0
 21 43  1  0  0  0  0
 22 52  1  0  0  0  0
 23 44  1  0  0  0  0
 24 65  1  0  0  0  0
 25 30  2  0  0  0  0
 25 70  1  0  0  0  0
 26 80  1  0  0  0  0
 27 81  1  0  0  0  0
 28 31  2  0  0  0  0
 28 80  1  0  0  0  0
 29 82  1  0  0  0  0
 30 83  1  0  0  0  0
 31 84  1  0  0  0  0
 32 63  2  0  0  0  0
 33 64  1  0  0  0  0
 33 68  1  0  0  0  0
 34 35  1  0  0  0  0
 34 36  2  0  0  0  0
 34 45  1  0  0  0  0
 35 65  1  0  0  0  0
 35 74  2  0  0  0  0
 36 81  1  0  0  0  0
 37 69  1  0  0  0  0
 37 75  2  0  0  0  0
 38 53  1  0  0  0  0
 38 71  1  0  0  0  0
 38 76  2  0  0  0  0
 39 60  1  0  0  0  0
 39 66  1  0  0  0  0
 39 77  2  0  0  0  0
 40 61  1  0  0  0  0
 40 72  1  0  0  0  0
 40 78  2  0  0  0  0
 41 67  1  0  0  0  0
 41 70  1  0  0  0  0
 41 79  2  0  0  0  0
 42 46  1  0  0  0  0
 43 53  1  0  0  0  0
 44 66  1  0  0  0  0
 45 65  1  0  0  0  0
 46 48  1  0  0  0  0
 47 49  1  0  0  0  0
 47 50  1  0  0  0  0
 48 52  1  0  0  0  0
 49 54  1  0  0  0  0
 50 67  1  0  0  0  0
 51 54  1  0  0  0  0
 51 67  1  0  0  0  0
 52 71  1  0  0  0  0
 53 66  1  0  0  0  0
 54 64  1  0  0  0  0
 55 61  1  0  0  0  0
 56 62  1  0  0  0  0
 57 62  1  0  0  0  0
 58 62  1  0  0  0  0
 59 73  1  0  0  0  0
 60 62  1  0  0  0  0
 60 72  1  0  0  0  0
 61 73  1  0  0  0  0
 63 64  1  0  0  0  0
M  CHG  1  73   1
M  ISO  4  36 101  41 100  70 100  81 101
M  END
> <Batch ID>
0080

> <Smiles>
CNC(C)C(=O)NC(C(=O)N1Cc2cc([101O:1][101CH:1]=C3CN(c4ccc([100NH:0][100C:0](=O)N5CCCC(n6nc(-c7ccc(Oc8ccc(F)cc8F)cc7)c(C(N)=O)c6N)C5)c(F)c4)C3=O)ccc2CC1C(=O)NC1CCCc2ccccc21)C(C)(C)C

> <Shape>
0.291

> <Color>
0.088

> <Negative vol penalty>
0.000

$$$$

  -OEChem-04052300023D

 87 96  0     1  0  0  0  0  0999 V2000
  -32.4996  -16.7626   23.2162 C   0  0  0  0  0  0  0  0  0  0  0  0
  -31.3303  -17.5040   23.0800 C   0  0  0  0  0  0  0  0  0  0  0  0
  -19.4833  -25.5959   24.9195 C   0  0  0  0  0  0  0  0  0  0  0  0
  -28.3286  -26.5724   21.5654 C   0  0  0  0  0  0  0  0  0  0  0  0
  -29.6020  -28.4446   20.7224 C   0  0  0  0  0  0  0  0  0  0  0  0
  -19.3671  -26.8939   24.4221 C   0  0  0  0  0  0  0  0  0  0  0  0
  -32.5869  -15.4907   22.6519 C   0  0  0  0  0  0  0  0  0  0  0  0
  -30.2479  -16.9742   22.3784 C   0  0  0  0  0  0  0  0  0  0  0  0
  -25.8430  -17.6904   24.7719 C   0  0  0  0  0  0  0  0  0  0  0  0
  -20.4879  -24.7537   24.4429 C   0  0  0  0  0  0  0  0  0  0  0  0
  -29.1092  -25.7000   20.8070 C   0  0  0  0  0  0  0  0  0  0  0  0
  -30.3826  -27.5721   19.9640 C   0  0  0  0  0  0  0  0  0  0  0  0
  -25.2697  -18.9583   24.6846 C   0  0  0  0  0  0  0  0  0  0  0  0
  -32.1733  -24.2845   21.0078 C   0  0  0  0  0  0  0  0  0  0  0  0
  -32.6361  -23.1236   21.6273 C   0  0  0  0  0  0  0  0  0  0  0  0
  -21.2599  -26.5073   22.9712 C   0  0  0  0  0  0  0  0  0  0  0  0
  -23.7808  -18.1599   22.9628 C   0  0  0  0  0  0  0  0  0  0  0  0
  -31.4649  -21.7844   19.9927 C   0  0  0  0  0  0  0  0  0  0  0  0
  -28.5749  -27.9447   21.5230 C   0  0  0  0  0  0  0  0  0  0  0  0
  -20.2554  -27.3495   23.4479 C   0  0  0  0  0  0  0  0  0  0  0  0
  -28.0101  -29.2763   23.6244 C   0  0  0  0  0  0  0  0  0  0  0  0
  -31.5016  -14.9412   21.9512 C   0  0  0  0  0  0  0  0  0  0  0  0
  -25.3961  -16.6488   23.9462 C   0  0  0  0  0  0  0  0  0  0  0  0
  -30.3213  -15.6943   21.8030 C   0  0  0  0  0  0  0  0  0  0  0  0
  -24.3483  -16.8791   23.0433 C   0  0  0  0  0  0  0  0  0  0  0  0
  -21.3762  -25.2093   23.4688 C   0  0  0  0  0  0  0  0  0  0  0  0
  -30.1362  -26.1998   20.0063 C   0  0  0  0  0  0  0  0  0  0  0  0
  -24.2404  -19.1940   23.7780 C   0  0  0  0  0  0  0  0  0  0  0  0
  -31.3562  -24.1953   19.8808 C   0  0  0  0  0  0  0  0  0  0  0  0
  -32.2819  -21.8736   21.1198 C   0  0  0  0  0  0  0  0  0  0  0  0
  -31.0021  -22.9453   19.3732 C   0  0  0  0  0  0  0  0  0  0  0  0
  -27.7686  -28.8465   22.3057 C   0  0  0  0  0  0  0  0  0  0  0  0
  -26.9625  -30.1178   23.9086 C   0  0  0  0  0  0  0  0  0  0  0  0
  -23.7563  -22.5601   22.6417 C   0  0  0  0  0  0  0  0  0  0  0  0
  -24.2237  -23.5997   21.7595 C   0  0  0  0  0  0  0  0  0  0  0  0
  -22.5861  -23.0475   23.4238 C   0  0  0  0  0  0  0  0  0  0  0  0
  -25.2454  -23.5602   20.8976 C   0  0  0  0  0  0  0  0  0  0  0  0
  -24.2238  -21.3231   22.8098 C   0  0  0  0  0  0  0  0  0  1  0  0
  -20.1304  -28.7321   22.9190 C   0  0  0  0  0  0  0  0  0  0  0  0
  -29.0854  -28.9444   24.5129 C   0  0  0  0  0  0  0  0  0  0  0  0
  -26.7276  -14.8418   21.6955 C   0  0  0  0  0  0  0  0  0  0  0  0
  -23.8807  -13.2907   21.8050 C   0  0  0  0  0  0  0  0  0  0  0  0
  -20.5541  -13.3907   22.5604 C   0  0  0  0  0  0  0  0  0  0  0  0
  -21.4010  -30.5731   21.8607 C   0  0  0  0  0  0  0  0  0  0  0  0
  -31.6598  -13.5814   21.3182 C   0  0  0  0  0  0  0  0  0  0  0  0
  -26.0068  -15.2800   24.0713 C   0  0  0  0  0  0  0  0  0  0  0  0
  -23.8184  -15.7894   22.1487 C   0  0  0  0  0  0  0  0  0  0  0  0
  -23.3374  -24.7893   21.9740 C   0  0  0  0  0  0  0  0  0  0  0  0
  -30.3351  -12.9413   20.9110 C   0  0  0  0  0  0  0  0  0  0  0  0
  -23.8709  -33.1010   21.7823 C   0  0  0  0  0  0  0  0  0  0  0  0
  -29.4599  -13.9491   20.1726 C   0  0  0  0  0  0  0  0  0  0  0  0
  -25.1741  -32.3408   22.0434 C   0  0  0  0  0  0  0  0  0  0  0  0
  -22.9092  -32.2956   20.9098 C   0  0  0  0  0  0  0  0  0  0  0  0
  -23.9297  -30.1788   21.6419 C   0  0  0  0  0  0  0  0  0  0  0  0
  -29.1169  -15.1440   21.0704 C   0  0  1  0  0  0  0  0  0  0  0  0
  -25.8220  -14.4266   22.8203 C   0  0  1  0  0  0  0  0  0  0  0  0
  -24.9028  -30.9186   22.5739 C   0  0  1  0  0  0  0  0  0  0  0  0
  -18.4786  -11.9811   22.5066 C   0  0  0  0  0  0  0  0  0  0  0  0
  -23.6828  -13.7017   18.7881 C   0  0  0  0  0  0  0  0  0  0  0  0
  -21.2447  -13.1543   18.9437 C   0  0  0  0  0  0  0  0  0  0  0  0
  -22.9476  -11.4478   19.5843 C   0  0  0  0  0  0  0  0  0  0  0  0
  -20.2196  -13.5653   25.4958 C   0  0  0  0  0  0  0  0  0  0  0  0
  -22.5560  -13.4363   21.0959 C   0  0  1  0  0  0  0  0  0  0  0  0
  -19.6686  -12.4339   23.3382 C   0  0  2  0  0  0  0  0  0  0  0  0
  -22.6188  -12.9563   19.6184 C   0  0  0  0  0  0  0  0  0  0  0  0
  -26.6549  -29.3716   21.7881 N   0  0  0  0  0  0  0  0  0  0  0  0
  -26.1872  -30.1399   22.7867 N   0  0  0  0  0  0  0  0  0  0  0  0
  -22.3782  -24.3692   22.9937 N   0  0  0  0  0  0  0  0  0  0  0  0
  -24.4524  -14.4697   22.3040 N   0  0  0  0  0  0  0  0  0  0  0  0
  -22.6975  -30.9662   21.4854 N   0  0  0  0  0  0  0  0  0  0  0  0
  -26.6381  -30.8337   25.0062 N   0  0  0  0  0  0  0  0  0  0  0  0
  -30.0783  -28.0646   24.0609 N   0  0  0  0  0  0  0  0  0  0  0  0
  -21.3100  -29.3025   22.4398 N   0  0  0  0  0  0  0  0  0  0  0  0
  -28.0727  -14.7887   22.0074 N   0  0  0  0  0  0  0  0  0  0  0  0
  -21.5758  -12.7289   21.9128 N   0  0  0  0  0  0  0  0  0  0  0  0
  -19.1558  -13.0910   24.5737 N   0  3  0  0  0  0  0  0  0  0  0  0
  -21.9629  -22.4082   24.2546 O   0  0  0  0  0  0  0  0  0  0  0  0
  -19.0248  -29.2659   22.8960 O   0  0  0  0  0  0  0  0  0  0  0  0
  -29.1546  -29.4014   25.6790 O   0  0  0  0  0  0  0  0  0  0  0  0
  -26.2419  -15.1834   20.6236 O   0  0  0  0  0  0  0  0  0  0  0  0
  -24.3861  -12.1712   21.9186 O   0  0  0  0  0  0  0  0  0  0  0  0
  -20.3569  -14.6033   22.5275 O   0  0  0  0  0  0  0  0  0  0  0  0
  -20.4150  -31.3048   21.7271 O   0  0  0  0  0  0  0  0  0  0  0  0
  -30.8982  -25.3488   19.2664 O   0  0  0  0  0  0  0  0  0  0  0  0
  -23.6796  -20.4307   23.6903 O   0  0  0  0  0  0  0  0  0  1  0  0
  -32.7276  -20.7589   21.7139 F   0  0  0  0  0  0  0  0  0  0  0  0
  -30.2184  -22.8533   18.2901 F   0  0  0  0  0  0  0  0  0  0  0  0
  1  2  1  0  0  0  0
  1  7  2  0  0  0  0
  2  8  2  0  0  0  0
  3  6  1  0  0  0  0
  3 10  2  0  0  0  0
  4 11  2  0  0  0  0
  4 19  1  0  0  0  0
  5 12  1  0  0  0  0
  5 19  2  0  0  0  0
  6 20  2  0  0  0  0
  7 22  1  0  0  0  0
  8 24  1  0  0  0  0
  9 13  2  0  0  0  0
  9 23  1  0  0  0  0
 10 26  1  0  0  0  0
 11 27  1  0  0  0  0
 12 27  2  0  0  0  0
 13 28  1  0  0  0  0
 14 15  2  0  0  0  0
 14 29  1  0  0  0  0
 15 30  1  0  0  0  0
 16 20  1  0  0  0  0
 16 26  2  0  0  0  0
 17 25  1  0  0  0  0
 17 28  2  0  0  0  0
 18 30  2  0  0  0  0
 18 31  1  0  0  0  0
 19 32  1  0  0  0  0
 20 39  1  0  0  0  0
 21 32  1  0  0  0  0
 21 33  2  0  0  0  0
 21 40  1  0  0  0  0
 22 24  2  0  0  0  0
 22 45  1  0  0  0  0
 23 25  2  0  0  0  0
 23 46  1  0  0  0  0
 24 55  1  0  0  0  0
 25 47  1  0  0  0  0
 26 68  1  0  0  0  0
 27 84  1  0  0  0  0
 28 85  1  0  0  0  0
 29 31  2  0  0  0  0
 29 84  1  0  0  0  0
 30 86  1  0  0  0  0
 31 87  1  0  0  0  0
 32 66  2  0  0  0  0
 33 67  1  0  0  0  0
 33 71  1  0  0  0  0
 34 35  1  0  0  0  0
 34 36  1  0  0  0  0
 34 38  2  0  0  0  0
 35 37  2  0  0  0  0
 35 48  1  0  0  0  0
 36 68  1  0  0  0  0
 36 77  2  0  0  0  0
 38 85  1  0  0  0  0
 39 73  1  0  0  0  0
 39 78  2  0  0  0  0
 40 72  1  0  0  0  0
 40 79  2  0  0  0  0
 41 56  1  0  0  0  0
 41 74  1  0  0  0  0
 41 80  2  0  0  0  0
 42 63  1  0  0  0  0
 42 69  1  0  0  0  0
 42 81  2  0  0  0  0
 43 64  1  0  0  0  0
 43 75  1  0  0  0  0
 43 82  2  0  0  0  0
 44 70  1  0  0  0  0
 44 73  1  0  0  0  0
 44 83  2  0  0  0  0
 45 49  1  0  0  0  0
 46 56  1  0  0  0  0
 47 69  1  0  0  0  0
 48 68  1  0  0  0  0
 49 51  1  0  0  0  0
 50 52  1  0  0  0  0
 50 53  1  0  0  0  0
 51 55  1  0  0  0  0
 52 57  1  0  0  0  0
 53 70  1  0  0  0  0
 54 57  1  0  0  0  0
 54 70  1  0  0  0  0
 55 74  1  0  0  0  0
 56 69  1  0  0  0  0
 57 67  1  0  0  0  0
 58 64  1  0  0  0  0
 59 65  1  0  0  0  0
 60 65  1  0  0  0  0
 61 65  1  0  0  0  0
 62 76  1  0  0  0  0
 63 65  1  0  0  0  0
 63 75  1  0  0  0  0
 64 76  1  0  0  0  0
 66 67  1  0  0  0  0
M  CHG  1  76   1
M  ISO  4  38 101  44 100  73 100  85 101
M  END
> <Batch ID>
0080

> <Smiles>
C=C1CN(c2cccc(C(=O)[100NH:0][100C:0](=O)N3CCCC(n4nc(-c5ccc(Oc6ccc(F)cc6F)cc5)c(C(N)=O)c4N)C3)c2)C(=O)C1=[101CH:1][101O:1]c1ccc2c(c1)CN(C(=O)C(NC(=O)C(C)NC)C(C)(C)C)C(C(=O)NC1CCCc3ccccc31)C2

> <Shape>
0.226

> <Color>
0.060

> <Negative vol penalty>
0.000

$$$$

  -OEChem-04052300023D

 87 96  0     1  0  0  0  0  0999 V2000
  -23.0425  -36.4878   20.9332 C   0  0  0  0  0  0  0  0  0  0  0  0
  -24.0720  -35.5670   20.7666 C   0  0  0  0  0  0  0  0  0  0  0  0
  -22.7919  -10.0449   20.1697 C   0  0  0  0  0  0  0  0  0  0  0  0
  -24.5978   -8.9797   21.3704 C   0  0  0  0  0  0  0  0  0  0  0  0
  -21.9194  -36.1474   21.6860 C   0  0  0  0  0  0  0  0  0  0  0  0
  -23.9794  -34.3056   21.3536 C   0  0  0  0  0  0  0  0  0  0  0  0
  -26.0957  -29.0252   19.0854 C   0  0  0  0  0  0  0  0  0  0  0  0
  -28.9382  -20.0346   20.4302 C   0  0  0  0  0  0  0  0  0  0  0  0
  -28.8326  -18.6518   20.2806 C   0  0  0  0  0  0  0  0  0  0  0  0
  -21.8771   -9.5282   21.0872 C   0  0  0  0  0  0  0  0  0  0  0  0
  -23.6829   -8.4631   22.2879 C   0  0  0  0  0  0  0  0  0  0  0  0
  -27.2578  -28.2963   19.3341 C   0  0  0  0  0  0  0  0  0  0  0  0
  -21.4774   -5.9049   22.4358 C   0  0  0  0  0  0  0  0  0  0  0  0
  -21.6116   -4.5653   22.8005 C   0  0  0  0  0  0  0  0  0  0  0  0
  -26.0532  -26.9256   20.9119 C   0  0  0  0  0  0  0  0  0  0  0  0
  -31.3393  -19.8745   20.2160 C   0  0  0  0  0  0  0  0  0  0  0  0
  -21.9198   -5.2235   25.1046 C   0  0  0  0  0  0  0  0  0  0  0  0
  -24.1523   -9.7706   20.3113 C   0  0  0  0  0  0  0  0  0  0  0  0
  -25.1332  -10.0706   17.9756 C   0  0  0  0  0  0  0  0  0  0  0  0
  -21.8087  -34.8777   22.2744 C   0  0  0  0  0  0  0  0  0  0  0  0
  -24.9043  -28.7163   19.7573 C   0  0  0  0  0  0  0  0  0  0  0  0
  -22.8544  -33.9483   22.1161 C   0  0  0  0  0  0  0  0  0  0  0  0
  -24.8767  -27.6505   20.6680 C   0  0  0  0  0  0  0  0  0  0  0  0
  -30.1915  -20.6460   20.3979 C   0  0  0  0  0  0  0  0  0  0  0  0
  -29.9804  -17.8804   20.0987 C   0  0  0  0  0  0  0  0  0  0  0  0
  -22.3226   -8.7374   22.1463 C   0  0  0  0  0  0  0  0  0  0  0  0
  -27.2374  -27.2482   20.2496 C   0  0  0  0  0  0  0  0  0  0  0  0
  -21.5645   -6.9038   23.4055 C   0  0  0  0  0  0  0  0  0  0  0  0
  -21.8328   -4.2245   24.1349 C   0  0  0  0  0  0  0  0  0  0  0  0
  -31.2338  -18.4917   20.0664 C   0  0  0  0  0  0  0  0  0  0  0  0
  -21.7857   -6.5631   24.7399 C   0  0  0  0  0  0  0  0  0  0  0  0
  -25.0977  -10.3035   19.3635 C   0  0  0  0  0  0  0  0  0  0  0  0
  -26.2111  -10.7977   17.5329 C   0  0  0  0  0  0  0  0  0  0  0  0
  -29.4123  -24.3927   20.4444 C   0  0  0  0  0  0  0  0  0  0  0  0
  -29.2588  -22.9292   20.1220 C   0  0  0  0  0  0  0  0  0  0  0  0
  -31.4019  -23.8716   21.7881 C   0  0  0  0  0  0  0  0  0  0  0  0
  -31.8121  -24.0390   23.0532 C   0  0  0  0  0  0  0  0  0  0  0  0
  -28.3537  -25.1928   20.2403 C   0  0  0  0  0  0  0  0  0  1  0  0
  -24.2691   -9.2687   17.1595 C   0  0  0  0  0  0  0  0  0  0  0  0
  -22.9919  -30.2728   21.7633 C   0  0  0  0  0  0  0  0  0  0  0  0
  -21.1239  -27.6450   21.4062 C   0  0  0  0  0  0  0  0  0  0  0  0
  -20.9054  -24.3302   20.6242 C   0  0  0  0  0  0  0  0  0  0  0  0
  -28.7050  -15.7039   19.9548 C   0  0  0  0  0  0  0  0  0  0  0  0
  -20.5968  -34.5721   23.1187 C   0  0  0  0  0  0  0  0  0  0  0  0
  -23.6527  -29.4951   19.4580 C   0  0  0  0  0  0  0  0  0  0  0  0
  -23.6182  -27.2657   21.4005 C   0  0  0  0  0  0  0  0  0  0  0  0
  -30.6915  -24.9282   21.0088 C   0  0  0  0  0  0  0  0  0  0  0  0
  -31.6011  -22.6052   21.0176 C   0  0  0  0  0  0  0  0  0  0  0  0
  -20.4071  -33.0829   23.3954 C   0  0  0  0  0  0  0  0  0  0  0  0
  -30.2629  -12.2019   19.7747 C   0  0  0  0  0  0  0  0  0  0  0  0
  -21.7258  -32.4475   23.8247 C   0  0  0  0  0  0  0  0  0  0  0  0
  -29.2565  -11.5241   18.8478 C   0  0  0  0  0  0  0  0  0  0  0  0
  -30.2660  -13.7169   19.6148 C   0  0  0  0  0  0  0  0  0  0  0  0
  -27.7910  -13.3971   19.7830 C   0  0  0  0  0  0  0  0  0  0  0  0
  -22.7795  -32.5612   22.7165 C   0  0  1  0  0  0  0  0  0  0  0  0
  -22.6218  -29.4236   20.5802 C   0  0  1  0  0  0  0  0  0  0  0  0
  -27.9424  -12.3165   18.7009 C   0  0  2  0  0  0  0  0  0  0  0  0
  -19.2515  -22.4501   20.4588 C   0  0  0  0  0  0  0  0  0  0  0  0
  -21.0955  -27.4057   24.4479 C   0  0  0  0  0  0  0  0  0  0  0  0
  -20.2715  -25.0561   24.1858 C   0  0  0  0  0  0  0  0  0  0  0  0
  -18.8953  -26.9596   23.3457 C   0  0  0  0  0  0  0  0  0  0  0  0
  -21.4313  -23.9674   17.7344 C   0  0  0  0  0  0  0  0  0  0  0  0
  -21.0044  -26.3146   22.1097 C   0  0  1  0  0  0  0  0  0  0  0  0
  -19.9587  -23.5707   19.7124 C   0  0  2  0  0  0  0  0  0  0  0  0
  -20.3410  -26.4423   23.5101 C   0  0  0  0  0  0  0  0  0  0  0  0
  -26.0754  -11.1150   19.7753 N   0  0  0  0  0  0  0  0  0  0  0  0
  -26.7354  -11.3983   18.6395 N   0  0  0  0  0  0  0  0  0  0  0  0
  -30.3013  -22.0806   20.5537 N   0  0  0  0  0  0  0  0  0  0  0  0
  -22.4220  -28.0612   21.0783 N   0  0  0  0  0  0  0  0  0  0  0  0
  -28.9340  -14.3174   19.7779 N   0  0  0  0  0  0  0  0  0  0  0  0
  -26.7521  -10.9754   16.3089 N   0  0  0  0  0  0  0  0  0  0  0  0
  -24.5983   -7.9209   16.9614 N   0  0  0  0  0  0  0  0  0  0  0  0
  -29.8700  -16.4755   19.9475 N   0  0  0  0  0  0  0  0  0  0  0  0
  -22.5370  -31.5752   21.6853 N   0  0  0  0  0  0  0  0  0  0  0  0
  -20.2961  -25.4295   21.1914 N   0  0  0  0  0  0  0  0  0  0  0  0
  -20.7068  -22.9750   18.5694 N   0  3  0  0  0  0  0  0  0  0  0  0
  -28.2649  -22.5578   19.4948 O   0  0  0  0  0  0  0  0  0  0  0  0
  -23.2445   -9.7378   16.6084 O   0  0  0  0  0  0  0  0  0  0  0  0
  -23.6409  -29.7822   22.6797 O   0  0  0  0  0  0  0  0  0  0  0  0
  -20.1026  -28.2877   21.1504 O   0  0  0  0  0  0  0  0  0  0  0  0
  -22.0679  -23.9811   20.8170 O   0  0  0  0  0  0  0  0  0  0  0  0
  -27.5677  -16.1609   20.0876 O   0  0  0  0  0  0  0  0  0  0  0  0
  -21.4303   -8.2333   23.0419 O   0  0  0  0  0  0  0  0  0  0  0  0
  -28.3705  -26.5354   20.4947 O   0  0  0  0  0  0  0  0  0  1  0  0
  -21.9601   -2.9380   24.4852 F   0  0  0  0  0  0  0  0  0  0  0  0
  -32.3440  -17.7601   19.8937 F   0  0  0  0  0  0  0  0  0  0  0  0
  -21.8691   -7.5183   25.6761 F   0  0  0  0  0  0  0  0  0  0  0  0
  1  2  1  0  0  0  0
  1  5  2  0  0  0  0
  2  6  2  0  0  0  0
  3 10  2  0  0  0  0
  3 18  1  0  0  0  0
  4 11  1  0  0  0  0
  4 18  2  0  0  0  0
  5 20  1  0  0  0  0
  6 22  1  0  0  0  0
  7 12  2  0  0  0  0
  7 21  1  0  0  0  0
  8  9  2  0  0  0  0
  8 24  1  0  0  0  0
  9 25  1  0  0  0  0
 10 26  1  0  0  0  0
 11 26  2  0  0  0  0
 12 27  1  0  0  0  0
 13 14  2  0  0  0  0
 13 28  1  0  0  0  0
 14 29  1  0  0  0  0
 15 23  1  0  0  0  0
 15 27  2  0  0  0  0
 16 24  2  0  0  0  0
 16 30  1  0  0  0  0
 17 29  2  0  0  0  0
 17 31  1  0  0  0  0
 18 32  1  0  0  0  0
 19 32  1  0  0  0  0
 19 33  2  0  0  0  0
 19 39  1  0  0  0  0
 20 22  2  0  0  0  0
 20 44  1  0  0  0  0
 21 23  2  0  0  0  0
 21 45  1  0  0  0  0
 22 55  1  0  0  0  0
 23 46  1  0  0  0  0
 24 68  1  0  0  0  0
 25 30  2  0  0  0  0
 25 73  1  0  0  0  0
 26 83  1  0  0  0  0
 27 84  1  0  0  0  0
 28 31  2  0  0  0  0
 28 83  1  0  0  0  0
 29 85  1  0  0  0  0
 30 86  1  0  0  0  0
 31 87  1  0  0  0  0
 32 66  2  0  0  0  0
 33 67  1  0  0  0  0
 33 71  1  0  0  0  0
 34 35  1  0  0  0  0
 34 38  2  0  0  0  0
 34 47  1  0  0  0  0
 35 68  1  0  0  0  0
 35 77  2  0  0  0  0
 36 37  2  0  0  0  0
 36 47  1  0  0  0  0
 36 48  1  0  0  0  0
 38 84  1  0  0  0  0
 39 72  1  0  0  0  0
 39 78  2  0  0  0  0
 40 56  1  0  0  0  0
 40 74  1  0  0  0  0
 40 79  2  0  0  0  0
 41 63  1  0  0  0  0
 41 69  1  0  0  0  0
 41 80  2  0  0  0  0
 42 64  1  0  0  0  0
 42 75  1  0  0  0  0
 42 81  2  0  0  0  0
 43 70  1  0  0  0  0
 43 73  1  0  0  0  0
 43 82  2  0  0  0  0
 44 49  1  0  0  0  0
 45 56  1  0  0  0  0
 46 69  1  0  0  0  0
 48 68  1  0  0  0  0
 49 51  1  0  0  0  0
 50 52  1  0  0  0  0
 50 53  1  0  0  0  0
 51 55  1  0  0  0  0
 52 57  1  0  0  0  0
 53 70  1  0  0  0  0
 54 57  1  0  0  0  0
 54 70  1  0  0  0  0
 55 74  1  0  0  0  0
 56 69  1  0  0  0  0
 57 67  1  0  0  0  0
 58 64  1  0  0  0  0
 59 65  1  0  0  0  0
 60 65  1  0  0  0  0
 61 65  1  0  0  0  0
 62 76  1  0  0  0  0
 63 65  1  0  0  0  0
 63 75  1  0  0  0  0
 64 76  1  0  0  0  0
 66 67  1  0  0  0  0
M  CHG  1  76   1
M  ISO  4  38 101  43 100  73 100  84 101
M  END
> <Batch ID>
0080

> <Smiles>
C=C1CC(=[101CH:1][101O:1]c2ccc3c(c2)CN(C(=O)C(NC(=O)C(C)NC)C(C)(C)C)C(C(=O)NC2CCCc4ccccc42)C3)C(=O)N(c2ccc([100NH:0][100C:0](=O)N3CCCC(n4nc(-c5ccc(Oc6ccc(F)cc6F)cc5)c(C(N)=O)c4N)C3)c(F)c2)C1

> <Shape>
0.286

> <Color>
0.108

> <Negative vol penalty>
0.000

$$$$

  -OEChem-04052300023D

 86 95  0     1  0  0  0  0  0999 V2000
  -29.3801  -11.9810   20.9924 C   0  0  0  0  0  0  0  0  0  0  0  0
  -28.8918  -12.8884   21.9271 C   0  0  0  0  0  0  0  0  0  0  0  0
  -18.3863  -28.3880   21.9455 C   0  0  0  0  0  0  0  0  0  0  0  0
  -29.6780  -24.5995   20.9453 C   0  0  0  0  0  0  0  0  0  0  0  0
  -29.4956  -24.8082   18.5452 C   0  0  0  0  0  0  0  0  0  0  0  0
  -19.5517  -29.1504   22.0241 C   0  0  0  0  0  0  0  0  0  0  0  0
  -29.0937  -12.1541   19.6389 C   0  0  0  0  0  0  0  0  0  0  0  0
  -28.1177  -13.9701   21.5086 C   0  0  0  0  0  0  0  0  0  0  0  0
  -22.6761  -18.1039   23.6574 C   0  0  0  0  0  0  0  0  0  0  0  0
  -18.3825  -27.0705   22.4037 C   0  0  0  0  0  0  0  0  0  0  0  0
  -30.1447  -23.2935   20.7963 C   0  0  0  0  0  0  0  0  0  0  0  0
  -29.9624  -23.5022   18.3962 C   0  0  0  0  0  0  0  0  0  0  0  0
  -22.3432  -19.4481   23.8191 C   0  0  0  0  0  0  0  0  0  0  0  0
  -28.8390  -20.2374   20.1802 C   0  0  0  0  0  0  0  0  0  0  0  0
  -28.3001  -19.2582   21.0147 C   0  0  0  0  0  0  0  0  0  0  0  0
  -20.7097  -27.2778   23.0188 C   0  0  0  0  0  0  0  0  0  0  0  0
  -21.8463  -19.6021   21.4635 C   0  0  0  0  0  0  0  0  0  0  0  0
  -30.5016  -18.7996   21.8982 C   0  0  0  0  0  0  0  0  0  0  0  0
  -29.3534  -25.3568   19.8197 C   0  0  0  0  0  0  0  0  0  0  0  0
  -20.7134  -28.5954   22.5607 C   0  0  0  0  0  0  0  0  0  0  0  0
  -29.6399  -27.8840   20.0168 C   0  0  0  0  0  0  0  0  0  0  0  0
  -28.3076  -13.2331   19.2047 C   0  0  0  0  0  0  0  0  0  0  0  0
  -22.6069  -17.5006   22.3935 C   0  0  0  0  0  0  0  0  0  0  0  0
  -27.8216  -14.1585   20.1479 C   0  0  0  0  0  0  0  0  0  0  0  0
  -22.1764  -18.2494   21.2890 C   0  0  0  0  0  0  0  0  0  0  0  0
  -19.5442  -26.5154   22.9403 C   0  0  0  0  0  0  0  0  0  0  0  0
  -30.2869  -22.7448   19.5218 C   0  0  0  0  0  0  0  0  0  0  0  0
  -21.9310  -20.1982   22.7215 C   0  0  0  0  0  0  0  0  0  0  0  0
  -30.2092  -20.4976   20.2046 C   0  0  0  0  0  0  0  0  0  0  0  0
  -29.1314  -18.5394   21.8737 C   0  0  0  0  0  0  0  0  0  0  0  0
  -31.0404  -19.7788   21.0636 C   0  0  0  0  0  0  0  0  0  0  0  0
  -28.8707  -26.7057   19.9730 C   0  0  0  0  0  0  0  0  0  0  0  0
  -28.7181  -28.8901   20.1735 C   0  0  0  0  0  0  0  0  0  0  0  0
  -18.8844  -23.1898   24.2700 C   0  0  0  0  0  0  0  0  0  0  0  0
  -20.1764  -23.0749   23.9698 C   0  0  0  0  0  0  0  0  0  0  0  0
  -18.4440  -24.5486   23.9236 C   0  0  0  0  0  0  0  0  0  0  0  0
  -20.6311  -24.3557   23.3944 C   0  0  0  0  0  0  0  0  0  0  0  0
  -21.9258  -30.7341   22.7952 C   0  0  0  0  0  0  0  0  0  0  0  0
  -21.9279  -29.3916   22.6424 C   0  0  0  0  0  0  0  0  0  0  0  0
  -31.0605  -28.0539   19.9241 C   0  0  0  0  0  0  0  0  0  0  0  0
  -23.2741  -28.7932   22.5414 C   0  0  0  0  0  0  0  0  0  0  0  0
  -24.7104  -16.1297   20.4441 C   0  0  0  0  0  0  0  0  0  0  0  0
  -22.0597  -15.4255   18.7121 C   0  0  0  0  0  0  0  0  0  0  0  0
  -18.8260  -16.1830   17.9271 C   0  0  0  0  0  0  0  0  0  0  0  0
  -28.0641  -13.4052   17.7262 C   0  0  0  0  0  0  0  0  0  0  0  0
  -22.9438  -16.0426   22.2407 C   0  0  0  0  0  0  0  0  0  0  0  0
  -22.0657  -17.6435   19.9145 C   0  0  0  0  0  0  0  0  0  0  0  0
  -26.9240  -14.3679   17.4047 C   0  0  0  0  0  0  0  0  0  0  0  0
  -24.1835  -30.0116   19.2067 C   0  0  0  0  0  0  0  0  0  0  0  0
  -27.0491  -15.6404   18.2366 C   0  0  0  0  0  0  0  0  0  0  0  0
  -25.5509  -29.3600   19.0188 C   0  0  0  0  0  0  0  0  0  0  0  0
  -23.2335  -29.1253   20.0107 C   0  0  0  0  0  0  0  0  0  0  0  0
  -25.1569  -28.0445   21.1387 C   0  0  0  0  0  0  0  0  0  0  0  0
  -26.9577  -15.3307   19.7357 C   0  0  1  0  0  0  0  0  0  0  0  0
  -23.3302  -15.6650   20.8140 C   0  0  1  0  0  0  0  0  0  0  0  0
  -26.1440  -28.9391   20.3727 C   0  0  1  0  0  0  0  0  0  0  0  0
  -16.9344  -15.4513   16.4493 C   0  0  0  0  0  0  0  0  0  0  0  0
  -23.4335  -16.7219   16.3159 C   0  0  0  0  0  0  0  0  0  0  0  0
  -21.2048  -16.8200   15.1795 C   0  0  0  0  0  0  0  0  0  0  0  0
  -22.1940  -14.6137   15.7930 C   0  0  0  0  0  0  0  0  0  0  0  0
  -17.0884  -15.5902   20.2484 C   0  0  0  0  0  0  0  0  0  0  0  0
  -21.0724  -21.9027   24.1405 C   0  0  0  0  0  0  0  0  0  1  0  0
  -21.2860  -16.1143   17.6139 C   0  0  1  0  0  0  0  0  0  0  0  0
  -17.5862  -15.3140   17.8164 C   0  0  2  0  0  0  0  0  0  0  0  0
  -22.0334  -16.0797   16.2510 C   0  0  0  0  0  0  0  0  0  0  0  0
  -27.5612  -26.9400   20.0924 N   0  0  0  0  0  0  0  0  0  0  0  0
  -27.5003  -28.2772   20.2128 N   0  0  0  0  0  0  0  0  0  0  0  0
  -19.5396  -25.2025   23.3977 N   0  0  0  0  0  0  0  0  0  0  0  0
  -23.8454  -28.6879   21.2744 N   0  0  0  0  0  0  0  0  0  0  0  0
  -22.4122  -16.2161   19.8151 N   0  0  0  0  0  0  0  0  0  0  0  0
  -28.8385  -30.2305   20.2802 N   0  0  0  0  0  0  0  0  0  0  0  0
  -31.8607  -26.9143   19.7650 N   0  0  0  0  0  0  0  0  0  0  0  0
  -25.5813  -15.1063   20.1224 N   0  0  0  0  0  0  0  0  0  0  0  0
  -19.9682  -15.4887   17.5888 N   0  0  0  0  0  0  0  0  0  0  0  0
  -16.5885  -15.7004   18.8537 N   0  3  0  0  0  0  0  0  0  0  0  0
  -17.3066  -24.9563   24.0942 O   0  0  0  0  0  0  0  0  0  0  0  0
  -21.7689  -24.5703   23.0080 O   0  0  0  0  0  0  0  0  0  0  0  0
  -31.6055  -29.1813   19.9972 O   0  0  0  0  0  0  0  0  0  0  0  0
  -23.8095  -28.4180   23.5860 O   0  0  0  0  0  0  0  0  0  0  0  0
  -24.9659  -17.3282   20.4488 O   0  0  0  0  0  0  0  0  0  0  0  0
  -22.3347  -14.2284   18.5988 O   0  0  0  0  0  0  0  0  0  0  0  0
  -18.7848  -17.3610   18.2750 O   0  0  0  0  0  0  0  0  0  0  0  0
  -30.7425  -21.4706   19.3760 O   0  0  0  0  0  0  0  0  0  0  0  0
  -21.6060  -21.5105   22.8764 O   0  0  0  0  0  0  0  0  0  1  0  0
  -28.6135  -17.6002   22.6762 F   0  0  0  0  0  0  0  0  0  0  0  0
  -32.3574  -20.0252   21.0923 F   0  0  0  0  0  0  0  0  0  0  0  0
  1  2  1  0  0  0  0
  1  7  2  0  0  0  0
  2  8  2  0  0  0  0
  3  6  2  0  0  0  0
  3 10  1  0  0  0  0
  4 11  2  0  0  0  0
  4 19  1  0  0  0  0
  5 12  1  0  0  0  0
  5 19  2  0  0  0  0
  6 20  1  0  0  0  0
  7 22  1  0  0  0  0
  8 24  1  0  0  0  0
  9 13  2  0  0  0  0
  9 23  1  0  0  0  0
 10 26  2  0  0  0  0
 11 27  1  0  0  0  0
 12 27  2  0  0  0  0
 13 28  1  0  0  0  0
 14 15  2  0  0  0  0
 14 29  1  0  0  0  0
 15 30  1  0  0  0  0
 16 20  2  0  0  0  0
 16 26  1  0  0  0  0
 17 25  1  0  0  0  0
 17 28  2  0  0  0  0
 18 30  2  0  0  0  0
 18 31  1  0  0  0  0
 19 32  1  0  0  0  0
 20 39  1  0  0  0  0
 21 32  1  0  0  0  0
 21 33  2  0  0  0  0
 21 40  1  0  0  0  0
 22 24  2  0  0  0  0
 22 45  1  0  0  0  0
 23 25  2  0  0  0  0
 23 46  1  0  0  0  0
 24 54  1  0  0  0  0
 25 47  1  0  0  0  0
 26 68  1  0  0  0  0
 27 83  1  0  0  0  0
 28 84  1  0  0  0  0
 29 31  2  0  0  0  0
 29 83  1  0  0  0  0
 30 85  1  0  0  0  0
 31 86  1  0  0  0  0
 32 66  2  0  0  0  0
 33 67  1  0  0  0  0
 33 71  1  0  0  0  0
 34 35  2  0  0  0  0
 34 36  1  0  0  0  0
 35 37  1  0  0  0  0
 35 62  1  0  0  0  0
 36 68  1  0  0  0  0
 36 76  2  0  0  0  0
 37 68  1  0  0  0  0
 37 77  2  0  0  0  0
 38 39  2  0  0  0  0
 39 41  1  0  0  0  0
 40 72  1  0  0  0  0
 40 78  2  0  0  0  0
 41 69  1  0  0  0  0
 41 79  2  0  0  0  0
 42 55  1  0  0  0  0
 42 73  1  0  0  0  0
 42 80  2  0  0  0  0
 43 63  1  0  0  0  0
 43 70  1  0  0  0  0
 43 81  2  0  0  0  0
 44 64  1  0  0  0  0
 44 74  1  0  0  0  0
 44 82  2  0  0  0  0
 45 48  1  0  0  0  0
 46 55  1  0  0  0  0
 47 70  1  0  0  0  0
 48 50  1  0  0  0  0
 49 51  1  0  0  0  0
 49 52  1  0  0  0  0
 50 54  1  0  0  0  0
 51 56  1  0  0  0  0
 52 69  1  0  0  0  0
 53 56  1  0  0  0  0
 53 69  1  0  0  0  0
 54 73  1  0  0  0  0
 55 70  1  0  0  0  0
 56 67  1  0  0  0  0
 57 64  1  0  0  0  0
 58 65  1  0  0  0  0
 59 65  1  0  0  0  0
 60 65  1  0  0  0  0
 61 75  1  0  0  0  0
 62 84  1  0  0  0  0
 63 65  1  0  0  0  0
 63 74  1  0  0  0  0
 64 75  1  0  0  0  0
 66 67  1  0  0  0  0
M  CHG  1  75   1
M  ISO  4  39 100  41 100  62 101  84 101
M  END
> <Batch ID>
0080

> <Smiles>
C=[100C:0](c1cccc(N2C(=O)C=C([101CH2:1][101O:1]c3ccc4c(c3)CN(C(=O)C(NC(=O)C(C)NC)C(C)(C)C)C(C(=O)NC3CCCc5ccccc53)C4)C2=O)c1)[100C:0](=O)N1CCCC(n2nc(-c3ccc(Oc4ccc(F)cc4F)cc3)c(C(N)=O)c2N)C1

> <Shape>
0.235

> <Color>
0.066

> <Negative vol penalty>
0.000

$$$$

  -OEChem-04052300023D

 88 97  0     1  0  0  0  0  0999 V2000
  -12.1880  -22.9561   23.2278 C   0  0  0  0  0  0  0  0  0  0  0  0
  -13.4311  -22.3321   23.2537 C   0  0  0  0  0  0  0  0  0  0  0  0
  -23.1371   -9.8773   19.9157 C   0  0  0  0  0  0  0  0  0  0  0  0
  -23.6319   -9.9108   22.2802 C   0  0  0  0  0  0  0  0  0  0  0  0
  -12.0313  -24.1675   22.5555 C   0  0  0  0  0  0  0  0  0  0  0  0
  -14.5181  -22.9186   22.6065 C   0  0  0  0  0  0  0  0  0  0  0  0
  -20.3768  -22.7755   24.3843 C   0  0  0  0  0  0  0  0  0  0  0  0
  -22.3621   -8.7313   20.0941 C   0  0  0  0  0  0  0  0  0  0  0  0
  -22.8569   -8.7648   22.4587 C   0  0  0  0  0  0  0  0  0  0  0  0
  -21.4555  -21.9819   23.9967 C   0  0  0  0  0  0  0  0  0  0  0  0
  -21.3027   -5.6420   23.4797 C   0  0  0  0  0  0  0  0  0  0  0  0
  -21.8243   -4.6246   24.2787 C   0  0  0  0  0  0  0  0  0  0  0  0
  -22.1554  -23.6980   22.4525 C   0  0  0  0  0  0  0  0  0  0  0  0
  -23.7093   -4.4156   22.7820 C   0  0  0  0  0  0  0  0  0  0  0  0
  -23.7720  -10.4670   21.0088 C   0  0  0  0  0  0  0  0  0  0  0  0
  -24.1417  -12.9886   20.8965 C   0  0  0  0  0  0  0  0  0  0  0  0
  -13.1191  -24.7740   21.9079 C   0  0  0  0  0  0  0  0  0  0  0  0
  -20.1727  -24.0339   23.8001 C   0  0  0  0  0  0  0  0  0  0  0  0
  -14.3754  -24.1386   21.9238 C   0  0  0  0  0  0  0  0  0  0  0  0
  -21.0747  -24.5067   22.8363 C   0  0  0  0  0  0  0  0  0  0  0  0
  -22.2220   -8.1751   21.3655 C   0  0  0  0  0  0  0  0  0  0  0  0
  -22.3434  -22.4418   23.0285 C   0  0  0  0  0  0  0  0  0  0  0  0
  -21.9844   -6.0462   22.3318 C   0  0  0  0  0  0  0  0  0  0  0  0
  -23.0276   -4.0114   23.9299 C   0  0  0  0  0  0  0  0  0  0  0  0
  -23.1877   -5.4330   21.9830 C   0  0  0  0  0  0  0  0  0  0  0  0
  -24.5731  -11.6505   20.8250 C   0  0  0  0  0  0  0  0  0  0  0  0
  -25.2728  -13.7277   20.6502 C   0  0  0  0  0  0  0  0  0  0  0  0
  -26.8653  -18.3390   18.1444 C   0  0  0  0  0  0  0  0  0  0  0  0
  -27.5238  -17.4174   17.4368 C   0  0  0  0  0  0  0  0  0  0  0  0
  -27.8825  -18.2552   20.4150 C   0  0  0  0  0  0  0  0  0  0  0  0
  -29.3334  -16.6761   19.1274 C   0  0  0  0  0  0  0  0  0  0  0  0
  -26.9276  -18.6398   19.5543 C   0  0  0  0  0  0  0  0  0  0  0  0
  -29.0656  -17.4540   20.1862 C   0  0  0  0  0  0  0  0  0  0  0  0
  -28.5695  -16.4633   17.8739 C   0  0  0  0  0  0  0  0  0  0  0  0
  -24.4769  -20.5359   20.8474 C   0  0  0  0  0  0  0  0  0  0  0  0
  -24.8003  -20.0060   19.5188 C   0  0  0  0  0  0  0  0  0  0  0  0
  -23.4811  -21.2975   21.3354 C   0  0  0  0  0  0  0  0  0  1  0  0
  -22.8352  -13.5163   21.1620 C   0  0  0  0  0  0  0  0  0  0  0  0
  -17.8640  -25.3492   22.0555 C   0  0  0  0  0  0  0  0  0  0  0  0
  -19.6503  -28.0320   22.4216 C   0  0  0  0  0  0  0  0  0  0  0  0
  -31.1632  -16.7656   21.1873 C   0  0  0  0  0  0  0  0  0  0  0  0
  -22.7105  -29.4143   23.0311 C   0  0  0  0  0  0  0  0  0  0  0  0
  -29.8708  -14.5972   17.5877 C   0  0  0  0  0  0  0  0  0  0  0  0
  -12.8901  -26.0601   21.1542 C   0  0  0  0  0  0  0  0  0  0  0  0
  -19.0195  -24.8890   24.2485 C   0  0  0  0  0  0  0  0  0  0  0  0
  -20.9116  -25.8588   22.1932 C   0  0  0  0  0  0  0  0  0  0  0  0
  -25.7257  -19.8600   21.3893 C   0  0  0  0  0  0  0  0  0  0  0  0
  -14.1789  -26.8027   20.8109 C   0  0  0  0  0  0  0  0  0  0  0  0
  -30.1271  -12.3564   20.4091 C   0  0  0  0  0  0  0  0  0  0  0  0
  -15.2127  -25.8399   20.2356 C   0  0  0  0  0  0  0  0  0  0  0  0
  -28.6675  -12.0556   20.7480 C   0  0  0  0  0  0  0  0  0  0  0  0
  -30.3283  -12.5306   18.9071 C   0  0  0  0  0  0  0  0  0  0  0  0
  -27.9769  -13.2716   18.6345 C   0  0  0  0  0  0  0  0  0  0  0  0
  -15.5842  -24.7559   21.2546 C   0  0  1  0  0  0  0  0  0  0  0  0
  -18.6159  -25.9371   23.2160 C   0  0  1  0  0  0  0  0  0  0  0  0
  -27.7304  -13.1171   20.1452 C   0  0  1  0  0  0  0  0  0  0  0  0
  -31.9646  -16.9595   22.4479 C   0  0  0  0  0  0  0  0  0  0  0  0
  -23.8653  -31.6333   23.2304 C   0  0  0  0  0  0  0  0  0  0  0  0
  -19.6067  -28.3247   19.3848 C   0  0  0  0  0  0  0  0  0  0  0  0
  -21.5076  -29.9420   19.5832 C   0  0  0  0  0  0  0  0  0  0  0  0
  -19.3111  -30.4654   20.6436 C   0  0  0  0  0  0  0  0  0  0  0  0
  -23.4811  -28.8916   25.8403 C   0  0  0  0  0  0  0  0  0  0  0  0
  -20.7816  -28.6757   21.6569 C   0  0  1  0  0  0  0  0  0  0  0  0
  -23.1464  -30.5196   23.9759 C   0  0  2  0  0  0  0  0  0  0  0  0
  -20.3040  -29.3256   20.3276 C   0  0  0  0  0  0  0  0  0  0  0  0
  -25.8766  -11.5427   20.5543 N   0  0  0  0  0  0  0  0  0  0  0  0
  -28.8888  -15.4578   17.1339 N   0  0  0  0  0  0  0  0  0  0  0  0
  -26.2740  -12.8226   20.4534 N   0  0  0  0  0  0  0  0  0  0  0  0
  -25.8992  -19.4189   20.0278 N   0  0  0  0  0  0  0  0  0  0  0  0
  -19.7649  -26.6552   22.6606 N   0  0  0  0  0  0  0  0  0  0  0  0
  -29.3986  -13.5208   18.3615 N   0  0  0  0  0  0  0  0  0  0  0  0
  -25.4988  -15.0570   20.5848 N   0  0  0  0  0  0  0  0  0  0  0  0
  -21.7857  -12.6168   21.3936 N   0  0  0  0  0  0  0  0  0  0  0  0
  -29.9751  -17.4665   21.2179 N   0  0  0  0  0  0  0  0  0  0  0  0
  -16.4968  -25.2850   22.2454 N   0  0  0  0  0  0  0  0  0  0  0  0
  -21.4214  -29.6060   22.5808 N   0  0  0  0  0  0  0  0  0  0  0  0
  -24.0673  -29.9792   25.0155 N   0  3  0  0  0  0  0  0  0  0  0  0
  -24.2928  -20.0682   18.4189 O   0  0  0  0  0  0  0  0  0  0  0  0
  -22.6020  -14.7488   21.1766 O   0  0  0  0  0  0  0  0  0  0  0  0
  -18.4786  -24.9824   21.0609 O   0  0  0  0  0  0  0  0  0  0  0  0
  -18.7035  -28.7265   22.7994 O   0  0  0  0  0  0  0  0  0  0  0  0
  -31.5580  -16.0348   20.2815 O   0  0  0  0  0  0  0  0  0  0  0  0
  -23.4418  -28.4766   22.7204 O   0  0  0  0  0  0  0  0  0  0  0  0
  -31.0724  -14.7383   17.3474 O   0  0  0  0  0  0  0  0  0  0  0  0
  -21.4657   -7.0570   21.5400 O   0  0  0  0  0  0  0  0  0  0  0  0
  -23.3967  -21.6689   22.6479 O   0  0  0  0  0  0  0  0  0  1  0  0
  -23.5291   -3.0354   24.6981 F   0  0  0  0  0  0  0  0  0  0  0  0
  -23.8478   -5.8178   20.8821 F   0  0  0  0  0  0  0  0  0  0  0  0
  1  2  1  0  0  0  0
  1  5  2  0  0  0  0
  2  6  2  0  0  0  0
  3  8  2  0  0  0  0
  3 15  1  0  0  0  0
  4  9  1  0  0  0  0
  4 15  2  0  0  0  0
  5 17  1  0  0  0  0
  6 19  1  0  0  0  0
  7 10  2  0  0  0  0
  7 18  1  0  0  0  0
  8 21  1  0  0  0  0
  9 21  2  0  0  0  0
 10 22  1  0  0  0  0
 11 12  2  0  0  0  0
 11 23  1  0  0  0  0
 12 24  1  0  0  0  0
 13 20  1  0  0  0  0
 13 22  2  0  0  0  0
 14 24  2  0  0  0  0
 14 25  1  0  0  0  0
 15 26  1  0  0  0  0
 16 26  1  0  0  0  0
 16 27  2  0  0  0  0
 16 38  1  0  0  0  0
 17 19  2  0  0  0  0
 17 44  1  0  0  0  0
 18 20  2  0  0  0  0
 18 45  1  0  0  0  0
 19 54  1  0  0  0  0
 20 46  1  0  0  0  0
 21 85  1  0  0  0  0
 22 86  1  0  0  0  0
 23 25  2  0  0  0  0
 23 85  1  0  0  0  0
 24 87  1  0  0  0  0
 25 88  1  0  0  0  0
 26 66  2  0  0  0  0
 27 68  1  0  0  0  0
 27 72  1  0  0  0  0
 28 29  2  0  0  0  0
 28 32  1  0  0  0  0
 29 34  1  0  0  0  0
 30 32  2  0  0  0  0
 30 33  1  0  0  0  0
 31 33  2  0  0  0  0
 31 34  1  0  0  0  0
 32 69  1  0  0  0  0
 33 74  1  0  0  0  0
 34 67  2  0  0  0  0
 35 36  1  0  0  0  0
 35 37  2  0  0  0  0
 35 47  1  0  0  0  0
 36 69  1  0  0  0  0
 36 78  2  0  0  0  0
 37 86  1  0  0  0  0
 38 73  1  0  0  0  0
 38 79  2  0  0  0  0
 39 55  1  0  0  0  0
 39 75  1  0  0  0  0
 39 80  2  0  0  0  0
 40 63  1  0  0  0  0
 40 70  1  0  0  0  0
 40 81  2  0  0  0  0
 41 57  1  0  0  0  0
 41 74  1  0  0  0  0
 41 82  2  0  0  0  0
 42 64  1  0  0  0  0
 42 76  1  0  0  0  0
 42 83  2  0  0  0  0
 43 67  1  0  0  0  0
 43 71  1  0  0  0  0
 43 84  2  0  0  0  0
 44 48  1  0  0  0  0
 45 55  1  0  0  0  0
 46 70  1  0  0  0  0
 47 69  1  0  0  0  0
 48 50  1  0  0  0  0
 49 51  1  0  0  0  0
 49 52  1  0  0  0  0
 50 54  1  0  0  0  0
 51 56  1  0  0  0  0
 52 71  1  0  0  0  0
 53 56  1  0  0  0  0
 53 71  1  0  0  0  0
 54 75  1  0  0  0  0
 55 70  1  0  0  0  0
 56 68  1  0  0  0  0
 58 64  1  0  0  0  0
 59 65  1  0  0  0  0
 60 65  1  0  0  0  0
 61 65  1  0  0  0  0
 62 77  1  0  0  0  0
 63 65  1  0  0  0  0
 63 76  1  0  0  0  0
 64 77  1  0  0  0  0
 66 68  1  0  0  0  0
M  CHG  1  77   1
M  ISO  4  37 101  43 100  67 100  86 101
M  END
> <Batch ID>
0080

> <Smiles>
CNC(C)C(=O)NC(C(=O)N1Cc2cc([101O:1][101CH:1]=C3CN(c4ccc(=[100N:0][100C:0](=O)N5CCCC(n6nc(-c7ccc(Oc8ccc(F)cc8F)cc7)c(C(N)=O)c6N)C5)cc(NC(C)=O)c4)C3=O)ccc2CC1C(=O)NC1CCCc2ccccc21)C(C)(C)C

> <Shape>
0.265

> <Color>
0.207

> <Negative vol penalty>
0.000

$$$$

  -OEChem-04052300023D

 81 89  0     1  0  0  0  0  0999 V2000
  -26.1220  -25.8886   18.1332 C   0  0  0  0  0  0  0  0  0  0  0  0
  -25.8305  -24.9263   19.0947 C   0  0  0  0  0  0  0  0  0  0  0  0
  -23.2901   -9.7456   19.9931 C   0  0  0  0  0  0  0  0  0  0  0  0
  -23.7641   -9.9803   22.3505 C   0  0  0  0  0  0  0  0  0  0  0  0
  -27.3274  -25.8319   17.4349 C   0  0  0  0  0  0  0  0  0  0  0  0
  -26.7440  -23.9061   19.3576 C   0  0  0  0  0  0  0  0  0  0  0  0
  -29.1275  -19.7904   24.7146 C   0  0  0  0  0  0  0  0  0  0  0  0
  -22.5797   -8.5736   20.2526 C   0  0  0  0  0  0  0  0  0  0  0  0
  -23.0536   -8.8083   22.6101 C   0  0  0  0  0  0  0  0  0  0  0  0
  -29.3380  -18.4489   25.0305 C   0  0  0  0  0  0  0  0  0  0  0  0
  -23.2769   -5.3289   20.8932 C   0  0  0  0  0  0  0  0  0  0  0  0
  -23.5086   -4.2338   20.0611 C   0  0  0  0  0  0  0  0  0  0  0  0
  -31.4231  -18.4970   23.8184 C   0  0  0  0  0  0  0  0  0  0  0  0
  -21.1793   -4.2283   19.4196 C   0  0  0  0  0  0  0  0  0  0  0  0
  -23.8823  -10.4489   21.0421 C   0  0  0  0  0  0  0  0  0  0  0  0
  -24.1101  -12.9724   20.7459 C   0  0  0  0  0  0  0  0  0  0  0  0
  -28.2603  -24.8160   17.6962 C   0  0  0  0  0  0  0  0  0  0  0  0
  -30.0594  -20.4934   23.9377 C   0  0  0  0  0  0  0  0  0  0  0  0
  -27.9624  -23.8350   18.6612 C   0  0  0  0  0  0  0  0  0  0  0  0
  -31.2233  -19.8480   23.4962 C   0  0  0  0  0  0  0  0  0  0  0  0
  -22.4614   -8.1050   21.5611 C   0  0  0  0  0  0  0  0  0  0  0  0
  -30.4846  -17.8012   24.5800 C   0  0  0  0  0  0  0  0  0  0  0  0
  -21.9963   -5.8737   20.9887 C   0  0  0  0  0  0  0  0  0  0  0  0
  -22.4598   -3.6835   19.3242 C   0  0  0  0  0  0  0  0  0  0  0  0
  -20.9476   -5.3235   20.2519 C   0  0  0  0  0  0  0  0  0  0  0  0
  -24.6168  -11.6593   20.7746 C   0  0  0  0  0  0  0  0  0  0  0  0
  -25.1996  -13.7545   20.4498 C   0  0  0  0  0  0  0  0  0  0  0  0
  -31.8665  -12.3312   23.5639 C   0  0  0  0  0  0  0  0  0  0  0  0
  -31.0213  -13.7049   25.4960 C   0  0  0  0  0  0  0  0  0  0  0  0
  -27.4829  -13.5216   24.3532 C   0  0  0  0  0  0  0  0  0  0  0  0
  -28.6820  -13.3626   24.9235 C   0  0  0  0  0  0  0  0  0  0  0  0
  -22.7740  -13.4431   20.9672 C   0  0  0  0  0  0  0  0  0  0  0  0
  -31.0935  -12.8900   21.2413 C   0  0  0  0  0  0  0  0  0  0  0  0
  -29.9827  -21.9463   21.1115 C   0  0  0  0  0  0  0  0  0  0  0  0
  -32.9800  -22.8686   21.9410 C   0  0  0  0  0  0  0  0  0  0  0  0
  -35.7843  -22.2783   23.7942 C   0  0  0  0  0  0  0  0  0  0  0  0
  -29.5292  -24.7688   16.8825 C   0  0  0  0  0  0  0  0  0  0  0  0
  -29.8306  -21.9475   23.6280 C   0  0  0  0  0  0  0  0  0  0  0  0
  -32.2645  -20.5636   22.6762 C   0  0  0  0  0  0  0  0  0  0  0  0
  -30.6065  -23.8711   17.4855 C   0  0  0  0  0  0  0  0  0  0  0  0
  -29.3976  -13.6341   18.1737 C   0  0  0  0  0  0  0  0  0  0  0  0
  -30.0097  -22.5337   17.9121 C   0  0  0  0  0  0  0  0  0  0  0  0
  -27.9376  -13.3043   18.4815 C   0  0  0  0  0  0  0  0  0  0  0  0
  -30.2731  -14.2199   23.1538 C   0  0  0  0  0  0  0  0  0  0  0  0
  -30.3486  -12.6824   18.8926 C   0  0  0  0  0  0  0  0  0  0  0  0
  -28.6850  -12.2921   20.6820 C   0  0  0  0  0  0  0  0  0  0  0  0
  -28.9386  -22.7270   18.9923 C   0  0  1  0  0  0  0  0  0  0  0  0
  -30.7269  -12.8337   22.7030 C   0  0  2  0  0  0  0  0  0  0  0  0
  -30.5960  -22.4239   22.3974 C   0  0  1  0  0  0  0  0  0  0  0  0
  -27.6916  -13.2492   19.9997 C   0  0  2  0  0  0  0  0  0  0  0  0
  -29.8734  -14.2358   24.6366 C   0  0  2  0  0  0  0  0  0  0  0  0
  -38.0836  -23.1839   24.2309 C   0  0  0  0  0  0  0  0  0  0  0  0
  -33.9345  -21.7222   19.2792 C   0  0  0  0  0  0  0  0  0  0  0  0
  -36.2733  -21.7848   20.1705 C   0  0  0  0  0  0  0  0  0  0  0  0
  -34.9820  -23.9034   19.9113 C   0  0  0  0  0  0  0  0  0  0  0  0
  -35.1848  -22.7410   26.6552 C   0  0  0  0  0  0  0  0  0  0  0  0
  -29.5358  -15.6734   25.0578 C   0  0  0  0  0  0  0  0  0  1  0  0
  -34.3640  -22.2934   21.7602 C   0  0  1  0  0  0  0  0  0  0  0  0
  -36.6264  -23.1923   24.6660 C   0  0  2  0  0  0  0  0  0  0  0  0
  -34.8681  -22.4116   20.2941 C   0  0  0  0  0  0  0  0  0  0  0  0
  -25.9263  -11.6063   20.5170 N   0  0  0  0  0  0  0  0  0  0  0  0
  -26.2517  -12.8958   20.3237 N   0  0  0  0  0  0  0  0  0  0  0  0
  -31.8814  -12.8018   24.8735 N   0  0  0  0  0  0  0  0  0  0  0  0
  -30.0680  -12.6413   20.3289 N   0  0  0  0  0  0  0  0  0  0  0  0
  -31.9923  -21.9827   22.3943 N   0  0  0  0  0  0  0  0  0  0  0  0
  -25.3508  -15.0862   20.2875 N   0  0  0  0  0  0  0  0  0  0  0  0
  -21.7751  -12.5048   21.2607 N   0  0  0  0  0  0  0  0  0  0  0  0
  -29.5560  -22.9638   20.2796 N   0  0  0  0  0  0  0  0  0  0  0  0
  -35.2145  -22.9605   22.7401 N   0  0  0  0  0  0  0  0  0  0  0  0
  -36.5584  -22.7571   26.0897 N   0  3  0  0  0  0  0  0  0  0  0  0
  -32.6995  -11.5284   23.1425 O   0  0  0  0  0  0  0  0  0  0  0  0
  -31.1532  -14.0110   26.6825 O   0  0  0  0  0  0  0  0  0  0  0  0
  -22.4715  -14.6581   20.8903 O   0  0  0  0  0  0  0  0  0  0  0  0
  -32.2565  -13.1504   20.9220 O   0  0  0  0  0  0  0  0  0  0  0  0
  -29.9039  -20.7436   20.8898 O   0  0  0  0  0  0  0  0  0  0  0  0
  -32.7842  -24.0616   21.6960 O   0  0  0  0  0  0  0  0  0  0  0  0
  -35.6488  -21.0784   24.0231 O   0  0  0  0  0  0  0  0  0  0  0  0
  -21.7681   -6.9615   21.8147 O   0  0  0  0  0  0  0  0  0  0  0  0
  -30.6922  -16.4917   24.8864 O   0  0  0  0  0  0  0  0  0  1  0  0
  -22.6828   -2.6328   18.5240 F   0  0  0  0  0  0  0  0  0  0  0  0
  -19.7155   -5.8433   20.3385 F   0  0  0  0  0  0  0  0  0  0  0  0
  1  2  1  0  0  0  0
  1  5  2  0  0  0  0
  2  6  2  0  0  0  0
  3  8  2  0  0  0  0
  3 15  1  0  0  0  0
  4  9  1  0  0  0  0
  4 15  2  0  0  0  0
  5 17  1  0  0  0  0
  6 19  1  0  0  0  0
  7 10  2  0  0  0  0
  7 18  1  0  0  0  0
  8 21  1  0  0  0  0
  9 21  2  0  0  0  0
 10 22  1  0  0  0  0
 11 12  2  0  0  0  0
 11 23  1  0  0  0  0
 12 24  1  0  0  0  0
 13 20  1  0  0  0  0
 13 22  2  0  0  0  0
 14 24  2  0  0  0  0
 14 25  1  0  0  0  0
 15 26  1  0  0  0  0
 16 26  1  0  0  0  0
 16 27  2  0  0  0  0
 16 32  1  0  0  0  0
 17 19  2  0  0  0  0
 17 37  1  0  0  0  0
 18 20  2  0  0  0  0
 18 38  1  0  0  0  0
 19 47  1  0  0  0  0
 20 39  1  0  0  0  0
 21 78  1  0  0  0  0
 22 79  1  0  0  0  0
 23 25  2  0  0  0  0
 23 78  1  0  0  0  0
 24 80  1  0  0  0  0
 25 81  1  0  0  0  0
 26 61  2  0  0  0  0
 27 62  1  0  0  0  0
 27 66  1  0  0  0  0
 28 48  1  0  0  0  0
 28 63  1  0  0  0  0
 28 71  2  0  0  0  0
 29 51  1  0  0  0  0
 29 63  1  0  0  0  0
 29 72  2  0  0  0  0
 30 31  2  0  0  0  0
 31 51  1  0  0  0  0
 32 67  1  0  0  0  0
 32 73  2  0  0  0  0
 33 48  1  0  0  0  0
 33 64  1  0  0  0  0
 33 74  2  0  0  0  0
 34 49  1  0  0  0  0
 34 68  1  0  0  0  0
 34 75  2  0  0  0  0
 35 58  1  0  0  0  0
 35 65  1  0  0  0  0
 35 76  2  0  0  0  0
 36 59  1  0  0  0  0
 36 69  1  0  0  0  0
 36 77  2  0  0  0  0
 37 40  1  0  0  0  0
 38 49  1  0  0  0  0
 39 65  1  0  0  0  0
 40 42  1  0  0  0  0
 41 43  1  0  0  0  0
 41 45  1  0  0  0  0
 42 47  1  0  0  0  0
 43 50  1  0  0  0  0
 44 48  1  0  0  0  0
 44 51  1  0  0  0  0
 45 64  1  0  0  0  0
 46 50  1  0  0  0  0
 46 64  1  0  0  0  0
 47 68  1  0  0  0  0
 49 65  1  0  0  0  0
 50 62  1  0  0  0  0
 51 57  1  0  0  0  0
 52 59  1  0  0  0  0
 53 60  1  0  0  0  0
 54 60  1  0  0  0  0
 55 60  1  0  0  0  0
 56 70  1  0  0  0  0
 57 79  1  0  0  0  0
 58 60  1  0  0  0  0
 58 69  1  0  0  0  0
 59 70  1  0  0  0  0
 61 62  1  0  0  0  0
M  CHG  1  70   1
M  ISO  4  33 100  48 100  57 101  79 101
M  END
> <Batch ID>
0080

> <Smiles>
C=CC1([101CH2:1][101O:1]c2ccc3c(c2)CN(C(=O)C(NC(=O)C(C)NC)C(C)(C)C)C(C(=O)NC2CCCc4ccccc42)C3)C[100CH:0]([100C:0](=O)N2CCCC(n3nc(-c4ccc(Oc5ccc(F)cc5F)cc4)c(C(N)=O)c3N)C2)C(=O)NC1=O

> <Shape>
0.178

> <Color>
0.170

> <Negative vol penalty>
0.000

$$$$

  -OEChem-04052300023D

 84 92  0     1  0  0  0  0  0999 V2000
  -25.6431  -32.3854   26.1805 C   0  0  0  0  0  0  0  0  0  0  0  0
  -26.2468  -31.1827   25.8277 C   0  0  0  0  0  0  0  0  0  0  0  0
  -23.3598   -9.9717   21.8239 C   0  0  0  0  0  0  0  0  0  0  0  0
  -24.1279  -11.1620   23.7811 C   0  0  0  0  0  0  0  0  0  0  0  0
  -30.0494  -19.8515   20.8961 C   0  0  0  0  0  0  0  0  0  0  0  0
  -32.2936  -18.9776   20.7039 C   0  0  0  0  0  0  0  0  0  0  0  0
  -24.3424  -32.6607   25.7605 C   0  0  0  0  0  0  0  0  0  0  0  0
  -25.5497  -30.2541   25.0556 C   0  0  0  0  0  0  0  0  0  0  0  0
  -28.3764  -28.3131   21.3291 C   0  0  0  0  0  0  0  0  0  0  0  0
  -29.5331  -18.5975   20.5698 C   0  0  0  0  0  0  0  0  0  0  0  0
  -31.7773  -17.7235   20.3776 C   0  0  0  0  0  0  0  0  0  0  0  0
  -22.7141   -9.0441   22.6414 C   0  0  0  0  0  0  0  0  0  0  0  0
  -23.4821  -10.2344   24.5986 C   0  0  0  0  0  0  0  0  0  0  0  0
  -29.2955  -27.3238   21.6762 C   0  0  0  0  0  0  0  0  0  0  0  0
  -19.8482   -8.8669   24.4269 C   0  0  0  0  0  0  0  0  0  0  0  0
  -18.5471   -8.4974   24.0860 C   0  0  0  0  0  0  0  0  0  0  0  0
  -27.7627  -25.6336   20.8932 C   0  0  0  0  0  0  0  0  0  0  0  0
  -19.2576   -6.1987   23.8662 C   0  0  0  0  0  0  0  0  0  0  0  0
  -24.0668  -11.0306   22.3938 C   0  0  0  0  0  0  0  0  0  0  0  0
  -31.4297  -20.0416   20.9631 C   0  0  0  0  0  0  0  0  0  0  0  0
  -24.2001  -13.1842   21.0329 C   0  0  0  0  0  0  0  0  0  0  0  0
  -23.6325  -31.7391   24.9749 C   0  0  0  0  0  0  0  0  0  0  0  0
  -27.1371  -27.9689   20.7705 C   0  0  0  0  0  0  0  0  0  0  0  0
  -24.2378  -30.5167   24.6259 C   0  0  0  0  0  0  0  0  0  0  0  0
  -26.8307  -26.6206   20.5375 C   0  0  0  0  0  0  0  0  0  0  0  0
  -30.3970  -17.5335   20.3106 C   0  0  0  0  0  0  0  0  0  0  0  0
  -22.7753   -9.1755   24.0287 C   0  0  0  0  0  0  0  0  0  0  0  0
  -28.9875  -25.9837   21.4610 C   0  0  0  0  0  0  0  0  0  0  0  0
  -20.8540   -7.9024   24.4874 C   0  0  0  0  0  0  0  0  0  0  0  0
  -18.2518   -7.1633   23.8057 C   0  0  0  0  0  0  0  0  0  0  0  0
  -20.5587   -6.5683   24.2070 C   0  0  0  0  0  0  0  0  0  0  0  0
  -24.7345  -11.9888   21.5499 C   0  0  0  0  0  0  0  0  0  0  0  0
  -25.2254  -13.7298   20.2997 C   0  0  0  0  0  0  0  0  0  0  0  0
  -31.9856  -21.3916   21.3142 C   0  0  0  0  0  0  0  0  0  0  0  0
  -22.8937  -13.7507   21.2004 C   0  0  0  0  0  0  0  0  0  0  0  0
  -31.6923  -23.6321   21.2388 C   0  0  0  0  0  0  0  0  0  0  0  0
  -30.7515  -24.7016   20.7694 C   0  0  0  0  0  0  0  0  0  1  0  0
  -24.1029  -28.3443   21.6401 C   0  0  0  0  0  0  0  0  0  0  0  0
  -23.5139  -27.1125   18.6976 C   0  0  0  0  0  0  0  0  0  0  0  0
  -24.6084  -25.2204   16.0768 C   0  0  0  0  0  0  0  0  0  0  0  0
  -30.5884  -15.0986   19.6934 C   0  0  0  0  0  0  0  0  0  0  0  0
  -22.2116  -32.0607   24.5844 C   0  0  0  0  0  0  0  0  0  0  0  0
  -26.1676  -29.0494   20.3769 C   0  0  0  0  0  0  0  0  0  0  0  0
  -25.5222  -26.1996   19.9219 C   0  0  0  0  0  0  0  0  0  0  0  0
  -21.6774  -31.1846   23.4543 C   0  0  0  0  0  0  0  0  0  0  0  0
  -29.6637  -11.7603   18.8700 C   0  0  0  0  0  0  0  0  0  0  0  0
  -22.0069  -29.7181   23.7142 C   0  0  0  0  0  0  0  0  0  0  0  0
  -28.2549  -11.6205   19.4513 C   0  0  0  0  0  0  0  0  0  0  0  0
  -30.5629  -12.6147   19.7617 C   0  0  0  0  0  0  0  0  0  0  0  0
  -28.6099  -13.7934   20.6921 C   0  0  0  0  0  0  0  0  0  0  0  0
  -23.5231  -29.4947   23.7688 C   0  0  1  0  0  0  0  0  0  0  0  0
  -24.7265  -28.5563   20.2896 C   0  0  1  0  0  0  0  0  0  0  0  0
  -27.6487  -12.9949   19.7964 C   0  0  2  0  0  0  0  0  0  0  0  0
  -23.8899  -24.3636   13.8302 C   0  0  0  0  0  0  0  0  0  0  0  0
  -21.7411  -25.0357   20.0593 C   0  0  0  0  0  0  0  0  0  0  0  0
  -21.8298  -23.6822   17.9549 C   0  0  0  0  0  0  0  0  0  0  0  0
  -20.8157  -25.9611   17.9281 C   0  0  0  0  0  0  0  0  0  0  0  0
  -26.8174  -26.6317   14.7030 C   0  0  0  0  0  0  0  0  0  0  0  0
  -23.3239  -25.7230   18.1387 C   0  0  1  0  0  0  0  0  0  0  0  0
  -24.6068  -25.4754   14.5803 C   0  0  2  0  0  0  0  0  0  0  0  0
  -21.9516  -25.1080   18.5337 C   0  0  0  0  0  0  0  0  0  0  0  0
  -26.0008  -11.7863   21.1767 N   0  0  0  0  0  0  0  0  0  0  0  0
  -31.2214  -22.4235   20.9390 N   0  5  0  0  0  0  0  0  0  0  0  0
  -26.2707  -12.8617   20.4173 N   0  0  0  0  0  0  0  0  0  0  0  0
  -24.6047  -27.2926   19.5599 N   0  0  0  0  0  0  0  0  0  0  0  0
  -29.9257  -13.9030   20.0431 N   0  0  0  0  0  0  0  0  0  0  0  0
  -25.3257  -14.8626   19.5723 N   0  0  0  0  0  0  0  0  0  0  0  0
  -21.9613  -13.0593   21.9859 N   0  0  0  0  0  0  0  0  0  0  0  0
  -29.8714  -16.2600   19.9794 N   0  0  0  0  0  0  0  0  0  0  0  0
  -24.0796  -29.4758   22.4330 N   0  0  0  0  0  0  0  0  0  0  0  0
  -23.5393  -25.8289   16.6997 N   0  0  0  0  0  0  0  0  0  0  0  0
  -26.0036  -25.5631   14.0683 N   0  3  0  0  0  0  0  0  0  0  0  0
  -33.0686  -21.4186   21.8965 O   0  0  0  0  0  0  0  0  0  0  0  0
  -22.5577  -14.8297   20.6559 O   0  0  0  0  0  0  0  0  0  0  0  0
  -32.7191  -24.0147   21.7856 O   0  0  0  0  0  0  0  0  0  0  0  0
  -30.8337  -25.1755   19.6526 O   0  0  0  0  0  0  0  0  0  0  0  0
  -23.6732  -27.2365   21.9400 O   0  0  0  0  0  0  0  0  0  0  0  0
  -22.7279  -28.0068   18.3752 O   0  0  0  0  0  0  0  0  0  0  0  0
  -25.4696  -24.5454   16.6365 O   0  0  0  0  0  0  0  0  0  0  0  0
  -31.6975  -15.0918   19.1533 O   0  0  0  0  0  0  0  0  0  0  0  0
  -22.1451   -8.2707   24.8267 O   0  0  0  0  0  0  0  0  0  0  0  0
  -29.8825  -25.0160   21.7995 O   0  0  0  0  0  0  0  0  0  1  0  0
  -17.0020   -6.8084   23.4798 F   0  0  0  0  0  0  0  0  0  0  0  0
  -21.5205   -5.6369   24.2647 F   0  0  0  0  0  0  0  0  0  0  0  0
  1  2  1  0  0  0  0
  1  7  2  0  0  0  0
  2  8  2  0  0  0  0
  3 12  2  0  0  0  0
  3 19  1  0  0  0  0
  4 13  1  0  0  0  0
  4 19  2  0  0  0  0
  5 10  2  0  0  0  0
  5 20  1  0  0  0  0
  6 11  1  0  0  0  0
  6 20  2  0  0  0  0
  7 22  1  0  0  0  0
  8 24  1  0  0  0  0
  9 14  2  0  0  0  0
  9 23  1  0  0  0  0
 10 26  1  0  0  0  0
 11 26  2  0  0  0  0
 12 27  1  0  0  0  0
 13 27  2  0  0  0  0
 14 28  1  0  0  0  0
 15 16  2  0  0  0  0
 15 29  1  0  0  0  0
 16 30  1  0  0  0  0
 17 25  1  0  0  0  0
 17 28  2  0  0  0  0
 18 30  2  0  0  0  0
 18 31  1  0  0  0  0
 19 32  1  0  0  0  0
 20 34  1  0  0  0  0
 21 32  1  0  0  0  0
 21 33  2  0  0  0  0
 21 35  1  0  0  0  0
 22 24  2  0  0  0  0
 22 42  1  0  0  0  0
 23 25  2  0  0  0  0
 23 43  1  0  0  0  0
 24 51  1  0  0  0  0
 25 44  1  0  0  0  0
 26 69  1  0  0  0  0
 27 81  1  0  0  0  0
 28 82  1  0  0  0  0
 29 31  2  0  0  0  0
 29 81  1  0  0  0  0
 30 83  1  0  0  0  0
 31 84  1  0  0  0  0
 32 62  2  0  0  0  0
 33 64  1  0  0  0  0
 33 67  1  0  0  0  0
 34 63  1  0  0  0  0
 34 73  2  0  0  0  0
 35 68  1  0  0  0  0
 35 74  2  0  0  0  0
 36 37  1  0  0  0  0
 36 63  1  0  0  0  0
 36 75  2  0  0  0  0
 37 76  2  0  0  0  0
 37 82  1  0  0  0  0
 38 52  1  0  0  0  0
 38 70  1  0  0  0  0
 38 77  2  0  0  0  0
 39 59  1  0  0  0  0
 39 65  1  0  0  0  0
 39 78  2  0  0  0  0
 40 60  1  0  0  0  0
 40 71  1  0  0  0  0
 40 79  2  0  0  0  0
 41 66  1  0  0  0  0
 41 69  1  0  0  0  0
 41 80  2  0  0  0  0
 42 45  1  0  0  0  0
 43 52  1  0  0  0  0
 44 65  1  0  0  0  0
 45 47  1  0  0  0  0
 46 48  1  0  0  0  0
 46 49  1  0  0  0  0
 47 51  1  0  0  0  0
 48 53  1  0  0  0  0
 49 66  1  0  0  0  0
 50 53  1  0  0  0  0
 50 66  1  0  0  0  0
 51 70  1  0  0  0  0
 52 65  1  0  0  0  0
 53 64  1  0  0  0  0
 54 60  1  0  0  0  0
 55 61  1  0  0  0  0
 56 61  1  0  0  0  0
 57 61  1  0  0  0  0
 58 72  1  0  0  0  0
 59 61  1  0  0  0  0
 59 71  1  0  0  0  0
 60 72  1  0  0  0  0
 62 64  1  0  0  0  0
M  CHG  2  63  -1  72   1
M  ISO  4  37 101  41 100  69 100  82 101
M  END
> <Batch ID>
0080

> <Smiles>
CNC(C)C(=O)NC(C(=O)N1Cc2cc([101O:1][101C:1](=O)C(=O)NC(=O)c3ccc([100NH:0][100C:0](=O)N4CCCC(n5nc(-c6ccc(Oc7ccc(F)cc7F)cc6)c(C(N)=O)c5N)C4)cc3)ccc2CC1C(=O)NC1CCCc2ccccc21)C(C)(C)C

> <Shape>
0.254

> <Color>
0.146

> <Negative vol penalty>
0.000

$$$$

  -OEChem-04052300023D

 84 92  0     1  0  0  0  0  0999 V2000
  -30.4561  -25.0338   17.8615 C   0  0  0  0  0  0  0  0  0  0  0  0
  -29.0657  -25.0582   17.8987 C   0  0  0  0  0  0  0  0  0  0  0  0
  -26.2391  -14.5672   18.8865 C   0  0  0  0  0  0  0  0  0  0  0  0
  -24.2510  -14.7738   20.2436 C   0  0  0  0  0  0  0  0  0  0  0  0
  -19.7029  -23.4816   22.1599 C   0  0  0  0  0  0  0  0  0  0  0  0
  -21.2890  -24.8912   23.3151 C   0  0  0  0  0  0  0  0  0  0  0  0
  -31.1901  -25.5526   18.9273 C   0  0  0  0  0  0  0  0  0  0  0  0
  -28.4083  -25.6005   19.0025 C   0  0  0  0  0  0  0  0  0  0  0  0
  -23.1271  -28.7011   18.9848 C   0  0  0  0  0  0  0  0  0  0  0  0
  -20.7463  -22.8931   21.4454 C   0  0  0  0  0  0  0  0  0  0  0  0
  -22.3324  -24.3027   22.6006 C   0  0  0  0  0  0  0  0  0  0  0  0
  -26.4484  -13.2828   19.3886 C   0  0  0  0  0  0  0  0  0  0  0  0
  -24.4603  -13.4894   20.7457 C   0  0  0  0  0  0  0  0  0  0  0  0
  -21.8144  -28.3194   19.2585 C   0  0  0  0  0  0  0  0  0  0  0  0
  -24.2710  -10.1262   22.1137 C   0  0  0  0  0  0  0  0  0  0  0  0
  -23.1714   -9.2713   22.1886 C   0  0  0  0  0  0  0  0  0  0  0  0
  -22.0623  -29.1125   21.5231 C   0  0  0  0  0  0  0  0  0  0  0  0
  -22.8707   -9.4486   19.7980 C   0  0  0  0  0  0  0  0  0  0  0  0
  -25.1405  -15.3127   19.3141 C   0  0  0  0  0  0  0  0  0  0  0  0
  -19.9742  -24.4808   23.0947 C   0  0  0  0  0  0  0  0  0  0  0  0
  -24.1815  -16.9962   17.6545 C   0  0  0  0  0  0  0  0  0  0  0  0
  -30.5415  -26.1103   20.0403 C   0  0  0  0  0  0  0  0  0  0  0  0
  -23.9221  -29.2824   19.9830 C   0  0  0  0  0  0  0  0  0  0  0  0
  -29.1343  -26.1261   20.0848 C   0  0  0  0  0  0  0  0  0  0  0  0
  -23.3840  -29.5031   21.2588 C   0  0  0  0  0  0  0  0  0  0  0  0
  -22.0611  -23.3036   21.6658 C   0  0  0  0  0  0  0  0  0  0  0  0
  -25.5590  -12.7438   20.3182 C   0  0  0  0  0  0  0  0  0  0  0  0
  -21.2827  -28.5225   20.5286 C   0  0  0  0  0  0  0  0  0  0  0  0
  -24.6704  -10.6424   20.8810 C   0  0  0  0  0  0  0  0  0  0  0  0
  -22.4713   -8.9324   21.0308 C   0  0  0  0  0  0  0  0  0  0  0  0
  -23.9703  -10.3036   19.7231 C   0  0  0  0  0  0  0  0  0  0  0  0
  -24.9241  -16.6398   18.7962 C   0  0  0  0  0  0  0  0  0  0  0  0
  -24.2812  -18.3647   17.5936 C   0  0  0  0  0  0  0  0  0  0  0  0
  -16.4262  -27.9103   23.8371 C   0  0  0  0  0  0  0  0  0  0  0  0
  -18.8765  -25.1003   23.8480 C   0  0  0  0  0  0  0  0  0  0  0  0
  -17.1010  -26.8181   24.2175 C   0  0  0  0  0  0  0  0  0  0  0  0
  -23.4657  -16.1646   16.7317 C   0  0  0  0  0  0  0  0  0  0  0  0
  -18.1868  -26.1969   23.4824 C   0  0  0  0  0  0  0  0  0  0  0  0
  -18.5939  -26.7309   22.1480 C   0  0  0  0  0  0  0  0  0  0  0  0
  -26.6341  -28.4865   21.4375 C   0  0  0  0  0  0  0  0  0  0  0  0
  -26.3218  -31.4237   22.7784 C   0  0  0  0  0  0  0  0  0  0  0  0
  -24.2642  -33.9922   23.6818 C   0  0  0  0  0  0  0  0  0  0  0  0
  -24.4817  -22.9953   21.0399 C   0  0  0  0  0  0  0  0  0  0  0  0
  -31.3772  -26.6161   21.1894 C   0  0  0  0  0  0  0  0  0  0  0  0
  -25.3276  -29.7130   19.6641 C   0  0  0  0  0  0  0  0  0  0  0  0
  -24.1894  -30.1418   22.3596 C   0  0  0  0  0  0  0  0  0  0  0  0
  -30.6063  -27.5127   22.1549 C   0  0  0  0  0  0  0  0  0  0  0  0
  -27.4051  -21.7180   19.4591 C   0  0  0  0  0  0  0  0  0  0  0  0
  -29.2591  -26.8880   22.5034 C   0  0  0  0  0  0  0  0  0  0  0  0
  -26.9924  -20.3129   19.0146 C   0  0  0  0  0  0  0  0  0  0  0  0
  -26.7848  -22.0925   20.8039 C   0  0  0  0  0  0  0  0  0  0  0  0
  -24.9137  -20.5330   20.4350 C   0  0  0  0  0  0  0  0  0  0  0  0
  -28.3851  -26.7285   21.2535 C   0  0  1  0  0  0  0  0  0  0  0  0
  -26.2132  -29.8256   20.9012 C   0  0  1  0  0  0  0  0  0  0  0  0
  -25.4618  -20.1361   19.0546 C   0  0  2  0  0  0  0  0  0  0  0  0
  -24.2932  -36.2419   24.7931 C   0  0  0  0  0  0  0  0  0  0  0  0
  -26.5981  -30.0728   25.5003 C   0  0  0  0  0  0  0  0  0  0  0  0
  -25.6855  -32.1552   26.5486 C   0  0  0  0  0  0  0  0  0  0  0  0
  -27.8317  -32.2371   25.2797 C   0  0  0  0  0  0  0  0  0  0  0  0
  -23.2466  -35.3360   21.2491 C   0  0  0  0  0  0  0  0  0  0  0  0
  -19.7086  -27.7574   22.1387 C   0  0  0  0  0  0  0  0  0  1  0  0
  -25.6564  -31.9669   24.0199 C   0  0  1  0  0  0  0  0  0  0  0  0
  -24.3737  -35.4918   23.4727 C   0  0  2  0  0  0  0  0  0  0  0  0
  -26.4281  -31.5942   25.3172 C   0  0  0  0  0  0  0  0  0  0  0  0
  -25.4563  -17.6966   19.4158 N   0  0  0  0  0  0  0  0  0  0  0  0
  -25.0477  -18.7305   18.6607 N   0  0  0  0  0  0  0  0  0  0  0  0
  -25.5606  -30.5398   22.0004 N   0  0  0  0  0  0  0  0  0  0  0  0
  -25.3330  -21.9040   20.7657 N   0  0  0  0  0  0  0  0  0  0  0  0
  -23.7870  -19.2788   16.7318 N   0  0  0  0  0  0  0  0  0  0  0  0
  -23.4661  -14.7789   16.9420 N   0  0  0  0  0  0  0  0  0  0  0  0
  -23.1215  -22.7045   20.9417 N   0  0  0  0  0  0  0  0  0  0  0  0
  -27.8005  -27.9986   20.8801 N   0  0  0  0  0  0  0  0  0  0  0  0
  -25.5041  -33.4021   23.8066 N   0  0  0  0  0  0  0  0  0  0  0  0
  -23.2732  -35.9735   22.5907 N   0  3  0  0  0  0  0  0  0  0  0  0
  -22.8577  -16.6349   15.7404 O   0  0  0  0  0  0  0  0  0  0  0  0
  -18.0195  -26.3530   21.1296 O   0  0  0  0  0  0  0  0  0  0  0  0
  -25.9519  -27.9374   22.2947 O   0  0  0  0  0  0  0  0  0  0  0  0
  -27.4718  -31.7764   22.5050 O   0  0  0  0  0  0  0  0  0  0  0  0
  -23.1864  -33.4037   23.7332 O   0  0  0  0  0  0  0  0  0  0  0  0
  -24.9270  -24.1130   21.3132 O   0  0  0  0  0  0  0  0  0  0  0  0
  -25.7627  -11.4905   20.8081 O   0  0  0  0  0  0  0  0  0  0  0  0
  -20.0020  -28.1502   20.7986 O   0  0  0  0  0  0  0  0  0  1  0  0
  -21.4163   -8.1102   21.1026 F   0  0  0  0  0  0  0  0  0  0  0  0
  -24.3500  -10.7954   18.5358 F   0  0  0  0  0  0  0  0  0  0  0  0
  1  2  1  0  0  0  0
  1  7  2  0  0  0  0
  2  8  2  0  0  0  0
  3 12  2  0  0  0  0
  3 19  1  0  0  0  0
  4 13  1  0  0  0  0
  4 19  2  0  0  0  0
  5 10  2  0  0  0  0
  5 20  1  0  0  0  0
  6 11  1  0  0  0  0
  6 20  2  0  0  0  0
  7 22  1  0  0  0  0
  8 24  1  0  0  0  0
  9 14  2  0  0  0  0
  9 23  1  0  0  0  0
 10 26  1  0  0  0  0
 11 26  2  0  0  0  0
 12 27  1  0  0  0  0
 13 27  2  0  0  0  0
 14 28  1  0  0  0  0
 15 16  2  0  0  0  0
 15 29  1  0  0  0  0
 16 30  1  0  0  0  0
 17 25  1  0  0  0  0
 17 28  2  0  0  0  0
 18 30  2  0  0  0  0
 18 31  1  0  0  0  0
 19 32  1  0  0  0  0
 20 35  1  0  0  0  0
 21 32  1  0  0  0  0
 21 33  2  0  0  0  0
 21 37  1  0  0  0  0
 22 24  2  0  0  0  0
 22 44  1  0  0  0  0
 23 25  2  0  0  0  0
 23 45  1  0  0  0  0
 24 53  1  0  0  0  0
 25 46  1  0  0  0  0
 26 71  1  0  0  0  0
 27 81  1  0  0  0  0
 28 82  1  0  0  0  0
 29 31  2  0  0  0  0
 29 81  1  0  0  0  0
 30 83  1  0  0  0  0
 31 84  1  0  0  0  0
 32 65  2  0  0  0  0
 33 66  1  0  0  0  0
 33 69  1  0  0  0  0
 34 36  2  0  0  0  0
 35 38  2  0  0  0  0
 36 38  1  0  0  0  0
 37 70  1  0  0  0  0
 37 75  2  0  0  0  0
 38 39  1  0  0  0  0
 39 61  1  0  0  0  0
 39 76  2  0  0  0  0
 40 54  1  0  0  0  0
 40 72  1  0  0  0  0
 40 77  2  0  0  0  0
 41 62  1  0  0  0  0
 41 67  1  0  0  0  0
 41 78  2  0  0  0  0
 42 63  1  0  0  0  0
 42 73  1  0  0  0  0
 42 79  2  0  0  0  0
 43 68  1  0  0  0  0
 43 71  1  0  0  0  0
 43 80  2  0  0  0  0
 44 47  1  0  0  0  0
 45 54  1  0  0  0  0
 46 67  1  0  0  0  0
 47 49  1  0  0  0  0
 48 50  1  0  0  0  0
 48 51  1  0  0  0  0
 49 53  1  0  0  0  0
 50 55  1  0  0  0  0
 51 68  1  0  0  0  0
 52 55  1  0  0  0  0
 52 68  1  0  0  0  0
 53 72  1  0  0  0  0
 54 67  1  0  0  0  0
 55 66  1  0  0  0  0
 56 63  1  0  0  0  0
 57 64  1  0  0  0  0
 58 64  1  0  0  0  0
 59 64  1  0  0  0  0
 60 74  1  0  0  0  0
 61 82  1  0  0  0  0
 62 64  1  0  0  0  0
 62 73  1  0  0  0  0
 63 74  1  0  0  0  0
 65 66  1  0  0  0  0
M  CHG  1  74   1
M  ISO  4  43 100  61 101  71 100  82 101
M  END
> <Batch ID>
0080

> <Smiles>
C=CC(=Cc1ccc([100NH:0][100C:0](=O)N2CCCC(n3nc(-c4ccc(Oc5ccc(F)cc5F)cc4)c(C(N)=O)c3N)C2)cc1)C(=O)[101CH2:1][101O:1]c1ccc2c(c1)CN(C(=O)C(NC(=O)C(C)NC)C(C)(C)C)C(C(=O)NC1CCCc3ccccc31)C2

> <Shape>
0.296

> <Color>
0.082

> <Negative vol penalty>
0.000

$$$$

  -OEChem-04052300023D

 85 93  0     1  0  0  0  0  0999 V2000
  -20.5286  -35.2165   20.7335 C   0  0  0  0  0  0  0  0  0  0  0  0
  -21.6944  -34.5343   20.4004 C   0  0  0  0  0  0  0  0  0  0  0  0
  -32.8611  -22.5546   17.7300 C   0  0  0  0  0  0  0  0  0  0  0  0
  -27.1334  -12.8166   20.9596 C   0  0  0  0  0  0  0  0  0  0  0  0
  -27.0728  -13.1557   18.5683 C   0  0  0  0  0  0  0  0  0  0  0  0
  -32.8923  -23.7451   18.4563 C   0  0  0  0  0  0  0  0  0  0  0  0
  -19.7818  -34.8186   21.8416 C   0  0  0  0  0  0  0  0  0  0  0  0
  -22.1147  -33.4543   21.1760 C   0  0  0  0  0  0  0  0  0  0  0  0
  -24.9585  -28.3980   19.2134 C   0  0  0  0  0  0  0  0  0  0  0  0
  -31.7028  -21.7776   17.7141 C   0  0  0  0  0  0  0  0  0  0  0  0
  -26.4658  -11.6018   20.8043 C   0  0  0  0  0  0  0  0  0  0  0  0
  -26.4052  -11.9409   18.4129 C   0  0  0  0  0  0  0  0  0  0  0  0
  -26.3012  -28.0228   19.1986 C   0  0  0  0  0  0  0  0  0  0  0  0
  -24.4579   -8.5814   21.0685 C   0  0  0  0  0  0  0  0  0  0  0  0
  -23.4035   -8.3034   21.9382 C   0  0  0  0  0  0  0  0  0  0  0  0
  -30.6071  -23.3813   19.1509 C   0  0  0  0  0  0  0  0  0  0  0  0
  -25.9821  -26.8215   21.2660 C   0  0  0  0  0  0  0  0  0  0  0  0
  -22.2393  -10.2705   21.1558 C   0  0  0  0  0  0  0  0  0  0  0  0
  -27.4369  -13.5936   19.8416 C   0  0  0  0  0  0  0  0  0  0  0  0
  -31.7654  -24.1584   19.1667 C   0  0  0  0  0  0  0  0  0  0  0  0
  -29.5177  -15.0613   19.9962 C   0  0  0  0  0  0  0  0  0  0  0  0
  -20.1880  -33.7272   22.6255 C   0  0  0  0  0  0  0  0  0  0  0  0
  -24.1187  -27.9961   20.2620 C   0  0  0  0  0  0  0  0  0  0  0  0
  -21.3733  -33.0423   22.2964 C   0  0  0  0  0  0  0  0  0  0  0  0
  -24.6285  -27.1907   21.2904 C   0  0  0  0  0  0  0  0  0  0  0  0
  -30.5758  -22.1909   18.4245 C   0  0  0  0  0  0  0  0  0  0  0  0
  -26.1017  -11.1639   19.5310 C   0  0  0  0  0  0  0  0  0  0  0  0
  -26.8139  -27.2369   20.2264 C   0  0  0  0  0  0  0  0  0  0  0  0
  -24.4031   -9.7041   20.2425 C   0  0  0  0  0  0  0  0  0  0  0  0
  -22.2942   -9.1479   21.9819 C   0  0  0  0  0  0  0  0  0  0  0  0
  -23.2938  -10.5486   20.2861 C   0  0  0  0  0  0  0  0  0  0  0  0
  -28.1260  -14.8488   20.0015 C   0  0  0  0  0  0  0  0  0  0  0  0
  -29.6591  -16.4145   20.1836 C   0  0  0  0  0  0  0  0  0  0  0  0
  -31.8001  -25.4266   19.9398 C   0  0  0  0  0  0  0  0  0  0  0  0
  -30.5869  -14.1196   19.8360 C   0  0  0  0  0  0  0  0  0  0  0  0
  -22.4376  -29.5095   22.4952 C   0  0  0  0  0  0  0  0  0  0  0  0
  -21.3541  -26.5231   23.1507 C   0  0  0  0  0  0  0  0  0  0  0  0
  -21.8766  -23.1538   23.0016 C   0  0  0  0  0  0  0  0  0  0  0  0
  -28.9895  -27.7661   20.8657 C   0  0  0  0  0  0  0  0  0  1  0  0
  -28.1945  -21.6672   19.0581 C   0  0  0  0  0  0  0  0  0  0  0  0
  -19.3733  -33.3637   23.8415 C   0  0  0  0  0  0  0  0  0  0  0  0
  -22.6663  -28.3869   20.2494 C   0  0  0  0  0  0  0  0  0  0  0  0
  -23.7638  -26.7161   22.4285 C   0  0  0  0  0  0  0  0  0  0  0  0
  -19.6868  -31.9748   24.3919 C   0  0  0  0  0  0  0  0  0  0  0  0
  -26.2623  -19.9313   21.4933 C   0  0  0  0  0  0  0  0  0  0  0  0
  -21.1949  -31.7647   24.4831 C   0  0  0  0  0  0  0  0  0  0  0  0
  -26.6894  -18.4718   21.3218 C   0  0  0  0  0  0  0  0  0  0  0  0
  -26.2024  -20.6657   20.1551 C   0  0  0  0  0  0  0  0  0  0  0  0
  -27.8512  -19.1208   19.1734 C   0  0  0  0  0  0  0  0  0  0  0  0
  -21.8486  -31.8504   23.0986 C   0  0  1  0  0  0  0  0  0  0  0  0
  -22.0255  -28.3497   21.6334 C   0  0  1  0  0  0  0  0  0  0  0  0
  -27.9888  -18.3576   20.5009 C   0  0  2  0  0  0  0  0  0  0  0  0
  -20.8315  -20.9676   23.6538 C   0  0  0  0  0  0  0  0  0  0  0  0
  -31.2736  -28.3852   20.1078 C   0  0  0  0  0  0  0  0  0  0  0  0
  -30.9448  -27.1263   22.2638 C   0  0  0  0  0  0  0  0  0  0  0  0
  -22.1859  -26.9927   26.0485 C   0  0  0  0  0  0  0  0  0  0  0  0
  -22.0140  -24.5235   26.4249 C   0  0  0  0  0  0  0  0  0  0  0  0
  -19.9909  -25.8271   25.7690 C   0  0  0  0  0  0  0  0  0  0  0  0
  -21.7126  -22.2594   20.1852 C   0  0  0  0  0  0  0  0  0  0  0  0
  -21.7990  -25.3988   24.0546 C   0  0  1  0  0  0  0  0  0  0  0  0
  -20.9772  -22.0136   22.5596 C   0  0  2  0  0  0  0  0  0  0  0  0
  -30.4534  -27.3120   20.8272 C   0  0  0  0  0  0  0  0  0  0  0  0
  -21.5145  -25.6959   25.5540 C   0  0  0  0  0  0  0  0  0  0  0  0
  -27.4329  -15.9767   20.1785 N   0  0  0  0  0  0  0  0  0  0  0  0
  -28.3930  -16.9110   20.2862 N   0  0  0  0  0  0  0  0  0  0  0  0
  -22.3519  -27.1297   22.3747 N   0  0  0  0  0  0  0  0  0  0  0  0
  -27.4690  -20.5173   19.4351 N   0  0  0  0  0  0  0  0  0  0  0  0
  -30.7418  -17.2163   20.2692 N   0  0  0  0  0  0  0  0  0  0  0  0
  -30.2649  -12.7678   19.6532 N   0  0  0  0  0  0  0  0  0  0  0  0
  -29.3992  -21.4015   18.4080 N   0  0  0  0  0  0  0  0  0  0  0  0
  -30.5801  -26.0560   20.1176 N   0  0  0  0  0  0  0  0  0  0  0  0
  -21.6323  -30.6243   22.3608 N   0  0  0  0  0  0  0  0  0  0  0  0
  -21.1534  -24.1910   23.5518 N   0  0  0  0  0  0  0  0  0  0  0  0
  -21.5379  -21.3514   21.3480 N   0  3  0  0  0  0  0  0  0  0  0  0
  -32.8775  -25.8493   20.3509 O   0  0  0  0  0  0  0  0  0  0  0  0
  -31.7925  -14.4642   19.8708 O   0  0  0  0  0  0  0  0  0  0  0  0
  -23.4130  -29.4004   23.2289 O   0  0  0  0  0  0  0  0  0  0  0  0
  -20.1638  -26.8462   23.1285 O   0  0  0  0  0  0  0  0  0  0  0  0
  -23.0988  -23.1256   22.8752 O   0  0  0  0  0  0  0  0  0  0  0  0
  -28.6244  -28.8042   21.4098 O   0  0  0  0  0  0  0  0  0  0  0  0
  -27.7908  -22.8035   19.3186 O   0  0  0  0  0  0  0  0  0  0  0  0
  -25.4504   -9.9784   19.3790 O   0  0  0  0  0  0  0  0  0  0  0  0
  -28.1242  -26.8698   20.2148 O   0  0  0  0  0  0  0  0  0  1  0  0
  -21.2810   -8.8798   22.8160 F   0  0  0  0  0  0  0  0  0  0  0  0
  -23.2349  -11.6280   19.4941 F   0  0  0  0  0  0  0  0  0  0  0  0
  1  2  1  0  0  0  0
  1  7  2  0  0  0  0
  2  8  2  0  0  0  0
  3  6  2  0  0  0  0
  3 10  1  0  0  0  0
  4 11  2  0  0  0  0
  4 19  1  0  0  0  0
  5 12  1  0  0  0  0
  5 19  2  0  0  0  0
  6 20  1  0  0  0  0
  7 22  1  0  0  0  0
  8 24  1  0  0  0  0
  9 13  2  0  0  0  0
  9 23  1  0  0  0  0
 10 26  2  0  0  0  0
 11 27  1  0  0  0  0
 12 27  2  0  0  0  0
 13 28  1  0  0  0  0
 14 15  2  0  0  0  0
 14 29  1  0  0  0  0
 15 30  1  0  0  0  0
 16 20  2  0  0  0  0
 16 26  1  0  0  0  0
 17 25  1  0  0  0  0
 17 28  2  0  0  0  0
 18 30  2  0  0  0  0
 18 31  1  0  0  0  0
 19 32  1  0  0  0  0
 20 34  1  0  0  0  0
 21 32  1  0  0  0  0
 21 33  2  0  0  0  0
 21 35  1  0  0  0  0
 22 24  2  0  0  0  0
 22 41  1  0  0  0  0
 23 25  2  0  0  0  0
 23 42  1  0  0  0  0
 24 50  1  0  0  0  0
 25 43  1  0  0  0  0
 26 70  1  0  0  0  0
 27 82  1  0  0  0  0
 28 83  1  0  0  0  0
 29 31  2  0  0  0  0
 29 82  1  0  0  0  0
 30 84  1  0  0  0  0
 31 85  1  0  0  0  0
 32 64  2  0  0  0  0
 33 65  1  0  0  0  0
 33 68  1  0  0  0  0
 34 71  1  0  0  0  0
 34 75  2  0  0  0  0
 35 69  1  0  0  0  0
 35 76  2  0  0  0  0
 36 51  1  0  0  0  0
 36 72  1  0  0  0  0
 36 77  2  0  0  0  0
 37 60  1  0  0  0  0
 37 66  1  0  0  0  0
 37 78  2  0  0  0  0
 38 61  1  0  0  0  0
 38 73  1  0  0  0  0
 38 79  2  0  0  0  0
 39 62  1  0  0  0  0
 39 80  2  0  0  0  0
 39 83  1  0  0  0  0
 40 67  1  0  0  0  0
 40 70  1  0  0  0  0
 40 81  2  0  0  0  0
 41 44  1  0  0  0  0
 42 51  1  0  0  0  0
 43 66  1  0  0  0  0
 44 46  1  0  0  0  0
 45 47  1  0  0  0  0
 45 48  1  0  0  0  0
 46 50  1  0  0  0  0
 47 52  1  0  0  0  0
 48 67  1  0  0  0  0
 49 52  1  0  0  0  0
 49 67  1  0  0  0  0
 50 72  1  0  0  0  0
 51 66  1  0  0  0  0
 52 65  1  0  0  0  0
 53 61  1  0  0  0  0
 54 62  1  0  0  0  0
 55 62  1  0  0  0  0
 56 63  1  0  0  0  0
 57 63  1  0  0  0  0
 58 63  1  0  0  0  0
 59 74  1  0  0  0  0
 60 63  1  0  0  0  0
 60 73  1  0  0  0  0
 61 74  1  0  0  0  0
 62 71  1  0  0  0  0
 64 65  1  0  0  0  0
M  CHG  1  74   1
M  ISO  4  39 101  40 100  70 100  83 101
M  END
> <Batch ID>
0080

> <Smiles>
CNC(C)C(=O)NC(C(=O)N1Cc2cc([101O:1][101C:1](=O)C(C)(C)NC(=O)c3cccc([100NH:0][100C:0](=O)N4CCCC(n5nc(-c6ccc(Oc7ccc(F)cc7F)cc6)c(C(N)=O)c5N)C4)c3)ccc2CC1C(=O)NC1CCCc2ccccc21)C(C)(C)C

> <Shape>
0.244

> <Color>
0.077

> <Negative vol penalty>
0.000

$$$$

  -OEChem-04052300023D

 87 96  0     1  0  0  0  0  0999 V2000
  -21.0795   -8.3893   20.8048 C   0  0  0  0  0  0  0  0  0  0  0  0
  -20.7216   -9.7214   20.9866 C   0  0  0  0  0  0  0  0  0  0  0  0
  -28.0786  -27.9892   22.1445 C   0  0  0  0  0  0  0  0  0  0  0  0
  -27.6532  -29.6003   20.3951 C   0  0  0  0  0  0  0  0  0  0  0  0
  -19.5387  -25.5118   21.8457 C   0  0  0  0  0  0  0  0  0  0  0  0
  -22.3722   -7.9677   21.1132 C   0  0  0  0  0  0  0  0  0  0  0  0
  -21.6561  -10.6324   21.4778 C   0  0  0  0  0  0  0  0  0  0  0  0
  -22.1750  -16.5463   19.9737 C   0  0  0  0  0  0  0  0  0  0  0  0
  -19.9663  -24.3284   22.4478 C   0  0  0  0  0  0  0  0  0  0  0  0
  -29.2122  -27.5476   21.4622 C   0  0  0  0  0  0  0  0  0  0  0  0
  -28.7869  -29.1588   19.7128 C   0  0  0  0  0  0  0  0  0  0  0  0
  -21.7349  -17.7142   20.5950 C   0  0  0  0  0  0  0  0  0  0  0  0
  -32.0172  -25.7514   20.0031 C   0  0  0  0  0  0  0  0  0  0  0  0
  -32.2150  -24.3750   19.8936 C   0  0  0  0  0  0  0  0  0  0  0  0
  -21.3002  -26.7216   22.9726 C   0  0  0  0  0  0  0  0  0  0  0  0
  -23.9000  -17.9742   21.6265 C   0  0  0  0  0  0  0  0  0  0  0  0
  -30.1129  -24.1661   18.7212 C   0  0  0  0  0  0  0  0  0  0  0  0
  -27.2990  -29.0155   21.6109 C   0  0  0  0  0  0  0  0  0  0  0  0
  -20.2056  -26.7084   22.1081 C   0  0  0  0  0  0  0  0  0  0  0  0
  -26.0744  -30.0223   23.6095 C   0  0  0  0  0  0  0  0  0  0  0  0
  -23.3257   -8.8760   21.5993 C   0  0  0  0  0  0  0  0  0  0  0  0
  -23.4796  -16.0768   20.1832 C   0  0  0  0  0  0  0  0  0  0  0  0
  -22.9624  -10.2222   21.7942 C   0  0  0  0  0  0  0  0  0  0  0  0
  -24.3550  -16.8014   21.0047 C   0  0  0  0  0  0  0  0  0  0  0  0
  -21.0609  -24.3417   23.3123 C   0  0  0  0  0  0  0  0  0  0  0  0
  -29.5664  -28.1324   20.2464 C   0  0  0  0  0  0  0  0  0  0  0  0
  -22.5965  -18.4268   21.4238 C   0  0  0  0  0  0  0  0  0  0  0  0
  -30.8672  -26.3352   19.4717 C   0  0  0  0  0  0  0  0  0  0  0  0
  -31.2629  -23.5824   19.2527 C   0  0  0  0  0  0  0  0  0  0  0  0
  -21.7278  -25.5384   23.5747 C   0  0  0  0  0  0  0  0  0  0  0  0
  -29.9151  -25.5426   18.8307 C   0  0  0  0  0  0  0  0  0  0  0  0
  -26.1276  -29.4717   22.3149 C   0  0  0  0  0  0  0  0  0  0  0  0
  -24.7430  -30.2909   23.8139 C   0  0  0  0  0  0  0  0  0  0  0  0
  -21.7715  -20.7967   25.5688 C   0  0  0  0  0  0  0  0  0  0  0  0
  -21.7833  -20.6832   24.1029 C   0  0  0  0  0  0  0  0  0  0  0  0
  -21.7975  -22.1473   26.1485 C   0  0  0  0  0  0  0  0  0  0  0  0
  -21.3268  -21.8720   23.2906 C   0  0  0  0  0  0  0  0  0  0  0  0
  -21.7442  -19.6999   26.3525 C   0  0  0  0  0  0  0  0  0  0  0  0
  -21.4057  -22.4804   27.3898 C   0  0  0  0  0  0  0  0  0  0  0  0
  -22.1821  -19.6110   23.3978 C   0  0  0  0  0  0  0  0  0  1  0  0
  -19.7566  -27.9543   21.4734 C   0  0  0  0  0  0  0  0  0  0  0  0
  -27.1337  -30.2690   24.5436 C   0  0  0  0  0  0  0  0  0  0  0  0
  -24.7414  -13.4405   21.4328 C   0  0  0  0  0  0  0  0  0  0  0  0
  -27.5225  -14.7469   20.3931 C   0  0  0  0  0  0  0  0  0  0  0  0
  -29.0276  -18.0251   20.3225 C   0  0  0  0  0  0  0  0  0  0  0  0
  -24.6968   -8.3637   21.9633 C   0  0  0  0  0  0  0  0  0  0  0  0
  -23.9475  -14.8297   19.4845 C   0  0  0  0  0  0  0  0  0  0  0  0
  -25.7717  -16.3508   21.2461 C   0  0  0  0  0  0  0  0  0  0  0  0
  -22.2834  -23.1976   25.1785 C   0  0  0  0  0  0  0  0  0  0  0  0
  -25.7369   -9.4692   22.1251 C   0  0  0  0  0  0  0  0  0  0  0  0
  -20.7286  -31.3889   21.4505 C   0  0  0  0  0  0  0  0  0  0  0  0
  -25.1781  -10.6082   22.9720 C   0  0  0  0  0  0  0  0  0  0  0  0
  -22.2234  -31.3393   21.7718 C   0  0  0  0  0  0  0  0  0  0  0  0
  -20.2963  -30.2008   20.5949 C   0  0  0  0  0  0  0  0  0  0  0  0
  -22.1513  -28.8276   21.4770 C   0  0  0  0  0  0  0  0  0  0  0  0
  -23.9551  -11.2455   22.3015 C   0  0  1  0  0  0  0  0  0  0  0  0
  -25.1339  -14.1662   20.1770 C   0  0  1  0  0  0  0  0  0  0  0  0
  -22.6183  -29.9807   22.3806 C   0  0  1  0  0  0  0  0  0  0  0  0
  -30.7299  -19.0055   18.7609 C   0  0  0  0  0  0  0  0  0  0  0  0
  -29.5444  -13.8348   22.4884 C   0  0  0  0  0  0  0  0  0  0  0  0
  -30.8307  -15.9401   22.0625 C   0  0  0  0  0  0  0  0  0  0  0  0
  -30.5147  -14.2806   20.2270 C   0  0  0  0  0  0  0  0  0  0  0  0
  -27.2710  -20.3124   19.6577 C   0  0  0  0  0  0  0  0  0  0  0  0
  -28.5507  -15.6819   20.9828 C   0  0  1  0  0  0  0  0  0  0  0  0
  -29.2513  -18.8962   19.0995 C   0  0  2  0  0  0  0  0  0  0  0  0
  -29.8328  -14.9354   21.4480 C   0  0  0  0  0  0  0  0  0  0  0  0
  -24.9255  -29.3944   21.7377 N   0  0  0  0  0  0  0  0  0  0  0  0
  -24.1045  -29.8998   22.6739 N   0  0  0  0  0  0  0  0  0  0  0  0
  -21.4997  -23.1169   23.9331 N   0  0  0  0  0  0  0  0  0  0  0  0
  -20.7102  -28.9411   21.2118 N   0  0  0  0  0  0  0  0  0  0  0  0
  -26.1802  -15.1220   20.5455 N   0  0  0  0  0  0  0  0  0  0  0  0
  -24.0679  -30.8211   24.8558 N   0  0  0  0  0  0  0  0  0  0  0  0
  -27.7821  -31.5110   24.5059 N   0  0  0  0  0  0  0  0  0  0  0  0
  -24.3679  -12.1257   21.2295 N   0  0  0  0  0  0  0  0  0  0  0  0
  -28.7903  -16.7114   19.9773 N   0  0  0  0  0  0  0  0  0  0  0  0
  -28.7209  -20.2685   19.3370 N   0  3  0  0  0  0  0  0  0  0  0  0
  -20.8763  -21.7024   22.1583 O   0  0  0  0  0  0  0  0  0  0  0  0
  -18.5539  -28.0369   21.2290 O   0  0  0  0  0  0  0  0  0  0  0  0
  -27.5057  -29.4073   25.3759 O   0  0  0  0  0  0  0  0  0  0  0  0
  -24.7763  -14.0294   22.5069 O   0  0  0  0  0  0  0  0  0  0  0  0
  -27.8969  -13.7250   19.8123 O   0  0  0  0  0  0  0  0  0  0  0  0
  -29.0637  -18.4653   21.4694 O   0  0  0  0  0  0  0  0  0  0  0  0
  -30.6726  -27.7019   19.5805 O   0  0  0  0  0  0  0  0  0  0  0  0
  -22.1693  -19.5668   22.0319 O   0  0  0  0  0  0  0  0  0  1  0  0
  -31.4537  -22.2608   19.1463 F   0  0  0  0  0  0  0  0  0  0  0  0
  -22.7811  -25.5633   24.4041 F   0  0  0  0  0  0  0  0  0  0  0  0
  -28.8088  -26.0978   18.3172 F   0  0  0  0  0  0  0  0  0  0  0  0
  1  2  1  0  0  0  0
  1  6  2  0  0  0  0
  2  7  2  0  0  0  0
  3 10  2  0  0  0  0
  3 18  1  0  0  0  0
  4 11  1  0  0  0  0
  4 18  2  0  0  0  0
  5  9  2  0  0  0  0
  5 19  1  0  0  0  0
  6 21  1  0  0  0  0
  7 23  1  0  0  0  0
  8 12  2  0  0  0  0
  8 22  1  0  0  0  0
  9 25  1  0  0  0  0
 10 26  1  0  0  0  0
 11 26  2  0  0  0  0
 12 27  1  0  0  0  0
 13 14  2  0  0  0  0
 13 28  1  0  0  0  0
 14 29  1  0  0  0  0
 15 19  2  0  0  0  0
 15 30  1  0  0  0  0
 16 24  1  0  0  0  0
 16 27  2  0  0  0  0
 17 29  2  0  0  0  0
 17 31  1  0  0  0  0
 18 32  1  0  0  0  0
 19 41  1  0  0  0  0
 20 32  1  0  0  0  0
 20 33  2  0  0  0  0
 20 42  1  0  0  0  0
 21 23  2  0  0  0  0
 21 46  1  0  0  0  0
 22 24  2  0  0  0  0
 22 47  1  0  0  0  0
 23 56  1  0  0  0  0
 24 48  1  0  0  0  0
 25 30  2  0  0  0  0
 25 69  1  0  0  0  0
 26 83  1  0  0  0  0
 27 84  1  0  0  0  0
 28 31  2  0  0  0  0
 28 83  1  0  0  0  0
 29 85  1  0  0  0  0
 30 86  1  0  0  0  0
 31 87  1  0  0  0  0
 32 67  2  0  0  0  0
 33 68  1  0  0  0  0
 33 72  1  0  0  0  0
 34 35  1  0  0  0  0
 34 36  1  0  0  0  0
 34 38  2  0  0  0  0
 35 37  1  0  0  0  0
 35 40  2  0  0  0  0
 36 39  2  0  0  0  0
 36 49  1  0  0  0  0
 37 69  1  0  0  0  0
 37 77  2  0  0  0  0
 40 84  1  0  0  0  0
 41 70  1  0  0  0  0
 41 78  2  0  0  0  0
 42 73  1  0  0  0  0
 42 79  2  0  0  0  0
 43 57  1  0  0  0  0
 43 74  1  0  0  0  0
 43 80  2  0  0  0  0
 44 64  1  0  0  0  0
 44 71  1  0  0  0  0
 44 81  2  0  0  0  0
 45 65  1  0  0  0  0
 45 75  1  0  0  0  0
 45 82  2  0  0  0  0
 46 50  1  0  0  0  0
 47 57  1  0  0  0  0
 48 71  1  0  0  0  0
 49 69  1  0  0  0  0
 50 52  1  0  0  0  0
 51 53  1  0  0  0  0
 51 54  1  0  0  0  0
 52 56  1  0  0  0  0
 53 58  1  0  0  0  0
 54 70  1  0  0  0  0
 55 58  1  0  0  0  0
 55 70  1  0  0  0  0
 56 74  1  0  0  0  0
 57 71  1  0  0  0  0
 58 68  1  0  0  0  0
 59 65  1  0  0  0  0
 60 66  1  0  0  0  0
 61 66  1  0  0  0  0
 62 66  1  0  0  0  0
 63 76  1  0  0  0  0
 64 66  1  0  0  0  0
 64 75  1  0  0  0  0
 65 76  1  0  0  0  0
 67 68  1  0  0  0  0
M  CHG  1  76   1
M  ISO  4  19 100  40 101  41 100  84 101
M  END
> <Batch ID>
0080

> <Smiles>
C=C1CN(c2cc[100c:0]([100C:0](=O)N3CCCC(n4nc(-c5ccc(Oc6ccc(F)cc6F)cc5)c(C(N)=O)c4N)C3)cc2F)C(=O)C(=[101CH:1][101O:1]c2ccc3c(c2)CN(C(=O)C(NC(=O)C(C)NC)C(C)(C)C)C(C(=O)NC2CCCc4ccccc42)C3)C1=C

> <Shape>
0.307

> <Color>
0.008

> <Negative vol penalty>
0.000

$$$$

  -OEChem-04052300023D

 85 94  0     1  0  0  0  0  0999 V2000
  -28.7701  -34.6849   16.2330 C   0  0  0  0  0  0  0  0  0  0  0  0
  -28.8642  -33.3872   16.7256 C   0  0  0  0  0  0  0  0  0  0  0  0
  -24.0814   -9.6965   22.2603 C   0  0  0  0  0  0  0  0  0  0  0  0
  -24.5297  -11.3748   23.9394 C   0  0  0  0  0  0  0  0  0  0  0  0
  -28.4027  -35.7271   17.0832 C   0  0  0  0  0  0  0  0  0  0  0  0
  -28.5919  -33.1312   18.0690 C   0  0  0  0  0  0  0  0  0  0  0  0
  -25.6805  -29.0383   18.7151 C   0  0  0  0  0  0  0  0  0  0  0  0
  -28.1782  -20.5473   19.3038 C   0  0  0  0  0  0  0  0  0  0  0  0
  -30.5677  -20.2134   19.1796 C   0  0  0  0  0  0  0  0  0  0  0  0
  -27.9816  -19.1684   19.2292 C   0  0  0  0  0  0  0  0  0  0  0  0
  -30.3712  -18.8344   19.1050 C   0  0  0  0  0  0  0  0  0  0  0  0
  -23.6769   -8.8079   23.2565 C   0  0  0  0  0  0  0  0  0  0  0  0
  -24.1252  -10.4862   24.9356 C   0  0  0  0  0  0  0  0  0  0  0  0
  -26.2997  -27.7936   18.6108 C   0  0  0  0  0  0  0  0  0  0  0  0
  -20.9327   -8.2812   25.1603 C   0  0  0  0  0  0  0  0  0  0  0  0
  -19.7616   -7.5548   24.9446 C   0  0  0  0  0  0  0  0  0  0  0  0
  -26.3980  -27.6476   21.0167 C   0  0  0  0  0  0  0  0  0  0  0  0
  -21.0097   -5.4929   25.1116 C   0  0  0  0  0  0  0  0  0  0  0  0
  -24.5078  -10.9800   22.6017 C   0  0  0  0  0  0  0  0  0  0  0  0
  -24.1197  -12.8148   20.8725 C   0  0  0  0  0  0  0  0  0  0  0  0
  -28.1163  -35.4821   18.4355 C   0  0  0  0  0  0  0  0  0  0  0  0
  -25.4248  -29.6029   19.9730 C   0  0  0  0  0  0  0  0  0  0  0  0
  -28.2215  -34.1712   18.9383 C   0  0  0  0  0  0  0  0  0  0  0  0
  -25.7731  -28.8985   21.1343 C   0  0  0  0  0  0  0  0  0  0  0  0
  -29.4712  -21.0698   19.2789 C   0  0  0  0  0  0  0  0  0  0  0  0
  -29.0781  -18.3119   19.1298 C   0  0  0  0  0  0  0  0  0  0  0  0
  -23.6988   -9.2027   24.5941 C   0  0  0  0  0  0  0  0  0  0  0  0
  -26.6612  -27.0993   19.7617 C   0  0  0  0  0  0  0  0  0  0  0  0
  -22.1423   -7.6134   25.3516 C   0  0  0  0  0  0  0  0  0  0  0  0
  -19.8001   -6.1607   24.9202 C   0  0  0  0  0  0  0  0  0  0  0  0
  -22.1809   -6.2193   25.3273 C   0  0  0  0  0  0  0  0  0  0  0  0
  -24.9262  -11.8982   21.5732 C   0  0  0  0  0  0  0  0  0  0  0  0
  -24.9847  -13.4457   20.0122 C   0  0  0  0  0  0  0  0  0  0  0  0
  -29.3278  -24.7162   19.5040 C   0  0  0  0  0  0  0  0  0  0  0  0
  -30.7548  -24.5267   19.4313 C   0  0  0  0  0  0  0  0  0  0  0  0
  -28.6384  -23.3967   19.4548 C   0  0  0  0  0  0  0  0  0  0  0  0
  -31.7175  -25.4548   19.4459 C   0  0  0  0  0  0  0  0  0  0  0  0
  -28.6312  -25.8485   19.6019 C   0  0  0  0  0  0  0  0  0  1  0  0
  -22.7142  -13.0731   20.9890 C   0  0  0  0  0  0  0  0  0  0  0  0
  -26.3627  -32.2392   21.4810 C   0  0  0  0  0  0  0  0  0  0  0  0
  -24.2161  -31.2612   23.7076 C   0  0  0  0  0  0  0  0  0  0  0  0
  -22.4622  -28.6904   25.1083 C   0  0  0  0  0  0  0  0  0  0  0  0
  -29.8573  -15.9229   18.9518 C   0  0  0  0  0  0  0  0  0  0  0  0
  -27.7691  -36.6482   19.3267 C   0  0  0  0  0  0  0  0  0  0  0  0
  -24.7319  -30.9345   20.0688 C   0  0  0  0  0  0  0  0  0  0  0  0
  -25.5022  -29.4518   22.5087 C   0  0  0  0  0  0  0  0  0  0  0  0
  -30.9975  -23.0509   19.3321 C   0  0  0  0  0  0  0  0  0  0  0  0
  -27.1331  -36.2342   20.6513 C   0  0  0  0  0  0  0  0  0  0  0  0
  -29.7741  -12.3676   18.7787 C   0  0  0  0  0  0  0  0  0  0  0  0
  -27.9175  -35.0899   21.2855 C   0  0  0  0  0  0  0  0  0  0  0  0
  -28.4391  -12.0039   19.4327 C   0  0  0  0  0  0  0  0  0  0  0  0
  -30.4354  -13.5613   19.4654 C   0  0  0  0  0  0  0  0  0  0  0  0
  -28.2510  -14.3885   20.2483 C   0  0  0  0  0  0  0  0  0  0  0  0
  -27.9099  -33.8496   20.3839 C   0  0  1  0  0  0  0  0  0  0  0  0
  -24.9850  -31.6458   21.3945 C   0  0  1  0  0  0  0  0  0  0  0  0
  -27.5160  -13.2326   19.5503 C   0  0  2  0  0  0  0  0  0  0  0  0
  -20.8160  -28.1944   26.9362 C   0  0  0  0  0  0  0  0  0  0  0  0
  -26.4499  -31.4779   25.7748 C   0  0  0  0  0  0  0  0  0  0  0  0
  -25.0521  -30.0981   27.3274 C   0  0  0  0  0  0  0  0  0  0  0  0
  -24.2261  -32.3197   26.5497 C   0  0  0  0  0  0  0  0  0  0  0  0
  -20.4379  -27.7188   23.1803 C   0  0  0  0  0  0  0  0  0  0  0  0
  -24.2717  -30.3783   24.9308 C   0  0  1  0  0  0  0  0  0  0  0  0
  -20.9942  -28.5511   25.4686 C   0  0  2  0  0  0  0  0  0  0  0  0
  -25.0069  -31.0587   26.1199 C   0  0  0  0  0  0  0  0  0  0  0  0
  -26.2054  -11.9396   21.1909 N   0  0  0  0  0  0  0  0  0  0  0  0
  -26.2091  -12.8899   20.2407 N   0  0  0  0  0  0  0  0  0  0  0  0
  -29.6675  -22.4452   19.3529 N   0  0  0  0  0  0  0  0  0  0  0  0
  -24.8283  -30.7601   22.5500 N   0  0  0  0  0  0  0  0  0  0  0  0
  -29.5034  -14.6887   19.5370 N   0  0  0  0  0  0  0  0  0  0  0  0
  -24.8099  -14.4160   19.0900 N   0  0  0  0  0  0  0  0  0  0  0  0
  -21.9744  -12.3351   21.9231 N   0  0  0  0  0  0  0  0  0  0  0  0
  -28.8788  -16.9111   19.0540 N   0  0  0  0  0  0  0  0  0  0  0  0
  -26.6432  -33.1574   20.4871 N   0  0  0  0  0  0  0  0  0  0  0  0
  -22.8941  -29.9951   25.2206 N   0  0  0  0  0  0  0  0  0  0  0  0
  -20.3576  -27.4846   24.6451 N   0  3  0  0  0  0  0  0  0  0  0  0
  -27.4330  -23.2161   19.4964 O   0  0  0  0  0  0  0  0  0  0  0  0
  -22.1285  -13.9213   20.2741 O   0  0  0  0  0  0  0  0  0  0  0  0
  -27.1150  -31.8910   22.3835 O   0  0  0  0  0  0  0  0  0  0  0  0
  -23.6441  -32.3520   23.7746 O   0  0  0  0  0  0  0  0  0  0  0  0
  -23.1573  -27.7366   24.7653 O   0  0  0  0  0  0  0  0  0  0  0  0
  -30.9371  -16.0826   18.3769 O   0  0  0  0  0  0  0  0  0  0  0  0
  -23.3040   -8.3360   25.5664 O   0  0  0  0  0  0  0  0  0  0  0  0
  -27.2664  -25.8844   19.6627 O   0  0  0  0  0  0  0  0  0  1  0  0
  -18.6752   -5.4633   24.7146 F   0  0  0  0  0  0  0  0  0  0  0  0
  -23.3398   -5.5722   25.5116 F   0  0  0  0  0  0  0  0  0  0  0  0
  1  2  1  0  0  0  0
  1  5  2  0  0  0  0
  2  6  2  0  0  0  0
  3 12  2  0  0  0  0
  3 19  1  0  0  0  0
  4 13  1  0  0  0  0
  4 19  2  0  0  0  0
  5 21  1  0  0  0  0
  6 23  1  0  0  0  0
  7 14  2  0  0  0  0
  7 22  1  0  0  0  0
  8 10  2  0  0  0  0
  8 25  1  0  0  0  0
  9 11  1  0  0  0  0
  9 25  2  0  0  0  0
 10 26  1  0  0  0  0
 11 26  2  0  0  0  0
 12 27  1  0  0  0  0
 13 27  2  0  0  0  0
 14 28  1  0  0  0  0
 15 16  2  0  0  0  0
 15 29  1  0  0  0  0
 16 30  1  0  0  0  0
 17 24  1  0  0  0  0
 17 28  2  0  0  0  0
 18 30  2  0  0  0  0
 18 31  1  0  0  0  0
 19 32  1  0  0  0  0
 20 32  1  0  0  0  0
 20 33  2  0  0  0  0
 20 39  1  0  0  0  0
 21 23  2  0  0  0  0
 21 44  1  0  0  0  0
 22 24  2  0  0  0  0
 22 45  1  0  0  0  0
 23 54  1  0  0  0  0
 24 46  1  0  0  0  0
 25 67  1  0  0  0  0
 26 72  1  0  0  0  0
 27 82  1  0  0  0  0
 28 83  1  0  0  0  0
 29 31  2  0  0  0  0
 29 82  1  0  0  0  0
 30 84  1  0  0  0  0
 31 85  1  0  0  0  0
 32 65  2  0  0  0  0
 33 66  1  0  0  0  0
 33 70  1  0  0  0  0
 34 35  1  0  0  0  0
 34 36  1  0  0  0  0
 34 38  2  0  0  0  0
 35 37  2  0  0  0  0
 35 47  1  0  0  0  0
 36 67  1  0  0  0  0
 36 76  2  0  0  0  0
 38 83  1  0  0  0  0
 39 71  1  0  0  0  0
 39 77  2  0  0  0  0
 40 55  1  0  0  0  0
 40 73  1  0  0  0  0
 40 78  2  0  0  0  0
 41 62  1  0  0  0  0
 41 68  1  0  0  0  0
 41 79  2  0  0  0  0
 42 63  1  0  0  0  0
 42 74  1  0  0  0  0
 42 80  2  0  0  0  0
 43 69  1  0  0  0  0
 43 72  1  0  0  0  0
 43 81  2  0  0  0  0
 44 48  1  0  0  0  0
 45 55  1  0  0  0  0
 46 68  1  0  0  0  0
 47 67  1  0  0  0  0
 48 50  1  0  0  0  0
 49 51  1  0  0  0  0
 49 52  1  0  0  0  0
 50 54  1  0  0  0  0
 51 56  1  0  0  0  0
 52 69  1  0  0  0  0
 53 56  1  0  0  0  0
 53 69  1  0  0  0  0
 54 73  1  0  0  0  0
 55 68  1  0  0  0  0
 56 66  1  0  0  0  0
 57 63  1  0  0  0  0
 58 64  1  0  0  0  0
 59 64  1  0  0  0  0
 60 64  1  0  0  0  0
 61 75  1  0  0  0  0
 62 64  1  0  0  0  0
 62 74  1  0  0  0  0
 63 75  1  0  0  0  0
 65 66  1  0  0  0  0
M  CHG  1  75   1
M  ISO  4  38 101  43 100  72 100  83 101
M  END
> <Batch ID>
0080

> <Smiles>
C=C1CN(c2ccc([100NH:0][100C:0](=O)N3CCCC(n4nc(-c5ccc(Oc6ccc(F)cc6F)cc5)c(C(N)=O)c4N)C3)cc2)C(=O)C1=[101CH:1][101O:1]c1ccc2c(c1)CN(C(=O)C(NC(=O)C(C)NC)C(C)(C)C)C(C(=O)NC1CCCc3ccccc31)C2

> <Shape>
0.293

> <Color>
0.133

> <Negative vol penalty>
0.000

$$$$

  -OEChem-04052300023D

 88 97  0     1  0  0  0  0  0999 V2000
  -30.1293  -33.1888   24.7992 C   0  0  0  0  0  0  0  0  0  0  0  0
  -29.7139  -31.9006   24.4777 C   0  0  0  0  0  0  0  0  0  0  0  0
  -22.9034  -10.0051   19.9963 C   0  0  0  0  0  0  0  0  0  0  0  0
  -24.6069   -9.2103   21.5140 C   0  0  0  0  0  0  0  0  0  0  0  0
  -29.1844  -34.1898   25.0206 C   0  0  0  0  0  0  0  0  0  0  0  0
  -28.3532  -31.6124   24.3784 C   0  0  0  0  0  0  0  0  0  0  0  0
  -27.2496  -28.8305   20.2933 C   0  0  0  0  0  0  0  0  0  0  0  0
  -21.9172   -9.4550   20.8151 C   0  0  0  0  0  0  0  0  0  0  0  0
  -23.6208   -8.6601   22.3328 C   0  0  0  0  0  0  0  0  0  0  0  0
  -27.5265  -27.4656   20.3586 C   0  0  0  0  0  0  0  0  0  0  0  0
  -21.6666   -5.9014   22.3697 C   0  0  0  0  0  0  0  0  0  0  0  0
  -21.8711   -4.6085   22.8513 C   0  0  0  0  0  0  0  0  0  0  0  0
  -25.2028  -27.0229   20.8312 C   0  0  0  0  0  0  0  0  0  0  0  0
  -27.3938  -18.8583   20.3069 C   0  0  0  0  0  0  0  0  0  0  0  0
  -25.5328  -20.3563   19.9469 C   0  0  0  0  0  0  0  0  0  0  0  0
  -25.4570  -18.1045   19.0749 C   0  0  0  0  0  0  0  0  0  0  0  0
  -21.7777   -5.4382   25.1184 C   0  0  0  0  0  0  0  0  0  0  0  0
  -24.2483   -9.8827   20.3457 C   0  0  0  0  0  0  0  0  0  0  0  0
  -25.5263  -10.1358   18.1525 C   0  0  0  0  0  0  0  0  0  0  0  0
  -27.8117  -33.9160   24.9145 C   0  0  0  0  0  0  0  0  0  0  0  0
  -25.9470  -29.3035   20.5076 C   0  0  0  0  0  0  0  0  0  0  0  0
  -27.3890  -32.6103   24.5999 C   0  0  0  0  0  0  0  0  0  0  0  0
  -24.9114  -28.3940   20.7655 C   0  0  0  0  0  0  0  0  0  0  0  0
  -26.7987  -20.1082   20.4776 C   0  0  0  0  0  0  0  0  0  0  0  0
  -26.7229  -17.8564   19.6055 C   0  0  0  0  0  0  0  0  0  0  0  0
  -22.2759   -8.7825   21.9834 C   0  0  0  0  0  0  0  0  0  0  0  0
  -26.5036  -26.5618   20.6305 C   0  0  0  0  0  0  0  0  0  0  0  0
  -21.5177   -6.9628   23.2624 C   0  0  0  0  0  0  0  0  0  0  0  0
  -24.8619  -19.3545   19.2456 C   0  0  0  0  0  0  0  0  0  0  0  0
  -21.9267   -4.3768   24.2257 C   0  0  0  0  0  0  0  0  0  0  0  0
  -21.5732   -6.7312   24.6368 C   0  0  0  0  0  0  0  0  0  0  0  0
  -25.2675  -10.4503   19.5000 C   0  0  0  0  0  0  0  0  0  0  0  0
  -26.5842  -10.9415   17.8089 C   0  0  0  0  0  0  0  0  0  0  0  0
  -28.0120  -23.5067   21.7827 C   0  0  0  0  0  0  0  0  0  0  0  0
  -28.9705  -23.0551   22.7778 C   0  0  0  0  0  0  0  0  0  0  0  0
  -27.2926  -22.5095   20.9008 C   0  0  0  0  0  0  0  0  0  0  0  0
  -30.0588  -23.7455   23.1547 C   0  0  0  0  0  0  0  0  0  0  0  0
  -27.6717  -24.7986   21.6291 C   0  0  0  0  0  0  0  0  0  1  0  0
  -24.8691   -9.1991   17.2885 C   0  0  0  0  0  0  0  0  0  0  0  0
  -24.5800  -31.2223   22.6415 C   0  0  0  0  0  0  0  0  0  0  0  0
  -21.9850  -30.8563   20.7298 C   0  0  0  0  0  0  0  0  0  0  0  0
  -20.3361  -28.9691   18.4133 C   0  0  0  0  0  0  0  0  0  0  0  0
  -28.5760  -16.1746   19.8952 C   0  0  0  0  0  0  0  0  0  0  0  0
  -26.8265  -35.0193   25.2092 C   0  0  0  0  0  0  0  0  0  0  0  0
  -25.6597  -30.7765   20.4073 C   0  0  0  0  0  0  0  0  0  0  0  0
  -23.4922  -28.8489   20.9830 C   0  0  0  0  0  0  0  0  0  0  0  0
  -28.6760  -21.6953   23.3249 C   0  0  0  0  0  0  0  0  0  0  0  0
  -25.4127  -34.7211   24.7167 C   0  0  0  0  0  0  0  0  0  0  0  0
  -30.4011  -13.1232   19.7080 C   0  0  0  0  0  0  0  0  0  0  0  0
  -24.9998  -33.3049   25.1049 C   0  0  0  0  0  0  0  0  0  0  0  0
  -29.3158  -12.0635   19.5047 C   0  0  0  0  0  0  0  0  0  0  0  0
  -28.5221  -20.7210   22.1697 C   0  0  0  0  0  0  0  0  0  0  0  0
  -29.9380  -14.2365   20.6460 C   0  0  0  0  0  0  0  0  0  0  0  0
  -27.5800  -13.8099   20.0741 C   0  0  0  0  0  0  0  0  0  0  0  0
  -25.9226  -32.2645   24.4586 C   0  0  1  0  0  0  0  0  0  0  0  0
  -24.3935  -31.1903   21.1509 C   0  0  1  0  0  0  0  0  0  0  0  0
  -27.9768  -12.7014   19.0854 C   0  0  2  0  0  0  0  0  0  0  0  0
  -18.2195  -28.9094   17.0665 C   0  0  0  0  0  0  0  0  0  0  0  0
  -20.4317  -30.0022   23.2133 C   0  0  0  0  0  0  0  0  0  0  0  0
  -18.6679  -29.0664   21.7029 C   0  0  0  0  0  0  0  0  0  0  0  0
  -19.1740  -31.5087   21.6631 C   0  0  0  0  0  0  0  0  0  0  0  0
  -21.8244  -29.0337   15.8561 C   0  0  0  0  0  0  0  0  0  0  0  0
  -23.0771  -20.8960   18.9392 C   0  0  0  0  0  0  0  0  0  0  0  0
  -20.8332  -29.8826   20.6656 C   0  0  1  0  0  0  0  0  0  0  0  0
  -19.6780  -29.3391   17.0963 C   0  0  2  0  0  0  0  0  0  0  0  0
  -19.8037  -30.1062   21.8091 C   0  0  0  0  0  0  0  0  0  0  0  0
  -26.0945  -11.3830   19.9798 N   0  0  0  0  0  0  0  0  0  0  0  0
  -26.8834  -11.6614   18.9281 N   0  0  0  0  0  0  0  0  0  0  0  0
  -27.4947  -21.1472   21.2042 N   0  0  0  0  0  0  0  0  0  0  0  0
  -23.2629  -30.2996   20.8810 N   0  0  0  0  0  0  0  0  0  0  0  0
  -28.6662  -14.7964   20.1837 N   0  0  0  0  0  0  0  0  0  0  0  0
  -27.2786  -11.0973   16.6617 N   0  0  0  0  0  0  0  0  0  0  0  0
  -25.3484   -7.8829   17.2422 N   0  0  0  0  0  0  0  0  0  0  0  0
  -27.3266  -16.5862   19.4324 N   0  0  0  0  0  0  0  0  0  0  0  0
  -25.5777  -32.0792   23.0654 N   0  0  0  0  0  0  0  0  0  0  0  0
  -20.2719  -30.0021   19.3243 N   0  0  0  0  0  0  0  0  0  0  0  0
  -20.3850  -28.6814   15.9612 N   0  3  0  0  0  0  0  0  0  0  0  0
  -26.6071  -22.9249   19.9646 O   0  0  0  0  0  0  0  0  0  0  0  0
  -23.8962   -9.5240   16.5664 O   0  0  0  0  0  0  0  0  0  0  0  0
  -23.8702  -30.5225   23.3543 O   0  0  0  0  0  0  0  0  0  0  0  0
  -21.7599  -32.0660   20.6416 O   0  0  0  0  0  0  0  0  0  0  0  0
  -20.8519  -27.8720   18.6151 O   0  0  0  0  0  0  0  0  0  0  0  0
  -29.5441  -16.9288   20.0216 O   0  0  0  0  0  0  0  0  0  0  0  0
  -21.3139   -8.2458   22.7827 O   0  0  0  0  0  0  0  0  0  0  0  0
  -26.7713  -25.2292   20.6954 O   0  0  0  0  0  0  0  0  0  1  0  0
  -23.6267  -19.5964   18.7277 O   0  0  0  0  0  0  0  0  0  0  0  0
  -22.1215   -3.1349   24.6880 F   0  0  0  0  0  0  0  0  0  0  0  0
  -21.4296   -7.7467   25.4994 F   0  0  0  0  0  0  0  0  0  0  0  0
  1  2  1  0  0  0  0
  1  5  2  0  0  0  0
  2  6  2  0  0  0  0
  3  8  2  0  0  0  0
  3 18  1  0  0  0  0
  4  9  1  0  0  0  0
  4 18  2  0  0  0  0
  5 20  1  0  0  0  0
  6 22  1  0  0  0  0
  7 10  2  0  0  0  0
  7 21  1  0  0  0  0
  8 26  1  0  0  0  0
  9 26  2  0  0  0  0
 10 27  1  0  0  0  0
 11 12  2  0  0  0  0
 11 28  1  0  0  0  0
 12 30  1  0  0  0  0
 13 23  1  0  0  0  0
 13 27  2  0  0  0  0
 14 24  1  0  0  0  0
 14 25  2  0  0  0  0
 15 24  2  0  0  0  0
 15 29  1  0  0  0  0
 16 25  1  0  0  0  0
 16 29  2  0  0  0  0
 17 30  2  0  0  0  0
 17 31  1  0  0  0  0
 18 32  1  0  0  0  0
 19 32  1  0  0  0  0
 19 33  2  0  0  0  0
 19 39  1  0  0  0  0
 20 22  2  0  0  0  0
 20 44  1  0  0  0  0
 21 23  2  0  0  0  0
 21 45  1  0  0  0  0
 22 55  1  0  0  0  0
 23 46  1  0  0  0  0
 24 69  1  0  0  0  0
 25 74  1  0  0  0  0
 26 84  1  0  0  0  0
 27 85  1  0  0  0  0
 28 31  2  0  0  0  0
 28 84  1  0  0  0  0
 29 86  1  0  0  0  0
 30 87  1  0  0  0  0
 31 88  1  0  0  0  0
 32 67  2  0  0  0  0
 33 68  1  0  0  0  0
 33 72  1  0  0  0  0
 34 35  1  0  0  0  0
 34 36  1  0  0  0  0
 34 38  2  0  0  0  0
 35 37  2  0  0  0  0
 35 47  1  0  0  0  0
 36 69  1  0  0  0  0
 36 78  2  0  0  0  0
 38 85  1  0  0  0  0
 39 73  1  0  0  0  0
 39 79  2  0  0  0  0
 40 56  1  0  0  0  0
 40 75  1  0  0  0  0
 40 80  2  0  0  0  0
 41 64  1  0  0  0  0
 41 70  1  0  0  0  0
 41 81  2  0  0  0  0
 42 65  1  0  0  0  0
 42 76  1  0  0  0  0
 42 82  2  0  0  0  0
 43 71  1  0  0  0  0
 43 74  1  0  0  0  0
 43 83  2  0  0  0  0
 44 48  1  0  0  0  0
 45 56  1  0  0  0  0
 46 70  1  0  0  0  0
 47 52  1  0  0  0  0
 48 50  1  0  0  0  0
 49 51  1  0  0  0  0
 49 53  1  0  0  0  0
 50 55  1  0  0  0  0
 51 57  1  0  0  0  0
 52 69  1  0  0  0  0
 53 71  1  0  0  0  0
 54 57  1  0  0  0  0
 54 71  1  0  0  0  0
 55 75  1  0  0  0  0
 56 70  1  0  0  0  0
 57 68  1  0  0  0  0
 58 65  1  0  0  0  0
 59 66  1  0  0  0  0
 60 66  1  0  0  0  0
 61 66  1  0  0  0  0
 62 77  1  0  0  0  0
 63 86  1  0  0  0  0
 64 66  1  0  0  0  0
 64 76  1  0  0  0  0
 65 77  1  0  0  0  0
 67 68  1  0  0  0  0
M  CHG  1  77   1
M  ISO  4  38 101  43 100  74 100  85 101
M  END
> <Batch ID>
0080

> <Smiles>
C=C1CCN(c2cc([100NH:0][100C:0](=O)N3CCCC(n4nc(-c5ccc(Oc6ccc(F)cc6F)cc5)c(C(N)=O)c4N)C3)cc(OC)c2)C(=O)C1=[101CH:1][101O:1]c1ccc2c(c1)CN(C(=O)C(NC(=O)C(C)NC)C(C)(C)C)C(C(=O)NC1CCCc3ccccc31)C2

> <Shape>
0.286

> <Color>
0.095

> <Negative vol penalty>
0.000

$$$$

  -OEChem-04052300023D

 86 95  0     1  0  0  0  0  0999 V2000
  -26.6303  -36.2645   21.5697 C   0  0  0  0  0  0  0  0  0  0  0  0
  -27.4771  -35.1608   21.5783 C   0  0  0  0  0  0  0  0  0  0  0  0
  -23.5792   -9.7970   21.9155 C   0  0  0  0  0  0  0  0  0  0  0  0
  -24.4076  -11.0925   23.7789 C   0  0  0  0  0  0  0  0  0  0  0  0
  -25.2801  -36.1082   21.8805 C   0  0  0  0  0  0  0  0  0  0  0  0
  -26.9745  -33.9002   21.8989 C   0  0  0  0  0  0  0  0  0  0  0  0
  -28.7528  -28.5250   19.5644 C   0  0  0  0  0  0  0  0  0  0  0  0
  -31.8734  -19.2504   19.9133 C   0  0  0  0  0  0  0  0  0  0  0  0
  -29.6007  -20.0033   20.2369 C   0  0  0  0  0  0  0  0  0  0  0  0
  -31.4098  -17.9594   19.6606 C   0  0  0  0  0  0  0  0  0  0  0  0
  -29.1370  -18.7122   19.9841 C   0  0  0  0  0  0  0  0  0  0  0  0
  -23.0462   -8.8618   22.8026 C   0  0  0  0  0  0  0  0  0  0  0  0
  -23.8745  -10.1573   24.6660 C   0  0  0  0  0  0  0  0  0  0  0  0
  -29.6193  -27.5390   20.0342 C   0  0  0  0  0  0  0  0  0  0  0  0
  -20.3238   -8.5819   24.7883 C   0  0  0  0  0  0  0  0  0  0  0  0
  -19.0264   -8.1285   24.5500 C   0  0  0  0  0  0  0  0  0  0  0  0
  -27.7390  -26.3216   20.9296 C   0  0  0  0  0  0  0  0  0  0  0  0
  -19.8538   -5.8676   24.3477 C   0  0  0  0  0  0  0  0  0  0  0  0
  -24.2600  -10.9123   22.4037 C   0  0  0  0  0  0  0  0  0  0  0  0
  -24.1739  -13.0240   20.9750 C   0  0  0  0  0  0  0  0  0  0  0  0
  -24.7587  -34.8435   22.1956 C   0  0  0  0  0  0  0  0  0  0  0  0
  -27.3716  -28.4220   19.7836 C   0  0  0  0  0  0  0  0  0  0  0  0
  -25.6163  -33.7271   22.2155 C   0  0  0  0  0  0  0  0  0  0  0  0
  -26.8569  -27.3064   20.4593 C   0  0  0  0  0  0  0  0  0  0  0  0
  -30.9689  -20.2724   20.2015 C   0  0  0  0  0  0  0  0  0  0  0  0
  -30.0416  -17.6903   19.6960 C   0  0  0  0  0  0  0  0  0  0  0  0
  -23.1938   -9.0420   24.1778 C   0  0  0  0  0  0  0  0  0  0  0  0
  -29.1128  -26.4385   20.7194 C   0  0  0  0  0  0  0  0  0  0  0  0
  -21.3862   -7.6782   24.8062 C   0  0  0  0  0  0  0  0  0  0  0  0
  -18.7914   -6.7713   24.3297 C   0  0  0  0  0  0  0  0  0  0  0  0
  -21.1512   -6.3210   24.5860 C   0  0  0  0  0  0  0  0  0  0  0  0
  -24.8114  -11.8783   21.4878 C   0  0  0  0  0  0  0  0  0  0  0  0
  -25.1131  -13.6022   20.1565 C   0  0  0  0  0  0  0  0  0  0  0  0
  -32.7260  -23.3417   21.1041 C   0  0  0  0  0  0  0  0  0  0  0  0
  -31.5979  -23.8459   20.5981 C   0  0  0  0  0  0  0  0  0  0  0  0
  -32.6520  -21.8675   21.0168 C   0  0  0  0  0  0  0  0  0  0  0  0
  -30.7369  -22.7194   20.1787 C   0  0  0  0  0  0  0  0  0  0  0  0
  -22.8510  -13.5210   21.2170 C   0  0  0  0  0  0  0  0  0  0  0  0
  -25.2109  -30.1613   21.3359 C   0  0  0  0  0  0  0  0  0  0  0  0
  -23.1325  -28.0525   20.0109 C   0  0  0  0  0  0  0  0  0  0  0  0
  -22.6025  -24.9559   18.6779 C   0  0  0  0  0  0  0  0  0  0  0  0
  -30.3329  -15.2511   19.1376 C   0  0  0  0  0  0  0  0  0  0  0  0
  -23.3022  -34.7318   22.5709 C   0  0  0  0  0  0  0  0  0  0  0  0
  -26.4477  -29.4807   19.2471 C   0  0  0  0  0  0  0  0  0  0  0  0
  -25.3800  -27.1386   20.7028 C   0  0  0  0  0  0  0  0  0  0  0  0
  -22.7718  -33.3009   22.5341 C   0  0  0  0  0  0  0  0  0  0  0  0
  -29.5516  -11.8406   18.4778 C   0  0  0  0  0  0  0  0  0  0  0  0
  -23.7403  -32.3543   23.2360 C   0  0  0  0  0  0  0  0  0  0  0  0
  -28.1963  -11.6406   19.1599 C   0  0  0  0  0  0  0  0  0  0  0  0
  -30.4578  -12.7733   19.2794 C   0  0  0  0  0  0  0  0  0  0  0  0
  -28.5069  -13.8697   20.3095 C   0  0  0  0  0  0  0  0  0  0  0  0
  -25.1035  -32.3394   22.5339 C   0  0  1  0  0  0  0  0  0  0  0  0
  -25.1085  -29.5303   19.9761 C   0  0  1  0  0  0  0  0  0  0  0  0
  -27.5355  -12.9892   19.5066 C   0  0  2  0  0  0  0  0  0  0  0  0
  -33.9156  -24.0212   21.6734 C   0  0  0  0  0  0  0  0  0  0  0  0
  -20.7915  -23.5081   17.7180 C   0  0  0  0  0  0  0  0  0  0  0  0
  -22.0591  -27.5370   22.8201 C   0  0  0  0  0  0  0  0  0  0  0  0
  -20.9666  -25.4607   21.9463 C   0  0  0  0  0  0  0  0  0  0  0  0
  -20.3044  -27.6904   21.0447 C   0  0  0  0  0  0  0  0  0  0  0  0
  -23.9806  -24.7633   16.0659 C   0  0  0  0  0  0  0  0  0  0  0  0
  -31.1567  -25.2552   20.4397 C   0  0  0  0  0  0  0  0  0  1  0  0
  -22.5543  -26.7199   20.4216 C   0  0  1  0  0  0  0  0  0  0  0  0
  -21.8917  -24.5124   17.4120 C   0  0  2  0  0  0  0  0  0  0  0  0
  -21.4991  -26.8559   21.5555 C   0  0  0  0  0  0  0  0  0  0  0  0
  -26.0591  -11.7355   21.0330 N   0  0  0  0  0  0  0  0  0  0  0  0
  -26.2132  -12.7989   20.2258 N   0  0  0  0  0  0  0  0  0  0  0  0
  -31.4309  -21.5593   20.4538 N   0  0  0  0  0  0  0  0  0  0  0  0
  -24.5180  -28.2037   20.1644 N   0  0  0  0  0  0  0  0  0  0  0  0
  -29.7669  -14.0321   19.5672 N   0  0  0  0  0  0  0  0  0  0  0  0
  -25.0971  -14.7143   19.3914 N   0  0  0  0  0  0  0  0  0  0  0  0
  -22.0164  -12.8043   22.0853 N   0  0  0  0  0  0  0  0  0  0  0  0
  -29.5703  -16.3789   19.4393 N   0  0  0  0  0  0  0  0  0  0  0  0
  -25.0450  -31.5332   21.3335 N   0  0  0  0  0  0  0  0  0  0  0  0
  -22.0445  -26.1028   19.2019 N   0  0  0  0  0  0  0  0  0  0  0  0
  -22.8576  -23.8789   16.4704 N   0  3  0  0  0  0  0  0  0  0  0  0
  -33.5361  -21.1128   21.3903 O   0  0  0  0  0  0  0  0  0  0  0  0
  -29.6280  -22.8505   19.6850 O   0  0  0  0  0  0  0  0  0  0  0  0
  -22.4160  -14.5608   20.6663 O   0  0  0  0  0  0  0  0  0  0  0  0
  -25.4232  -29.4556   22.3150 O   0  0  0  0  0  0  0  0  0  0  0  0
  -22.3837  -28.9247   19.5634 O   0  0  0  0  0  0  0  0  0  0  0  0
  -23.5550  -24.3439   19.1563 O   0  0  0  0  0  0  0  0  0  0  0  0
  -31.4012  -15.2891   18.5218 O   0  0  0  0  0  0  0  0  0  0  0  0
  -22.6736   -8.1298   25.0438 O   0  0  0  0  0  0  0  0  0  0  0  0
  -29.9564  -25.4750   21.1796 O   0  0  0  0  0  0  0  0  0  1  0  0
  -17.5452   -6.3358   24.1024 F   0  0  0  0  0  0  0  0  0  0  0  0
  -22.1676   -5.4479   24.6032 F   0  0  0  0  0  0  0  0  0  0  0  0
  1  2  1  0  0  0  0
  1  5  2  0  0  0  0
  2  6  2  0  0  0  0
  3 12  2  0  0  0  0
  3 19  1  0  0  0  0
  4 13  1  0  0  0  0
  4 19  2  0  0  0  0
  5 21  1  0  0  0  0
  6 23  1  0  0  0  0
  7 14  2  0  0  0  0
  7 22  1  0  0  0  0
  8 10  2  0  0  0  0
  8 25  1  0  0  0  0
  9 11  1  0  0  0  0
  9 25  2  0  0  0  0
 10 26  1  0  0  0  0
 11 26  2  0  0  0  0
 12 27  1  0  0  0  0
 13 27  2  0  0  0  0
 14 28  1  0  0  0  0
 15 16  2  0  0  0  0
 15 29  1  0  0  0  0
 16 30  1  0  0  0  0
 17 24  1  0  0  0  0
 17 28  2  0  0  0  0
 18 30  2  0  0  0  0
 18 31  1  0  0  0  0
 19 32  1  0  0  0  0
 20 32  1  0  0  0  0
 20 33  2  0  0  0  0
 20 38  1  0  0  0  0
 21 23  2  0  0  0  0
 21 43  1  0  0  0  0
 22 24  2  0  0  0  0
 22 44  1  0  0  0  0
 23 52  1  0  0  0  0
 24 45  1  0  0  0  0
 25 67  1  0  0  0  0
 26 72  1  0  0  0  0
 27 83  1  0  0  0  0
 28 84  1  0  0  0  0
 29 31  2  0  0  0  0
 29 83  1  0  0  0  0
 30 85  1  0  0  0  0
 31 86  1  0  0  0  0
 32 65  2  0  0  0  0
 33 66  1  0  0  0  0
 33 70  1  0  0  0  0
 34 35  2  0  0  0  0
 34 36  1  0  0  0  0
 34 55  1  0  0  0  0
 35 37  1  0  0  0  0
 35 61  1  0  0  0  0
 36 67  1  0  0  0  0
 36 76  2  0  0  0  0
 37 67  1  0  0  0  0
 37 77  2  0  0  0  0
 38 71  1  0  0  0  0
 38 78  2  0  0  0  0
 39 53  1  0  0  0  0
 39 73  1  0  0  0  0
 39 79  2  0  0  0  0
 40 62  1  0  0  0  0
 40 68  1  0  0  0  0
 40 80  2  0  0  0  0
 41 63  1  0  0  0  0
 41 74  1  0  0  0  0
 41 81  2  0  0  0  0
 42 69  1  0  0  0  0
 42 72  1  0  0  0  0
 42 82  2  0  0  0  0
 43 46  1  0  0  0  0
 44 53  1  0  0  0  0
 45 68  1  0  0  0  0
 46 48  1  0  0  0  0
 47 49  1  0  0  0  0
 47 50  1  0  0  0  0
 48 52  1  0  0  0  0
 49 54  1  0  0  0  0
 50 69  1  0  0  0  0
 51 54  1  0  0  0  0
 51 69  1  0  0  0  0
 52 73  1  0  0  0  0
 53 68  1  0  0  0  0
 54 66  1  0  0  0  0
 56 63  1  0  0  0  0
 57 64  1  0  0  0  0
 58 64  1  0  0  0  0
 59 64  1  0  0  0  0
 60 75  1  0  0  0  0
 61 84  1  0  0  0  0
 62 64  1  0  0  0  0
 62 74  1  0  0  0  0
 63 75  1  0  0  0  0
 65 66  1  0  0  0  0
M  CHG  1  75   1
M  ISO  4  42 100  61 101  72 100  84 101
M  END
> <Batch ID>
0080

> <Smiles>
CNC(C)C(=O)NC(C(=O)N1Cc2cc([101O:1][101CH2:1]C3=C(C)C(=O)N(c4ccc([100NH:0][100C:0](=O)N5CCCC(n6nc(-c7ccc(Oc8ccc(F)cc8F)cc7)c(C(N)=O)c6N)C5)cc4)C3=O)ccc2CC1C(=O)NC1CCCc2ccccc21)C(C)(C)C

> <Shape>
0.285

> <Color>
0.132

> <Negative vol penalty>
0.000

$$$$

  -OEChem-04052300023D

 85 94  0     1  0  0  0  0  0999 V2000
  -21.9011  -17.7549   21.0896 C   0  0  0  0  0  0  0  0  0  0  0  0
  -22.7996  -18.6923   20.5903 C   0  0  0  0  0  0  0  0  0  0  0  0
  -29.6206  -22.8638   16.0318 C   0  0  0  0  0  0  0  0  0  0  0  0
  -25.9585  -14.4579   21.6957 C   0  0  0  0  0  0  0  0  0  0  0  0
  -25.7638  -15.2916   19.4365 C   0  0  0  0  0  0  0  0  0  0  0  0
  -20.5743  -18.1163   21.3198 C   0  0  0  0  0  0  0  0  0  0  0  0
  -22.3715  -19.9915   20.3198 C   0  0  0  0  0  0  0  0  0  0  0  0
  -25.6138  -23.4962   22.0080 C   0  0  0  0  0  0  0  0  0  0  0  0
  -29.7721  -24.1953   16.4186 C   0  0  0  0  0  0  0  0  0  0  0  0
  -29.8925  -21.8389   16.9381 C   0  0  0  0  0  0  0  0  0  0  0  0
  -24.6019  -14.1334   21.6929 C   0  0  0  0  0  0  0  0  0  0  0  0
  -24.4072  -14.9670   19.4336 C   0  0  0  0  0  0  0  0  0  0  0  0
  -26.7595  -23.7230   21.2468 C   0  0  0  0  0  0  0  0  0  0  0  0
  -21.2699  -12.7540   22.1514 C   0  0  0  0  0  0  0  0  0  0  0  0
  -20.9000  -11.5084   22.6586 C   0  0  0  0  0  0  0  0  0  0  0  0
  -25.7248  -25.6771   20.2825 C   0  0  0  0  0  0  0  0  0  0  0  0
  -30.4675  -23.4772   18.6182 C   0  0  0  0  0  0  0  0  0  0  0  0
  -22.2618  -10.4223   20.9843 C   0  0  0  0  0  0  0  0  0  0  0  0
  -26.5394  -15.0371   20.5675 C   0  0  0  0  0  0  0  0  0  0  0  0
  -29.0126  -14.5510   20.1741 C   0  0  0  0  0  0  0  0  0  0  0  0
  -20.1321  -19.4233   21.0612 C   0  0  0  0  0  0  0  0  0  0  0  0
  -24.5089  -24.3534   21.9039 C   0  0  0  0  0  0  0  0  0  0  0  0
  -21.0373  -20.3705   20.5455 C   0  0  0  0  0  0  0  0  0  0  0  0
  -24.5672  -25.4605   21.0454 C   0  0  0  0  0  0  0  0  0  0  0  0
  -30.1956  -24.5020   17.7118 C   0  0  0  0  0  0  0  0  0  0  0  0
  -30.3159  -22.1456   18.2313 C   0  0  0  0  0  0  0  0  0  0  0  0
  -23.8263  -14.3879   20.5619 C   0  0  0  0  0  0  0  0  0  0  0  0
  -26.8141  -24.8119   20.3817 C   0  0  0  0  0  0  0  0  0  0  0  0
  -22.1357  -12.8338   21.0606 C   0  0  0  0  0  0  0  0  0  0  0  0
  -21.3960  -10.3426   22.0751 C   0  0  0  0  0  0  0  0  0  0  0  0
  -22.6316  -11.6679   20.4771 C   0  0  0  0  0  0  0  0  0  0  0  0
  -27.9406  -15.3731   20.5701 C   0  0  0  0  0  0  0  0  0  0  0  0
  -30.1293  -15.3279   20.3637 C   0  0  0  0  0  0  0  0  0  0  0  0
  -30.4416  -27.8079   19.2917 C   0  0  0  0  0  0  0  0  0  0  0  0
  -31.4925  -27.9002   18.2754 C   0  0  0  0  0  0  0  0  0  0  0  0
  -29.7050  -26.5442   19.1296 C   0  0  0  0  0  0  0  0  0  0  0  0
  -30.2164  -28.7361   20.2355 C   0  0  0  0  0  0  0  0  0  0  0  0
  -32.3986  -28.8652   18.0800 C   0  0  0  0  0  0  0  0  0  0  0  0
  -28.5936  -26.2178   19.8096 C   0  0  0  0  0  0  0  0  0  1  0  0
  -29.0001  -13.2054   19.6791 C   0  0  0  0  0  0  0  0  0  0  0  0
  -21.4811  -24.0105   20.9991 C   0  0  0  0  0  0  0  0  0  0  0  0
  -21.2401  -27.0853   22.0042 C   0  0  0  0  0  0  0  0  0  0  0  0
  -22.7962  -30.0541   22.6456 C   0  0  0  0  0  0  0  0  0  0  0  0
  -31.0219  -21.2353   20.4716 C   0  0  0  0  0  0  0  0  0  0  0  0
  -18.6772  -19.7543   21.2812 C   0  0  0  0  0  0  0  0  0  0  0  0
  -23.2905  -24.1104   22.7518 C   0  0  0  0  0  0  0  0  0  0  0  0
  -23.4157  -26.4222   20.9121 C   0  0  0  0  0  0  0  0  0  0  0  0
  -31.3961  -26.6462   17.4333 C   0  0  0  0  0  0  0  0  0  0  0  0
  -18.3930  -21.2535   21.3219 C   0  0  0  0  0  0  0  0  0  0  0  0
  -31.7770  -18.9198   23.0689 C   0  0  0  0  0  0  0  0  0  0  0  0
  -19.0953  -21.9615   20.1676 C   0  0  0  0  0  0  0  0  0  0  0  0
  -30.9812  -17.6706   22.6836 C   0  0  0  0  0  0  0  0  0  0  0  0
  -31.0181  -20.2020   22.7316 C   0  0  0  0  0  0  0  0  0  0  0  0
  -29.7546  -19.0505   20.9577 C   0  0  0  0  0  0  0  0  0  0  0  0
  -20.6168  -21.7965   20.2630 C   0  0  1  0  0  0  0  0  0  0  0  0
  -22.0293  -24.7541   22.1841 C   0  0  1  0  0  0  0  0  0  0  0  0
  -30.5059  -17.7348   21.2188 C   0  0  2  0  0  0  0  0  0  0  0  0
  -22.3309  -32.3950   23.4209 C   0  0  0  0  0  0  0  0  0  0  0  0
  -20.0719  -27.7571   19.2666 C   0  0  0  0  0  0  0  0  0  0  0  0
  -20.5156  -30.1737   19.7477 C   0  0  0  0  0  0  0  0  0  0  0  0
  -18.9394  -28.8857   21.1897 C   0  0  0  0  0  0  0  0  0  0  0  0
  -24.5598  -29.7481   25.0025 C   0  0  0  0  0  0  0  0  0  0  0  0
  -21.4219  -28.4382   21.3594 C   0  0  1  0  0  0  0  0  0  0  0  0
  -22.7300  -30.9887   23.8400 C   0  0  2  0  0  0  0  0  0  0  0  0
  -20.2583  -28.7946   20.3917 C   0  0  0  0  0  0  0  0  0  0  0  0
  -28.3403  -16.5797   20.9804 N   0  0  0  0  0  0  0  0  0  0  0  0
  -29.6759  -16.5215   20.8433 N   0  0  0  0  0  0  0  0  0  0  0  0
  -30.3481  -25.8484   18.1028 N   0  0  0  0  0  0  0  0  0  0  0  0
  -22.2442  -26.1383   21.7575 N   0  0  0  0  0  0  0  0  0  0  0  0
  -30.6032  -20.1943   21.3271 N   0  0  0  0  0  0  0  0  0  0  0  0
  -31.4449  -15.0997   20.1654 N   0  0  0  0  0  0  0  0  0  0  0  0
  -27.7664  -12.5540   19.5458 N   0  0  0  0  0  0  0  0  0  0  0  0
  -30.5931  -21.1042   19.1512 N   0  0  0  0  0  0  0  0  0  0  0  0
  -21.1608  -22.6922   21.2612 N   0  0  0  0  0  0  0  0  0  0  0  0
  -21.6041  -29.3892   22.4506 N   0  0  0  0  0  0  0  0  0  0  0  0
  -24.0557  -31.0585   24.5172 N   0  3  0  0  0  0  0  0  0  0  0  0
  -30.0532  -12.5931   19.3799 O   0  0  0  0  0  0  0  0  0  0  0  0
  -21.3566  -24.5904   19.9267 O   0  0  0  0  0  0  0  0  0  0  0  0
  -20.2475  -26.8787   22.7068 O   0  0  0  0  0  0  0  0  0  0  0  0
  -23.8035  -29.9294   21.9525 O   0  0  0  0  0  0  0  0  0  0  0  0
  -31.7330  -22.1596   20.8741 O   0  0  0  0  0  0  0  0  0  0  0  0
  -22.5026  -14.0711   20.5586 O   0  0  0  0  0  0  0  0  0  0  0  0
  -27.9310  -25.0351   19.6370 O   0  0  0  0  0  0  0  0  0  1  0  0
  -21.0419   -9.1465   22.5633 F   0  0  0  0  0  0  0  0  0  0  0  0
  -23.4646  -11.7382   19.4297 F   0  0  0  0  0  0  0  0  0  0  0  0
  1  2  1  0  0  0  0
  1  6  2  0  0  0  0
  2  7  2  0  0  0  0
  3  9  2  0  0  0  0
  3 10  1  0  0  0  0
  4 11  2  0  0  0  0
  4 19  1  0  0  0  0
  5 12  1  0  0  0  0
  5 19  2  0  0  0  0
  6 21  1  0  0  0  0
  7 23  1  0  0  0  0
  8 13  2  0  0  0  0
  8 22  1  0  0  0  0
  9 25  1  0  0  0  0
 10 26  2  0  0  0  0
 11 27  1  0  0  0  0
 12 27  2  0  0  0  0
 13 28  1  0  0  0  0
 14 15  2  0  0  0  0
 14 29  1  0  0  0  0
 15 30  1  0  0  0  0
 16 24  1  0  0  0  0
 16 28  2  0  0  0  0
 17 25  2  0  0  0  0
 17 26  1  0  0  0  0
 18 30  2  0  0  0  0
 18 31  1  0  0  0  0
 19 32  1  0  0  0  0
 20 32  1  0  0  0  0
 20 33  2  0  0  0  0
 20 40  1  0  0  0  0
 21 23  2  0  0  0  0
 21 45  1  0  0  0  0
 22 24  2  0  0  0  0
 22 46  1  0  0  0  0
 23 55  1  0  0  0  0
 24 47  1  0  0  0  0
 25 68  1  0  0  0  0
 26 73  1  0  0  0  0
 27 82  1  0  0  0  0
 28 83  1  0  0  0  0
 29 31  2  0  0  0  0
 29 82  1  0  0  0  0
 30 84  1  0  0  0  0
 31 85  1  0  0  0  0
 32 66  2  0  0  0  0
 33 67  1  0  0  0  0
 33 71  1  0  0  0  0
 34 35  1  0  0  0  0
 34 36  1  0  0  0  0
 34 37  2  0  0  0  0
 35 38  2  0  0  0  0
 35 48  1  0  0  0  0
 36 39  2  0  0  0  0
 36 68  1  0  0  0  0
 39 83  1  0  0  0  0
 40 72  1  0  0  0  0
 40 77  2  0  0  0  0
 41 56  1  0  0  0  0
 41 74  1  0  0  0  0
 41 78  2  0  0  0  0
 42 63  1  0  0  0  0
 42 69  1  0  0  0  0
 42 79  2  0  0  0  0
 43 64  1  0  0  0  0
 43 75  1  0  0  0  0
 43 80  2  0  0  0  0
 44 70  1  0  0  0  0
 44 73  1  0  0  0  0
 44 81  2  0  0  0  0
 45 49  1  0  0  0  0
 46 56  1  0  0  0  0
 47 69  1  0  0  0  0
 48 68  1  0  0  0  0
 49 51  1  0  0  0  0
 50 52  1  0  0  0  0
 50 53  1  0  0  0  0
 51 55  1  0  0  0  0
 52 57  1  0  0  0  0
 53 70  1  0  0  0  0
 54 57  1  0  0  0  0
 54 70  1  0  0  0  0
 55 74  1  0  0  0  0
 56 69  1  0  0  0  0
 57 67  1  0  0  0  0
 58 64  1  0  0  0  0
 59 65  1  0  0  0  0
 60 65  1  0  0  0  0
 61 65  1  0  0  0  0
 62 76  1  0  0  0  0
 63 65  1  0  0  0  0
 63 75  1  0  0  0  0
 64 76  1  0  0  0  0
 66 67  1  0  0  0  0
M  CHG  1  76   1
M  ISO  4  39 101  44 100  73 100  83 101
M  END
> <Batch ID>
0080

> <Smiles>
C=C1CN(c2cccc([100NH:0][100C:0](=O)N3CCCC(n4nc(-c5ccc(Oc6ccc(F)cc6F)cc5)c(C(N)=O)c4N)C3)c2)C(=[101CH:1][101O:1]c2ccc3c(c2)CN(C(=O)C(NC(=O)C(C)NC)C(C)(C)C)C(C(=O)NC2CCCc4ccccc42)C3)C1=C

> <Shape>
0.235

> <Color>
0.049

> <Negative vol penalty>
0.000

$$$$

  -OEChem-04052300023D

 85 94  0     1  0  0  0  0  0999 V2000
  -35.1025  -29.8358   16.8698 C   0  0  0  0  0  0  0  0  0  0  0  0
  -35.1518  -28.5975   17.5019 C   0  0  0  0  0  0  0  0  0  0  0  0
  -23.0327   -9.9132   19.9488 C   0  0  0  0  0  0  0  0  0  0  0  0
  -23.8062   -9.8920   22.2375 C   0  0  0  0  0  0  0  0  0  0  0  0
  -34.1821  -30.7953   17.2897 C   0  0  0  0  0  0  0  0  0  0  0  0
  -34.2816  -28.3183   18.5550 C   0  0  0  0  0  0  0  0  0  0  0  0
  -31.7394  -22.9103   19.8952 C   0  0  0  0  0  0  0  0  0  0  0  0
  -30.6425  -18.1941   24.0441 C   0  0  0  0  0  0  0  0  0  0  0  0
  -32.8029  -17.2981   23.4384 C   0  0  0  0  0  0  0  0  0  0  0  0
  -30.0294  -17.3279   23.1388 C   0  0  0  0  0  0  0  0  0  0  0  0
  -32.1898  -16.4319   22.5331 C   0  0  0  0  0  0  0  0  0  0  0  0
  -22.2637   -8.7766   20.1981 C   0  0  0  0  0  0  0  0  0  0  0  0
  -23.0371   -8.7553   22.4869 C   0  0  0  0  0  0  0  0  0  0  0  0
  -32.0731  -21.9199   20.8180 C   0  0  0  0  0  0  0  0  0  0  0  0
  -19.7949   -8.0301   23.1054 C   0  0  0  0  0  0  0  0  0  0  0  0
  -19.0442   -8.0024   24.2806 C   0  0  0  0  0  0  0  0  0  0  0  0
  -30.4852  -22.8480   22.3790 C   0  0  0  0  0  0  0  0  0  0  0  0
  -20.2445   -6.0333   25.0009 C   0  0  0  0  0  0  0  0  0  0  0  0
  -23.8040  -10.4709   20.9685 C   0  0  0  0  0  0  0  0  0  0  0  0
  -24.2039  -12.9880   20.8576 C   0  0  0  0  0  0  0  0  0  0  0  0
  -33.2936  -30.5243   18.3421 C   0  0  0  0  0  0  0  0  0  0  0  0
  -30.7824  -23.8851   20.2120 C   0  0  0  0  0  0  0  0  0  0  0  0
  -33.3494  -29.2756   18.9902 C   0  0  0  0  0  0  0  0  0  0  0  0
  -30.1394  -23.8482   21.4575 C   0  0  0  0  0  0  0  0  0  0  0  0
  -32.0292  -18.1793   24.1938 C   0  0  0  0  0  0  0  0  0  0  0  0
  -30.8031  -16.4468   22.3834 C   0  0  0  0  0  0  0  0  0  0  0  0
  -22.2659   -8.1976   21.4671 C   0  0  0  0  0  0  0  0  0  0  0  0
  -31.4481  -21.8904   22.0612 C   0  0  0  0  0  0  0  0  0  0  0  0
  -20.7704   -7.0593   22.8778 C   0  0  0  0  0  0  0  0  0  0  0  0
  -19.2690   -7.0040   25.2284 C   0  0  0  0  0  0  0  0  0  0  0  0
  -20.9952   -6.0609   23.8256 C   0  0  0  0  0  0  0  0  0  0  0  0
  -24.5991  -11.6448   20.7114 C   0  0  0  0  0  0  0  0  0  0  0  0
  -25.3110  -13.7135   20.4911 C   0  0  0  0  0  0  0  0  0  0  0  0
  -33.1766  -20.8422   26.4471 C   0  0  0  0  0  0  0  0  0  0  0  0
  -33.6111  -19.6477   27.1752 C   0  0  0  0  0  0  0  0  0  0  0  0
  -32.6307  -20.4530   25.1370 C   0  0  0  0  0  0  0  0  0  0  0  0
  -33.2514  -22.0930   26.9299 C   0  0  0  0  0  0  0  0  0  0  0  0
  -34.1405  -19.5488   28.4001 C   0  0  0  0  0  0  0  0  0  0  0  0
  -32.2771  -21.3176   24.1720 C   0  0  0  0  0  0  0  0  0  1  0  0
  -22.9483  -13.5313   21.2865 C   0  0  0  0  0  0  0  0  0  0  0  0
  -30.8152  -27.0505   20.5001 C   0  0  0  0  0  0  0  0  0  0  0  0
  -27.6157  -26.6605   20.8655 C   0  0  0  0  0  0  0  0  0  0  0  0
  -25.0274  -24.6144   21.7380 C   0  0  0  0  0  0  0  0  0  0  0  0
  -30.8010  -14.6308   20.6374 C   0  0  0  0  0  0  0  0  0  0  0  0
  -32.3483  -31.6100   18.7919 C   0  0  0  0  0  0  0  0  0  0  0  0
  -30.4143  -24.9308   19.1954 C   0  0  0  0  0  0  0  0  0  0  0  0
  -29.0905  -24.8596   21.8387 C   0  0  0  0  0  0  0  0  0  0  0  0
  -33.3384  -18.4636   26.2727 C   0  0  0  0  0  0  0  0  0  0  0  0
  -31.2077  -31.0998   19.6688 C   0  0  0  0  0  0  0  0  0  0  0  0
  -29.6166  -12.2545   18.2652 C   0  0  0  0  0  0  0  0  0  0  0  0
  -31.7412  -30.1593   20.7448 C   0  0  0  0  0  0  0  0  0  0  0  0
  -28.1732  -11.9945   18.7021 C   0  0  0  0  0  0  0  0  0  0  0  0
  -30.5439  -12.4564   19.4623 C   0  0  0  0  0  0  0  0  0  0  0  0
  -28.6626  -13.2187   20.8583 C   0  0  0  0  0  0  0  0  0  0  0  0
  -32.4051  -28.9263   20.1200 C   0  0  1  0  0  0  0  0  0  0  0  0
  -29.7980  -26.1793   19.8188 C   0  0  1  0  0  0  0  0  0  0  0  0
  -27.6790  -13.0735   19.6856 C   0  0  2  0  0  0  0  0  0  0  0  0
  -22.5290  -24.5890   21.9718 C   0  0  0  0  0  0  0  0  0  0  0  0
  -27.8448  -28.2491   23.4604 C   0  0  0  0  0  0  0  0  0  0  0  0
  -25.5829  -27.3903   24.1043 C   0  0  0  0  0  0  0  0  0  0  0  0
  -25.8437  -28.8079   22.0684 C   0  0  0  0  0  0  0  0  0  0  0  0
  -24.7436  -22.4741   19.7138 C   0  0  0  0  0  0  0  0  0  0  0  0
  -26.6942  -26.4272   22.0383 C   0  0  1  0  0  0  0  0  0  0  0  0
  -23.7077  -24.3112   21.0518 C   0  0  2  0  0  0  0  0  0  0  0  0
  -26.5125  -27.7006   22.9117 C   0  0  0  0  0  0  0  0  0  0  0  0
  -25.8589  -11.5215   20.2851 N   0  0  0  0  0  0  0  0  0  0  0  0
  -26.2648  -12.7965   20.1602 N   0  0  0  0  0  0  0  0  0  0  0  0
  -32.6494  -19.0563   25.1077 N   0  0  0  0  0  0  0  0  0  0  0  0
  -28.7697  -25.8659   20.8131 N   0  0  0  0  0  0  0  0  0  0  0  0
  -30.0144  -13.4959   20.3476 N   0  0  0  0  0  0  0  0  0  0  0  0
  -25.5519  -15.0400   20.4227 N   0  0  0  0  0  0  0  0  0  0  0  0
  -21.9175  -12.6444   21.6259 N   0  0  0  0  0  0  0  0  0  0  0  0
  -30.1802  -15.5669   21.4638 N   0  0  0  0  0  0  0  0  0  0  0  0
  -31.4017  -27.9859   19.6691 N   0  0  0  0  0  0  0  0  0  0  0  0
  -25.4518  -25.9013   21.4829 N   0  0  0  0  0  0  0  0  0  0  0  0
  -23.6550  -22.8801   20.6395 N   0  3  0  0  0  0  0  0  0  0  0  0
  -22.7411  -14.7668   21.3508 O   0  0  0  0  0  0  0  0  0  0  0  0
  -31.0495  -26.8871   21.6917 O   0  0  0  0  0  0  0  0  0  0  0  0
  -27.3188  -27.5112   20.0230 O   0  0  0  0  0  0  0  0  0  0  0  0
  -25.6205  -23.7931   22.4339 O   0  0  0  0  0  0  0  0  0  0  0  0
  -31.9309  -14.7754   20.1637 O   0  0  0  0  0  0  0  0  0  0  0  0
  -21.5154   -7.0886   21.7109 O   0  0  0  0  0  0  0  0  0  0  0  0
  -31.7724  -20.9252   22.9641 O   0  0  0  0  0  0  0  0  0  1  0  0
  -18.5491   -6.9785   26.3577 F   0  0  0  0  0  0  0  0  0  0  0  0
  -21.9317   -5.1263   23.6131 F   0  0  0  0  0  0  0  0  0  0  0  0
  1  2  1  0  0  0  0
  1  5  2  0  0  0  0
  2  6  2  0  0  0  0
  3 12  2  0  0  0  0
  3 19  1  0  0  0  0
  4 13  1  0  0  0  0
  4 19  2  0  0  0  0
  5 21  1  0  0  0  0
  6 23  1  0  0  0  0
  7 14  2  0  0  0  0
  7 22  1  0  0  0  0
  8 10  2  0  0  0  0
  8 25  1  0  0  0  0
  9 11  1  0  0  0  0
  9 25  2  0  0  0  0
 10 26  1  0  0  0  0
 11 26  2  0  0  0  0
 12 27  1  0  0  0  0
 13 27  2  0  0  0  0
 14 28  1  0  0  0  0
 15 16  2  0  0  0  0
 15 29  1  0  0  0  0
 16 30  1  0  0  0  0
 17 24  1  0  0  0  0
 17 28  2  0  0  0  0
 18 30  2  0  0  0  0
 18 31  1  0  0  0  0
 19 32  1  0  0  0  0
 20 32  1  0  0  0  0
 20 33  2  0  0  0  0
 20 40  1  0  0  0  0
 21 23  2  0  0  0  0
 21 45  1  0  0  0  0
 22 24  2  0  0  0  0
 22 46  1  0  0  0  0
 23 55  1  0  0  0  0
 24 47  1  0  0  0  0
 25 68  1  0  0  0  0
 26 73  1  0  0  0  0
 27 82  1  0  0  0  0
 28 83  1  0  0  0  0
 29 31  2  0  0  0  0
 29 82  1  0  0  0  0
 30 84  1  0  0  0  0
 31 85  1  0  0  0  0
 32 66  2  0  0  0  0
 33 67  1  0  0  0  0
 33 71  1  0  0  0  0
 34 35  1  0  0  0  0
 34 36  1  0  0  0  0
 34 37  2  0  0  0  0
 35 38  2  0  0  0  0
 35 48  1  0  0  0  0
 36 39  2  0  0  0  0
 36 68  1  0  0  0  0
 39 83  1  0  0  0  0
 40 72  1  0  0  0  0
 40 77  2  0  0  0  0
 41 56  1  0  0  0  0
 41 74  1  0  0  0  0
 41 78  2  0  0  0  0
 42 63  1  0  0  0  0
 42 69  1  0  0  0  0
 42 79  2  0  0  0  0
 43 64  1  0  0  0  0
 43 75  1  0  0  0  0
 43 80  2  0  0  0  0
 44 70  1  0  0  0  0
 44 73  1  0  0  0  0
 44 81  2  0  0  0  0
 45 49  1  0  0  0  0
 46 56  1  0  0  0  0
 47 69  1  0  0  0  0
 48 68  1  0  0  0  0
 49 51  1  0  0  0  0
 50 52  1  0  0  0  0
 50 53  1  0  0  0  0
 51 55  1  0  0  0  0
 52 57  1  0  0  0  0
 53 70  1  0  0  0  0
 54 57  1  0  0  0  0
 54 70  1  0  0  0  0
 55 74  1  0  0  0  0
 56 69  1  0  0  0  0
 57 67  1  0  0  0  0
 58 64  1  0  0  0  0
 59 65  1  0  0  0  0
 60 65  1  0  0  0  0
 61 65  1  0  0  0  0
 62 76  1  0  0  0  0
 63 65  1  0  0  0  0
 63 75  1  0  0  0  0
 64 76  1  0  0  0  0
 66 67  1  0  0  0  0
M  CHG  1  76   1
M  ISO  4  39 101  44 100  73 100  83 101
M  END
> <Batch ID>
0080

> <Smiles>
C=C1CN(c2ccc([100NH:0][100C:0](=O)N3CCCC(n4nc(-c5ccc(Oc6ccc(F)cc6F)cc5)c(C(N)=O)c4N)C3)cc2)C(=[101CH:1][101O:1]c2ccc3c(c2)CN(C(=O)C(NC(=O)C(C)NC)C(C)(C)C)C(C(=O)NC2CCCc4ccccc42)C3)C1=C

> <Shape>
0.230

> <Color>
0.198

> <Negative vol penalty>
0.000

$$$$

  -OEChem-04052300023D

 86 95  0     1  0  0  0  0  0999 V2000
  -19.7154  -25.2618   24.2302 C   0  0  0  0  0  0  0  0  0  0  0  0
  -20.7777  -25.2391   23.3322 C   0  0  0  0  0  0  0  0  0  0  0  0
  -23.8267   -8.7257   19.9773 C   0  0  0  0  0  0  0  0  0  0  0  0
  -23.1231  -10.4522   21.5138 C   0  0  0  0  0  0  0  0  0  0  0  0
  -18.8618  -26.3635   24.2706 C   0  0  0  0  0  0  0  0  0  0  0  0
  -20.9865  -26.3176   22.4734 C   0  0  0  0  0  0  0  0  0  0  0  0
  -25.8536  -27.6954   22.2324 C   0  0  0  0  0  0  0  0  0  0  0  0
  -27.7745  -19.9791   18.9570 C   0  0  0  0  0  0  0  0  0  0  0  0
  -29.8679  -19.9346   20.1623 C   0  0  0  0  0  0  0  0  0  0  0  0
  -27.7875  -18.5863   18.8830 C   0  0  0  0  0  0  0  0  0  0  0  0
  -29.8809  -18.5417   20.0883 C   0  0  0  0  0  0  0  0  0  0  0  0
  -23.0366   -7.7987   20.6570 C   0  0  0  0  0  0  0  0  0  0  0  0
  -22.3329   -9.5253   22.1936 C   0  0  0  0  0  0  0  0  0  0  0  0
  -26.6982  -26.9142   21.4450 C   0  0  0  0  0  0  0  0  0  0  0  0
  -23.2237   -5.9735   23.4956 C   0  0  0  0  0  0  0  0  0  0  0  0
  -23.7853   -4.7286   23.7791 C   0  0  0  0  0  0  0  0  0  0  0  0
  -26.5340  -28.5379   19.6686 C   0  0  0  0  0  0  0  0  0  0  0  0
  -22.0484   -3.6516   22.4904 C   0  0  0  0  0  0  0  0  0  0  0  0
  -23.8700  -10.0525   20.4057 C   0  0  0  0  0  0  0  0  0  0  0  0
  -24.3034  -11.8207   18.6187 C   0  0  0  0  0  0  0  0  0  0  0  0
  -19.0659  -27.4603   23.4185 C   0  0  0  0  0  0  0  0  0  0  0  0
  -25.3332  -28.9004   21.7389 C   0  0  0  0  0  0  0  0  0  0  0  0
  -20.1340  -27.4344   22.5016 C   0  0  0  0  0  0  0  0  0  0  0  0
  -25.6850  -29.3338   20.4527 C   0  0  0  0  0  0  0  0  0  0  0  0
  -28.8148  -20.6533   19.5967 C   0  0  0  0  0  0  0  0  0  0  0  0
  -28.8407  -17.8676   19.4487 C   0  0  0  0  0  0  0  0  0  0  0  0
  -22.2897   -8.1985   21.7651 C   0  0  0  0  0  0  0  0  0  0  0  0
  -27.0362  -27.3340   20.1618 C   0  0  0  0  0  0  0  0  0  0  0  0
  -22.0744   -6.0575   22.7096 C   0  0  0  0  0  0  0  0  0  0  0  0
  -23.1977   -3.5677   23.2765 C   0  0  0  0  0  0  0  0  0  0  0  0
  -21.4868   -4.8966   22.2070 C   0  0  0  0  0  0  0  0  0  0  0  0
  -24.6865  -11.0104   19.7043 C   0  0  0  0  0  0  0  0  0  0  0  0
  -25.4295  -12.5477   18.3188 C   0  0  0  0  0  0  0  0  0  0  0  0
  -28.2121  -24.2568   19.4586 C   0  0  0  0  0  0  0  0  0  0  0  0
  -29.4605  -24.2400   20.1790 C   0  0  0  0  0  0  0  0  0  0  0  0
  -27.7944  -22.8638   19.1365 C   0  0  0  0  0  0  0  0  0  0  0  0
  -30.1636  -25.2773   20.6461 C   0  0  0  0  0  0  0  0  0  0  0  0
  -23.0424  -11.9084   17.9420 C   0  0  0  0  0  0  0  0  0  0  0  0
  -27.4633  -25.3010   19.0869 C   0  0  0  0  0  0  0  0  0  1  0  0
  -22.4132  -30.0048   21.1407 C   0  0  0  0  0  0  0  0  0  0  0  0
  -24.0035  -32.7679   20.5422 C   0  0  0  0  0  0  0  0  0  0  0  0
  -26.9238  -34.2970   19.6587 C   0  0  0  0  0  0  0  0  0  0  0  0
  -29.8236  -15.5890   19.8825 C   0  0  0  0  0  0  0  0  0  0  0  0
  -18.0888  -28.6082   23.4660 C   0  0  0  0  0  0  0  0  0  0  0  0
  -24.4447  -29.7448   22.6108 C   0  0  0  0  0  0  0  0  0  0  0  0
  -25.1693  -30.6295   19.8837 C   0  0  0  0  0  0  0  0  0  0  0  0
  -29.8627  -22.8038   20.3275 C   0  0  0  0  0  0  0  0  0  0  0  0
  -18.6013  -29.8730   22.7821 C   0  0  0  0  0  0  0  0  0  0  0  0
  -30.2000  -12.0488   19.9358 C   0  0  0  0  0  0  0  0  0  0  0  0
  -19.2063  -29.5371   21.4227 C   0  0  0  0  0  0  0  0  0  0  0  0
  -28.7676  -11.5297   19.7911 C   0  0  0  0  0  0  0  0  0  0  0  0
  -30.2607  -13.3161   20.7868 C   0  0  0  0  0  0  0  0  0  0  0  0
  -27.9320  -13.8775   20.2114 C   0  0  0  0  0  0  0  0  0  0  0  0
  -20.4079  -28.5960   21.5710 C   0  0  1  0  0  0  0  0  0  0  0  0
  -23.5612  -30.7008   21.8154 C   0  0  1  0  0  0  0  0  0  0  0  0
  -27.8123  -12.6389   19.3086 C   0  0  2  0  0  0  0  0  0  0  0  0
  -26.1772  -25.1718   18.3362 C   0  0  0  0  0  0  0  0  0  0  0  0
  -27.9046  -36.5637   19.2146 C   0  0  0  0  0  0  0  0  0  0  0  0
  -22.6051  -32.8392   17.8313 C   0  0  0  0  0  0  0  0  0  0  0  0
  -24.2914  -34.5323   17.0841 C   0  0  0  0  0  0  0  0  0  0  0  0
  -22.7605  -35.0534   18.9834 C   0  0  0  0  0  0  0  0  0  0  0  0
  -28.8869  -34.0056   21.8542 C   0  0  0  0  0  0  0  0  0  0  0  0
  -24.6375  -33.3941   19.3237 C   0  0  1  0  0  0  0  0  0  0  0  0
  -27.6609  -35.4822   20.2556 C   0  0  2  0  0  0  0  0  0  0  0  0
  -23.5820  -33.9294   18.3153 C   0  0  0  0  0  0  0  0  0  0  0  0
  -25.9566  -11.2039   20.0693 N   0  0  0  0  0  0  0  0  0  0  0  0
  -26.3815  -12.1441   19.2081 N   0  0  0  0  0  0  0  0  0  0  0  0
  -28.8021  -22.0425   19.6703 N   0  0  0  0  0  0  0  0  0  0  0  0
  -24.2988  -31.4168   20.7726 N   0  0  0  0  0  0  0  0  0  0  0  0
  -29.3330  -14.3235   20.2678 N   0  0  0  0  0  0  0  0  0  0  0  0
  -25.6882  -13.4863   17.3837 N   0  0  0  0  0  0  0  0  0  0  0  0
  -21.9915  -11.0904   18.3787 N   0  0  0  0  0  0  0  0  0  0  0  0
  -28.8542  -16.4527   19.3736 N   0  0  0  0  0  0  0  0  0  0  0  0
  -21.5749  -29.3315   22.0088 N   0  0  0  0  0  0  0  0  0  0  0  0
  -25.5591  -34.4105   19.8198 N   0  0  0  0  0  0  0  0  0  0  0  0
  -28.9785  -35.0508   20.8024 N   0  3  0  0  0  0  0  0  0  0  0  0
  -26.7844  -22.5395   18.5347 O   0  0  0  0  0  0  0  0  0  0  0  0
  -22.8581  -12.6772   16.9681 O   0  0  0  0  0  0  0  0  0  0  0  0
  -22.2957  -30.0747   19.9230 O   0  0  0  0  0  0  0  0  0  0  0  0
  -23.2788  -33.4543   21.2671 O   0  0  0  0  0  0  0  0  0  0  0  0
  -27.5006  -33.3656   19.1017 O   0  0  0  0  0  0  0  0  0  0  0  0
  -31.0204  -15.8752   19.9701 O   0  0  0  0  0  0  0  0  0  0  0  0
  -21.5184   -7.2943   22.4285 O   0  0  0  0  0  0  0  0  0  0  0  0
  -27.8600  -26.5730   19.3909 O   0  0  0  0  0  0  0  0  0  1  0  0
  -23.7380   -2.3723   23.5475 F   0  0  0  0  0  0  0  0  0  0  0  0
  -20.3833   -4.9711   21.4504 F   0  0  0  0  0  0  0  0  0  0  0  0
  1  2  1  0  0  0  0
  1  5  2  0  0  0  0
  2  6  2  0  0  0  0
  3 12  2  0  0  0  0
  3 19  1  0  0  0  0
  4 13  1  0  0  0  0
  4 19  2  0  0  0  0
  5 21  1  0  0  0  0
  6 23  1  0  0  0  0
  7 14  2  0  0  0  0
  7 22  1  0  0  0  0
  8 10  2  0  0  0  0
  8 25  1  0  0  0  0
  9 11  1  0  0  0  0
  9 25  2  0  0  0  0
 10 26  1  0  0  0  0
 11 26  2  0  0  0  0
 12 27  1  0  0  0  0
 13 27  2  0  0  0  0
 14 28  1  0  0  0  0
 15 16  2  0  0  0  0
 15 29  1  0  0  0  0
 16 30  1  0  0  0  0
 17 24  1  0  0  0  0
 17 28  2  0  0  0  0
 18 30  2  0  0  0  0
 18 31  1  0  0  0  0
 19 32  1  0  0  0  0
 20 32  1  0  0  0  0
 20 33  2  0  0  0  0
 20 38  1  0  0  0  0
 21 23  2  0  0  0  0
 21 44  1  0  0  0  0
 22 24  2  0  0  0  0
 22 45  1  0  0  0  0
 23 54  1  0  0  0  0
 24 46  1  0  0  0  0
 25 68  1  0  0  0  0
 26 73  1  0  0  0  0
 27 83  1  0  0  0  0
 28 84  1  0  0  0  0
 29 31  2  0  0  0  0
 29 83  1  0  0  0  0
 30 85  1  0  0  0  0
 31 86  1  0  0  0  0
 32 66  2  0  0  0  0
 33 67  1  0  0  0  0
 33 71  1  0  0  0  0
 34 35  1  0  0  0  0
 34 36  1  0  0  0  0
 34 39  2  0  0  0  0
 35 37  2  0  0  0  0
 35 47  1  0  0  0  0
 36 68  1  0  0  0  0
 36 77  2  0  0  0  0
 38 72  1  0  0  0  0
 38 78  2  0  0  0  0
 39 57  1  0  0  0  0
 39 84  1  0  0  0  0
 40 55  1  0  0  0  0
 40 74  1  0  0  0  0
 40 79  2  0  0  0  0
 41 63  1  0  0  0  0
 41 69  1  0  0  0  0
 41 80  2  0  0  0  0
 42 64  1  0  0  0  0
 42 75  1  0  0  0  0
 42 81  2  0  0  0  0
 43 70  1  0  0  0  0
 43 73  1  0  0  0  0
 43 82  2  0  0  0  0
 44 48  1  0  0  0  0
 45 55  1  0  0  0  0
 46 69  1  0  0  0  0
 47 68  1  0  0  0  0
 48 50  1  0  0  0  0
 49 51  1  0  0  0  0
 49 52  1  0  0  0  0
 50 54  1  0  0  0  0
 51 56  1  0  0  0  0
 52 70  1  0  0  0  0
 53 56  1  0  0  0  0
 53 70  1  0  0  0  0
 54 74  1  0  0  0  0
 55 69  1  0  0  0  0
 56 67  1  0  0  0  0
 58 64  1  0  0  0  0
 59 65  1  0  0  0  0
 60 65  1  0  0  0  0
 61 65  1  0  0  0  0
 62 76  1  0  0  0  0
 63 65  1  0  0  0  0
 63 75  1  0  0  0  0
 64 76  1  0  0  0  0
 66 67  1  0  0  0  0
M  CHG  1  76   1
M  ISO  4  39 101  43 100  73 100  84 101
M  END
> <Batch ID>
0080

> <Smiles>
C=C1CN(c2ccc([100NH:0][100C:0](=O)N3CCCC(n4nc(-c5ccc(Oc6ccc(F)cc6F)cc5)c(C(N)=O)c4N)C3)cc2)C(=O)C1=[101C:1](C)[101O:1]c1ccc2c(c1)CN(C(=O)C(NC(=O)C(C)NC)C(C)(C)C)C(C(=O)NC1CCCc3ccccc31)C2

> <Shape>
0.295

> <Color>
0.129

> <Negative vol penalty>
0.000

$$$$

  -OEChem-04052300023D

 84 93  0     1  0  0  0  0  0999 V2000
  -28.1035  -37.4657   22.1798 C   0  0  0  0  0  0  0  0  0  0  0  0
  -28.4533  -36.4121   21.3413 C   0  0  0  0  0  0  0  0  0  0  0  0
  -24.3539   -9.0520   21.2884 C   0  0  0  0  0  0  0  0  0  0  0  0
  -23.0680  -11.0961   21.3592 C   0  0  0  0  0  0  0  0  0  0  0  0
  -27.4818  -37.2067   23.4006 C   0  0  0  0  0  0  0  0  0  0  0  0
  -28.1824  -35.0988   21.7236 C   0  0  0  0  0  0  0  0  0  0  0  0
  -26.4259  -28.7285   18.9577 C   0  0  0  0  0  0  0  0  0  0  0  0
  -23.5206   -8.4942   22.2580 C   0  0  0  0  0  0  0  0  0  0  0  0
  -22.2347  -10.5383   22.3288 C   0  0  0  0  0  0  0  0  0  0  0  0
  -26.8376  -27.3966   18.9742 C   0  0  0  0  0  0  0  0  0  0  0  0
  -20.4490   -7.0869   22.3920 C   0  0  0  0  0  0  0  0  0  0  0  0
  -20.0010   -5.7817   22.1887 C   0  0  0  0  0  0  0  0  0  0  0  0
  -25.6882  -27.0736   21.0703 C   0  0  0  0  0  0  0  0  0  0  0  0
  -28.9404  -18.9864   20.1385 C   0  0  0  0  0  0  0  0  0  0  0  0
  -21.0629   -5.0964   24.2478 C   0  0  0  0  0  0  0  0  0  0  0  0
  -26.7419  -18.6085   20.1517 C   0  0  0  0  0  0  0  0  0  0  0  0
  -24.1276  -10.3530   20.8390 C   0  0  0  0  0  0  0  0  0  0  0  0
  -24.8236  -10.8748   18.4409 C   0  0  0  0  0  0  0  0  0  0  0  0
  -27.1945  -35.8900   23.7937 C   0  0  0  0  0  0  0  0  0  0  0  0
  -25.6500  -29.2467   20.0045 C   0  0  0  0  0  0  0  0  0  0  0  0
  -27.5575  -34.8218   22.9514 C   0  0  0  0  0  0  0  0  0  0  0  0
  -25.2657  -28.4117   21.0634 C   0  0  0  0  0  0  0  0  0  0  0  0
  -27.9587  -17.9671   20.1567 C   0  0  0  0  0  0  0  0  0  0  0  0
  -22.4610   -9.2373   22.7781 C   0  0  0  0  0  0  0  0  0  0  0  0
  -26.4712  -26.5697   20.0321 C   0  0  0  0  0  0  0  0  0  0  0  0
  -21.2041   -7.3969   23.5232 C   0  0  0  0  0  0  0  0  0  0  0  0
  -20.3079   -4.7865   23.1165 C   0  0  0  0  0  0  0  0  0  0  0  0
  -21.5110   -6.4016   24.4511 C   0  0  0  0  0  0  0  0  0  0  0  0
  -24.9884  -10.9299   19.8379 C   0  0  0  0  0  0  0  0  0  0  0  0
  -25.8980  -11.5690   17.9408 C   0  0  0  0  0  0  0  0  0  0  0  0
  -28.2536  -20.1780   20.1234 C   0  0  0  0  0  0  0  0  0  0  0  0
  -28.7189  -23.7763   20.0677 C   0  0  0  0  0  0  0  0  0  0  0  0
  -30.0974  -23.3552   20.0693 C   0  0  0  0  0  0  0  0  0  0  0  0
  -27.8252  -22.5848   20.0893 C   0  0  0  0  0  0  0  0  0  0  0  0
  -31.1977  -24.1152   20.0558 C   0  0  0  0  0  0  0  0  0  0  0  0
  -28.2141  -25.0099   20.0502 C   0  0  0  0  0  0  0  0  0  1  0  0
  -23.7915  -10.2519   17.6648 C   0  0  0  0  0  0  0  0  0  0  0  0
  -26.0470  -31.5421   22.1672 C   0  0  0  0  0  0  0  0  0  0  0  0
  -22.9607  -30.8554   22.8920 C   0  0  0  0  0  0  0  0  0  0  0  0
  -20.4097  -28.5888   22.8483 C   0  0  0  0  0  0  0  0  0  0  0  0
  -29.3730  -15.8825   20.1821 C   0  0  0  0  0  0  0  0  0  0  0  0
  -26.5639  -35.6568   25.1438 C   0  0  0  0  0  0  0  0  0  0  0  0
  -25.1915  -30.6785   19.9585 C   0  0  0  0  0  0  0  0  0  0  0  0
  -24.4166  -28.9140   22.2015 C   0  0  0  0  0  0  0  0  0  0  0  0
  -30.0989  -21.8566   20.0918 C   0  0  0  0  0  0  0  0  0  0  0  0
  -25.9733  -34.2586   25.3068 C   0  0  0  0  0  0  0  0  0  0  0  0
  -30.4336  -12.7045   18.9768 C   0  0  0  0  0  0  0  0  0  0  0  0
  -26.9568  -33.2027   24.8124 C   0  0  0  0  0  0  0  0  0  0  0  0
  -29.1417  -11.8857   18.9279 C   0  0  0  0  0  0  0  0  0  0  0  0
  -30.4616  -13.6487   20.1774 C   0  0  0  0  0  0  0  0  0  0  0  0
  -28.0000  -13.7087   20.2546 C   0  0  0  0  0  0  0  0  0  0  0  0
  -27.2579  -33.3850   23.3198 C   0  0  1  0  0  0  0  0  0  0  0  0
  -24.8352  -31.2363   21.3330 C   0  0  1  0  0  0  0  0  0  0  0  0
  -27.8973  -12.7898   19.0263 C   0  0  2  0  0  0  0  0  0  0  0  0
  -18.0166  -28.3026   23.5473 C   0  0  0  0  0  0  0  0  0  0  0  0
  -23.8523  -30.4929   25.7874 C   0  0  0  0  0  0  0  0  0  0  0  0
  -21.6900  -29.3119   26.2323 C   0  0  0  0  0  0  0  0  0  0  0  0
  -21.6793  -31.6990   25.5082 C   0  0  0  0  0  0  0  0  0  0  0  0
  -19.5240  -28.1624   20.0567 C   0  0  0  0  0  0  0  0  0  0  0  0
  -22.2713  -29.8988   23.8346 C   0  0  1  0  0  0  0  0  0  0  0  0
  -18.9571  -28.7151   22.4257 C   0  0  2  0  0  0  0  0  0  0  0  0
  -22.3908  -30.3414   25.3203 C   0  0  0  0  0  0  0  0  0  0  0  0
  -26.0816  -11.6056   20.2019 N   0  0  0  0  0  0  0  0  0  0  0  0
  -26.6134  -11.9813   19.0263 N   0  0  0  0  0  0  0  0  0  0  0  0
  -28.6879  -21.4755   20.1026 N   0  0  0  0  0  0  0  0  0  0  0  0
  -23.9986  -30.3230   22.1141 N   0  0  0  0  0  0  0  0  0  0  0  0
  -29.2539  -14.4767   20.2029 N   0  0  0  0  0  0  0  0  0  0  0  0
  -26.2912  -11.8608   16.6827 N   0  0  0  0  0  0  0  0  0  0  0  0
  -22.7622   -9.5802   18.3384 N   0  0  0  0  0  0  0  0  0  0  0  0
  -28.1564  -16.5641   20.1764 N   0  0  0  0  0  0  0  0  0  0  0  0
  -26.1671  -32.8733   22.5180 N   0  0  0  0  0  0  0  0  0  0  0  0
  -20.8984  -29.7735   23.3572 N   0  0  0  0  0  0  0  0  0  0  0  0
  -18.6849  -27.8509   21.2424 N   0  3  0  0  0  0  0  0  0  0  0  0
  -26.6054  -22.6104   20.0938 O   0  0  0  0  0  0  0  0  0  0  0  0
  -23.7911  -10.2758   16.4106 O   0  0  0  0  0  0  0  0  0  0  0  0
  -26.8152  -30.6372   22.4713 O   0  0  0  0  0  0  0  0  0  0  0  0
  -22.5871  -32.0300   22.8423 O   0  0  0  0  0  0  0  0  0  0  0  0
  -21.0460  -27.5427   22.7414 O   0  0  0  0  0  0  0  0  0  0  0  0
  -30.4727  -16.4401   20.1427 O   0  0  0  0  0  0  0  0  0  0  0  0
  -26.9130  -19.9564   20.1312 O   0  0  0  0  0  0  0  0  0  0  0  0
  -21.6475   -8.6933   23.7241 O   0  0  0  0  0  0  0  0  0  0  0  0
  -26.8723  -25.2694   20.0511 O   0  0  0  0  0  0  0  0  0  1  0  0
  -19.8763   -3.5335   22.9219 F   0  0  0  0  0  0  0  0  0  0  0  0
  -22.2350   -6.6936   25.5403 F   0  0  0  0  0  0  0  0  0  0  0  0
  1  2  1  0  0  0  0
  1  5  2  0  0  0  0
  2  6  2  0  0  0  0
  3  8  2  0  0  0  0
  3 17  1  0  0  0  0
  4  9  1  0  0  0  0
  4 17  2  0  0  0  0
  5 19  1  0  0  0  0
  6 21  1  0  0  0  0
  7 10  2  0  0  0  0
  7 20  1  0  0  0  0
  8 24  1  0  0  0  0
  9 24  2  0  0  0  0
 10 25  1  0  0  0  0
 11 12  2  0  0  0  0
 11 26  1  0  0  0  0
 12 27  1  0  0  0  0
 13 22  1  0  0  0  0
 13 25  2  0  0  0  0
 14 23  1  0  0  0  0
 14 31  2  0  0  0  0
 15 27  2  0  0  0  0
 15 28  1  0  0  0  0
 16 23  2  0  0  0  0
 16 80  1  0  0  0  0
 17 29  1  0  0  0  0
 18 29  1  0  0  0  0
 18 30  2  0  0  0  0
 18 37  1  0  0  0  0
 19 21  2  0  0  0  0
 19 42  1  0  0  0  0
 20 22  2  0  0  0  0
 20 43  1  0  0  0  0
 21 52  1  0  0  0  0
 22 44  1  0  0  0  0
 23 70  1  0  0  0  0
 24 81  1  0  0  0  0
 25 82  1  0  0  0  0
 26 28  2  0  0  0  0
 26 81  1  0  0  0  0
 27 83  1  0  0  0  0
 28 84  1  0  0  0  0
 29 63  2  0  0  0  0
 30 64  1  0  0  0  0
 30 68  1  0  0  0  0
 31 65  1  0  0  0  0
 31 80  1  0  0  0  0
 32 33  1  0  0  0  0
 32 34  1  0  0  0  0
 32 36  2  0  0  0  0
 33 35  2  0  0  0  0
 33 45  1  0  0  0  0
 34 65  1  0  0  0  0
 34 74  2  0  0  0  0
 36 82  1  0  0  0  0
 37 69  1  0  0  0  0
 37 75  2  0  0  0  0
 38 53  1  0  0  0  0
 38 71  1  0  0  0  0
 38 76  2  0  0  0  0
 39 60  1  0  0  0  0
 39 66  1  0  0  0  0
 39 77  2  0  0  0  0
 40 61  1  0  0  0  0
 40 72  1  0  0  0  0
 40 78  2  0  0  0  0
 41 67  1  0  0  0  0
 41 70  1  0  0  0  0
 41 79  2  0  0  0  0
 42 46  1  0  0  0  0
 43 53  1  0  0  0  0
 44 66  1  0  0  0  0
 45 65  1  0  0  0  0
 46 48  1  0  0  0  0
 47 49  1  0  0  0  0
 47 50  1  0  0  0  0
 48 52  1  0  0  0  0
 49 54  1  0  0  0  0
 50 67  1  0  0  0  0
 51 54  1  0  0  0  0
 51 67  1  0  0  0  0
 52 71  1  0  0  0  0
 53 66  1  0  0  0  0
 54 64  1  0  0  0  0
 55 61  1  0  0  0  0
 56 62  1  0  0  0  0
 57 62  1  0  0  0  0
 58 62  1  0  0  0  0
 59 73  1  0  0  0  0
 60 62  1  0  0  0  0
 60 72  1  0  0  0  0
 61 73  1  0  0  0  0
 63 64  1  0  0  0  0
M  CHG  1  73   1
M  ISO  4  36 101  41 100  70 100  82 101
M  END
> <Batch ID>
0080

> <Smiles>
C=C1CN(c2cc([100NH:0][100C:0](=O)N3CCCC(n4nc(-c5ccc(Oc6ccc(F)cc6F)cc5)c(C(N)=O)c4N)C3)co2)C(=O)C1=[101CH:1][101O:1]c1ccc2c(c1)CN(C(=O)C(NC(=O)C(C)NC)C(C)(C)C)C(C(=O)NC1CCCc3ccccc31)C2

> <Shape>
0.344

> <Color>
0.091

> <Negative vol penalty>
0.000

$$$$

  -OEChem-04052300023D

 85 93  0     1  0  0  0  0  0999 V2000
  -28.3198  -33.8941   16.6716 C   0  0  0  0  0  0  0  0  0  0  0  0
  -29.3371  -33.0824   17.1632 C   0  0  0  0  0  0  0  0  0  0  0  0
  -28.9189  -19.6906   23.9455 C   0  0  0  0  0  0  0  0  0  0  0  0
  -23.8262   -9.6259   19.9458 C   0  0  0  0  0  0  0  0  0  0  0  0
  -24.7621   -9.7674   22.1686 C   0  0  0  0  0  0  0  0  0  0  0  0
  -30.2535  -20.0930   23.9954 C   0  0  0  0  0  0  0  0  0  0  0  0
  -27.0231  -33.7617   17.1666 C   0  0  0  0  0  0  0  0  0  0  0  0
  -29.0585  -32.1385   18.1510 C   0  0  0  0  0  0  0  0  0  0  0  0
  -31.6338  -26.6203   18.8012 C   0  0  0  0  0  0  0  0  0  0  0  0
  -28.5201  -18.7083   23.0388 C   0  0  0  0  0  0  0  0  0  0  0  0
  -23.4577   -8.3021   20.1851 C   0  0  0  0  0  0  0  0  0  0  0  0
  -24.3936   -8.4436   22.4080 C   0  0  0  0  0  0  0  0  0  0  0  0
  -32.6639  -26.1563   19.6182 C   0  0  0  0  0  0  0  0  0  0  0  0
  -21.5833   -6.7490   23.2148 C   0  0  0  0  0  0  0  0  0  0  0  0
  -20.9783   -6.4573   24.4372 C   0  0  0  0  0  0  0  0  0  0  0  0
  -30.7905  -18.5313   22.2320 C   0  0  0  0  0  0  0  0  0  0  0  0
  -31.0359  -25.3845   21.2223 C   0  0  0  0  0  0  0  0  0  0  0  0
  -22.7708   -4.9234   24.9583 C   0  0  0  0  0  0  0  0  0  0  0  0
  -24.4785  -10.3586   20.9375 C   0  0  0  0  0  0  0  0  0  0  0  0
  -31.1893  -19.5134   23.1387 C   0  0  0  0  0  0  0  0  0  0  0  0
  -24.0938  -12.8804   20.9398 C   0  0  0  0  0  0  0  0  0  0  0  0
  -26.7265  -32.8090   18.1541 C   0  0  0  0  0  0  0  0  0  0  0  0
  -30.2951  -26.4794   19.1944 C   0  0  0  0  0  0  0  0  0  0  0  0
  -27.7569  -31.9941   18.6607 C   0  0  0  0  0  0  0  0  0  0  0  0
  -29.9906  -25.8452   20.4073 C   0  0  0  0  0  0  0  0  0  0  0  0
  -29.4559  -18.1287   22.1821 C   0  0  0  0  0  0  0  0  0  0  0  0
  -23.7414   -7.7109   21.4163 C   0  0  0  0  0  0  0  0  0  0  0  0
  -32.3651  -25.5409   20.8302 C   0  0  0  0  0  0  0  0  0  0  0  0
  -22.7820   -6.1279   22.8640 C   0  0  0  0  0  0  0  0  0  0  0  0
  -21.5720   -5.5445   25.3090 C   0  0  0  0  0  0  0  0  0  0  0  0
  -23.3757   -5.2152   23.7358 C   0  0  0  0  0  0  0  0  0  0  0  0
  -24.8598  -11.7259   20.6906 C   0  0  0  0  0  0  0  0  0  0  0  0
  -24.8968  -13.9191   20.5365 C   0  0  0  0  0  0  0  0  0  0  0  0
  -32.6030  -19.9387   23.1913 C   0  0  0  0  0  0  0  0  0  0  0  0
  -22.7742  -13.0030   21.4871 C   0  0  0  0  0  0  0  0  0  0  0  0
  -34.2197  -23.2735   22.6061 C   0  0  0  0  0  0  0  0  0  0  0  0
  -34.1956  -21.8134   22.9412 C   0  0  0  0  0  0  0  0  0  0  0  0
  -27.9211  -28.4941   19.8337 C   0  0  0  0  0  0  0  0  0  0  0  0
  -26.1832  -25.7639   20.0532 C   0  0  0  0  0  0  0  0  0  0  0  0
  -26.1345  -22.3975   20.6113 C   0  0  0  0  0  0  0  0  0  0  0  0
  -29.8503  -16.4545   20.3416 C   0  0  0  0  0  0  0  0  0  0  0  0
  -25.3195  -32.7351   18.6921 C   0  0  0  0  0  0  0  0  0  0  0  0
  -29.1946  -26.9613   18.2894 C   0  0  0  0  0  0  0  0  0  0  0  0
  -28.5691  -25.6513   20.8658 C   0  0  0  0  0  0  0  0  0  0  0  0
  -25.0316  -31.4540   19.4706 C   0  0  0  0  0  0  0  0  0  0  0  0
  -29.2362  -13.9077   17.9303 C   0  0  0  0  0  0  0  0  0  0  0  0
  -26.1622  -31.1599   20.4515 C   0  0  0  0  0  0  0  0  0  0  0  0
  -27.9798  -13.2080   18.4540 C   0  0  0  0  0  0  0  0  0  0  0  0
  -30.1585  -14.3433   19.0676 C   0  0  0  0  0  0  0  0  0  0  0  0
  -28.2610  -14.4536   20.6350 C   0  0  0  0  0  0  0  0  0  0  0  0
  -27.4891  -30.9415   19.7145 C   0  0  1  0  0  0  0  0  0  0  0  0
  -27.8864  -27.2261   19.0283 C   0  0  1  0  0  0  0  0  0  0  0  0
  -27.2703  -14.0542   19.5292 C   0  0  2  0  0  0  0  0  0  0  0  0
  -35.3174  -24.0985   23.2134 C   0  0  0  0  0  0  0  0  0  0  0  0
  -24.5612  -20.4483   20.7627 C   0  0  0  0  0  0  0  0  0  0  0  0
  -25.2881  -26.7039   22.8146 C   0  0  0  0  0  0  0  0  0  0  0  0
  -24.5293  -24.3654   23.2880 C   0  0  0  0  0  0  0  0  0  0  0  0
  -23.4835  -25.6625   21.4315 C   0  0  0  0  0  0  0  0  0  0  0  0
  -27.4523  -21.0097   18.3538 C   0  0  0  0  0  0  0  0  0  0  0  0
  -25.8444  -24.7986   21.1634 C   0  0  1  0  0  0  0  0  0  0  0  0
  -25.4717  -21.2605   19.8548 C   0  0  2  0  0  0  0  0  0  0  0  0
  -24.8133  -25.3878   22.1669 C   0  0  0  0  0  0  0  0  0  0  0  0
  -26.0575  -12.0045   20.1691 N   0  0  0  0  0  0  0  0  0  0  0  0
  -33.2644  -23.7031   21.8454 N   0  0  0  0  0  0  0  0  0  1  0  0
  -26.0501  -13.3459   20.0873 N   0  0  0  0  0  0  0  0  0  0  0  0
  -27.5284  -26.1451   19.9489 N   0  0  0  0  0  0  0  0  0  0  0  0
  -29.4187  -15.1442   20.0454 N   0  0  0  0  0  0  0  0  0  0  0  0
  -24.7220  -15.2576   20.5257 N   0  0  0  0  0  0  0  0  0  0  0  0
  -22.0898  -11.8346   21.8489 N   0  0  0  0  0  0  0  0  0  0  0  0
  -29.0499  -17.1311   21.2615 N   0  0  0  0  0  0  0  0  0  0  0  0
  -32.8859  -21.2252   22.9468 N   0  0  0  0  0  0  0  0  0  0  0  0
  -27.5311  -29.6180   19.1307 N   0  0  0  0  0  0  0  0  0  0  0  0
  -25.4097  -23.5665   20.5144 N   0  0  0  0  0  0  0  0  0  0  0  0
  -33.5196  -19.0164   23.4834 N   0  3  0  0  0  0  0  0  0  0  0  0
  -26.5023  -20.3476   19.2844 N   0  3  0  0  0  0  0  0  0  0  0  0
  -22.2122  -14.1146   21.6353 O   0  0  0  0  0  0  0  0  0  0  0  0
  -35.2252  -21.2022   23.1621 O   0  0  0  0  0  0  0  0  0  0  0  0
  -28.2741  -28.4554   21.0065 O   0  0  0  0  0  0  0  0  0  0  0  0
  -25.2885  -26.1594   19.3017 O   0  0  0  0  0  0  0  0  0  0  0  0
  -27.1878  -22.2613   21.2298 O   0  0  0  0  0  0  0  0  0  0  0  0
  -30.8402  -16.9502   19.7972 O   0  0  0  0  0  0  0  0  0  0  0  0
  -23.3818   -6.4192   21.6503 O   0  0  0  0  0  0  0  0  0  0  0  0
  -33.3687  -25.0877   21.6298 O   0  0  0  0  0  0  0  0  0  1  0  0
  -20.9917   -5.2656   26.4836 F   0  0  0  0  0  0  0  0  0  0  0  0
  -24.5279   -4.6162   23.4048 F   0  0  0  0  0  0  0  0  0  0  0  0
  1  2  1  0  0  0  0
  1  7  2  0  0  0  0
  2  8  2  0  0  0  0
  3  6  2  0  0  0  0
  3 10  1  0  0  0  0
  4 11  2  0  0  0  0
  4 19  1  0  0  0  0
  5 12  1  0  0  0  0
  5 19  2  0  0  0  0
  6 20  1  0  0  0  0
  7 22  1  0  0  0  0
  8 24  1  0  0  0  0
  9 13  2  0  0  0  0
  9 23  1  0  0  0  0
 10 26  2  0  0  0  0
 11 27  1  0  0  0  0
 12 27  2  0  0  0  0
 13 28  1  0  0  0  0
 14 15  2  0  0  0  0
 14 29  1  0  0  0  0
 15 30  1  0  0  0  0
 16 20  2  0  0  0  0
 16 26  1  0  0  0  0
 17 25  1  0  0  0  0
 17 28  2  0  0  0  0
 18 30  2  0  0  0  0
 18 31  1  0  0  0  0
 19 32  1  0  0  0  0
 20 34  1  0  0  0  0
 21 32  1  0  0  0  0
 21 33  2  0  0  0  0
 21 35  1  0  0  0  0
 22 24  2  0  0  0  0
 22 42  1  0  0  0  0
 23 25  2  0  0  0  0
 23 43  1  0  0  0  0
 24 51  1  0  0  0  0
 25 44  1  0  0  0  0
 26 70  1  0  0  0  0
 27 82  1  0  0  0  0
 28 83  1  0  0  0  0
 29 31  2  0  0  0  0
 29 82  1  0  0  0  0
 30 84  1  0  0  0  0
 31 85  1  0  0  0  0
 32 63  2  0  0  0  0
 33 65  1  0  0  0  0
 33 68  1  0  0  0  0
 34 71  1  0  0  0  0
 34 74  2  0  0  0  0
 35 69  1  0  0  0  0
 35 76  2  0  0  0  0
 36 37  1  0  0  0  0
 36 54  1  0  0  0  0
 36 64  2  0  0  0  0
 37 71  1  0  0  0  0
 37 77  2  0  0  0  0
 38 52  1  0  0  0  0
 38 72  1  0  0  0  0
 38 78  2  0  0  0  0
 39 60  1  0  0  0  0
 39 66  1  0  0  0  0
 39 79  2  0  0  0  0
 40 61  1  0  0  0  0
 40 73  1  0  0  0  0
 40 80  2  0  0  0  0
 41 67  1  0  0  0  0
 41 70  1  0  0  0  0
 41 81  2  0  0  0  0
 42 45  1  0  0  0  0
 43 52  1  0  0  0  0
 44 66  1  0  0  0  0
 45 47  1  0  0  0  0
 46 48  1  0  0  0  0
 46 49  1  0  0  0  0
 47 51  1  0  0  0  0
 48 53  1  0  0  0  0
 49 67  1  0  0  0  0
 50 53  1  0  0  0  0
 50 67  1  0  0  0  0
 51 72  1  0  0  0  0
 52 66  1  0  0  0  0
 53 65  1  0  0  0  0
 55 61  1  0  0  0  0
 56 62  1  0  0  0  0
 57 62  1  0  0  0  0
 58 62  1  0  0  0  0
 59 75  1  0  0  0  0
 60 62  1  0  0  0  0
 60 73  1  0  0  0  0
 61 75  1  0  0  0  0
 63 65  1  0  0  0  0
 64 83  1  0  0  0  0
M  CHG  2  74   1  75   1
M  ISO  4  41 100  64 101  70 100  83 101
M  END
> <Batch ID>
0080

> <Smiles>
CNC(C)C(=O)NC(C(=O)N1Cc2cc([101O:1][101N:1]=C(C)C(=O)NC(=N)c3cccc([100NH:0][100C:0](=O)N4CCCC(n5nc(-c6ccc(Oc7ccc(F)cc7F)cc6)c(C(N)=O)c5N)C4)c3)ccc2CC1C(=O)NC1CCCc2ccccc21)C(C)(C)C

> <Shape>
0.222

> <Color>
0.097

> <Negative vol penalty>
0.000

$$$$

  -OEChem-04052300023D

 87 96  0     1  0  0  0  0  0999 V2000
  -32.7587  -26.5856   16.3749 C   0  0  0  0  0  0  0  0  0  0  0  0
  -31.6982  -25.9222   16.9838 C   0  0  0  0  0  0  0  0  0  0  0  0
  -22.1099  -13.1030   22.1247 C   0  0  0  0  0  0  0  0  0  0  0  0
  -22.6879  -14.8273   20.5342 C   0  0  0  0  0  0  0  0  0  0  0  0
  -33.2877  -27.7357   16.9591 C   0  0  0  0  0  0  0  0  0  0  0  0
  -31.1668  -26.4080   18.1780 C   0  0  0  0  0  0  0  0  0  0  0  0
  -26.1028  -26.4342   18.1823 C   0  0  0  0  0  0  0  0  0  0  0  0
  -26.5821  -18.2546   18.8352 C   0  0  0  0  0  0  0  0  0  0  0  0
  -27.6820  -17.4778   18.4714 C   0  0  0  0  0  0  0  0  0  0  0  0
  -20.8777  -13.7185   22.3443 C   0  0  0  0  0  0  0  0  0  0  0  0
  -21.4556  -15.4429   20.7537 C   0  0  0  0  0  0  0  0  0  0  0  0
  -25.4600  -25.2163   18.4001 C   0  0  0  0  0  0  0  0  0  0  0  0
  -20.0506  -17.4424   23.0901 C   0  0  0  0  0  0  0  0  0  0  0  0
  -20.0390  -18.8266   23.2617 C   0  0  0  0  0  0  0  0  0  0  0  0
  -25.0967  -25.8272   20.7053 C   0  0  0  0  0  0  0  0  0  0  0  0
  -28.5627  -17.6753   20.7125 C   0  0  0  0  0  0  0  0  0  0  0  0
  -18.5984  -19.0533   21.3356 C   0  0  0  0  0  0  0  0  0  0  0  0
  -23.0151  -13.6574   21.2197 C   0  0  0  0  0  0  0  0  0  0  0  0
  -24.5146  -11.7183   20.5132 C   0  0  0  0  0  0  0  0  0  0  0  0
  -32.7562  -28.2413   18.1560 C   0  0  0  0  0  0  0  0  0  0  0  0
  -26.2573  -27.3546   19.2289 C   0  0  0  0  0  0  0  0  0  0  0  0
  -31.6901  -27.5652   18.7795 C   0  0  0  0  0  0  0  0  0  0  0  0
  -25.7396  -27.0571   20.4976 C   0  0  0  0  0  0  0  0  0  0  0  0
  -27.4628  -18.4521   21.0763 C   0  0  0  0  0  0  0  0  0  0  0  0
  -26.4725  -18.7418   20.1376 C   0  0  0  0  0  0  0  0  0  0  0  0
  -28.6723  -17.1881   19.4100 C   0  0  0  0  0  0  0  0  0  0  0  0
  -20.5505  -14.8884   21.6587 C   0  0  0  0  0  0  0  0  0  0  0  0
  -24.9593  -24.9115   19.6625 C   0  0  0  0  0  0  0  0  0  0  0  0
  -19.3361  -16.8636   22.0411 C   0  0  0  0  0  0  0  0  0  0  0  0
  -19.3129  -19.6321   22.3845 C   0  0  0  0  0  0  0  0  0  0  0  0
  -18.6100  -17.6691   21.1639 C   0  0  0  0  0  0  0  0  0  0  0  0
  -24.2884  -13.0224   20.9929 C   0  0  0  0  0  0  0  0  0  0  0  0
  -25.8823  -11.5983   20.4767 C   0  0  0  0  0  0  0  0  0  0  0  0
  -23.3477  -20.9973   21.7390 C   0  0  0  0  0  0  0  0  0  0  0  0
  -24.3303  -21.6720   21.1194 C   0  0  0  0  0  0  0  0  0  0  0  0
  -30.9156  -15.3119   17.1998 C   0  0  0  0  0  0  0  0  0  0  0  0
  -30.3130  -16.3736   17.7398 C   0  0  0  0  0  0  0  0  0  0  0  0
  -23.5725  -10.7061   20.1344 C   0  0  0  0  0  0  0  0  0  0  0  0
  -28.7428  -28.6566   20.7225 C   0  0  0  0  0  0  0  0  0  0  0  0
  -26.4444  -30.4145   22.1886 C   0  0  0  0  0  0  0  0  0  0  0  0
  -23.1819  -30.6928   23.1505 C   0  0  0  0  0  0  0  0  0  0  0  0
  -30.3373  -15.4546   19.9715 C   0  0  0  0  0  0  0  0  0  0  0  0
  -33.3921  -29.4610   18.7746 C   0  0  0  0  0  0  0  0  0  0  0  0
  -26.9295  -28.6752   18.9710 C   0  0  0  0  0  0  0  0  0  0  0  0
  -25.8616  -28.0197   21.6496 C   0  0  0  0  0  0  0  0  0  0  0  0
  -23.2147  -19.5089   21.6599 C   0  0  0  0  0  0  0  0  0  0  0  0
  -25.4144  -20.9790   20.3258 C   0  0  0  0  0  0  0  0  0  0  0  0
  -32.5272  -30.1225   19.8444 C   0  0  0  0  0  0  0  0  0  0  0  0
  -29.8496  -13.2039   22.5954 C   0  0  0  0  0  0  0  0  0  0  0  0
  -31.9678  -29.0749   20.8017 C   0  0  0  0  0  0  0  0  0  0  0  0
  -28.3901  -12.7752   22.4474 C   0  0  0  0  0  0  0  0  0  0  0  0
  -24.0338  -18.9059   20.5199 C   0  0  0  0  0  0  0  0  0  0  0  0
  -30.0141  -14.6925   22.3111 C   0  0  0  0  0  0  0  0  0  0  0  0
  -28.0516  -14.6860   20.8036 C   0  0  0  0  0  0  0  0  0  0  0  0
  -31.0703  -28.0753   20.0623 C   0  0  1  0  0  0  0  0  0  0  0  0
  -27.4851  -29.3202   20.2370 C   0  0  1  0  0  0  0  0  0  0  0  0
  -27.8310  -13.1840   21.0732 C   0  0  2  0  0  0  0  0  0  0  0  0
  -27.3710  -18.9623   22.4776 C   0  0  0  0  0  0  0  0  0  0  0  0
  -21.6103  -32.2262   24.3654 C   0  0  0  0  0  0  0  0  0  0  0  0
  -27.6377  -29.5236   24.8517 C   0  0  0  0  0  0  0  0  0  0  0  0
  -25.5257  -30.2716   25.9688 C   0  0  0  0  0  0  0  0  0  0  0  0
  -26.9530  -31.9275   24.7674 C   0  0  0  0  0  0  0  0  0  0  0  0
  -21.4785  -31.0345   20.7545 C   0  0  0  0  0  0  0  0  0  0  0  0
  -24.4246  -23.1683   21.1894 C   0  0  0  0  0  0  0  0  0  1  0  0
  -25.6069  -30.2534   23.4343 C   0  0  1  0  0  0  0  0  0  0  0  0
  -22.1851  -31.8296   23.0145 C   0  0  2  0  0  0  0  0  0  0  0  0
  -26.4301  -30.4749   24.7346 C   0  0  0  0  0  0  0  0  0  0  0  0
  -25.4217  -13.6834   21.2433 N   0  0  0  0  0  0  0  0  0  0  0  0
  -26.3732  -12.7911   20.9199 N   0  0  0  0  0  0  0  0  0  0  0  0
  -25.3646  -19.5188   20.4843 N   0  0  1  0  0  0  0  0  0  0  0  0
  -26.5326  -29.2952   21.3489 N   0  0  0  0  0  0  0  0  0  0  0  0
  -29.4668  -15.0413   20.9996 N   0  0  0  0  0  0  0  0  0  0  0  0
  -26.7010  -10.5897   20.1093 N   0  0  0  0  0  0  0  0  0  0  0  0
  -23.1402  -10.6607   18.8019 N   0  0  0  0  0  0  0  0  0  0  0  0
  -29.7722  -28.6591   19.8006 N   0  0  0  0  0  0  0  0  0  0  0  0
  -24.4728  -31.1587   23.2836 N   0  0  0  0  0  0  0  0  0  0  0  0
  -29.8140  -16.3809   19.0322 N   0  0  0  0  0  0  0  0  0  0  0  0
  -21.0593  -31.4277   22.1245 N   0  3  0  0  0  0  0  0  0  0  0  0
  -23.1148   -9.8769   20.9569 O   0  0  0  0  0  0  0  0  0  0  0  0
  -28.7772  -28.1790   21.8505 O   0  0  0  0  0  0  0  0  0  0  0  0
  -26.9941  -31.4960   21.9651 O   0  0  0  0  0  0  0  0  0  0  0  0
  -22.8483  -29.5099   23.1435 O   0  0  0  0  0  0  0  0  0  0  0  0
  -31.5042  -15.0472   19.9033 O   0  0  0  0  0  0  0  0  0  0  0  0
  -19.3480  -15.4892   21.8726 O   0  0  0  0  0  0  0  0  0  0  0  0
  -24.3321  -23.7232   19.8779 O   0  0  0  0  0  0  0  0  0  1  0  0
  -19.3006  -20.9612   22.5504 F   0  0  0  0  0  0  0  0  0  0  0  0
  -17.9207  -17.1188   20.1550 F   0  0  0  0  0  0  0  0  0  0  0  0
  1  2  1  0  0  0  0
  1  5  2  0  0  0  0
  2  6  2  0  0  0  0
  3 10  2  0  0  0  0
  3 18  1  0  0  0  0
  4 11  1  0  0  0  0
  4 18  2  0  0  0  0
  5 20  1  0  0  0  0
  6 22  1  0  0  0  0
  7 12  2  0  0  0  0
  7 21  1  0  0  0  0
  8  9  2  0  0  0  0
  8 25  1  0  0  0  0
  9 26  1  0  0  0  0
 10 27  1  0  0  0  0
 11 27  2  0  0  0  0
 12 28  1  0  0  0  0
 13 14  2  0  0  0  0
 13 29  1  0  0  0  0
 14 30  1  0  0  0  0
 15 23  1  0  0  0  0
 15 28  2  0  0  0  0
 16 24  1  0  0  0  0
 16 26  2  0  0  0  0
 17 30  2  0  0  0  0
 17 31  1  0  0  0  0
 18 32  1  0  0  0  0
 19 32  1  0  0  0  0
 19 33  2  0  0  0  0
 19 38  1  0  0  0  0
 20 22  2  0  0  0  0
 20 43  1  0  0  0  0
 21 23  2  0  0  0  0
 21 44  1  0  0  0  0
 22 55  1  0  0  0  0
 23 45  1  0  0  0  0
 24 25  2  0  0  0  0
 24 58  1  0  0  0  0
 25 70  1  0  0  0  0
 26 77  1  0  0  0  0
 27 84  1  0  0  0  0
 28 85  1  0  0  0  0
 29 31  2  0  0  0  0
 29 84  1  0  0  0  0
 30 86  1  0  0  0  0
 31 87  1  0  0  0  0
 32 68  2  0  0  0  0
 33 69  1  0  0  0  0
 33 73  1  0  0  0  0
 34 35  2  0  0  0  0
 34 46  1  0  0  0  0
 35 47  1  0  0  0  0
 35 64  1  0  0  0  0
 36 37  2  0  0  0  0
 37 77  1  0  0  0  0
 38 74  1  0  0  0  0
 38 79  2  0  0  0  0
 39 56  1  0  0  0  0
 39 75  1  0  0  0  0
 39 80  2  0  0  0  0
 40 65  1  0  0  0  0
 40 71  1  0  0  0  0
 40 81  2  0  0  0  0
 41 66  1  0  0  0  0
 41 76  1  0  0  0  0
 41 82  2  0  0  0  0
 42 72  1  0  0  0  0
 42 77  1  0  0  0  0
 42 83  2  0  0  0  0
 43 48  1  0  0  0  0
 44 56  1  0  0  0  0
 45 71  1  0  0  0  0
 46 52  1  0  0  0  0
 47 70  1  0  0  0  0
 48 50  1  0  0  0  0
 49 51  1  0  0  0  0
 49 53  1  0  0  0  0
 50 55  1  0  0  0  0
 51 57  1  0  0  0  0
 52 70  1  0  0  0  0
 53 72  1  0  0  0  0
 54 57  1  0  0  0  0
 54 72  1  0  0  0  0
 55 75  1  0  0  0  0
 56 71  1  0  0  0  0
 57 69  1  0  0  0  0
 59 66  1  0  0  0  0
 60 67  1  0  0  0  0
 61 67  1  0  0  0  0
 62 67  1  0  0  0  0
 63 78  1  0  0  0  0
 64 85  1  0  0  0  0
 65 67  1  0  0  0  0
 65 76  1  0  0  0  0
 66 78  1  0  0  0  0
 68 69  1  0  0  0  0
M  CHG  1  78   1
M  ISO  4  42 100  64 101  77 100  85 101
M  END
> <Batch ID>
0080

> <Smiles>
C=C[100N:0](c1ccc(N2CCC=C([101CH2:1][101O:1]c3ccc4c(c3)CN(C(=O)C(NC(=O)C(C)NC)C(C)(C)C)C(C(=O)NC3CCCc5ccccc53)C4)C2)c(C)c1)[100C:0](=O)N1CCCC(n2nc(-c3ccc(Oc4ccc(F)cc4F)cc3)c(C(N)=O)c2N)C1

> <Shape>
0.229

> <Color>
0.072

> <Negative vol penalty>
0.000

$$$$

  -OEChem-04052300023D

 84 92  0     1  0  0  0  0  0999 V2000
  -28.5502  -36.5485   25.1766 C   0  0  0  0  0  0  0  0  0  0  0  0
  -29.0054  -35.6339   24.2323 C   0  0  0  0  0  0  0  0  0  0  0  0
  -23.9843   -8.9280   21.0942 C   0  0  0  0  0  0  0  0  0  0  0  0
  -23.1790  -11.2019   20.9597 C   0  0  0  0  0  0  0  0  0  0  0  0
  -30.4900  -18.5303   21.4892 C   0  0  0  0  0  0  0  0  0  0  0  0
  -28.2616  -18.8093   20.5985 C   0  0  0  0  0  0  0  0  0  0  0  0
  -27.5228  -36.1941   26.0500 C   0  0  0  0  0  0  0  0  0  0  0  0
  -28.4341  -34.3639   24.1616 C   0  0  0  0  0  0  0  0  0  0  0  0
  -26.8087  -29.2286   19.4389 C   0  0  0  0  0  0  0  0  0  0  0  0
  -30.5051  -17.2105   21.0383 C   0  0  0  0  0  0  0  0  0  0  0  0
  -28.2767  -17.4894   20.1475 C   0  0  0  0  0  0  0  0  0  0  0  0
  -22.9861   -8.6294   22.0216 C   0  0  0  0  0  0  0  0  0  0  0  0
  -22.1808  -10.9032   21.8871 C   0  0  0  0  0  0  0  0  0  0  0  0
  -26.9930  -27.8630   19.2266 C   0  0  0  0  0  0  0  0  0  0  0  0
  -19.6779   -7.9316   21.9828 C   0  0  0  0  0  0  0  0  0  0  0  0
  -18.9676   -6.7435   21.8107 C   0  0  0  0  0  0  0  0  0  0  0  0
  -25.1704  -27.3888   20.7340 C   0  0  0  0  0  0  0  0  0  0  0  0
  -19.7134   -5.9834   23.9794 C   0  0  0  0  0  0  0  0  0  0  0  0
  -24.0808  -10.2143   20.5632 C   0  0  0  0  0  0  0  0  0  0  0  0
  -29.3682  -19.3297   21.2694 C   0  0  0  0  0  0  0  0  0  0  0  0
  -25.0319  -10.4125   18.2045 C   0  0  0  0  0  0  0  0  0  0  0  0
  -26.9321  -34.9224   25.9835 C   0  0  0  0  0  0  0  0  0  0  0  0
  -25.8092  -29.6849   20.3103 C   0  0  0  0  0  0  0  0  0  0  0  0
  -27.3988  -33.9916   25.0358 C   0  0  0  0  0  0  0  0  0  0  0  0
  -24.9738  -28.7607   20.9537 C   0  0  0  0  0  0  0  0  0  0  0  0
  -29.3985  -16.6900   20.3674 C   0  0  0  0  0  0  0  0  0  0  0  0
  -22.0844   -9.6169   22.4181 C   0  0  0  0  0  0  0  0  0  0  0  0
  -26.1757  -26.9428   19.8764 C   0  0  0  0  0  0  0  0  0  0  0  0
  -20.4061   -8.1455   23.1531 C   0  0  0  0  0  0  0  0  0  0  0  0
  -18.9853   -5.7695   22.8090 C   0  0  0  0  0  0  0  0  0  0  0  0
  -20.4238   -7.1715   24.1514 C   0  0  0  0  0  0  0  0  0  0  0  0
  -25.1120  -10.5235   19.6056 C   0  0  0  0  0  0  0  0  0  0  0  0
  -26.2637  -10.8231   17.7566 C   0  0  0  0  0  0  0  0  0  0  0  0
  -27.4572  -23.6335   20.3779 C   0  0  0  0  0  0  0  0  0  0  0  0
  -27.2141  -24.9408   20.4966 C   0  0  0  0  0  0  0  0  0  1  0  0
  -29.3521  -20.7349   21.7497 C   0  0  0  0  0  0  0  0  0  0  0  0
  -23.9416   -9.9772   17.3815 C   0  0  0  0  0  0  0  0  0  0  0  0
  -28.4067  -22.9681   21.3105 C   0  0  0  0  0  0  0  0  0  0  0  0
  -25.7824  -31.3536   23.0156 C   0  0  0  0  0  0  0  0  0  0  0  0
  -22.5675  -31.2362   22.5999 C   0  0  0  0  0  0  0  0  0  0  0  0
  -19.8805  -29.6468   21.2212 C   0  0  0  0  0  0  0  0  0  0  0  0
  -30.4480  -14.4226   20.0458 C   0  0  0  0  0  0  0  0  0  0  0  0
  -25.8567  -34.5685   26.9800 C   0  0  0  0  0  0  0  0  0  0  0  0
  -25.6058  -31.1620   20.5080 C   0  0  0  0  0  0  0  0  0  0  0  0
  -23.8731  -29.1997   21.8834 C   0  0  0  0  0  0  0  0  0  0  0  0
  -25.0496  -33.3323   26.5918 C   0  0  0  0  0  0  0  0  0  0  0  0
  -30.8592  -11.0176   19.0899 C   0  0  0  0  0  0  0  0  0  0  0  0
  -25.9780  -32.2060   26.1488 C   0  0  0  0  0  0  0  0  0  0  0  0
  -29.4246  -10.4960   18.9802 C   0  0  0  0  0  0  0  0  0  0  0  0
  -31.0152  -12.0110   20.2399 C   0  0  0  0  0  0  0  0  0  0  0  0
  -28.6278  -12.6068   20.1189 C   0  0  0  0  0  0  0  0  0  0  0  0
  -26.7876  -32.6128   24.9116 C   0  0  1  0  0  0  0  0  0  0  0  0
  -24.8920  -31.4974   21.8139 C   0  0  1  0  0  0  0  0  0  0  0  0
  -28.4066  -11.6523   18.9341 C   0  0  2  0  0  0  0  0  0  0  0  0
  -17.3772  -29.7634   21.0894 C   0  0  0  0  0  0  0  0  0  0  0  0
  -22.3685  -30.1119   25.4295 C   0  0  0  0  0  0  0  0  0  0  0  0
  -20.0358  -29.3744   24.8975 C   0  0  0  0  0  0  0  0  0  0  0  0
  -20.6160  -31.8001   24.8521 C   0  0  0  0  0  0  0  0  0  0  0  0
  -19.9357  -29.9962   18.2829 C   0  0  0  0  0  0  0  0  0  0  0  0
  -21.4697  -30.2868   23.0154 C   0  0  1  0  0  0  0  0  0  0  0  0
  -18.6900  -30.1738   20.4405 C   0  0  2  0  0  0  0  0  0  0  0  0
  -21.1444  -30.3846   24.5327 C   0  0  0  0  0  0  0  0  0  0  0  0
  -26.3007  -10.9695   20.0204 N   0  0  0  0  0  0  0  0  0  0  0  0
  -26.9789  -11.1423   18.8732 N   0  0  0  0  0  0  0  0  0  0  0  0
  -23.7180  -30.6544   22.0490 N   0  0  0  0  0  0  0  0  0  0  0  0
  -30.0208  -13.0804   20.1280 N   0  0  0  0  0  0  0  0  0  0  0  0
  -26.7940  -10.9386   16.5205 N   0  0  0  0  0  0  0  0  0  0  0  0
  -22.7472   -9.5903   18.0044 N   0  0  0  0  0  0  0  0  0  0  0  0
  -29.4149  -15.3492   19.9095 N   0  0  0  0  0  0  0  0  0  0  0  0
  -28.5329  -21.6080   21.0348 N   0  0  0  0  0  0  0  0  0  0  0  0
  -25.9689  -32.5269   23.7213 N   0  0  0  0  0  0  0  0  0  0  0  0
  -20.3354  -30.5670   22.1418 N   0  0  0  0  0  0  0  0  0  0  0  0
  -18.7103  -29.6468   19.0467 N   0  3  0  0  0  0  0  0  0  0  0  0
  -30.0596  -21.0483   22.7033 O   0  0  0  0  0  0  0  0  0  0  0  0
  -24.0296   -9.9171   16.1316 O   0  0  0  0  0  0  0  0  0  0  0  0
  -28.9869  -23.5772   22.2034 O   0  0  0  0  0  0  0  0  0  0  0  0
  -26.2634  -30.2588   23.2836 O   0  0  0  0  0  0  0  0  0  0  0  0
  -22.4071  -32.4498   22.7519 O   0  0  0  0  0  0  0  0  0  0  0  0
  -20.3568  -28.5291   21.0357 O   0  0  0  0  0  0  0  0  0  0  0  0
  -31.6438  -14.7253   20.0655 O   0  0  0  0  0  0  0  0  0  0  0  0
  -21.1101   -9.3258   23.3228 O   0  0  0  0  0  0  0  0  0  0  0  0
  -26.3539  -25.6093   19.6714 O   0  0  0  0  0  0  0  0  0  1  0  0
  -18.3019   -4.6293   22.6442 F   0  0  0  0  0  0  0  0  0  0  0  0
  -21.1206   -7.3718   25.2784 F   0  0  0  0  0  0  0  0  0  0  0  0
  1  2  1  0  0  0  0
  1  7  2  0  0  0  0
  2  8  2  0  0  0  0
  3 12  2  0  0  0  0
  3 19  1  0  0  0  0
  4 13  1  0  0  0  0
  4 19  2  0  0  0  0
  5 10  2  0  0  0  0
  5 20  1  0  0  0  0
  6 11  1  0  0  0  0
  6 20  2  0  0  0  0
  7 22  1  0  0  0  0
  8 24  1  0  0  0  0
  9 14  2  0  0  0  0
  9 23  1  0  0  0  0
 10 26  1  0  0  0  0
 11 26  2  0  0  0  0
 12 27  1  0  0  0  0
 13 27  2  0  0  0  0
 14 28  1  0  0  0  0
 15 16  2  0  0  0  0
 15 29  1  0  0  0  0
 16 30  1  0  0  0  0
 17 25  1  0  0  0  0
 17 28  2  0  0  0  0
 18 30  2  0  0  0  0
 18 31  1  0  0  0  0
 19 32  1  0  0  0  0
 20 36  1  0  0  0  0
 21 32  1  0  0  0  0
 21 33  2  0  0  0  0
 21 37  1  0  0  0  0
 22 24  2  0  0  0  0
 22 43  1  0  0  0  0
 23 25  2  0  0  0  0
 23 44  1  0  0  0  0
 24 52  1  0  0  0  0
 25 45  1  0  0  0  0
 26 69  1  0  0  0  0
 27 81  1  0  0  0  0
 28 82  1  0  0  0  0
 29 31  2  0  0  0  0
 29 81  1  0  0  0  0
 30 83  1  0  0  0  0
 31 84  1  0  0  0  0
 32 63  2  0  0  0  0
 33 64  1  0  0  0  0
 33 67  1  0  0  0  0
 34 35  2  0  0  0  0
 34 38  1  0  0  0  0
 35 82  1  0  0  0  0
 36 70  1  0  0  0  0
 36 74  2  0  0  0  0
 37 68  1  0  0  0  0
 37 75  2  0  0  0  0
 38 70  1  0  0  0  0
 38 76  2  0  0  0  0
 39 53  1  0  0  0  0
 39 71  1  0  0  0  0
 39 77  2  0  0  0  0
 40 60  1  0  0  0  0
 40 65  1  0  0  0  0
 40 78  2  0  0  0  0
 41 61  1  0  0  0  0
 41 72  1  0  0  0  0
 41 79  2  0  0  0  0
 42 66  1  0  0  0  0
 42 69  1  0  0  0  0
 42 80  2  0  0  0  0
 43 46  1  0  0  0  0
 44 53  1  0  0  0  0
 45 65  1  0  0  0  0
 46 48  1  0  0  0  0
 47 49  1  0  0  0  0
 47 50  1  0  0  0  0
 48 52  1  0  0  0  0
 49 54  1  0  0  0  0
 50 66  1  0  0  0  0
 51 54  1  0  0  0  0
 51 66  1  0  0  0  0
 52 71  1  0  0  0  0
 53 65  1  0  0  0  0
 54 64  1  0  0  0  0
 55 61  1  0  0  0  0
 56 62  1  0  0  0  0
 57 62  1  0  0  0  0
 58 62  1  0  0  0  0
 59 73  1  0  0  0  0
 60 62  1  0  0  0  0
 60 72  1  0  0  0  0
 61 73  1  0  0  0  0
 63 64  1  0  0  0  0
M  CHG  1  73   1
M  ISO  4  35 101  42 100  69 100  82 101
M  END
> <Batch ID>
0080

> <Smiles>
CNC(C)C(=O)NC(C(=O)N1Cc2cc([101O:1][101CH:1]=CC(=O)NC(=O)c3ccc([100NH:0][100C:0](=O)N4CCCC(n5nc(-c6ccc(Oc7ccc(F)cc7F)cc6)c(C(N)=O)c5N)C4)cc3)ccc2CC1C(=O)NC1CCCc2ccccc21)C(C)(C)C

> <Shape>
0.284

> <Color>
0.083

> <Negative vol penalty>
0.000

$$$$
