
  -OEChem-04052300043D

 86 95  0     1  0  0  0  0  0999 V2000
  -30.5516  -34.3326   18.3949 C   0  0  0  0  0  0  0  0  0  0  0  0
  -30.3912  -33.0279   18.8503 C   0  0  0  0  0  0  0  0  0  0  0  0
  -27.3370  -16.2124   15.0408 C   0  0  0  0  0  0  0  0  0  0  0  0
  -25.9316  -14.2646   14.7799 C   0  0  0  0  0  0  0  0  0  0  0  0
  -29.4877  -17.9551   18.6866 C   0  0  0  0  0  0  0  0  0  0  0  0
  -30.5471  -18.4328   20.8048 C   0  0  0  0  0  0  0  0  0  0  0  0
  -29.7749  -35.3580   18.9328 C   0  0  0  0  0  0  0  0  0  0  0  0
  -29.4545  -32.7480   19.8447 C   0  0  0  0  0  0  0  0  0  0  0  0
  -26.7036  -28.6225   18.8162 C   0  0  0  0  0  0  0  0  0  0  0  0
  -28.9303  -19.2337   18.6770 C   0  0  0  0  0  0  0  0  0  0  0  0
  -29.9898  -19.7115   20.7952 C   0  0  0  0  0  0  0  0  0  0  0  0
  -27.4014  -16.3516   13.6544 C   0  0  0  0  0  0  0  0  0  0  0  0
  -25.9960  -14.4038   13.3935 C   0  0  0  0  0  0  0  0  0  0  0  0
  -27.3034  -27.3845   19.0427 C   0  0  0  0  0  0  0  0  0  0  0  0
  -24.5496  -16.3190   11.0143 C   0  0  0  0  0  0  0  0  0  0  0  0
  -23.3612  -16.1895   10.2956 C   0  0  0  0  0  0  0  0  0  0  0  0
  -26.1187  -27.2003   21.1360 C   0  0  0  0  0  0  0  0  0  0  0  0
  -24.3024  -14.3294    9.0743 C   0  0  0  0  0  0  0  0  0  0  0  0
  -26.6021  -15.1689   15.6035 C   0  0  0  0  0  0  0  0  0  0  0  0
  -30.2961  -17.5546   19.7506 C   0  0  0  0  0  0  0  0  0  0  0  0
  -25.5853  -15.5934   17.9043 C   0  0  0  0  0  0  0  0  0  0  0  0
  -28.8215  -35.0889   19.9274 C   0  0  0  0  0  0  0  0  0  0  0  0
  -25.8137  -29.1646   19.7546 C   0  0  0  0  0  0  0  0  0  0  0  0
  -28.6652  -33.7709   20.3973 C   0  0  0  0  0  0  0  0  0  0  0  0
  -25.5070  -28.4442   20.9178 C   0  0  0  0  0  0  0  0  0  0  0  0
  -29.1813  -20.1119   19.7312 C   0  0  0  0  0  0  0  0  0  0  0  0
  -26.7309  -15.4474   12.8307 C   0  0  0  0  0  0  0  0  0  0  0  0
  -27.0132  -26.6745   20.2041 C   0  0  0  0  0  0  0  0  0  0  0  0
  -25.6144  -15.4537   10.7630 C   0  0  0  0  0  0  0  0  0  0  0  0
  -23.2376  -15.1947    9.3256 C   0  0  0  0  0  0  0  0  0  0  0  0
  -25.4908  -14.4589    9.7930 C   0  0  0  0  0  0  0  0  0  0  0  0
  -26.5356  -15.0242   17.0356 C   0  0  0  0  0  0  0  0  0  0  0  0
  -25.9566  -15.1572   19.1527 C   0  0  0  0  0  0  0  0  0  0  0  0
  -27.9024  -23.2343   19.6417 C   0  0  0  0  0  0  0  0  0  0  0  0
  -27.8269  -22.0141   18.8373 C   0  0  0  0  0  0  0  0  0  0  0  0
  -27.3766  -24.4668   19.5224 C   0  0  0  0  0  0  0  0  0  1  0  0
  -30.8850  -16.2034   19.7608 C   0  0  0  0  0  0  0  0  0  0  0  0
  -24.4668  -16.4405   17.6092 C   0  0  0  0  0  0  0  0  0  0  0  0
  -25.7738  -31.7834   21.5558 C   0  0  0  0  0  0  0  0  0  0  0  0
  -22.7903  -30.7526   22.3032 C   0  0  0  0  0  0  0  0  0  0  0  0
  -20.6006  -28.1458   22.5413 C   0  0  0  0  0  0  0  0  0  0  0  0
  -31.1502  -14.1927   18.3829 C   0  0  0  0  0  0  0  0  0  0  0  0
  -28.0383  -36.2376   20.5120 C   0  0  0  0  0  0  0  0  0  0  0  0
  -25.1545  -30.4890   19.4828 C   0  0  0  0  0  0  0  0  0  0  0  0
  -24.5429  -28.9730   21.9470 C   0  0  0  0  0  0  0  0  0  0  0  0
  -28.8000  -22.5046   20.6147 C   0  0  0  0  0  0  0  0  0  0  0  0
  -26.8052  -35.7972   21.2967 C   0  0  0  0  0  0  0  0  0  0  0  0
  -28.7836  -11.5689   18.8657 C   0  0  0  0  0  0  0  0  0  0  0  0
  -27.1538  -34.6490   22.2385 C   0  0  0  0  0  0  0  0  0  0  0  0
  -27.7846  -12.1283   19.8746 C   0  0  0  0  0  0  0  0  0  0  0  0
  -30.1958  -12.0464   19.1739 C   0  0  0  0  0  0  0  0  0  0  0  0
  -29.3298  -14.1463   20.1755 C   0  0  0  0  0  0  0  0  0  0  0  0
  -27.6423  -33.4234   21.4570 C   0  0  1  0  0  0  0  0  0  0  0  0
  -24.6587  -31.1807   20.7490 C   0  0  1  0  0  0  0  0  0  0  0  0
  -27.8730  -13.6562   20.0290 C   0  0  1  0  0  0  0  0  0  0  0  0
  -18.2451  -27.6074   23.2192 C   0  0  0  0  0  0  0  0  0  0  0  0
  -23.5922  -30.9533   25.2403 C   0  0  0  0  0  0  0  0  0  0  0  0
  -21.6065  -29.5376   25.8070 C   0  0  0  0  0  0  0  0  0  0  0  0
  -21.2820  -31.7650   24.7318 C   0  0  0  0  0  0  0  0  0  0  0  0
  -31.8826  -16.3409   17.4789 C   0  0  0  0  0  0  0  0  0  0  0  0
  -19.9145  -27.1898   19.8258 C   0  0  0  0  0  0  0  0  0  0  0  0
  -22.2050  -29.8504   23.3626 C   0  0  1  0  0  0  0  0  0  0  0  0
  -19.1659  -27.9892   22.0706 C   0  0  2  0  0  0  0  0  0  0  0  0
  -22.1911  -30.5172   24.7672 C   0  0  0  0  0  0  0  0  0  0  0  0
  -27.4426  -14.2832   17.6777 N   0  0  0  0  0  0  0  0  0  0  0  0
  -27.0638  -14.3837   18.9632 N   0  0  0  0  0  0  0  0  0  0  0  0
  -28.6313  -21.3727   19.7207 N   0  0  0  0  0  0  0  0  0  0  0  0
  -23.9289  -30.2752   21.6388 N   0  0  0  0  0  0  0  0  0  0  0  0
  -30.2648  -13.5056   19.2372 N   0  0  0  0  0  0  0  0  0  0  0  0
  -25.4407  -15.3638   20.3830 N   0  0  0  0  0  0  0  0  0  0  0  0
  -24.2289  -16.7919   16.2735 N   0  0  0  0  0  0  0  0  0  0  0  0
  -26.5227  -32.7197   20.8689 N   0  0  0  0  0  0  0  0  0  0  0  0
  -20.8882  -29.4518   22.8774 N   0  0  0  0  0  0  0  0  0  0  0  0
  -31.1795  -15.5954   18.5239 N   0  0  0  0  0  0  0  0  0  0  0  0
  -19.0764  -26.9312   21.0248 N   0  3  0  0  0  0  0  0  0  0  0  0
  -27.2827  -21.7011   17.7989 O   0  0  0  0  0  0  0  0  0  0  0  0
  -31.0934  -15.7010   20.8649 O   0  0  0  0  0  0  0  0  0  0  0  0
  -23.7107  -16.8863   18.5053 O   0  0  0  0  0  0  0  0  0  0  0  0
  -25.9413  -31.4265   22.7161 O   0  0  0  0  0  0  0  0  0  0  0  0
  -22.2526  -31.8377   22.0685 O   0  0  0  0  0  0  0  0  0  0  0  0
  -21.3864  -27.2032   22.6081 O   0  0  0  0  0  0  0  0  0  0  0  0
  -31.8805  -13.6114   17.5722 O   0  0  0  0  0  0  0  0  0  0  0  0
  -26.7934  -15.5830   11.4779 O   0  0  0  0  0  0  0  0  0  0  0  0
  -27.5978  -25.4662   20.4279 O   0  0  0  0  0  0  0  0  0  1  0  0
  -22.0957  -15.0696    8.6366 F   0  0  0  0  0  0  0  0  0  0  0  0
  -26.5099  -13.6240    9.5480 F   0  0  0  0  0  0  0  0  0  0  0  0
  1  2  1  0  0  0  0
  1  7  2  0  0  0  0
  2  8  2  0  0  0  0
  3 12  2  0  0  0  0
  3 19  1  0  0  0  0
  4 13  1  0  0  0  0
  4 19  2  0  0  0  0
  5 10  2  0  0  0  0
  5 20  1  0  0  0  0
  6 11  1  0  0  0  0
  6 20  2  0  0  0  0
  7 22  1  0  0  0  0
  8 24  1  0  0  0  0
  9 14  2  0  0  0  0
  9 23  1  0  0  0  0
 10 26  1  0  0  0  0
 11 26  2  0  0  0  0
 12 27  1  0  0  0  0
 13 27  2  0  0  0  0
 14 28  1  0  0  0  0
 15 16  2  0  0  0  0
 15 29  1  0  0  0  0
 16 30  1  0  0  0  0
 17 25  1  0  0  0  0
 17 28  2  0  0  0  0
 18 30  2  0  0  0  0
 18 31  1  0  0  0  0
 19 32  1  0  0  0  0
 20 37  1  0  0  0  0
 21 32  1  0  0  0  0
 21 33  2  0  0  0  0
 21 38  1  0  0  0  0
 22 24  2  0  0  0  0
 22 43  1  0  0  0  0
 23 25  2  0  0  0  0
 23 44  1  0  0  0  0
 24 53  1  0  0  0  0
 25 45  1  0  0  0  0
 26 67  1  0  0  0  0
 27 83  1  0  0  0  0
 28 84  1  0  0  0  0
 29 31  2  0  0  0  0
 29 83  1  0  0  0  0
 30 85  1  0  0  0  0
 31 86  1  0  0  0  0
 32 65  2  0  0  0  0
 33 66  1  0  0  0  0
 33 70  1  0  0  0  0
 34 35  1  0  0  0  0
 34 36  2  0  0  0  0
 34 46  1  0  0  0  0
 35 67  1  0  0  0  0
 35 76  2  0  0  0  0
 36 84  1  0  0  0  0
 37 74  1  0  0  0  0
 37 77  2  0  0  0  0
 38 71  1  0  0  0  0
 38 78  2  0  0  0  0
 39 54  1  0  0  0  0
 39 72  1  0  0  0  0
 39 79  2  0  0  0  0
 40 62  1  0  0  0  0
 40 68  1  0  0  0  0
 40 80  2  0  0  0  0
 41 63  1  0  0  0  0
 41 73  1  0  0  0  0
 41 81  2  0  0  0  0
 42 69  1  0  0  0  0
 42 74  1  0  0  0  0
 42 82  2  0  0  0  0
 43 47  1  0  0  0  0
 44 54  1  0  0  0  0
 45 68  1  0  0  0  0
 46 67  1  0  0  0  0
 47 49  1  0  0  0  0
 48 50  1  0  0  0  0
 48 51  1  0  0  0  0
 49 53  1  0  0  0  0
 50 55  1  0  0  0  0
 51 69  1  0  0  0  0
 52 55  1  0  0  0  0
 52 69  1  0  0  0  0
 53 72  1  0  0  0  0
 54 68  1  0  0  0  0
 55 66  1  0  0  0  0
 56 63  1  0  0  0  0
 57 64  1  0  0  0  0
 58 64  1  0  0  0  0
 59 64  1  0  0  0  0
 60 74  1  0  0  0  0
 61 75  1  0  0  0  0
 62 64  1  0  0  0  0
 62 73  1  0  0  0  0
 63 75  1  0  0  0  0
 65 66  1  0  0  0  0
M  CHG  1  75   1
M  ISO  4  36 101  42 100  74 100  84 101
M  END
> <Batch ID>
0081

> <Smiles>
CNC(C)C(=O)NC(C(=O)N1Cc2cc([101O:1][101CH:1]=C3CN(c4ccc(C(=O)[100N:0](C)[100C:0](=O)N5CCCC(n6nc(-c7ccc(Oc8ccc(F)cc8F)cc7)c(C(N)=O)c6N)C5)cc4)C3=O)ccc2CC1C(=O)NC1CCCc2ccccc21)C(C)(C)C

> <Shape>
0.234

> <Color>
0.105

> <Negative vol penalty>
0.000

$$$$

  -OEChem-04052300043D

 83 92  0     1  0  0  0  0  0999 V2000
  -28.3923  -10.2428   21.2821 C   0  0  0  0  0  0  0  0  0  0  0  0
  -28.9180  -11.4976   20.9914 C   0  0  0  0  0  0  0  0  0  0  0  0
  -19.8937  -28.7381   23.7344 C   0  0  0  0  0  0  0  0  0  0  0  0
  -20.6435  -27.0341   22.1945 C   0  0  0  0  0  0  0  0  0  0  0  0
  -28.8396  -28.0805   21.6614 C   0  0  0  0  0  0  0  0  0  0  0  0
  -27.0177  -10.0267   21.1936 C   0  0  0  0  0  0  0  0  0  0  0  0
  -28.0696  -12.5368   20.6110 C   0  0  0  0  0  0  0  0  0  0  0  0
  -28.7134  -18.4836   21.9249 C   0  0  0  0  0  0  0  0  0  0  0  0
  -29.4524  -26.9289   22.1664 C   0  0  0  0  0  0  0  0  0  0  0  0
  -18.5915  -28.5989   23.2544 C   0  0  0  0  0  0  0  0  0  0  0  0
  -19.3412  -26.8949   21.7145 C   0  0  0  0  0  0  0  0  0  0  0  0
  -29.2246  -19.5556   21.1946 C   0  0  0  0  0  0  0  0  0  0  0  0
  -16.4775  -25.3873   22.6875 C   0  0  0  0  0  0  0  0  0  0  0  0
  -15.9882  -24.0930   22.5114 C   0  0  0  0  0  0  0  0  0  0  0  0
  -27.9080  -26.8481   19.7796 C   0  0  0  0  0  0  0  0  0  0  0  0
  -26.9901  -20.1382   20.4970 C   0  0  0  0  0  0  0  0  0  0  0  0
  -15.6599  -24.5373   20.1593 C   0  0  0  0  0  0  0  0  0  0  0  0
  -20.9197  -27.9557   23.2045 C   0  0  0  0  0  0  0  0  0  0  0  0
  -28.0807  -28.0430   20.4894 C   0  0  0  0  0  0  0  0  0  0  0  0
  -22.8584  -27.3968   24.7655 C   0  0  0  0  0  0  0  0  0  0  0  0
  -26.1510  -11.0663   20.8213 C   0  0  0  0  0  0  0  0  0  0  0  0
  -27.3354  -18.2239   21.9379 C   0  0  0  0  0  0  0  0  0  0  0  0
  -26.6823  -12.3340   20.5162 C   0  0  0  0  0  0  0  0  0  0  0  0
  -26.4637  -19.0638   21.2303 C   0  0  0  0  0  0  0  0  0  0  0  0
  -28.5167  -25.6815   20.2725 C   0  0  0  0  0  0  0  0  0  0  0  0
  -29.2669  -25.7503   21.4431 C   0  0  0  0  0  0  0  0  0  0  0  0
  -18.3152  -27.6773   22.2445 C   0  0  0  0  0  0  0  0  0  0  0  0
  -28.3633  -20.3813   20.4782 C   0  0  0  0  0  0  0  0  0  0  0  0
  -16.5579  -26.2566   21.5996 C   0  0  0  0  0  0  0  0  0  0  0  0
  -15.5795  -23.6680   21.2473 C   0  0  0  0  0  0  0  0  0  0  0  0
  -16.1492  -25.8316   20.3355 C   0  0  0  0  0  0  0  0  0  0  0  0
  -22.2652  -28.0994   23.6996 C   0  0  0  0  0  0  0  0  0  0  0  0
  -24.1366  -27.8945   24.8358 C   0  0  0  0  0  0  0  0  0  0  0  0
  -29.2282  -23.6980   20.6177 C   0  0  0  0  0  0  0  0  0  0  0  0
  -27.4592  -29.2630   19.9969 C   0  0  0  0  0  0  0  0  0  0  0  0
  -22.3036  -26.3846   25.6161 C   0  0  0  0  0  0  0  0  0  0  0  0
  -27.6136  -30.5499   20.7132 C   0  0  0  0  0  0  0  0  0  0  0  0
  -25.5007  -15.8001   21.0092 C   0  0  0  0  0  0  0  0  0  0  0  0
  -23.1540  -17.5502   22.4064 C   0  0  0  0  0  0  0  0  0  0  0  0
  -22.0361  -20.6106   23.4216 C   0  0  0  0  0  0  0  0  0  0  0  0
  -24.6773  -10.7721   20.6937 C   0  0  0  0  0  0  0  0  0  0  0  0
  -26.7971  -17.0796   22.7522 C   0  0  0  0  0  0  0  0  0  0  0  0
  -24.9742  -18.8400   21.2281 C   0  0  0  0  0  0  0  0  0  0  0  0
  -23.8078  -12.0259   20.6465 C   0  0  0  0  0  0  0  0  0  0  0  0
  -26.6898  -31.8284   23.9333 C   0  0  0  0  0  0  0  0  0  0  0  0
  -24.3947  -13.0464   19.6765 C   0  0  0  0  0  0  0  0  0  0  0  0
  -25.4797  -30.9774   24.3171 C   0  0  0  0  0  0  0  0  0  0  0  0
  -26.7383  -32.0841   22.4304 C   0  0  0  0  0  0  0  0  0  0  0  0
  -25.5028  -29.9805   21.9866 C   0  0  0  0  0  0  0  0  0  0  0  0
  -25.7918  -13.4930   20.1240 C   0  0  1  0  0  0  0  0  0  0  0  0
  -25.4282  -16.6010   22.2784 C   0  0  1  0  0  0  0  0  0  0  0  0
  -25.4351  -29.6779   23.4937 C   0  0  2  0  0  0  0  0  0  0  0  0
  -20.0643  -21.7305   24.4966 C   0  0  0  0  0  0  0  0  0  0  0  0
  -21.6077  -17.3390   19.7845 C   0  0  0  0  0  0  0  0  0  0  0  0
  -20.1503  -19.2155   20.5737 C   0  0  0  0  0  0  0  0  0  0  0  0
  -20.2131  -17.0688   21.8428 C   0  0  0  0  0  0  0  0  0  0  0  0
  -30.5358  -24.0233   22.7417 C   0  0  0  0  0  0  0  0  0  0  0  0
  -23.6650  -21.5400   25.7111 C   0  0  0  0  0  0  0  0  0  0  0  0
  -22.2023  -18.6261   21.9422 C   0  0  1  0  0  0  0  0  0  0  0  0
  -21.4167  -21.0744   24.7276 C   0  0  2  0  0  0  0  0  0  0  0  0
  -21.0715  -18.0657   21.0341 C   0  0  0  0  0  0  0  0  0  0  0  0
  -28.5039  -24.3989   19.7744 N   0  0  0  0  0  0  0  0  0  0  0  0
  -23.0981  -28.9768   23.1334 N   0  0  0  0  0  0  0  0  0  0  0  0
  -26.7377  -29.3106   18.9100 N   0  0  0  0  0  0  0  0  0  0  0  0
  -29.7098  -24.4675   21.6400 N   0  0  0  0  0  0  0  0  0  0  0  0
  -24.2276  -28.8289   23.8464 N   0  0  0  0  0  0  0  0  0  0  0  0
  -26.6576  -30.8334   21.6785 N   0  0  0  0  0  0  0  0  0  0  0  0
  -24.4970  -17.7044   22.0344 N   0  0  0  0  0  0  0  0  0  0  0  0
  -25.1802  -27.6199   25.6468 N   0  0  0  0  0  0  0  0  0  0  0  0
  -20.9751  -25.9904   25.4067 N   0  0  0  0  0  0  0  0  0  0  0  0
  -29.5371  -22.3321   20.5770 N   0  0  0  0  0  0  0  0  0  1  0  0
  -25.6943  -14.4464   21.2084 N   0  0  0  0  0  0  0  0  0  0  0  0
  -21.7243  -19.2959   23.1470 N   0  0  0  0  0  0  0  0  0  0  0  0
  -22.3080  -22.0599   25.4025 N   0  3  0  0  0  0  0  0  0  0  0  0
  -22.9612  -25.8575   26.5452 O   0  0  0  0  0  0  0  0  0  0  0  0
  -28.5735  -31.2300   20.3748 O   0  0  0  0  0  0  0  0  0  0  0  0
  -25.3879  -16.3679   19.9292 O   0  0  0  0  0  0  0  0  0  0  0  0
  -22.7230  -16.6113   23.0805 O   0  0  0  0  0  0  0  0  0  0  0  0
  -22.7243  -21.3427   22.7138 O   0  0  0  0  0  0  0  0  0  0  0  0
  -17.0446  -27.5410   21.7760 O   0  0  0  0  0  0  0  0  0  0  0  0
  -28.8597  -21.4279   19.7640 O   0  0  0  0  0  0  0  0  0  1  0  0
  -15.1111  -22.4246   21.0780 F   0  0  0  0  0  0  0  0  0  0  0  0
  -16.2252  -26.6618   19.2863 F   0  0  0  0  0  0  0  0  0  0  0  0
  1  2  1  0  0  0  0
  1  6  2  0  0  0  0
  2  7  2  0  0  0  0
  3 10  2  0  0  0  0
  3 18  1  0  0  0  0
  4 11  1  0  0  0  0
  4 18  2  0  0  0  0
  5  9  2  0  0  0  0
  5 19  1  0  0  0  0
  6 21  1  0  0  0  0
  7 23  1  0  0  0  0
  8 12  2  0  0  0  0
  8 22  1  0  0  0  0
  9 26  1  0  0  0  0
 10 27  1  0  0  0  0
 11 27  2  0  0  0  0
 12 28  1  0  0  0  0
 13 14  2  0  0  0  0
 13 29  1  0  0  0  0
 14 30  1  0  0  0  0
 15 19  2  0  0  0  0
 15 25  1  0  0  0  0
 16 24  1  0  0  0  0
 16 28  2  0  0  0  0
 17 30  2  0  0  0  0
 17 31  1  0  0  0  0
 18 32  1  0  0  0  0
 19 35  1  0  0  0  0
 20 32  1  0  0  0  0
 20 33  2  0  0  0  0
 20 36  1  0  0  0  0
 21 23  2  0  0  0  0
 21 41  1  0  0  0  0
 22 24  2  0  0  0  0
 22 42  1  0  0  0  0
 23 50  1  0  0  0  0
 24 43  1  0  0  0  0
 25 26  2  0  0  0  0
 25 62  1  0  0  0  0
 26 65  1  0  0  0  0
 27 80  1  0  0  0  0
 28 81  1  0  0  0  0
 29 31  2  0  0  0  0
 29 80  1  0  0  0  0
 30 82  1  0  0  0  0
 31 83  1  0  0  0  0
 32 63  2  0  0  0  0
 33 66  1  0  0  0  0
 33 69  1  0  0  0  0
 34 62  2  0  0  0  0
 34 65  1  0  0  0  0
 34 71  1  0  0  0  0
 35 37  1  0  0  0  0
 35 64  2  0  0  0  0
 36 70  1  0  0  0  0
 36 75  2  0  0  0  0
 37 67  1  0  0  0  0
 37 76  2  0  0  0  0
 38 51  1  0  0  0  0
 38 72  1  0  0  0  0
 38 77  2  0  0  0  0
 39 59  1  0  0  0  0
 39 68  1  0  0  0  0
 39 78  2  0  0  0  0
 40 60  1  0  0  0  0
 40 73  1  0  0  0  0
 40 79  2  0  0  0  0
 41 44  1  0  0  0  0
 42 51  1  0  0  0  0
 43 68  1  0  0  0  0
 44 46  1  0  0  0  0
 45 47  1  0  0  0  0
 45 48  1  0  0  0  0
 46 50  1  0  0  0  0
 47 52  1  0  0  0  0
 48 67  1  0  0  0  0
 49 52  1  0  0  0  0
 49 67  1  0  0  0  0
 50 72  1  0  0  0  0
 51 68  1  0  0  0  0
 52 66  1  0  0  0  0
 53 60  1  0  0  0  0
 54 61  1  0  0  0  0
 55 61  1  0  0  0  0
 56 61  1  0  0  0  0
 57 65  1  0  0  0  0
 58 74  1  0  0  0  0
 59 61  1  0  0  0  0
 59 73  1  0  0  0  0
 60 74  1  0  0  0  0
 63 66  1  0  0  0  0
 71 81  1  0  0  0  0
M  CHG  1  74   1
M  ISO  4  35 100  37 100  71 101  81 101
M  END
> <Batch ID>
0081

> <Smiles>
CNC(C)C(=O)NC(C(=O)N1Cc2cc([101O:1][101N:1]=c3[nH]c4cc([100C:0](=N)[100C:0](=O)N5CCCC(n6nc(-c7ccc(Oc8ccc(F)cc8F)cc7)c(C(N)=O)c6N)C5)ccc4n3C)ccc2CC1C(=O)NC1CCCc2ccccc21)C(C)(C)C

> <Shape>
0.224

> <Color>
0.054

> <Negative vol penalty>
0.000

$$$$

  -OEChem-04052300043D

 85 94  0     1  0  0  0  0  0999 V2000
  -26.8522  -36.3739   21.5521 C   0  0  0  0  0  0  0  0  0  0  0  0
  -27.6733  -35.2510   21.5322 C   0  0  0  0  0  0  0  0  0  0  0  0
  -23.5756   -9.7808   21.9248 C   0  0  0  0  0  0  0  0  0  0  0  0
  -24.4152  -11.1015   23.7654 C   0  0  0  0  0  0  0  0  0  0  0  0
  -25.5077  -36.2468   21.8990 C   0  0  0  0  0  0  0  0  0  0  0  0
  -27.1507  -34.0006   21.8603 C   0  0  0  0  0  0  0  0  0  0  0  0
  -28.7406  -28.5989   19.4519 C   0  0  0  0  0  0  0  0  0  0  0  0
  -31.8003  -19.2535   19.7356 C   0  0  0  0  0  0  0  0  0  0  0  0
  -29.5269  -19.9983   20.0729 C   0  0  0  0  0  0  0  0  0  0  0  0
  -31.3410  -17.9573   19.5020 C   0  0  0  0  0  0  0  0  0  0  0  0
  -29.0676  -18.7021   19.8392 C   0  0  0  0  0  0  0  0  0  0  0  0
  -23.0561   -8.8530   22.8274 C   0  0  0  0  0  0  0  0  0  0  0  0
  -23.8957  -10.1737   24.6681 C   0  0  0  0  0  0  0  0  0  0  0  0
  -29.5967  -27.5908   19.8930 C   0  0  0  0  0  0  0  0  0  0  0  0
  -24.2124   -6.3006   24.7176 C   0  0  0  0  0  0  0  0  0  0  0  0
  -24.4203   -4.9480   24.4474 C   0  0  0  0  0  0  0  0  0  0  0  0
  -27.7140  -26.4119   20.8337 C   0  0  0  0  0  0  0  0  0  0  0  0
  -22.0313   -4.5968   24.3672 C   0  0  0  0  0  0  0  0  0  0  0  0
  -24.2552  -10.9050   22.3937 C   0  0  0  0  0  0  0  0  0  0  0  0
  -24.1442  -13.0000   20.9423 C   0  0  0  0  0  0  0  0  0  0  0  0
  -24.9661  -34.9926   22.2222 C   0  0  0  0  0  0  0  0  0  0  0  0
  -27.3639  -28.5263   19.7084 C   0  0  0  0  0  0  0  0  0  0  0  0
  -25.7981  -33.8568   22.2132 C   0  0  0  0  0  0  0  0  0  0  0  0
  -26.8423  -27.4191   20.3926 C   0  0  0  0  0  0  0  0  0  0  0  0
  -30.8932  -20.2740   20.0212 C   0  0  0  0  0  0  0  0  0  0  0  0
  -29.9747  -17.6816   19.5537 C   0  0  0  0  0  0  0  0  0  0  0  0
  -23.2161   -9.0494   24.1991 C   0  0  0  0  0  0  0  0  0  0  0  0
  -29.0839  -26.4985   20.5865 C   0  0  0  0  0  0  0  0  0  0  0  0
  -22.9139   -6.8012   24.8127 C   0  0  0  0  0  0  0  0  0  0  0  0
  -23.3298   -4.0961   24.2721 C   0  0  0  0  0  0  0  0  0  0  0  0
  -21.8234   -5.9493   24.6375 C   0  0  0  0  0  0  0  0  0  0  0  0
  -24.7926  -11.8635   21.4617 C   0  0  0  0  0  0  0  0  0  0  0  0
  -25.0724  -13.5737   20.1083 C   0  0  0  0  0  0  0  0  0  0  0  0
  -32.6440  -23.3547   20.8624 C   0  0  0  0  0  0  0  0  0  0  0  0
  -31.5044  -23.8504   20.3846 C   0  0  0  0  0  0  0  0  0  0  0  0
  -32.5760  -21.8877   20.8021 C   0  0  0  0  0  0  0  0  0  0  0  0
  -30.6478  -22.7213   19.9730 C   0  0  0  0  0  0  0  0  0  0  0  0
  -22.8211  -13.4929   21.1916 C   0  0  0  0  0  0  0  0  0  0  0  0
  -25.2869  -30.3061   21.3277 C   0  0  0  0  0  0  0  0  0  0  0  0
  -23.1252  -28.2526   20.0499 C   0  0  0  0  0  0  0  0  0  0  0  0
  -22.4879  -25.1763   18.7170 C   0  0  0  0  0  0  0  0  0  0  0  0
  -30.2733  -15.2378   19.0201 C   0  0  0  0  0  0  0  0  0  0  0  0
  -23.5183  -34.9122   22.6367 C   0  0  0  0  0  0  0  0  0  0  0  0
  -26.4503  -29.6089   19.2026 C   0  0  0  0  0  0  0  0  0  0  0  0
  -25.3692  -27.2838   20.6756 C   0  0  0  0  0  0  0  0  0  0  0  0
  -22.9542  -33.4940   22.6075 C   0  0  0  0  0  0  0  0  0  0  0  0
  -29.5036  -11.8161   18.4063 C   0  0  0  0  0  0  0  0  0  0  0  0
  -23.9195  -32.5217   23.2780 C   0  0  0  0  0  0  0  0  0  0  0  0
  -28.1560  -11.6169   19.1038 C   0  0  0  0  0  0  0  0  0  0  0  0
  -30.4126  -12.7625   19.1885 C   0  0  0  0  0  0  0  0  0  0  0  0
  -28.4661  -13.8604   20.2251 C   0  0  0  0  0  0  0  0  0  0  0  0
  -25.2624  -32.4795   22.5388 C   0  0  1  0  0  0  0  0  0  0  0  0
  -25.1330  -29.6851   19.9682 C   0  0  1  0  0  0  0  0  0  0  0  0
  -27.4915  -12.9659   19.4417 C   0  0  2  0  0  0  0  0  0  0  0  0
  -20.6185  -23.7755   17.8001 C   0  0  0  0  0  0  0  0  0  0  0  0
  -22.1172  -27.7465   22.8850 C   0  0  0  0  0  0  0  0  0  0  0  0
  -20.9538  -25.7005   22.0314 C   0  0  0  0  0  0  0  0  0  0  0  0
  -20.3188  -27.9496   21.1591 C   0  0  0  0  0  0  0  0  0  0  0  0
  -23.7895  -24.9666   16.0673 C   0  0  0  0  0  0  0  0  0  0  0  0
  -31.0916  -25.2703   20.2452 C   0  0  0  0  0  0  0  0  0  1  0  0
  -22.5279  -26.9314   20.4699 C   0  0  1  0  0  0  0  0  0  0  0  0
  -21.7328  -24.7561   17.4689 C   0  0  2  0  0  0  0  0  0  0  0  0
  -21.5075  -27.0852   21.6329 C   0  0  0  0  0  0  0  0  0  0  0  0
  -26.0366  -11.7220   20.9964 N   0  0  0  0  0  0  0  0  0  0  0  0
  -26.1772  -12.7769   20.1759 N   0  0  0  0  0  0  0  0  0  0  0  0
  -31.3509  -21.5659   20.2545 N   0  0  0  0  0  0  0  0  0  0  0  0
  -24.5174  -28.3712   20.1662 N   0  0  0  0  0  0  0  0  0  0  0  0
  -29.7179  -14.0209   19.4688 N   0  0  0  0  0  0  0  0  0  0  0  0
  -25.0431  -14.6770   19.3309 N   0  0  0  0  0  0  0  0  0  0  0  0
  -21.9987  -12.7818   22.0760 N   0  0  0  0  0  0  0  0  0  0  0  0
  -29.5078  -16.3650   19.3164 N   0  0  0  0  0  0  0  0  0  0  0  0
  -25.1526  -31.6814   21.3365 N   0  0  0  0  0  0  0  0  0  0  0  0
  -21.9709  -26.3328   19.2616 N   0  0  0  0  0  0  0  0  0  0  0  0
  -22.6579  -24.1058   16.4982 N   0  3  0  0  0  0  0  0  0  0  0  0
  -33.4726  -21.1518   21.1813 O   0  0  0  0  0  0  0  0  0  0  0  0
  -29.5360  -22.8444   19.4845 O   0  0  0  0  0  0  0  0  0  0  0  0
  -22.3754  -14.5242   20.6335 O   0  0  0  0  0  0  0  0  0  0  0  0
  -25.5095  -29.5904   22.2972 O   0  0  0  0  0  0  0  0  0  0  0  0
  -22.3847  -29.1441   19.6274 O   0  0  0  0  0  0  0  0  0  0  0  0
  -23.4388  -24.5401   19.1661 O   0  0  0  0  0  0  0  0  0  0  0  0
  -31.3354  -15.2744   18.3934 O   0  0  0  0  0  0  0  0  0  0  0  0
  -22.7091   -8.1444   25.0802 O   0  0  0  0  0  0  0  0  0  0  0  0
  -29.9173  -25.5134   21.0187 O   0  0  0  0  0  0  0  0  0  1  0  0
  -23.5297   -2.7976   24.0111 F   0  0  0  0  0  0  0  0  0  0  0  0
  -20.5736   -6.4247   24.7265 F   0  0  0  0  0  0  0  0  0  0  0  0
  1  2  1  0  0  0  0
  1  5  2  0  0  0  0
  2  6  2  0  0  0  0
  3 12  2  0  0  0  0
  3 19  1  0  0  0  0
  4 13  1  0  0  0  0
  4 19  2  0  0  0  0
  5 21  1  0  0  0  0
  6 23  1  0  0  0  0
  7 14  2  0  0  0  0
  7 22  1  0  0  0  0
  8 10  2  0  0  0  0
  8 25  1  0  0  0  0
  9 11  1  0  0  0  0
  9 25  2  0  0  0  0
 10 26  1  0  0  0  0
 11 26  2  0  0  0  0
 12 27  1  0  0  0  0
 13 27  2  0  0  0  0
 14 28  1  0  0  0  0
 15 16  2  0  0  0  0
 15 29  1  0  0  0  0
 16 30  1  0  0  0  0
 17 24  1  0  0  0  0
 17 28  2  0  0  0  0
 18 30  2  0  0  0  0
 18 31  1  0  0  0  0
 19 32  1  0  0  0  0
 20 32  1  0  0  0  0
 20 33  2  0  0  0  0
 20 38  1  0  0  0  0
 21 23  2  0  0  0  0
 21 43  1  0  0  0  0
 22 24  2  0  0  0  0
 22 44  1  0  0  0  0
 23 52  1  0  0  0  0
 24 45  1  0  0  0  0
 25 66  1  0  0  0  0
 26 71  1  0  0  0  0
 27 82  1  0  0  0  0
 28 83  1  0  0  0  0
 29 31  2  0  0  0  0
 29 82  1  0  0  0  0
 30 84  1  0  0  0  0
 31 85  1  0  0  0  0
 32 64  2  0  0  0  0
 33 65  1  0  0  0  0
 33 69  1  0  0  0  0
 34 35  2  0  0  0  0
 34 36  1  0  0  0  0
 35 37  1  0  0  0  0
 35 60  1  0  0  0  0
 36 66  1  0  0  0  0
 36 75  2  0  0  0  0
 37 66  1  0  0  0  0
 37 76  2  0  0  0  0
 38 70  1  0  0  0  0
 38 77  2  0  0  0  0
 39 53  1  0  0  0  0
 39 72  1  0  0  0  0
 39 78  2  0  0  0  0
 40 61  1  0  0  0  0
 40 67  1  0  0  0  0
 40 79  2  0  0  0  0
 41 62  1  0  0  0  0
 41 73  1  0  0  0  0
 41 80  2  0  0  0  0
 42 68  1  0  0  0  0
 42 71  1  0  0  0  0
 42 81  2  0  0  0  0
 43 46  1  0  0  0  0
 44 53  1  0  0  0  0
 45 67  1  0  0  0  0
 46 48  1  0  0  0  0
 47 49  1  0  0  0  0
 47 50  1  0  0  0  0
 48 52  1  0  0  0  0
 49 54  1  0  0  0  0
 50 68  1  0  0  0  0
 51 54  1  0  0  0  0
 51 68  1  0  0  0  0
 52 72  1  0  0  0  0
 53 67  1  0  0  0  0
 54 65  1  0  0  0  0
 55 62  1  0  0  0  0
 56 63  1  0  0  0  0
 57 63  1  0  0  0  0
 58 63  1  0  0  0  0
 59 74  1  0  0  0  0
 60 83  1  0  0  0  0
 61 63  1  0  0  0  0
 61 73  1  0  0  0  0
 62 74  1  0  0  0  0
 64 65  1  0  0  0  0
M  CHG  1  74   1
M  ISO  4  42 100  60 101  71 100  83 101
M  END
> <Batch ID>
0081

> <Smiles>
CNC(C)C(=O)NC(C(=O)N1Cc2cc([101O:1][101CH2:1]C3=CC(=O)N(c4ccc([100NH:0][100C:0](=O)N5CCCC(n6nc(-c7ccc(Oc8ccc(F)cc8F)cc7)c(C(N)=O)c6N)C5)cc4)C3=O)ccc2CC1C(=O)NC1CCCc2ccccc21)C(C)(C)C

> <Shape>
0.296

> <Color>
0.133

> <Negative vol penalty>
0.000

$$$$

  -OEChem-04052300043D

 83 91  0     1  0  0  0  0  0999 V2000
  -21.7335  -35.1508   23.9214 C   0  0  0  0  0  0  0  0  0  0  0  0
  -22.8992  -34.5013   23.5279 C   0  0  0  0  0  0  0  0  0  0  0  0
  -31.8268  -19.3361   18.4245 C   0  0  0  0  0  0  0  0  0  0  0  0
  -23.9553  -12.1283   20.9370 C   0  0  0  0  0  0  0  0  0  0  0  0
  -26.2991  -11.9913   20.3667 C   0  0  0  0  0  0  0  0  0  0  0  0
  -31.9683  -20.7198   18.5291 C   0  0  0  0  0  0  0  0  0  0  0  0
  -20.6368  -34.4088   24.3578 C   0  0  0  0  0  0  0  0  0  0  0  0
  -22.9691  -33.1093   23.5717 C   0  0  0  0  0  0  0  0  0  0  0  0
  -25.9871  -29.4513   19.6966 C   0  0  0  0  0  0  0  0  0  0  0  0
  -30.5554  -18.7702   18.3293 C   0  0  0  0  0  0  0  0  0  0  0  0
  -23.7631  -10.8323   20.4586 C   0  0  0  0  0  0  0  0  0  0  0  0
  -26.1069  -10.6952   19.8884 C   0  0  0  0  0  0  0  0  0  0  0  0
  -27.2319  -28.8280   19.7721 C   0  0  0  0  0  0  0  0  0  0  0  0
  -24.3027   -7.6733   21.5371 C   0  0  0  0  0  0  0  0  0  0  0  0
  -23.5425   -6.8010   22.3159 C   0  0  0  0  0  0  0  0  0  0  0  0
  -29.5670  -20.9718   18.4434 C   0  0  0  0  0  0  0  0  0  0  0  0
  -26.1678  -26.8117   20.5604 C   0  0  0  0  0  0  0  0  0  0  0  0
  -21.9680   -6.5521   20.5003 C   0  0  0  0  0  0  0  0  0  0  0  0
  -25.2233  -12.7078   20.8910 C   0  0  0  0  0  0  0  0  0  0  0  0
  -30.8384  -21.5377   18.5386 C   0  0  0  0  0  0  0  0  0  0  0  0
  -25.7639  -14.4274   22.6961 C   0  0  0  0  0  0  0  0  0  0  0  0
  -20.6899  -33.0066   24.3977 C   0  0  0  0  0  0  0  0  0  0  0  0
  -24.8224  -28.7618   20.0635 C   0  0  0  0  0  0  0  0  0  0  0  0
  -21.8725  -32.3479   24.0103 C   0  0  0  0  0  0  0  0  0  0  0  0
  -24.9091  -27.4277   20.4862 C   0  0  0  0  0  0  0  0  0  0  0  0
  -29.4255  -19.5881   18.3387 C   0  0  0  0  0  0  0  0  0  0  0  0
  -24.8389  -10.1157   19.9343 C   0  0  0  0  0  0  0  0  0  0  0  0
  -27.3227  -27.5089   20.2068 C   0  0  0  0  0  0  0  0  0  0  0  0
  -23.8955   -7.9852   20.2398 C   0  0  0  0  0  0  0  0  0  0  0  0
  -22.3752   -6.2403   21.7975 C   0  0  0  0  0  0  0  0  0  0  0  0
  -22.7282   -7.4245   19.7215 C   0  0  0  0  0  0  0  0  0  0  0  0
  -25.4224  -14.0468   21.3845 C   0  0  0  0  0  0  0  0  0  0  0  0
  -25.8334  -15.7983   22.6488 C   0  0  0  0  0  0  0  0  0  0  0  0
  -30.9905  -23.0108   18.6499 C   0  0  0  0  0  0  0  0  0  0  0  0
  -25.9976  -13.6144   23.8538 C   0  0  0  0  0  0  0  0  0  0  0  0
  -22.5893  -29.1569   22.2907 C   0  0  0  0  0  0  0  0  0  0  0  0
  -21.1671  -26.6821   20.7497 C   0  0  0  0  0  0  0  0  0  0  0  0
  -29.8750  -25.0646   19.4454 C   0  0  0  0  0  0  0  0  0  0  0  0
  -21.5005  -23.9469   18.7361 C   0  0  0  0  0  0  0  0  0  0  0  0
  -26.9101  -19.6812   18.2363 C   0  0  0  0  0  0  0  0  0  0  0  0
  -19.4954  -32.2495   24.9216 C   0  0  0  0  0  0  0  0  0  0  0  0
  -23.4845  -29.4398   19.9509 C   0  0  0  0  0  0  0  0  0  0  0  0
  -23.6867  -26.6370   20.8722 C   0  0  0  0  0  0  0  0  0  0  0  0
  -19.5210  -30.7612   24.5828 C   0  0  0  0  0  0  0  0  0  0  0  0
  -24.0174  -19.5614   20.3087 C   0  0  0  0  0  0  0  0  0  0  0  0
  -20.8962  -30.1704   24.8769 C   0  0  0  0  0  0  0  0  0  0  0  0
  -24.0837  -18.1705   20.9438 C   0  0  0  0  0  0  0  0  0  0  0  0
  -24.5090  -19.5484   18.8624 C   0  0  0  0  0  0  0  0  0  0  0  0
  -25.9045  -17.5656   19.2988 C   0  0  0  0  0  0  0  0  0  0  0  0
  -21.9784  -30.8383   24.0200 C   0  0  1  0  0  0  0  0  0  0  0  0
  -22.4176  -28.8075   20.8395 C   0  0  1  0  0  0  0  0  0  0  0  0
  -25.4804  -17.5406   20.7764 C   0  0  2  0  0  0  0  0  0  0  0  0
  -20.1649  -22.1026   17.6815 C   0  0  0  0  0  0  0  0  0  0  0  0
  -21.0117  -25.2575   23.4435 C   0  0  0  0  0  0  0  0  0  0  0  0
  -20.5721  -23.1231   22.2108 C   0  0  0  0  0  0  0  0  0  0  0  0
  -18.9683  -25.0243   22.0206 C   0  0  0  0  0  0  0  0  0  0  0  0
  -22.2306  -24.8226   16.0050 C   0  0  0  0  0  0  0  0  0  0  0  0
  -28.5667  -25.4859   20.0808 C   0  0  0  0  0  0  0  0  0  1  0  0
  -21.2147  -25.1780   20.8708 C   0  0  1  0  0  0  0  0  0  0  0  0
  -20.7315  -23.5028   17.5049 C   0  0  2  0  0  0  0  0  0  0  0  0
  -20.4651  -24.6610   22.1311 C   0  0  0  0  0  0  0  0  0  0  0  0
  -25.2843  -15.0916   20.5639 N   0  0  0  0  0  0  0  0  0  0  0  0
  -25.5403  -16.1422   21.3619 N   0  0  0  0  0  0  0  0  0  0  0  0
  -22.4020  -27.3459   20.7512 N   0  0  0  0  0  0  0  0  0  0  0  0
  -25.8394  -18.9416   18.7817 N   0  0  0  0  0  0  0  0  0  0  0  0
  -26.1160  -16.7312   23.5828 N   0  0  0  0  0  0  0  0  0  0  0  0
  -25.8846  -12.2232   23.7270 N   0  0  0  0  0  0  0  0  0  0  0  0
  -28.1341  -19.0130   18.2417 N   0  0  0  0  0  0  0  0  0  0  0  0
  -29.9154  -23.6871   19.2239 N   0  0  0  0  0  0  0  0  0  0  0  0
  -21.9454  -30.3195   22.6694 N   0  0  0  0  0  0  0  0  0  0  0  0
  -20.7006  -24.6506   19.6115 N   0  0  0  0  0  0  0  0  0  0  0  0
  -21.6224  -23.5020   16.3102 N   0  3  0  0  0  0  0  0  0  0  0  0
  -32.0334  -23.5347   18.2677 O   0  0  0  0  0  0  0  0  0  0  0  0
  -26.2816  -14.1080   24.9715 O   0  0  0  0  0  0  0  0  0  0  0  0
  -23.2553  -28.4252   23.0137 O   0  0  0  0  0  0  0  0  0  0  0  0
  -20.0748  -27.2465   20.6501 O   0  0  0  0  0  0  0  0  0  0  0  0
  -30.7672  -25.8621   19.1700 O   0  0  0  0  0  0  0  0  0  0  0  0
  -22.6906  -23.6916   18.9062 O   0  0  0  0  0  0  0  0  0  0  0  0
  -26.7584  -20.8332   17.8219 O   0  0  0  0  0  0  0  0  0  0  0  0
  -24.6517   -8.8509   19.4676 O   0  0  0  0  0  0  0  0  0  0  0  0
  -28.5365  -26.8984   20.2820 O   0  0  0  0  0  0  0  0  0  1  0  0
  -21.6461   -5.4013   22.5450 F   0  0  0  0  0  0  0  0  0  0  0  0
  -22.3326   -7.7194   18.4755 F   0  0  0  0  0  0  0  0  0  0  0  0
  1  2  1  0  0  0  0
  1  7  2  0  0  0  0
  2  8  2  0  0  0  0
  3  6  2  0  0  0  0
  3 10  1  0  0  0  0
  4 11  2  0  0  0  0
  4 19  1  0  0  0  0
  5 12  1  0  0  0  0
  5 19  2  0  0  0  0
  6 20  1  0  0  0  0
  7 22  1  0  0  0  0
  8 24  1  0  0  0  0
  9 13  2  0  0  0  0
  9 23  1  0  0  0  0
 10 26  2  0  0  0  0
 11 27  1  0  0  0  0
 12 27  2  0  0  0  0
 13 28  1  0  0  0  0
 14 15  2  0  0  0  0
 14 29  1  0  0  0  0
 15 30  1  0  0  0  0
 16 20  2  0  0  0  0
 16 26  1  0  0  0  0
 17 25  1  0  0  0  0
 17 28  2  0  0  0  0
 18 30  2  0  0  0  0
 18 31  1  0  0  0  0
 19 32  1  0  0  0  0
 20 34  1  0  0  0  0
 21 32  1  0  0  0  0
 21 33  2  0  0  0  0
 21 35  1  0  0  0  0
 22 24  2  0  0  0  0
 22 41  1  0  0  0  0
 23 25  2  0  0  0  0
 23 42  1  0  0  0  0
 24 50  1  0  0  0  0
 25 43  1  0  0  0  0
 26 68  1  0  0  0  0
 27 80  1  0  0  0  0
 28 81  1  0  0  0  0
 29 31  2  0  0  0  0
 29 80  1  0  0  0  0
 30 82  1  0  0  0  0
 31 83  1  0  0  0  0
 32 62  2  0  0  0  0
 33 63  1  0  0  0  0
 33 66  1  0  0  0  0
 34 69  1  0  0  0  0
 34 73  2  0  0  0  0
 35 67  1  0  0  0  0
 35 74  2  0  0  0  0
 36 51  1  0  0  0  0
 36 70  1  0  0  0  0
 36 75  2  0  0  0  0
 37 59  1  0  0  0  0
 37 64  1  0  0  0  0
 37 76  2  0  0  0  0
 38 58  1  0  0  0  0
 38 69  1  0  0  0  0
 38 77  2  0  0  0  0
 39 60  1  0  0  0  0
 39 71  1  0  0  0  0
 39 78  2  0  0  0  0
 40 65  1  0  0  0  0
 40 68  1  0  0  0  0
 40 79  2  0  0  0  0
 41 44  1  0  0  0  0
 42 51  1  0  0  0  0
 43 64  1  0  0  0  0
 44 46  1  0  0  0  0
 45 47  1  0  0  0  0
 45 48  1  0  0  0  0
 46 50  1  0  0  0  0
 47 52  1  0  0  0  0
 48 65  1  0  0  0  0
 49 52  1  0  0  0  0
 49 65  1  0  0  0  0
 50 70  1  0  0  0  0
 51 64  1  0  0  0  0
 52 63  1  0  0  0  0
 53 60  1  0  0  0  0
 54 61  1  0  0  0  0
 55 61  1  0  0  0  0
 56 61  1  0  0  0  0
 57 72  1  0  0  0  0
 58 81  1  0  0  0  0
 59 61  1  0  0  0  0
 59 71  1  0  0  0  0
 60 72  1  0  0  0  0
 62 63  1  0  0  0  0
M  CHG  1  72   1
M  ISO  4  40 100  58 101  68 100  81 101
M  END
> <Batch ID>
0081

> <Smiles>
CNC(C)C(=O)NC(C(=O)N1Cc2cc([101O:1][101CH2:1]C(=O)NC(=O)c3cccc([100NH:0][100C:0](=O)N4CCCC(n5nc(-c6ccc(Oc7ccc(F)cc7F)cc6)c(C(N)=O)c5N)C4)c3)ccc2CC1C(=O)NC1CCCc2ccccc21)C(C)(C)C

> <Shape>
0.206

> <Color>
0.091

> <Negative vol penalty>
0.000

$$$$

  -OEChem-04052300043D

 83 91  0     1  0  0  0  0  0999 V2000
  -24.1898  -32.7161   32.3416 C   0  0  0  0  0  0  0  0  0  0  0  0
  -24.6397  -31.4620   31.9412 C   0  0  0  0  0  0  0  0  0  0  0  0
  -30.9822  -19.3849   20.6894 C   0  0  0  0  0  0  0  0  0  0  0  0
  -23.1851   -9.7992   19.9133 C   0  0  0  0  0  0  0  0  0  0  0  0
  -23.8732   -9.8704   22.2281 C   0  0  0  0  0  0  0  0  0  0  0  0
  -23.2325  -33.3872   31.5820 C   0  0  0  0  0  0  0  0  0  0  0  0
  -24.1316  -30.8779   30.7814 C   0  0  0  0  0  0  0  0  0  0  0  0
  -27.1552  -27.3093   26.8280 C   0  0  0  0  0  0  0  0  0  0  0  0
  -30.1904  -20.1518   21.5441 C   0  0  0  0  0  0  0  0  0  0  0  0
  -30.8746  -17.9942   20.6993 C   0  0  0  0  0  0  0  0  0  0  0  0
  -22.4869   -8.6166   20.1572 C   0  0  0  0  0  0  0  0  0  0  0  0
  -23.1749   -8.6878   22.4720 C   0  0  0  0  0  0  0  0  0  0  0  0
  -27.2174  -25.9252   26.6719 C   0  0  0  0  0  0  0  0  0  0  0  0
  -19.9692   -7.7513   22.9886 C   0  0  0  0  0  0  0  0  0  0  0  0
  -19.1792   -7.6919   24.1366 C   0  0  0  0  0  0  0  0  0  0  0  0
  -25.5075  -26.0460   24.9746 C   0  0  0  0  0  0  0  0  0  0  0  0
  -20.4838   -5.8228   24.9376 C   0  0  0  0  0  0  0  0  0  0  0  0
  -23.8783  -10.4261   20.9487 C   0  0  0  0  0  0  0  0  0  0  0  0
  -24.1091  -12.9625   20.8030 C   0  0  0  0  0  0  0  0  0  0  0  0
  -22.7195  -32.8152   30.4071 C   0  0  0  0  0  0  0  0  0  0  0  0
  -26.2594  -28.0721   26.0651 C   0  0  0  0  0  0  0  0  0  0  0  0
  -23.1656  -31.5414   30.0061 C   0  0  0  0  0  0  0  0  0  0  0  0
  -25.4376  -27.4398   25.1211 C   0  0  0  0  0  0  0  0  0  0  0  0
  -29.2911  -19.5280   22.4089 C   0  0  0  0  0  0  0  0  0  0  0  0
  -29.9753  -17.3704   21.5641 C   0  0  0  0  0  0  0  0  0  0  0  0
  -22.4817   -8.0609   21.4365 C   0  0  0  0  0  0  0  0  0  0  0  0
  -26.3914  -25.2930   25.7471 C   0  0  0  0  0  0  0  0  0  0  0  0
  -21.0164   -6.8464   22.8150 C   0  0  0  0  0  0  0  0  0  0  0  0
  -19.4366   -6.7277   25.1112 C   0  0  0  0  0  0  0  0  0  0  0  0
  -21.2738   -5.8822   23.7895 C   0  0  0  0  0  0  0  0  0  0  0  0
  -29.1836  -18.1373   22.4189 C   0  0  0  0  0  0  0  0  0  0  0  0
  -24.6003  -11.6474   20.6973 C   0  0  0  0  0  0  0  0  0  0  0  0
  -25.1769  -13.7563   20.4621 C   0  0  0  0  0  0  0  0  0  0  0  0
  -27.4861  -22.1343   24.4174 C   0  0  0  0  0  0  0  0  0  0  0  0
  -27.3243  -23.4366   24.6728 C   0  0  0  0  0  0  0  0  0  1  0  0
  -22.8043  -13.4251   21.1762 C   0  0  0  0  0  0  0  0  0  0  0  0
  -28.4730  -21.6938   23.3886 C   0  0  0  0  0  0  0  0  0  0  0  0
  -23.7828  -29.9510   26.7285 C   0  0  0  0  0  0  0  0  0  0  0  0
  -23.8932  -30.5637   23.5450 C   0  0  0  0  0  0  0  0  0  0  0  0
  -24.8258  -29.5355   20.4274 C   0  0  0  0  0  0  0  0  0  0  0  0
  -30.5822  -15.0525   20.7861 C   0  0  0  0  0  0  0  0  0  0  0  0
  -21.6513  -33.5581   29.6444 C   0  0  0  0  0  0  0  0  0  0  0  0
  -26.2234  -29.5671   26.2264 C   0  0  0  0  0  0  0  0  0  0  0  0
  -24.4731  -28.2156   24.2631 C   0  0  0  0  0  0  0  0  0  0  0  0
  -21.4389  -33.0337   28.2266 C   0  0  0  0  0  0  0  0  0  0  0  0
  -29.6514  -12.5600   18.4201 C   0  0  0  0  0  0  0  0  0  0  0  0
  -21.3536  -31.5107   28.2280 C   0  0  0  0  0  0  0  0  0  0  0  0
  -28.2139  -12.2086   18.8103 C   0  0  0  0  0  0  0  0  0  0  0  0
  -30.5179  -12.8458   19.6453 C   0  0  0  0  0  0  0  0  0  0  0  0
  -28.5386  -13.5002   20.9582 C   0  0  0  0  0  0  0  0  0  0  0  0
  -22.6567  -30.8857   28.7407 C   0  0  1  0  0  0  0  0  0  0  0  0
  -24.9090  -30.1868   25.7621 C   0  0  1  0  0  0  0  0  0  0  0  0
  -27.6112  -13.2675   19.7542 C   0  0  2  0  0  0  0  0  0  0  0  0
  -24.7471  -30.2321   18.0178 C   0  0  0  0  0  0  0  0  0  0  0  0
  -20.9426  -29.7963   23.4221 C   0  0  0  0  0  0  0  0  0  0  0  0
  -21.1720  -29.5883   20.9377 C   0  0  0  0  0  0  0  0  0  0  0  0
  -21.5603  -31.7899   22.0443 C   0  0  0  0  0  0  0  0  0  0  0  0
  -27.7780  -29.5779   20.2228 C   0  0  0  0  0  0  0  0  0  0  0  0
  -23.2704  -29.9477   22.3155 C   0  0  1  0  0  0  0  0  0  0  0  0
  -25.5550  -30.2535   19.3061 C   0  0  2  0  0  0  0  0  0  0  0  0
  -21.7530  -30.2654   22.1973 C   0  0  0  0  0  0  0  0  0  0  0  0
  -25.8804  -11.6040   20.3186 N   0  0  0  0  0  0  0  0  0  0  0  0
  -26.2027  -12.9017   20.1834 N   0  0  0  0  0  0  0  0  0  0  0  0
  -24.4705  -29.6743   24.4624 N   0  0  0  0  0  0  0  0  0  0  0  0
  -29.8862  -13.8612   20.4907 N   0  0  0  0  0  0  0  0  0  0  0  0
  -25.3290  -15.0949   20.3765 N   0  0  0  0  0  0  0  0  0  0  0  0
  -21.8247  -12.4751   21.4958 N   0  0  0  0  0  0  0  0  0  0  0  0
  -28.4885  -20.3100   23.2754 N   0  0  0  0  0  0  0  0  0  0  0  0
  -29.8689  -15.9575   21.5714 N   0  0  0  0  0  0  0  0  0  0  0  0
  -23.6722  -30.9173   27.7101 N   0  0  0  0  0  0  0  0  0  0  0  0
  -24.0667  -30.4049   21.1819 N   0  0  0  0  0  0  0  0  0  0  0  0
  -26.8716  -29.6056   19.0461 N   0  3  0  0  0  0  0  0  0  0  0  0
  -22.5110  -14.6443   21.2088 O   0  0  0  0  0  0  0  0  0  0  0  0
  -29.1460  -22.5062   22.7652 O   0  0  0  0  0  0  0  0  0  0  0  0
  -23.0664  -28.9661   26.5928 O   0  0  0  0  0  0  0  0  0  0  0  0
  -23.8746  -31.7894   23.6829 O   0  0  0  0  0  0  0  0  0  0  0  0
  -24.9173  -28.3240   20.6129 O   0  0  0  0  0  0  0  0  0  0  0  0
  -31.7164  -15.2665   20.3503 O   0  0  0  0  0  0  0  0  0  0  0  0
  -21.8002   -6.9071   21.6750 O   0  0  0  0  0  0  0  0  0  0  0  0
  -26.4496  -23.9422   25.5932 O   0  0  0  0  0  0  0  0  0  1  0  0
  -18.6789   -6.6718   26.2143 F   0  0  0  0  0  0  0  0  0  0  0  0
  -22.2792   -5.0109   23.6288 F   0  0  0  0  0  0  0  0  0  0  0  0
  -28.3190  -17.5373   23.2516 F   0  0  0  0  0  0  0  0  0  0  0  0
  1  2  1  0  0  0  0
  1  6  2  0  0  0  0
  2  7  2  0  0  0  0
  3  9  2  0  0  0  0
  3 10  1  0  0  0  0
  4 11  2  0  0  0  0
  4 18  1  0  0  0  0
  5 12  1  0  0  0  0
  5 18  2  0  0  0  0
  6 20  1  0  0  0  0
  7 22  1  0  0  0  0
  8 13  2  0  0  0  0
  8 21  1  0  0  0  0
  9 24  1  0  0  0  0
 10 25  2  0  0  0  0
 11 26  1  0  0  0  0
 12 26  2  0  0  0  0
 13 27  1  0  0  0  0
 14 15  2  0  0  0  0
 14 28  1  0  0  0  0
 15 29  1  0  0  0  0
 16 23  1  0  0  0  0
 16 27  2  0  0  0  0
 17 29  2  0  0  0  0
 17 30  1  0  0  0  0
 18 32  1  0  0  0  0
 19 32  1  0  0  0  0
 19 33  2  0  0  0  0
 19 36  1  0  0  0  0
 20 22  2  0  0  0  0
 20 42  1  0  0  0  0
 21 23  2  0  0  0  0
 21 43  1  0  0  0  0
 22 51  1  0  0  0  0
 23 44  1  0  0  0  0
 24 31  2  0  0  0  0
 24 68  1  0  0  0  0
 25 31  1  0  0  0  0
 25 69  1  0  0  0  0
 26 79  1  0  0  0  0
 27 80  1  0  0  0  0
 28 30  2  0  0  0  0
 28 79  1  0  0  0  0
 29 81  1  0  0  0  0
 30 82  1  0  0  0  0
 31 83  1  0  0  0  0
 32 62  2  0  0  0  0
 33 63  1  0  0  0  0
 33 66  1  0  0  0  0
 34 35  2  0  0  0  0
 34 37  1  0  0  0  0
 35 80  1  0  0  0  0
 36 67  1  0  0  0  0
 36 73  2  0  0  0  0
 37 68  1  0  0  0  0
 37 74  2  0  0  0  0
 38 52  1  0  0  0  0
 38 70  1  0  0  0  0
 38 75  2  0  0  0  0
 39 59  1  0  0  0  0
 39 64  1  0  0  0  0
 39 76  2  0  0  0  0
 40 60  1  0  0  0  0
 40 71  1  0  0  0  0
 40 77  2  0  0  0  0
 41 65  1  0  0  0  0
 41 69  1  0  0  0  0
 41 78  2  0  0  0  0
 42 45  1  0  0  0  0
 43 52  1  0  0  0  0
 44 64  1  0  0  0  0
 45 47  1  0  0  0  0
 46 48  1  0  0  0  0
 46 49  1  0  0  0  0
 47 51  1  0  0  0  0
 48 53  1  0  0  0  0
 49 65  1  0  0  0  0
 50 53  1  0  0  0  0
 50 65  1  0  0  0  0
 51 70  1  0  0  0  0
 52 64  1  0  0  0  0
 53 63  1  0  0  0  0
 54 60  1  0  0  0  0
 55 61  1  0  0  0  0
 56 61  1  0  0  0  0
 57 61  1  0  0  0  0
 58 72  1  0  0  0  0
 59 61  1  0  0  0  0
 59 71  1  0  0  0  0
 60 72  1  0  0  0  0
 62 63  1  0  0  0  0
M  CHG  1  72   1
M  ISO  4  35 101  41 100  69 100  80 101
M  END
> <Batch ID>
0081

> <Smiles>
CNC(C)C(=O)NC(C(=O)N1Cc2cc([101O:1][101CH:1]=CC(=O)Nc3cccc([100NH:0][100C:0](=O)N4CCCC(n5nc(-c6ccc(Oc7ccc(F)cc7F)cc6)c(C(N)=O)c5N)C4)c3F)ccc2CC1C(=O)NC1CCCc2ccccc21)C(C)(C)C

> <Shape>
0.267

> <Color>
0.205

> <Negative vol penalty>
0.000

$$$$

  -OEChem-04052300043D

 86 95  0     1  0  0  0  0  0999 V2000
  -26.9409  -36.4453   21.4566 C   0  0  0  0  0  0  0  0  0  0  0  0
  -27.7539  -35.3168   21.4269 C   0  0  0  0  0  0  0  0  0  0  0  0
  -23.6246   -9.7573   21.9416 C   0  0  0  0  0  0  0  0  0  0  0  0
  -24.4728  -11.0913   23.7686 C   0  0  0  0  0  0  0  0  0  0  0  0
  -25.6016  -36.3287   21.8265 C   0  0  0  0  0  0  0  0  0  0  0  0
  -27.2283  -34.0711   21.7682 C   0  0  0  0  0  0  0  0  0  0  0  0
  -28.7406  -28.6503   19.3528 C   0  0  0  0  0  0  0  0  0  0  0  0
  -31.7411  -19.2854   19.6185 C   0  0  0  0  0  0  0  0  0  0  0  0
  -31.2696  -17.9915   19.3970 C   0  0  0  0  0  0  0  0  0  0  0  0
  -23.1273   -8.8256   22.8528 C   0  0  0  0  0  0  0  0  0  0  0  0
  -23.9755  -10.1597   24.6798 C   0  0  0  0  0  0  0  0  0  0  0  0
  -29.5970  -27.6378   19.7831 C   0  0  0  0  0  0  0  0  0  0  0  0
  -24.3367   -6.2905   24.7330 C   0  0  0  0  0  0  0  0  0  0  0  0
  -24.5565   -4.9398   24.4629 C   0  0  0  0  0  0  0  0  0  0  0  0
  -27.7224  -26.4752   20.7594 C   0  0  0  0  0  0  0  0  0  0  0  0
  -29.4784  -20.0462   19.9910 C   0  0  0  0  0  0  0  0  0  0  0  0
  -22.1708   -4.5614   24.4142 C   0  0  0  0  0  0  0  0  0  0  0  0
  -24.2974  -10.8901   22.3995 C   0  0  0  0  0  0  0  0  0  0  0  0
  -24.1439  -12.9806   20.9455 C   0  0  0  0  0  0  0  0  0  0  0  0
  -25.0570  -35.0795   22.1632 C   0  0  0  0  0  0  0  0  0  0  0  0
  -27.3679  -28.5881   19.6326 C   0  0  0  0  0  0  0  0  0  0  0  0
  -25.8809  -33.9379   22.1443 C   0  0  0  0  0  0  0  0  0  0  0  0
  -26.8503  -27.4869   20.3294 C   0  0  0  0  0  0  0  0  0  0  0  0
  -30.8455  -20.3128   19.9156 C   0  0  0  0  0  0  0  0  0  0  0  0
  -29.9026  -17.7249   19.4724 C   0  0  0  0  0  0  0  0  0  0  0  0
  -29.0069  -18.7522   19.7694 C   0  0  0  0  0  0  0  0  0  0  0  0
  -23.3027   -9.0268   24.2219 C   0  0  0  0  0  0  0  0  0  0  0  0
  -29.0885  -26.5515   20.4890 C   0  0  0  0  0  0  0  0  0  0  0  0
  -23.0339   -6.7766   24.8439 C   0  0  0  0  0  0  0  0  0  0  0  0
  -23.4735   -4.0753   24.3034 C   0  0  0  0  0  0  0  0  0  0  0  0
  -21.9510   -5.9121   24.6844 C   0  0  0  0  0  0  0  0  0  0  0  0
  -24.8118  -11.8526   21.4587 C   0  0  0  0  0  0  0  0  0  0  0  0
  -25.0547  -13.5630   20.0984 C   0  0  0  0  0  0  0  0  0  0  0  0
  -32.6312  -23.3842   20.7163 C   0  0  0  0  0  0  0  0  0  0  0  0
  -31.4872  -23.8862   20.2559 C   0  0  0  0  0  0  0  0  0  0  0  0
  -32.5522  -21.9175   20.6624 C   0  0  0  0  0  0  0  0  0  0  0  0
  -30.6160  -22.7615   19.8628 C   0  0  0  0  0  0  0  0  0  0  0  0
  -22.8186  -13.4591   21.2108 C   0  0  0  0  0  0  0  0  0  0  0  0
  -25.3306  -30.3877   21.2803 C   0  0  0  0  0  0  0  0  0  0  0  0
  -23.1338  -28.3448   20.0463 C   0  0  0  0  0  0  0  0  0  0  0  0
  -22.4531  -25.2683   18.7353 C   0  0  0  0  0  0  0  0  0  0  0  0
  -30.2220  -15.2835   18.9398 C   0  0  0  0  0  0  0  0  0  0  0  0
  -23.6158  -35.0104   22.6023 C   0  0  0  0  0  0  0  0  0  0  0  0
  -26.4533  -29.6751   19.1383 C   0  0  0  0  0  0  0  0  0  0  0  0
  -25.3812  -27.3627   20.6377 C   0  0  0  0  0  0  0  0  0  0  0  0
  -23.0417  -33.5960   22.5876 C   0  0  0  0  0  0  0  0  0  0  0  0
  -29.4833  -11.8520   18.3429 C   0  0  0  0  0  0  0  0  0  0  0  0
  -24.0114  -32.6194   23.2453 C   0  0  0  0  0  0  0  0  0  0  0  0
  -28.1472  -11.6390   19.0581 C   0  0  0  0  0  0  0  0  0  0  0  0
  -30.3916  -12.8102   19.1114 C   0  0  0  0  0  0  0  0  0  0  0  0
  -28.4462  -13.8883   20.1709 C   0  0  0  0  0  0  0  0  0  0  0  0
  -25.3413  -32.5654   22.4838 C   0  0  1  0  0  0  0  0  0  0  0  0
  -25.1496  -29.7631   19.9258 C   0  0  1  0  0  0  0  0  0  0  0  0
  -27.4718  -12.9811   19.4019 C   0  0  2  0  0  0  0  0  0  0  0  0
  -20.5591  -23.8773   17.8549 C   0  0  0  0  0  0  0  0  0  0  0  0
  -22.1702  -27.8554   22.8997 C   0  0  0  0  0  0  0  0  0  0  0  0
  -20.9786  -25.8146   22.0731 C   0  0  0  0  0  0  0  0  0  0  0  0
  -20.3444  -28.0650   21.2036 C   0  0  0  0  0  0  0  0  0  0  0  0
  -23.7085  -25.0405   16.0649 C   0  0  0  0  0  0  0  0  0  0  0  0
  -31.0817  -25.3084   20.1184 C   0  0  0  0  0  0  0  0  0  1  0  0
  -22.5346  -27.0291   20.4809 C   0  0  1  0  0  0  0  0  0  0  0  0
  -21.6743  -24.8490   17.5016 C   0  0  2  0  0  0  0  0  0  0  0  0
  -21.5350  -27.1940   21.6604 C   0  0  0  0  0  0  0  0  0  0  0  0
  -26.0513  -11.7242   20.9777 N   0  0  0  0  0  0  0  0  0  0  0  0
  -26.1693  -12.7789   20.1533 N   0  0  0  0  0  0  0  0  0  0  0  0
  -31.3158  -21.6023   20.1365 N   0  0  0  0  0  0  0  0  0  0  0  0
  -24.5285  -28.4542   20.1387 N   0  0  0  0  0  0  0  0  0  0  0  0
  -29.6862  -14.0613   19.3981 N   0  0  0  0  0  0  0  0  0  0  0  0
  -27.6182  -18.5042   19.8510 N   0  0  0  0  0  0  0  0  0  0  0  0
  -25.0029  -14.6642   19.3192 N   0  0  0  0  0  0  0  0  0  0  0  0
  -22.0158  -12.7405   22.1072 N   0  0  0  0  0  0  0  0  0  0  0  0
  -29.4476  -16.4026   19.2438 N   0  0  0  0  0  0  0  0  0  0  0  0
  -25.2059  -31.7639   21.2864 N   0  0  0  0  0  0  0  0  0  0  0  0
  -21.9533  -26.4302   19.2843 N   0  0  0  0  0  0  0  0  0  0  0  0
  -22.5784  -24.1891   16.5177 N   0  3  0  0  0  0  0  0  0  0  0  0
  -33.4500  -21.1768   21.0290 O   0  0  0  0  0  0  0  0  0  0  0  0
  -29.4970  -22.8906   19.3926 O   0  0  0  0  0  0  0  0  0  0  0  0
  -22.3541  -14.4840   20.6565 O   0  0  0  0  0  0  0  0  0  0  0  0
  -25.5646  -29.6739   22.2484 O   0  0  0  0  0  0  0  0  0  0  0  0
  -22.3923  -29.2399   19.6331 O   0  0  0  0  0  0  0  0  0  0  0  0
  -23.4070  -24.6272   19.1706 O   0  0  0  0  0  0  0  0  0  0  0  0
  -31.2755  -15.3307   18.2995 O   0  0  0  0  0  0  0  0  0  0  0  0
  -22.8174   -8.1180   25.1113 O   0  0  0  0  0  0  0  0  0  0  0  0
  -29.9224  -25.5622   20.9106 O   0  0  0  0  0  0  0  0  0  1  0  0
  -23.6847   -2.7786   24.0425 F   0  0  0  0  0  0  0  0  0  0  0  0
  -20.6972   -6.3735   24.7886 F   0  0  0  0  0  0  0  0  0  0  0  0
  1  2  1  0  0  0  0
  1  5  2  0  0  0  0
  2  6  2  0  0  0  0
  3 10  2  0  0  0  0
  3 18  1  0  0  0  0
  4 11  1  0  0  0  0
  4 18  2  0  0  0  0
  5 20  1  0  0  0  0
  6 22  1  0  0  0  0
  7 12  2  0  0  0  0
  7 21  1  0  0  0  0
  8  9  2  0  0  0  0
  8 24  1  0  0  0  0
  9 25  1  0  0  0  0
 10 27  1  0  0  0  0
 11 27  2  0  0  0  0
 12 28  1  0  0  0  0
 13 14  2  0  0  0  0
 13 29  1  0  0  0  0
 14 30  1  0  0  0  0
 15 23  1  0  0  0  0
 15 28  2  0  0  0  0
 16 24  2  0  0  0  0
 16 26  1  0  0  0  0
 17 30  2  0  0  0  0
 17 31  1  0  0  0  0
 18 32  1  0  0  0  0
 19 32  1  0  0  0  0
 19 33  2  0  0  0  0
 19 38  1  0  0  0  0
 20 22  2  0  0  0  0
 20 43  1  0  0  0  0
 21 23  2  0  0  0  0
 21 44  1  0  0  0  0
 22 52  1  0  0  0  0
 23 45  1  0  0  0  0
 24 66  1  0  0  0  0
 25 26  2  0  0  0  0
 25 72  1  0  0  0  0
 26 69  1  0  0  0  0
 27 83  1  0  0  0  0
 28 84  1  0  0  0  0
 29 31  2  0  0  0  0
 29 83  1  0  0  0  0
 30 85  1  0  0  0  0
 31 86  1  0  0  0  0
 32 64  2  0  0  0  0
 33 65  1  0  0  0  0
 33 70  1  0  0  0  0
 34 35  2  0  0  0  0
 34 36  1  0  0  0  0
 35 37  1  0  0  0  0
 35 60  1  0  0  0  0
 36 66  1  0  0  0  0
 36 76  2  0  0  0  0
 37 66  1  0  0  0  0
 37 77  2  0  0  0  0
 38 71  1  0  0  0  0
 38 78  2  0  0  0  0
 39 53  1  0  0  0  0
 39 73  1  0  0  0  0
 39 79  2  0  0  0  0
 40 61  1  0  0  0  0
 40 67  1  0  0  0  0
 40 80  2  0  0  0  0
 41 62  1  0  0  0  0
 41 74  1  0  0  0  0
 41 81  2  0  0  0  0
 42 68  1  0  0  0  0
 42 72  1  0  0  0  0
 42 82  2  0  0  0  0
 43 46  1  0  0  0  0
 44 53  1  0  0  0  0
 45 67  1  0  0  0  0
 46 48  1  0  0  0  0
 47 49  1  0  0  0  0
 47 50  1  0  0  0  0
 48 52  1  0  0  0  0
 49 54  1  0  0  0  0
 50 68  1  0  0  0  0
 51 54  1  0  0  0  0
 51 68  1  0  0  0  0
 52 73  1  0  0  0  0
 53 67  1  0  0  0  0
 54 65  1  0  0  0  0
 55 62  1  0  0  0  0
 56 63  1  0  0  0  0
 57 63  1  0  0  0  0
 58 63  1  0  0  0  0
 59 75  1  0  0  0  0
 60 84  1  0  0  0  0
 61 63  1  0  0  0  0
 61 74  1  0  0  0  0
 62 75  1  0  0  0  0
 64 65  1  0  0  0  0
M  CHG  1  75   1
M  ISO  4  42 100  60 101  72 100  84 101
M  END
> <Batch ID>
0081

> <Smiles>
CNC(C)C(=O)NC(C(=O)N1Cc2cc([101O:1][101CH2:1]C3=CC(=O)N(c4ccc([100NH:0][100C:0](=O)N5CCCC(n6nc(-c7ccc(Oc8ccc(F)cc8F)cc7)c(C(N)=O)c6N)C5)c(N)c4)C3=O)ccc2CC1C(=O)NC1CCCc2ccccc21)C(C)(C)C

> <Shape>
0.300

> <Color>
0.127

> <Negative vol penalty>
0.000

$$$$

  -OEChem-04052300043D

 86 95  0     1  0  0  0  0  0999 V2000
  -31.1462  -35.1906   21.1744 C   0  0  0  0  0  0  0  0  0  0  0  0
  -30.9275  -33.9040   20.6927 C   0  0  0  0  0  0  0  0  0  0  0  0
  -24.7521   -8.7842   21.5832 C   0  0  0  0  0  0  0  0  0  0  0  0
  -23.1970  -10.2534   20.4607 C   0  0  0  0  0  0  0  0  0  0  0  0
  -30.5544  -35.5961   22.3699 C   0  0  0  0  0  0  0  0  0  0  0  0
  -30.1177  -33.0216   21.4068 C   0  0  0  0  0  0  0  0  0  0  0  0
  -26.3808  -28.7584   19.0901 C   0  0  0  0  0  0  0  0  0  0  0  0
  -23.7314   -8.3497   22.4287 C   0  0  0  0  0  0  0  0  0  0  0  0
  -22.1762   -9.8189   21.3062 C   0  0  0  0  0  0  0  0  0  0  0  0
  -26.5277  -27.3850   18.9010 C   0  0  0  0  0  0  0  0  0  0  0  0
  -21.1180   -6.2091   22.2831 C   0  0  0  0  0  0  0  0  0  0  0  0
  -21.0089   -4.8382   22.5163 C   0  0  0  0  0  0  0  0  0  0  0  0
  -25.3942  -26.9821   20.9920 C   0  0  0  0  0  0  0  0  0  0  0  0
  -27.2416  -18.6968   18.9984 C   0  0  0  0  0  0  0  0  0  0  0  0
  -25.3518  -19.9909   18.2300 C   0  0  0  0  0  0  0  0  0  0  0  0
  -25.4356  -17.6122   17.8156 C   0  0  0  0  0  0  0  0  0  0  0  0
  -21.3432   -5.2137   24.8795 C   0  0  0  0  0  0  0  0  0  0  0  0
  -24.4849   -9.7361   20.5992 C   0  0  0  0  0  0  0  0  0  0  0  0
  -25.9102   -9.6317   18.4861 C   0  0  0  0  0  0  0  0  0  0  0  0
  -29.7291  -34.7214   23.0941 C   0  0  0  0  0  0  0  0  0  0  0  0
  -25.7481  -29.2552   20.2387 C   0  0  0  0  0  0  0  0  0  0  0  0
  -29.5153  -33.4153   22.6138 C   0  0  0  0  0  0  0  0  0  0  0  0
  -25.2382  -28.3622   21.1920 C   0  0  0  0  0  0  0  0  0  0  0  0
  -26.5838  -19.9210   18.8804 C   0  0  0  0  0  0  0  0  0  0  0  0
  -26.6676  -17.5423   18.4660 C   0  0  0  0  0  0  0  0  0  0  0  0
  -22.4434   -8.8670   22.2902 C   0  0  0  0  0  0  0  0  0  0  0  0
  -26.0369  -26.4966   19.8534 C   0  0  0  0  0  0  0  0  0  0  0  0
  -21.3398   -7.0823   23.3480 C   0  0  0  0  0  0  0  0  0  0  0  0
  -21.1215   -4.3405   23.8145 C   0  0  0  0  0  0  0  0  0  0  0  0
  -24.7777  -18.8365   17.6976 C   0  0  0  0  0  0  0  0  0  0  0  0
  -21.4523   -6.5846   24.6462 C   0  0  0  0  0  0  0  0  0  0  0  0
  -25.5390  -10.1858   19.7259 C   0  0  0  0  0  0  0  0  0  0  0  0
  -26.9556  -10.4139   18.0596 C   0  0  0  0  0  0  0  0  0  0  0  0
  -27.5484  -23.2507   20.0425 C   0  0  0  0  0  0  0  0  0  0  0  0
  -28.6799  -22.4873   20.5056 C   0  0  0  0  0  0  0  0  0  0  0  0
  -26.5820  -22.3541   19.3490 C   0  0  0  0  0  0  0  0  0  0  0  0
  -29.7571  -22.9193   21.1700 C   0  0  0  0  0  0  0  0  0  0  0  0
  -27.3050  -24.5558   20.1630 C   0  0  0  0  0  0  0  0  0  1  0  0
  -25.3591   -8.5104   17.7827 C   0  0  0  0  0  0  0  0  0  0  0  0
  -26.6391  -31.0965   22.6717 C   0  0  0  0  0  0  0  0  0  0  0  0
  -23.4988  -30.9025   23.4612 C   0  0  0  0  0  0  0  0  0  0  0  0
  -20.5577  -29.1851   23.2446 C   0  0  0  0  0  0  0  0  0  0  0  0
  -28.5636  -16.0547   19.1997 C   0  0  0  0  0  0  0  0  0  0  0  0
  -29.1493  -35.1892   24.4055 C   0  0  0  0  0  0  0  0  0  0  0  0
  -25.5739  -30.7388   20.4148 C   0  0  0  0  0  0  0  0  0  0  0  0
  -24.5330  -28.8440   22.4326 C   0  0  0  0  0  0  0  0  0  0  0  0
  -28.4433  -21.0630   20.1031 C   0  0  0  0  0  0  0  0  0  0  0  0
  -28.0025  -34.3171   24.9101 C   0  0  0  0  0  0  0  0  0  0  0  0
  -30.5252  -13.1318   19.7344 C   0  0  0  0  0  0  0  0  0  0  0  0
  -28.3688  -32.8401   24.8048 C   0  0  0  0  0  0  0  0  0  0  0  0
  -29.5039  -11.9937   19.6740 C   0  0  0  0  0  0  0  0  0  0  0  0
  -29.9472  -14.3777   20.4032 C   0  0  0  0  0  0  0  0  0  0  0  0
  -27.6583  -13.7172   19.7757 C   0  0  0  0  0  0  0  0  0  0  0  0
  -28.6232  -32.4374   23.3472 C   0  0  1  0  0  0  0  0  0  0  0  0
  -25.3691  -31.1477   21.8703 C   0  0  1  0  0  0  0  0  0  0  0  0
  -28.1738  -12.4625   19.0520 C   0  0  2  0  0  0  0  0  0  0  0  0
  -18.1740  -29.2540   24.0262 C   0  0  0  0  0  0  0  0  0  0  0  0
  -24.3810  -29.9626   26.2268 C   0  0  0  0  0  0  0  0  0  0  0  0
  -22.0440  -29.1559   26.6215 C   0  0  0  0  0  0  0  0  0  0  0  0
  -22.4753  -31.5821   26.2341 C   0  0  0  0  0  0  0  0  0  0  0  0
  -19.5317  -29.3425   20.4730 C   0  0  0  0  0  0  0  0  0  0  0  0
  -22.6631  -29.9654   24.2994 C   0  0  1  0  0  0  0  0  0  0  0  0
  -19.1461  -29.6414   22.9226 C   0  0  2  0  0  0  0  0  0  0  0  0
  -22.9058  -30.1571   25.8231 C   0  0  0  0  0  0  0  0  0  0  0  0
  -26.2879  -11.2384   20.0651 N   0  0  0  0  0  0  0  0  0  0  0  0
  -27.1401  -11.3520   19.0322 N   0  0  0  0  0  0  0  0  0  0  0  0
  -27.1560  -21.0728   19.4109 N   0  0  0  0  0  0  0  0  0  0  0  0
  -24.3930  -30.3038   22.5625 N   0  0  0  0  0  0  0  0  0  0  0  0
  -28.6905  -14.7655   19.7588 N   0  0  0  0  0  0  0  0  0  0  0  0
  -27.7259  -10.3837   16.9514 N   0  0  0  0  0  0  0  0  0  0  0  0
  -24.2875   -7.8185   18.3634 N   0  0  0  0  0  0  0  0  0  0  0  0
  -27.3357  -16.2985   18.5854 N   0  0  0  0  0  0  0  0  0  0  0  0
  -27.3699  -32.2689   22.6433 N   0  0  0  0  0  0  0  0  0  0  0  0
  -21.2796  -30.1704   23.8843 N   0  0  0  0  0  0  0  0  0  0  0  0
  -18.6804  -29.0249   21.6483 N   0  3  0  0  0  0  0  0  0  0  0  0
  -25.5245  -22.6932   18.8449 O   0  0  0  0  0  0  0  0  0  0  0  0
  -25.8146   -8.1231   16.6799 O   0  0  0  0  0  0  0  0  0  0  0  0
  -26.9333  -30.0698   23.2726 O   0  0  0  0  0  0  0  0  0  0  0  0
  -23.3581  -32.1208   23.5938 O   0  0  0  0  0  0  0  0  0  0  0  0
  -20.9767  -28.0651   22.9606 O   0  0  0  0  0  0  0  0  0  0  0  0
  -29.4869  -16.8722   19.2374 O   0  0  0  0  0  0  0  0  0  0  0  0
  -21.4471   -8.4431   23.1149 O   0  0  0  0  0  0  0  0  0  0  0  0
  -26.1795  -25.1555   19.6717 O   0  0  0  0  0  0  0  0  0  1  0  0
  -21.0152   -3.0242   24.0385 F   0  0  0  0  0  0  0  0  0  0  0  0
  -23.5950  -18.9035   17.0723 F   0  0  0  0  0  0  0  0  0  0  0  0
  -21.6642   -7.4187   25.6735 F   0  0  0  0  0  0  0  0  0  0  0  0
  1  2  1  0  0  0  0
  1  5  2  0  0  0  0
  2  6  2  0  0  0  0
  3  8  2  0  0  0  0
  3 18  1  0  0  0  0
  4  9  1  0  0  0  0
  4 18  2  0  0  0  0
  5 20  1  0  0  0  0
  6 22  1  0  0  0  0
  7 10  2  0  0  0  0
  7 21  1  0  0  0  0
  8 26  1  0  0  0  0
  9 26  2  0  0  0  0
 10 27  1  0  0  0  0
 11 12  2  0  0  0  0
 11 28  1  0  0  0  0
 12 29  1  0  0  0  0
 13 23  1  0  0  0  0
 13 27  2  0  0  0  0
 14 24  2  0  0  0  0
 14 25  1  0  0  0  0
 15 24  1  0  0  0  0
 15 30  2  0  0  0  0
 16 25  2  0  0  0  0
 16 30  1  0  0  0  0
 17 29  2  0  0  0  0
 17 31  1  0  0  0  0
 18 32  1  0  0  0  0
 19 32  1  0  0  0  0
 19 33  2  0  0  0  0
 19 39  1  0  0  0  0
 20 22  2  0  0  0  0
 20 44  1  0  0  0  0
 21 23  2  0  0  0  0
 21 45  1  0  0  0  0
 22 54  1  0  0  0  0
 23 46  1  0  0  0  0
 24 67  1  0  0  0  0
 25 72  1  0  0  0  0
 26 82  1  0  0  0  0
 27 83  1  0  0  0  0
 28 31  2  0  0  0  0
 28 82  1  0  0  0  0
 29 84  1  0  0  0  0
 30 85  1  0  0  0  0
 31 86  1  0  0  0  0
 32 65  2  0  0  0  0
 33 66  1  0  0  0  0
 33 70  1  0  0  0  0
 34 35  1  0  0  0  0
 34 36  1  0  0  0  0
 34 38  2  0  0  0  0
 35 37  2  0  0  0  0
 35 47  1  0  0  0  0
 36 67  1  0  0  0  0
 36 76  2  0  0  0  0
 38 83  1  0  0  0  0
 39 71  1  0  0  0  0
 39 77  2  0  0  0  0
 40 55  1  0  0  0  0
 40 73  1  0  0  0  0
 40 78  2  0  0  0  0
 41 62  1  0  0  0  0
 41 68  1  0  0  0  0
 41 79  2  0  0  0  0
 42 63  1  0  0  0  0
 42 74  1  0  0  0  0
 42 80  2  0  0  0  0
 43 69  1  0  0  0  0
 43 72  1  0  0  0  0
 43 81  2  0  0  0  0
 44 48  1  0  0  0  0
 45 55  1  0  0  0  0
 46 68  1  0  0  0  0
 47 67  1  0  0  0  0
 48 50  1  0  0  0  0
 49 51  1  0  0  0  0
 49 52  1  0  0  0  0
 50 54  1  0  0  0  0
 51 56  1  0  0  0  0
 52 69  1  0  0  0  0
 53 56  1  0  0  0  0
 53 69  1  0  0  0  0
 54 73  1  0  0  0  0
 55 68  1  0  0  0  0
 56 66  1  0  0  0  0
 57 63  1  0  0  0  0
 58 64  1  0  0  0  0
 59 64  1  0  0  0  0
 60 64  1  0  0  0  0
 61 75  1  0  0  0  0
 62 64  1  0  0  0  0
 62 74  1  0  0  0  0
 63 75  1  0  0  0  0
 65 66  1  0  0  0  0
M  CHG  1  75   1
M  ISO  4  38 101  43 100  72 100  83 101
M  END
> <Batch ID>
0081

> <Smiles>
C=C1CN(c2cc(F)cc([100NH:0][100C:0](=O)N3CCCC(n4nc(-c5ccc(Oc6ccc(F)cc6F)cc5)c(C(N)=O)c4N)C3)c2)C(=O)C1=[101CH:1][101O:1]c1ccc2c(c1)CN(C(=O)C(NC(=O)C(C)NC)C(C)(C)C)C(C(=O)NC1CCCc3ccccc31)C2

> <Shape>
0.274

> <Color>
0.105

> <Negative vol penalty>
0.000

$$$$

  -OEChem-04052300043D

 82 90  0     1  0  0  0  0  0999 V2000
  -24.1317  -11.9884   20.6127 C   0  0  0  0  0  0  0  0  0  0  0  0
  -23.7353  -13.2687   20.9859 C   0  0  0  0  0  0  0  0  0  0  0  0
  -18.2467  -27.7011   22.9149 C   0  0  0  0  0  0  0  0  0  0  0  0
  -30.8639  -29.2031   23.7648 C   0  0  0  0  0  0  0  0  0  0  0  0
  -29.7864  -27.3657   24.9049 C   0  0  0  0  0  0  0  0  0  0  0  0
  -18.3104  -26.5614   22.1134 C   0  0  0  0  0  0  0  0  0  0  0  0
  -25.4845  -11.7041   20.4311 C   0  0  0  0  0  0  0  0  0  0  0  0
  -24.6915  -14.2650   21.1787 C   0  0  0  0  0  0  0  0  0  0  0  0
  -23.3729  -18.6628   19.0419 C   0  0  0  0  0  0  0  0  0  0  0  0
  -19.3724  -28.5108   23.0669 C   0  0  0  0  0  0  0  0  0  0  0  0
  -32.0367  -28.9586   24.4790 C   0  0  0  0  0  0  0  0  0  0  0  0
  -30.9593  -27.1211   25.6191 C   0  0  0  0  0  0  0  0  0  0  0  0
  -22.4348  -19.4426   19.7168 C   0  0  0  0  0  0  0  0  0  0  0  0
  -33.7813  -25.7847   27.4814 C   0  0  0  0  0  0  0  0  0  0  0  0
  -34.2050  -24.4611   27.6003 C   0  0  0  0  0  0  0  0  0  0  0  0
  -20.6256  -27.0406   21.6160 C   0  0  0  0  0  0  0  0  0  0  0  0
  -24.2140  -20.8217   20.5840 C   0  0  0  0  0  0  0  0  0  0  0  0
  -34.3639  -24.2960   25.1952 C   0  0  0  0  0  0  0  0  0  0  0  0
  -29.7386  -28.4068   23.9778 C   0  0  0  0  0  0  0  0  0  0  0  0
  -19.4999  -26.2311   21.4640 C   0  0  0  0  0  0  0  0  0  0  0  0
  -28.1553  -28.1070   22.0002 C   0  0  0  0  0  0  0  0  0  0  0  0
  -26.4571  -12.7000   20.6123 C   0  0  0  0  0  0  0  0  0  0  0  0
  -24.7417  -18.9504   19.1419 C   0  0  0  0  0  0  0  0  0  0  0  0
  -26.0587  -13.9934   21.0005 C   0  0  0  0  0  0  0  0  0  0  0  0
  -25.1672  -20.0455   19.9073 C   0  0  0  0  0  0  0  0  0  0  0  0
  -20.5618  -28.1805   22.4174 C   0  0  0  0  0  0  0  0  0  0  0  0
  -32.0845  -27.9175   25.4062 C   0  0  0  0  0  0  0  0  0  0  0  0
  -22.8554  -20.5205   20.4903 C   0  0  0  0  0  0  0  0  0  0  0  0
  -33.6489  -26.3640   26.2194 C   0  0  0  0  0  0  0  0  0  0  0  0
  -34.4964  -23.7168   26.4572 C   0  0  0  0  0  0  0  0  0  0  0  0
  -33.9402  -25.6196   25.0763 C   0  0  0  0  0  0  0  0  0  0  0  0
  -28.5266  -28.6593   23.2407 C   0  0  0  0  0  0  0  0  0  0  0  0
  -26.9270  -28.6598   21.7320 C   0  0  0  0  0  0  0  0  0  0  0  0
  -20.9869  -23.4302   21.3691 C   0  0  0  0  0  0  0  0  0  0  0  0
  -19.5665  -25.0141   20.6087 C   0  0  0  0  0  0  0  0  0  0  0  0
  -28.8580  -27.1772   21.1649 C   0  0  0  0  0  0  0  0  0  0  0  0
  -27.2863  -17.3948   20.2415 C   0  0  0  0  0  0  0  0  0  0  0  0
  -28.8851  -19.9374   19.0162 C   0  0  0  0  0  0  0  0  0  0  0  0
  -28.8212  -23.2125   18.0589 C   0  0  0  0  0  0  0  0  0  0  0  0
  -21.8110  -30.1688   23.3298 C   0  0  0  0  0  0  0  0  0  0  0  0
  -27.9110  -12.3328   20.4504 C   0  0  0  0  0  0  0  0  0  0  0  0
  -25.7390  -18.1158   18.3861 C   0  0  0  0  0  0  0  0  0  0  0  0
  -26.6237  -20.4086   20.0308 C   0  0  0  0  0  0  0  0  0  0  0  0
  -28.8324  -13.5417   20.3097 C   0  0  0  0  0  0  0  0  0  0  0  0
  -24.4581  -32.4552   23.9950 C   0  0  0  0  0  0  0  0  0  0  0  0
  -28.4989  -14.5927   21.3638 C   0  0  0  0  0  0  0  0  0  0  0  0
  -25.7220  -31.6261   23.7560 C   0  0  0  0  0  0  0  0  0  0  0  0
  -23.3467  -31.6239   24.6334 C   0  0  0  0  0  0  0  0  0  0  0  0
  -24.2819  -29.5504   23.6874 C   0  0  0  0  0  0  0  0  0  0  0  0
  -27.0643  -15.1074   21.1950 C   0  0  1  0  0  0  0  0  0  0  0  0
  -27.1453  -18.1879   18.9731 C   0  0  1  0  0  0  0  0  0  0  0  0
  -25.4074  -30.3283   22.9862 C   0  0  2  0  0  0  0  0  0  0  0  0
  -30.2912  -25.0230   17.1321 C   0  0  0  0  0  0  0  0  0  0  0  0
  -30.1846  -20.2812   21.7554 C   0  0  0  0  0  0  0  0  0  0  0  0
  -30.8691  -22.5880   21.0639 C   0  0  0  0  0  0  0  0  0  0  0  0
  -31.7324  -20.6067   19.8182 C   0  0  0  0  0  0  0  0  0  0  0  0
  -27.1447  -23.4938   15.6363 C   0  0  0  0  0  0  0  0  0  0  0  0
  -22.2701  -22.6562   21.3577 C   0  0  0  0  0  0  0  0  0  1  0  0
  -29.3128  -21.2861   19.5427 C   0  0  1  0  0  0  0  0  0  0  0  0
  -29.3157  -23.9042   16.8013 C   0  0  2  0  0  0  0  0  0  0  0  0
  -30.4974  -21.1828   20.5445 C   0  0  0  0  0  0  0  0  0  0  0  0
  -27.6085  -29.4987   23.7269 N   0  0  0  0  0  0  0  0  0  0  0  0
  -20.7691  -24.3592   20.4956 N   0  0  0  0  0  0  0  0  0  0  0  0
  -26.6481  -29.4781   22.7869 N   0  0  0  0  0  0  0  0  0  0  0  0
  -27.5609  -19.5585   19.2781 N   0  0  0  0  0  0  0  0  0  0  0  0
  -23.1006  -30.4128   23.8476 N   0  0  0  0  0  0  0  0  0  0  0  0
  -26.0690  -28.5211   20.6990 N   0  0  0  0  0  0  0  0  0  0  0  0
  -30.1085  -26.7092   21.5910 N   0  0  0  0  0  0  0  0  0  0  0  0
  -21.7051  -29.0032   22.5717 N   0  0  0  0  0  0  0  0  0  0  0  0
  -26.9917  -16.0521   20.1011 N   0  0  0  0  0  0  0  0  0  0  0  0
  -29.5903  -22.1118   18.3724 N   0  0  0  0  0  0  0  0  0  0  0  0
  -18.5539  -24.5807   19.9444 N   0  3  0  0  0  0  0  0  0  0  0  0
  -28.1705  -24.4870   16.0464 N   0  3  0  0  0  0  0  0  0  0  0  0
  -28.3981  -26.7861   20.0654 O   0  0  0  0  0  0  0  0  0  0  0  0
  -27.6377  -17.9590   21.2709 O   0  0  0  0  0  0  0  0  0  0  0  0
  -29.6940  -19.2487   18.3894 O   0  0  0  0  0  0  0  0  0  0  0  0
  -27.8521  -23.6111   18.7012 O   0  0  0  0  0  0  0  0  0  0  0  0
  -20.8764  -30.9512   23.5205 O   0  0  0  0  0  0  0  0  0  0  0  0
  -33.2289  -27.6784   26.1031 O   0  0  0  0  0  0  0  0  0  0  0  0
  -21.9419  -21.2829   21.1507 O   0  0  0  0  0  0  0  0  0  1  0  0
  -34.9047  -22.4462   26.5716 F   0  0  0  0  0  0  0  0  0  0  0  0
  -33.8160  -26.1710   23.8613 F   0  0  0  0  0  0  0  0  0  0  0  0
  1  2  1  0  0  0  0
  1  7  2  0  0  0  0
  2  8  2  0  0  0  0
  3  6  2  0  0  0  0
  3 10  1  0  0  0  0
  4 11  2  0  0  0  0
  4 19  1  0  0  0  0
  5 12  1  0  0  0  0
  5 19  2  0  0  0  0
  6 20  1  0  0  0  0
  7 22  1  0  0  0  0
  8 24  1  0  0  0  0
  9 13  2  0  0  0  0
  9 23  1  0  0  0  0
 10 26  2  0  0  0  0
 11 27  1  0  0  0  0
 12 27  2  0  0  0  0
 13 28  1  0  0  0  0
 14 15  2  0  0  0  0
 14 29  1  0  0  0  0
 15 30  1  0  0  0  0
 16 20  2  0  0  0  0
 16 26  1  0  0  0  0
 17 25  1  0  0  0  0
 17 28  2  0  0  0  0
 18 30  2  0  0  0  0
 18 31  1  0  0  0  0
 19 32  1  0  0  0  0
 20 35  1  0  0  0  0
 21 32  1  0  0  0  0
 21 33  2  0  0  0  0
 21 36  1  0  0  0  0
 22 24  2  0  0  0  0
 22 41  1  0  0  0  0
 23 25  2  0  0  0  0
 23 42  1  0  0  0  0
 24 50  1  0  0  0  0
 25 43  1  0  0  0  0
 26 69  1  0  0  0  0
 27 79  1  0  0  0  0
 28 80  1  0  0  0  0
 29 31  2  0  0  0  0
 29 79  1  0  0  0  0
 30 81  1  0  0  0  0
 31 82  1  0  0  0  0
 32 62  2  0  0  0  0
 33 64  1  0  0  0  0
 33 67  1  0  0  0  0
 34 58  1  0  0  0  0
 34 63  2  0  0  0  0
 35 63  1  0  0  0  0
 35 72  2  0  0  0  0
 36 68  1  0  0  0  0
 36 74  2  0  0  0  0
 37 51  1  0  0  0  0
 37 70  1  0  0  0  0
 37 75  2  0  0  0  0
 38 59  1  0  0  0  0
 38 65  1  0  0  0  0
 38 76  2  0  0  0  0
 39 60  1  0  0  0  0
 39 71  1  0  0  0  0
 39 77  2  0  0  0  0
 40 66  1  0  0  0  0
 40 69  1  0  0  0  0
 40 78  2  0  0  0  0
 41 44  1  0  0  0  0
 42 51  1  0  0  0  0
 43 65  1  0  0  0  0
 44 46  1  0  0  0  0
 45 47  1  0  0  0  0
 45 48  1  0  0  0  0
 46 50  1  0  0  0  0
 47 52  1  0  0  0  0
 48 66  1  0  0  0  0
 49 52  1  0  0  0  0
 49 66  1  0  0  0  0
 50 70  1  0  0  0  0
 51 65  1  0  0  0  0
 52 64  1  0  0  0  0
 53 60  1  0  0  0  0
 54 61  1  0  0  0  0
 55 61  1  0  0  0  0
 56 61  1  0  0  0  0
 57 73  1  0  0  0  0
 58 80  1  0  0  0  0
 59 61  1  0  0  0  0
 59 71  1  0  0  0  0
 60 73  1  0  0  0  0
 62 64  1  0  0  0  0
M  CHG  2  72   1  73   1
M  ISO  4  40 100  58 101  69 100  80 101
M  END
> <Batch ID>
0081

> <Smiles>
CNC(C)C(=O)NC(C(=O)N1Cc2cc([101O:1][101CH:1]=CNC(=N)c3cccc([100NH:0][100C:0](=O)N4CCCC(n5nc(-c6ccc(Oc7ccc(F)cc7F)cc6)c(C(N)=O)c5N)C4)c3)ccc2CC1C(=O)NC1CCCc2ccccc21)C(C)(C)C

> <Shape>
0.231

> <Color>
0.070

> <Negative vol penalty>
0.000

$$$$

  -OEChem-04052300043D

 86 95  0     1  0  0  0  0  0999 V2000
  -31.1526  -35.1851   21.1772 C   0  0  0  0  0  0  0  0  0  0  0  0
  -30.9327  -33.8986   20.6955 C   0  0  0  0  0  0  0  0  0  0  0  0
  -24.7545   -8.7803   21.5827 C   0  0  0  0  0  0  0  0  0  0  0  0
  -23.1972  -10.2481   20.4613 C   0  0  0  0  0  0  0  0  0  0  0  0
  -30.5607  -35.5914   22.3724 C   0  0  0  0  0  0  0  0  0  0  0  0
  -30.1215  -33.0173   21.4094 C   0  0  0  0  0  0  0  0  0  0  0  0
  -26.3809  -28.7581   19.0914 C   0  0  0  0  0  0  0  0  0  0  0  0
  -23.7346   -8.3443   22.4284 C   0  0  0  0  0  0  0  0  0  0  0  0
  -22.1773   -9.8120   21.3070 C   0  0  0  0  0  0  0  0  0  0  0  0
  -26.5263  -27.3844   18.9026 C   0  0  0  0  0  0  0  0  0  0  0  0
  -21.1238   -6.2006   22.2830 C   0  0  0  0  0  0  0  0  0  0  0  0
  -21.0164   -4.8296   22.5157 C   0  0  0  0  0  0  0  0  0  0  0  0
  -25.3914  -26.9830   20.9931 C   0  0  0  0  0  0  0  0  0  0  0  0
  -25.3423  -19.9902   18.2319 C   0  0  0  0  0  0  0  0  0  0  0  0
  -27.2321  -18.6962   19.0009 C   0  0  0  0  0  0  0  0  0  0  0  0
  -25.4268  -17.6116   17.8170 C   0  0  0  0  0  0  0  0  0  0  0  0
  -21.3510   -5.2045   24.8789 C   0  0  0  0  0  0  0  0  0  0  0  0
  -24.4858   -9.7322   20.5991 C   0  0  0  0  0  0  0  0  0  0  0  0
  -25.9104   -9.6303   18.4854 C   0  0  0  0  0  0  0  0  0  0  0  0
  -29.7341  -34.7177   23.0963 C   0  0  0  0  0  0  0  0  0  0  0  0
  -25.7482  -29.2557   20.2397 C   0  0  0  0  0  0  0  0  0  0  0  0
  -29.5191  -33.4118   22.6161 C   0  0  0  0  0  0  0  0  0  0  0  0
  -25.2369  -28.3634   21.1929 C   0  0  0  0  0  0  0  0  0  0  0  0
  -26.5740  -19.9204   18.8829 C   0  0  0  0  0  0  0  0  0  0  0  0
  -24.7687  -18.8358   17.6990 C   0  0  0  0  0  0  0  0  0  0  0  0
  -26.6585  -17.5418   18.4680 C   0  0  0  0  0  0  0  0  0  0  0  0
  -22.4460   -8.8601   22.2906 C   0  0  0  0  0  0  0  0  0  0  0  0
  -26.0341  -26.4967   19.8549 C   0  0  0  0  0  0  0  0  0  0  0  0
  -21.3449   -7.0737   23.3482 C   0  0  0  0  0  0  0  0  0  0  0  0
  -21.1300   -4.3315   23.8137 C   0  0  0  0  0  0  0  0  0  0  0  0
  -21.4585   -6.5756   24.6461 C   0  0  0  0  0  0  0  0  0  0  0  0
  -25.5391  -10.1834   19.7256 C   0  0  0  0  0  0  0  0  0  0  0  0
  -26.9548  -10.4138   18.0589 C   0  0  0  0  0  0  0  0  0  0  0  0
  -27.5418  -23.2491   20.0451 C   0  0  0  0  0  0  0  0  0  0  0  0
  -28.6723  -22.4845   20.5087 C   0  0  0  0  0  0  0  0  0  0  0  0
  -26.5747  -22.3535   19.3512 C   0  0  0  0  0  0  0  0  0  0  0  0
  -29.7496  -22.9153   21.1736 C   0  0  0  0  0  0  0  0  0  0  0  0
  -27.2999  -24.5545   20.1653 C   0  0  0  0  0  0  0  0  0  1  0  0
  -25.3605   -8.5086   17.7819 C   0  0  0  0  0  0  0  0  0  0  0  0
  -26.6402  -31.0962   22.6729 C   0  0  0  0  0  0  0  0  0  0  0  0
  -23.4993  -30.9059   23.4611 C   0  0  0  0  0  0  0  0  0  0  0  0
  -20.5564  -29.1917   23.2433 C   0  0  0  0  0  0  0  0  0  0  0  0
  -28.5566  -16.0562   19.2004 C   0  0  0  0  0  0  0  0  0  0  0  0
  -29.1542  -35.1863   24.4074 C   0  0  0  0  0  0  0  0  0  0  0  0
  -25.5756  -30.7395   20.4156 C   0  0  0  0  0  0  0  0  0  0  0  0
  -24.5317  -28.8461   22.4331 C   0  0  0  0  0  0  0  0  0  0  0  0
  -28.4342  -21.0604   20.1063 C   0  0  0  0  0  0  0  0  0  0  0  0
  -28.0062  -34.3156   24.9115 C   0  0  0  0  0  0  0  0  0  0  0  0
  -30.5218  -13.1354   19.7333 C   0  0  0  0  0  0  0  0  0  0  0  0
  -28.3709  -32.8382   24.8066 C   0  0  0  0  0  0  0  0  0  0  0  0
  -29.5018  -11.9961   19.6729 C   0  0  0  0  0  0  0  0  0  0  0  0
  -29.9425  -14.3803   20.4028 C   0  0  0  0  0  0  0  0  0  0  0  0
  -27.6542  -13.7174   19.7759 C   0  0  0  0  0  0  0  0  0  0  0  0
  -28.6255  -32.4349   23.3491 C   0  0  1  0  0  0  0  0  0  0  0  0
  -25.3707  -31.1488   21.8709 C   0  0  1  0  0  0  0  0  0  0  0  0
  -28.1709  -12.4635   19.0516 C   0  0  2  0  0  0  0  0  0  0  0  0
  -18.1725  -29.2635   24.0238 C   0  0  0  0  0  0  0  0  0  0  0  0
  -24.3792  -29.9653   26.2271 C   0  0  0  0  0  0  0  0  0  0  0  0
  -22.0411  -29.1612   26.6209 C   0  0  0  0  0  0  0  0  0  0  0  0
  -22.4754  -31.5869   26.2334 C   0  0  0  0  0  0  0  0  0  0  0  0
  -19.5319  -29.3500   20.4712 C   0  0  0  0  0  0  0  0  0  0  0  0
  -22.6622  -29.9699   24.2989 C   0  0  1  0  0  0  0  0  0  0  0  0
  -19.1455  -29.6496   22.9206 C   0  0  2  0  0  0  0  0  0  0  0  0
  -22.9044  -30.1615   25.8228 C   0  0  0  0  0  0  0  0  0  0  0  0
  -26.2869  -11.2368   20.0649 N   0  0  0  0  0  0  0  0  0  0  0  0
  -27.1386  -11.3519   19.0317 N   0  0  0  0  0  0  0  0  0  0  0  0
  -27.1473  -21.0716   19.4135 N   0  0  0  0  0  0  0  0  0  0  0  0
  -24.3933  -30.3060   22.5628 N   0  0  0  0  0  0  0  0  0  0  0  0
  -28.6852  -14.7669   19.7590 N   0  0  0  0  0  0  0  0  0  0  0  0
  -23.5233  -18.9057   17.0407 N   0  0  0  0  0  0  0  0  0  0  0  0
  -27.7247  -10.3849   16.9504 N   0  0  0  0  0  0  0  0  0  0  0  0
  -24.2898   -7.8152   18.3627 N   0  0  0  0  0  0  0  0  0  0  0  0
  -27.3281  -16.2987   18.5867 N   0  0  0  0  0  0  0  0  0  0  0  0
  -27.3724  -32.2678   22.6447 N   0  0  0  0  0  0  0  0  0  0  0  0
  -21.2791  -30.1763   23.8832 N   0  0  0  0  0  0  0  0  0  0  0  0
  -18.6796  -29.0335   21.6461 N   0  3  0  0  0  0  0  0  0  0  0  0
  -25.5178  -22.6938   18.8466 O   0  0  0  0  0  0  0  0  0  0  0  0
  -25.8159   -8.1222   16.6788 O   0  0  0  0  0  0  0  0  0  0  0  0
  -26.9330  -30.0693   23.2741 O   0  0  0  0  0  0  0  0  0  0  0  0
  -23.3600  -32.1244   23.5934 O   0  0  0  0  0  0  0  0  0  0  0  0
  -20.9743  -28.0713   22.9596 O   0  0  0  0  0  0  0  0  0  0  0  0
  -29.4789  -16.8747   19.2380 O   0  0  0  0  0  0  0  0  0  0  0  0
  -21.4505   -8.4347   23.1155 O   0  0  0  0  0  0  0  0  0  0  0  0
  -26.1753  -25.1554   19.6734 O   0  0  0  0  0  0  0  0  0  1  0  0
  -21.0253   -3.0150   24.0373 F   0  0  0  0  0  0  0  0  0  0  0  0
  -21.6697   -7.4096   25.6736 F   0  0  0  0  0  0  0  0  0  0  0  0
  1  2  1  0  0  0  0
  1  5  2  0  0  0  0
  2  6  2  0  0  0  0
  3  8  2  0  0  0  0
  3 18  1  0  0  0  0
  4  9  1  0  0  0  0
  4 18  2  0  0  0  0
  5 20  1  0  0  0  0
  6 22  1  0  0  0  0
  7 10  2  0  0  0  0
  7 21  1  0  0  0  0
  8 27  1  0  0  0  0
  9 27  2  0  0  0  0
 10 28  1  0  0  0  0
 11 12  2  0  0  0  0
 11 29  1  0  0  0  0
 12 30  1  0  0  0  0
 13 23  1  0  0  0  0
 13 28  2  0  0  0  0
 14 24  1  0  0  0  0
 14 25  2  0  0  0  0
 15 24  2  0  0  0  0
 15 26  1  0  0  0  0
 16 25  1  0  0  0  0
 16 26  2  0  0  0  0
 17 30  2  0  0  0  0
 17 31  1  0  0  0  0
 18 32  1  0  0  0  0
 19 32  1  0  0  0  0
 19 33  2  0  0  0  0
 19 39  1  0  0  0  0
 20 22  2  0  0  0  0
 20 44  1  0  0  0  0
 21 23  2  0  0  0  0
 21 45  1  0  0  0  0
 22 54  1  0  0  0  0
 23 46  1  0  0  0  0
 24 67  1  0  0  0  0
 25 70  1  0  0  0  0
 26 73  1  0  0  0  0
 27 83  1  0  0  0  0
 28 84  1  0  0  0  0
 29 31  2  0  0  0  0
 29 83  1  0  0  0  0
 30 85  1  0  0  0  0
 31 86  1  0  0  0  0
 32 65  2  0  0  0  0
 33 66  1  0  0  0  0
 33 71  1  0  0  0  0
 34 35  1  0  0  0  0
 34 36  1  0  0  0  0
 34 38  2  0  0  0  0
 35 37  2  0  0  0  0
 35 47  1  0  0  0  0
 36 67  1  0  0  0  0
 36 77  2  0  0  0  0
 38 84  1  0  0  0  0
 39 72  1  0  0  0  0
 39 78  2  0  0  0  0
 40 55  1  0  0  0  0
 40 74  1  0  0  0  0
 40 79  2  0  0  0  0
 41 62  1  0  0  0  0
 41 68  1  0  0  0  0
 41 80  2  0  0  0  0
 42 63  1  0  0  0  0
 42 75  1  0  0  0  0
 42 81  2  0  0  0  0
 43 69  1  0  0  0  0
 43 73  1  0  0  0  0
 43 82  2  0  0  0  0
 44 48  1  0  0  0  0
 45 55  1  0  0  0  0
 46 68  1  0  0  0  0
 47 67  1  0  0  0  0
 48 50  1  0  0  0  0
 49 51  1  0  0  0  0
 49 52  1  0  0  0  0
 50 54  1  0  0  0  0
 51 56  1  0  0  0  0
 52 69  1  0  0  0  0
 53 56  1  0  0  0  0
 53 69  1  0  0  0  0
 54 74  1  0  0  0  0
 55 68  1  0  0  0  0
 56 66  1  0  0  0  0
 57 63  1  0  0  0  0
 58 64  1  0  0  0  0
 59 64  1  0  0  0  0
 60 64  1  0  0  0  0
 61 76  1  0  0  0  0
 62 64  1  0  0  0  0
 62 75  1  0  0  0  0
 63 76  1  0  0  0  0
 65 66  1  0  0  0  0
M  CHG  1  76   1
M  ISO  4  38 101  43 100  73 100  84 101
M  END
> <Batch ID>
0081

> <Smiles>
C=C1CN(c2cc(N)cc([100NH:0][100C:0](=O)N3CCCC(n4nc(-c5ccc(Oc6ccc(F)cc6F)cc5)c(C(N)=O)c4N)C3)c2)C(=O)C1=[101CH:1][101O:1]c1ccc2c(c1)CN(C(=O)C(NC(=O)C(C)NC)C(C)(C)C)C(C(=O)NC1CCCc3ccccc31)C2

> <Shape>
0.274

> <Color>
0.101

> <Negative vol penalty>
0.000

$$$$

  -OEChem-04052300043D

 88 97  0     1  0  0  0  0  0999 V2000
  -28.7337  -37.6841   25.4905 C   0  0  0  0  0  0  0  0  0  0  0  0
  -29.2372  -36.4810   25.0064 C   0  0  0  0  0  0  0  0  0  0  0  0
  -24.1994   -9.6349   22.0279 C   0  0  0  0  0  0  0  0  0  0  0  0
  -24.8145  -11.1490   23.8073 C   0  0  0  0  0  0  0  0  0  0  0  0
  -27.4721  -37.7225   26.0828 C   0  0  0  0  0  0  0  0  0  0  0  0
  -28.4798  -35.3153   25.1153 C   0  0  0  0  0  0  0  0  0  0  0  0
  -28.2800  -30.6690   21.1305 C   0  0  0  0  0  0  0  0  0  0  0  0
  -30.5126  -20.3675   19.3596 C   0  0  0  0  0  0  0  0  0  0  0  0
  -30.2936  -19.0022   19.1766 C   0  0  0  0  0  0  0  0  0  0  0  0
  -23.8742   -8.6594   22.9704 C   0  0  0  0  0  0  0  0  0  0  0  0
  -24.4892  -10.1736   24.7498 C   0  0  0  0  0  0  0  0  0  0  0  0
  -28.9182  -29.4298   21.1018 C   0  0  0  0  0  0  0  0  0  0  0  0
  -21.3031   -7.9689   25.0550 C   0  0  0  0  0  0  0  0  0  0  0  0
  -20.1090   -7.2699   24.8788 C   0  0  0  0  0  0  0  0  0  0  0  0
  -27.9285  -19.3324   19.5436 C   0  0  0  0  0  0  0  0  0  0  0  0
  -26.9755  -28.4126   22.1069 C   0  0  0  0  0  0  0  0  0  0  0  0
  -21.3424   -5.1968   24.7438 C   0  0  0  0  0  0  0  0  0  0  0  0
  -24.6696  -10.8797   22.4464 C   0  0  0  0  0  0  0  0  0  0  0  0
  -28.1476  -20.6978   19.7266 C   0  0  0  0  0  0  0  0  0  0  0  0
  -24.1519  -12.8681   20.9345 C   0  0  0  0  0  0  0  0  0  0  0  0
  -26.6948  -36.5585   26.1904 C   0  0  0  0  0  0  0  0  0  0  0  0
  -26.9867  -30.7914   21.6585 C   0  0  0  0  0  0  0  0  0  0  0  0
  -27.2072  -35.3379   25.7108 C   0  0  0  0  0  0  0  0  0  0  0  0
  -26.3220  -29.6540   22.1388 C   0  0  0  0  0  0  0  0  0  0  0  0
  -29.4396  -21.2153   19.6347 C   0  0  0  0  0  0  0  0  0  0  0  0
  -29.0016  -18.4846   19.2686 C   0  0  0  0  0  0  0  0  0  0  0  0
  -24.0191   -8.9287   24.3313 C   0  0  0  0  0  0  0  0  0  0  0  0
  -28.2671  -28.3019   21.5927 C   0  0  0  0  0  0  0  0  0  0  0  0
  -22.5170   -7.2819   25.0755 C   0  0  0  0  0  0  0  0  0  0  0  0
  -20.1286   -5.8838   24.7232 C   0  0  0  0  0  0  0  0  0  0  0  0
  -22.5366   -5.8958   24.9199 C   0  0  0  0  0  0  0  0  0  0  0  0
  -25.0063  -11.8876   21.4733 C   0  0  0  0  0  0  0  0  0  0  0  0
  -24.9448  -13.5726   20.0620 C   0  0  0  0  0  0  0  0  0  0  0  0
  -29.6166  -24.8973   18.9896 C   0  0  0  0  0  0  0  0  0  0  0  0
  -29.8931  -25.4072   20.1956 C   0  0  0  0  0  0  0  0  0  0  0  0
  -30.3105  -24.4680   21.2684 C   0  0  0  0  0  0  0  0  0  0  0  0
  -22.7653  -13.1196   21.1991 C   0  0  0  0  0  0  0  0  0  0  0  0
  -27.0056  -21.5570   20.0133 C   0  0  0  0  0  0  0  0  0  0  0  0
  -25.6987  -32.3780   24.0932 C   0  0  0  0  0  0  0  0  0  0  0  0
  -22.9216  -31.2541   22.8496 C   0  0  0  0  0  0  0  0  0  0  0  0
  -21.3393  -28.8949   20.9582 C   0  0  0  0  0  0  0  0  0  0  0  0
  -29.7336  -16.1195   18.8032 C   0  0  0  0  0  0  0  0  0  0  0  0
  -25.3566  -36.6404   26.8811 C   0  0  0  0  0  0  0  0  0  0  0  0
  -26.3016  -32.1305   21.6578 C   0  0  0  0  0  0  0  0  0  0  0  0
  -24.9253  -29.7285   22.6974 C   0  0  0  0  0  0  0  0  0  0  0  0
  -29.6283  -23.4449   18.6301 C   0  0  0  0  0  0  0  0  0  0  0  0
  -30.5228  -23.0107   20.9333 C   0  0  0  0  0  0  0  0  0  0  0  0
  -24.4614  -35.4317   26.6202 C   0  0  0  0  0  0  0  0  0  0  0  0
  -29.5932  -12.5958   18.3125 C   0  0  0  0  0  0  0  0  0  0  0  0
  -25.2492  -34.1369   26.7925 C   0  0  0  0  0  0  0  0  0  0  0  0
  -28.3170  -12.1781   19.0467 C   0  0  0  0  0  0  0  0  0  0  0  0
  -30.3268  -13.7184   19.0441 C   0  0  0  0  0  0  0  0  0  0  0  0
  -28.2301  -14.4776   20.0914 C   0  0  0  0  0  0  0  0  0  0  0  0
  -26.4053  -34.0568   25.7883 C   0  0  1  0  0  0  0  0  0  0  0  0
  -25.1825  -32.2297   22.6899 C   0  0  1  0  0  0  0  0  0  0  0  0
  -27.4226  -13.3939   19.3585 C   0  0  2  0  0  0  0  0  0  0  0  0
  -19.0604  -28.2179   20.1546 C   0  0  0  0  0  0  0  0  0  0  0  0
  -22.2813  -30.1357   25.6153 C   0  0  0  0  0  0  0  0  0  0  0  0
  -20.5273  -28.7000   24.5521 C   0  0  0  0  0  0  0  0  0  0  0  0
  -20.3396  -31.1848   24.4392 C   0  0  0  0  0  0  0  0  0  0  0  0
  -22.1121  -29.2320   18.1213 C   0  0  0  0  0  0  0  0  0  0  0  0
  -29.8278  -26.8660   20.5165 C   0  0  0  0  0  0  0  0  0  1  0  0
  -22.0897  -30.0094   23.0436 C   0  0  1  0  0  0  0  0  0  0  0  0
  -20.3159  -29.0176   19.8436 C   0  0  2  0  0  0  0  0  0  0  0  0
  -21.3365  -30.0061   24.4039 C   0  0  0  0  0  0  0  0  0  0  0  0
  -26.2470  -11.9595   20.9839 N   0  0  0  0  0  0  0  0  0  0  0  0
  -26.1779  -12.9936   20.1284 N   0  0  0  0  0  0  0  0  0  0  0  0
  -29.6817  -22.5877   19.8163 N   0  0  2  0  0  0  0  0  0  0  0  0
  -24.3000  -31.0613   22.6808 N   0  0  0  0  0  0  0  0  0  0  0  0
  -29.4182  -14.8378   19.3017 N   0  0  0  0  0  0  0  0  0  0  0  0
  -24.7007  -14.6247   19.2521 N   0  0  0  0  0  0  0  0  0  0  0  0
  -22.1024  -12.3011   22.1237 N   0  0  0  0  0  0  0  0  0  0  0  0
  -28.7797  -17.0976   19.0826 N   0  0  0  0  0  0  0  0  0  0  0  0
  -25.9125  -33.6877   24.4786 N   0  0  0  0  0  0  0  0  0  0  0  0
  -21.2178  -29.9152   21.8777 N   0  0  0  0  0  0  0  0  0  0  0  0
  -20.8854  -28.5182   18.5602 N   0  3  0  0  0  0  0  0  0  0  0  0
  -30.5420  -24.8883   22.4027 O   0  0  0  0  0  0  0  0  0  0  0  0
  -22.1288  -14.0324   20.6201 O   0  0  0  0  0  0  0  0  0  0  0  0
  -27.0639  -22.7688   20.1940 O   0  0  0  0  0  0  0  0  0  0  0  0
  -25.8875  -31.3783   24.7763 O   0  0  0  0  0  0  0  0  0  0  0  0
  -22.3678  -32.3563   22.8407 O   0  0  0  0  0  0  0  0  0  0  0  0
  -22.1615  -27.9829   21.0100 O   0  0  0  0  0  0  0  0  0  0  0  0
  -30.7601  -16.3277   18.1513 O   0  0  0  0  0  0  0  0  0  0  0  0
  -23.7016   -7.9772   25.2513 O   0  0  0  0  0  0  0  0  0  0  0  0
  -28.8881  -27.0913   21.5664 O   0  0  0  0  0  0  0  0  0  1  0  0
  -18.9817   -5.2126   24.5556 F   0  0  0  0  0  0  0  0  0  0  0  0
  -23.6995   -5.2302   24.9399 F   0  0  0  0  0  0  0  0  0  0  0  0
  -25.7834  -20.9980   20.0886 F   0  0  0  0  0  0  0  0  0  0  0  0
  1  2  1  0  0  0  0
  1  5  2  0  0  0  0
  2  6  2  0  0  0  0
  3 10  2  0  0  0  0
  3 18  1  0  0  0  0
  4 11  1  0  0  0  0
  4 18  2  0  0  0  0
  5 21  1  0  0  0  0
  6 23  1  0  0  0  0
  7 12  2  0  0  0  0
  7 22  1  0  0  0  0
  8  9  2  0  0  0  0
  8 25  1  0  0  0  0
  9 26  1  0  0  0  0
 10 27  1  0  0  0  0
 11 27  2  0  0  0  0
 12 28  1  0  0  0  0
 13 14  2  0  0  0  0
 13 29  1  0  0  0  0
 14 30  1  0  0  0  0
 15 19  1  0  0  0  0
 15 26  2  0  0  0  0
 16 24  1  0  0  0  0
 16 28  2  0  0  0  0
 17 30  2  0  0  0  0
 17 31  1  0  0  0  0
 18 32  1  0  0  0  0
 19 25  2  0  0  0  0
 19 38  1  0  0  0  0
 20 32  1  0  0  0  0
 20 33  2  0  0  0  0
 20 37  1  0  0  0  0
 21 23  2  0  0  0  0
 21 43  1  0  0  0  0
 22 24  2  0  0  0  0
 22 44  1  0  0  0  0
 23 54  1  0  0  0  0
 24 45  1  0  0  0  0
 25 68  1  0  0  0  0
 26 73  1  0  0  0  0
 27 84  1  0  0  0  0
 28 85  1  0  0  0  0
 29 31  2  0  0  0  0
 29 84  1  0  0  0  0
 30 86  1  0  0  0  0
 31 87  1  0  0  0  0
 32 66  2  0  0  0  0
 33 67  1  0  0  0  0
 33 71  1  0  0  0  0
 34 35  2  0  0  0  0
 34 46  1  0  0  0  0
 35 36  1  0  0  0  0
 35 62  1  0  0  0  0
 36 47  1  0  0  0  0
 36 77  2  0  0  0  0
 37 72  1  0  0  0  0
 37 78  2  0  0  0  0
 38 79  2  0  0  0  0
 38 88  1  0  0  0  0
 39 55  1  0  0  0  0
 39 74  1  0  0  0  0
 39 80  2  0  0  0  0
 40 63  1  0  0  0  0
 40 69  1  0  0  0  0
 40 81  2  0  0  0  0
 41 64  1  0  0  0  0
 41 75  1  0  0  0  0
 41 82  2  0  0  0  0
 42 70  1  0  0  0  0
 42 73  1  0  0  0  0
 42 83  2  0  0  0  0
 43 48  1  0  0  0  0
 44 55  1  0  0  0  0
 45 69  1  0  0  0  0
 46 68  1  0  0  0  0
 47 68  1  0  0  0  0
 48 50  1  0  0  0  0
 49 51  1  0  0  0  0
 49 52  1  0  0  0  0
 50 54  1  0  0  0  0
 51 56  1  0  0  0  0
 52 70  1  0  0  0  0
 53 56  1  0  0  0  0
 53 70  1  0  0  0  0
 54 74  1  0  0  0  0
 55 69  1  0  0  0  0
 56 67  1  0  0  0  0
 57 64  1  0  0  0  0
 58 65  1  0  0  0  0
 59 65  1  0  0  0  0
 60 65  1  0  0  0  0
 61 76  1  0  0  0  0
 62 85  1  0  0  0  0
 63 65  1  0  0  0  0
 63 75  1  0  0  0  0
 64 76  1  0  0  0  0
 66 67  1  0  0  0  0
M  CHG  1  76   1
M  ISO  4  42 100  62 101  73 100  85 101
M  END
> <Batch ID>
0081

> <Smiles>
CNC(C)C(=O)NC(C(=O)N1Cc2cc([101O:1][101CH2:1]C3=CCN(c4ccc([100NH:0][100C:0](=O)N5CCCC(n6nc(-c7ccc(Oc8ccc(F)cc8F)cc7)c(C(N)=O)c6N)C5)cc4C(=O)F)CC3=O)ccc2CC1C(=O)NC1CCCc2ccccc21)C(C)(C)C

> <Shape>
0.341

> <Color>
0.108

> <Negative vol penalty>
0.000

$$$$

  -OEChem-04052300043D

 86 94  0     1  0  0  0  0  0999 V2000
  -33.6757  -27.0738   15.8020 C   0  0  0  0  0  0  0  0  0  0  0  0
  -32.4408  -26.4442   15.6834 C   0  0  0  0  0  0  0  0  0  0  0  0
  -22.6184  -25.7965   24.2603 C   0  0  0  0  0  0  0  0  0  0  0  0
  -31.8485  -18.4179   19.8309 C   0  0  0  0  0  0  0  0  0  0  0  0
  -29.5836  -17.6185   20.0926 C   0  0  0  0  0  0  0  0  0  0  0  0
  -21.6701  -25.2900   23.3717 C   0  0  0  0  0  0  0  0  0  0  0  0
  -34.0710  -27.6051   17.0289 C   0  0  0  0  0  0  0  0  0  0  0  0
  -31.6009  -26.3446   16.7920 C   0  0  0  0  0  0  0  0  0  0  0  0
  -25.4806  -26.5633   16.8057 C   0  0  0  0  0  0  0  0  0  0  0  0
  -23.9283  -25.3178   24.2301 C   0  0  0  0  0  0  0  0  0  0  0  0
  -32.3113  -17.1022   19.8174 C   0  0  0  0  0  0  0  0  0  0  0  0
  -30.0464  -16.3028   20.0790 C   0  0  0  0  0  0  0  0  0  0  0  0
  -24.5065  -25.5666   16.8422 C   0  0  0  0  0  0  0  0  0  0  0  0
  -32.9552  -14.6654   22.0694 C   0  0  0  0  0  0  0  0  0  0  0  0
  -34.0804  -14.3670   22.8378 C   0  0  0  0  0  0  0  0  0  0  0  0
  -23.3413  -23.8259   22.4227 C   0  0  0  0  0  0  0  0  0  0  0  0
  -24.3398  -25.8256   19.2348 C   0  0  0  0  0  0  0  0  0  0  0  0
  -35.2540  -13.6644   20.8462 C   0  0  0  0  0  0  0  0  0  0  0  0
  -30.4846  -18.6761   19.9686 C   0  0  0  0  0  0  0  0  0  0  0  0
  -22.0315  -24.3047   22.4529 C   0  0  0  0  0  0  0  0  0  0  0  0
  -29.6053  -20.8072   18.8765 C   0  0  0  0  0  0  0  0  0  0  0  0
  -33.2315  -27.5205   18.1508 C   0  0  0  0  0  0  0  0  0  0  0  0
  -25.9002  -27.1922   17.9868 C   0  0  0  0  0  0  0  0  0  0  0  0
  -31.9860  -26.8741   18.0355 C   0  0  0  0  0  0  0  0  0  0  0  0
  -25.3176  -26.8318   19.2102 C   0  0  0  0  0  0  0  0  0  0  0  0
  -24.2897  -24.3325   23.3113 C   0  0  0  0  0  0  0  0  0  0  0  0
  -31.4103  -16.0446   19.9414 C   0  0  0  0  0  0  0  0  0  0  0  0
  -23.9380  -25.1956   18.0573 C   0  0  0  0  0  0  0  0  0  0  0  0
  -32.9793  -14.4632   20.6894 C   0  0  0  0  0  0  0  0  0  0  0  0
  -35.2299  -13.8666   22.2262 C   0  0  0  0  0  0  0  0  0  0  0  0
  -34.1287  -13.9627   20.0779 C   0  0  0  0  0  0  0  0  0  0  0  0
  -30.0059  -20.0351   19.9833 C   0  0  0  0  0  0  0  0  0  0  0  0
  -29.2399  -22.0165   19.4156 C   0  0  0  0  0  0  0  0  0  0  0  0
  -21.0203  -23.7662   21.5070 C   0  0  0  0  0  0  0  0  0  0  0  0
  -29.5668  -20.4623   17.4854 C   0  0  0  0  0  0  0  0  0  0  0  0
  -20.7352  -23.5727   18.0110 C   0  0  0  0  0  0  0  0  0  0  0  0
  -21.7048  -24.7185   17.9553 C   0  0  0  0  0  0  0  0  0  1  0  0
  -28.6594  -27.4202   19.5484 C   0  0  0  0  0  0  0  0  0  0  0  0
  -26.9833  -29.4721   21.4199 C   0  0  0  0  0  0  0  0  0  0  0  0
  -23.6792  -29.6213   22.8613 C   0  0  0  0  0  0  0  0  0  0  0  0
  -26.6831  -24.2421   24.0921 C   0  0  0  0  0  0  0  0  0  0  0  0
  -33.7222  -28.0679   19.4677 C   0  0  0  0  0  0  0  0  0  0  0  0
  -26.9328  -28.2842   17.9271 C   0  0  0  0  0  0  0  0  0  0  0  0
  -25.7186  -27.4904   20.5040 C   0  0  0  0  0  0  0  0  0  0  0  0
  -32.6144  -28.2514   20.5018 C   0  0  0  0  0  0  0  0  0  0  0  0
  -30.2136  -24.3799   23.6523 C   0  0  0  0  0  0  0  0  0  0  0  0
  -31.7252  -27.0133   20.5571 C   0  0  0  0  0  0  0  0  0  0  0  0
  -30.4825  -23.3495   22.5532 C   0  0  0  0  0  0  0  0  0  0  0  0
  -29.0970  -23.9285   24.5920 C   0  0  0  0  0  0  0  0  0  0  0  0
  -28.1126  -22.5164   22.8295 C   0  0  0  0  0  0  0  0  0  0  0  0
  -31.0365  -26.7680   19.2091 C   0  0  1  0  0  0  0  0  0  0  0  0
  -27.6542  -28.4976   19.2543 C   0  0  1  0  0  0  0  0  0  0  0  0
  -29.1852  -22.9563   21.8197 C   0  0  2  0  0  0  0  0  0  0  0  0
  -20.9977  -21.2860   18.9939 C   0  0  0  0  0  0  0  0  0  0  0  0
  -22.2757  -31.5933   23.5238 C   0  0  0  0  0  0  0  0  0  0  0  0
  -28.1989  -29.0410   24.1851 C   0  0  0  0  0  0  0  0  0  0  0  0
  -25.9738  -29.6185   25.1768 C   0  0  0  0  0  0  0  0  0  0  0  0
  -27.2103  -31.3093   23.8223 C   0  0  0  0  0  0  0  0  0  0  0  0
  -21.4189  -28.7270   21.1730 C   0  0  0  0  0  0  0  0  0  0  0  0
  -20.6554  -22.7397   19.2779 C   0  0  1  0  0  0  0  0  0  0  0  0
  -26.1356  -29.3371   22.6617 C   0  0  1  0  0  0  0  0  0  0  0  0
  -22.5502  -30.5499   22.4520 C   0  0  2  0  0  0  0  0  0  0  0  0
  -26.8820  -29.8052   23.9427 C   0  0  0  0  0  0  0  0  0  0  0  0
  -29.9048  -20.6982   21.1383 N   0  0  0  0  0  0  0  0  0  0  0  0
  -29.4365  -21.8998   20.7602 N   0  0  0  0  0  0  0  0  0  0  0  0
  -26.7368  -28.5482   20.3945 N   0  0  0  0  0  0  0  0  0  0  0  0
  -27.8986  -23.5763   23.8273 N   0  0  0  0  0  0  0  0  0  0  0  0
  -28.7729  -23.1576   18.8660 N   0  0  0  0  0  0  0  0  0  0  0  0
  -29.9770  -19.1775   17.1040 N   0  0  0  0  0  0  0  0  0  0  0  0
  -25.6203  -23.8465   23.2806 N   0  0  0  0  0  0  0  0  0  0  0  0
  -21.5113  -23.2718   20.3054 N   0  0  0  0  0  0  0  0  0  0  0  0
  -29.9194  -27.6726   19.0403 N   0  0  0  0  0  0  0  0  0  0  0  0
  -24.8986  -30.0621   22.3923 N   0  0  0  0  0  0  0  0  0  0  0  0
  -21.2993  -29.7738   22.2204 N   0  3  0  0  0  0  0  0  0  0  0  0
  -19.8318  -23.8017   21.8149 O   0  0  0  0  0  0  0  0  0  0  0  0
  -29.1957  -21.2749   16.6048 O   0  0  0  0  0  0  0  0  0  0  0  0
  -20.0027  -23.4343   17.0398 O   0  0  0  0  0  0  0  0  0  0  0  0
  -21.3225  -25.8672   17.8476 O   0  0  0  0  0  0  0  0  0  0  0  0
  -28.3176  -26.4337   20.1900 O   0  0  0  0  0  0  0  0  0  0  0  0
  -27.8281  -30.3689   21.3590 O   0  0  0  0  0  0  0  0  0  0  0  0
  -23.4980  -28.6083   23.5334 O   0  0  0  0  0  0  0  0  0  0  0  0
  -26.5983  -25.1193   24.9555 O   0  0  0  0  0  0  0  0  0  0  0  0
  -31.8616  -14.7606   19.9279 O   0  0  0  0  0  0  0  0  0  0  0  0
  -22.9875  -24.2225   18.0958 O   0  0  0  0  0  0  0  0  0  1  0  0
  -36.3109  -13.5816   22.9640 F   0  0  0  0  0  0  0  0  0  0  0  0
  -34.1583  -13.7675   18.7524 F   0  0  0  0  0  0  0  0  0  0  0  0
  1  2  1  0  0  0  0
  1  7  2  0  0  0  0
  2  8  2  0  0  0  0
  3  6  2  0  0  0  0
  3 10  1  0  0  0  0
  4 11  2  0  0  0  0
  4 19  1  0  0  0  0
  5 12  1  0  0  0  0
  5 19  2  0  0  0  0
  6 20  1  0  0  0  0
  7 22  1  0  0  0  0
  8 24  1  0  0  0  0
  9 13  2  0  0  0  0
  9 23  1  0  0  0  0
 10 26  2  0  0  0  0
 11 27  1  0  0  0  0
 12 27  2  0  0  0  0
 13 28  1  0  0  0  0
 14 15  2  0  0  0  0
 14 29  1  0  0  0  0
 15 30  1  0  0  0  0
 16 20  2  0  0  0  0
 16 26  1  0  0  0  0
 17 25  1  0  0  0  0
 17 28  2  0  0  0  0
 18 30  2  0  0  0  0
 18 31  1  0  0  0  0
 19 32  1  0  0  0  0
 20 34  1  0  0  0  0
 21 32  1  0  0  0  0
 21 33  2  0  0  0  0
 21 35  1  0  0  0  0
 22 24  2  0  0  0  0
 22 42  1  0  0  0  0
 23 25  2  0  0  0  0
 23 43  1  0  0  0  0
 24 51  1  0  0  0  0
 25 44  1  0  0  0  0
 26 70  1  0  0  0  0
 27 83  1  0  0  0  0
 28 84  1  0  0  0  0
 29 31  2  0  0  0  0
 29 83  1  0  0  0  0
 30 85  1  0  0  0  0
 31 86  1  0  0  0  0
 32 64  2  0  0  0  0
 33 65  1  0  0  0  0
 33 68  1  0  0  0  0
 34 71  1  0  0  0  0
 34 75  2  0  0  0  0
 35 69  1  0  0  0  0
 35 76  2  0  0  0  0
 36 37  1  0  0  0  0
 36 60  1  0  0  0  0
 36 77  2  0  0  0  0
 37 78  2  0  0  0  0
 37 84  1  0  0  0  0
 38 52  1  0  0  0  0
 38 72  1  0  0  0  0
 38 79  2  0  0  0  0
 39 61  1  0  0  0  0
 39 66  1  0  0  0  0
 39 80  2  0  0  0  0
 40 62  1  0  0  0  0
 40 73  1  0  0  0  0
 40 81  2  0  0  0  0
 41 67  1  0  0  0  0
 41 70  1  0  0  0  0
 41 82  2  0  0  0  0
 42 45  1  0  0  0  0
 43 52  1  0  0  0  0
 44 66  1  0  0  0  0
 45 47  1  0  0  0  0
 46 48  1  0  0  0  0
 46 49  1  0  0  0  0
 47 51  1  0  0  0  0
 48 53  1  0  0  0  0
 49 67  1  0  0  0  0
 50 53  1  0  0  0  0
 50 67  1  0  0  0  0
 51 72  1  0  0  0  0
 52 66  1  0  0  0  0
 53 65  1  0  0  0  0
 54 60  1  0  0  0  0
 55 62  1  0  0  0  0
 56 63  1  0  0  0  0
 57 63  1  0  0  0  0
 58 63  1  0  0  0  0
 59 74  1  0  0  0  0
 60 71  1  0  0  0  0
 61 63  1  0  0  0  0
 61 73  1  0  0  0  0
 62 74  1  0  0  0  0
 64 65  1  0  0  0  0
M  CHG  1  74   1
M  ISO  4  37 101  41 100  70 100  84 101
M  END
> <Batch ID>
0081

> <Smiles>
CNC(C)C(=O)NC(C(=O)N1Cc2cc([101O:1][101C:1](=O)C(=O)C(C)NC(=O)c3cccc([100NH:0][100C:0](=O)N4CCCC(n5nc(-c6ccc(Oc7ccc(F)cc7F)cc6)c(C(N)=O)c5N)C4)c3)ccc2CC1C(=O)NC1CCCc2ccccc21)C(C)(C)C

> <Shape>
0.170

> <Color>
0.096

> <Negative vol penalty>
0.000

$$$$

  -OEChem-04052300043D

 84 92  0     1  0  0  0  0  0999 V2000
  -21.6792  -11.0617   19.9793 C   0  0  0  0  0  0  0  0  0  0  0  0
  -21.4870  -12.2890   20.6056 C   0  0  0  0  0  0  0  0  0  0  0  0
  -18.1427  -27.4870   24.8459 C   0  0  0  0  0  0  0  0  0  0  0  0
  -27.3939  -25.3434   24.3319 C   0  0  0  0  0  0  0  0  0  0  0  0
  -29.3140  -26.4378   23.3560 C   0  0  0  0  0  0  0  0  0  0  0  0
  -18.5255  -28.4681   23.9313 C   0  0  0  0  0  0  0  0  0  0  0  0
  -22.9710  -10.5764   19.7808 C   0  0  0  0  0  0  0  0  0  0  0  0
  -22.5867  -13.0312   21.0348 C   0  0  0  0  0  0  0  0  0  0  0  0
  -23.1171  -19.1322   21.0872 C   0  0  0  0  0  0  0  0  0  0  0  0
  -18.9340  -26.3520   25.0232 C   0  0  0  0  0  0  0  0  0  0  0  0
  -28.0297  -24.1091   24.1987 C   0  0  0  0  0  0  0  0  0  0  0  0
  -29.9498  -25.2035   23.2228 C   0  0  0  0  0  0  0  0  0  0  0  0
  -22.9547  -20.0791   22.0974 C   0  0  0  0  0  0  0  0  0  0  0  0
  -29.2931  -20.7095   24.4472 C   0  0  0  0  0  0  0  0  0  0  0  0
  -29.2433  -19.8339   25.5319 C   0  0  0  0  0  0  0  0  0  0  0  0
  -20.4907  -27.1792   23.3711 C   0  0  0  0  0  0  0  0  0  0  0  0
  -25.3334  -20.0508   22.4979 C   0  0  0  0  0  0  0  0  0  0  0  0
  -30.3682  -21.4722   26.9059 C   0  0  0  0  0  0  0  0  0  0  0  0
  -28.0360  -26.5078   23.9105 C   0  0  0  0  0  0  0  0  0  0  0  0
  -19.6995  -28.3142   23.1939 C   0  0  0  0  0  0  0  0  0  0  0  0
  -27.4415  -28.6572   25.1491 C   0  0  0  0  0  0  0  0  0  0  0  0
  -24.0875  -11.3174   20.1992 C   0  0  0  0  0  0  0  0  0  0  0  0
  -24.3896  -18.6284   20.7816 C   0  0  0  0  0  0  0  0  0  0  0  0
  -23.8947  -12.5546   20.8430 C   0  0  0  0  0  0  0  0  0  0  0  0
  -25.5095  -19.0993   21.4816 C   0  0  0  0  0  0  0  0  0  0  0  0
  -20.1080  -26.1981   24.2858 C   0  0  0  0  0  0  0  0  0  0  0  0
  -29.3076  -24.0391   23.6442 C   0  0  0  0  0  0  0  0  0  0  0  0
  -24.0626  -20.5365   22.8049 C   0  0  0  0  0  0  0  0  0  0  0  0
  -29.8805  -21.9664   24.5918 C   0  0  0  0  0  0  0  0  0  0  0  0
  -29.7808  -20.2153   26.7612 C   0  0  0  0  0  0  0  0  0  0  0  0
  -30.4180  -22.3477   25.8212 C   0  0  0  0  0  0  0  0  0  0  0  0
  -27.3795  -27.7831   24.0474 C   0  0  0  0  0  0  0  0  0  0  0  0
  -26.6522  -29.7216   24.7877 C   0  0  0  0  0  0  0  0  0  0  0  0
  -22.6419  -23.4297   24.2883 C   0  0  0  0  0  0  0  0  0  0  0  0
  -23.3678  -22.6715   23.4603 C   0  0  0  0  0  0  0  0  0  1  0  0
  -20.1059  -29.3599   22.2202 C   0  0  0  0  0  0  0  0  0  0  0  0
  -28.1493  -28.5195   26.3883 C   0  0  0  0  0  0  0  0  0  0  0  0
  -22.1007  -24.7384   23.8186 C   0  0  0  0  0  0  0  0  0  0  0  0
  -25.7435  -15.7538   20.8647 C   0  0  0  0  0  0  0  0  0  0  0  0
  -28.2213  -17.3096   19.4638 C   0  0  0  0  0  0  0  0  0  0  0  0
  -29.8514  -20.2564   18.9113 C   0  0  0  0  0  0  0  0  0  0  0  0
  -22.0615  -30.3397   21.0628 C   0  0  0  0  0  0  0  0  0  0  0  0
  -25.4629  -10.7298   20.0054 C   0  0  0  0  0  0  0  0  0  0  0  0
  -24.5512  -17.6270   19.6709 C   0  0  0  0  0  0  0  0  0  0  0  0
  -26.8996  -18.6053   21.1784 C   0  0  0  0  0  0  0  0  0  0  0  0
  -26.5879  -11.7509   20.1534 C   0  0  0  0  0  0  0  0  0  0  0  0
  -25.1199  -32.1068   20.9224 C   0  0  0  0  0  0  0  0  0  0  0  0
  -26.3718  -12.6068   21.3974 C   0  0  0  0  0  0  0  0  0  0  0  0
  -26.0514  -31.2886   21.8209 C   0  0  0  0  0  0  0  0  0  0  0  0
  -24.1797  -31.2124   20.1156 C   0  0  0  0  0  0  0  0  0  0  0  0
  -24.3458  -29.4246   21.7991 C   0  0  0  0  0  0  0  0  0  0  0  0
  -25.0632  -13.4004   21.3005 C   0  0  1  0  0  0  0  0  0  0  0  0
  -25.8287  -16.8020   19.7915 C   0  0  1  0  0  0  0  0  0  0  0  0
  -25.2643  -30.2824   22.6843 C   0  0  1  0  0  0  0  0  0  0  0  0
  -31.8681  -21.2060   17.7586 C   0  0  0  0  0  0  0  0  0  0  0  0
  -30.0052  -16.2018   21.6775 C   0  0  0  0  0  0  0  0  0  0  0  0
  -31.7296  -17.9026   21.0434 C   0  0  0  0  0  0  0  0  0  0  0  0
  -31.0291  -16.1652   19.3962 C   0  0  0  0  0  0  0  0  0  0  0  0
  -28.1898  -21.9866   17.1779 C   0  0  0  0  0  0  0  0  0  0  0  0
  -29.4397  -18.0478   19.9633 C   0  0  1  0  0  0  0  0  0  0  0  0
  -30.3856  -20.8889   17.6388 C   0  0  2  0  0  0  0  0  0  0  0  0
  -30.5246  -17.0874   20.5274 C   0  0  0  0  0  0  0  0  0  0  0  0
  -26.6114  -28.2515   23.0601 N   0  0  0  0  0  0  0  0  0  0  0  0
  -26.1834  -29.4315   23.5402 N   0  0  0  0  0  0  0  0  0  0  0  0
  -27.0052  -17.6218   20.0879 N   0  0  0  0  0  0  0  0  0  0  0  0
  -23.4655  -30.2963   21.0066 N   0  0  0  0  0  0  0  0  0  0  0  0
  -26.3203  -30.8681   25.4186 N   0  0  0  0  0  0  0  0  0  0  0  0
  -28.9133  -27.3630   26.5964 N   0  0  0  0  0  0  0  0  0  0  0  0
  -20.9115  -25.0455   24.4662 N   0  0  0  0  0  0  0  0  0  0  0  0
  -21.4761  -29.4549   21.9753 N   0  0  0  0  0  0  0  0  0  0  0  0
  -25.2301  -14.5460   20.4320 N   0  0  0  0  0  0  0  0  0  0  0  0
  -29.8959  -18.8795   18.8548 N   0  0  0  0  0  0  0  0  0  0  0  0
  -29.6565  -22.1548   17.3440 N   0  3  0  0  0  0  0  0  0  0  0  0
  -19.2395  -30.0352   21.6714 O   0  0  0  0  0  0  0  0  0  0  0  0
  -28.0924  -29.3884   27.2912 O   0  0  0  0  0  0  0  0  0  0  0  0
  -22.6860  -25.3995   22.9689 O   0  0  0  0  0  0  0  0  0  0  0  0
  -26.1173  -16.0205   22.0008 O   0  0  0  0  0  0  0  0  0  0  0  0
  -28.3428  -16.4914   18.5487 O   0  0  0  0  0  0  0  0  0  0  0  0
  -29.4397  -20.9178   19.8618 O   0  0  0  0  0  0  0  0  0  0  0  0
  -21.3888  -31.1247   20.3872 O   0  0  0  0  0  0  0  0  0  0  0  0
  -29.9285  -22.8348   23.5142 O   0  0  0  0  0  0  0  0  0  0  0  0
  -23.9069  -21.4603   23.7919 O   0  0  0  0  0  0  0  0  0  1  0  0
  -29.7315  -19.3750   27.8032 F   0  0  0  0  0  0  0  0  0  0  0  0
  -30.9825  -23.5544   25.9665 F   0  0  0  0  0  0  0  0  0  0  0  0
  1  2  1  0  0  0  0
  1  7  2  0  0  0  0
  2  8  2  0  0  0  0
  3  6  1  0  0  0  0
  3 10  2  0  0  0  0
  4 11  2  0  0  0  0
  4 19  1  0  0  0  0
  5 12  1  0  0  0  0
  5 19  2  0  0  0  0
  6 20  2  0  0  0  0
  7 22  1  0  0  0  0
  8 24  1  0  0  0  0
  9 13  2  0  0  0  0
  9 23  1  0  0  0  0
 10 26  1  0  0  0  0
 11 27  1  0  0  0  0
 12 27  2  0  0  0  0
 13 28  1  0  0  0  0
 14 15  2  0  0  0  0
 14 29  1  0  0  0  0
 15 30  1  0  0  0  0
 16 20  1  0  0  0  0
 16 26  2  0  0  0  0
 17 25  1  0  0  0  0
 17 28  2  0  0  0  0
 18 30  2  0  0  0  0
 18 31  1  0  0  0  0
 19 32  1  0  0  0  0
 20 36  1  0  0  0  0
 21 32  1  0  0  0  0
 21 33  2  0  0  0  0
 21 37  1  0  0  0  0
 22 24  2  0  0  0  0
 22 43  1  0  0  0  0
 23 25  2  0  0  0  0
 23 44  1  0  0  0  0
 24 52  1  0  0  0  0
 25 45  1  0  0  0  0
 26 69  1  0  0  0  0
 27 81  1  0  0  0  0
 28 82  1  0  0  0  0
 29 31  2  0  0  0  0
 29 81  1  0  0  0  0
 30 83  1  0  0  0  0
 31 84  1  0  0  0  0
 32 63  2  0  0  0  0
 33 64  1  0  0  0  0
 33 67  1  0  0  0  0
 34 35  2  0  0  0  0
 34 38  1  0  0  0  0
 35 82  1  0  0  0  0
 36 70  1  0  0  0  0
 36 74  2  0  0  0  0
 37 68  1  0  0  0  0
 37 75  2  0  0  0  0
 38 69  1  0  0  0  0
 38 76  2  0  0  0  0
 39 53  1  0  0  0  0
 39 71  1  0  0  0  0
 39 77  2  0  0  0  0
 40 60  1  0  0  0  0
 40 65  1  0  0  0  0
 40 78  2  0  0  0  0
 41 61  1  0  0  0  0
 41 72  1  0  0  0  0
 41 79  2  0  0  0  0
 42 66  1  0  0  0  0
 42 70  1  0  0  0  0
 42 80  2  0  0  0  0
 43 46  1  0  0  0  0
 44 53  1  0  0  0  0
 45 65  1  0  0  0  0
 46 48  1  0  0  0  0
 47 49  1  0  0  0  0
 47 50  1  0  0  0  0
 48 52  1  0  0  0  0
 49 54  1  0  0  0  0
 50 66  1  0  0  0  0
 51 54  1  0  0  0  0
 51 66  1  0  0  0  0
 52 71  1  0  0  0  0
 53 65  1  0  0  0  0
 54 64  1  0  0  0  0
 55 61  1  0  0  0  0
 56 62  1  0  0  0  0
 57 62  1  0  0  0  0
 58 62  1  0  0  0  0
 59 73  1  0  0  0  0
 60 62  1  0  0  0  0
 60 72  1  0  0  0  0
 61 73  1  0  0  0  0
 63 64  1  0  0  0  0
M  CHG  1  73   1
M  ISO  4  35 101  42 100  70 100  82 101
M  END
> <Batch ID>
0081

> <Smiles>
CNC(C)C(=O)NC(C(=O)N1Cc2cc([101O:1][101CH:1]=CC(=O)Nc3cccc(C(=O)[100NH:0][100C:0](=O)N4CCCC(n5nc(-c6ccc(Oc7ccc(F)cc7F)cc6)c(C(N)=O)c5N)C4)c3)ccc2CC1C(=O)NC1CCCc2ccccc21)C(C)(C)C

> <Shape>
0.205

> <Color>
0.069

> <Negative vol penalty>
0.000

$$$$

  -OEChem-04052300043D

 88 97  0     1  0  0  0  0  0999 V2000
  -29.7944  -35.5467   26.2829 C   0  0  0  0  0  0  0  0  0  0  0  0
  -29.4634  -34.3071   25.7451 C   0  0  0  0  0  0  0  0  0  0  0  0
  -25.6733   -7.9086   22.2968 C   0  0  0  0  0  0  0  0  0  0  0  0
  -25.4429   -7.7081   19.9002 C   0  0  0  0  0  0  0  0  0  0  0  0
  -27.3736  -20.5949   23.1486 C   0  0  0  0  0  0  0  0  0  0  0  0
  -28.7892  -36.4629   26.5901 C   0  0  0  0  0  0  0  0  0  0  0  0
  -28.1269  -33.9824   25.5153 C   0  0  0  0  0  0  0  0  0  0  0  0
  -27.4036  -31.8159   20.9956 C   0  0  0  0  0  0  0  0  0  0  0  0
  -27.1820  -21.9757   23.1005 C   0  0  0  0  0  0  0  0  0  0  0  0
  -24.9159   -6.7497   22.4666 C   0  0  0  0  0  0  0  0  0  0  0  0
  -24.6856   -6.5492   20.0700 C   0  0  0  0  0  0  0  0  0  0  0  0
  -27.7443  -30.4696   20.8730 C   0  0  0  0  0  0  0  0  0  0  0  0
  -21.6512   -5.8767   22.4033 C   0  0  0  0  0  0  0  0  0  0  0  0
  -20.6535   -5.8925   23.3779 C   0  0  0  0  0  0  0  0  0  0  0  0
  -25.4220  -29.8656   21.1214 C   0  0  0  0  0  0  0  0  0  0  0  0
  -28.2632  -22.0505   20.9411 C   0  0  0  0  0  0  0  0  0  0  0  0
  -21.7391   -4.0604   24.5189 C   0  0  0  0  0  0  0  0  0  0  0  0
  -25.9368   -8.3879   21.0136 C   0  0  0  0  0  0  0  0  0  0  0  0
  -28.0101  -19.9419   22.0930 C   0  0  0  0  0  0  0  0  0  0  0  0
  -28.1164   -9.6747   20.6955 C   0  0  0  0  0  0  0  0  0  0  0  0
  -27.4404  -36.1530   26.3549 C   0  0  0  0  0  0  0  0  0  0  0  0
  -26.0687  -32.1972   21.1932 C   0  0  0  0  0  0  0  0  0  0  0  0
  -27.1027  -34.8947   25.8209 C   0  0  0  0  0  0  0  0  0  0  0  0
  -25.0667  -31.2176   21.2436 C   0  0  0  0  0  0  0  0  0  0  0  0
  -28.4548  -20.6697   20.9893 C   0  0  0  0  0  0  0  0  0  0  0  0
  -27.6268  -22.7035   21.9968 C   0  0  0  0  0  0  0  0  0  0  0  0
  -24.4221   -6.0700   21.3532 C   0  0  0  0  0  0  0  0  0  0  0  0
  -26.7538  -29.4940   20.9388 C   0  0  0  0  0  0  0  0  0  0  0  0
  -22.6929   -4.9528   22.4864 C   0  0  0  0  0  0  0  0  0  0  0  0
  -20.6974   -4.9843   24.4357 C   0  0  0  0  0  0  0  0  0  0  0  0
  -22.7369   -4.0446   23.5443 C   0  0  0  0  0  0  0  0  0  0  0  0
  -26.7187   -9.5853   20.8376 C   0  0  0  0  0  0  0  0  0  0  0  0
  -28.3623  -11.0191   20.5586 C   0  0  0  0  0  0  0  0  0  0  0  0
  -27.0679  -26.0292   21.8546 C   0  0  0  0  0  0  0  0  0  0  0  0
  -26.8642  -24.9410   22.8116 C   0  0  0  0  0  0  0  0  0  0  0  0
  -28.1946  -18.4985   22.1746 C   0  0  0  0  0  0  0  0  0  0  0  0
  -26.7883  -27.3451   21.8618 C   0  0  0  0  0  0  0  0  0  1  0  0
  -27.2032  -17.5888   22.2617 C   0  0  0  0  0  0  0  0  0  0  0  0
  -29.1041   -8.6355   20.6880 C   0  0  0  0  0  0  0  0  0  0  0  0
  -27.5524  -16.1554   22.3270 C   0  0  0  0  0  0  0  0  0  0  0  0
  -24.4855  -33.7097   23.4974 C   0  0  0  0  0  0  0  0  0  0  0  0
  -28.3960  -19.5926   18.9149 C   0  0  0  0  0  0  0  0  0  0  0  0
  -22.0278  -33.5355   21.3875 C   0  0  0  0  0  0  0  0  0  0  0  0
  -20.6130  -31.9595   18.7114 C   0  0  0  0  0  0  0  0  0  0  0  0
  -26.3858  -37.1572   26.7472 C   0  0  0  0  0  0  0  0  0  0  0  0
  -25.7143  -33.6553   21.2968 C   0  0  0  0  0  0  0  0  0  0  0  0
  -23.6163  -31.5759   21.4340 C   0  0  0  0  0  0  0  0  0  0  0  0
  -27.7021  -25.0388   20.9051 C   0  0  0  0  0  0  0  0  0  0  0  0
  -25.0198  -36.8807   26.1244 C   0  0  0  0  0  0  0  0  0  0  0  0
  -25.2250  -14.8924   19.7932 C   0  0  0  0  0  0  0  0  0  0  0  0
  -24.6564  -35.4062   26.2678 C   0  0  0  0  0  0  0  0  0  0  0  0
  -25.4953  -13.3920   19.8682 C   0  0  0  0  0  0  0  0  0  0  0  0
  -25.3610  -15.5667   21.1576 C   0  0  0  0  0  0  0  0  0  0  0  0
  -26.9413  -13.8071   21.8972 C   0  0  0  0  0  0  0  0  0  0  0  0
  -25.6661  -34.5153   25.5341 C   0  0  1  0  0  0  0  0  0  0  0  0
  -24.3879  -33.8987   22.0100 C   0  0  1  0  0  0  0  0  0  0  0  0
  -26.8560  -13.1162   20.5273 C   0  0  1  0  0  0  0  0  0  0  0  0
  -28.9668  -18.8971   17.7013 C   0  0  0  0  0  0  0  0  0  0  0  0
  -26.9004  -19.7804   18.9600 C   0  0  0  0  0  0  0  0  0  0  0  0
  -18.5840  -32.0206   17.2360 C   0  0  0  0  0  0  0  0  0  0  0  0
  -20.3772  -32.2489   23.6080 C   0  0  0  0  0  0  0  0  0  0  0  0
  -18.7533  -31.4844   21.8626 C   0  0  0  0  0  0  0  0  0  0  0  0
  -19.1381  -33.9225   22.2231 C   0  0  0  0  0  0  0  0  0  0  0  0
  -22.2425  -32.4751   16.2953 C   0  0  0  0  0  0  0  0  0  0  0  0
  -20.9318  -32.5370   21.1029 C   0  0  1  0  0  0  0  0  0  0  0  0
  -20.0150  -32.4996   17.4249 C   0  0  2  0  0  0  0  0  0  0  0  0
  -19.8276  -32.5410   22.1975 C   0  0  0  0  0  0  0  0  0  0  0  0
  -26.1187  -10.7779   20.7950 N   0  0  0  0  0  0  0  0  0  0  0  0
  -29.0972  -20.0391   19.9148 N   0  0  0  0  0  0  0  0  0  0  0  0
  -27.1444  -11.6294   20.6247 N   0  0  0  0  0  0  0  0  0  0  0  0
  -27.4375  -24.0652   21.9496 N   0  0  0  0  0  0  0  0  0  0  0  0
  -26.6464  -15.2406   21.7934 N   0  0  0  0  0  0  0  0  0  0  0  0
  -23.3210  -33.0146   21.5364 N   0  0  0  0  0  0  0  0  0  0  0  0
  -29.4993  -11.7268   20.3894 N   0  0  0  0  0  0  0  0  0  0  0  0
  -28.6791   -7.3087   20.8406 N   0  0  0  0  0  0  0  0  0  0  0  0
  -25.4127  -34.5315   24.1093 N   0  0  0  0  0  0  0  0  0  0  0  0
  -20.4442  -32.8375   19.7612 N   0  0  0  0  0  0  0  0  0  0  0  0
  -20.8189  -32.0527   16.2524 N   0  3  0  0  0  0  0  0  0  0  0  0
  -26.3727  -24.8490   23.9173 O   0  0  0  0  0  0  0  0  0  0  0  0
  -30.3289   -8.8777   20.5665 O   0  0  0  0  0  0  0  0  0  0  0  0
  -28.6244  -15.8549   22.8552 O   0  0  0  0  0  0  0  0  0  0  0  0
  -23.7713  -32.8808   24.0493 O   0  0  0  0  0  0  0  0  0  0  0  0
  -21.7479  -34.7342   21.4675 O   0  0  0  0  0  0  0  0  0  0  0  0
  -21.1705  -30.8663   18.7793 O   0  0  0  0  0  0  0  0  0  0  0  0
  -23.6831   -4.9389   21.5185 O   0  0  0  0  0  0  0  0  0  0  0  0
  -27.0836  -28.1791   20.8201 O   0  0  0  0  0  0  0  0  0  1  0  0
  -19.7400   -5.0006   25.3724 F   0  0  0  0  0  0  0  0  0  0  0  0
  -23.7358   -3.1555   23.6302 F   0  0  0  0  0  0  0  0  0  0  0  0
  1  2  1  0  0  0  0
  1  6  2  0  0  0  0
  2  7  2  0  0  0  0
  3 10  2  0  0  0  0
  3 18  1  0  0  0  0
  4 11  1  0  0  0  0
  4 18  2  0  0  0  0
  5  9  2  0  0  0  0
  5 19  1  0  0  0  0
  6 21  1  0  0  0  0
  7 23  1  0  0  0  0
  8 12  2  0  0  0  0
  8 22  1  0  0  0  0
  9 26  1  0  0  0  0
 10 27  1  0  0  0  0
 11 27  2  0  0  0  0
 12 28  1  0  0  0  0
 13 14  2  0  0  0  0
 13 29  1  0  0  0  0
 14 30  1  0  0  0  0
 15 24  1  0  0  0  0
 15 28  2  0  0  0  0
 16 25  1  0  0  0  0
 16 26  2  0  0  0  0
 17 30  2  0  0  0  0
 17 31  1  0  0  0  0
 18 32  1  0  0  0  0
 19 25  2  0  0  0  0
 19 36  1  0  0  0  0
 20 32  1  0  0  0  0
 20 33  2  0  0  0  0
 20 39  1  0  0  0  0
 21 23  2  0  0  0  0
 21 45  1  0  0  0  0
 22 24  2  0  0  0  0
 22 46  1  0  0  0  0
 23 55  1  0  0  0  0
 24 47  1  0  0  0  0
 25 69  1  0  0  0  0
 26 71  1  0  0  0  0
 27 85  1  0  0  0  0
 28 86  1  0  0  0  0
 29 31  2  0  0  0  0
 29 85  1  0  0  0  0
 30 87  1  0  0  0  0
 31 88  1  0  0  0  0
 32 68  2  0  0  0  0
 33 70  1  0  0  0  0
 33 74  1  0  0  0  0
 34 35  1  0  0  0  0
 34 37  2  0  0  0  0
 34 48  1  0  0  0  0
 35 71  1  0  0  0  0
 35 79  2  0  0  0  0
 36 38  2  0  0  0  0
 37 86  1  0  0  0  0
 38 40  1  0  0  0  0
 39 75  1  0  0  0  0
 39 80  2  0  0  0  0
 40 72  1  0  0  0  0
 40 81  2  0  0  0  0
 41 56  1  0  0  0  0
 41 76  1  0  0  0  0
 41 82  2  0  0  0  0
 42 58  1  0  0  0  0
 42 59  1  0  0  0  0
 42 69  2  0  0  0  0
 43 65  1  0  0  0  0
 43 73  1  0  0  0  0
 43 83  2  0  0  0  0
 44 66  1  0  0  0  0
 44 77  1  0  0  0  0
 44 84  2  0  0  0  0
 45 49  1  0  0  0  0
 46 56  1  0  0  0  0
 47 73  1  0  0  0  0
 48 71  1  0  0  0  0
 49 51  1  0  0  0  0
 50 52  1  0  0  0  0
 50 53  1  0  0  0  0
 51 55  1  0  0  0  0
 52 57  1  0  0  0  0
 53 72  1  0  0  0  0
 54 57  1  0  0  0  0
 54 72  1  0  0  0  0
 55 76  1  0  0  0  0
 56 73  1  0  0  0  0
 57 70  1  0  0  0  0
 60 66  1  0  0  0  0
 61 67  1  0  0  0  0
 62 67  1  0  0  0  0
 63 67  1  0  0  0  0
 64 78  1  0  0  0  0
 65 67  1  0  0  0  0
 65 77  1  0  0  0  0
 66 78  1  0  0  0  0
 68 70  1  0  0  0  0
M  CHG  1  78   1
M  ISO  4  37 101  38 100  40 100  86 101
M  END
> <Batch ID>
0081

> <Smiles>
CNC(C)C(=O)NC(C(=O)N1Cc2cc([101O:1][101CH:1]=C3CN(c4ccc(C=[100CH:0][100C:0](=O)N5CCCC(n6nc(-c7ccc(Oc8ccc(F)cc8F)cc7)c(C(N)=O)c6N)C5)c(N=C(C)C)c4)C3=O)ccc2CC1C(=O)NC1CCCc2ccccc21)C(C)(C)C

> <Shape>
0.195

> <Color>
0.064

> <Negative vol penalty>
0.000

$$$$

  -OEChem-04052300043D

 86 95  0     1  0  0  0  0  0999 V2000
  -43.0888  -29.8231   25.7199 C   0  0  0  0  0  0  0  0  0  0  0  0
  -42.3754  -28.6459   25.9216 C   0  0  0  0  0  0  0  0  0  0  0  0
  -23.0752   -9.8687   19.9403 C   0  0  0  0  0  0  0  0  0  0  0  0
  -23.8349   -9.8747   22.2337 C   0  0  0  0  0  0  0  0  0  0  0  0
  -42.6066  -30.7860   24.8343 C   0  0  0  0  0  0  0  0  0  0  0  0
  -41.1787  -28.4314   25.2387 C   0  0  0  0  0  0  0  0  0  0  0  0
  -39.0239  -23.0821   23.1778 C   0  0  0  0  0  0  0  0  0  0  0  0
  -32.6554  -17.4868   23.4538 C   0  0  0  0  0  0  0  0  0  0  0  0
  -32.0649  -16.6038   22.5498 C   0  0  0  0  0  0  0  0  0  0  0  0
  -22.3308   -8.7158   20.1898 C   0  0  0  0  0  0  0  0  0  0  0  0
  -23.0905   -8.7218   22.4833 C   0  0  0  0  0  0  0  0  0  0  0  0
  -38.0892  -22.1857   23.6943 C   0  0  0  0  0  0  0  0  0  0  0  0
  -19.8619   -7.9250   23.0852 C   0  0  0  0  0  0  0  0  0  0  0  0
  -19.1049   -7.8850   24.2561 C   0  0  0  0  0  0  0  0  0  0  0  0
  -36.3758  -23.1948   22.3286 C   0  0  0  0  0  0  0  0  0  0  0  0
  -30.4738  -18.3394   24.0460 C   0  0  0  0  0  0  0  0  0  0  0  0
  -20.3454   -5.9469   24.9920 C   0  0  0  0  0  0  0  0  0  0  0  0
  -23.8272  -10.4482   20.9622 C   0  0  0  0  0  0  0  0  0  0  0  0
  -24.1701  -12.9732   20.8430 C   0  0  0  0  0  0  0  0  0  0  0  0
  -41.4083  -30.5789   24.1329 C   0  0  0  0  0  0  0  0  0  0  0  0
  -38.6385  -24.0502   22.2394 C   0  0  0  0  0  0  0  0  0  0  0  0
  -40.6793  -29.3930   24.3439 C   0  0  0  0  0  0  0  0  0  0  0  0
  -37.3080  -24.1006   21.7998 C   0  0  0  0  0  0  0  0  0  0  0  0
  -31.8598  -18.3546   24.2020 C   0  0  0  0  0  0  0  0  0  0  0  0
  -30.6789  -16.5886   22.3938 C   0  0  0  0  0  0  0  0  0  0  0  0
  -22.3384   -8.1423   21.4613 C   0  0  0  0  0  0  0  0  0  0  0  0
  -36.7644  -22.2438   23.2719 C   0  0  0  0  0  0  0  0  0  0  0  0
  -20.8607   -6.9759   22.8677 C   0  0  0  0  0  0  0  0  0  0  0  0
  -19.3466   -6.8960   25.2095 C   0  0  0  0  0  0  0  0  0  0  0  0
  -29.8833  -17.4564   23.1419 C   0  0  0  0  0  0  0  0  0  0  0  0
  -21.1025   -5.9869   23.8211 C   0  0  0  0  0  0  0  0  0  0  0  0
  -24.5968  -11.6388   20.7049 C   0  0  0  0  0  0  0  0  0  0  0  0
  -25.2626  -13.7224   20.4801 C   0  0  0  0  0  0  0  0  0  0  0  0
  -33.5558  -21.3565   26.6821 C   0  0  0  0  0  0  0  0  0  0  0  0
  -32.4448  -20.7458   27.0990 C   0  0  0  0  0  0  0  0  0  0  0  0
  -34.2454  -20.9512   25.4847 C   0  0  0  0  0  0  0  0  0  0  0  0
  -31.7882  -19.6788   26.2960 C   0  0  0  0  0  0  0  0  0  0  0  0
  -35.1678  -21.7318   24.9027 C   0  0  0  0  0  0  0  0  0  1  0  0
  -22.8998  -13.4894   21.2620 C   0  0  0  0  0  0  0  0  0  0  0  0
  -38.6137  -27.2281   22.1761 C   0  0  0  0  0  0  0  0  0  0  0  0
  -37.7158  -26.7714   19.0927 C   0  0  0  0  0  0  0  0  0  0  0  0
  -36.2832  -24.7283   16.7646 C   0  0  0  0  0  0  0  0  0  0  0  0
  -30.7291  -14.7658   20.6557 C   0  0  0  0  0  0  0  0  0  0  0  0
  -40.9028  -31.6693   23.2217 C   0  0  0  0  0  0  0  0  0  0  0  0
  -39.6644  -24.9925   21.6719 C   0  0  0  0  0  0  0  0  0  0  0  0
  -36.8475  -25.1079   20.7791 C   0  0  0  0  0  0  0  0  0  0  0  0
  -33.9002  -19.5875   24.9590 C   0  0  0  0  0  0  0  0  0  0  0  0
  -39.8183  -31.2011   22.2549 C   0  0  0  0  0  0  0  0  0  0  0  0
  -29.6140  -12.3532   18.2865 C   0  0  0  0  0  0  0  0  0  0  0  0
  -38.7686  -30.3738   22.9902 C   0  0  0  0  0  0  0  0  0  0  0  0
  -28.1742  -12.0620   18.7159 C   0  0  0  0  0  0  0  0  0  0  0  0
  -30.5291  -12.5812   19.4883 C   0  0  0  0  0  0  0  0  0  0  0  0
  -28.6223  -13.3060   20.8696 C   0  0  0  0  0  0  0  0  0  0  0  0
  -39.3899  -29.1129   23.6030 C   0  0  1  0  0  0  0  0  0  0  0  0
  -39.0532  -26.2703   21.1051 C   0  0  1  0  0  0  0  0  0  0  0  0
  -27.6495  -13.1335   19.6917 C   0  0  2  0  0  0  0  0  0  0  0  0
  -35.6551  -24.6452   14.3364 C   0  0  0  0  0  0  0  0  0  0  0  0
  -35.3257  -28.5839   19.6514 C   0  0  0  0  0  0  0  0  0  0  0  0
  -34.2648  -27.7135   17.5573 C   0  0  0  0  0  0  0  0  0  0  0  0
  -36.4233  -28.9581   17.4356 C   0  0  0  0  0  0  0  0  0  0  0  0
  -38.0589  -22.4139   16.2651 C   0  0  0  0  0  0  0  0  0  0  0  0
  -36.3970  -26.6113   18.3758 C   0  0  1  0  0  0  0  0  0  0  0  0
  -36.7250  -24.3262   15.3690 C   0  0  2  0  0  0  0  0  0  0  0  0
  -35.6106  -27.9489   18.2757 C   0  0  0  0  0  0  0  0  0  0  0  0
  -25.8617  -11.5426   20.2867 N   0  0  0  0  0  0  0  0  0  0  0  0
  -26.2391  -12.8261   20.1589 N   0  0  0  0  0  0  0  0  0  0  0  0
  -32.4713  -19.2698   25.1380 N   0  0  0  0  0  0  0  0  0  0  0  0
  -37.8867  -26.0117   20.2587 N   0  0  0  0  0  0  0  0  0  0  0  0
  -29.9704  -13.6120   20.3660 N   0  0  0  0  0  0  0  0  0  0  0  0
  -25.4735  -15.0538   20.4075 N   0  0  0  0  0  0  0  0  0  0  0  0
  -21.8875  -12.5805   21.5989 N   0  0  0  0  0  0  0  0  0  0  0  0
  -30.0821  -15.6908   21.4743 N   0  0  0  0  0  0  0  0  0  0  0  0
  -39.5993  -28.1064   22.5844 N   0  0  0  0  0  0  0  0  0  0  0  0
  -36.7046  -26.0011   17.0868 N   0  0  0  0  0  0  0  0  0  0  0  0
  -37.0078  -22.8639   15.3165 N   0  3  0  0  0  0  0  0  0  0  0  0
  -30.7131  -19.2440   26.7080 O   0  0  0  0  0  0  0  0  0  0  0  0
  -22.6640  -14.7201   21.3197 O   0  0  0  0  0  0  0  0  0  0  0  0
  -37.4650  -27.1753   22.5996 O   0  0  0  0  0  0  0  0  0  0  0  0
  -38.5660  -27.5368   18.6312 O   0  0  0  0  0  0  0  0  0  0  0  0
  -35.6266  -23.9889   17.4943 O   0  0  0  0  0  0  0  0  0  0  0  0
  -31.8583  -14.9342   20.1882 O   0  0  0  0  0  0  0  0  0  0  0  0
  -21.6120   -7.0174   21.7052 O   0  0  0  0  0  0  0  0  0  0  0  0
  -35.8499  -21.3705   23.7749 O   0  0  0  0  0  0  0  0  0  1  0  0
  -18.6206   -6.8586   26.3344 F   0  0  0  0  0  0  0  0  0  0  0  0
  -28.5501  -17.4517   22.9991 F   0  0  0  0  0  0  0  0  0  0  0  0
  -22.0615   -5.0730   23.6183 F   0  0  0  0  0  0  0  0  0  0  0  0
  1  2  1  0  0  0  0
  1  5  2  0  0  0  0
  2  6  2  0  0  0  0
  3 10  2  0  0  0  0
  3 18  1  0  0  0  0
  4 11  1  0  0  0  0
  4 18  2  0  0  0  0
  5 20  1  0  0  0  0
  6 22  1  0  0  0  0
  7 12  2  0  0  0  0
  7 21  1  0  0  0  0
  8  9  2  0  0  0  0
  8 24  1  0  0  0  0
  9 25  1  0  0  0  0
 10 26  1  0  0  0  0
 11 26  2  0  0  0  0
 12 27  1  0  0  0  0
 13 14  2  0  0  0  0
 13 28  1  0  0  0  0
 14 29  1  0  0  0  0
 15 23  1  0  0  0  0
 15 27  2  0  0  0  0
 16 24  2  0  0  0  0
 16 30  1  0  0  0  0
 17 29  2  0  0  0  0
 17 31  1  0  0  0  0
 18 32  1  0  0  0  0
 19 32  1  0  0  0  0
 19 33  2  0  0  0  0
 19 39  1  0  0  0  0
 20 22  2  0  0  0  0
 20 44  1  0  0  0  0
 21 23  2  0  0  0  0
 21 45  1  0  0  0  0
 22 54  1  0  0  0  0
 23 46  1  0  0  0  0
 24 67  1  0  0  0  0
 25 30  2  0  0  0  0
 25 72  1  0  0  0  0
 26 82  1  0  0  0  0
 27 83  1  0  0  0  0
 28 31  2  0  0  0  0
 28 82  1  0  0  0  0
 29 84  1  0  0  0  0
 30 85  1  0  0  0  0
 31 86  1  0  0  0  0
 32 65  2  0  0  0  0
 33 66  1  0  0  0  0
 33 70  1  0  0  0  0
 34 35  2  0  0  0  0
 34 36  1  0  0  0  0
 35 37  1  0  0  0  0
 36 38  2  0  0  0  0
 36 47  1  0  0  0  0
 37 67  1  0  0  0  0
 37 76  2  0  0  0  0
 38 83  1  0  0  0  0
 39 71  1  0  0  0  0
 39 77  2  0  0  0  0
 40 55  1  0  0  0  0
 40 73  1  0  0  0  0
 40 78  2  0  0  0  0
 41 62  1  0  0  0  0
 41 68  1  0  0  0  0
 41 79  2  0  0  0  0
 42 63  1  0  0  0  0
 42 74  1  0  0  0  0
 42 80  2  0  0  0  0
 43 69  1  0  0  0  0
 43 72  1  0  0  0  0
 43 81  2  0  0  0  0
 44 48  1  0  0  0  0
 45 55  1  0  0  0  0
 46 68  1  0  0  0  0
 47 67  1  0  0  0  0
 48 50  1  0  0  0  0
 49 51  1  0  0  0  0
 49 52  1  0  0  0  0
 50 54  1  0  0  0  0
 51 56  1  0  0  0  0
 52 69  1  0  0  0  0
 53 56  1  0  0  0  0
 53 69  1  0  0  0  0
 54 73  1  0  0  0  0
 55 68  1  0  0  0  0
 56 66  1  0  0  0  0
 57 63  1  0  0  0  0
 58 64  1  0  0  0  0
 59 64  1  0  0  0  0
 60 64  1  0  0  0  0
 61 75  1  0  0  0  0
 62 64  1  0  0  0  0
 62 74  1  0  0  0  0
 63 75  1  0  0  0  0
 65 66  1  0  0  0  0
M  CHG  1  75   1
M  ISO  4  38 101  43 100  72 100  83 101
M  END
> <Batch ID>
0081

> <Smiles>
CNC(C)C(=O)NC(C(=O)N1Cc2cc([101O:1][101CH:1]=C3C=CC(=O)N(c4ccc([100NH:0][100C:0](=O)N5CCCC(n6nc(-c7ccc(Oc8ccc(F)cc8F)cc7)c(C(N)=O)c6N)C5)c(F)c4)C3)ccc2CC1C(=O)NC1CCCc2ccccc21)C(C)(C)C

> <Shape>
0.165

> <Color>
0.192

> <Negative vol penalty>
0.000

$$$$

  -OEChem-04052300043D

 84 93  0     1  0  0  0  0  0999 V2000
  -28.5777  -36.2658   21.5224 C   0  0  0  0  0  0  0  0  0  0  0  0
  -28.7404  -34.8920   21.6702 C   0  0  0  0  0  0  0  0  0  0  0  0
  -32.8659  -20.5893   21.3176 C   0  0  0  0  0  0  0  0  0  0  0  0
  -24.1690  -15.0186   22.2960 C   0  0  0  0  0  0  0  0  0  0  0  0
  -26.0222  -13.4995   21.9878 C   0  0  0  0  0  0  0  0  0  0  0  0
  -32.7503  -19.6089   20.3322 C   0  0  0  0  0  0  0  0  0  0  0  0
  -27.3740  -36.8673   21.8874 C   0  0  0  0  0  0  0  0  0  0  0  0
  -27.6997  -34.1191   22.1841 C   0  0  0  0  0  0  0  0  0  0  0  0
  -26.9691  -29.8515   19.5575 C   0  0  0  0  0  0  0  0  0  0  0  0
  -32.0280  -21.7042   21.2938 C   0  0  0  0  0  0  0  0  0  0  0  0
  -23.3327  -13.9400   22.5840 C   0  0  0  0  0  0  0  0  0  0  0  0
  -25.1860  -12.4209   22.2758 C   0  0  0  0  0  0  0  0  0  0  0  0
  -27.8552  -28.8007   19.7908 C   0  0  0  0  0  0  0  0  0  0  0  0
  -22.8373  -10.5920   20.6728 C   0  0  0  0  0  0  0  0  0  0  0  0
  -22.9179   -9.4709   19.8469 C   0  0  0  0  0  0  0  0  0  0  0  0
  -30.9590  -20.8583   19.2992 C   0  0  0  0  0  0  0  0  0  0  0  0
  -26.2269  -27.7556   21.2314 C   0  0  0  0  0  0  0  0  0  0  0  0
  -23.5375   -8.1149   21.7482 C   0  0  0  0  0  0  0  0  0  0  0  0
  -25.5137  -14.7984   21.9978 C   0  0  0  0  0  0  0  0  0  0  0  0
  -31.7969  -19.7433   19.3230 C   0  0  0  0  0  0  0  0  0  0  0  0
  -27.1443  -16.6615   22.6122 C   0  0  0  0  0  0  0  0  0  0  0  0
  -26.3146  -36.1000   22.3970 C   0  0  0  0  0  0  0  0  0  0  0  0
  -25.7073  -29.8677   20.1691 C   0  0  0  0  0  0  0  0  0  0  0  0
  -26.4812  -34.7111   22.5574 C   0  0  0  0  0  0  0  0  0  0  0  0
  -25.3257  -28.8065   21.0022 C   0  0  0  0  0  0  0  0  0  0  0  0
  -31.0746  -21.8387   20.2846 C   0  0  0  0  0  0  0  0  0  0  0  0
  -23.8412  -12.6412   22.5739 C   0  0  0  0  0  0  0  0  0  0  0  0
  -27.4852  -27.7539   20.6302 C   0  0  0  0  0  0  0  0  0  0  0  0
  -23.1068  -10.4746   22.0364 C   0  0  0  0  0  0  0  0  0  0  0  0
  -23.2680   -8.2323   20.3846 C   0  0  0  0  0  0  0  0  0  0  0  0
  -23.4569   -9.2361   22.5740 C   0  0  0  0  0  0  0  0  0  0  0  0
  -26.3779  -15.9121   21.6996 C   0  0  0  0  0  0  0  0  0  0  0  0
  -27.7835  -17.5975   21.8364 C   0  0  0  0  0  0  0  0  0  0  0  0
  -29.1041  -24.5762   20.1572 C   0  0  0  0  0  0  0  0  0  0  0  0
  -29.2553  -23.3207   19.4208 C   0  0  0  0  0  0  0  0  0  0  0  0
  -28.2998  -25.6466   20.0251 C   0  0  0  0  0  0  0  0  0  1  0  0
  -31.6775  -18.7204   18.2964 C   0  0  0  0  0  0  0  0  0  0  0  0
  -27.2673  -16.5239   24.0340 C   0  0  0  0  0  0  0  0  0  0  0  0
  -30.6766  -18.8309   17.2104 C   0  0  0  0  0  0  0  0  0  0  0  0
  -24.2325  -31.7989   22.2182 C   0  0  0  0  0  0  0  0  0  0  0  0
  -21.7014  -29.8598   21.6217 C   0  0  0  0  0  0  0  0  0  0  0  0
  -20.5679  -26.8056   20.6048 C   0  0  0  0  0  0  0  0  0  0  0  0
  -25.0490  -36.8015   22.8220 C   0  0  0  0  0  0  0  0  0  0  0  0
  -24.7528  -30.9952   19.8860 C   0  0  0  0  0  0  0  0  0  0  0  0
  -23.9747  -28.7664   21.6669 C   0  0  0  0  0  0  0  0  0  0  0  0
  -30.2142  -24.1350   21.0833 C   0  0  0  0  0  0  0  0  0  0  0  0
  -23.8630  -35.8586   23.0080 C   0  0  0  0  0  0  0  0  0  0  0  0
  -27.0976  -18.9133   17.0095 C   0  0  0  0  0  0  0  0  0  0  0  0
  -24.2772  -34.6325   23.8153 C   0  0  0  0  0  0  0  0  0  0  0  0
  -26.6560  -18.1667   18.2678 C   0  0  0  0  0  0  0  0  0  0  0  0
  -28.3894  -18.3347   16.4414 C   0  0  0  0  0  0  0  0  0  0  0  0
  -29.0768  -17.5438   18.6888 C   0  0  0  0  0  0  0  0  0  0  0  0
  -25.3668  -33.8354   23.0880 C   0  0  1  0  0  0  0  0  0  0  0  0
  -23.6910  -31.1651   20.9681 C   0  0  1  0  0  0  0  0  0  0  0  0
  -27.7900  -18.1176   19.3072 C   0  0  2  0  0  0  0  0  0  0  0  0
  -18.4493  -25.5062   20.2581 C   0  0  0  0  0  0  0  0  0  0  0  0
  -21.4527  -29.4652   24.6371 C   0  0  0  0  0  0  0  0  0  0  0  0
  -19.9954  -27.4798   24.1869 C   0  0  0  0  0  0  0  0  0  0  0  0
  -19.2758  -29.7482   23.4390 C   0  0  0  0  0  0  0  0  0  0  0  0
  -21.1093  -26.4709   17.7145 C   0  0  0  0  0  0  0  0  0  0  0  0
  -21.1653  -28.5849   22.2270 C   0  0  1  0  0  0  0  0  0  0  0  0
  -19.4880  -26.4108   19.6136 C   0  0  2  0  0  0  0  0  0  0  0  0
  -20.4986  -28.8210   23.6116 C   0  0  0  0  0  0  0  0  0  0  0  0
  -26.5162  -16.3355   20.4404 N   0  0  0  0  0  0  0  0  0  0  0  0
  -32.4293  -17.6535   18.2567 N   0  0  0  0  0  0  0  0  0  0  0  0
  -27.3768  -17.3612   20.5562 N   0  0  0  0  0  0  0  0  0  0  0  0
  -30.2481  -22.9382   20.2615 N   0  0  0  0  0  0  0  0  0  0  0  0
  -29.4330  -18.2688   17.4626 N   0  0  0  0  0  0  0  0  0  0  0  0
  -23.0791  -29.8950   21.3639 N   0  0  0  0  0  0  0  0  0  0  0  0
  -28.6482  -18.5914   22.1313 N   0  0  0  0  0  0  0  0  0  0  0  0
  -26.5410  -15.5095   24.6725 N   0  0  0  0  0  0  0  0  0  0  0  0
  -24.7892  -33.0480   22.0200 N   0  0  0  0  0  0  0  0  0  0  0  0
  -20.2770  -28.0007   21.2279 N   0  0  0  0  0  0  0  0  0  0  0  0
  -20.0867  -25.6886   18.4557 N   0  3  0  0  0  0  0  0  0  0  0  0
  -28.7247  -22.8247   18.4487 O   0  0  0  0  0  0  0  0  0  0  0  0
  -27.9870  -17.2887   24.7202 O   0  0  0  0  0  0  0  0  0  0  0  0
  -31.0559  -19.4092   16.2005 O   0  0  0  0  0  0  0  0  0  0  0  0
  -24.1499  -31.1997   23.2840 O   0  0  0  0  0  0  0  0  0  0  0  0
  -20.9252  -30.7874   21.3797 O   0  0  0  0  0  0  0  0  0  0  0  0
  -21.5675  -26.1203   20.8088 O   0  0  0  0  0  0  0  0  0  0  0  0
  -23.0255  -11.5885   22.8552 O   0  0  0  0  0  0  0  0  0  0  0  0
  -28.3484  -26.7273   20.8601 O   0  0  0  0  0  0  0  0  0  1  0  0
  -23.3439   -7.1554   19.5916 F   0  0  0  0  0  0  0  0  0  0  0  0
  -23.7158   -9.1169   23.8835 F   0  0  0  0  0  0  0  0  0  0  0  0
  1  2  1  0  0  0  0
  1  7  2  0  0  0  0
  2  8  2  0  0  0  0
  3  6  1  0  0  0  0
  3 10  2  0  0  0  0
  4 11  2  0  0  0  0
  4 19  1  0  0  0  0
  5 12  1  0  0  0  0
  5 19  2  0  0  0  0
  6 20  2  0  0  0  0
  7 22  1  0  0  0  0
  8 24  1  0  0  0  0
  9 13  2  0  0  0  0
  9 23  1  0  0  0  0
 10 26  1  0  0  0  0
 11 27  1  0  0  0  0
 12 27  2  0  0  0  0
 13 28  1  0  0  0  0
 14 15  2  0  0  0  0
 14 29  1  0  0  0  0
 15 30  1  0  0  0  0
 16 20  1  0  0  0  0
 16 26  2  0  0  0  0
 17 25  1  0  0  0  0
 17 28  2  0  0  0  0
 18 30  2  0  0  0  0
 18 31  1  0  0  0  0
 19 32  1  0  0  0  0
 20 37  1  0  0  0  0
 21 32  1  0  0  0  0
 21 33  2  0  0  0  0
 21 38  1  0  0  0  0
 22 24  2  0  0  0  0
 22 43  1  0  0  0  0
 23 25  2  0  0  0  0
 23 44  1  0  0  0  0
 24 53  1  0  0  0  0
 25 45  1  0  0  0  0
 26 67  1  0  0  0  0
 27 81  1  0  0  0  0
 28 82  1  0  0  0  0
 29 31  2  0  0  0  0
 29 81  1  0  0  0  0
 30 83  1  0  0  0  0
 31 84  1  0  0  0  0
 32 64  2  0  0  0  0
 33 66  1  0  0  0  0
 33 70  1  0  0  0  0
 34 35  1  0  0  0  0
 34 36  2  0  0  0  0
 34 46  1  0  0  0  0
 35 67  1  0  0  0  0
 35 75  2  0  0  0  0
 36 82  1  0  0  0  0
 37 39  1  0  0  0  0
 37 65  2  0  0  0  0
 38 71  1  0  0  0  0
 38 76  2  0  0  0  0
 39 68  1  0  0  0  0
 39 77  2  0  0  0  0
 40 54  1  0  0  0  0
 40 72  1  0  0  0  0
 40 78  2  0  0  0  0
 41 61  1  0  0  0  0
 41 69  1  0  0  0  0
 41 79  2  0  0  0  0
 42 62  1  0  0  0  0
 42 73  1  0  0  0  0
 42 80  2  0  0  0  0
 43 47  1  0  0  0  0
 44 54  1  0  0  0  0
 45 69  1  0  0  0  0
 46 67  1  0  0  0  0
 47 49  1  0  0  0  0
 48 50  1  0  0  0  0
 48 51  1  0  0  0  0
 49 53  1  0  0  0  0
 50 55  1  0  0  0  0
 51 68  1  0  0  0  0
 52 55  1  0  0  0  0
 52 68  1  0  0  0  0
 53 72  1  0  0  0  0
 54 69  1  0  0  0  0
 55 66  1  0  0  0  0
 56 62  1  0  0  0  0
 57 63  1  0  0  0  0
 58 63  1  0  0  0  0
 59 63  1  0  0  0  0
 60 74  1  0  0  0  0
 61 63  1  0  0  0  0
 61 73  1  0  0  0  0
 62 74  1  0  0  0  0
 64 66  1  0  0  0  0
M  CHG  1  74   1
M  ISO  4  36 101  37 100  39 100  82 101
M  END
> <Batch ID>
0081

> <Smiles>
CNC(C)C(=O)NC(C(=O)N1Cc2cc([101O:1][101CH:1]=C3CN(c4cccc([100C:0](=N)[100C:0](=O)N5CCCC(n6nc(-c7ccc(Oc8ccc(F)cc8F)cc7)c(C(N)=O)c6N)C5)c4)C3=O)ccc2CC1C(=O)NC1CCCc2ccccc21)C(C)(C)C

> <Shape>
0.256

> <Color>
0.074

> <Negative vol penalty>
0.000

$$$$

  -OEChem-04052300043D

 83 92  0     1  0  0  0  0  0999 V2000
  -27.3675  -37.7450   23.8656 C   0  0  0  0  0  0  0  0  0  0  0  0
  -27.9570  -36.8019   23.0298 C   0  0  0  0  0  0  0  0  0  0  0  0
  -24.1813   -9.2922   22.1889 C   0  0  0  0  0  0  0  0  0  0  0  0
  -22.9180  -11.2744   21.6302 C   0  0  0  0  0  0  0  0  0  0  0  0
  -26.4797  -37.3357   24.8597 C   0  0  0  0  0  0  0  0  0  0  0  0
  -27.6598  -35.4488   23.1884 C   0  0  0  0  0  0  0  0  0  0  0  0
  -26.9126  -29.4156   19.3992 C   0  0  0  0  0  0  0  0  0  0  0  0
  -26.2945  -19.4048   19.1182 C   0  0  0  0  0  0  0  0  0  0  0  0
  -28.5717  -19.7743   19.8357 C   0  0  0  0  0  0  0  0  0  0  0  0
  -26.5615  -18.0437   18.9714 C   0  0  0  0  0  0  0  0  0  0  0  0
  -28.8387  -18.4131   19.6889 C   0  0  0  0  0  0  0  0  0  0  0  0
  -23.3114   -9.0365   23.2488 C   0  0  0  0  0  0  0  0  0  0  0  0
  -22.0480  -11.0187   22.6901 C   0  0  0  0  0  0  0  0  0  0  0  0
  -27.3666  -28.0976   19.3719 C   0  0  0  0  0  0  0  0  0  0  0  0
  -20.2207   -7.7332   23.6758 C   0  0  0  0  0  0  0  0  0  0  0  0
  -19.7640   -6.4253   23.8385 C   0  0  0  0  0  0  0  0  0  0  0  0
  -25.7575  -27.5145   21.0718 C   0  0  0  0  0  0  0  0  0  0  0  0
  -20.7524   -6.3542   26.0419 C   0  0  0  0  0  0  0  0  0  0  0  0
  -23.9846  -10.4112   21.3796 C   0  0  0  0  0  0  0  0  0  0  0  0
  -24.7619  -10.2248   18.9571 C   0  0  0  0  0  0  0  0  0  0  0  0
  -26.1641  -35.9778   25.0243 C   0  0  0  0  0  0  0  0  0  0  0  0
  -25.8833  -29.7959   20.2723 C   0  0  0  0  0  0  0  0  0  0  0  0
  -26.7680  -35.0208   24.1865 C   0  0  0  0  0  0  0  0  0  0  0  0
  -25.2905  -28.8373   21.1065 C   0  0  0  0  0  0  0  0  0  0  0  0
  -27.2996  -20.2701   19.5503 C   0  0  0  0  0  0  0  0  0  0  0  0
  -27.8336  -17.5478   19.2568 C   0  0  0  0  0  0  0  0  0  0  0  0
  -22.2447   -9.8997   23.4994 C   0  0  0  0  0  0  0  0  0  0  0  0
  -26.7910  -27.1475   20.2103 C   0  0  0  0  0  0  0  0  0  0  0  0
  -20.9434   -8.3516   24.6961 C   0  0  0  0  0  0  0  0  0  0  0  0
  -20.0298   -5.7359   25.0215 C   0  0  0  0  0  0  0  0  0  0  0  0
  -21.2091   -7.6621   25.8792 C   0  0  0  0  0  0  0  0  0  0  0  0
  -24.8833  -10.6762   20.2849 C   0  0  0  0  0  0  0  0  0  0  0  0
  -25.8596  -10.7447   18.3159 C   0  0  0  0  0  0  0  0  0  0  0  0
  -26.6631  -23.5750   19.8063 C   0  0  0  0  0  0  0  0  0  0  0  0
  -25.9191  -22.3542   19.4940 C   0  0  0  0  0  0  0  0  0  0  0  0
  -26.3384  -24.8794   19.8614 C   0  0  0  0  0  0  0  0  0  1  0  0
  -23.7475   -9.4085   18.3568 C   0  0  0  0  0  0  0  0  0  0  0  0
  -25.6404  -31.8305   22.7024 C   0  0  0  0  0  0  0  0  0  0  0  0
  -22.5040  -31.0140   22.5646 C   0  0  0  0  0  0  0  0  0  0  0  0
  -20.1433  -28.7267   21.6470 C   0  0  0  0  0  0  0  0  0  0  0  0
  -29.3128  -15.5107   19.3485 C   0  0  0  0  0  0  0  0  0  0  0  0
  -25.2352  -35.5790   26.1436 C   0  0  0  0  0  0  0  0  0  0  0  0
  -25.3867  -31.2157   20.2705 C   0  0  0  0  0  0  0  0  0  0  0  0
  -24.1687  -29.1900   22.0476 C   0  0  0  0  0  0  0  0  0  0  0  0
  -27.8996  -22.7333   20.0236 C   0  0  0  0  0  0  0  0  0  0  0  0
  -24.6852  -34.1619   26.0029 C   0  0  0  0  0  0  0  0  0  0  0  0
  -30.3734  -12.1185   19.1363 C   0  0  0  0  0  0  0  0  0  0  0  0
  -25.8053  -33.1867   25.6545 C   0  0  0  0  0  0  0  0  0  0  0  0
  -29.0741  -11.3227   19.2798 C   0  0  0  0  0  0  0  0  0  0  0  0
  -30.3747  -13.3661   20.0178 C   0  0  0  0  0  0  0  0  0  0  0  0
  -27.9128  -13.4513   19.9922 C   0  0  0  0  0  0  0  0  0  0  0  0
  -26.4518  -33.5462   24.3113 C   0  0  1  0  0  0  0  0  0  0  0  0
  -24.6826  -31.6040   21.5670 C   0  0  1  0  0  0  0  0  0  0  0  0
  -27.8380  -12.2202   19.0743 C   0  0  2  0  0  0  0  0  0  0  0  0
  -17.6672  -28.3223   21.6989 C   0  0  0  0  0  0  0  0  0  0  0  0
  -22.6801  -30.3319   25.5334 C   0  0  0  0  0  0  0  0  0  0  0  0
  -20.5291  -29.0722   25.3002 C   0  0  0  0  0  0  0  0  0  0  0  0
  -20.5889  -31.5268   24.8597 C   0  0  0  0  0  0  0  0  0  0  0  0
  -19.9827  -28.6134   18.6940 C   0  0  0  0  0  0  0  0  0  0  0  0
  -21.6492  -29.9432   23.1984 C   0  0  1  0  0  0  0  0  0  0  0  0
  -18.8330  -28.8776   20.8956 C   0  0  2  0  0  0  0  0  0  0  0  0
  -21.3843  -30.2120   24.7067 C   0  0  0  0  0  0  0  0  0  0  0  0
  -25.9723  -11.4252   20.4774 N   0  0  0  0  0  0  0  0  0  0  0  0
  -26.5453  -11.4483   19.2620 N   0  0  0  0  0  0  0  0  0  0  0  0
  -27.0365  -21.6126   19.6947 N   0  0  0  0  0  0  0  0  0  0  0  0
  -23.7225  -30.5926   22.0136 N   0  0  0  0  0  0  0  0  0  0  0  0
  -29.1767  -14.1697   19.7656 N   0  0  0  0  0  0  0  0  0  0  0  0
  -26.2957  -10.6641   17.0409 N   0  0  0  0  0  0  0  0  0  0  0  0
  -22.6896   -8.9596   19.1591 N   0  0  0  0  0  0  0  0  0  0  0  0
  -28.1052  -16.1651   19.1078 N   0  0  0  0  0  0  0  0  0  0  0  0
  -25.6125  -33.1135   23.2146 N   0  0  0  0  0  0  0  0  0  0  0  0
  -20.4406  -29.8519   22.3864 N   0  0  0  0  0  0  0  0  0  0  0  0
  -18.8952  -28.1526   19.5950 N   0  3  0  0  0  0  0  0  0  0  0  0
  -24.7764  -22.1020   19.1729 O   0  0  0  0  0  0  0  0  0  0  0  0
  -23.7869   -9.0732   17.1487 O   0  0  0  0  0  0  0  0  0  0  0  0
  -26.3510  -30.9089   23.0863 O   0  0  0  0  0  0  0  0  0  0  0  0
  -22.1021  -32.1802   22.5523 O   0  0  0  0  0  0  0  0  0  0  0  0
  -20.8322  -27.7106   21.5873 O   0  0  0  0  0  0  0  0  0  0  0  0
  -30.4198  -16.0313   19.1885 O   0  0  0  0  0  0  0  0  0  0  0  0
  -21.3955   -9.6504   24.5334 O   0  0  0  0  0  0  0  0  0  0  0  0
  -27.2327  -25.8606   20.1862 O   0  0  0  0  0  0  0  0  0  1  0  0
  -19.5898   -4.4805   25.1782 F   0  0  0  0  0  0  0  0  0  0  0  0
  -21.9018   -8.2514   26.8635 F   0  0  0  0  0  0  0  0  0  0  0  0
  1  2  1  0  0  0  0
  1  5  2  0  0  0  0
  2  6  2  0  0  0  0
  3 12  2  0  0  0  0
  3 19  1  0  0  0  0
  4 13  1  0  0  0  0
  4 19  2  0  0  0  0
  5 21  1  0  0  0  0
  6 23  1  0  0  0  0
  7 14  2  0  0  0  0
  7 22  1  0  0  0  0
  8 10  2  0  0  0  0
  8 25  1  0  0  0  0
  9 11  1  0  0  0  0
  9 25  2  0  0  0  0
 10 26  1  0  0  0  0
 11 26  2  0  0  0  0
 12 27  1  0  0  0  0
 13 27  2  0  0  0  0
 14 28  1  0  0  0  0
 15 16  2  0  0  0  0
 15 29  1  0  0  0  0
 16 30  1  0  0  0  0
 17 24  1  0  0  0  0
 17 28  2  0  0  0  0
 18 30  2  0  0  0  0
 18 31  1  0  0  0  0
 19 32  1  0  0  0  0
 20 32  1  0  0  0  0
 20 33  2  0  0  0  0
 20 37  1  0  0  0  0
 21 23  2  0  0  0  0
 21 42  1  0  0  0  0
 22 24  2  0  0  0  0
 22 43  1  0  0  0  0
 23 52  1  0  0  0  0
 24 44  1  0  0  0  0
 25 65  1  0  0  0  0
 26 70  1  0  0  0  0
 27 80  1  0  0  0  0
 28 81  1  0  0  0  0
 29 31  2  0  0  0  0
 29 80  1  0  0  0  0
 30 82  1  0  0  0  0
 31 83  1  0  0  0  0
 32 63  2  0  0  0  0
 33 64  1  0  0  0  0
 33 68  1  0  0  0  0
 34 35  1  0  0  0  0
 34 36  2  0  0  0  0
 34 45  1  0  0  0  0
 35 65  1  0  0  0  0
 35 74  2  0  0  0  0
 36 81  1  0  0  0  0
 37 69  1  0  0  0  0
 37 75  2  0  0  0  0
 38 53  1  0  0  0  0
 38 71  1  0  0  0  0
 38 76  2  0  0  0  0
 39 60  1  0  0  0  0
 39 66  1  0  0  0  0
 39 77  2  0  0  0  0
 40 61  1  0  0  0  0
 40 72  1  0  0  0  0
 40 78  2  0  0  0  0
 41 67  1  0  0  0  0
 41 70  1  0  0  0  0
 41 79  2  0  0  0  0
 42 46  1  0  0  0  0
 43 53  1  0  0  0  0
 44 66  1  0  0  0  0
 45 65  1  0  0  0  0
 46 48  1  0  0  0  0
 47 49  1  0  0  0  0
 47 50  1  0  0  0  0
 48 52  1  0  0  0  0
 49 54  1  0  0  0  0
 50 67  1  0  0  0  0
 51 54  1  0  0  0  0
 51 67  1  0  0  0  0
 52 71  1  0  0  0  0
 53 66  1  0  0  0  0
 54 64  1  0  0  0  0
 55 61  1  0  0  0  0
 56 62  1  0  0  0  0
 57 62  1  0  0  0  0
 58 62  1  0  0  0  0
 59 73  1  0  0  0  0
 60 62  1  0  0  0  0
 60 72  1  0  0  0  0
 61 73  1  0  0  0  0
 63 64  1  0  0  0  0
M  CHG  1  73   1
M  ISO  4  36 101  41 100  70 100  81 101
M  END
> <Batch ID>
0081

> <Smiles>
CNC(C)C(=O)NC(C(=O)N1Cc2cc([101O:1][101CH:1]=C3CN(c4ccc([100NH:0][100C:0](=O)N5CCCC(n6nc(-c7ccc(Oc8ccc(F)cc8F)cc7)c(C(N)=O)c6N)C5)cc4)C3=O)ccc2CC1C(=O)NC1CCCc2ccccc21)C(C)(C)C

> <Shape>
0.292

> <Color>
0.088

> <Negative vol penalty>
0.000

$$$$

  -OEChem-04052300043D

 88 97  0     1  0  0  0  0  0999 V2000
  -16.9289  -28.6007   23.4319 C   0  0  0  0  0  0  0  0  0  0  0  0
  -17.5794  -27.9691   22.3767 C   0  0  0  0  0  0  0  0  0  0  0  0
  -23.9087   -9.4146   20.3835 C   0  0  0  0  0  0  0  0  0  0  0  0
  -25.2726   -9.6127   22.3678 C   0  0  0  0  0  0  0  0  0  0  0  0
  -17.5424  -29.6657   24.0902 C   0  0  0  0  0  0  0  0  0  0  0  0
  -18.8434  -28.4029   21.9785 C   0  0  0  0  0  0  0  0  0  0  0  0
  -24.4855  -23.9245   22.0237 C   0  0  0  0  0  0  0  0  0  0  0  0
  -29.8284  -18.3003   19.7159 C   0  0  0  0  0  0  0  0  0  0  0  0
  -29.8067  -17.1384   18.9444 C   0  0  0  0  0  0  0  0  0  0  0  0
  -23.6484   -8.0802   20.6955 C   0  0  0  0  0  0  0  0  0  0  0  0
  -25.0123   -8.2783   22.6799 C   0  0  0  0  0  0  0  0  0  0  0  0
  -25.5689  -23.0736   21.8039 C   0  0  0  0  0  0  0  0  0  0  0  0
  -22.3320   -4.7238   21.1608 C   0  0  0  0  0  0  0  0  0  0  0  0
  -21.0162   -4.2755   21.0454 C   0  0  0  0  0  0  0  0  0  0  0  0
  -26.9205  -24.9558   21.1121 C   0  0  0  0  0  0  0  0  0  0  0  0
  -32.2164  -17.2020   18.7811 C   0  0  0  0  0  0  0  0  0  0  0  0
  -20.3156   -5.9110   22.6799 C   0  0  0  0  0  0  0  0  0  0  0  0
  -24.7208  -10.1808   21.2196 C   0  0  0  0  0  0  0  0  0  0  0  0
  -24.0515  -12.5984   20.7562 C   0  0  0  0  0  0  0  0  0  0  0  0
  -18.8187  -30.1065   23.7061 C   0  0  0  0  0  0  0  0  0  0  0  0
  -24.6202  -25.2980   21.8030 C   0  0  0  0  0  0  0  0  0  0  0  0
  -19.4740  -29.4756   22.6314 C   0  0  0  0  0  0  0  0  0  0  0  0
  -25.8425  -25.8146   21.3425 C   0  0  0  0  0  0  0  0  0  0  0  0
  -31.0440  -18.9131   20.0199 C   0  0  0  0  0  0  0  0  0  0  0  0
  -31.0007  -16.5893   18.4770 C   0  0  0  0  0  0  0  0  0  0  0  0
  -24.2002   -7.5121   21.8437 C   0  0  0  0  0  0  0  0  0  0  0  0
  -26.7833  -23.5880   21.3489 C   0  0  0  0  0  0  0  0  0  0  0  0
  -22.6396   -5.7657   22.0358 C   0  0  0  0  0  0  0  0  0  0  0  0
  -20.0080   -4.8691   21.8049 C   0  0  0  0  0  0  0  0  0  0  0  0
  -32.2380  -18.3640   19.5525 C   0  0  0  0  0  0  0  0  0  0  0  0
  -21.6315   -6.3593   22.7953 C   0  0  0  0  0  0  0  0  0  0  0  0
  -24.9904  -11.5591   20.8975 C   0  0  0  0  0  0  0  0  0  0  0  0
  -24.8067  -13.7041   20.4500 C   0  0  0  0  0  0  0  0  0  0  0  0
  -30.0842  -22.2102   21.7325 C   0  0  0  0  0  0  0  0  0  0  0  0
  -31.2978  -22.4478   22.4964 C   0  0  0  0  0  0  0  0  0  0  0  0
  -29.9876  -21.0291   20.7915 C   0  0  0  0  0  0  0  0  0  0  0  0
  -31.7541  -23.6625   22.8419 C   0  0  0  0  0  0  0  0  0  0  0  0
  -28.9821  -22.9707   21.8560 C   0  0  0  0  0  0  0  0  0  1  0  0
  -22.6243  -12.5673   20.8899 C   0  0  0  0  0  0  0  0  0  0  0  0
  -23.0050  -28.6833   21.8851 C   0  0  0  0  0  0  0  0  0  0  0  0
  -25.8653  -29.0350   22.9364 C   0  0  0  0  0  0  0  0  0  0  0  0
  -28.9317  -28.9219   24.4271 C   0  0  0  0  0  0  0  0  0  0  0  0
  -29.9668  -14.4159   17.8454 C   0  0  0  0  0  0  0  0  0  0  0  0
  -19.4216  -31.2922   24.4170 C   0  0  0  0  0  0  0  0  0  0  0  0
  -23.4617  -26.2438   21.9678 C   0  0  0  0  0  0  0  0  0  0  0  0
  -25.9311  -27.2942   21.0856 C   0  0  0  0  0  0  0  0  0  0  0  0
  -32.0545  -21.2020   22.8288 C   0  0  0  0  0  0  0  0  0  0  0  0
  -20.9210  -31.4484   24.1771 C   0  0  0  0  0  0  0  0  0  0  0  0
  -29.1508  -15.5796   21.1047 C   0  0  0  0  0  0  0  0  0  0  0  0
  -21.2431  -31.2955   22.6940 C   0  0  0  0  0  0  0  0  0  0  0  0
  -27.8947  -14.7652   21.4120 C   0  0  0  0  0  0  0  0  0  0  0  0
  -32.3059  -20.4211   21.5504 C   0  0  0  0  0  0  0  0  0  0  0  0
  -30.2000  -14.7543   20.3589 C   0  0  0  0  0  0  0  0  0  0  0  0
  -28.4329  -13.2864   19.4386 C   0  0  0  0  0  0  0  0  0  0  0  0
  -20.8563  -29.9012   22.1863 C   0  0  1  0  0  0  0  0  0  0  0  0
  -23.8828  -27.6284   22.4918 C   0  0  1  0  0  0  0  0  0  0  0  0
  -27.3377  -14.1070   20.1374 C   0  0  1  0  0  0  0  0  0  0  0  0
  -30.6373  -30.3898   25.5377 C   0  0  0  0  0  0  0  0  0  0  0  0
  -26.7129  -30.1071   20.2095 C   0  0  0  0  0  0  0  0  0  0  0  0
  -28.9072  -30.7559   21.2256 C   0  0  0  0  0  0  0  0  0  0  0  0
  -26.7945  -31.7853   22.0619 C   0  0  0  0  0  0  0  0  0  0  0  0
  -31.8781  -15.2963   16.5235 C   0  0  0  0  0  0  0  0  0  0  0  0
  -28.7312  -27.4262   26.9730 C   0  0  0  0  0  0  0  0  0  0  0  0
  -27.2995  -29.3702   22.6134 C   0  0  1  0  0  0  0  0  0  0  0  0
  -29.4327  -29.4849   25.7448 C   0  0  2  0  0  0  0  0  0  0  0  0
  -27.4194  -30.4776   21.5288 C   0  0  0  0  0  0  0  0  0  0  0  0
  -26.2462  -11.9678   20.6973 N   0  0  0  0  0  0  0  0  0  0  0  0
  -26.1016  -13.2763   20.4270 N   0  0  0  0  0  0  0  0  0  0  0  0
  -31.0633  -20.1177   20.8200 N   0  0  0  0  0  0  0  0  0  0  0  0
  -25.2613  -28.0329   22.1674 N   0  0  0  0  0  0  0  0  0  0  0  0
  -29.6127  -14.1134   19.1738 N   0  0  0  0  0  0  0  0  0  0  0  0
  -24.4828  -14.9907   20.2008 N   0  0  0  0  0  0  0  0  0  0  0  0
  -22.0660  -12.8123   22.1519 N   0  0  0  0  0  0  0  0  0  0  0  0
  -21.8428  -28.9236   22.5930 N   0  0  0  0  0  0  0  0  0  0  0  0
  -27.9361  -29.7053   23.8826 N   0  0  0  0  0  0  0  0  0  0  0  0
  -30.9781  -15.3864   17.6783 N   0  0  0  0  0  0  0  0  0  0  0  0
  -29.8275  -28.3799   26.6636 N   0  3  0  0  0  0  0  0  0  0  0  0
  -29.0128  -20.9397   20.0425 O   0  0  0  0  0  0  0  0  0  0  0  0
  -21.8674  -12.3131   19.9225 O   0  0  0  0  0  0  0  0  0  0  0  0
  -23.3559  -29.2402   20.8515 O   0  0  0  0  0  0  0  0  0  0  0  0
  -25.2920  -29.6475   23.8417 O   0  0  0  0  0  0  0  0  0  0  0  0
  -29.3812  -27.8923   23.9287 O   0  0  0  0  0  0  0  0  0  0  0  0
  -29.4393  -13.8445   16.8836 O   0  0  0  0  0  0  0  0  0  0  0  0
  -23.9463   -6.2101   22.1487 O   0  0  0  0  0  0  0  0  0  0  0  0
  -27.8382  -22.7523   21.1407 O   0  0  0  0  0  0  0  0  0  1  0  0
  -18.7442   -4.4396   21.6929 F   0  0  0  0  0  0  0  0  0  0  0  0
  -33.4123  -18.9448   19.8380 F   0  0  0  0  0  0  0  0  0  0  0  0
  -21.9207   -7.3614   23.6367 F   0  0  0  0  0  0  0  0  0  0  0  0
  1  2  1  0  0  0  0
  1  5  2  0  0  0  0
  2  6  2  0  0  0  0
  3 10  2  0  0  0  0
  3 18  1  0  0  0  0
  4 11  1  0  0  0  0
  4 18  2  0  0  0  0
  5 20  1  0  0  0  0
  6 22  1  0  0  0  0
  7 12  2  0  0  0  0
  7 21  1  0  0  0  0
  8  9  2  0  0  0  0
  8 24  1  0  0  0  0
  9 25  1  0  0  0  0
 10 26  1  0  0  0  0
 11 26  2  0  0  0  0
 12 27  1  0  0  0  0
 13 14  2  0  0  0  0
 13 28  1  0  0  0  0
 14 29  1  0  0  0  0
 15 23  1  0  0  0  0
 15 27  2  0  0  0  0
 16 25  2  0  0  0  0
 16 30  1  0  0  0  0
 17 29  2  0  0  0  0
 17 31  1  0  0  0  0
 18 32  1  0  0  0  0
 19 32  1  0  0  0  0
 19 33  2  0  0  0  0
 19 39  1  0  0  0  0
 20 22  2  0  0  0  0
 20 44  1  0  0  0  0
 21 23  2  0  0  0  0
 21 45  1  0  0  0  0
 22 55  1  0  0  0  0
 23 46  1  0  0  0  0
 24 30  2  0  0  0  0
 24 69  1  0  0  0  0
 25 76  1  0  0  0  0
 26 84  1  0  0  0  0
 27 85  1  0  0  0  0
 28 31  2  0  0  0  0
 28 84  1  0  0  0  0
 29 86  1  0  0  0  0
 30 87  1  0  0  0  0
 31 88  1  0  0  0  0
 32 67  2  0  0  0  0
 33 68  1  0  0  0  0
 33 72  1  0  0  0  0
 34 35  1  0  0  0  0
 34 36  1  0  0  0  0
 34 38  2  0  0  0  0
 35 37  2  0  0  0  0
 35 47  1  0  0  0  0
 36 69  1  0  0  0  0
 36 78  2  0  0  0  0
 38 85  1  0  0  0  0
 39 73  1  0  0  0  0
 39 79  2  0  0  0  0
 40 56  1  0  0  0  0
 40 74  1  0  0  0  0
 40 80  2  0  0  0  0
 41 64  1  0  0  0  0
 41 70  1  0  0  0  0
 41 81  2  0  0  0  0
 42 65  1  0  0  0  0
 42 75  1  0  0  0  0
 42 82  2  0  0  0  0
 43 71  1  0  0  0  0
 43 76  1  0  0  0  0
 43 83  2  0  0  0  0
 44 48  1  0  0  0  0
 45 56  1  0  0  0  0
 46 70  1  0  0  0  0
 47 52  1  0  0  0  0
 48 50  1  0  0  0  0
 49 51  1  0  0  0  0
 49 53  1  0  0  0  0
 50 55  1  0  0  0  0
 51 57  1  0  0  0  0
 52 69  1  0  0  0  0
 53 71  1  0  0  0  0
 54 57  1  0  0  0  0
 54 71  1  0  0  0  0
 55 74  1  0  0  0  0
 56 70  1  0  0  0  0
 57 68  1  0  0  0  0
 58 65  1  0  0  0  0
 59 66  1  0  0  0  0
 60 66  1  0  0  0  0
 61 66  1  0  0  0  0
 62 76  1  0  0  0  0
 63 77  1  0  0  0  0
 64 66  1  0  0  0  0
 64 75  1  0  0  0  0
 65 77  1  0  0  0  0
 67 68  1  0  0  0  0
M  CHG  1  77   1
M  ISO  4  38 101  43 100  76 100  85 101
M  END
> <Batch ID>
0081

> <Smiles>
C=C1CCN(c2ccc([100N:0](C)[100C:0](=O)N3CCCC(n4nc(-c5ccc(Oc6ccc(F)cc6F)cc5)c(C(N)=O)c4N)C3)cc2F)C(=O)C1=[101CH:1][101O:1]c1ccc2c(c1)CN(C(=O)C(NC(=O)C(C)NC)C(C)(C)C)C(C(=O)NC1CCCc3ccccc31)C2

> <Shape>
0.272

> <Color>
0.119

> <Negative vol penalty>
0.000

$$$$

  -OEChem-04052300043D

 86 95  0     1  0  0  0  0  0999 V2000
  -16.6403  -25.3507   23.0721 C   0  0  0  0  0  0  0  0  0  0  0  0
  -17.9298  -24.9258   22.7684 C   0  0  0  0  0  0  0  0  0  0  0  0
  -22.9141  -10.1644   19.9426 C   0  0  0  0  0  0  0  0  0  0  0  0
  -23.9108   -9.8384   22.1192 C   0  0  0  0  0  0  0  0  0  0  0  0
  -29.4481  -16.9808   20.1018 C   0  0  0  0  0  0  0  0  0  0  0  0
  -29.2789  -17.3477   22.4838 C   0  0  0  0  0  0  0  0  0  0  0  0
  -16.2952  -26.6927   22.9176 C   0  0  0  0  0  0  0  0  0  0  0  0
  -18.8747  -25.8427   22.3090 C   0  0  0  0  0  0  0  0  0  0  0  0
  -23.3757  -25.2875   24.5623 C   0  0  0  0  0  0  0  0  0  0  0  0
  -28.7571  -18.1700   19.8696 C   0  0  0  0  0  0  0  0  0  0  0  0
  -28.5879  -18.5369   22.2516 C   0  0  0  0  0  0  0  0  0  0  0  0
  -22.1402   -9.0185   20.1253 C   0  0  0  0  0  0  0  0  0  0  0  0
  -23.1368   -8.6924   22.3019 C   0  0  0  0  0  0  0  0  0  0  0  0
  -24.1850  -24.2424   24.1192 C   0  0  0  0  0  0  0  0  0  0  0  0
  -19.9521   -7.9495   23.1541 C   0  0  0  0  0  0  0  0  0  0  0  0
  -19.3217   -7.7849   24.3874 C   0  0  0  0  0  0  0  0  0  0  0  0
  -25.4580  -25.8004   22.7882 C   0  0  0  0  0  0  0  0  0  0  0  0
  -20.5284   -5.7198   24.7287 C   0  0  0  0  0  0  0  0  0  0  0  0
  -23.7995  -10.5744   20.9395 C   0  0  0  0  0  0  0  0  0  0  0  0
  -29.7090  -16.5696   21.4090 C   0  0  0  0  0  0  0  0  0  0  0  0
  -24.2613  -13.0778   21.1041 C   0  0  0  0  0  0  0  0  0  0  0  0
  -17.2391  -27.6282   22.4653 C   0  0  0  0  0  0  0  0  0  0  0  0
  -23.5950  -26.5975   24.1125 C   0  0  0  0  0  0  0  0  0  0  0  0
  -18.5415  -27.1982   22.1471 C   0  0  0  0  0  0  0  0  0  0  0  0
  -24.6517  -26.8608   23.2292 C   0  0  0  0  0  0  0  0  0  0  0  0
  -28.3270  -18.9480   20.9445 C   0  0  0  0  0  0  0  0  0  0  0  0
  -22.2514   -8.2825   21.3049 C   0  0  0  0  0  0  0  0  0  0  0  0
  -25.2245  -24.4982   23.2297 C   0  0  0  0  0  0  0  0  0  0  0  0
  -20.8706   -6.9992   22.7080 C   0  0  0  0  0  0  0  0  0  0  0  0
  -19.6099   -6.6701   25.1747 C   0  0  0  0  0  0  0  0  0  0  0  0
  -21.1588   -5.8844   23.4953 C   0  0  0  0  0  0  0  0  0  0  0  0
  -24.5997  -11.7577   20.7511 C   0  0  0  0  0  0  0  0  0  0  0  0
  -25.3476  -13.8252   20.7196 C   0  0  0  0  0  0  0  0  0  0  0  0
  -26.3015  -21.7431   19.7832 C   0  0  0  0  0  0  0  0  0  0  0  0
  -26.8026  -22.2603   20.9030 C   0  0  0  0  0  0  0  0  0  0  0  0
  -26.8253  -20.3790   19.6242 C   0  0  0  0  0  0  0  0  0  0  0  0
  -27.6649  -21.2426   21.5346 C   0  0  0  0  0  0  0  0  0  0  0  0
  -30.4293  -15.3297   21.6511 C   0  0  0  0  0  0  0  0  0  0  0  0
  -23.0714  -13.5833   21.7241 C   0  0  0  0  0  0  0  0  0  0  0  0
  -30.8998  -14.4803   20.5330 C   0  0  0  0  0  0  0  0  0  0  0  0
  -21.8956  -28.7162   22.4613 C   0  0  0  0  0  0  0  0  0  0  0  0
  -24.3842  -30.6755   23.1614 C   0  0  0  0  0  0  0  0  0  0  0  0
  -27.6784  -30.9898   23.9957 C   0  0  0  0  0  0  0  0  0  0  0  0
  -16.8061  -29.0595   22.2691 C   0  0  0  0  0  0  0  0  0  0  0  0
  -22.7299  -27.7180   24.6208 C   0  0  0  0  0  0  0  0  0  0  0  0
  -24.9416  -28.2527   22.7321 C   0  0  0  0  0  0  0  0  0  0  0  0
  -17.9721  -30.0355   22.1340 C   0  0  0  0  0  0  0  0  0  0  0  0
  -29.3510  -12.6208   17.8871 C   0  0  0  0  0  0  0  0  0  0  0  0
  -19.0149  -29.4904   21.1634 C   0  0  0  0  0  0  0  0  0  0  0  0
  -27.9625  -12.3060   18.4427 C   0  0  0  0  0  0  0  0  0  0  0  0
  -30.4055  -12.6253   18.9892 C   0  0  0  0  0  0  0  0  0  0  0  0
  -28.6999  -13.2393   20.6811 C   0  0  0  0  0  0  0  0  0  0  0  0
  -19.6015  -28.1671   21.6698 C   0  0  1  0  0  0  0  0  0  0  0  0
  -22.7217  -28.9325   23.6976 C   0  0  1  0  0  0  0  0  0  0  0  0
  -27.6037  -13.2531   19.6015 C   0  0  2  0  0  0  0  0  0  0  0  0
  -29.4357  -32.7191   24.4636 C   0  0  0  0  0  0  0  0  0  0  0  0
  -24.6061  -31.2550   20.1740 C   0  0  0  0  0  0  0  0  0  0  0  0
  -26.8917  -32.1860   20.5951 C   0  0  0  0  0  0  0  0  0  0  0  0
  -24.8984  -33.2535   21.6488 C   0  0  0  0  0  0  0  0  0  0  0  0
  -28.0921  -29.9917   26.7510 C   0  0  0  0  0  0  0  0  0  0  0  0
  -26.5785  -23.6061   21.4899 C   0  0  0  0  0  0  0  0  0  1  0  0
  -25.6991  -31.0116   22.5003 C   0  0  1  0  0  0  0  0  0  0  0  0
  -28.3725  -31.8135   25.0654 C   0  0  2  0  0  0  0  0  0  0  0  0
  -25.5174  -31.8999   21.2372 C   0  0  0  0  0  0  0  0  0  0  0  0
  -25.8065  -11.6684   20.1857 N   0  0  0  0  0  0  0  0  0  0  0  0
  -30.7096  -14.8854   22.8466 N   0  0  0  0  0  0  0  0  0  0  0  0
  -26.2359  -12.9418   20.1804 N   0  0  0  0  0  0  0  0  0  0  0  0
  -27.6384  -20.1332   20.7119 N   0  0  0  0  0  0  0  0  0  0  0  0
  -30.0169  -13.5059   20.0890 N   0  0  0  0  0  0  0  0  0  0  0  0
  -24.0638  -29.3136   23.2530 N   0  0  0  0  0  0  0  0  0  0  0  0
  -25.6200  -15.1454   20.7934 N   0  0  0  0  0  0  0  0  0  0  0  0
  -22.0535  -12.6780   22.0537 N   0  0  0  0  0  0  0  0  0  0  0  0
  -20.5719  -28.4117   22.7153 N   0  0  0  0  0  0  0  0  0  0  0  0
  -26.5356  -31.6090   23.5356 N   0  0  0  0  0  0  0  0  0  0  0  0
  -29.0258  -30.9208   26.0640 N   0  3  0  0  0  0  0  0  0  0  0  0
  -26.5505  -19.6532   18.6825 O   0  0  0  0  0  0  0  0  0  0  0  0
  -28.2656  -21.4063   22.5846 O   0  0  0  0  0  0  0  0  0  0  0  0
  -22.9087  -14.8038   21.9634 O   0  0  0  0  0  0  0  0  0  0  0  0
  -32.0240  -14.7298   20.1179 O   0  0  0  0  0  0  0  0  0  0  0  0
  -22.4200  -28.8195   21.3585 O   0  0  0  0  0  0  0  0  0  0  0  0
  -23.6710  -31.5874   23.5875 O   0  0  0  0  0  0  0  0  0  0  0  0
  -28.1092  -29.9073   23.6045 O   0  0  0  0  0  0  0  0  0  0  0  0
  -21.4962   -7.1644   21.4836 O   0  0  0  0  0  0  0  0  0  0  0  0
  -26.0156  -23.4798   22.7951 O   0  0  0  0  0  0  0  0  0  1  0  0
  -19.0056   -6.5130   26.3598 F   0  0  0  0  0  0  0  0  0  0  0  0
  -22.0412   -4.9687   23.0725 F   0  0  0  0  0  0  0  0  0  0  0  0
  1  2  1  0  0  0  0
  1  7  2  0  0  0  0
  2  8  2  0  0  0  0
  3 12  2  0  0  0  0
  3 19  1  0  0  0  0
  4 13  1  0  0  0  0
  4 19  2  0  0  0  0
  5 10  2  0  0  0  0
  5 20  1  0  0  0  0
  6 11  1  0  0  0  0
  6 20  2  0  0  0  0
  7 22  1  0  0  0  0
  8 24  1  0  0  0  0
  9 14  2  0  0  0  0
  9 23  1  0  0  0  0
 10 26  1  0  0  0  0
 11 26  2  0  0  0  0
 12 27  1  0  0  0  0
 13 27  2  0  0  0  0
 14 28  1  0  0  0  0
 15 16  2  0  0  0  0
 15 29  1  0  0  0  0
 16 30  1  0  0  0  0
 17 25  1  0  0  0  0
 17 28  2  0  0  0  0
 18 30  2  0  0  0  0
 18 31  1  0  0  0  0
 19 32  1  0  0  0  0
 20 38  1  0  0  0  0
 21 32  1  0  0  0  0
 21 33  2  0  0  0  0
 21 39  1  0  0  0  0
 22 24  2  0  0  0  0
 22 44  1  0  0  0  0
 23 25  2  0  0  0  0
 23 45  1  0  0  0  0
 24 53  1  0  0  0  0
 25 46  1  0  0  0  0
 26 68  1  0  0  0  0
 27 83  1  0  0  0  0
 28 84  1  0  0  0  0
 29 31  2  0  0  0  0
 29 83  1  0  0  0  0
 30 85  1  0  0  0  0
 31 86  1  0  0  0  0
 32 65  2  0  0  0  0
 33 67  1  0  0  0  0
 33 71  1  0  0  0  0
 34 35  2  0  0  0  0
 34 36  1  0  0  0  0
 35 37  1  0  0  0  0
 35 61  1  0  0  0  0
 36 68  1  0  0  0  0
 36 76  2  0  0  0  0
 37 68  1  0  0  0  0
 37 77  2  0  0  0  0
 38 40  1  0  0  0  0
 38 66  2  0  0  0  0
 39 72  1  0  0  0  0
 39 78  2  0  0  0  0
 40 69  1  0  0  0  0
 40 79  2  0  0  0  0
 41 54  1  0  0  0  0
 41 73  1  0  0  0  0
 41 80  2  0  0  0  0
 42 62  1  0  0  0  0
 42 70  1  0  0  0  0
 42 81  2  0  0  0  0
 43 63  1  0  0  0  0
 43 74  1  0  0  0  0
 43 82  2  0  0  0  0
 44 47  1  0  0  0  0
 45 54  1  0  0  0  0
 46 70  1  0  0  0  0
 47 49  1  0  0  0  0
 48 50  1  0  0  0  0
 48 51  1  0  0  0  0
 49 53  1  0  0  0  0
 50 55  1  0  0  0  0
 51 69  1  0  0  0  0
 52 55  1  0  0  0  0
 52 69  1  0  0  0  0
 53 73  1  0  0  0  0
 54 70  1  0  0  0  0
 55 67  1  0  0  0  0
 56 63  1  0  0  0  0
 57 64  1  0  0  0  0
 58 64  1  0  0  0  0
 59 64  1  0  0  0  0
 60 75  1  0  0  0  0
 61 84  1  0  0  0  0
 62 64  1  0  0  0  0
 62 74  1  0  0  0  0
 63 75  1  0  0  0  0
 65 67  1  0  0  0  0
M  CHG  1  75   1
M  ISO  4  38 100  40 100  61 101  84 101
M  END
> <Batch ID>
0081

> <Smiles>
CNC(C)C(=O)NC(C(=O)N1Cc2cc([101O:1][101CH2:1]C3=CC(=O)N(c4ccc([100C:0](=N)[100C:0](=O)N5CCCC(n6nc(-c7ccc(Oc8ccc(F)cc8F)cc7)c(C(N)=O)c6N)C5)cc4)C3=O)ccc2CC1C(=O)NC1CCCc2ccccc21)C(C)(C)C

> <Shape>
0.363

> <Color>
0.191

> <Negative vol penalty>
0.000

$$$$

  -OEChem-04052300043D

 85 94  0     1  0  0  0  0  0999 V2000
  -28.3042  -36.5463   23.5999 C   0  0  0  0  0  0  0  0  0  0  0  0
  -28.7027  -35.3170   23.0848 C   0  0  0  0  0  0  0  0  0  0  0  0
  -25.8133  -18.7991   16.7031 C   0  0  0  0  0  0  0  0  0  0  0  0
  -24.2577   -9.4749   21.8777 C   0  0  0  0  0  0  0  0  0  0  0  0
  -23.2241  -10.6866   20.0609 C   0  0  0  0  0  0  0  0  0  0  0  0
  -27.1564  -36.6323   24.3866 C   0  0  0  0  0  0  0  0  0  0  0  0
  -27.9540  -34.1725   23.3572 C   0  0  0  0  0  0  0  0  0  0  0  0
  -27.0336  -29.4018   19.6290 C   0  0  0  0  0  0  0  0  0  0  0  0
  -26.1790  -20.0450   17.2124 C   0  0  0  0  0  0  0  0  0  0  0  0
  -26.3681  -17.6366   17.2383 C   0  0  0  0  0  0  0  0  0  0  0  0
  -22.9970   -9.1335   22.3672 C   0  0  0  0  0  0  0  0  0  0  0  0
  -21.9634  -10.3452   20.5505 C   0  0  0  0  0  0  0  0  0  0  0  0
  -27.6384  -28.1486   19.5426 C   0  0  0  0  0  0  0  0  0  0  0  0
  -20.5720   -6.8880   21.6535 C   0  0  0  0  0  0  0  0  0  0  0  0
  -20.3661   -5.5661   22.0484 C   0  0  0  0  0  0  0  0  0  0  0  0
  -25.8683  -27.2085   20.8850 C   0  0  0  0  0  0  0  0  0  0  0  0
  -27.6544  -18.9660   18.7923 C   0  0  0  0  0  0  0  0  0  0  0  0
  -19.8472   -6.3155   24.2859 C   0  0  0  0  0  0  0  0  0  0  0  0
  -24.3712  -10.2515   20.7245 C   0  0  0  0  0  0  0  0  0  0  0  0
  -26.4509   -9.8825   19.2940 C   0  0  0  0  0  0  0  0  0  0  0  0
  -26.3879  -35.4899   24.6608 C   0  0  0  0  0  0  0  0  0  0  0  0
  -25.8454  -29.5702   20.3544 C   0  0  0  0  0  0  0  0  0  0  0  0
  -26.7956  -34.2430   24.1494 C   0  0  0  0  0  0  0  0  0  0  0  0
  -25.2491  -28.4644   20.9769 C   0  0  0  0  0  0  0  0  0  0  0  0
  -27.0996  -20.1285   18.2570 C   0  0  0  0  0  0  0  0  0  0  0  0
  -27.2887  -17.7201   18.2829 C   0  0  0  0  0  0  0  0  0  0  0  0
  -21.8499   -9.5686   21.7037 C   0  0  0  0  0  0  0  0  0  0  0  0
  -27.0573  -27.0523   20.1730 C   0  0  0  0  0  0  0  0  0  0  0  0
  -20.4155   -7.9236   22.5748 C   0  0  0  0  0  0  0  0  0  0  0  0
  -20.0037   -5.2799   23.3646 C   0  0  0  0  0  0  0  0  0  0  0  0
  -20.0531   -7.6373   23.8910 C   0  0  0  0  0  0  0  0  0  0  0  0
  -25.6732  -10.6050   20.2186 C   0  0  0  0  0  0  0  0  0  0  0  0
  -27.5916  -10.6328   19.1442 C   0  0  0  0  0  0  0  0  0  0  0  0
  -27.4102  -23.5706   19.3922 C   0  0  0  0  0  0  0  0  0  0  0  0
  -26.6264  -22.4778   18.7767 C   0  0  0  0  0  0  0  0  0  0  0  0
  -28.7113  -21.6493   19.3207 C   0  0  0  0  0  0  0  0  0  0  0  0
  -26.9335  -24.8084   19.5244 C   0  0  0  0  0  0  0  0  0  1  0  0
  -26.1675   -8.6439   18.6297 C   0  0  0  0  0  0  0  0  0  0  0  0
  -24.9961  -31.2650   22.9059 C   0  0  0  0  0  0  0  0  0  0  0  0
  -22.0359  -30.1618   22.1696 C   0  0  0  0  0  0  0  0  0  0  0  0
  -20.1290  -27.7765   20.6461 C   0  0  0  0  0  0  0  0  0  0  0  0
  -28.7786  -16.4447   19.8640 C   0  0  0  0  0  0  0  0  0  0  0  0
  -25.1812  -35.6243   25.5554 C   0  0  0  0  0  0  0  0  0  0  0  0
  -25.1914  -30.9233   20.4157 C   0  0  0  0  0  0  0  0  0  0  0  0
  -23.9630  -28.5882   21.7510 C   0  0  0  0  0  0  0  0  0  0  0  0
  -28.7437  -23.0761   19.8080 C   0  0  0  0  0  0  0  0  0  0  0  0
  -24.2359  -34.4276   25.4869 C   0  0  0  0  0  0  0  0  0  0  0  0
  -30.3780  -13.7245   21.5131 C   0  0  0  0  0  0  0  0  0  0  0  0
  -25.0199  -33.1222   25.5765 C   0  0  0  0  0  0  0  0  0  0  0  0
  -29.4268  -12.5487   21.2790 C   0  0  0  0  0  0  0  0  0  0  0  0
  -29.6198  -15.0332   21.7282 C   0  0  0  0  0  0  0  0  0  0  0  0
  -27.6918  -14.1880   20.4486 C   0  0  0  0  0  0  0  0  0  0  0  0
  -25.9961  -32.9832   24.4021 C   0  0  1  0  0  0  0  0  0  0  0  0
  -24.2566  -31.0815   21.6109 C   0  0  1  0  0  0  0  0  0  0  0  0
  -28.4108  -12.8595   20.1624 C   0  0  2  0  0  0  0  0  0  0  0  0
  -17.7390  -27.1237   20.2469 C   0  0  0  0  0  0  0  0  0  0  0  0
  -21.8350  -29.1505   25.0413 C   0  0  0  0  0  0  0  0  0  0  0  0
  -19.9083  -27.7192   24.3287 C   0  0  0  0  0  0  0  0  0  0  0  0
  -19.7455  -30.2025   24.1572 C   0  0  0  0  0  0  0  0  0  0  0  0
  -20.4363  -28.0019   17.7112 C   0  0  0  0  0  0  0  0  0  0  0  0
  -21.2262  -28.9429   22.5408 C   0  0  1  0  0  0  0  0  0  0  0  0
  -18.9404  -27.8847   19.7080 C   0  0  2  0  0  0  0  0  0  0  0  0
  -20.7040  -29.0015   24.0041 C   0  0  0  0  0  0  0  0  0  0  0  0
  -26.2696  -11.7280   20.6276 N   0  0  0  0  0  0  0  0  0  0  0  0
  -27.4341  -11.7167   19.9569 N   0  0  0  0  0  0  0  0  0  0  0  0
  -27.4639  -21.3730   18.7655 N   0  0  0  0  0  0  0  0  0  0  0  0
  -23.3653  -29.9332   21.7872 N   0  0  0  0  0  0  0  0  0  0  0  0
  -28.6791  -15.2637   20.6296 N   0  0  0  0  0  0  0  0  0  0  0  0
  -28.7039  -10.4644   18.3981 N   0  0  0  0  0  0  0  0  0  0  0  0
  -24.9490   -8.0054   18.8981 N   0  0  0  0  0  0  0  0  0  0  0  0
  -27.8519  -16.5388   18.8263 N   0  0  0  0  0  0  0  0  0  0  0  0
  -25.2911  -32.5817   23.2037 N   0  0  0  0  0  0  0  0  0  0  0  0
  -20.1752  -28.8293   21.5354 N   0  0  0  0  0  0  0  0  0  0  0  0
  -19.2856  -27.3303   18.3684 N   0  3  0  0  0  0  0  0  0  0  0  0
  -25.4804  -22.5740   18.3689 O   0  0  0  0  0  0  0  0  0  0  0  0
  -29.6600  -20.8807   19.4270 O   0  0  0  0  0  0  0  0  0  0  0  0
  -26.9780   -8.1106   17.8346 O   0  0  0  0  0  0  0  0  0  0  0  0
  -25.2770  -30.2846   23.5854 O   0  0  0  0  0  0  0  0  0  0  0  0
  -21.5061  -31.2751   22.2103 O   0  0  0  0  0  0  0  0  0  0  0  0
  -20.9337  -26.8488   20.5975 O   0  0  0  0  0  0  0  0  0  0  0  0
  -29.6411  -17.2962   20.0937 O   0  0  0  0  0  0  0  0  0  0  0  0
  -20.6195   -9.2354   22.1810 O   0  0  0  0  0  0  0  0  0  0  0  0
  -27.6458  -25.8280   20.0908 O   0  0  0  0  0  0  0  0  0  1  0  0
  -19.8045   -4.0106   23.7433 F   0  0  0  0  0  0  0  0  0  0  0  0
  -19.9002   -8.6281   24.7803 F   0  0  0  0  0  0  0  0  0  0  0  0
  1  2  1  0  0  0  0
  1  6  2  0  0  0  0
  2  7  2  0  0  0  0
  3  9  2  0  0  0  0
  3 10  1  0  0  0  0
  4 11  2  0  0  0  0
  4 19  1  0  0  0  0
  5 12  1  0  0  0  0
  5 19  2  0  0  0  0
  6 21  1  0  0  0  0
  7 23  1  0  0  0  0
  8 13  2  0  0  0  0
  8 22  1  0  0  0  0
  9 25  1  0  0  0  0
 10 26  2  0  0  0  0
 11 27  1  0  0  0  0
 12 27  2  0  0  0  0
 13 28  1  0  0  0  0
 14 15  2  0  0  0  0
 14 29  1  0  0  0  0
 15 30  1  0  0  0  0
 16 24  1  0  0  0  0
 16 28  2  0  0  0  0
 17 25  2  0  0  0  0
 17 26  1  0  0  0  0
 18 30  2  0  0  0  0
 18 31  1  0  0  0  0
 19 32  1  0  0  0  0
 20 32  1  0  0  0  0
 20 33  2  0  0  0  0
 20 38  1  0  0  0  0
 21 23  2  0  0  0  0
 21 43  1  0  0  0  0
 22 24  2  0  0  0  0
 22 44  1  0  0  0  0
 23 53  1  0  0  0  0
 24 45  1  0  0  0  0
 25 66  1  0  0  0  0
 26 71  1  0  0  0  0
 27 82  1  0  0  0  0
 28 83  1  0  0  0  0
 29 31  2  0  0  0  0
 29 82  1  0  0  0  0
 30 84  1  0  0  0  0
 31 85  1  0  0  0  0
 32 64  2  0  0  0  0
 33 65  1  0  0  0  0
 33 69  1  0  0  0  0
 34 35  1  0  0  0  0
 34 37  2  0  0  0  0
 34 46  1  0  0  0  0
 35 66  1  0  0  0  0
 35 75  2  0  0  0  0
 36 46  1  0  0  0  0
 36 66  1  0  0  0  0
 36 76  2  0  0  0  0
 37 83  1  0  0  0  0
 38 70  1  0  0  0  0
 38 77  2  0  0  0  0
 39 54  1  0  0  0  0
 39 72  1  0  0  0  0
 39 78  2  0  0  0  0
 40 61  1  0  0  0  0
 40 67  1  0  0  0  0
 40 79  2  0  0  0  0
 41 62  1  0  0  0  0
 41 73  1  0  0  0  0
 41 80  2  0  0  0  0
 42 68  1  0  0  0  0
 42 71  1  0  0  0  0
 42 81  2  0  0  0  0
 43 47  1  0  0  0  0
 44 54  1  0  0  0  0
 45 67  1  0  0  0  0
 47 49  1  0  0  0  0
 48 50  1  0  0  0  0
 48 51  1  0  0  0  0
 49 53  1  0  0  0  0
 50 55  1  0  0  0  0
 51 68  1  0  0  0  0
 52 55  1  0  0  0  0
 52 68  1  0  0  0  0
 53 72  1  0  0  0  0
 54 67  1  0  0  0  0
 55 65  1  0  0  0  0
 56 62  1  0  0  0  0
 57 63  1  0  0  0  0
 58 63  1  0  0  0  0
 59 63  1  0  0  0  0
 60 74  1  0  0  0  0
 61 63  1  0  0  0  0
 61 73  1  0  0  0  0
 62 74  1  0  0  0  0
 64 65  1  0  0  0  0
M  CHG  1  74   1
M  ISO  4  37 101  42 100  71 100  83 101
M  END
> <Batch ID>
0081

> <Smiles>
CNC(C)C(=O)NC(C(=O)N1Cc2cc([101O:1][101CH:1]=C3CC(=O)N(c4cccc([100NH:0][100C:0](=O)N5CCCC(n6nc(-c7ccc(Oc8ccc(F)cc8F)cc7)c(C(N)=O)c6N)C5)c4)C3=O)ccc2CC1C(=O)NC1CCCc2ccccc21)C(C)(C)C

> <Shape>
0.300

> <Color>
0.090

> <Negative vol penalty>
0.000

$$$$

  -OEChem-04052300043D

 82 90  0     1  0  0  0  0  0999 V2000
  -24.4745  -36.8490   27.2726 C   0  0  0  0  0  0  0  0  0  0  0  0
  -23.5812  -35.8900   26.8058 C   0  0  0  0  0  0  0  0  0  0  0  0
  -23.8201   -9.8924   22.1674 C   0  0  0  0  0  0  0  0  0  0  0  0
  -22.4533  -10.1904   20.1976 C   0  0  0  0  0  0  0  0  0  0  0  0
  -25.6342  -37.1294   26.5513 C   0  0  0  0  0  0  0  0  0  0  0  0
  -23.8467  -35.2116   25.6168 C   0  0  0  0  0  0  0  0  0  0  0  0
  -22.9034  -28.8314   22.4992 C   0  0  0  0  0  0  0  0  0  0  0  0
  -23.5158   -8.5312   22.1727 C   0  0  0  0  0  0  0  0  0  0  0  0
  -22.1490   -8.8291   20.2028 C   0  0  0  0  0  0  0  0  0  0  0  0
  -22.4032  -28.2697   21.3253 C   0  0  0  0  0  0  0  0  0  0  0  0
  -22.8091   -5.0420   22.9143 C   0  0  0  0  0  0  0  0  0  0  0  0
  -22.4681   -4.4569   24.1336 C   0  0  0  0  0  0  0  0  0  0  0  0
  -24.4774  -28.7804   20.2044 C   0  0  0  0  0  0  0  0  0  0  0  0
  -21.9445  -21.2531   19.7808 C   0  0  0  0  0  0  0  0  0  0  0  0
  -20.5966   -5.9713   24.3370 C   0  0  0  0  0  0  0  0  0  0  0  0
  -23.0744  -19.9991   18.2905 C   0  0  0  0  0  0  0  0  0  0  0  0
  -23.2888  -10.7221   21.1799 C   0  0  0  0  0  0  0  0  0  0  0  0
  -24.6798  -12.7566   20.5214 C   0  0  0  0  0  0  0  0  0  0  0  0
  -25.9189  -36.4472   25.3579 C   0  0  0  0  0  0  0  0  0  0  0  0
  -24.1924  -29.3826   22.5317 C   0  0  0  0  0  0  0  0  0  0  0  0
  -25.0108  -35.4841   24.8782 C   0  0  0  0  0  0  0  0  0  0  0  0
  -24.9925  -29.3462   21.3807 C   0  0  0  0  0  0  0  0  0  0  0  0
  -22.3570  -19.9352   19.4647 C   0  0  0  0  0  0  0  0  0  0  0  0
  -22.6803   -7.9995   21.1904 C   0  0  0  0  0  0  0  0  0  0  0  0
  -23.1892  -28.2467   20.1769 C   0  0  0  0  0  0  0  0  0  0  0  0
  -22.0440   -6.0919   22.4062 C   0  0  0  0  0  0  0  0  0  0  0  0
  -21.3619   -4.9215   24.8450 C   0  0  0  0  0  0  0  0  0  0  0  0
  -20.9377   -6.5565   23.1176 C   0  0  0  0  0  0  0  0  0  0  0  0
  -23.6023  -12.1284   21.1742 C   0  0  0  0  0  0  0  0  0  0  0  0
  -22.4222  -22.0824   18.7900 C   0  0  0  0  0  0  0  0  0  0  0  0
  -24.5344  -14.0887   20.8227 C   0  0  0  0  0  0  0  0  0  0  0  0
  -22.9162  -26.3674   18.8115 C   0  0  0  0  0  0  0  0  0  1  0  0
  -25.7191  -12.1869   19.7146 C   0  0  0  0  0  0  0  0  0  0  0  0
  -22.4898  -25.7109   17.7239 C   0  0  0  0  0  0  0  0  0  0  0  0
  -22.8127  -24.2540   17.5876 C   0  0  0  0  0  0  0  0  0  0  0  0
  -25.3796  -32.2809   23.0736 C   0  0  0  0  0  0  0  0  0  0  0  0
  -28.2200  -30.7237   22.9018 C   0  0  0  0  0  0  0  0  0  0  0  0
  -29.9865  -28.0367   21.7587 C   0  0  0  0  0  0  0  0  0  0  0  0
  -21.3743  -18.6381   21.3878 C   0  0  0  0  0  0  0  0  0  0  0  0
  -27.1618  -36.8182   24.5884 C   0  0  0  0  0  0  0  0  0  0  0  0
  -24.7271  -29.9607   23.8131 C   0  0  0  0  0  0  0  0  0  0  0  0
  -26.3905  -29.9065   21.3687 C   0  0  0  0  0  0  0  0  0  0  0  0
  -27.5546  -35.7882   23.5324 C   0  0  0  0  0  0  0  0  0  0  0  0
  -21.5049  -16.4006   24.1543 C   0  0  0  0  0  0  0  0  0  0  0  0
  -26.3361  -35.3695   22.7158 C   0  0  0  0  0  0  0  0  0  0  0  0
  -22.1508  -15.1413   23.5719 C   0  0  0  0  0  0  0  0  0  0  0  0
  -20.5751  -17.0779   23.1490 C   0  0  0  0  0  0  0  0  0  0  0  0
  -21.8253  -16.1091   21.2601 C   0  0  0  0  0  0  0  0  0  0  0  0
  -25.2760  -34.7093   23.6056 C   0  0  1  0  0  0  0  0  0  0  0  0
  -25.8622  -30.9557   23.5919 C   0  0  1  0  0  0  0  0  0  0  0  0
  -22.8206  -15.4281   22.2137 C   0  0  2  0  0  0  0  0  0  0  0  0
  -21.7538  -26.3363   16.5800 C   0  0  0  0  0  0  0  0  0  0  0  0
  -32.2978  -27.0594   21.7465 C   0  0  0  0  0  0  0  0  0  0  0  0
  -29.0693  -32.7646   20.7986 C   0  0  0  0  0  0  0  0  0  0  0  0
  -30.9332  -31.2219   20.1549 C   0  0  0  0  0  0  0  0  0  0  0  0
  -30.8453  -32.1761   22.4581 C   0  0  0  0  0  0  0  0  0  0  0  0
  -29.0882  -25.5980   23.1745 C   0  0  0  0  0  0  0  0  0  0  0  0
  -29.1885  -30.3854   21.7942 C   0  0  1  0  0  0  0  0  0  0  0  0
  -30.9530  -27.0962   22.4557 C   0  0  2  0  0  0  0  0  0  0  0  0
  -29.9821  -31.6281   21.3008 C   0  0  0  0  0  0  0  0  0  0  0  0
  -22.8295  -12.9906   21.8402 N   0  0  0  0  0  0  0  0  0  0  0  0
  -23.1072  -21.3092   17.8894 N   0  0  0  0  0  0  0  0  0  0  0  0
  -23.4221  -14.1741   21.6075 N   0  0  0  0  0  0  0  0  0  0  0  0
  -26.8660  -30.4666   22.6446 N   0  0  0  0  0  0  0  0  0  0  0  0
  -21.2790  -17.3224   21.8882 N   0  0  0  0  0  0  0  0  0  0  0  0
  -25.2507  -15.1836   20.4904 N   0  0  0  0  0  0  0  0  0  0  0  0
  -25.7191  -10.8009   19.5059 N   0  0  0  0  0  0  0  0  0  0  0  0
  -22.0945  -18.7522   20.1991 N   0  0  0  0  0  0  0  0  0  0  0  0
  -22.2984  -23.4829   18.6202 N   0  0  0  0  0  0  0  0  0  0  0  0
  -25.6511  -33.3455   23.9117 N   0  0  0  0  0  0  0  0  0  0  0  0
  -30.0264  -29.3039   22.3008 N   0  0  0  0  0  0  0  0  0  0  0  0
  -30.3992  -25.7130   22.4852 N   0  3  0  0  0  0  0  0  0  0  0  0
  -26.6304  -12.8840   19.2077 O   0  0  0  0  0  0  0  0  0  0  0  0
  -23.4273  -23.8700   16.5973 O   0  0  0  0  0  0  0  0  0  0  0  0
  -24.8049  -32.3339   21.9926 O   0  0  0  0  0  0  0  0  0  0  0  0
  -28.6499  -31.1920   23.9589 O   0  0  0  0  0  0  0  0  0  0  0  0
  -29.2706  -27.6837   20.8241 O   0  0  0  0  0  0  0  0  0  0  0  0
  -20.8786  -19.5971   21.9850 O   0  0  0  0  0  0  0  0  0  0  0  0
  -22.3833   -6.6712   21.1951 O   0  0  0  0  0  0  0  0  0  0  0  0
  -22.7032  -27.6996   19.0295 O   0  0  0  0  0  0  0  0  0  1  0  0
  -21.0336   -4.3584   26.0152 F   0  0  0  0  0  0  0  0  0  0  0  0
  -20.1981   -7.5639   22.6340 F   0  0  0  0  0  0  0  0  0  0  0  0
  1  2  1  0  0  0  0
  1  5  2  0  0  0  0
  2  6  2  0  0  0  0
  3  8  2  0  0  0  0
  3 17  1  0  0  0  0
  4  9  1  0  0  0  0
  4 17  2  0  0  0  0
  5 19  1  0  0  0  0
  6 21  1  0  0  0  0
  7 10  2  0  0  0  0
  7 20  1  0  0  0  0
  8 24  1  0  0  0  0
  9 24  2  0  0  0  0
 10 25  1  0  0  0  0
 11 12  2  0  0  0  0
 11 26  1  0  0  0  0
 12 27  1  0  0  0  0
 13 22  1  0  0  0  0
 13 25  2  0  0  0  0
 14 23  1  0  0  0  0
 14 30  2  0  0  0  0
 15 27  2  0  0  0  0
 15 28  1  0  0  0  0
 16 23  2  0  0  0  0
 16 62  1  0  0  0  0
 17 29  1  0  0  0  0
 18 29  1  0  0  0  0
 18 31  2  0  0  0  0
 18 33  1  0  0  0  0
 19 21  2  0  0  0  0
 19 40  1  0  0  0  0
 20 22  2  0  0  0  0
 20 41  1  0  0  0  0
 21 49  1  0  0  0  0
 22 42  1  0  0  0  0
 23 68  1  0  0  0  0
 24 79  1  0  0  0  0
 25 80  1  0  0  0  0
 26 28  2  0  0  0  0
 26 79  1  0  0  0  0
 27 81  1  0  0  0  0
 28 82  1  0  0  0  0
 29 61  2  0  0  0  0
 30 62  1  0  0  0  0
 30 69  1  0  0  0  0
 31 63  1  0  0  0  0
 31 66  1  0  0  0  0
 32 34  2  0  0  0  0
 32 80  1  0  0  0  0
 33 67  1  0  0  0  0
 33 73  2  0  0  0  0
 34 35  1  0  0  0  0
 34 52  1  0  0  0  0
 35 69  1  0  0  0  0
 35 74  2  0  0  0  0
 36 50  1  0  0  0  0
 36 70  1  0  0  0  0
 36 75  2  0  0  0  0
 37 58  1  0  0  0  0
 37 64  1  0  0  0  0
 37 76  2  0  0  0  0
 38 59  1  0  0  0  0
 38 71  1  0  0  0  0
 38 77  2  0  0  0  0
 39 65  1  0  0  0  0
 39 68  1  0  0  0  0
 39 78  2  0  0  0  0
 40 43  1  0  0  0  0
 41 50  1  0  0  0  0
 42 64  1  0  0  0  0
 43 45  1  0  0  0  0
 44 46  1  0  0  0  0
 44 47  1  0  0  0  0
 45 49  1  0  0  0  0
 46 51  1  0  0  0  0
 47 65  1  0  0  0  0
 48 51  1  0  0  0  0
 48 65  1  0  0  0  0
 49 70  1  0  0  0  0
 50 64  1  0  0  0  0
 51 63  1  0  0  0  0
 53 59  1  0  0  0  0
 54 60  1  0  0  0  0
 55 60  1  0  0  0  0
 56 60  1  0  0  0  0
 57 72  1  0  0  0  0
 58 60  1  0  0  0  0
 58 71  1  0  0  0  0
 59 72  1  0  0  0  0
 61 63  1  0  0  0  0
M  CHG  1  72   1
M  ISO  4  32 101  39 100  68 100  80 101
M  END
> <Batch ID>
0081

> <Smiles>
CNC(C)C(=O)NC(C(=O)N1Cc2cc([101O:1][101CH:1]=C(C)C(=O)Nc3cc([100NH:0][100C:0](=O)N4CCCC(n5nc(-c6ccc(Oc7ccc(F)cc7F)cc6)c(C(N)=O)c5N)C4)c[nH]3)ccc2CC1C(=O)NC1CCCc2ccccc21)C(C)(C)C

> <Shape>
0.244

> <Color>
0.101

> <Negative vol penalty>
0.000

$$$$

  -OEChem-04052300043D

 86 95  0     1  0  0  0  0  0999 V2000
  -25.9263  -29.3493   13.4889 C   0  0  0  0  0  0  0  0  0  0  0  0
  -26.7946  -28.3528   13.9230 C   0  0  0  0  0  0  0  0  0  0  0  0
  -29.6791  -19.1451   22.6939 C   0  0  0  0  0  0  0  0  0  0  0  0
  -22.6697  -10.1638   20.1790 C   0  0  0  0  0  0  0  0  0  0  0  0
  -24.3233   -9.4030   21.7676 C   0  0  0  0  0  0  0  0  0  0  0  0
  -25.6177  -30.4181   14.3294 C   0  0  0  0  0  0  0  0  0  0  0  0
  -27.3557  -28.4251   15.1975 C   0  0  0  0  0  0  0  0  0  0  0  0
  -27.2136  -23.9896   17.6372 C   0  0  0  0  0  0  0  0  0  0  0  0
  -30.5502  -19.8065   21.8283 C   0  0  0  0  0  0  0  0  0  0  0  0
  -29.5238  -17.7618   22.6045 C   0  0  0  0  0  0  0  0  0  0  0  0
  -21.9420   -8.9900   20.3742 C   0  0  0  0  0  0  0  0  0  0  0  0
  -23.5955   -8.2291   21.9629 C   0  0  0  0  0  0  0  0  0  0  0  0
  -28.1655  -23.0357   17.2800 C   0  0  0  0  0  0  0  0  0  0  0  0
  -20.8501   -7.2587   23.6780 C   0  0  0  0  0  0  0  0  0  0  0  0
  -20.6651   -6.8234   24.9901 C   0  0  0  0  0  0  0  0  0  0  0  0
  -29.4815  -23.6350   19.2109 C   0  0  0  0  0  0  0  0  0  0  0  0
  -31.1106  -17.7013   20.7837 C   0  0  0  0  0  0  0  0  0  0  0  0
  -21.8024   -4.7575   24.4653 C   0  0  0  0  0  0  0  0  0  0  0  0
  -23.8604  -10.3703   20.8756 C   0  0  0  0  0  0  0  0  0  0  0  0
  -24.1782  -12.9013   20.9051 C   0  0  0  0  0  0  0  0  0  0  0  0
  -26.1678  -30.4985   15.6185 C   0  0  0  0  0  0  0  0  0  0  0  0
  -27.3940  -24.7823   18.7798 C   0  0  0  0  0  0  0  0  0  0  0  0
  -27.0552  -29.4966   16.0555 C   0  0  0  0  0  0  0  0  0  0  0  0
  -28.5291  -24.5964   19.5818 C   0  0  0  0  0  0  0  0  0  0  0  0
  -31.2660  -19.0846   20.8732 C   0  0  0  0  0  0  0  0  0  0  0  0
  -30.2395  -17.0399   21.6494 C   0  0  0  0  0  0  0  0  0  0  0  0
  -22.4048   -8.0227   21.2662 C   0  0  0  0  0  0  0  0  0  0  0  0
  -29.3011  -22.8603   18.0653 C   0  0  0  0  0  0  0  0  0  0  0  0
  -21.5112   -6.4434   22.7593 C   0  0  0  0  0  0  0  0  0  0  0  0
  -21.1412   -5.5729   25.3838 C   0  0  0  0  0  0  0  0  0  0  0  0
  -21.9874   -5.1928   23.1530 C   0  0  0  0  0  0  0  0  0  0  0  0
  -24.6129  -11.5824   20.6739 C   0  0  0  0  0  0  0  0  0  0  0  0
  -25.2547  -13.6826   20.5626 C   0  0  0  0  0  0  0  0  0  0  0  0
  -34.1429  -21.0772   18.4428 C   0  0  0  0  0  0  0  0  0  0  0  0
  -31.7429  -20.7684   19.0980 C   0  0  0  0  0  0  0  0  0  0  0  0
  -34.8700  -21.1879   17.3224 C   0  0  0  0  0  0  0  0  0  0  0  0
  -22.9144  -13.3775   21.3865 C   0  0  0  0  0  0  0  0  0  0  0  0
  -30.4983  -20.9247   18.6051 C   0  0  0  0  0  0  0  0  0  1  0  0
  -27.7166  -27.8979   19.3204 C   0  0  0  0  0  0  0  0  0  0  0  0
  -27.5962  -26.9751   22.4279 C   0  0  0  0  0  0  0  0  0  0  0  0
  -28.0511  -24.5023   24.7355 C   0  0  0  0  0  0  0  0  0  0  0  0
  -30.7147  -14.7689   20.6680 C   0  0  0  0  0  0  0  0  0  0  0  0
  -25.8416  -31.6974   16.4734 C   0  0  0  0  0  0  0  0  0  0  0  0
  -26.3448  -25.7884   19.1661 C   0  0  0  0  0  0  0  0  0  0  0  0
  -28.7600  -25.4078   20.8295 C   0  0  0  0  0  0  0  0  0  0  0  0
  -32.8098  -21.7443   18.6282 C   0  0  0  0  0  0  0  0  0  0  0  0
  -34.5769  -20.2601   19.6228 C   0  0  0  0  0  0  0  0  0  0  0  0
  -26.1849  -31.5053   17.9483 C   0  0  0  0  0  0  0  0  0  0  0  0
  -29.5611  -12.4962   18.1818 C   0  0  0  0  0  0  0  0  0  0  0  0
  -27.5811  -30.9096   18.0983 C   0  0  0  0  0  0  0  0  0  0  0  0
  -28.1352  -12.1644   18.6275 C   0  0  0  0  0  0  0  0  0  0  0  0
  -33.5238  -19.2009   19.9453 C   0  0  0  0  0  0  0  0  0  0  0  0
  -30.5042  -12.6588   19.3725 C   0  0  0  0  0  0  0  0  0  0  0  0
  -28.6266  -13.2772   20.8427 C   0  0  0  0  0  0  0  0  0  0  0  0
  -27.6646  -29.5269   17.4404 C   0  0  1  0  0  0  0  0  0  0  0  0
  -26.8821  -26.8960   20.0671 C   0  0  1  0  0  0  0  0  0  0  0  0
  -27.6260  -13.1680   19.6806 C   0  0  2  0  0  0  0  0  0  0  0  0
  -29.3462  -20.0457   18.9718 C   0  0  0  0  0  0  0  0  0  0  0  0
  -27.9090  -24.0585   27.2013 C   0  0  0  0  0  0  0  0  0  0  0  0
  -30.2126  -28.4876   22.8484 C   0  0  0  0  0  0  0  0  0  0  0  0
  -30.5026  -27.2467   25.0035 C   0  0  0  0  0  0  0  0  0  0  0  0
  -28.5432  -28.7586   24.6907 C   0  0  0  0  0  0  0  0  0  0  0  0
  -25.9852  -22.4169   24.3588 C   0  0  0  0  0  0  0  0  0  0  0  0
  -28.6157  -26.5525   23.4579 C   0  0  1  0  0  0  0  0  0  0  0  0
  -27.1725  -24.0107   25.8716 C   0  0  2  0  0  0  0  0  0  0  0  0
  -29.4654  -27.7472   23.9756 C   0  0  0  0  0  0  0  0  0  0  0  0
  -25.8676  -11.5252   20.2196 N   0  0  0  0  0  0  0  0  0  0  0  0
  -26.2305  -12.8179   20.1624 N   0  0  0  0  0  0  0  0  0  0  0  0
  -32.1558  -19.7601   19.9899 N   0  0  0  0  0  0  0  0  0  0  0  0
  -27.7084  -26.3832   21.1618 N   0  0  0  0  0  0  0  0  0  0  0  0
  -29.9590  -13.6275   20.3260 N   0  0  0  0  0  0  0  0  0  0  0  0
  -25.4522  -15.0180   20.5677 N   0  0  0  0  0  0  0  0  0  0  0  0
  -21.9189  -12.4393   21.6911 N   0  0  0  0  0  0  0  0  0  0  0  0
  -30.0805  -15.6348   21.5582 N   0  0  0  0  0  0  0  0  0  0  0  0
  -27.0496  -28.5267   18.2865 N   0  0  0  0  0  0  0  0  0  0  0  0
  -27.8757  -25.8495   24.5003 N   0  0  0  0  0  0  0  0  0  0  0  0
  -26.7422  -22.6057   25.6231 N   0  3  0  0  0  0  0  0  0  0  0  0
  -22.6695  -14.5998   21.5263 O   0  0  0  0  0  0  0  0  0  0  0  0
  -28.8791  -28.0876   19.6584 O   0  0  0  0  0  0  0  0  0  0  0  0
  -26.7277  -27.7945   22.7374 O   0  0  0  0  0  0  0  0  0  0  0  0
  -28.8192  -23.7656   24.1208 O   0  0  0  0  0  0  0  0  0  0  0  0
  -31.8303  -14.9774   20.1843 O   0  0  0  0  0  0  0  0  0  0  0  0
  -21.6949   -6.8773   21.4572 O   0  0  0  0  0  0  0  0  0  0  0  0
  -30.2322  -21.9303   17.7187 O   0  0  0  0  0  0  0  0  0  1  0  0
  -20.9648   -5.1557   26.6444 F   0  0  0  0  0  0  0  0  0  0  0  0
  -22.6244   -4.4056   22.2753 F   0  0  0  0  0  0  0  0  0  0  0  0
  1  2  1  0  0  0  0
  1  6  2  0  0  0  0
  2  7  2  0  0  0  0
  3  9  2  0  0  0  0
  3 10  1  0  0  0  0
  4 11  2  0  0  0  0
  4 19  1  0  0  0  0
  5 12  1  0  0  0  0
  5 19  2  0  0  0  0
  6 21  1  0  0  0  0
  7 23  1  0  0  0  0
  8 13  2  0  0  0  0
  8 22  1  0  0  0  0
  9 25  1  0  0  0  0
 10 26  2  0  0  0  0
 11 27  1  0  0  0  0
 12 27  2  0  0  0  0
 13 28  1  0  0  0  0
 14 15  2  0  0  0  0
 14 29  1  0  0  0  0
 15 30  1  0  0  0  0
 16 24  1  0  0  0  0
 16 28  2  0  0  0  0
 17 25  2  0  0  0  0
 17 26  1  0  0  0  0
 18 30  2  0  0  0  0
 18 31  1  0  0  0  0
 19 32  1  0  0  0  0
 20 32  1  0  0  0  0
 20 33  2  0  0  0  0
 20 37  1  0  0  0  0
 21 23  2  0  0  0  0
 21 43  1  0  0  0  0
 22 24  2  0  0  0  0
 22 44  1  0  0  0  0
 23 55  1  0  0  0  0
 24 45  1  0  0  0  0
 25 69  1  0  0  0  0
 26 74  1  0  0  0  0
 27 83  1  0  0  0  0
 28 84  1  0  0  0  0
 29 31  2  0  0  0  0
 29 83  1  0  0  0  0
 30 85  1  0  0  0  0
 31 86  1  0  0  0  0
 32 67  2  0  0  0  0
 33 68  1  0  0  0  0
 33 72  1  0  0  0  0
 34 36  2  0  0  0  0
 34 46  1  0  0  0  0
 34 47  1  0  0  0  0
 35 38  2  0  0  0  0
 35 46  1  0  0  0  0
 35 69  1  0  0  0  0
 37 73  1  0  0  0  0
 37 78  2  0  0  0  0
 38 58  1  0  0  0  0
 38 84  1  0  0  0  0
 39 56  1  0  0  0  0
 39 75  1  0  0  0  0
 39 79  2  0  0  0  0
 40 64  1  0  0  0  0
 40 70  1  0  0  0  0
 40 80  2  0  0  0  0
 41 65  1  0  0  0  0
 41 76  1  0  0  0  0
 41 81  2  0  0  0  0
 42 71  1  0  0  0  0
 42 74  1  0  0  0  0
 42 82  2  0  0  0  0
 43 48  1  0  0  0  0
 44 56  1  0  0  0  0
 45 70  1  0  0  0  0
 47 52  1  0  0  0  0
 48 50  1  0  0  0  0
 49 51  1  0  0  0  0
 49 53  1  0  0  0  0
 50 55  1  0  0  0  0
 51 57  1  0  0  0  0
 52 69  1  0  0  0  0
 53 71  1  0  0  0  0
 54 57  1  0  0  0  0
 54 71  1  0  0  0  0
 55 75  1  0  0  0  0
 56 70  1  0  0  0  0
 57 68  1  0  0  0  0
 59 65  1  0  0  0  0
 60 66  1  0  0  0  0
 61 66  1  0  0  0  0
 62 66  1  0  0  0  0
 63 77  1  0  0  0  0
 64 66  1  0  0  0  0
 64 76  1  0  0  0  0
 65 77  1  0  0  0  0
 67 68  1  0  0  0  0
M  CHG  1  77   1
M  ISO  4  38 101  42 100  74 100  84 101
M  END
> <Batch ID>
0081

> <Smiles>
C=C1CCN(c2cccc([100NH:0][100C:0](=O)N3CCCC(n4nc(-c5ccc(Oc6ccc(F)cc6F)cc5)c(C(N)=O)c4N)C3)c2)C(=[101C:1](C)[101O:1]c2ccc3c(c2)CN(C(=O)C(NC(=O)C(C)NC)C(C)(C)C)C(C(=O)NC2CCCc4ccccc42)C3)C1

> <Shape>
0.261

> <Color>
0.203

> <Negative vol penalty>
0.000

$$$$

  -OEChem-04052300043D

 85 93  0     1  0  0  0  0  0999 V2000
  -30.4024  -33.7901   20.8225 C   0  0  0  0  0  0  0  0  0  0  0  0
  -30.2624  -32.5436   21.4241 C   0  0  0  0  0  0  0  0  0  0  0  0
  -32.6998  -17.0657   23.6148 C   0  0  0  0  0  0  0  0  0  0  0  0
  -23.0869   -9.9414   19.9821 C   0  0  0  0  0  0  0  0  0  0  0  0
  -23.9947   -9.9445   22.2210 C   0  0  0  0  0  0  0  0  0  0  0  0
  -29.2739  -34.4828   20.3858 C   0  0  0  0  0  0  0  0  0  0  0  0
  -28.9937  -31.9894   21.5904 C   0  0  0  0  0  0  0  0  0  0  0  0
  -28.8291  -27.0930   20.3086 C   0  0  0  0  0  0  0  0  0  0  0  0
  -32.2856  -18.3741   23.8639 C   0  0  0  0  0  0  0  0  0  0  0  0
  -32.0348  -16.2928   22.6629 C   0  0  0  0  0  0  0  0  0  0  0  0
  -22.3904   -8.7668   20.2661 C   0  0  0  0  0  0  0  0  0  0  0  0
  -23.2981   -8.7699   22.5051 C   0  0  0  0  0  0  0  0  0  0  0  0
  -29.3415  -26.1770   21.2263 C   0  0  0  0  0  0  0  0  0  0  0  0
  -20.1375   -7.8821   23.3069 C   0  0  0  0  0  0  0  0  0  0  0  0
  -19.4600   -7.8104   24.5240 C   0  0  0  0  0  0  0  0  0  0  0  0
  -27.1014  -25.6769   21.9687 C   0  0  0  0  0  0  0  0  0  0  0  0
  -30.5412  -18.1368   22.2092 C   0  0  0  0  0  0  0  0  0  0  0  0
  -20.7955   -5.8985   25.1548 C   0  0  0  0  0  0  0  0  0  0  0  0
  -23.8891  -10.5303   20.9595 C   0  0  0  0  0  0  0  0  0  0  0  0
  -24.1584  -13.0646   20.8478 C   0  0  0  0  0  0  0  0  0  0  0  0
  -27.9915  -33.9326   20.5381 C   0  0  0  0  0  0  0  0  0  0  0  0
  -27.4474  -27.3162   20.2215 C   0  0  0  0  0  0  0  0  0  0  0  0
  -27.8469  -32.6760   21.1566 C   0  0  0  0  0  0  0  0  0  0  0  0
  -26.5738  -26.5944   21.0473 C   0  0  0  0  0  0  0  0  0  0  0  0
  -31.2063  -18.9097   23.1611 C   0  0  0  0  0  0  0  0  0  0  0  0
  -30.9555  -16.8284   21.9601 C   0  0  0  0  0  0  0  0  0  0  0  0
  -22.4960   -8.1810   21.5276 C   0  0  0  0  0  0  0  0  0  0  0  0
  -28.4779  -25.4709   22.0585 C   0  0  0  0  0  0  0  0  0  0  0  0
  -21.1440   -6.9620   23.0136 C   0  0  0  0  0  0  0  0  0  0  0  0
  -19.7890   -6.8186   25.4480 C   0  0  0  0  0  0  0  0  0  0  0  0
  -21.4730   -5.9701   23.9376 C   0  0  0  0  0  0  0  0  0  0  0  0
  -24.6094  -11.7433   20.6666 C   0  0  0  0  0  0  0  0  0  0  0  0
  -25.2052  -13.8459   20.4232 C   0  0  0  0  0  0  0  0  0  0  0  0
  -28.9006  -16.1099   19.0111 C   0  0  0  0  0  0  0  0  0  0  0  0
  -29.1891  -16.5149   20.2498 C   0  0  0  0  0  0  0  0  0  0  0  0
  -29.1292  -23.2797   22.5534 C   0  0  0  0  0  0  0  0  0  1  0  0
  -22.9054  -13.5428   21.3547 C   0  0  0  0  0  0  0  0  0  0  0  0
  -29.6088  -22.3183   23.3518 C   0  0  0  0  0  0  0  0  0  0  0  0
  -29.7401  -20.9247   22.8143 C   0  0  0  0  0  0  0  0  0  0  0  0
  -25.5476  -29.8245   20.6716 C   0  0  0  0  0  0  0  0  0  0  0  0
  -23.2672  -27.8058   19.5550 C   0  0  0  0  0  0  0  0  0  0  0  0
  -22.2293  -24.5910   19.0701 C   0  0  0  0  0  0  0  0  0  0  0  0
  -30.8055  -14.7610   20.6184 C   0  0  0  0  0  0  0  0  0  0  0  0
  -26.7977  -34.7398   20.0932 C   0  0  0  0  0  0  0  0  0  0  0  0
  -26.9087  -28.2881   19.2078 C   0  0  0  0  0  0  0  0  0  0  0  0
  -25.0810  -26.7825   20.9791 C   0  0  0  0  0  0  0  0  0  0  0  0
  -25.5183  -33.9167   19.9678 C   0  0  0  0  0  0  0  0  0  0  0  0
  -29.4275  -12.6479   17.9273 C   0  0  0  0  0  0  0  0  0  0  0  0
  -25.3329  -33.0282   21.1938 C   0  0  0  0  0  0  0  0  0  0  0  0
  -28.0396  -12.2860   18.4536 C   0  0  0  0  0  0  0  0  0  0  0  0
  -30.4233  -12.8734   19.0612 C   0  0  0  0  0  0  0  0  0  0  0  0
  -28.5872  -13.5162   20.5914 C   0  0  0  0  0  0  0  0  0  0  0  0
  -26.4894  -32.0308   21.3323 C   0  0  1  0  0  0  0  0  0  0  0  0
  -25.5203  -28.8122   19.5616 C   0  0  1  0  0  0  0  0  0  0  0  0
  -27.5499  -13.3282   19.4740 C   0  0  2  0  0  0  0  0  0  0  0  0
  -20.3046  -23.2573   18.1678 C   0  0  0  0  0  0  0  0  0  0  0  0
  -21.6541  -28.4392   22.0663 C   0  0  0  0  0  0  0  0  0  0  0  0
  -20.2501  -26.4220   21.5888 C   0  0  0  0  0  0  0  0  0  0  0  0
  -20.3053  -28.3140   19.9640 C   0  0  0  0  0  0  0  0  0  0  0  0
  -23.9298  -23.3108   17.0138 C   0  0  0  0  0  0  0  0  0  0  0  0
  -22.3239  -26.8072   20.1811 C   0  0  1  0  0  0  0  0  0  0  0  0
  -21.6503  -23.8922   17.8532 C   0  0  2  0  0  0  0  0  0  0  0  0
  -21.1616  -27.4932   20.9529 C   0  0  0  0  0  0  0  0  0  0  0  0
  -25.8462  -11.6848   20.1657 N   0  0  0  0  0  0  0  0  0  0  0  0
  -26.1813  -12.9790   20.0285 N   0  0  0  0  0  0  0  0  0  0  0  0
  -24.6033  -27.7486   19.9762 N   0  0  0  0  0  0  0  0  0  0  0  0
  -29.9127  -13.8363   20.0377 N   0  0  0  0  0  0  0  0  0  0  0  0
  -25.3767  -15.1831   20.3527 N   0  0  0  0  0  0  0  0  0  0  0  0
  -21.9410  -12.6042   21.7462 N   0  0  0  0  0  0  0  0  0  0  0  0
  -30.7867  -20.2380   23.4141 N   0  0  0  0  0  0  0  0  0  0  0  0
  -26.3253  -30.9344   20.4019 N   0  0  0  0  0  0  0  0  0  0  0  0
  -21.8875  -25.9265   19.1030 N   0  0  0  0  0  0  0  0  0  0  0  0
  -30.2654  -16.0253   20.9716 N   0  0  0  0  0  0  0  0  0  0  0  0
  -22.5752  -22.8235   17.3807 N   0  3  0  0  0  0  0  0  0  0  0  0
  -22.6424  -14.7662   21.4421 O   0  0  0  0  0  0  0  0  0  0  0  0
  -28.9777  -20.5090   21.9483 O   0  0  0  0  0  0  0  0  0  0  0  0
  -24.9090  -29.6149   21.6963 O   0  0  0  0  0  0  0  0  0  0  0  0
  -22.8360  -28.6024   18.7176 O   0  0  0  0  0  0  0  0  0  0  0  0
  -22.9131  -24.0096   19.9097 O   0  0  0  0  0  0  0  0  0  0  0  0
  -32.0020  -14.4924   20.7872 O   0  0  0  0  0  0  0  0  0  0  0  0
  -29.9908  -22.5585   24.6560 O   0  0  0  0  0  0  0  0  0  0  0  0
  -21.8162   -7.0349   21.8051 O   0  0  0  0  0  0  0  0  0  0  0  0
  -28.9754  -24.5767   22.9556 O   0  0  0  0  0  0  0  0  0  1  0  0
  -19.1394   -6.7508   26.6174 F   0  0  0  0  0  0  0  0  0  0  0  0
  -22.4398   -5.0841   23.6620 F   0  0  0  0  0  0  0  0  0  0  0  0
  1  2  1  0  0  0  0
  1  6  2  0  0  0  0
  2  7  2  0  0  0  0
  3  9  1  0  0  0  0
  3 10  2  0  0  0  0
  4 11  2  0  0  0  0
  4 19  1  0  0  0  0
  5 12  1  0  0  0  0
  5 19  2  0  0  0  0
  6 21  1  0  0  0  0
  7 23  1  0  0  0  0
  8 13  2  0  0  0  0
  8 22  1  0  0  0  0
  9 25  2  0  0  0  0
 10 26  1  0  0  0  0
 11 27  1  0  0  0  0
 12 27  2  0  0  0  0
 13 28  1  0  0  0  0
 14 15  2  0  0  0  0
 14 29  1  0  0  0  0
 15 30  1  0  0  0  0
 16 24  1  0  0  0  0
 16 28  2  0  0  0  0
 17 25  1  0  0  0  0
 17 26  2  0  0  0  0
 18 30  2  0  0  0  0
 18 31  1  0  0  0  0
 19 32  1  0  0  0  0
 20 32  1  0  0  0  0
 20 33  2  0  0  0  0
 20 37  1  0  0  0  0
 21 23  2  0  0  0  0
 21 44  1  0  0  0  0
 22 24  2  0  0  0  0
 22 45  1  0  0  0  0
 23 53  1  0  0  0  0
 24 46  1  0  0  0  0
 25 70  1  0  0  0  0
 26 73  1  0  0  0  0
 27 82  1  0  0  0  0
 28 83  1  0  0  0  0
 29 31  2  0  0  0  0
 29 82  1  0  0  0  0
 30 84  1  0  0  0  0
 31 85  1  0  0  0  0
 32 64  2  0  0  0  0
 33 65  1  0  0  0  0
 33 68  1  0  0  0  0
 34 35  2  0  0  0  0
 35 73  1  0  0  0  0
 36 38  2  0  0  0  0
 36 83  1  0  0  0  0
 37 69  1  0  0  0  0
 37 75  2  0  0  0  0
 38 39  1  0  0  0  0
 38 81  1  0  0  0  0
 39 70  1  0  0  0  0
 39 76  2  0  0  0  0
 40 54  1  0  0  0  0
 40 71  1  0  0  0  0
 40 77  2  0  0  0  0
 41 61  1  0  0  0  0
 41 66  1  0  0  0  0
 41 78  2  0  0  0  0
 42 62  1  0  0  0  0
 42 72  1  0  0  0  0
 42 79  2  0  0  0  0
 43 67  1  0  0  0  0
 43 73  1  0  0  0  0
 43 80  2  0  0  0  0
 44 47  1  0  0  0  0
 45 54  1  0  0  0  0
 46 66  1  0  0  0  0
 47 49  1  0  0  0  0
 48 50  1  0  0  0  0
 48 51  1  0  0  0  0
 49 53  1  0  0  0  0
 50 55  1  0  0  0  0
 51 67  1  0  0  0  0
 52 55  1  0  0  0  0
 52 67  1  0  0  0  0
 53 71  1  0  0  0  0
 54 66  1  0  0  0  0
 55 65  1  0  0  0  0
 56 62  1  0  0  0  0
 57 63  1  0  0  0  0
 58 63  1  0  0  0  0
 59 63  1  0  0  0  0
 60 74  1  0  0  0  0
 61 63  1  0  0  0  0
 61 72  1  0  0  0  0
 62 74  1  0  0  0  0
 64 65  1  0  0  0  0
M  CHG  1  74   1
M  ISO  4  36 101  43 100  73 100  83 101
M  END
> <Batch ID>
0081

> <Smiles>
C=C[100N:0](c1cccc(NC(=O)C(=O)[101CH2:1][101O:1]c2ccc3c(c2)CN(C(=O)C(NC(=O)C(C)NC)C(C)(C)C)C(C(=O)NC2CCCc4ccccc42)C3)c1)[100C:0](=O)N1CCCC(n2nc(-c3ccc(Oc4ccc(F)cc4F)cc3)c(C(N)=O)c2N)C1

> <Shape>
0.289

> <Color>
0.191

> <Negative vol penalty>
0.000

$$$$

  -OEChem-04052300043D

 85 94  0     1  0  0  0  0  0999 V2000
  -18.0258  -12.2484   24.4558 C   0  0  0  0  0  0  0  0  0  0  0  0
  -19.3161  -12.6979   24.7175 C   0  0  0  0  0  0  0  0  0  0  0  0
  -32.6519  -17.4897   23.4573 C   0  0  0  0  0  0  0  0  0  0  0  0
  -23.0735   -9.8699   19.9415 C   0  0  0  0  0  0  0  0  0  0  0  0
  -23.8315   -9.8778   22.2355 C   0  0  0  0  0  0  0  0  0  0  0  0
  -17.0060  -13.1662   24.2075 C   0  0  0  0  0  0  0  0  0  0  0  0
  -19.5876  -14.0656   24.7300 C   0  0  0  0  0  0  0  0  0  0  0  0
  -23.5879  -16.9921   28.3270 C   0  0  0  0  0  0  0  0  0  0  0  0
  -31.8541  -18.3575   24.2030 C   0  0  0  0  0  0  0  0  0  0  0  0
  -32.0640  -16.6055   22.5527 C   0  0  0  0  0  0  0  0  0  0  0  0
  -22.3285   -8.7175   20.1916 C   0  0  0  0  0  0  0  0  0  0  0  0
  -23.0864   -8.7254   22.4856 C   0  0  0  0  0  0  0  0  0  0  0  0
  -24.8922  -17.4356   28.1126 C   0  0  0  0  0  0  0  0  0  0  0  0
  -19.3784   -7.9243   21.6410 C   0  0  0  0  0  0  0  0  0  0  0  0
  -18.0719   -7.8788   21.1546 C   0  0  0  0  0  0  0  0  0  0  0  0
  -24.0505  -19.6306   27.5714 C   0  0  0  0  0  0  0  0  0  0  0  0
  -29.8805  -17.4567   23.1398 C   0  0  0  0  0  0  0  0  0  0  0  0
  -18.6311   -5.9344   19.8342 C   0  0  0  0  0  0  0  0  0  0  0  0
  -23.8251  -10.4500   20.9634 C   0  0  0  0  0  0  0  0  0  0  0  0
  -24.1691  -12.9748   20.8420 C   0  0  0  0  0  0  0  0  0  0  0  0
  -17.2631  -14.5461   24.2265 C   0  0  0  0  0  0  0  0  0  0  0  0
  -22.5026  -17.8631   28.1543 C   0  0  0  0  0  0  0  0  0  0  0  0
  -18.5705  -15.0027   24.4804 C   0  0  0  0  0  0  0  0  0  0  0  0
  -22.7336  -19.1963   27.7866 C   0  0  0  0  0  0  0  0  0  0  0  0
  -30.4684  -18.3410   24.0443 C   0  0  0  0  0  0  0  0  0  0  0  0
  -30.6783  -16.5889   22.3940 C   0  0  0  0  0  0  0  0  0  0  0  0
  -22.3349   -8.1453   21.4637 C   0  0  0  0  0  0  0  0  0  0  0  0
  -25.1235  -18.7542   27.7319 C   0  0  0  0  0  0  0  0  0  0  0  0
  -20.3113   -6.9749   21.2238 C   0  0  0  0  0  0  0  0  0  0  0  0
  -17.6982   -6.8839   20.2513 C   0  0  0  0  0  0  0  0  0  0  0  0
  -19.9377   -5.9799   20.3205 C   0  0  0  0  0  0  0  0  0  0  0  0
  -24.5953  -11.6401   20.7055 C   0  0  0  0  0  0  0  0  0  0  0  0
  -25.2621  -13.7232   20.4791 C   0  0  0  0  0  0  0  0  0  0  0  0
  -28.9181  -21.0172   25.9672 C   0  0  0  0  0  0  0  0  0  0  0  0
  -27.9269  -20.1283   25.9530 C   0  0  0  0  0  0  0  0  0  0  0  0
  -30.0608  -20.4535   25.2345 C   0  0  0  0  0  0  0  0  0  0  0  0
  -28.3779  -18.9481   25.1901 C   0  0  0  0  0  0  0  0  0  0  0  0
  -22.8987  -13.4920   21.2595 C   0  0  0  0  0  0  0  0  0  0  0  0
  -19.9702  -17.9381   26.2346 C   0  0  0  0  0  0  0  0  0  0  0  0
  -19.1427  -20.4825   28.0686 C   0  0  0  0  0  0  0  0  0  0  0  0
  -20.1356  -23.0029   30.1443 C   0  0  0  0  0  0  0  0  0  0  0  0
  -30.7290  -14.7644   20.6577 C   0  0  0  0  0  0  0  0  0  0  0  0
  -16.1385  -15.4985   23.9057 C   0  0  0  0  0  0  0  0  0  0  0  0
  -21.1035  -17.3764   28.4154 C   0  0  0  0  0  0  0  0  0  0  0  0
  -21.6042  -20.1767   27.6076 C   0  0  0  0  0  0  0  0  0  0  0  0
  -16.4297  -16.9422   24.3072 C   0  0  0  0  0  0  0  0  0  0  0  0
  -29.6146  -12.3499   18.2901 C   0  0  0  0  0  0  0  0  0  0  0  0
  -17.8291  -17.3496   23.8573 C   0  0  0  0  0  0  0  0  0  0  0  0
  -28.1744  -12.0598   18.7187 C   0  0  0  0  0  0  0  0  0  0  0  0
  -30.5289  -12.5788   19.4924 C   0  0  0  0  0  0  0  0  0  0  0  0
  -28.6214  -13.3057   20.8715 C   0  0  0  0  0  0  0  0  0  0  0  0
  -18.8992  -16.4791   24.5272 C   0  0  1  0  0  0  0  0  0  0  0  0
  -20.0390  -18.2115   27.7104 C   0  0  1  0  0  0  0  0  0  0  0  0
  -27.6494  -13.1325   19.6930 C   0  0  2  0  0  0  0  0  0  0  0  0
  -19.2366  -24.9443   31.4557 C   0  0  0  0  0  0  0  0  0  0  0  0
  -18.8606  -22.0901   25.4906 C   0  0  0  0  0  0  0  0  0  0  0  0
  -18.9063  -24.1788   26.8703 C   0  0  0  0  0  0  0  0  0  0  0  0
  -17.0732  -22.5168   27.1869 C   0  0  0  0  0  0  0  0  0  0  0  0
  -21.0681  -21.8531   32.7070 C   0  0  0  0  0  0  0  0  0  0  0  0
  -26.5755  -20.2293   26.5607 C   0  0  0  0  0  0  0  0  0  1  0  0
  -19.3992  -21.9691   28.0128 C   0  0  1  0  0  0  0  0  0  0  0  0
  -19.6049  -23.4692   31.4880 C   0  0  2  0  0  0  0  0  0  0  0  0
  -18.5812  -22.6700   26.8915 C   0  0  0  0  0  0  0  0  0  0  0  0
  -25.8605  -11.5429   20.2884 N   0  0  0  0  0  0  0  0  0  0  0  0
  -26.2385  -12.8261   20.1595 N   0  0  0  0  0  0  0  0  0  0  0  0
  -29.6738  -19.2065   24.7876 N   0  0  0  0  0  0  0  0  0  0  0  0
  -20.2539  -19.6513   27.8685 N   0  0  0  0  0  0  0  0  0  0  0  0
  -29.9701  -13.6106   20.3686 N   0  0  0  0  0  0  0  0  0  0  0  0
  -25.4737  -15.0544   20.4054 N   0  0  0  0  0  0  0  0  0  0  0  0
  -21.8857  -12.5838   21.5965 N   0  0  0  0  0  0  0  0  0  0  0  0
  -30.0817  -15.6905   21.4749 N   0  0  0  0  0  0  0  0  0  0  0  0
  -19.1165  -16.9068   25.8926 N   0  0  0  0  0  0  0  0  0  0  0  0
  -19.1345  -22.4797   29.3536 N   0  0  0  0  0  0  0  0  0  0  0  0
  -20.6307  -23.2641   32.5495 N   0  3  0  0  0  0  0  0  0  0  0  0
  -31.1235  -21.0346   25.0858 O   0  0  0  0  0  0  0  0  0  0  0  0
  -27.6932  -17.9581   24.9872 O   0  0  0  0  0  0  0  0  0  0  0  0
  -22.6634  -14.7228   21.3158 O   0  0  0  0  0  0  0  0  0  0  0  0
  -20.6408  -18.6140   25.4630 O   0  0  0  0  0  0  0  0  0  0  0  0
  -17.9998  -20.0739   28.2889 O   0  0  0  0  0  0  0  0  0  0  0  0
  -21.3191  -23.0970   29.8265 O   0  0  0  0  0  0  0  0  0  0  0  0
  -31.8587  -14.9319   20.1909 O   0  0  0  0  0  0  0  0  0  0  0  0
  -21.6078   -7.0210   21.7082 O   0  0  0  0  0  0  0  0  0  0  0  0
  -26.3955  -19.1895   27.5214 O   0  0  0  0  0  0  0  0  0  1  0  0
  -16.4431   -6.8394   19.7856 F   0  0  0  0  0  0  0  0  0  0  0  0
  -20.8292   -5.0644   19.9170 F   0  0  0  0  0  0  0  0  0  0  0  0
  1  2  1  0  0  0  0
  1  6  2  0  0  0  0
  2  7  2  0  0  0  0
  3  9  2  0  0  0  0
  3 10  1  0  0  0  0
  4 11  2  0  0  0  0
  4 19  1  0  0  0  0
  5 12  1  0  0  0  0
  5 19  2  0  0  0  0
  6 21  1  0  0  0  0
  7 23  1  0  0  0  0
  8 13  2  0  0  0  0
  8 22  1  0  0  0  0
  9 25  1  0  0  0  0
 10 26  2  0  0  0  0
 11 27  1  0  0  0  0
 12 27  2  0  0  0  0
 13 28  1  0  0  0  0
 14 15  2  0  0  0  0
 14 29  1  0  0  0  0
 15 30  1  0  0  0  0
 16 24  1  0  0  0  0
 16 28  2  0  0  0  0
 17 25  2  0  0  0  0
 17 26  1  0  0  0  0
 18 30  2  0  0  0  0
 18 31  1  0  0  0  0
 19 32  1  0  0  0  0
 20 32  1  0  0  0  0
 20 33  2  0  0  0  0
 20 38  1  0  0  0  0
 21 23  2  0  0  0  0
 21 43  1  0  0  0  0
 22 24  2  0  0  0  0
 22 44  1  0  0  0  0
 23 52  1  0  0  0  0
 24 45  1  0  0  0  0
 25 66  1  0  0  0  0
 26 71  1  0  0  0  0
 27 82  1  0  0  0  0
 28 83  1  0  0  0  0
 29 31  2  0  0  0  0
 29 82  1  0  0  0  0
 30 84  1  0  0  0  0
 31 85  1  0  0  0  0
 32 64  2  0  0  0  0
 33 65  1  0  0  0  0
 33 69  1  0  0  0  0
 34 35  2  0  0  0  0
 34 36  1  0  0  0  0
 35 37  1  0  0  0  0
 35 60  1  0  0  0  0
 36 66  1  0  0  0  0
 36 75  2  0  0  0  0
 37 66  1  0  0  0  0
 37 76  2  0  0  0  0
 38 70  1  0  0  0  0
 38 77  2  0  0  0  0
 39 53  1  0  0  0  0
 39 72  1  0  0  0  0
 39 78  2  0  0  0  0
 40 61  1  0  0  0  0
 40 67  1  0  0  0  0
 40 79  2  0  0  0  0
 41 62  1  0  0  0  0
 41 73  1  0  0  0  0
 41 80  2  0  0  0  0
 42 68  1  0  0  0  0
 42 71  1  0  0  0  0
 42 81  2  0  0  0  0
 43 46  1  0  0  0  0
 44 53  1  0  0  0  0
 45 67  1  0  0  0  0
 46 48  1  0  0  0  0
 47 49  1  0  0  0  0
 47 50  1  0  0  0  0
 48 52  1  0  0  0  0
 49 54  1  0  0  0  0
 50 68  1  0  0  0  0
 51 54  1  0  0  0  0
 51 68  1  0  0  0  0
 52 72  1  0  0  0  0
 53 67  1  0  0  0  0
 54 65  1  0  0  0  0
 55 62  1  0  0  0  0
 56 63  1  0  0  0  0
 57 63  1  0  0  0  0
 58 63  1  0  0  0  0
 59 74  1  0  0  0  0
 60 83  1  0  0  0  0
 61 63  1  0  0  0  0
 61 73  1  0  0  0  0
 62 74  1  0  0  0  0
 64 65  1  0  0  0  0
M  CHG  1  74   1
M  ISO  4  42 100  60 101  71 100  83 101
M  END
> <Batch ID>
0081

> <Smiles>
CNC(C)C(=O)NC(C(=O)N1Cc2cc([101O:1][101CH2:1]C3=CC(=O)N(c4cccc([100NH:0][100C:0](=O)N5CCCC(n6nc(-c7ccc(Oc8ccc(F)cc8F)cc7)c(C(N)=O)c6N)C5)c4)C3=O)ccc2CC1C(=O)NC1CCCc2ccccc21)C(C)(C)C

> <Shape>
0.145

> <Color>
0.187

> <Negative vol penalty>
0.000

$$$$

  -OEChem-04052300043D

 85 94  0     1  0  0  0  0  0999 V2000
  -28.7701  -34.6849   16.2330 C   0  0  0  0  0  0  0  0  0  0  0  0
  -28.8642  -33.3872   16.7256 C   0  0  0  0  0  0  0  0  0  0  0  0
  -24.0814   -9.6965   22.2603 C   0  0  0  0  0  0  0  0  0  0  0  0
  -24.5297  -11.3748   23.9394 C   0  0  0  0  0  0  0  0  0  0  0  0
  -28.4027  -35.7271   17.0832 C   0  0  0  0  0  0  0  0  0  0  0  0
  -28.5919  -33.1312   18.0690 C   0  0  0  0  0  0  0  0  0  0  0  0
  -25.6805  -29.0383   18.7151 C   0  0  0  0  0  0  0  0  0  0  0  0
  -28.1782  -20.5473   19.3038 C   0  0  0  0  0  0  0  0  0  0  0  0
  -30.5677  -20.2134   19.1796 C   0  0  0  0  0  0  0  0  0  0  0  0
  -27.9816  -19.1684   19.2292 C   0  0  0  0  0  0  0  0  0  0  0  0
  -30.3712  -18.8344   19.1050 C   0  0  0  0  0  0  0  0  0  0  0  0
  -23.6769   -8.8079   23.2565 C   0  0  0  0  0  0  0  0  0  0  0  0
  -24.1252  -10.4862   24.9356 C   0  0  0  0  0  0  0  0  0  0  0  0
  -26.2997  -27.7936   18.6108 C   0  0  0  0  0  0  0  0  0  0  0  0
  -20.9327   -8.2812   25.1603 C   0  0  0  0  0  0  0  0  0  0  0  0
  -19.7616   -7.5548   24.9446 C   0  0  0  0  0  0  0  0  0  0  0  0
  -26.3980  -27.6476   21.0167 C   0  0  0  0  0  0  0  0  0  0  0  0
  -21.0097   -5.4929   25.1116 C   0  0  0  0  0  0  0  0  0  0  0  0
  -24.5078  -10.9800   22.6017 C   0  0  0  0  0  0  0  0  0  0  0  0
  -24.1197  -12.8148   20.8725 C   0  0  0  0  0  0  0  0  0  0  0  0
  -28.1163  -35.4821   18.4355 C   0  0  0  0  0  0  0  0  0  0  0  0
  -25.4248  -29.6029   19.9730 C   0  0  0  0  0  0  0  0  0  0  0  0
  -28.2215  -34.1712   18.9383 C   0  0  0  0  0  0  0  0  0  0  0  0
  -25.7731  -28.8985   21.1343 C   0  0  0  0  0  0  0  0  0  0  0  0
  -29.4712  -21.0698   19.2789 C   0  0  0  0  0  0  0  0  0  0  0  0
  -29.0781  -18.3119   19.1298 C   0  0  0  0  0  0  0  0  0  0  0  0
  -23.6988   -9.2027   24.5941 C   0  0  0  0  0  0  0  0  0  0  0  0
  -26.6612  -27.0993   19.7617 C   0  0  0  0  0  0  0  0  0  0  0  0
  -22.1423   -7.6134   25.3516 C   0  0  0  0  0  0  0  0  0  0  0  0
  -19.8001   -6.1607   24.9202 C   0  0  0  0  0  0  0  0  0  0  0  0
  -22.1809   -6.2193   25.3273 C   0  0  0  0  0  0  0  0  0  0  0  0
  -24.9262  -11.8982   21.5732 C   0  0  0  0  0  0  0  0  0  0  0  0
  -24.9847  -13.4457   20.0122 C   0  0  0  0  0  0  0  0  0  0  0  0
  -29.3278  -24.7162   19.5040 C   0  0  0  0  0  0  0  0  0  0  0  0
  -30.7548  -24.5267   19.4313 C   0  0  0  0  0  0  0  0  0  0  0  0
  -28.6384  -23.3967   19.4548 C   0  0  0  0  0  0  0  0  0  0  0  0
  -31.7175  -25.4548   19.4459 C   0  0  0  0  0  0  0  0  0  0  0  0
  -28.6312  -25.8485   19.6019 C   0  0  0  0  0  0  0  0  0  1  0  0
  -22.7142  -13.0731   20.9890 C   0  0  0  0  0  0  0  0  0  0  0  0
  -26.3627  -32.2392   21.4810 C   0  0  0  0  0  0  0  0  0  0  0  0
  -24.2161  -31.2612   23.7076 C   0  0  0  0  0  0  0  0  0  0  0  0
  -22.4622  -28.6904   25.1083 C   0  0  0  0  0  0  0  0  0  0  0  0
  -29.8573  -15.9229   18.9518 C   0  0  0  0  0  0  0  0  0  0  0  0
  -27.7691  -36.6482   19.3267 C   0  0  0  0  0  0  0  0  0  0  0  0
  -24.7319  -30.9345   20.0688 C   0  0  0  0  0  0  0  0  0  0  0  0
  -25.5022  -29.4518   22.5087 C   0  0  0  0  0  0  0  0  0  0  0  0
  -30.9975  -23.0509   19.3321 C   0  0  0  0  0  0  0  0  0  0  0  0
  -27.1331  -36.2342   20.6513 C   0  0  0  0  0  0  0  0  0  0  0  0
  -29.7741  -12.3676   18.7787 C   0  0  0  0  0  0  0  0  0  0  0  0
  -27.9175  -35.0899   21.2855 C   0  0  0  0  0  0  0  0  0  0  0  0
  -28.4391  -12.0039   19.4327 C   0  0  0  0  0  0  0  0  0  0  0  0
  -30.4354  -13.5613   19.4654 C   0  0  0  0  0  0  0  0  0  0  0  0
  -28.2510  -14.3885   20.2483 C   0  0  0  0  0  0  0  0  0  0  0  0
  -27.9099  -33.8496   20.3839 C   0  0  1  0  0  0  0  0  0  0  0  0
  -24.9850  -31.6458   21.3945 C   0  0  1  0  0  0  0  0  0  0  0  0
  -27.5160  -13.2326   19.5503 C   0  0  2  0  0  0  0  0  0  0  0  0
  -20.8160  -28.1944   26.9362 C   0  0  0  0  0  0  0  0  0  0  0  0
  -26.4499  -31.4779   25.7748 C   0  0  0  0  0  0  0  0  0  0  0  0
  -25.0521  -30.0981   27.3274 C   0  0  0  0  0  0  0  0  0  0  0  0
  -24.2261  -32.3197   26.5497 C   0  0  0  0  0  0  0  0  0  0  0  0
  -20.4379  -27.7188   23.1803 C   0  0  0  0  0  0  0  0  0  0  0  0
  -24.2717  -30.3783   24.9308 C   0  0  1  0  0  0  0  0  0  0  0  0
  -20.9942  -28.5511   25.4686 C   0  0  2  0  0  0  0  0  0  0  0  0
  -25.0069  -31.0587   26.1199 C   0  0  0  0  0  0  0  0  0  0  0  0
  -26.2054  -11.9396   21.1909 N   0  0  0  0  0  0  0  0  0  0  0  0
  -26.2091  -12.8899   20.2407 N   0  0  0  0  0  0  0  0  0  0  0  0
  -29.6675  -22.4452   19.3529 N   0  0  0  0  0  0  0  0  0  0  0  0
  -24.8283  -30.7601   22.5500 N   0  0  0  0  0  0  0  0  0  0  0  0
  -29.5034  -14.6887   19.5370 N   0  0  0  0  0  0  0  0  0  0  0  0
  -24.8099  -14.4160   19.0900 N   0  0  0  0  0  0  0  0  0  0  0  0
  -21.9744  -12.3351   21.9231 N   0  0  0  0  0  0  0  0  0  0  0  0
  -28.8788  -16.9111   19.0540 N   0  0  0  0  0  0  0  0  0  0  0  0
  -26.6432  -33.1574   20.4871 N   0  0  0  0  0  0  0  0  0  0  0  0
  -22.8941  -29.9951   25.2206 N   0  0  0  0  0  0  0  0  0  0  0  0
  -20.3576  -27.4846   24.6451 N   0  3  0  0  0  0  0  0  0  0  0  0
  -27.4330  -23.2161   19.4964 O   0  0  0  0  0  0  0  0  0  0  0  0
  -22.1285  -13.9213   20.2741 O   0  0  0  0  0  0  0  0  0  0  0  0
  -27.1150  -31.8910   22.3835 O   0  0  0  0  0  0  0  0  0  0  0  0
  -23.6441  -32.3520   23.7746 O   0  0  0  0  0  0  0  0  0  0  0  0
  -23.1573  -27.7366   24.7653 O   0  0  0  0  0  0  0  0  0  0  0  0
  -30.9371  -16.0826   18.3769 O   0  0  0  0  0  0  0  0  0  0  0  0
  -23.3040   -8.3360   25.5664 O   0  0  0  0  0  0  0  0  0  0  0  0
  -27.2664  -25.8844   19.6627 O   0  0  0  0  0  0  0  0  0  1  0  0
  -18.6752   -5.4633   24.7146 F   0  0  0  0  0  0  0  0  0  0  0  0
  -23.3398   -5.5722   25.5116 F   0  0  0  0  0  0  0  0  0  0  0  0
  1  2  1  0  0  0  0
  1  5  2  0  0  0  0
  2  6  2  0  0  0  0
  3 12  2  0  0  0  0
  3 19  1  0  0  0  0
  4 13  1  0  0  0  0
  4 19  2  0  0  0  0
  5 21  1  0  0  0  0
  6 23  1  0  0  0  0
  7 14  2  0  0  0  0
  7 22  1  0  0  0  0
  8 10  2  0  0  0  0
  8 25  1  0  0  0  0
  9 11  1  0  0  0  0
  9 25  2  0  0  0  0
 10 26  1  0  0  0  0
 11 26  2  0  0  0  0
 12 27  1  0  0  0  0
 13 27  2  0  0  0  0
 14 28  1  0  0  0  0
 15 16  2  0  0  0  0
 15 29  1  0  0  0  0
 16 30  1  0  0  0  0
 17 24  1  0  0  0  0
 17 28  2  0  0  0  0
 18 30  2  0  0  0  0
 18 31  1  0  0  0  0
 19 32  1  0  0  0  0
 20 32  1  0  0  0  0
 20 33  2  0  0  0  0
 20 39  1  0  0  0  0
 21 23  2  0  0  0  0
 21 44  1  0  0  0  0
 22 24  2  0  0  0  0
 22 45  1  0  0  0  0
 23 54  1  0  0  0  0
 24 46  1  0  0  0  0
 25 67  1  0  0  0  0
 26 72  1  0  0  0  0
 27 82  1  0  0  0  0
 28 83  1  0  0  0  0
 29 31  2  0  0  0  0
 29 82  1  0  0  0  0
 30 84  1  0  0  0  0
 31 85  1  0  0  0  0
 32 65  2  0  0  0  0
 33 66  1  0  0  0  0
 33 70  1  0  0  0  0
 34 35  1  0  0  0  0
 34 36  1  0  0  0  0
 34 38  2  0  0  0  0
 35 37  2  0  0  0  0
 35 47  1  0  0  0  0
 36 67  1  0  0  0  0
 36 76  2  0  0  0  0
 38 83  1  0  0  0  0
 39 71  1  0  0  0  0
 39 77  2  0  0  0  0
 40 55  1  0  0  0  0
 40 73  1  0  0  0  0
 40 78  2  0  0  0  0
 41 62  1  0  0  0  0
 41 68  1  0  0  0  0
 41 79  2  0  0  0  0
 42 63  1  0  0  0  0
 42 74  1  0  0  0  0
 42 80  2  0  0  0  0
 43 69  1  0  0  0  0
 43 72  1  0  0  0  0
 43 81  2  0  0  0  0
 44 48  1  0  0  0  0
 45 55  1  0  0  0  0
 46 68  1  0  0  0  0
 47 67  1  0  0  0  0
 48 50  1  0  0  0  0
 49 51  1  0  0  0  0
 49 52  1  0  0  0  0
 50 54  1  0  0  0  0
 51 56  1  0  0  0  0
 52 69  1  0  0  0  0
 53 56  1  0  0  0  0
 53 69  1  0  0  0  0
 54 73  1  0  0  0  0
 55 68  1  0  0  0  0
 56 66  1  0  0  0  0
 57 63  1  0  0  0  0
 58 64  1  0  0  0  0
 59 64  1  0  0  0  0
 60 64  1  0  0  0  0
 61 75  1  0  0  0  0
 62 64  1  0  0  0  0
 62 74  1  0  0  0  0
 63 75  1  0  0  0  0
 65 66  1  0  0  0  0
M  CHG  1  75   1
M  ISO  4  38 101  43 100  72 100  83 101
M  END
> <Batch ID>
0081

> <Smiles>
C=C1CN(c2ccc([100NH:0][100C:0](=O)N3CCCC(n4nc(-c5ccc(Oc6ccc(F)cc6F)cc5)c(C(N)=O)c4N)C3)cc2)C(=O)C1=[101CH:1][101O:1]c1ccc2c(c1)CN(C(=O)C(NC(=O)C(C)NC)C(C)(C)C)C(C(=O)NC1CCCc3ccccc31)C2

> <Shape>
0.293

> <Color>
0.133

> <Negative vol penalty>
0.000

$$$$

  -OEChem-04052300043D

 88 97  0     1  0  0  0  0  0999 V2000
  -22.6804  -29.5856   23.1063 C   0  0  0  0  0  0  0  0  0  0  0  0
  -23.1990  -28.3035   22.9557 C   0  0  0  0  0  0  0  0  0  0  0  0
  -29.3504  -23.5803   21.2785 C   0  0  0  0  0  0  0  0  0  0  0  0
  -27.2681  -23.3529   20.0746 C   0  0  0  0  0  0  0  0  0  0  0  0
  -21.3033  -29.7919   23.0362 C   0  0  0  0  0  0  0  0  0  0  0  0
  -22.3406  -27.2268   22.7360 C   0  0  0  0  0  0  0  0  0  0  0  0
  -23.4369  -22.2897   19.2821 C   0  0  0  0  0  0  0  0  0  0  0  0
  -25.6917  -11.2757   20.1103 C   0  0  0  0  0  0  0  0  0  0  0  0
  -26.4326  -12.4110   19.7821 C   0  0  0  0  0  0  0  0  0  0  0  0
  -29.3983  -24.9326   20.9403 C   0  0  0  0  0  0  0  0  0  0  0  0
  -27.3159  -24.7053   19.7364 C   0  0  0  0  0  0  0  0  0  0  0  0
  -23.8590  -20.9990   19.5978 C   0  0  0  0  0  0  0  0  0  0  0  0
  -27.9632  -27.8125   21.9795 C   0  0  0  0  0  0  0  0  0  0  0  0
  -28.2942  -28.7207   22.9850 C   0  0  0  0  0  0  0  0  0  0  0  0
  -21.5636  -20.2573   19.6083 C   0  0  0  0  0  0  0  0  0  0  0  0
  -24.1975  -12.6342   21.4366 C   0  0  0  0  0  0  0  0  0  0  0  0
  -30.2142  -29.4374   21.7055 C   0  0  0  0  0  0  0  0  0  0  0  0
  -28.2853  -22.7903   20.8456 C   0  0  0  0  0  0  0  0  0  0  0  0
  -27.6387  -20.8221   22.3340 C   0  0  0  0  0  0  0  0  0  0  0  0
  -20.4283  -28.7186   22.8060 C   0  0  0  0  0  0  0  0  0  0  0  0
  -22.0719  -22.5768   19.1376 C   0  0  0  0  0  0  0  0  0  0  0  0
  -20.9504  -27.4188   22.6641 C   0  0  0  0  0  0  0  0  0  0  0  0
  -21.1269  -21.5519   19.2882 C   0  0  0  0  0  0  0  0  0  0  0  0
  -24.9385  -13.7695   21.1085 C   0  0  0  0  0  0  0  0  0  0  0  0
  -24.5741  -11.3873   20.9375 C   0  0  0  0  0  0  0  0  0  0  0  0
  -26.0561  -13.6579   20.2812 C   0  0  0  0  0  0  0  0  0  0  0  0
  -28.3810  -25.4952   20.1693 C   0  0  0  0  0  0  0  0  0  0  0  0
  -22.9222  -19.9832   19.7638 C   0  0  0  0  0  0  0  0  0  0  0  0
  -28.7577  -27.7165   20.8370 C   0  0  0  0  0  0  0  0  0  0  0  0
  -29.4197  -29.5332   22.8480 C   0  0  0  0  0  0  0  0  0  0  0  0
  -29.8832  -28.5290   20.7000 C   0  0  0  0  0  0  0  0  0  0  0  0
  -28.2356  -21.3931   21.1941 C   0  0  0  0  0  0  0  0  0  0  0  0
  -27.8626  -19.4736   22.1997 C   0  0  0  0  0  0  0  0  0  0  0  0
  -23.8400  -17.1855   21.8099 C   0  0  0  0  0  0  0  0  0  0  0  0
  -24.0074  -16.6960   23.1553 C   0  0  0  0  0  0  0  0  0  0  0  0
  -24.1795  -16.1122   20.8344 C   0  0  0  0  0  0  0  0  0  0  0  0
  -23.8051  -17.3459   24.3064 C   0  0  0  0  0  0  0  0  0  0  0  0
  -23.4482  -18.3895   21.3929 C   0  0  0  0  0  0  0  0  0  1  0  0
  -26.9439  -21.4540   23.4173 C   0  0  0  0  0  0  0  0  0  0  0  0
  -20.0101  -24.4816   20.6290 C   0  0  0  0  0  0  0  0  0  0  0  0
  -18.0075  -23.5154   18.2671 C   0  0  0  0  0  0  0  0  0  0  0  0
  -17.2025  -21.1570   15.9354 C   0  0  0  0  0  0  0  0  0  0  0  0
  -27.9579  -14.8346   19.1217 C   0  0  0  0  0  0  0  0  0  0  0  0
  -18.9438  -28.9839   22.7854 C   0  0  0  0  0  0  0  0  0  0  0  0
  -21.6345  -23.9683   18.7705 C   0  0  0  0  0  0  0  0  0  0  0  0
  -19.6511  -21.8036   19.1238 C   0  0  0  0  0  0  0  0  0  0  0  0
  -24.4664  -15.2730   23.0511 C   0  0  0  0  0  0  0  0  0  0  0  0
  -18.1300  -27.8450   22.1762 C   0  0  0  0  0  0  0  0  0  0  0  0
  -30.8320  -16.9318   18.9835 C   0  0  0  0  0  0  0  0  0  0  0  0
  -18.5838  -26.5029   22.7414 C   0  0  0  0  0  0  0  0  0  0  0  0
  -30.3636  -18.2325   19.6401 C   0  0  0  0  0  0  0  0  0  0  0  0
  -29.7257  -16.2864   18.1509 C   0  0  0  0  0  0  0  0  0  0  0  0
  -27.9891  -17.3760   19.5170 C   0  0  0  0  0  0  0  0  0  0  0  0
  -20.0534  -26.2290   22.3998 C   0  0  1  0  0  0  0  0  0  0  0  0
  -20.1869  -24.2601   19.1534 C   0  0  1  0  0  0  0  0  0  0  0  0
  -29.0491  -18.0291   20.4188 C   0  0  2  0  0  0  0  0  0  0  0  0
  -15.4890  -20.6264   14.1805 C   0  0  0  0  0  0  0  0  0  0  0  0
  -16.0305  -22.7061   20.4457 C   0  0  0  0  0  0  0  0  0  0  0  0
  -14.8051  -21.3517   18.7333 C   0  0  0  0  0  0  0  0  0  0  0  0
  -14.9967  -23.8240   18.4618 C   0  0  0  0  0  0  0  0  0  0  0  0
  -19.2332  -21.1729   13.7825 C   0  0  0  0  0  0  0  0  0  0  0  0
  -17.0347  -22.3746   18.0904 C   0  0  1  0  0  0  0  0  0  0  0  0
  -16.8335  -21.2764   14.4678 C   0  0  2  0  0  0  0  0  0  0  0  0
  -15.7444  -22.5594   18.9379 C   0  0  0  0  0  0  0  0  0  0  0  0
  -28.7967  -20.4821   20.3946 N   0  0  0  0  0  0  0  0  0  0  0  0
  -28.5534  -19.3248   21.0331 N   0  0  0  0  0  0  0  0  0  0  0  0
  -24.5437  -15.0030   21.6167 N   0  0  0  0  0  0  0  0  0  0  0  0
  -19.2728  -23.1819   18.7710 N   0  0  0  0  0  0  0  0  0  0  0  0
  -28.5129  -16.1211   18.9551 N   0  0  0  0  0  0  0  0  0  0  0  0
  -27.5341  -18.4125   22.9669 N   0  0  0  0  0  0  0  0  0  0  0  0
  -26.8035  -22.8484   23.3982 N   0  0  0  0  0  0  0  0  0  0  0  0
  -26.8247  -14.7963   19.9334 N   0  0  0  0  0  0  0  0  0  0  0  0
  -20.1803  -25.7944   21.0252 N   0  0  0  0  0  0  0  0  0  0  0  0
  -16.7960  -22.2603   16.6557 N   0  0  0  0  0  0  0  0  0  0  0  0
  -23.8193  -10.2316   21.2703 N   0  0  0  0  0  0  0  0  0  0  0  0
  -17.8654  -20.6166   13.6189 N   0  3  0  0  0  0  0  0  0  0  0  0
  -24.1392  -16.2091   19.6194 O   0  0  0  0  0  0  0  0  0  0  0  0
  -26.4761  -20.8030   24.3822 O   0  0  0  0  0  0  0  0  0  0  0  0
  -19.7380  -23.5320   21.3542 O   0  0  0  0  0  0  0  0  0  0  0  0
  -17.6602  -24.6591   17.9624 O   0  0  0  0  0  0  0  0  0  0  0  0
  -17.7891  -20.1808   16.3975 O   0  0  0  0  0  0  0  0  0  0  0  0
  -28.4674  -13.8363   18.6062 O   0  0  0  0  0  0  0  0  0  0  0  0
  -24.1748   -9.1197   20.8098 O   0  0  0  0  0  0  0  0  0  0  0  0
  -22.8176  -10.3533   22.0162 O   0  0  0  0  0  0  0  0  0  0  0  0
  -28.4273  -26.8148   19.8393 O   0  0  0  0  0  0  0  0  0  0  0  0
  -23.3315  -18.7227   20.0727 O   0  0  0  0  0  0  0  0  0  1  0  0
  -29.7366  -30.4065   23.8130 F   0  0  0  0  0  0  0  0  0  0  0  0
  -30.6497  -28.4423   19.6042 F   0  0  0  0  0  0  0  0  0  0  0  0
  1  2  1  0  0  0  0
  1  5  2  0  0  0  0
  2  6  2  0  0  0  0
  3 10  2  0  0  0  0
  3 18  1  0  0  0  0
  4 11  1  0  0  0  0
  4 18  2  0  0  0  0
  5 20  1  0  0  0  0
  6 22  1  0  0  0  0
  7 12  2  0  0  0  0
  7 21  1  0  0  0  0
  8  9  2  0  0  0  0
  8 25  1  0  0  0  0
  9 26  1  0  0  0  0
 10 27  1  0  0  0  0
 11 27  2  0  0  0  0
 12 28  1  0  0  0  0
 13 14  2  0  0  0  0
 13 29  1  0  0  0  0
 14 30  1  0  0  0  0
 15 23  1  0  0  0  0
 15 28  2  0  0  0  0
 16 24  1  0  0  0  0
 16 25  2  0  0  0  0
 17 30  2  0  0  0  0
 17 31  1  0  0  0  0
 18 32  1  0  0  0  0
 19 32  1  0  0  0  0
 19 33  2  0  0  0  0
 19 39  1  0  0  0  0
 20 22  2  0  0  0  0
 20 44  1  0  0  0  0
 21 23  2  0  0  0  0
 21 45  1  0  0  0  0
 22 54  1  0  0  0  0
 23 46  1  0  0  0  0
 24 26  2  0  0  0  0
 24 67  1  0  0  0  0
 25 75  1  0  0  0  0
 26 72  1  0  0  0  0
 27 85  1  0  0  0  0
 28 86  1  0  0  0  0
 29 31  2  0  0  0  0
 29 85  1  0  0  0  0
 30 87  1  0  0  0  0
 31 88  1  0  0  0  0
 32 65  2  0  0  0  0
 33 66  1  0  0  0  0
 33 70  1  0  0  0  0
 34 35  1  0  0  0  0
 34 36  1  0  0  0  0
 34 38  2  0  0  0  0
 35 37  2  0  0  0  0
 35 47  1  0  0  0  0
 36 67  1  0  0  0  0
 36 77  2  0  0  0  0
 38 86  1  0  0  0  0
 39 71  1  0  0  0  0
 39 78  2  0  0  0  0
 40 55  1  0  0  0  0
 40 73  1  0  0  0  0
 40 79  2  0  0  0  0
 41 62  1  0  0  0  0
 41 68  1  0  0  0  0
 41 80  2  0  0  0  0
 42 63  1  0  0  0  0
 42 74  1  0  0  0  0
 42 81  2  0  0  0  0
 43 69  1  0  0  0  0
 43 72  1  0  0  0  0
 43 82  2  0  0  0  0
 44 48  1  0  0  0  0
 45 55  1  0  0  0  0
 46 68  1  0  0  0  0
 47 67  1  0  0  0  0
 48 50  1  0  0  0  0
 49 51  1  0  0  0  0
 49 52  1  0  0  0  0
 50 54  1  0  0  0  0
 51 56  1  0  0  0  0
 52 69  1  0  0  0  0
 53 56  1  0  0  0  0
 53 69  1  0  0  0  0
 54 73  1  0  0  0  0
 55 68  1  0  0  0  0
 56 66  1  0  0  0  0
 57 63  1  0  0  0  0
 58 64  1  0  0  0  0
 59 64  1  0  0  0  0
 60 64  1  0  0  0  0
 61 76  1  0  0  0  0
 62 64  1  0  0  0  0
 62 74  1  0  0  0  0
 63 76  1  0  0  0  0
 65 66  1  0  0  0  0
 75 83  2  0  0  0  0
 75 84  2  0  0  0  0
M  CHG  1  76   1
M  ISO  4  38 101  43 100  72 100  86 101
M  END
> <Batch ID>
0081

> <Smiles>
C=C1CN(c2cc([N+](=O)[O-])ccc2[100NH:0][100C:0](=O)N2CCCC(n3nc(-c4ccc(Oc5ccc(F)cc5F)cc4)c(C(N)=O)c3N)C2)C(=O)C1=[101CH:1][101O:1]c1ccc2c(c1)CN(C(=O)C(NC(=O)C(C)NC)C(C)(C)C)C(C(=O)NC1CCCc3ccccc31)C2

> <Shape>
0.206

> <Color>
0.067

> <Negative vol penalty>
0.000

$$$$

  -OEChem-04052300043D

 85 94  0     1  0  0  0  0  0999 V2000
  -28.6536  -36.8737   26.7169 C   0  0  0  0  0  0  0  0  0  0  0  0
  -29.4238  -35.9095   26.0747 C   0  0  0  0  0  0  0  0  0  0  0  0
  -23.3810  -10.2999   21.5300 C   0  0  0  0  0  0  0  0  0  0  0  0
  -24.9038   -8.5345   22.1637 C   0  0  0  0  0  0  0  0  0  0  0  0
  -27.2861  -36.6675   26.8941 C   0  0  0  0  0  0  0  0  0  0  0  0
  -28.8272  -34.7379   25.6103 C   0  0  0  0  0  0  0  0  0  0  0  0
  -29.3301  -29.9345   20.3196 C   0  0  0  0  0  0  0  0  0  0  0  0
  -29.1960  -20.1916   21.9752 C   0  0  0  0  0  0  0  0  0  0  0  0
  -28.8887  -20.2956   19.5811 C   0  0  0  0  0  0  0  0  0  0  0  0
  -29.3111  -18.8036   21.9002 C   0  0  0  0  0  0  0  0  0  0  0  0
  -29.0038  -18.9075   19.5060 C   0  0  0  0  0  0  0  0  0  0  0  0
  -22.3751   -9.3568   21.3197 C   0  0  0  0  0  0  0  0  0  0  0  0
  -23.8978   -7.5914   21.9535 C   0  0  0  0  0  0  0  0  0  0  0  0
  -29.4319  -28.5584   20.1203 C   0  0  0  0  0  0  0  0  0  0  0  0
  -21.1773   -6.4451   23.5982 C   0  0  0  0  0  0  0  0  0  0  0  0
  -21.0100   -5.4522   24.5635 C   0  0  0  0  0  0  0  0  0  0  0  0
  -27.0468  -28.3457   20.4121 C   0  0  0  0  0  0  0  0  0  0  0  0
  -21.4592   -3.7590   22.8996 C   0  0  0  0  0  0  0  0  0  0  0  0
  -24.6454   -9.8888   21.9519 C   0  0  0  0  0  0  0  0  0  0  0  0
  -25.9761  -11.5431   23.3662 C   0  0  0  0  0  0  0  0  0  0  0  0
  -26.6706  -35.4970   26.4230 C   0  0  0  0  0  0  0  0  0  0  0  0
  -28.0851  -30.5260   20.5779 C   0  0  0  0  0  0  0  0  0  0  0  0
  -27.4504  -34.5151   25.7826 C   0  0  0  0  0  0  0  0  0  0  0  0
  -26.9315  -29.7298   20.6117 C   0  0  0  0  0  0  0  0  0  0  0  0
  -28.9848  -20.9377   20.8157 C   0  0  0  0  0  0  0  0  0  0  0  0
  -29.2150  -18.1615   20.6656 C   0  0  0  0  0  0  0  0  0  0  0  0
  -22.6335   -8.0026   21.5315 C   0  0  0  0  0  0  0  0  0  0  0  0
  -28.2906  -27.7633   20.1694 C   0  0  0  0  0  0  0  0  0  0  0  0
  -21.4855   -6.0950   22.2836 C   0  0  0  0  0  0  0  0  0  0  0  0
  -21.1510   -4.1092   24.2142 C   0  0  0  0  0  0  0  0  0  0  0  0
  -21.6265   -4.7520   21.9343 C   0  0  0  0  0  0  0  0  0  0  0  0
  -25.6851  -10.8625   22.1687 C   0  0  0  0  0  0  0  0  0  0  0  0
  -27.0428  -12.3494   23.0524 C   0  0  0  0  0  0  0  0  0  0  0  0
  -28.7061  -24.2869   20.9964 C   0  0  0  0  0  0  0  0  0  0  0  0
  -28.9211  -23.1860   21.9295 C   0  0  0  0  0  0  0  0  0  0  0  0
  -28.6670  -23.2717   19.9491 C   0  0  0  0  0  0  0  0  0  0  0  0
  -28.5947  -25.6257   21.0686 C   0  0  0  0  0  0  0  0  0  1  0  0
  -25.3392  -11.4543   24.6476 C   0  0  0  0  0  0  0  0  0  0  0  0
  -26.8376  -32.1594   23.0026 C   0  0  0  0  0  0  0  0  0  0  0  0
  -24.3390  -32.5195   20.9656 C   0  0  0  0  0  0  0  0  0  0  0  0
  -22.6144  -31.3535   18.2614 C   0  0  0  0  0  0  0  0  0  0  0  0
  -29.2411  -16.0472   19.3525 C   0  0  0  0  0  0  0  0  0  0  0  0
  -25.1979  -35.2975   26.6798 C   0  0  0  0  0  0  0  0  0  0  0  0
  -27.9885  -32.0155   20.7642 C   0  0  0  0  0  0  0  0  0  0  0  0
  -25.5686  -30.3187   20.8654 C   0  0  0  0  0  0  0  0  0  0  0  0
  -24.5744  -34.1965   25.8257 C   0  0  0  0  0  0  0  0  0  0  0  0
  -30.0207  -12.4610   18.9763 C   0  0  0  0  0  0  0  0  0  0  0  0
  -25.4527  -32.9494   25.8381 C   0  0  0  0  0  0  0  0  0  0  0  0
  -28.9410  -11.7874   19.8216 C   0  0  0  0  0  0  0  0  0  0  0  0
  -29.5379  -13.7841   18.3896 C   0  0  0  0  0  0  0  0  0  0  0  0
  -27.9348  -14.0643   20.2556 C   0  0  0  0  0  0  0  0  0  0  0  0
  -26.8351  -33.2423   25.2428 C   0  0  1  0  0  0  0  0  0  0  0  0
  -26.7400  -32.4420   21.5301 C   0  0  1  0  0  0  0  0  0  0  0  0
  -28.4053  -12.7496   20.8959 C   0  0  1  0  0  0  0  0  0  0  0  0
  -20.5929  -31.8380   16.8556 C   0  0  0  0  0  0  0  0  0  0  0  0
  -22.5434  -31.4147   23.1712 C   0  0  0  0  0  0  0  0  0  0  0  0
  -20.7731  -31.0325   21.4426 C   0  0  0  0  0  0  0  0  0  0  0  0
  -21.5783  -33.3468   21.9102 C   0  0  0  0  0  0  0  0  0  0  0  0
  -29.7961  -15.9953   21.7731 C   0  0  0  0  0  0  0  0  0  0  0  0
  -24.2527  -31.7138   15.8231 C   0  0  0  0  0  0  0  0  0  0  0  0
  -23.0819  -31.7387   20.6670 C   0  0  1  0  0  0  0  0  0  0  0  0
  -22.0887  -32.0559   17.0225 C   0  0  2  0  0  0  0  0  0  0  0  0
  -22.0199  -31.8715   21.7949 C   0  0  0  0  0  0  0  0  0  0  0  0
  -26.5010  -11.2065   21.1687 N   0  0  0  0  0  0  0  0  0  0  0  0
  -27.3151  -12.1122   21.7371 N   0  0  0  0  0  0  0  0  0  0  0  0
  -28.8710  -22.3057   20.8895 N   0  0  0  0  0  0  0  0  0  0  0  0
  -25.5268  -31.7791   21.0476 N   0  0  0  0  0  0  0  0  0  0  0  0
  -28.9919  -14.6620   19.4255 N   0  0  0  0  0  0  0  0  0  0  0  0
  -27.7650  -13.2311   23.7758 N   0  0  0  0  0  0  0  0  0  0  0  0
  -24.2574  -10.5758   24.7967 N   0  0  0  0  0  0  0  0  0  0  0  0
  -26.7641  -33.2870   23.7980 N   0  0  0  0  0  0  0  0  0  0  0  0
  -22.6226  -32.1896   19.3578 N   0  0  0  0  0  0  0  0  0  0  0  0
  -29.3341  -16.7247   20.5876 N   0  0  0  0  0  0  0  0  0  0  0  0
  -22.7771  -31.5426   15.8046 N   0  3  0  0  0  0  0  0  0  0  0  0
  -29.0793  -23.0849   23.1280 O   0  0  0  0  0  0  0  0  0  0  0  0
  -28.5169  -23.2746   18.7453 O   0  0  0  0  0  0  0  0  0  0  0  0
  -25.7077  -12.1461   25.6270 O   0  0  0  0  0  0  0  0  0  0  0  0
  -26.9684  -31.0038   23.3887 O   0  0  0  0  0  0  0  0  0  0  0  0
  -24.2707  -33.7423   21.1132 O   0  0  0  0  0  0  0  0  0  0  0  0
  -22.9776  -30.1793   18.2577 O   0  0  0  0  0  0  0  0  0  0  0  0
  -29.3977  -16.6259   18.2708 O   0  0  0  0  0  0  0  0  0  0  0  0
  -21.6521   -7.0820   21.3267 O   0  0  0  0  0  0  0  0  0  0  0  0
  -28.3873  -26.4198   19.9759 O   0  0  0  0  0  0  0  0  0  1  0  0
  -20.9918   -3.1558   25.1416 F   0  0  0  0  0  0  0  0  0  0  0  0
  -21.9237   -4.4095   20.6733 F   0  0  0  0  0  0  0  0  0  0  0  0
  1  2  1  0  0  0  0
  1  5  2  0  0  0  0
  2  6  2  0  0  0  0
  3 12  2  0  0  0  0
  3 19  1  0  0  0  0
  4 13  1  0  0  0  0
  4 19  2  0  0  0  0
  5 21  1  0  0  0  0
  6 23  1  0  0  0  0
  7 14  2  0  0  0  0
  7 22  1  0  0  0  0
  8 10  2  0  0  0  0
  8 25  1  0  0  0  0
  9 11  1  0  0  0  0
  9 25  2  0  0  0  0
 10 26  1  0  0  0  0
 11 26  2  0  0  0  0
 12 27  1  0  0  0  0
 13 27  2  0  0  0  0
 14 28  1  0  0  0  0
 15 16  2  0  0  0  0
 15 29  1  0  0  0  0
 16 30  1  0  0  0  0
 17 24  1  0  0  0  0
 17 28  2  0  0  0  0
 18 30  2  0  0  0  0
 18 31  1  0  0  0  0
 19 32  1  0  0  0  0
 20 32  1  0  0  0  0
 20 33  2  0  0  0  0
 20 38  1  0  0  0  0
 21 23  2  0  0  0  0
 21 43  1  0  0  0  0
 22 24  2  0  0  0  0
 22 44  1  0  0  0  0
 23 52  1  0  0  0  0
 24 45  1  0  0  0  0
 25 66  1  0  0  0  0
 26 73  1  0  0  0  0
 27 82  1  0  0  0  0
 28 83  1  0  0  0  0
 29 31  2  0  0  0  0
 29 82  1  0  0  0  0
 30 84  1  0  0  0  0
 31 85  1  0  0  0  0
 32 64  2  0  0  0  0
 33 65  1  0  0  0  0
 33 69  1  0  0  0  0
 34 35  1  0  0  0  0
 34 36  1  0  0  0  0
 34 37  2  0  0  0  0
 35 66  1  0  0  0  0
 35 75  2  0  0  0  0
 36 66  1  0  0  0  0
 36 76  2  0  0  0  0
 37 83  1  0  0  0  0
 38 70  1  0  0  0  0
 38 77  2  0  0  0  0
 39 53  1  0  0  0  0
 39 71  1  0  0  0  0
 39 78  2  0  0  0  0
 40 61  1  0  0  0  0
 40 67  1  0  0  0  0
 40 79  2  0  0  0  0
 41 62  1  0  0  0  0
 41 72  1  0  0  0  0
 41 80  2  0  0  0  0
 42 68  1  0  0  0  0
 42 73  1  0  0  0  0
 42 81  2  0  0  0  0
 43 46  1  0  0  0  0
 44 53  1  0  0  0  0
 45 67  1  0  0  0  0
 46 48  1  0  0  0  0
 47 49  1  0  0  0  0
 47 50  1  0  0  0  0
 48 52  1  0  0  0  0
 49 54  1  0  0  0  0
 50 68  1  0  0  0  0
 51 54  1  0  0  0  0
 51 68  1  0  0  0  0
 52 71  1  0  0  0  0
 53 67  1  0  0  0  0
 54 65  1  0  0  0  0
 55 62  1  0  0  0  0
 56 63  1  0  0  0  0
 57 63  1  0  0  0  0
 58 63  1  0  0  0  0
 59 73  1  0  0  0  0
 60 74  1  0  0  0  0
 61 63  1  0  0  0  0
 61 72  1  0  0  0  0
 62 74  1  0  0  0  0
 64 65  1  0  0  0  0
M  CHG  1  74   1
M  ISO  4  37 101  42 100  73 100  83 101
M  END
> <Batch ID>
0081

> <Smiles>
CNC(C)C(=O)NC(C(=O)N1Cc2cc([101O:1][101CH:1]=C3C(=O)N(c4ccc([100N:0](C)[100C:0](=O)N5CCCC(n6nc(-c7ccc(Oc8ccc(F)cc8F)cc7)c(C(N)=O)c6N)C5)cc4)C3=O)ccc2CC1C(=O)NC1CCCc2ccccc21)C(C)(C)C

> <Shape>
0.308

> <Color>
0.104

> <Negative vol penalty>
0.000

$$$$

  -OEChem-04052300043D

 83 91  0     1  0  0  0  0  0999 V2000
  -27.6353  -17.8192   16.2674 C   0  0  0  0  0  0  0  0  0  0  0  0
  -26.6011  -18.7246   16.4824 C   0  0  0  0  0  0  0  0  0  0  0  0
  -19.0412  -28.5384   22.1549 C   0  0  0  0  0  0  0  0  0  0  0  0
  -24.8099  -15.4359   20.9359 C   0  0  0  0  0  0  0  0  0  0  0  0
  -23.0934  -13.8474   20.3300 C   0  0  0  0  0  0  0  0  0  0  0  0
  -18.5564  -27.7213   23.1761 C   0  0  0  0  0  0  0  0  0  0  0  0
  -28.7705  -17.8545   17.0761 C   0  0  0  0  0  0  0  0  0  0  0  0
  -26.7011  -19.6651   17.5070 C   0  0  0  0  0  0  0  0  0  0  0  0
  -24.5347  -25.3932   17.4705 C   0  0  0  0  0  0  0  0  0  0  0  0
  -20.1619  -28.1479   21.4218 C   0  0  0  0  0  0  0  0  0  0  0  0
  -25.7514  -14.4072   20.9657 C   0  0  0  0  0  0  0  0  0  0  0  0
  -24.0349  -12.8186   20.3597 C   0  0  0  0  0  0  0  0  0  0  0  0
  -23.3755  -25.9610   17.9974 C   0  0  0  0  0  0  0  0  0  0  0  0
  -27.5607  -12.6210   18.7366 C   0  0  0  0  0  0  0  0  0  0  0  0
  -28.7918  -12.8510   18.1224 C   0  0  0  0  0  0  0  0  0  0  0  0
  -20.3129  -26.1232   22.7312 C   0  0  0  0  0  0  0  0  0  0  0  0
  -24.6044  -26.6320   19.9619 C   0  0  0  0  0  0  0  0  0  0  0  0
  -29.9122  -12.4855   20.2314 C   0  0  0  0  0  0  0  0  0  0  0  0
  -23.4809  -15.1560   20.6181 C   0  0  0  0  0  0  0  0  0  0  0  0
  -19.1923  -26.5137   23.4643 C   0  0  0  0  0  0  0  0  0  0  0  0
  -22.1567  -17.0181   19.4838 C   0  0  0  0  0  0  0  0  0  0  0  0
  -28.8887  -18.8023   18.1049 C   0  0  0  0  0  0  0  0  0  0  0  0
  -25.7370  -25.4310   18.1913 C   0  0  0  0  0  0  0  0  0  0  0  0
  -27.8384  -19.7123   18.3310 C   0  0  0  0  0  0  0  0  0  0  0  0
  -25.7780  -26.0662   19.4407 C   0  0  0  0  0  0  0  0  0  0  0  0
  -20.7977  -26.9403   21.7100 C   0  0  0  0  0  0  0  0  0  0  0  0
  -25.3640  -13.0986   20.6776 C   0  0  0  0  0  0  0  0  0  0  0  0
  -23.4096  -26.5780   19.2445 C   0  0  0  0  0  0  0  0  0  0  0  0
  -27.5054  -12.3233   20.0982 C   0  0  0  0  0  0  0  0  0  0  0  0
  -29.9675  -12.7832   18.8698 C   0  0  0  0  0  0  0  0  0  0  0  0
  -28.6811  -12.2556   20.8456 C   0  0  0  0  0  0  0  0  0  0  0  0
  -22.5077  -16.2181   20.5877 C   0  0  0  0  0  0  0  0  0  0  0  0
  -21.1954  -17.8705   19.9693 C   0  0  0  0  0  0  0  0  0  0  0  0
  -18.6779  -25.6466   24.5474 C   0  0  0  0  0  0  0  0  0  0  0  0
  -22.6551  -16.9930   18.1396 C   0  0  0  0  0  0  0  0  0  0  0  0
  -27.6870  -23.2407   19.4175 C   0  0  0  0  0  0  0  0  0  0  0  0
  -29.5430  -25.8204   20.0676 C   0  0  0  0  0  0  0  0  0  0  0  0
  -18.5849  -23.2276   25.2259 C   0  0  0  0  0  0  0  0  0  0  0  0
  -29.7409  -29.1833   20.6139 C   0  0  0  0  0  0  0  0  0  0  0  0
  -19.6525  -21.3942   23.9330 C   0  0  0  0  0  0  0  0  0  0  0  0
  -30.1143  -18.7711   18.9833 C   0  0  0  0  0  0  0  0  0  0  0  0
  -26.9848  -24.8374   17.5972 C   0  0  0  0  0  0  0  0  0  0  0  0
  -27.0482  -26.1514   20.2457 C   0  0  0  0  0  0  0  0  0  0  0  0
  -30.3056  -20.0418   19.8073 C   0  0  0  0  0  0  0  0  0  0  0  0
  -18.6352  -17.8481   24.3045 C   0  0  0  0  0  0  0  0  0  0  0  0
  -28.9932  -20.4526   20.4674 C   0  0  0  0  0  0  0  0  0  0  0  0
  -19.5885  -17.1735   23.3241 C   0  0  0  0  0  0  0  0  0  0  0  0
  -19.2531  -19.0872   24.9514 C   0  0  0  0  0  0  0  0  0  0  0  0
  -20.7240  -19.3980   22.9735 C   0  0  0  0  0  0  0  0  0  0  0  0
  -27.9207  -20.7636   19.4165 C   0  0  1  0  0  0  0  0  0  0  0  0
  -28.0348  -24.4818   18.6453 C   0  0  1  0  0  0  0  0  0  0  0  0
  -20.0887  -18.1835   22.2814 C   0  0  1  0  0  0  0  0  0  0  0  0
  -17.7968  -23.5157   26.4488 C   0  0  0  0  0  0  0  0  0  0  0  0
  -31.3877  -30.9972   21.1575 C   0  0  0  0  0  0  0  0  0  0  0  0
  -29.6235  -24.8749   22.9675 C   0  0  0  0  0  0  0  0  0  0  0  0
  -30.4378  -27.1524   23.6144 C   0  0  0  0  0  0  0  0  0  0  0  0
  -31.8033  -25.7286   22.0877 C   0  0  0  0  0  0  0  0  0  0  0  0
  -29.1643  -30.6223   18.0928 C   0  0  0  0  0  0  0  0  0  0  0  0
  -29.6718  -26.7802   21.2258 C   0  0  1  0  0  0  0  0  0  0  0  0
  -30.6701  -30.2426   20.0491 C   0  0  2  0  0  0  0  0  0  0  0  0
  -30.3596  -26.1309   22.4598 C   0  0  0  0  0  0  0  0  0  0  0  0
  -21.8250  -16.5341   21.6913 N   0  0  0  0  0  0  0  0  0  0  0  0
  -21.0354  -17.5422   21.2834 N   0  0  0  0  0  0  0  0  0  0  0  0
  -28.2403  -25.5506   19.6249 N   0  0  0  0  0  0  0  0  0  0  0  0
  -19.8183  -20.0063   23.9541 N   0  0  0  0  0  0  0  0  0  0  0  0
  -20.4797  -18.8613   19.3962 N   0  0  0  0  0  0  0  0  0  0  0  0
  -23.6417  -16.0536   17.8103 N   0  0  0  0  0  0  0  0  0  0  0  0
  -21.9307  -26.5457   20.9688 N   0  0  0  0  0  0  0  0  0  1  0  0
  -18.9466  -24.2308   24.4173 N   0  0  0  0  0  0  0  0  0  0  0  0
  -28.1433  -22.0717   18.8389 N   0  0  0  0  0  0  0  0  0  0  0  0
  -30.3622  -27.9559   20.7067 N   0  0  0  0  0  0  0  0  0  0  0  0
  -18.8777  -21.9333   25.0304 N   0  3  0  0  0  0  0  0  0  0  0  0
  -29.9011  -31.2247   19.2335 N   0  3  0  0  0  0  0  0  0  0  0  0
  -18.0423  -26.1073   25.4840 O   0  0  0  0  0  0  0  0  0  0  0  0
  -22.2496  -17.7912   17.2610 O   0  0  0  0  0  0  0  0  0  0  0  0
  -27.0530  -23.3367   20.4617 O   0  0  0  0  0  0  0  0  0  0  0  0
  -30.5611  -25.3338   19.5694 O   0  0  0  0  0  0  0  0  0  0  0  0
  -28.5812  -29.4218   20.9435 O   0  0  0  0  0  0  0  0  0  0  0  0
  -20.1272  -22.1560   23.0973 O   0  0  0  0  0  0  0  0  0  0  0  0
  -26.2825  -12.0945   20.7063 O   0  0  0  0  0  0  0  0  0  0  0  0
  -22.2665  -27.1387   19.7674 O   0  0  0  0  0  0  0  0  0  1  0  0
  -31.1498  -13.0025   18.2795 F   0  0  0  0  0  0  0  0  0  0  0  0
  -28.6344  -11.9689   22.1538 F   0  0  0  0  0  0  0  0  0  0  0  0
  1  2  1  0  0  0  0
  1  7  2  0  0  0  0
  2  8  2  0  0  0  0
  3  6  1  0  0  0  0
  3 10  2  0  0  0  0
  4 11  2  0  0  0  0
  4 19  1  0  0  0  0
  5 12  1  0  0  0  0
  5 19  2  0  0  0  0
  6 20  2  0  0  0  0
  7 22  1  0  0  0  0
  8 24  1  0  0  0  0
  9 13  2  0  0  0  0
  9 23  1  0  0  0  0
 10 26  1  0  0  0  0
 11 27  1  0  0  0  0
 12 27  2  0  0  0  0
 13 28  1  0  0  0  0
 14 15  2  0  0  0  0
 14 29  1  0  0  0  0
 15 30  1  0  0  0  0
 16 20  1  0  0  0  0
 16 26  2  0  0  0  0
 17 25  1  0  0  0  0
 17 28  2  0  0  0  0
 18 30  2  0  0  0  0
 18 31  1  0  0  0  0
 19 32  1  0  0  0  0
 20 34  1  0  0  0  0
 21 32  1  0  0  0  0
 21 33  2  0  0  0  0
 21 35  1  0  0  0  0
 22 24  2  0  0  0  0
 22 41  1  0  0  0  0
 23 25  2  0  0  0  0
 23 42  1  0  0  0  0
 24 50  1  0  0  0  0
 25 43  1  0  0  0  0
 26 68  1  0  0  0  0
 27 80  1  0  0  0  0
 28 81  1  0  0  0  0
 29 31  2  0  0  0  0
 29 80  1  0  0  0  0
 30 82  1  0  0  0  0
 31 83  1  0  0  0  0
 32 62  2  0  0  0  0
 33 63  1  0  0  0  0
 33 66  1  0  0  0  0
 34 69  1  0  0  0  0
 34 74  2  0  0  0  0
 35 67  1  0  0  0  0
 35 75  2  0  0  0  0
 36 51  1  0  0  0  0
 36 70  1  0  0  0  0
 36 76  2  0  0  0  0
 37 59  1  0  0  0  0
 37 64  1  0  0  0  0
 37 77  2  0  0  0  0
 38 53  1  0  0  0  0
 38 69  1  0  0  0  0
 38 72  2  0  0  0  0
 39 60  1  0  0  0  0
 39 71  1  0  0  0  0
 39 78  2  0  0  0  0
 40 65  1  0  0  0  0
 40 72  1  0  0  0  0
 40 79  2  0  0  0  0
 41 44  1  0  0  0  0
 42 51  1  0  0  0  0
 43 64  1  0  0  0  0
 44 46  1  0  0  0  0
 45 47  1  0  0  0  0
 45 48  1  0  0  0  0
 46 50  1  0  0  0  0
 47 52  1  0  0  0  0
 48 65  1  0  0  0  0
 49 52  1  0  0  0  0
 49 65  1  0  0  0  0
 50 70  1  0  0  0  0
 51 64  1  0  0  0  0
 52 63  1  0  0  0  0
 54 60  1  0  0  0  0
 55 61  1  0  0  0  0
 56 61  1  0  0  0  0
 57 61  1  0  0  0  0
 58 73  1  0  0  0  0
 59 61  1  0  0  0  0
 59 71  1  0  0  0  0
 60 73  1  0  0  0  0
 62 63  1  0  0  0  0
 68 81  1  0  0  0  0
M  CHG  2  72   1  73   1
M  ISO  4  40 100  68 101  72 100  81 101
M  END
> <Batch ID>
0081

> <Smiles>
CNC(C)C(=O)NC(C(=O)N1Cc2cc([101O:1][101NH:1]c3cccc(C(=O)N=C(C)[100NH:0][100C:0](=O)N4CCCC(n5nc(-c6ccc(Oc7ccc(F)cc7F)cc6)c(C(N)=O)c5N)C4)c3)ccc2CC1C(=O)NC1CCCc2ccccc21)C(C)(C)C

> <Shape>
0.205

> <Color>
0.065

> <Negative vol penalty>
0.000

$$$$

  -OEChem-04052300043D

 86 95  0     1  0  0  0  0  0999 V2000
  -29.7394  -37.0712   20.8494 C   0  0  0  0  0  0  0  0  0  0  0  0
  -29.9073  -35.7614   20.4118 C   0  0  0  0  0  0  0  0  0  0  0  0
  -24.0218   -9.9433   22.2932 C   0  0  0  0  0  0  0  0  0  0  0  0
  -24.6433  -11.5659   23.9719 C   0  0  0  0  0  0  0  0  0  0  0  0
  -29.0727  -37.3247   22.0474 C   0  0  0  0  0  0  0  0  0  0  0  0
  -29.4094  -34.7041   21.1725 C   0  0  0  0  0  0  0  0  0  0  0  0
  -27.0796  -29.4408   19.0807 C   0  0  0  0  0  0  0  0  0  0  0  0
  -28.5777  -20.5968   19.2942 C   0  0  0  0  0  0  0  0  0  0  0  0
  -28.3010  -19.2323   19.2099 C   0  0  0  0  0  0  0  0  0  0  0  0
  -23.6157   -9.0621   23.2952 C   0  0  0  0  0  0  0  0  0  0  0  0
  -24.2371  -10.6847   24.9740 C   0  0  0  0  0  0  0  0  0  0  0  0
  -27.6269  -28.1676   18.9286 C   0  0  0  0  0  0  0  0  0  0  0  0
  -20.9397   -8.6572   25.3220 C   0  0  0  0  0  0  0  0  0  0  0  0
  -19.7206   -8.0008   25.1530 C   0  0  0  0  0  0  0  0  0  0  0  0
  -26.6990  -27.5208   21.0593 C   0  0  0  0  0  0  0  0  0  0  0  0
  -30.6596  -18.7691   18.9656 C   0  0  0  0  0  0  0  0  0  0  0  0
  -20.8570   -5.8702   25.2306 C   0  0  0  0  0  0  0  0  0  0  0  0
  -24.5356  -11.1952   22.6315 C   0  0  0  0  0  0  0  0  0  0  0  0
  -24.1699  -13.0775   20.9490 C   0  0  0  0  0  0  0  0  0  0  0  0
  -28.5580  -36.2705   22.8184 C   0  0  0  0  0  0  0  0  0  0  0  0
  -26.3459  -29.7675   20.2302 C   0  0  0  0  0  0  0  0  0  0  0  0
  -28.7364  -34.9436   22.3826 C   0  0  0  0  0  0  0  0  0  0  0  0
  -26.1413  -28.7980   21.2224 C   0  0  0  0  0  0  0  0  0  0  0  0
  -29.8954  -21.0476   19.2142 C   0  0  0  0  0  0  0  0  0  0  0  0
  -29.3419  -18.3185   19.0456 C   0  0  0  0  0  0  0  0  0  0  0  0
  -23.7233   -9.4328   24.6356 C   0  0  0  0  0  0  0  0  0  0  0  0
  -27.4391  -27.2082   19.9193 C   0  0  0  0  0  0  0  0  0  0  0  0
  -22.1175   -7.9201   25.4452 C   0  0  0  0  0  0  0  0  0  0  0  0
  -19.6792   -6.6073   25.1073 C   0  0  0  0  0  0  0  0  0  0  0  0
  -30.9363  -20.1337   19.0499 C   0  0  0  0  0  0  0  0  0  0  0  0
  -22.0761   -6.5266   25.3995 C   0  0  0  0  0  0  0  0  0  0  0  0
  -24.9558  -12.1058   21.5969 C   0  0  0  0  0  0  0  0  0  0  0  0
  -25.0273  -13.6735   20.0567 C   0  0  0  0  0  0  0  0  0  0  0  0
  -29.9587  -24.6921   19.4987 C   0  0  0  0  0  0  0  0  0  0  0  0
  -31.3684  -24.4286   19.3544 C   0  0  0  0  0  0  0  0  0  0  0  0
  -29.1979  -23.4120   19.4637 C   0  0  0  0  0  0  0  0  0  0  0  0
  -32.3792  -25.3041   19.3360 C   0  0  0  0  0  0  0  0  0  0  0  0
  -29.3293  -25.8578   19.6465 C   0  0  0  0  0  0  0  0  0  1  0  0
  -22.7883  -13.4116   21.1369 C   0  0  0  0  0  0  0  0  0  0  0  0
  -26.6851  -31.8769   22.5837 C   0  0  0  0  0  0  0  0  0  0  0  0
  -23.7592  -30.7847   23.4601 C   0  0  0  0  0  0  0  0  0  0  0  0
  -21.4620  -28.2623   23.3708 C   0  0  0  0  0  0  0  0  0  0  0  0
  -29.9759  -15.8931   18.7967 C   0  0  0  0  0  0  0  0  0  0  0  0
  -27.8860  -36.5912   24.1300 C   0  0  0  0  0  0  0  0  0  0  0  0
  -25.7394  -31.1371   20.3669 C   0  0  0  0  0  0  0  0  0  0  0  0
  -25.3443  -29.0921   22.4661 C   0  0  0  0  0  0  0  0  0  0  0  0
  -31.5265  -22.9439   19.2223 C   0  0  0  0  0  0  0  0  0  0  0  0
  -27.0602  -35.4358   24.6898 C   0  0  0  0  0  0  0  0  0  0  0  0
  -29.6842  -12.3513   18.5781 C   0  0  0  0  0  0  0  0  0  0  0  0
  -27.8491  -34.1322   24.6187 C   0  0  0  0  0  0  0  0  0  0  0  0
  -28.3634  -12.0516   19.2907 C   0  0  0  0  0  0  0  0  0  0  0  0
  -30.4437  -13.4948   19.2485 C   0  0  0  0  0  0  0  0  0  0  0  0
  -28.3490  -14.4291   20.1478 C   0  0  0  0  0  0  0  0  0  0  0  0
  -28.1888  -33.7713   23.1675 C   0  0  1  0  0  0  0  0  0  0  0  0
  -25.4452  -31.5186   21.8144 C   0  0  1  0  0  0  0  0  0  0  0  0
  -27.5177  -13.3276   19.4700 C   0  0  2  0  0  0  0  0  0  0  0  0
  -19.1794  -27.6461   24.2117 C   0  0  0  0  0  0  0  0  0  0  0  0
  -24.9259  -30.2503   26.2283 C   0  0  0  0  0  0  0  0  0  0  0  0
  -22.9431  -28.7987   26.7074 C   0  0  0  0  0  0  0  0  0  0  0  0
  -22.6239  -31.2277   26.2374 C   0  0  0  0  0  0  0  0  0  0  0  0
  -20.3917  -28.0072   20.6234 C   0  0  0  0  0  0  0  0  0  0  0  0
  -23.2549  -29.6719   24.3470 C   0  0  1  0  0  0  0  0  0  0  0  0
  -19.9736  -28.2655   23.0723 C   0  0  2  0  0  0  0  0  0  0  0  0
  -23.4537  -29.9819   25.8576 C   0  0  0  0  0  0  0  0  0  0  0  0
  -26.2157  -12.0824   21.1538 N   0  0  0  0  0  0  0  0  0  0  0  0
  -26.2278  -13.0467   20.2179 N   0  0  0  0  0  0  0  0  0  0  0  0
  -30.1684  -22.4091   19.2985 N   0  0  0  0  0  0  0  0  0  0  0  0
  -24.7769  -30.4476   22.5565 N   0  0  0  0  0  0  0  0  0  0  0  0
  -29.5811  -14.6709   19.3809 N   0  0  0  0  0  0  0  0  0  0  0  0
  -24.8638  -14.6673   19.1577 N   0  0  0  0  0  0  0  0  0  0  0  0
  -22.0533  -12.7004   22.0952 N   0  0  0  0  0  0  0  0  0  0  0  0
  -29.0606  -16.9324   18.9599 N   0  0  0  0  0  0  0  0  0  0  0  0
  -27.0320  -33.2119   22.5017 N   0  0  0  0  0  0  0  0  0  0  0  0
  -21.8669  -29.4403   23.9621 N   0  0  0  0  0  0  0  0  0  0  0  0
  -19.6929  -27.4928   21.8293 N   0  3  0  0  0  0  0  0  0  0  0  0
  -27.9878  -23.2947   19.5609 O   0  0  0  0  0  0  0  0  0  0  0  0
  -22.2180  -14.3028   20.4631 O   0  0  0  0  0  0  0  0  0  0  0  0
  -27.2821  -31.0068   23.2069 O   0  0  0  0  0  0  0  0  0  0  0  0
  -23.2632  -31.9097   23.5602 O   0  0  0  0  0  0  0  0  0  0  0  0
  -22.1918  -27.3086   23.1092 O   0  0  0  0  0  0  0  0  0  0  0  0
  -31.0344  -16.0020   18.1725 O   0  0  0  0  0  0  0  0  0  0  0  0
  -23.3269   -8.5732   25.6136 O   0  0  0  0  0  0  0  0  0  0  0  0
  -27.9728  -25.9649   19.7736 O   0  0  0  0  0  0  0  0  0  1  0  0
  -18.5082   -5.9771   24.9466 F   0  0  0  0  0  0  0  0  0  0  0  0
  -32.2066  -20.5556   18.9711 F   0  0  0  0  0  0  0  0  0  0  0  0
  -23.2042   -5.8130   25.5184 F   0  0  0  0  0  0  0  0  0  0  0  0
  1  2  1  0  0  0  0
  1  5  2  0  0  0  0
  2  6  2  0  0  0  0
  3 10  2  0  0  0  0
  3 18  1  0  0  0  0
  4 11  1  0  0  0  0
  4 18  2  0  0  0  0
  5 20  1  0  0  0  0
  6 22  1  0  0  0  0
  7 12  2  0  0  0  0
  7 21  1  0  0  0  0
  8  9  2  0  0  0  0
  8 24  1  0  0  0  0
  9 25  1  0  0  0  0
 10 26  1  0  0  0  0
 11 26  2  0  0  0  0
 12 27  1  0  0  0  0
 13 14  2  0  0  0  0
 13 28  1  0  0  0  0
 14 29  1  0  0  0  0
 15 23  1  0  0  0  0
 15 27  2  0  0  0  0
 16 25  2  0  0  0  0
 16 30  1  0  0  0  0
 17 29  2  0  0  0  0
 17 31  1  0  0  0  0
 18 32  1  0  0  0  0
 19 32  1  0  0  0  0
 19 33  2  0  0  0  0
 19 39  1  0  0  0  0
 20 22  2  0  0  0  0
 20 44  1  0  0  0  0
 21 23  2  0  0  0  0
 21 45  1  0  0  0  0
 22 54  1  0  0  0  0
 23 46  1  0  0  0  0
 24 30  2  0  0  0  0
 24 67  1  0  0  0  0
 25 72  1  0  0  0  0
 26 82  1  0  0  0  0
 27 83  1  0  0  0  0
 28 31  2  0  0  0  0
 28 82  1  0  0  0  0
 29 84  1  0  0  0  0
 30 85  1  0  0  0  0
 31 86  1  0  0  0  0
 32 65  2  0  0  0  0
 33 66  1  0  0  0  0
 33 70  1  0  0  0  0
 34 35  1  0  0  0  0
 34 36  1  0  0  0  0
 34 38  2  0  0  0  0
 35 37  2  0  0  0  0
 35 47  1  0  0  0  0
 36 67  1  0  0  0  0
 36 76  2  0  0  0  0
 38 83  1  0  0  0  0
 39 71  1  0  0  0  0
 39 77  2  0  0  0  0
 40 55  1  0  0  0  0
 40 73  1  0  0  0  0
 40 78  2  0  0  0  0
 41 62  1  0  0  0  0
 41 68  1  0  0  0  0
 41 79  2  0  0  0  0
 42 63  1  0  0  0  0
 42 74  1  0  0  0  0
 42 80  2  0  0  0  0
 43 69  1  0  0  0  0
 43 72  1  0  0  0  0
 43 81  2  0  0  0  0
 44 48  1  0  0  0  0
 45 55  1  0  0  0  0
 46 68  1  0  0  0  0
 47 67  1  0  0  0  0
 48 50  1  0  0  0  0
 49 51  1  0  0  0  0
 49 52  1  0  0  0  0
 50 54  1  0  0  0  0
 51 56  1  0  0  0  0
 52 69  1  0  0  0  0
 53 56  1  0  0  0  0
 53 69  1  0  0  0  0
 54 73  1  0  0  0  0
 55 68  1  0  0  0  0
 56 66  1  0  0  0  0
 57 63  1  0  0  0  0
 58 64  1  0  0  0  0
 59 64  1  0  0  0  0
 60 64  1  0  0  0  0
 61 75  1  0  0  0  0
 62 64  1  0  0  0  0
 62 74  1  0  0  0  0
 63 75  1  0  0  0  0
 65 66  1  0  0  0  0
M  CHG  1  75   1
M  ISO  4  38 101  43 100  72 100  83 101
M  END
> <Batch ID>
0081

> <Smiles>
C=C1CN(c2ccc([100NH:0][100C:0](=O)N3CCCC(n4nc(-c5ccc(Oc6ccc(F)cc6F)cc5)c(C(N)=O)c4N)C3)cc2F)C(=O)C1=[101CH:1][101O:1]c1ccc2c(c1)CN(C(=O)C(NC(=O)C(C)NC)C(C)(C)C)C(C(=O)NC1CCCc3ccccc31)C2

> <Shape>
0.312

> <Color>
0.135

> <Negative vol penalty>
0.000

$$$$

  -OEChem-04052300043D

 85 94  0     1  0  0  0  0  0999 V2000
  -18.0258  -12.2484   24.4558 C   0  0  0  0  0  0  0  0  0  0  0  0
  -19.3161  -12.6979   24.7175 C   0  0  0  0  0  0  0  0  0  0  0  0
  -32.6519  -17.4897   23.4573 C   0  0  0  0  0  0  0  0  0  0  0  0
  -23.0735   -9.8699   19.9415 C   0  0  0  0  0  0  0  0  0  0  0  0
  -23.8315   -9.8778   22.2355 C   0  0  0  0  0  0  0  0  0  0  0  0
  -17.0060  -13.1662   24.2075 C   0  0  0  0  0  0  0  0  0  0  0  0
  -19.5876  -14.0656   24.7300 C   0  0  0  0  0  0  0  0  0  0  0  0
  -23.5879  -16.9921   28.3270 C   0  0  0  0  0  0  0  0  0  0  0  0
  -31.8541  -18.3575   24.2030 C   0  0  0  0  0  0  0  0  0  0  0  0
  -32.0640  -16.6055   22.5527 C   0  0  0  0  0  0  0  0  0  0  0  0
  -22.3285   -8.7175   20.1916 C   0  0  0  0  0  0  0  0  0  0  0  0
  -23.0864   -8.7254   22.4856 C   0  0  0  0  0  0  0  0  0  0  0  0
  -24.8922  -17.4356   28.1126 C   0  0  0  0  0  0  0  0  0  0  0  0
  -19.3784   -7.9243   21.6410 C   0  0  0  0  0  0  0  0  0  0  0  0
  -18.0719   -7.8788   21.1546 C   0  0  0  0  0  0  0  0  0  0  0  0
  -24.0505  -19.6306   27.5714 C   0  0  0  0  0  0  0  0  0  0  0  0
  -29.8805  -17.4567   23.1398 C   0  0  0  0  0  0  0  0  0  0  0  0
  -18.6311   -5.9344   19.8342 C   0  0  0  0  0  0  0  0  0  0  0  0
  -23.8251  -10.4500   20.9634 C   0  0  0  0  0  0  0  0  0  0  0  0
  -24.1691  -12.9748   20.8420 C   0  0  0  0  0  0  0  0  0  0  0  0
  -17.2631  -14.5461   24.2265 C   0  0  0  0  0  0  0  0  0  0  0  0
  -22.5026  -17.8631   28.1543 C   0  0  0  0  0  0  0  0  0  0  0  0
  -18.5705  -15.0027   24.4804 C   0  0  0  0  0  0  0  0  0  0  0  0
  -22.7336  -19.1963   27.7866 C   0  0  0  0  0  0  0  0  0  0  0  0
  -30.4684  -18.3410   24.0443 C   0  0  0  0  0  0  0  0  0  0  0  0
  -30.6783  -16.5889   22.3940 C   0  0  0  0  0  0  0  0  0  0  0  0
  -22.3349   -8.1453   21.4637 C   0  0  0  0  0  0  0  0  0  0  0  0
  -25.1235  -18.7542   27.7319 C   0  0  0  0  0  0  0  0  0  0  0  0
  -20.3113   -6.9749   21.2238 C   0  0  0  0  0  0  0  0  0  0  0  0
  -17.6982   -6.8839   20.2513 C   0  0  0  0  0  0  0  0  0  0  0  0
  -19.9377   -5.9799   20.3205 C   0  0  0  0  0  0  0  0  0  0  0  0
  -24.5953  -11.6401   20.7055 C   0  0  0  0  0  0  0  0  0  0  0  0
  -25.2621  -13.7232   20.4791 C   0  0  0  0  0  0  0  0  0  0  0  0
  -28.9181  -21.0172   25.9672 C   0  0  0  0  0  0  0  0  0  0  0  0
  -27.9269  -20.1283   25.9530 C   0  0  0  0  0  0  0  0  0  0  0  0
  -30.0608  -20.4535   25.2345 C   0  0  0  0  0  0  0  0  0  0  0  0
  -28.3779  -18.9481   25.1901 C   0  0  0  0  0  0  0  0  0  0  0  0
  -22.8987  -13.4920   21.2595 C   0  0  0  0  0  0  0  0  0  0  0  0
  -19.9702  -17.9381   26.2346 C   0  0  0  0  0  0  0  0  0  0  0  0
  -19.1427  -20.4825   28.0686 C   0  0  0  0  0  0  0  0  0  0  0  0
  -20.1356  -23.0029   30.1443 C   0  0  0  0  0  0  0  0  0  0  0  0
  -30.7290  -14.7644   20.6577 C   0  0  0  0  0  0  0  0  0  0  0  0
  -16.1385  -15.4985   23.9057 C   0  0  0  0  0  0  0  0  0  0  0  0
  -21.1035  -17.3764   28.4154 C   0  0  0  0  0  0  0  0  0  0  0  0
  -21.6042  -20.1767   27.6076 C   0  0  0  0  0  0  0  0  0  0  0  0
  -16.4297  -16.9422   24.3072 C   0  0  0  0  0  0  0  0  0  0  0  0
  -29.6146  -12.3499   18.2901 C   0  0  0  0  0  0  0  0  0  0  0  0
  -17.8291  -17.3496   23.8573 C   0  0  0  0  0  0  0  0  0  0  0  0
  -28.1744  -12.0598   18.7187 C   0  0  0  0  0  0  0  0  0  0  0  0
  -30.5289  -12.5788   19.4924 C   0  0  0  0  0  0  0  0  0  0  0  0
  -28.6214  -13.3057   20.8715 C   0  0  0  0  0  0  0  0  0  0  0  0
  -18.8992  -16.4791   24.5272 C   0  0  1  0  0  0  0  0  0  0  0  0
  -20.0390  -18.2115   27.7104 C   0  0  1  0  0  0  0  0  0  0  0  0
  -27.6494  -13.1325   19.6930 C   0  0  2  0  0  0  0  0  0  0  0  0
  -19.2366  -24.9443   31.4557 C   0  0  0  0  0  0  0  0  0  0  0  0
  -18.8606  -22.0901   25.4906 C   0  0  0  0  0  0  0  0  0  0  0  0
  -18.9063  -24.1788   26.8703 C   0  0  0  0  0  0  0  0  0  0  0  0
  -17.0732  -22.5168   27.1869 C   0  0  0  0  0  0  0  0  0  0  0  0
  -21.0681  -21.8531   32.7070 C   0  0  0  0  0  0  0  0  0  0  0  0
  -26.5755  -20.2293   26.5607 C   0  0  0  0  0  0  0  0  0  1  0  0
  -19.3992  -21.9691   28.0128 C   0  0  1  0  0  0  0  0  0  0  0  0
  -19.6049  -23.4692   31.4880 C   0  0  2  0  0  0  0  0  0  0  0  0
  -18.5812  -22.6700   26.8915 C   0  0  0  0  0  0  0  0  0  0  0  0
  -25.8605  -11.5429   20.2884 N   0  0  0  0  0  0  0  0  0  0  0  0
  -26.2385  -12.8261   20.1595 N   0  0  0  0  0  0  0  0  0  0  0  0
  -29.6738  -19.2065   24.7876 N   0  0  0  0  0  0  0  0  0  0  0  0
  -20.2539  -19.6513   27.8685 N   0  0  0  0  0  0  0  0  0  0  0  0
  -29.9701  -13.6106   20.3686 N   0  0  0  0  0  0  0  0  0  0  0  0
  -25.4737  -15.0544   20.4054 N   0  0  0  0  0  0  0  0  0  0  0  0
  -21.8857  -12.5838   21.5965 N   0  0  0  0  0  0  0  0  0  0  0  0
  -30.0817  -15.6905   21.4749 N   0  0  0  0  0  0  0  0  0  0  0  0
  -19.1165  -16.9068   25.8926 N   0  0  0  0  0  0  0  0  0  0  0  0
  -19.1345  -22.4797   29.3536 N   0  0  0  0  0  0  0  0  0  0  0  0
  -20.6307  -23.2641   32.5495 N   0  3  0  0  0  0  0  0  0  0  0  0
  -31.1235  -21.0346   25.0858 O   0  0  0  0  0  0  0  0  0  0  0  0
  -27.6932  -17.9581   24.9872 O   0  0  0  0  0  0  0  0  0  0  0  0
  -22.6634  -14.7228   21.3158 O   0  0  0  0  0  0  0  0  0  0  0  0
  -20.6408  -18.6140   25.4630 O   0  0  0  0  0  0  0  0  0  0  0  0
  -17.9998  -20.0739   28.2889 O   0  0  0  0  0  0  0  0  0  0  0  0
  -21.3191  -23.0970   29.8265 O   0  0  0  0  0  0  0  0  0  0  0  0
  -31.8587  -14.9319   20.1909 O   0  0  0  0  0  0  0  0  0  0  0  0
  -21.6078   -7.0210   21.7082 O   0  0  0  0  0  0  0  0  0  0  0  0
  -26.3955  -19.1895   27.5214 O   0  0  0  0  0  0  0  0  0  1  0  0
  -16.4431   -6.8394   19.7856 F   0  0  0  0  0  0  0  0  0  0  0  0
  -20.8292   -5.0644   19.9170 F   0  0  0  0  0  0  0  0  0  0  0  0
  1  2  1  0  0  0  0
  1  6  2  0  0  0  0
  2  7  2  0  0  0  0
  3  9  2  0  0  0  0
  3 10  1  0  0  0  0
  4 11  2  0  0  0  0
  4 19  1  0  0  0  0
  5 12  1  0  0  0  0
  5 19  2  0  0  0  0
  6 21  1  0  0  0  0
  7 23  1  0  0  0  0
  8 13  2  0  0  0  0
  8 22  1  0  0  0  0
  9 25  1  0  0  0  0
 10 26  2  0  0  0  0
 11 27  1  0  0  0  0
 12 27  2  0  0  0  0
 13 28  1  0  0  0  0
 14 15  2  0  0  0  0
 14 29  1  0  0  0  0
 15 30  1  0  0  0  0
 16 24  1  0  0  0  0
 16 28  2  0  0  0  0
 17 25  2  0  0  0  0
 17 26  1  0  0  0  0
 18 30  2  0  0  0  0
 18 31  1  0  0  0  0
 19 32  1  0  0  0  0
 20 32  1  0  0  0  0
 20 33  2  0  0  0  0
 20 38  1  0  0  0  0
 21 23  2  0  0  0  0
 21 43  1  0  0  0  0
 22 24  2  0  0  0  0
 22 44  1  0  0  0  0
 23 52  1  0  0  0  0
 24 45  1  0  0  0  0
 25 66  1  0  0  0  0
 26 71  1  0  0  0  0
 27 82  1  0  0  0  0
 28 83  1  0  0  0  0
 29 31  2  0  0  0  0
 29 82  1  0  0  0  0
 30 84  1  0  0  0  0
 31 85  1  0  0  0  0
 32 64  2  0  0  0  0
 33 65  1  0  0  0  0
 33 69  1  0  0  0  0
 34 35  2  0  0  0  0
 34 36  1  0  0  0  0
 35 37  1  0  0  0  0
 35 60  1  0  0  0  0
 36 66  1  0  0  0  0
 36 75  2  0  0  0  0
 37 66  1  0  0  0  0
 37 76  2  0  0  0  0
 38 70  1  0  0  0  0
 38 77  2  0  0  0  0
 39 53  1  0  0  0  0
 39 72  1  0  0  0  0
 39 78  2  0  0  0  0
 40 61  1  0  0  0  0
 40 67  1  0  0  0  0
 40 79  2  0  0  0  0
 41 62  1  0  0  0  0
 41 73  1  0  0  0  0
 41 80  2  0  0  0  0
 42 68  1  0  0  0  0
 42 71  1  0  0  0  0
 42 81  2  0  0  0  0
 43 46  1  0  0  0  0
 44 53  1  0  0  0  0
 45 67  1  0  0  0  0
 46 48  1  0  0  0  0
 47 49  1  0  0  0  0
 47 50  1  0  0  0  0
 48 52  1  0  0  0  0
 49 54  1  0  0  0  0
 50 68  1  0  0  0  0
 51 54  1  0  0  0  0
 51 68  1  0  0  0  0
 52 72  1  0  0  0  0
 53 67  1  0  0  0  0
 54 65  1  0  0  0  0
 55 62  1  0  0  0  0
 56 63  1  0  0  0  0
 57 63  1  0  0  0  0
 58 63  1  0  0  0  0
 59 74  1  0  0  0  0
 60 83  1  0  0  0  0
 61 63  1  0  0  0  0
 61 73  1  0  0  0  0
 62 74  1  0  0  0  0
 64 65  1  0  0  0  0
M  CHG  1  74   1
M  ISO  4  42 100  60 101  71 100  83 101
M  END
> <Batch ID>
0081

> <Smiles>
CNC(C)C(=O)NC(C(=O)N1Cc2cc([101O:1][101CH2:1]C3=CC(=O)N(c4cccc([100NH:0][100C:0](=O)N5CCCC(n6nc(-c7ccc(Oc8ccc(F)cc8F)cc7)c(C(N)=O)c6N)C5)c4)C3=O)ccc2CC1C(=O)NC1CCCc2ccccc21)C(C)(C)C

> <Shape>
0.145

> <Color>
0.187

> <Negative vol penalty>
0.000

$$$$

  -OEChem-04052300043D

 86 94  0     1  0  0  0  0  0999 V2000
  -22.8296   -7.8039   21.9665 C   0  0  0  0  0  0  0  0  0  0  0  0
  -23.7778   -8.6823   21.4520 C   0  0  0  0  0  0  0  0  0  0  0  0
  -25.3071  -31.1405   22.6147 C   0  0  0  0  0  0  0  0  0  0  0  0
  -26.9356  -31.1381   20.8300 C   0  0  0  0  0  0  0  0  0  0  0  0
  -21.5114   -8.2248   22.1374 C   0  0  0  0  0  0  0  0  0  0  0  0
  -23.4082   -9.9819   21.1071 C   0  0  0  0  0  0  0  0  0  0  0  0
  -26.7308  -13.4421   22.7295 C   0  0  0  0  0  0  0  0  0  0  0  0
  -27.3664  -22.0081   17.4712 C   0  0  0  0  0  0  0  0  0  0  0  0
  -25.5492  -32.4966   22.8339 C   0  0  0  0  0  0  0  0  0  0  0  0
  -27.1777  -32.4943   21.0492 C   0  0  0  0  0  0  0  0  0  0  0  0
  -27.9066  -13.5893   21.9949 C   0  0  0  0  0  0  0  0  0  0  0  0
  -24.6738  -35.4428   21.4247 C   0  0  0  0  0  0  0  0  0  0  0  0
  -27.7243  -21.2133   16.3822 C   0  0  0  0  0  0  0  0  0  0  0  0
  -23.5705  -36.2787   21.5971 C   0  0  0  0  0  0  0  0  0  0  0  0
  -29.0361  -20.9052   18.8250 C   0  0  0  0  0  0  0  0  0  0  0  0
  -26.9768  -15.5313   20.9072 C   0  0  0  0  0  0  0  0  0  0  0  0
  -24.3712  -36.8820   23.7953 C   0  0  0  0  0  0  0  0  0  0  0  0
  -26.0003  -30.4613   21.6128 C   0  0  0  0  0  0  0  0  0  0  0  0
  -29.3940  -20.1103   17.7361 C   0  0  0  0  0  0  0  0  0  0  0  0
  -24.7981  -28.4961   20.5172 C   0  0  0  0  0  0  0  0  0  0  0  0
  -21.1275   -9.5332   21.8035 C   0  0  0  0  0  0  0  0  0  0  0  0
  -25.6633  -14.3335   22.5502 C   0  0  0  0  0  0  0  0  0  0  0  0
  -22.0833  -10.4202   21.2725 C   0  0  0  0  0  0  0  0  0  0  0  0
  -25.7895  -15.3948   21.6426 C   0  0  0  0  0  0  0  0  0  0  0  0
  -28.0224  -21.8541   18.6925 C   0  0  0  0  0  0  0  0  0  0  0  0
  -26.4845  -33.1735   22.0511 C   0  0  0  0  0  0  0  0  0  0  0  0
  -28.0286  -14.6323   21.0815 C   0  0  0  0  0  0  0  0  0  0  0  0
  -25.6257  -35.3265   22.4376 C   0  0  0  0  0  0  0  0  0  0  0  0
  -23.4192  -36.9983   22.7823 C   0  0  0  0  0  0  0  0  0  0  0  0
  -28.7381  -20.2644   16.5147 C   0  0  0  0  0  0  0  0  0  0  0  0
  -25.4744  -36.0461   23.6229 C   0  0  0  0  0  0  0  0  0  0  0  0
  -25.7511  -29.0603   21.3863 C   0  0  0  0  0  0  0  0  0  0  0  0
  -24.9592  -27.1401   20.6648 C   0  0  0  0  0  0  0  0  0  0  0  0
  -30.4741  -19.1005   17.8803 C   0  0  0  0  0  0  0  0  0  0  0  0
  -23.8520  -29.1401   19.6537 C   0  0  0  0  0  0  0  0  0  0  0  0
  -22.6528  -14.0591   21.5675 C   0  0  0  0  0  0  0  0  0  0  0  0
  -31.0442  -16.2290   19.8539 C   0  0  0  0  0  0  0  0  0  0  0  0
  -22.5002  -17.1857   22.4181 C   0  0  0  0  0  0  0  0  0  0  0  0
  -24.1493  -20.1226   22.9675 C   0  0  0  0  0  0  0  0  0  0  0  0
  -28.2084  -22.6374   21.0796 C   0  0  0  0  0  0  0  0  0  0  0  0
  -19.6805   -9.9279   21.9616 C   0  0  0  0  0  0  0  0  0  0  0  0
  -24.4118  -14.1768   23.3698 C   0  0  0  0  0  0  0  0  0  0  0  0
  -24.6803  -16.3907   21.4278 C   0  0  0  0  0  0  0  0  0  0  0  0
  -19.4530  -11.4368   21.9225 C   0  0  0  0  0  0  0  0  0  0  0  0
  -27.6143  -24.4888   24.0623 C   0  0  0  0  0  0  0  0  0  0  0  0
  -20.2159  -12.0618   20.7588 C   0  0  0  0  0  0  0  0  0  0  0  0
  -26.9982  -25.7968   23.5605 C   0  0  0  0  0  0  0  0  0  0  0  0
  -28.6980  -23.9730   23.1171 C   0  0  0  0  0  0  0  0  0  0  0  0
  -27.6702  -25.1491   21.2119 C   0  0  0  0  0  0  0  0  0  0  0  0
  -21.7265  -11.8455   20.9099 C   0  0  1  0  0  0  0  0  0  0  0  0
  -23.1937  -14.8384   22.7327 C   0  0  1  0  0  0  0  0  0  0  0  0
  -26.5284  -25.6737   22.0978 C   0  0  2  0  0  0  0  0  0  0  0  0
  -32.5769  -18.1017   20.5293 C   0  0  0  0  0  0  0  0  0  0  0  0
  -23.7512  -22.5138   23.6162 C   0  0  0  0  0  0  0  0  0  0  0  0
  -21.4406  -17.7669   19.6164 C   0  0  0  0  0  0  0  0  0  0  0  0
  -21.9621  -20.1859   19.9966 C   0  0  0  0  0  0  0  0  0  0  0  0
  -20.2954  -19.0282   21.4473 C   0  0  0  0  0  0  0  0  0  0  0  0
  -25.8289  -19.8661   25.3907 C   0  0  0  0  0  0  0  0  0  0  0  0
  -29.5364  -16.1037   19.9780 C   0  0  0  0  0  0  0  0  0  1  0  0
  -31.6443  -17.5755   19.4490 C   0  0  2  0  0  0  0  0  0  0  0  0
  -22.7528  -18.4982   21.7163 C   0  0  1  0  0  0  0  0  0  0  0  0
  -24.0834  -21.1157   24.1137 C   0  0  2  0  0  0  0  0  0  0  0  0
  -21.6331  -18.8501   20.6966 C   0  0  0  0  0  0  0  0  0  0  0  0
  -26.4646  -28.1382   22.0379 N   0  0  0  0  0  0  0  0  0  0  0  0
  -25.9596  -26.9807   21.5781 N   0  0  0  0  0  0  0  0  0  0  0  0
  -23.4741  -16.1915   22.2482 N   0  0  0  0  0  0  0  0  0  0  0  0
  -28.1795  -23.8782   21.7507 N   0  0  0  0  0  0  0  0  0  0  0  0
  -24.3412  -26.0804   20.1013 N   0  0  0  0  0  0  0  0  0  0  0  0
  -23.8203  -30.5410   19.6239 N   0  0  0  0  0  0  0  0  0  0  0  0
  -27.6586  -22.6620   19.7983 N   0  0  0  0  0  0  0  0  0  0  0  0
  -30.6278  -18.5475   19.1454 N   0  0  0  0  0  0  0  0  0  0  0  0
  -22.2744  -12.7677   21.8813 N   0  0  0  0  0  0  0  0  0  0  0  0
  -22.9389  -19.4935   22.7666 N   0  0  0  0  0  0  0  0  0  0  0  0
  -25.3901  -21.1692   24.8284 N   0  3  0  0  0  0  0  0  0  0  0  0
  -31.1725  -18.8259   16.9080 O   0  0  0  0  0  0  0  0  0  0  0  0
  -23.0471  -28.4925   18.9421 O   0  0  0  0  0  0  0  0  0  0  0  0
  -22.5826  -14.5907   20.4655 O   0  0  0  0  0  0  0  0  0  0  0  0
  -31.7756  -15.2498   20.0252 O   0  0  0  0  0  0  0  0  0  0  0  0
  -21.4799  -17.0501   23.0980 O   0  0  0  0  0  0  0  0  0  0  0  0
  -25.1712  -19.9274   22.3131 O   0  0  0  0  0  0  0  0  0  0  0  0
  -28.6608  -21.6214   21.6133 O   0  0  0  0  0  0  0  0  0  0  0  0
  -26.7209  -34.4968   22.2646 O   0  0  0  0  0  0  0  0  0  0  0  0
  -29.1750  -14.7779   20.3627 O   0  0  0  0  0  0  0  0  0  1  0  0
  -22.3606  -37.8022   22.9472 F   0  0  0  0  0  0  0  0  0  0  0  0
  -29.0740  -19.5060   15.4618 F   0  0  0  0  0  0  0  0  0  0  0  0
  -26.3863  -35.9393   24.5990 F   0  0  0  0  0  0  0  0  0  0  0  0
  1  2  1  0  0  0  0
  1  5  2  0  0  0  0
  2  6  2  0  0  0  0
  3  9  2  0  0  0  0
  3 18  1  0  0  0  0
  4 10  1  0  0  0  0
  4 18  2  0  0  0  0
  5 21  1  0  0  0  0
  6 23  1  0  0  0  0
  7 11  2  0  0  0  0
  7 22  1  0  0  0  0
  8 13  2  0  0  0  0
  8 25  1  0  0  0  0
  9 26  1  0  0  0  0
 10 26  2  0  0  0  0
 11 27  1  0  0  0  0
 12 14  2  0  0  0  0
 12 28  1  0  0  0  0
 13 30  1  0  0  0  0
 14 29  1  0  0  0  0
 15 19  1  0  0  0  0
 15 25  2  0  0  0  0
 16 24  1  0  0  0  0
 16 27  2  0  0  0  0
 17 29  2  0  0  0  0
 17 31  1  0  0  0  0
 18 32  1  0  0  0  0
 19 30  2  0  0  0  0
 19 34  1  0  0  0  0
 20 32  1  0  0  0  0
 20 33  2  0  0  0  0
 20 35  1  0  0  0  0
 21 23  2  0  0  0  0
 21 41  1  0  0  0  0
 22 24  2  0  0  0  0
 22 42  1  0  0  0  0
 23 50  1  0  0  0  0
 24 43  1  0  0  0  0
 25 70  1  0  0  0  0
 26 82  1  0  0  0  0
 27 83  1  0  0  0  0
 28 31  2  0  0  0  0
 28 82  1  0  0  0  0
 29 84  1  0  0  0  0
 30 85  1  0  0  0  0
 31 86  1  0  0  0  0
 32 64  2  0  0  0  0
 33 65  1  0  0  0  0
 33 68  1  0  0  0  0
 34 71  1  0  0  0  0
 34 75  2  0  0  0  0
 35 69  1  0  0  0  0
 35 76  2  0  0  0  0
 36 51  1  0  0  0  0
 36 72  1  0  0  0  0
 36 77  2  0  0  0  0
 37 59  1  0  0  0  0
 37 60  1  0  0  0  0
 37 78  2  0  0  0  0
 38 61  1  0  0  0  0
 38 66  1  0  0  0  0
 38 79  2  0  0  0  0
 39 62  1  0  0  0  0
 39 73  1  0  0  0  0
 39 80  2  0  0  0  0
 40 67  1  0  0  0  0
 40 70  1  0  0  0  0
 40 81  2  0  0  0  0
 41 44  1  0  0  0  0
 42 51  1  0  0  0  0
 43 66  1  0  0  0  0
 44 46  1  0  0  0  0
 45 47  1  0  0  0  0
 45 48  1  0  0  0  0
 46 50  1  0  0  0  0
 47 52  1  0  0  0  0
 48 67  1  0  0  0  0
 49 52  1  0  0  0  0
 49 67  1  0  0  0  0
 50 72  1  0  0  0  0
 51 66  1  0  0  0  0
 52 65  1  0  0  0  0
 53 60  1  0  0  0  0
 54 62  1  0  0  0  0
 55 63  1  0  0  0  0
 56 63  1  0  0  0  0
 57 63  1  0  0  0  0
 58 74  1  0  0  0  0
 59 83  1  0  0  0  0
 60 71  1  0  0  0  0
 61 63  1  0  0  0  0
 61 73  1  0  0  0  0
 62 74  1  0  0  0  0
 64 65  1  0  0  0  0
M  CHG  1  74   1
M  ISO  4  40 100  59 101  70 100  83 101
M  END
> <Batch ID>
0081

> <Smiles>
CNC(C)C(=O)NC(C(=O)N1Cc2cc([101O:1][101CH2:1]C(=O)C(C)NC(=O)c3cc([100NH:0][100C:0](=O)N4CCCC(n5nc(-c6ccc(Oc7ccc(F)cc7F)cc6)c(C(N)=O)c5N)C4)ccc3F)ccc2CC1C(=O)NC1CCCc2ccccc21)C(C)(C)C

> <Shape>
0.207

> <Color>
0.078

> <Negative vol penalty>
0.000

$$$$

  -OEChem-04052300043D

 85 94  0     1  0  0  0  0  0999 V2000
  -19.4870  -31.7378   21.7557 C   0  0  0  0  0  0  0  0  0  0  0  0
  -20.5675  -30.8795   21.5790 C   0  0  0  0  0  0  0  0  0  0  0  0
  -32.2643  -18.6993   22.0449 C   0  0  0  0  0  0  0  0  0  0  0  0
  -23.1949   -9.8006   21.1929 C   0  0  0  0  0  0  0  0  0  0  0  0
  -23.8152  -10.6907   23.3516 C   0  0  0  0  0  0  0  0  0  0  0  0
  -18.3826  -31.3225   22.4985 C   0  0  0  0  0  0  0  0  0  0  0  0
  -20.5447  -29.6057   22.1459 C   0  0  0  0  0  0  0  0  0  0  0  0
  -22.9639  -24.4900   19.8046 C   0  0  0  0  0  0  0  0  0  0  0  0
  -31.3927  -19.7341   22.3842 C   0  0  0  0  0  0  0  0  0  0  0  0
  -31.7636  -17.5139   21.5067 C   0  0  0  0  0  0  0  0  0  0  0  0
  -22.4790   -8.7804   21.8192 C   0  0  0  0  0  0  0  0  0  0  0  0
  -23.0992   -9.6706   23.9780 C   0  0  0  0  0  0  0  0  0  0  0  0
  -24.1647  -23.8241   20.0466 C   0  0  0  0  0  0  0  0  0  0  0  0
  -19.8712   -8.9726   24.6945 C   0  0  0  0  0  0  0  0  0  0  0  0
  -19.0473   -9.3234   25.7639 C   0  0  0  0  0  0  0  0  0  0  0  0
  -23.0346  -22.3629   21.5981 C   0  0  0  0  0  0  0  0  0  0  0  0
  -29.5196  -18.3980   21.6472 C   0  0  0  0  0  0  0  0  0  0  0  0
  -20.3106   -7.8632   27.2162 C   0  0  0  0  0  0  0  0  0  0  0  0
  -23.8631  -10.7557   21.9591 C   0  0  0  0  0  0  0  0  0  0  0  0
  -24.1213  -13.0753   20.9294 C   0  0  0  0  0  0  0  0  0  0  0  0
  -18.3421  -30.0395   23.0667 C   0  0  0  0  0  0  0  0  0  0  0  0
  -21.7897  -24.1036   20.4667 C   0  0  0  0  0  0  0  0  0  0  0  0
  -19.4393  -29.1734   22.8982 C   0  0  0  0  0  0  0  0  0  0  0  0
  -21.8197  -23.0238   21.3607 C   0  0  0  0  0  0  0  0  0  0  0  0
  -30.0204  -19.5834   22.1853 C   0  0  0  0  0  0  0  0  0  0  0  0
  -30.3912  -17.3632   21.3078 C   0  0  0  0  0  0  0  0  0  0  0  0
  -22.4311   -8.7154   23.2117 C   0  0  0  0  0  0  0  0  0  0  0  0
  -24.2008  -22.7623   20.9457 C   0  0  0  0  0  0  0  0  0  0  0  0
  -20.9148   -8.0670   24.8858 C   0  0  0  0  0  0  0  0  0  0  0  0
  -19.2670   -8.7687   27.0248 C   0  0  0  0  0  0  0  0  0  0  0  0
  -21.1345   -7.5123   26.1467 C   0  0  0  0  0  0  0  0  0  0  0  0
  -24.6033  -11.8094   21.3127 C   0  0  0  0  0  0  0  0  0  0  0  0
  -25.2059  -13.6983   20.3618 C   0  0  0  0  0  0  0  0  0  0  0  0
  -27.3358  -22.0112   22.5152 C   0  0  0  0  0  0  0  0  0  0  0  0
  -28.2317  -22.4630   23.5887 C   0  0  0  0  0  0  0  0  0  0  0  0
  -27.9307  -20.8367   21.8458 C   0  0  0  0  0  0  0  0  0  0  0  0
  -26.1694  -22.5709   22.1941 C   0  0  0  0  0  0  0  0  0  1  0  0
  -22.8104  -13.6379   21.0736 C   0  0  0  0  0  0  0  0  0  0  0  0
  -19.7859  -25.5176   22.4889 C   0  0  0  0  0  0  0  0  0  0  0  0
  -18.0710  -22.7942   22.0835 C   0  0  0  0  0  0  0  0  0  0  0  0
  -18.0431  -19.4851   21.2492 C   0  0  0  0  0  0  0  0  0  0  0  0
  -30.6110  -15.0352   20.3706 C   0  0  0  0  0  0  0  0  0  0  0  0
  -17.1468  -29.6526   23.9012 C   0  0  0  0  0  0  0  0  0  0  0  0
  -20.4970  -24.8149   20.1745 C   0  0  0  0  0  0  0  0  0  0  0  0
  -20.5828  -22.5568   22.0820 C   0  0  0  0  0  0  0  0  0  0  0  0
  -29.4336  -21.5656   23.6173 C   0  0  0  0  0  0  0  0  0  0  0  0
  -17.0410  -28.1508   24.1540 C   0  0  0  0  0  0  0  0  0  0  0  0
  -29.7273  -11.8631   19.0164 C   0  0  0  0  0  0  0  0  0  0  0  0
  -18.3921  -27.5844   24.5787 C   0  0  0  0  0  0  0  0  0  0  0  0
  -28.2758  -11.6705   19.4615 C   0  0  0  0  0  0  0  0  0  0  0  0
  -30.5600  -12.5671   20.0863 C   0  0  0  0  0  0  0  0  0  0  0  0
  -28.5491  -13.6414   21.0196 C   0  0  0  0  0  0  0  0  0  0  0  0
  -19.4412  -27.7751   23.4767 C   0  0  1  0  0  0  0  0  0  0  0  0
  -19.4683  -24.6675   21.2913 C   0  0  1  0  0  0  0  0  0  0  0  0
  -27.6554  -12.9945   19.9489 C   0  0  2  0  0  0  0  0  0  0  0  0
  -16.4989  -17.5172   21.0480 C   0  0  0  0  0  0  0  0  0  0  0  0
  -18.0465  -22.5059   25.1210 C   0  0  0  0  0  0  0  0  0  0  0  0
  -17.3578  -20.1178   24.8191 C   0  0  0  0  0  0  0  0  0  0  0  0
  -15.8787  -21.9533   24.0031 C   0  0  0  0  0  0  0  0  0  0  0  0
  -18.5979  -19.1981   18.3564 C   0  0  0  0  0  0  0  0  0  0  0  0
  -18.0248  -21.4483   22.7658 C   0  0  1  0  0  0  0  0  0  0  0  0
  -17.1438  -18.6876   20.3220 C   0  0  2  0  0  0  0  0  0  0  0  0
  -17.3508  -21.5161   24.1653 C   0  0  0  0  0  0  0  0  0  0  0  0
  -25.8936  -11.6367   21.0136 N   0  0  0  0  0  0  0  0  0  0  0  0
  -26.2315  -12.8024   20.4364 N   0  0  0  0  0  0  0  0  0  0  0  0
  -29.1505  -20.6175   22.5240 N   0  0  0  0  0  0  0  0  0  0  0  0
  -19.3444  -23.2883   21.7674 N   0  0  0  0  0  0  0  0  0  0  0  0
  -29.9131  -13.8154   20.4961 N   0  0  0  0  0  0  0  0  0  0  0  0
  -25.3727  -14.9195   19.8111 N   0  0  0  0  0  0  0  0  0  0  0  0
  -21.8131  -12.8615   21.6794 N   0  0  0  0  0  0  0  0  0  0  0  0
  -29.8832  -16.1588   20.7610 N   0  0  0  0  0  0  0  0  0  0  0  0
  -19.2582  -26.7933   22.4293 N   0  0  0  0  0  0  0  0  0  0  0  0
  -17.3707  -20.5390   21.8310 N   0  0  0  0  0  0  0  0  0  0  0  0
  -17.9280  -18.1533   19.1729 N   0  3  0  0  0  0  0  0  0  0  0  0
  -28.0325  -23.4087   24.3315 O   0  0  0  0  0  0  0  0  0  0  0  0
  -27.4435  -20.2197   20.9146 O   0  0  0  0  0  0  0  0  0  0  0  0
  -22.5275  -14.7886   20.6621 O   0  0  0  0  0  0  0  0  0  0  0  0
  -20.4588  -25.0501   23.4002 O   0  0  0  0  0  0  0  0  0  0  0  0
  -17.0157  -23.3820   21.8336 O   0  0  0  0  0  0  0  0  0  0  0  0
  -19.2229  -19.1993   21.4413 O   0  0  0  0  0  0  0  0  0  0  0  0
  -31.7594  -15.0826   19.9223 O   0  0  0  0  0  0  0  0  0  0  0  0
  -21.7323   -7.7203   23.8233 O   0  0  0  0  0  0  0  0  0  0  0  0
  -25.3716  -22.1111   21.1843 O   0  0  0  0  0  0  0  0  0  1  0  0
  -18.4767   -9.1069   28.0520 F   0  0  0  0  0  0  0  0  0  0  0  0
  -22.1361   -6.6427   26.3369 F   0  0  0  0  0  0  0  0  0  0  0  0
  1  2  1  0  0  0  0
  1  6  2  0  0  0  0
  2  7  2  0  0  0  0
  3  9  2  0  0  0  0
  3 10  1  0  0  0  0
  4 11  2  0  0  0  0
  4 19  1  0  0  0  0
  5 12  1  0  0  0  0
  5 19  2  0  0  0  0
  6 21  1  0  0  0  0
  7 23  1  0  0  0  0
  8 13  2  0  0  0  0
  8 22  1  0  0  0  0
  9 25  1  0  0  0  0
 10 26  2  0  0  0  0
 11 27  1  0  0  0  0
 12 27  2  0  0  0  0
 13 28  1  0  0  0  0
 14 15  2  0  0  0  0
 14 29  1  0  0  0  0
 15 30  1  0  0  0  0
 16 24  1  0  0  0  0
 16 28  2  0  0  0  0
 17 25  2  0  0  0  0
 17 26  1  0  0  0  0
 18 30  2  0  0  0  0
 18 31  1  0  0  0  0
 19 32  1  0  0  0  0
 20 32  1  0  0  0  0
 20 33  2  0  0  0  0
 20 38  1  0  0  0  0
 21 23  2  0  0  0  0
 21 43  1  0  0  0  0
 22 24  2  0  0  0  0
 22 44  1  0  0  0  0
 23 53  1  0  0  0  0
 24 45  1  0  0  0  0
 25 66  1  0  0  0  0
 26 71  1  0  0  0  0
 27 82  1  0  0  0  0
 28 83  1  0  0  0  0
 29 31  2  0  0  0  0
 29 82  1  0  0  0  0
 30 84  1  0  0  0  0
 31 85  1  0  0  0  0
 32 64  2  0  0  0  0
 33 65  1  0  0  0  0
 33 69  1  0  0  0  0
 34 35  1  0  0  0  0
 34 36  1  0  0  0  0
 34 37  2  0  0  0  0
 35 46  1  0  0  0  0
 35 75  2  0  0  0  0
 36 66  1  0  0  0  0
 36 76  2  0  0  0  0
 37 83  1  0  0  0  0
 38 70  1  0  0  0  0
 38 77  2  0  0  0  0
 39 54  1  0  0  0  0
 39 72  1  0  0  0  0
 39 78  2  0  0  0  0
 40 61  1  0  0  0  0
 40 67  1  0  0  0  0
 40 79  2  0  0  0  0
 41 62  1  0  0  0  0
 41 73  1  0  0  0  0
 41 80  2  0  0  0  0
 42 68  1  0  0  0  0
 42 71  1  0  0  0  0
 42 81  2  0  0  0  0
 43 47  1  0  0  0  0
 44 54  1  0  0  0  0
 45 67  1  0  0  0  0
 46 66  1  0  0  0  0
 47 49  1  0  0  0  0
 48 50  1  0  0  0  0
 48 51  1  0  0  0  0
 49 53  1  0  0  0  0
 50 55  1  0  0  0  0
 51 68  1  0  0  0  0
 52 55  1  0  0  0  0
 52 68  1  0  0  0  0
 53 72  1  0  0  0  0
 54 67  1  0  0  0  0
 55 65  1  0  0  0  0
 56 62  1  0  0  0  0
 57 63  1  0  0  0  0
 58 63  1  0  0  0  0
 59 63  1  0  0  0  0
 60 74  1  0  0  0  0
 61 63  1  0  0  0  0
 61 73  1  0  0  0  0
 62 74  1  0  0  0  0
 64 65  1  0  0  0  0
M  CHG  1  74   1
M  ISO  4  37 101  42 100  71 100  83 101
M  END
> <Batch ID>
0081

> <Smiles>
CNC(C)C(=O)NC(C(=O)N1Cc2cc([101O:1][101CH:1]=C3C(=O)CN(c4cccc([100NH:0][100C:0](=O)N5CCCC(n6nc(-c7ccc(Oc8ccc(F)cc8F)cc7)c(C(N)=O)c6N)C5)c4)C3=O)ccc2CC1C(=O)NC1CCCc2ccccc21)C(C)(C)C

> <Shape>
0.206

> <Color>
0.145

> <Negative vol penalty>
0.000

$$$$

  -OEChem-04052300043D

 82 91  0     1  0  0  0  0  0999 V2000
  -29.0905  -37.2707   22.5364 C   0  0  0  0  0  0  0  0  0  0  0  0
  -29.2018  -36.2774   21.5687 C   0  0  0  0  0  0  0  0  0  0  0  0
  -23.7420  -10.5139   23.3055 C   0  0  0  0  0  0  0  0  0  0  0  0
  -23.9211  -12.3105   24.9108 C   0  0  0  0  0  0  0  0  0  0  0  0
  -28.6592  -36.9450   23.8217 C   0  0  0  0  0  0  0  0  0  0  0  0
  -28.8830  -34.9576   21.8861 C   0  0  0  0  0  0  0  0  0  0  0  0
  -26.1359  -29.0208   18.9664 C   0  0  0  0  0  0  0  0  0  0  0  0
  -23.0818   -9.7324   24.2536 C   0  0  0  0  0  0  0  0  0  0  0  0
  -23.2608  -11.5291   25.8590 C   0  0  0  0  0  0  0  0  0  0  0  0
  -26.4253  -27.6665   18.8053 C   0  0  0  0  0  0  0  0  0  0  0  0
  -19.9678   -9.4883   25.5484 C   0  0  0  0  0  0  0  0  0  0  0  0
  -18.8284   -8.7961   25.1381 C   0  0  0  0  0  0  0  0  0  0  0  0
  -30.7426  -20.3793   19.1632 C   0  0  0  0  0  0  0  0  0  0  0  0
  -30.9456  -19.0500   19.6343 C   0  0  0  0  0  0  0  0  0  0  0  0
  -25.6152  -27.2342   21.0360 C   0  0  0  0  0  0  0  0  0  0  0  0
  -19.8864   -6.7055   25.7274 C   0  0  0  0  0  0  0  0  0  0  0  0
  -24.1617  -11.8029   23.6341 C   0  0  0  0  0  0  0  0  0  0  0  0
  -24.2624  -13.4964   21.7289 C   0  0  0  0  0  0  0  0  0  0  0  0
  -28.3258  -35.6221   24.1523 C   0  0  0  0  0  0  0  0  0  0  0  0
  -25.5932  -29.4944   20.1695 C   0  0  0  0  0  0  0  0  0  0  0  0
  -28.4482  -34.6136   23.1774 C   0  0  0  0  0  0  0  0  0  0  0  0
  -25.3174  -28.5946   21.2089 C   0  0  0  0  0  0  0  0  0  0  0  0
  -22.8411  -10.2400   25.5303 C   0  0  0  0  0  0  0  0  0  0  0  0
  -26.1676  -26.7734   19.8412 C   0  0  0  0  0  0  0  0  0  0  0  0
  -21.0665   -8.7891   26.0481 C   0  0  0  0  0  0  0  0  0  0  0  0
  -18.7877   -7.4047   25.2276 C   0  0  0  0  0  0  0  0  0  0  0  0
  -21.0258   -7.3978   26.1376 C   0  0  0  0  0  0  0  0  0  0  0  0
  -24.8443  -12.6104   22.6552 C   0  0  0  0  0  0  0  0  0  0  0  0
  -25.3274  -14.0135   21.0326 C   0  0  0  0  0  0  0  0  0  0  0  0
  -29.4358  -20.7879   19.3141 C   0  0  0  0  0  0  0  0  0  0  0  0
  -29.7860  -18.4933   20.1276 C   0  0  0  0  0  0  0  0  0  0  0  0
  -28.1384  -23.8197   19.2633 C   0  0  0  0  0  0  0  0  0  0  0  0
  -29.4255  -23.1798   18.9885 C   0  0  0  0  0  0  0  0  0  0  0  0
  -27.7445  -25.0948   19.4333 C   0  0  0  0  0  0  0  0  0  1  0  0
  -22.8824  -13.8228   21.5168 C   0  0  0  0  0  0  0  0  0  0  0  0
  -26.5446  -31.5419   22.4071 C   0  0  0  0  0  0  0  0  0  0  0  0
  -23.5726  -31.0193   23.5973 C   0  0  0  0  0  0  0  0  0  0  0  0
  -20.8594  -28.9607   23.8146 C   0  0  0  0  0  0  0  0  0  0  0  0
  -30.4533  -16.1821   20.8755 C   0  0  0  0  0  0  0  0  0  0  0  0
  -27.9095  -35.3106   25.5680 C   0  0  0  0  0  0  0  0  0  0  0  0
  -25.2619  -30.9541   20.3178 C   0  0  0  0  0  0  0  0  0  0  0  0
  -24.7165  -29.0493   22.5130 C   0  0  0  0  0  0  0  0  0  0  0  0
  -27.4924  -22.4532   19.2750 C   0  0  0  0  0  0  0  0  0  0  0  0
  -27.2328  -33.9506   25.7186 C   0  0  0  0  0  0  0  0  0  0  0  0
  -30.1963  -12.6318   20.9560 C   0  0  0  0  0  0  0  0  0  0  0  0
  -28.0235  -32.8760   24.9791 C   0  0  0  0  0  0  0  0  0  0  0  0
  -28.7331  -12.3826   21.3291 C   0  0  0  0  0  0  0  0  0  0  0  0
  -30.7660  -13.8513   21.6785 C   0  0  0  0  0  0  0  0  0  0  0  0
  -28.5183  -14.8345   21.9027 C   0  0  0  0  0  0  0  0  0  0  0  0
  -28.0879  -33.1746   23.4763 C   0  0  1  0  0  0  0  0  0  0  0  0
  -25.1891  -31.4055   21.7732 C   0  0  1  0  0  0  0  0  0  0  0  0
  -27.8815  -13.6547   21.1502 C   0  0  2  0  0  0  0  0  0  0  0  0
  -18.5995  -28.7872   24.8916 C   0  0  0  0  0  0  0  0  0  0  0  0
  -24.8962  -30.3228   26.2568 C   0  0  0  0  0  0  0  0  0  0  0  0
  -22.7417  -29.2676   26.9731 C   0  0  0  0  0  0  0  0  0  0  0  0
  -22.8223  -31.7063   26.4545 C   0  0  0  0  0  0  0  0  0  0  0  0
  -19.4891  -28.8639   21.1932 C   0  0  0  0  0  0  0  0  0  0  0  0
  -22.9671  -30.0320   24.5656 C   0  0  1  0  0  0  0  0  0  0  0  0
  -19.3738  -29.2325   23.6609 C   0  0  2  0  0  0  0  0  0  0  0  0
  -23.3700  -30.3236   26.0388 C   0  0  0  0  0  0  0  0  0  0  0  0
  -26.1757  -12.5647   22.5587 N   0  0  0  0  0  0  0  0  0  0  0  0
  -26.4392  -13.4284   21.5633 N   0  0  0  0  0  0  0  0  0  0  0  0
  -28.8308  -21.9612   18.9999 N   0  0  0  0  0  0  0  0  0  0  0  0
  -24.4161  -30.4871   22.6118 N   0  0  0  0  0  0  0  0  0  0  0  0
  -29.9094  -15.0191   21.4606 N   0  0  0  0  0  0  0  0  0  0  0  0
  -25.4119  -14.9071   20.0242 N   0  0  0  0  0  0  0  0  0  0  0  0
  -21.9175  -13.2001   22.3202 N   0  0  0  0  0  0  0  0  0  0  0  0
  -29.5365  -17.2159   20.6877 N   0  0  0  0  0  0  0  0  0  0  0  0
  -26.8384  -32.8219   22.8369 N   0  0  0  0  0  0  0  0  0  0  0  0
  -21.5285  -30.0533   24.3242 N   0  0  0  0  0  0  0  0  0  0  0  0
  -18.8339  -28.5054   22.4774 N   0  3  0  0  0  0  0  0  0  0  0  0
  -30.5700  -23.5707   18.8868 O   0  0  0  0  0  0  0  0  0  0  0  0
  -22.5148  -14.6300   20.6299 O   0  0  0  0  0  0  0  0  0  0  0  0
  -27.2695  -30.5583   22.5007 O   0  0  0  0  0  0  0  0  0  0  0  0
  -23.3014  -32.2177   23.7068 O   0  0  0  0  0  0  0  0  0  0  0  0
  -21.3741  -27.8852   23.5162 O   0  0  0  0  0  0  0  0  0  0  0  0
  -31.6386  -16.2459   20.5391 O   0  0  0  0  0  0  0  0  0  0  0  0
  -22.1966   -9.4779   26.4557 O   0  0  0  0  0  0  0  0  0  0  0  0
  -26.4497  -25.4511   19.6868 O   0  0  0  0  0  0  0  0  0  1  0  0
  -17.6930   -6.7402   24.8351 F   0  0  0  0  0  0  0  0  0  0  0  0
  -22.0778   -6.7207   26.6179 F   0  0  0  0  0  0  0  0  0  0  0  0
  -28.4599  -19.5715   20.0214 S   0  0  0  0  0  0  0  0  0  0  0  0
  1  2  1  0  0  0  0
  1  5  2  0  0  0  0
  2  6  2  0  0  0  0
  3  8  2  0  0  0  0
  3 17  1  0  0  0  0
  4  9  1  0  0  0  0
  4 17  2  0  0  0  0
  5 19  1  0  0  0  0
  6 21  1  0  0  0  0
  7 10  2  0  0  0  0
  7 20  1  0  0  0  0
  8 23  1  0  0  0  0
  9 23  2  0  0  0  0
 10 24  1  0  0  0  0
 11 12  2  0  0  0  0
 11 25  1  0  0  0  0
 12 26  1  0  0  0  0
 13 14  1  0  0  0  0
 13 30  2  0  0  0  0
 14 31  2  0  0  0  0
 15 22  1  0  0  0  0
 15 24  2  0  0  0  0
 16 26  2  0  0  0  0
 16 27  1  0  0  0  0
 17 28  1  0  0  0  0
 18 28  1  0  0  0  0
 18 29  2  0  0  0  0
 18 35  1  0  0  0  0
 19 21  2  0  0  0  0
 19 40  1  0  0  0  0
 20 22  2  0  0  0  0
 20 41  1  0  0  0  0
 21 50  1  0  0  0  0
 22 42  1  0  0  0  0
 23 78  1  0  0  0  0
 24 79  1  0  0  0  0
 25 27  2  0  0  0  0
 25 78  1  0  0  0  0
 26 80  1  0  0  0  0
 27 81  1  0  0  0  0
 28 61  2  0  0  0  0
 29 62  1  0  0  0  0
 29 66  1  0  0  0  0
 30 63  1  0  0  0  0
 30 82  1  0  0  0  0
 31 68  1  0  0  0  0
 31 82  1  0  0  0  0
 32 33  1  0  0  0  0
 32 34  2  0  0  0  0
 32 43  1  0  0  0  0
 33 63  1  0  0  0  0
 33 72  2  0  0  0  0
 34 79  1  0  0  0  0
 35 67  1  0  0  0  0
 35 73  2  0  0  0  0
 36 51  1  0  0  0  0
 36 69  1  0  0  0  0
 36 74  2  0  0  0  0
 37 58  1  0  0  0  0
 37 64  1  0  0  0  0
 37 75  2  0  0  0  0
 38 59  1  0  0  0  0
 38 70  1  0  0  0  0
 38 76  2  0  0  0  0
 39 65  1  0  0  0  0
 39 68  1  0  0  0  0
 39 77  2  0  0  0  0
 40 44  1  0  0  0  0
 41 51  1  0  0  0  0
 42 64  1  0  0  0  0
 43 63  1  0  0  0  0
 44 46  1  0  0  0  0
 45 47  1  0  0  0  0
 45 48  1  0  0  0  0
 46 50  1  0  0  0  0
 47 52  1  0  0  0  0
 48 65  1  0  0  0  0
 49 52  1  0  0  0  0
 49 65  1  0  0  0  0
 50 69  1  0  0  0  0
 51 64  1  0  0  0  0
 52 62  1  0  0  0  0
 53 59  1  0  0  0  0
 54 60  1  0  0  0  0
 55 60  1  0  0  0  0
 56 60  1  0  0  0  0
 57 71  1  0  0  0  0
 58 60  1  0  0  0  0
 58 70  1  0  0  0  0
 59 71  1  0  0  0  0
 61 62  1  0  0  0  0
M  CHG  1  71   1
M  ISO  4  34 101  39 100  68 100  79 101
M  END
> <Batch ID>
0081

> <Smiles>
CNC(C)C(=O)NC(C(=O)N1Cc2cc([101O:1][101CH:1]=C3CN(c4ccc([100NH:0][100C:0](=O)N5CCCC(n6nc(-c7ccc(Oc8ccc(F)cc8F)cc7)c(C(N)=O)c6N)C5)s4)C3=O)ccc2CC1C(=O)NC1CCCc2ccccc21)C(C)(C)C

> <Shape>
0.273

> <Color>
0.127

> <Negative vol penalty>
0.000

$$$$

  -OEChem-04052300043D

 90 99  0     1  0  0  0  0  0999 V2000
  -29.6046  -33.8836   25.0382 C   0  0  0  0  0  0  0  0  0  0  0  0
  -29.4406  -32.5920   24.5481 C   0  0  0  0  0  0  0  0  0  0  0  0
  -24.6731   -8.5615   21.4072 C   0  0  0  0  0  0  0  0  0  0  0  0
  -23.0439  -10.3340   21.2049 C   0  0  0  0  0  0  0  0  0  0  0  0
  -28.4942  -34.6151   25.4575 C   0  0  0  0  0  0  0  0  0  0  0  0
  -28.1661  -32.0307   24.4780 C   0  0  0  0  0  0  0  0  0  0  0  0
  -27.3270  -29.6584   20.0834 C   0  0  0  0  0  0  0  0  0  0  0  0
  -28.4215  -19.8750   18.2588 C   0  0  0  0  0  0  0  0  0  0  0  0
  -29.7964  -20.6203   20.1004 C   0  0  0  0  0  0  0  0  0  0  0  0
  -28.5549  -18.5562   18.6929 C   0  0  0  0  0  0  0  0  0  0  0  0
  -29.9298  -19.3015   20.5345 C   0  0  0  0  0  0  0  0  0  0  0  0
  -23.8771   -7.9395   22.3690 C   0  0  0  0  0  0  0  0  0  0  0  0
  -22.2478   -9.7120   22.1666 C   0  0  0  0  0  0  0  0  0  0  0  0
  -27.8860  -28.3908   19.9272 C   0  0  0  0  0  0  0  0  0  0  0  0
  -21.1028   -6.0078   22.4360 C   0  0  0  0  0  0  0  0  0  0  0  0
  -20.9108   -4.6305   22.3267 C   0  0  0  0  0  0  0  0  0  0  0  0
  -25.7528  -27.3924   20.4488 C   0  0  0  0  0  0  0  0  0  0  0  0
  -21.9093   -4.3185   24.5045 C   0  0  0  0  0  0  0  0  0  0  0  0
  -24.2566   -9.7587   20.8252 C   0  0  0  0  0  0  0  0  0  0  0  0
  -25.0385  -10.2061   18.4385 C   0  0  0  0  0  0  0  0  0  0  0  0
  -27.2044  -34.0660   25.3835 C   0  0  0  0  0  0  0  0  0  0  0  0
  -25.9771  -29.8027   20.4347 C   0  0  0  0  0  0  0  0  0  0  0  0
  -27.0375  -32.7550   24.8980 C   0  0  0  0  0  0  0  0  0  0  0  0
  -25.1785  -28.6630   20.6063 C   0  0  0  0  0  0  0  0  0  0  0  0
  -29.0423  -20.9071   18.9625 C   0  0  0  0  0  0  0  0  0  0  0  0
  -29.3091  -18.2694   19.8308 C   0  0  0  0  0  0  0  0  0  0  0  0
  -22.6644   -8.5147   22.7487 C   0  0  0  0  0  0  0  0  0  0  0  0
  -27.0996  -27.2575   20.1128 C   0  0  0  0  0  0  0  0  0  0  0  0
  -21.6981   -6.5404   23.5796 C   0  0  0  0  0  0  0  0  0  0  0  0
  -21.3141   -3.7859   23.3609 C   0  0  0  0  0  0  0  0  0  0  0  0
  -22.1013   -5.6957   24.6138 C   0  0  0  0  0  0  0  0  0  0  0  0
  -25.0787  -10.4020   19.8320 C   0  0  0  0  0  0  0  0  0  0  0  0
  -26.0094  -11.0435   17.9459 C   0  0  0  0  0  0  0  0  0  0  0  0
  -28.6477  -24.0873   17.2150 C   0  0  0  0  0  0  0  0  0  0  0  0
  -28.7491  -24.5128   18.4765 C   0  0  0  0  0  0  0  0  0  0  0  0
  -28.7389  -22.6115   17.2175 C   0  0  0  0  0  0  0  0  0  0  0  0
  -28.9293  -23.3321   19.3482 C   0  0  0  0  0  0  0  0  0  0  0  0
  -24.1985   -9.3444   17.6591 C   0  0  0  0  0  0  0  0  0  0  0  0
  -24.4246  -31.0686   22.9026 C   0  0  0  0  0  0  0  0  0  0  0  0
  -21.8117  -30.4103   21.0965 C   0  0  0  0  0  0  0  0  0  0  0  0
  -30.6084  -16.4754   20.9632 C   0  0  0  0  0  0  0  0  0  0  0  0
  -20.4031  -28.5429   18.6114 C   0  0  0  0  0  0  0  0  0  0  0  0
  -28.3216  -16.0577   20.2122 C   0  0  0  0  0  0  0  0  0  0  0  0
  -26.0396  -34.8776   25.8927 C   0  0  0  0  0  0  0  0  0  0  0  0
  -25.3826  -31.1774   20.5732 C   0  0  0  0  0  0  0  0  0  0  0  0
  -23.7190  -28.7640   20.9642 C   0  0  0  0  0  0  0  0  0  0  0  0
  -24.6825  -34.3486   25.4357 C   0  0  0  0  0  0  0  0  0  0  0  0
  -30.1670  -13.0770   19.1323 C   0  0  0  0  0  0  0  0  0  0  0  0
  -24.6069  -32.8371   25.6268 C   0  0  0  0  0  0  0  0  0  0  0  0
  -29.0547  -12.0290   19.0978 C   0  0  0  0  0  0  0  0  0  0  0  0
  -29.9450  -14.0879   20.2525 C   0  0  0  0  0  0  0  0  0  0  0  0
  -27.4993  -13.7150   20.1767 C   0  0  0  0  0  0  0  0  0  0  0  0
  -25.6684  -32.1207   24.7833 C   0  0  1  0  0  0  0  0  0  0  0  0
  -24.1248  -31.2002   21.4362 C   0  0  1  0  0  0  0  0  0  0  0  0
  -27.6676  -12.6933   19.0392 C   0  0  2  0  0  0  0  0  0  0  0  0
  -28.4662  -24.8461   15.9531 C   0  0  0  0  0  0  0  0  0  0  0  0
  -33.0704  -16.0173   20.5924 C   0  0  0  0  0  0  0  0  0  0  0  0
  -18.2401  -28.2078   17.3840 C   0  0  0  0  0  0  0  0  0  0  0  0
  -20.6831  -28.9082   23.5006 C   0  0  0  0  0  0  0  0  0  0  0  0
  -19.0322  -27.8255   21.9610 C   0  0  0  0  0  0  0  0  0  0  0  0
  -19.0146  -30.3015   22.2639 C   0  0  0  0  0  0  0  0  0  0  0  0
  -21.6264  -29.2779   16.0187 C   0  0  0  0  0  0  0  0  0  0  0  0
  -28.7174  -25.8866   19.0359 C   0  0  0  0  0  0  0  0  0  1  0  0
  -31.9138  -16.9715   20.3445 C   0  0  0  0  0  0  0  0  0  0  0  0
  -20.8862  -29.2272   20.9466 C   0  0  1  0  0  0  0  0  0  0  0  0
  -19.5748  -28.9367   17.4018 C   0  0  2  0  0  0  0  0  0  0  0  0
  -19.9320  -29.0633   22.1632 C   0  0  0  0  0  0  0  0  0  0  0  0
  -26.0022  -11.2937   20.2009 N   0  0  0  0  0  0  0  0  0  0  0  0
  -26.5513  -11.6655   19.0320 N   0  0  0  0  0  0  0  0  0  0  0  0
  -28.9093  -22.2262   18.5283 N   0  0  0  0  0  0  0  0  0  0  0  0
  -23.1855  -30.1300   21.0947 N   0  0  0  0  0  0  0  0  0  0  0  0
  -28.6022  -14.6781   20.1733 N   0  0  0  0  0  0  0  0  0  0  0  0
  -26.4440  -11.3010   16.6940 N   0  0  0  0  0  0  0  0  0  0  0  0
  -23.2540   -8.5513   18.3248 N   0  0  0  0  0  0  0  0  0  0  0  0
  -25.2543  -32.0563   23.3981 N   0  0  0  0  0  0  0  0  0  0  0  0
  -20.2021  -29.4032   19.6701 N   0  0  0  0  0  0  0  0  0  0  0  0
  -29.4479  -16.8992   20.2821 N   0  0  0  0  0  0  0  0  0  0  0  0
  -20.3056  -28.6097   16.1448 N   0  3  0  0  0  0  0  0  0  0  0  0
  -28.6710  -21.9182   16.2147 O   0  0  0  0  0  0  0  0  0  0  0  0
  -29.0638  -23.3886   20.5604 O   0  0  0  0  0  0  0  0  0  0  0  0
  -24.2941   -9.2676   16.4107 O   0  0  0  0  0  0  0  0  0  0  0  0
  -23.9379  -30.1406   23.5379 O   0  0  0  0  0  0  0  0  0  0  0  0
  -21.3336  -31.5424   21.2039 O   0  0  0  0  0  0  0  0  0  0  0  0
  -30.6258  -15.7080   21.9269 O   0  0  0  0  0  0  0  0  0  0  0  0
  -21.1508  -27.5675   18.6179 O   0  0  0  0  0  0  0  0  0  0  0  0
  -27.1798  -16.5249   20.1433 O   0  0  0  0  0  0  0  0  0  0  0  0
  -21.8872   -7.9080   23.6870 O   0  0  0  0  0  0  0  0  0  0  0  0
  -27.6472  -26.0093   19.9604 O   0  0  0  0  0  0  0  0  0  1  0  0
  -21.1283   -2.4635   23.2564 F   0  0  0  0  0  0  0  0  0  0  0  0
  -22.6726   -6.2017   25.7153 F   0  0  0  0  0  0  0  0  0  0  0  0
  1  2  1  0  0  0  0
  1  5  2  0  0  0  0
  2  6  2  0  0  0  0
  3 12  2  0  0  0  0
  3 19  1  0  0  0  0
  4 13  1  0  0  0  0
  4 19  2  0  0  0  0
  5 21  1  0  0  0  0
  6 23  1  0  0  0  0
  7 14  2  0  0  0  0
  7 22  1  0  0  0  0
  8 10  2  0  0  0  0
  8 25  1  0  0  0  0
  9 11  1  0  0  0  0
  9 25  2  0  0  0  0
 10 26  1  0  0  0  0
 11 26  2  0  0  0  0
 12 27  1  0  0  0  0
 13 27  2  0  0  0  0
 14 28  1  0  0  0  0
 15 16  2  0  0  0  0
 15 29  1  0  0  0  0
 16 30  1  0  0  0  0
 17 24  1  0  0  0  0
 17 28  2  0  0  0  0
 18 30  2  0  0  0  0
 18 31  1  0  0  0  0
 19 32  1  0  0  0  0
 20 32  1  0  0  0  0
 20 33  2  0  0  0  0
 20 38  1  0  0  0  0
 21 23  2  0  0  0  0
 21 44  1  0  0  0  0
 22 24  2  0  0  0  0
 22 45  1  0  0  0  0
 23 53  1  0  0  0  0
 24 46  1  0  0  0  0
 25 70  1  0  0  0  0
 26 77  1  0  0  0  0
 27 87  1  0  0  0  0
 28 88  1  0  0  0  0
 29 31  2  0  0  0  0
 29 87  1  0  0  0  0
 30 89  1  0  0  0  0
 31 90  1  0  0  0  0
 32 68  2  0  0  0  0
 33 69  1  0  0  0  0
 33 73  1  0  0  0  0
 34 35  2  0  0  0  0
 34 36  1  0  0  0  0
 34 56  1  0  0  0  0
 35 37  1  0  0  0  0
 35 63  1  0  0  0  0
 36 70  1  0  0  0  0
 36 79  2  0  0  0  0
 37 70  1  0  0  0  0
 37 80  2  0  0  0  0
 38 74  1  0  0  0  0
 38 81  2  0  0  0  0
 39 54  1  0  0  0  0
 39 75  1  0  0  0  0
 39 82  2  0  0  0  0
 40 65  1  0  0  0  0
 40 71  1  0  0  0  0
 40 83  2  0  0  0  0
 41 64  1  0  0  0  0
 41 77  1  0  0  0  0
 41 84  2  0  0  0  0
 42 66  1  0  0  0  0
 42 76  1  0  0  0  0
 42 85  2  0  0  0  0
 43 72  1  0  0  0  0
 43 77  1  0  0  0  0
 43 86  2  0  0  0  0
 44 47  1  0  0  0  0
 45 54  1  0  0  0  0
 46 71  1  0  0  0  0
 47 49  1  0  0  0  0
 48 50  1  0  0  0  0
 48 51  1  0  0  0  0
 49 53  1  0  0  0  0
 50 55  1  0  0  0  0
 51 72  1  0  0  0  0
 52 55  1  0  0  0  0
 52 72  1  0  0  0  0
 53 75  1  0  0  0  0
 54 71  1  0  0  0  0
 55 69  1  0  0  0  0
 57 64  1  0  0  0  0
 58 66  1  0  0  0  0
 59 67  1  0  0  0  0
 60 67  1  0  0  0  0
 61 67  1  0  0  0  0
 62 78  1  0  0  0  0
 63 88  1  0  0  0  0
 65 67  1  0  0  0  0
 65 76  1  0  0  0  0
 66 78  1  0  0  0  0
 68 69  1  0  0  0  0
M  CHG  1  78   1
M  ISO  4  43 100  63 101  77 100  88 101
M  END
> <Batch ID>
0081

> <Smiles>
CCC(=O)[100N:0](c1ccc(N2C(=O)C(C)=C([101CH2:1][101O:1]c3ccc4c(c3)CN(C(=O)C(NC(=O)C(C)NC)C(C)(C)C)C(C(=O)NC3CCCc5ccccc53)C4)C2=O)cc1)[100C:0](=O)N1CCCC(n2nc(-c3ccc(Oc4ccc(F)cc4F)cc3)c(C(N)=O)c2N)C1

> <Shape>
0.364

> <Color>
0.098

> <Negative vol penalty>
0.000

$$$$

  -OEChem-04052300043D

 87 96  0     1  0  0  0  0  0999 V2000
  -32.4996  -16.7626   23.2162 C   0  0  0  0  0  0  0  0  0  0  0  0
  -31.3303  -17.5040   23.0800 C   0  0  0  0  0  0  0  0  0  0  0  0
  -19.4833  -25.5959   24.9195 C   0  0  0  0  0  0  0  0  0  0  0  0
  -28.3286  -26.5724   21.5654 C   0  0  0  0  0  0  0  0  0  0  0  0
  -29.6020  -28.4446   20.7224 C   0  0  0  0  0  0  0  0  0  0  0  0
  -19.3671  -26.8939   24.4221 C   0  0  0  0  0  0  0  0  0  0  0  0
  -32.5869  -15.4907   22.6519 C   0  0  0  0  0  0  0  0  0  0  0  0
  -30.2479  -16.9742   22.3784 C   0  0  0  0  0  0  0  0  0  0  0  0
  -25.8430  -17.6904   24.7719 C   0  0  0  0  0  0  0  0  0  0  0  0
  -20.4879  -24.7537   24.4429 C   0  0  0  0  0  0  0  0  0  0  0  0
  -29.1092  -25.7000   20.8070 C   0  0  0  0  0  0  0  0  0  0  0  0
  -30.3826  -27.5721   19.9640 C   0  0  0  0  0  0  0  0  0  0  0  0
  -25.2697  -18.9583   24.6846 C   0  0  0  0  0  0  0  0  0  0  0  0
  -32.1733  -24.2845   21.0078 C   0  0  0  0  0  0  0  0  0  0  0  0
  -32.6361  -23.1236   21.6273 C   0  0  0  0  0  0  0  0  0  0  0  0
  -21.2599  -26.5073   22.9712 C   0  0  0  0  0  0  0  0  0  0  0  0
  -23.7808  -18.1599   22.9628 C   0  0  0  0  0  0  0  0  0  0  0  0
  -31.4649  -21.7844   19.9927 C   0  0  0  0  0  0  0  0  0  0  0  0
  -28.5749  -27.9447   21.5230 C   0  0  0  0  0  0  0  0  0  0  0  0
  -20.2554  -27.3495   23.4479 C   0  0  0  0  0  0  0  0  0  0  0  0
  -28.0101  -29.2763   23.6244 C   0  0  0  0  0  0  0  0  0  0  0  0
  -31.5016  -14.9412   21.9512 C   0  0  0  0  0  0  0  0  0  0  0  0
  -25.3961  -16.6488   23.9462 C   0  0  0  0  0  0  0  0  0  0  0  0
  -30.3213  -15.6943   21.8030 C   0  0  0  0  0  0  0  0  0  0  0  0
  -24.3483  -16.8791   23.0433 C   0  0  0  0  0  0  0  0  0  0  0  0
  -21.3762  -25.2093   23.4688 C   0  0  0  0  0  0  0  0  0  0  0  0
  -30.1362  -26.1998   20.0063 C   0  0  0  0  0  0  0  0  0  0  0  0
  -24.2404  -19.1940   23.7780 C   0  0  0  0  0  0  0  0  0  0  0  0
  -31.3562  -24.1953   19.8808 C   0  0  0  0  0  0  0  0  0  0  0  0
  -32.2819  -21.8736   21.1198 C   0  0  0  0  0  0  0  0  0  0  0  0
  -31.0021  -22.9453   19.3732 C   0  0  0  0  0  0  0  0  0  0  0  0
  -27.7686  -28.8465   22.3057 C   0  0  0  0  0  0  0  0  0  0  0  0
  -26.9625  -30.1178   23.9086 C   0  0  0  0  0  0  0  0  0  0  0  0
  -23.7563  -22.5601   22.6417 C   0  0  0  0  0  0  0  0  0  0  0  0
  -24.2237  -23.5997   21.7595 C   0  0  0  0  0  0  0  0  0  0  0  0
  -22.5861  -23.0475   23.4238 C   0  0  0  0  0  0  0  0  0  0  0  0
  -25.2454  -23.5602   20.8976 C   0  0  0  0  0  0  0  0  0  0  0  0
  -24.2238  -21.3231   22.8098 C   0  0  0  0  0  0  0  0  0  1  0  0
  -20.1304  -28.7321   22.9190 C   0  0  0  0  0  0  0  0  0  0  0  0
  -29.0854  -28.9444   24.5129 C   0  0  0  0  0  0  0  0  0  0  0  0
  -26.7276  -14.8418   21.6955 C   0  0  0  0  0  0  0  0  0  0  0  0
  -23.8807  -13.2907   21.8050 C   0  0  0  0  0  0  0  0  0  0  0  0
  -20.5541  -13.3907   22.5604 C   0  0  0  0  0  0  0  0  0  0  0  0
  -21.4010  -30.5731   21.8607 C   0  0  0  0  0  0  0  0  0  0  0  0
  -31.6598  -13.5814   21.3182 C   0  0  0  0  0  0  0  0  0  0  0  0
  -26.0068  -15.2800   24.0713 C   0  0  0  0  0  0  0  0  0  0  0  0
  -23.8184  -15.7894   22.1487 C   0  0  0  0  0  0  0  0  0  0  0  0
  -23.3374  -24.7893   21.9740 C   0  0  0  0  0  0  0  0  0  0  0  0
  -30.3351  -12.9413   20.9110 C   0  0  0  0  0  0  0  0  0  0  0  0
  -23.8709  -33.1010   21.7823 C   0  0  0  0  0  0  0  0  0  0  0  0
  -29.4599  -13.9491   20.1726 C   0  0  0  0  0  0  0  0  0  0  0  0
  -25.1741  -32.3408   22.0434 C   0  0  0  0  0  0  0  0  0  0  0  0
  -22.9092  -32.2956   20.9098 C   0  0  0  0  0  0  0  0  0  0  0  0
  -23.9297  -30.1788   21.6419 C   0  0  0  0  0  0  0  0  0  0  0  0
  -29.1169  -15.1440   21.0704 C   0  0  1  0  0  0  0  0  0  0  0  0
  -25.8220  -14.4266   22.8203 C   0  0  1  0  0  0  0  0  0  0  0  0
  -24.9028  -30.9186   22.5739 C   0  0  1  0  0  0  0  0  0  0  0  0
  -18.4786  -11.9811   22.5066 C   0  0  0  0  0  0  0  0  0  0  0  0
  -23.6828  -13.7017   18.7881 C   0  0  0  0  0  0  0  0  0  0  0  0
  -21.2447  -13.1543   18.9437 C   0  0  0  0  0  0  0  0  0  0  0  0
  -22.9476  -11.4478   19.5843 C   0  0  0  0  0  0  0  0  0  0  0  0
  -20.2196  -13.5653   25.4958 C   0  0  0  0  0  0  0  0  0  0  0  0
  -22.5560  -13.4363   21.0959 C   0  0  1  0  0  0  0  0  0  0  0  0
  -19.6686  -12.4339   23.3382 C   0  0  2  0  0  0  0  0  0  0  0  0
  -22.6188  -12.9563   19.6184 C   0  0  0  0  0  0  0  0  0  0  0  0
  -26.6549  -29.3716   21.7881 N   0  0  0  0  0  0  0  0  0  0  0  0
  -26.1872  -30.1399   22.7867 N   0  0  0  0  0  0  0  0  0  0  0  0
  -22.3782  -24.3692   22.9937 N   0  0  0  0  0  0  0  0  0  0  0  0
  -24.4524  -14.4697   22.3040 N   0  0  0  0  0  0  0  0  0  0  0  0
  -22.6975  -30.9662   21.4854 N   0  0  0  0  0  0  0  0  0  0  0  0
  -26.6381  -30.8337   25.0062 N   0  0  0  0  0  0  0  0  0  0  0  0
  -30.0783  -28.0646   24.0609 N   0  0  0  0  0  0  0  0  0  0  0  0
  -21.3100  -29.3025   22.4398 N   0  0  0  0  0  0  0  0  0  0  0  0
  -28.0727  -14.7887   22.0074 N   0  0  0  0  0  0  0  0  0  0  0  0
  -21.5758  -12.7289   21.9128 N   0  0  0  0  0  0  0  0  0  0  0  0
  -19.1558  -13.0910   24.5737 N   0  3  0  0  0  0  0  0  0  0  0  0
  -21.9629  -22.4082   24.2546 O   0  0  0  0  0  0  0  0  0  0  0  0
  -19.0248  -29.2659   22.8960 O   0  0  0  0  0  0  0  0  0  0  0  0
  -29.1546  -29.4014   25.6790 O   0  0  0  0  0  0  0  0  0  0  0  0
  -26.2419  -15.1834   20.6236 O   0  0  0  0  0  0  0  0  0  0  0  0
  -24.3861  -12.1712   21.9186 O   0  0  0  0  0  0  0  0  0  0  0  0
  -20.3569  -14.6033   22.5275 O   0  0  0  0  0  0  0  0  0  0  0  0
  -20.4150  -31.3048   21.7271 O   0  0  0  0  0  0  0  0  0  0  0  0
  -30.8982  -25.3488   19.2664 O   0  0  0  0  0  0  0  0  0  0  0  0
  -23.6796  -20.4307   23.6903 O   0  0  0  0  0  0  0  0  0  1  0  0
  -32.7276  -20.7589   21.7139 F   0  0  0  0  0  0  0  0  0  0  0  0
  -30.2184  -22.8533   18.2901 F   0  0  0  0  0  0  0  0  0  0  0  0
  1  2  1  0  0  0  0
  1  7  2  0  0  0  0
  2  8  2  0  0  0  0
  3  6  1  0  0  0  0
  3 10  2  0  0  0  0
  4 11  2  0  0  0  0
  4 19  1  0  0  0  0
  5 12  1  0  0  0  0
  5 19  2  0  0  0  0
  6 20  2  0  0  0  0
  7 22  1  0  0  0  0
  8 24  1  0  0  0  0
  9 13  2  0  0  0  0
  9 23  1  0  0  0  0
 10 26  1  0  0  0  0
 11 27  1  0  0  0  0
 12 27  2  0  0  0  0
 13 28  1  0  0  0  0
 14 15  2  0  0  0  0
 14 29  1  0  0  0  0
 15 30  1  0  0  0  0
 16 20  1  0  0  0  0
 16 26  2  0  0  0  0
 17 25  1  0  0  0  0
 17 28  2  0  0  0  0
 18 30  2  0  0  0  0
 18 31  1  0  0  0  0
 19 32  1  0  0  0  0
 20 39  1  0  0  0  0
 21 32  1  0  0  0  0
 21 33  2  0  0  0  0
 21 40  1  0  0  0  0
 22 24  2  0  0  0  0
 22 45  1  0  0  0  0
 23 25  2  0  0  0  0
 23 46  1  0  0  0  0
 24 55  1  0  0  0  0
 25 47  1  0  0  0  0
 26 68  1  0  0  0  0
 27 84  1  0  0  0  0
 28 85  1  0  0  0  0
 29 31  2  0  0  0  0
 29 84  1  0  0  0  0
 30 86  1  0  0  0  0
 31 87  1  0  0  0  0
 32 66  2  0  0  0  0
 33 67  1  0  0  0  0
 33 71  1  0  0  0  0
 34 35  1  0  0  0  0
 34 36  1  0  0  0  0
 34 38  2  0  0  0  0
 35 37  2  0  0  0  0
 35 48  1  0  0  0  0
 36 68  1  0  0  0  0
 36 77  2  0  0  0  0
 38 85  1  0  0  0  0
 39 73  1  0  0  0  0
 39 78  2  0  0  0  0
 40 72  1  0  0  0  0
 40 79  2  0  0  0  0
 41 56  1  0  0  0  0
 41 74  1  0  0  0  0
 41 80  2  0  0  0  0
 42 63  1  0  0  0  0
 42 69  1  0  0  0  0
 42 81  2  0  0  0  0
 43 64  1  0  0  0  0
 43 75  1  0  0  0  0
 43 82  2  0  0  0  0
 44 70  1  0  0  0  0
 44 73  1  0  0  0  0
 44 83  2  0  0  0  0
 45 49  1  0  0  0  0
 46 56  1  0  0  0  0
 47 69  1  0  0  0  0
 48 68  1  0  0  0  0
 49 51  1  0  0  0  0
 50 52  1  0  0  0  0
 50 53  1  0  0  0  0
 51 55  1  0  0  0  0
 52 57  1  0  0  0  0
 53 70  1  0  0  0  0
 54 57  1  0  0  0  0
 54 70  1  0  0  0  0
 55 74  1  0  0  0  0
 56 69  1  0  0  0  0
 57 67  1  0  0  0  0
 58 64  1  0  0  0  0
 59 65  1  0  0  0  0
 60 65  1  0  0  0  0
 61 65  1  0  0  0  0
 62 76  1  0  0  0  0
 63 65  1  0  0  0  0
 63 75  1  0  0  0  0
 64 76  1  0  0  0  0
 66 67  1  0  0  0  0
M  CHG  1  76   1
M  ISO  4  38 101  44 100  73 100  85 101
M  END
> <Batch ID>
0081

> <Smiles>
C=C1CN(c2cccc(C(=O)[100NH:0][100C:0](=O)N3CCCC(n4nc(-c5ccc(Oc6ccc(F)cc6F)cc5)c(C(N)=O)c4N)C3)c2)C(=O)C1=[101CH:1][101O:1]c1ccc2c(c1)CN(C(=O)C(NC(=O)C(C)NC)C(C)(C)C)C(C(=O)NC1CCCc3ccccc31)C2

> <Shape>
0.226

> <Color>
0.060

> <Negative vol penalty>
0.000

$$$$

  -OEChem-04052300043D

 85 94  0     1  0  0  0  0  0999 V2000
  -28.7701  -34.6849   16.2330 C   0  0  0  0  0  0  0  0  0  0  0  0
  -28.8642  -33.3872   16.7256 C   0  0  0  0  0  0  0  0  0  0  0  0
  -24.0814   -9.6965   22.2603 C   0  0  0  0  0  0  0  0  0  0  0  0
  -24.5297  -11.3748   23.9394 C   0  0  0  0  0  0  0  0  0  0  0  0
  -28.4027  -35.7271   17.0832 C   0  0  0  0  0  0  0  0  0  0  0  0
  -28.5919  -33.1312   18.0690 C   0  0  0  0  0  0  0  0  0  0  0  0
  -25.6805  -29.0383   18.7151 C   0  0  0  0  0  0  0  0  0  0  0  0
  -28.1782  -20.5473   19.3038 C   0  0  0  0  0  0  0  0  0  0  0  0
  -30.5677  -20.2134   19.1796 C   0  0  0  0  0  0  0  0  0  0  0  0
  -27.9816  -19.1684   19.2292 C   0  0  0  0  0  0  0  0  0  0  0  0
  -30.3712  -18.8344   19.1050 C   0  0  0  0  0  0  0  0  0  0  0  0
  -23.6769   -8.8079   23.2565 C   0  0  0  0  0  0  0  0  0  0  0  0
  -24.1252  -10.4862   24.9356 C   0  0  0  0  0  0  0  0  0  0  0  0
  -26.2997  -27.7936   18.6108 C   0  0  0  0  0  0  0  0  0  0  0  0
  -20.9327   -8.2812   25.1603 C   0  0  0  0  0  0  0  0  0  0  0  0
  -19.7616   -7.5548   24.9446 C   0  0  0  0  0  0  0  0  0  0  0  0
  -26.3980  -27.6476   21.0167 C   0  0  0  0  0  0  0  0  0  0  0  0
  -21.0097   -5.4929   25.1116 C   0  0  0  0  0  0  0  0  0  0  0  0
  -24.5078  -10.9800   22.6017 C   0  0  0  0  0  0  0  0  0  0  0  0
  -24.1197  -12.8148   20.8725 C   0  0  0  0  0  0  0  0  0  0  0  0
  -28.1163  -35.4821   18.4355 C   0  0  0  0  0  0  0  0  0  0  0  0
  -25.4248  -29.6029   19.9730 C   0  0  0  0  0  0  0  0  0  0  0  0
  -28.2215  -34.1712   18.9383 C   0  0  0  0  0  0  0  0  0  0  0  0
  -25.7731  -28.8985   21.1343 C   0  0  0  0  0  0  0  0  0  0  0  0
  -29.4712  -21.0698   19.2789 C   0  0  0  0  0  0  0  0  0  0  0  0
  -29.0781  -18.3119   19.1298 C   0  0  0  0  0  0  0  0  0  0  0  0
  -23.6988   -9.2027   24.5941 C   0  0  0  0  0  0  0  0  0  0  0  0
  -26.6612  -27.0993   19.7617 C   0  0  0  0  0  0  0  0  0  0  0  0
  -22.1423   -7.6134   25.3516 C   0  0  0  0  0  0  0  0  0  0  0  0
  -19.8001   -6.1607   24.9202 C   0  0  0  0  0  0  0  0  0  0  0  0
  -22.1809   -6.2193   25.3273 C   0  0  0  0  0  0  0  0  0  0  0  0
  -24.9262  -11.8982   21.5732 C   0  0  0  0  0  0  0  0  0  0  0  0
  -24.9847  -13.4457   20.0122 C   0  0  0  0  0  0  0  0  0  0  0  0
  -29.3278  -24.7162   19.5040 C   0  0  0  0  0  0  0  0  0  0  0  0
  -30.7548  -24.5267   19.4313 C   0  0  0  0  0  0  0  0  0  0  0  0
  -28.6384  -23.3967   19.4548 C   0  0  0  0  0  0  0  0  0  0  0  0
  -31.7175  -25.4548   19.4459 C   0  0  0  0  0  0  0  0  0  0  0  0
  -28.6312  -25.8485   19.6019 C   0  0  0  0  0  0  0  0  0  1  0  0
  -22.7142  -13.0731   20.9890 C   0  0  0  0  0  0  0  0  0  0  0  0
  -26.3627  -32.2392   21.4810 C   0  0  0  0  0  0  0  0  0  0  0  0
  -24.2161  -31.2612   23.7076 C   0  0  0  0  0  0  0  0  0  0  0  0
  -22.4622  -28.6904   25.1083 C   0  0  0  0  0  0  0  0  0  0  0  0
  -29.8573  -15.9229   18.9518 C   0  0  0  0  0  0  0  0  0  0  0  0
  -27.7691  -36.6482   19.3267 C   0  0  0  0  0  0  0  0  0  0  0  0
  -24.7319  -30.9345   20.0688 C   0  0  0  0  0  0  0  0  0  0  0  0
  -25.5022  -29.4518   22.5087 C   0  0  0  0  0  0  0  0  0  0  0  0
  -30.9975  -23.0509   19.3321 C   0  0  0  0  0  0  0  0  0  0  0  0
  -27.1331  -36.2342   20.6513 C   0  0  0  0  0  0  0  0  0  0  0  0
  -29.7741  -12.3676   18.7787 C   0  0  0  0  0  0  0  0  0  0  0  0
  -27.9175  -35.0899   21.2855 C   0  0  0  0  0  0  0  0  0  0  0  0
  -28.4391  -12.0039   19.4327 C   0  0  0  0  0  0  0  0  0  0  0  0
  -30.4354  -13.5613   19.4654 C   0  0  0  0  0  0  0  0  0  0  0  0
  -28.2510  -14.3885   20.2483 C   0  0  0  0  0  0  0  0  0  0  0  0
  -27.9099  -33.8496   20.3839 C   0  0  1  0  0  0  0  0  0  0  0  0
  -24.9850  -31.6458   21.3945 C   0  0  1  0  0  0  0  0  0  0  0  0
  -27.5160  -13.2326   19.5503 C   0  0  2  0  0  0  0  0  0  0  0  0
  -20.8160  -28.1944   26.9362 C   0  0  0  0  0  0  0  0  0  0  0  0
  -26.4499  -31.4779   25.7748 C   0  0  0  0  0  0  0  0  0  0  0  0
  -25.0521  -30.0981   27.3274 C   0  0  0  0  0  0  0  0  0  0  0  0
  -24.2261  -32.3197   26.5497 C   0  0  0  0  0  0  0  0  0  0  0  0
  -20.4379  -27.7188   23.1803 C   0  0  0  0  0  0  0  0  0  0  0  0
  -24.2717  -30.3783   24.9308 C   0  0  1  0  0  0  0  0  0  0  0  0
  -20.9942  -28.5511   25.4686 C   0  0  2  0  0  0  0  0  0  0  0  0
  -25.0069  -31.0587   26.1199 C   0  0  0  0  0  0  0  0  0  0  0  0
  -26.2054  -11.9396   21.1909 N   0  0  0  0  0  0  0  0  0  0  0  0
  -26.2091  -12.8899   20.2407 N   0  0  0  0  0  0  0  0  0  0  0  0
  -29.6675  -22.4452   19.3529 N   0  0  0  0  0  0  0  0  0  0  0  0
  -24.8283  -30.7601   22.5500 N   0  0  0  0  0  0  0  0  0  0  0  0
  -29.5034  -14.6887   19.5370 N   0  0  0  0  0  0  0  0  0  0  0  0
  -24.8099  -14.4160   19.0900 N   0  0  0  0  0  0  0  0  0  0  0  0
  -21.9744  -12.3351   21.9231 N   0  0  0  0  0  0  0  0  0  0  0  0
  -28.8788  -16.9111   19.0540 N   0  0  0  0  0  0  0  0  0  0  0  0
  -26.6432  -33.1574   20.4871 N   0  0  0  0  0  0  0  0  0  0  0  0
  -22.8941  -29.9951   25.2206 N   0  0  0  0  0  0  0  0  0  0  0  0
  -20.3576  -27.4846   24.6451 N   0  3  0  0  0  0  0  0  0  0  0  0
  -27.4330  -23.2161   19.4964 O   0  0  0  0  0  0  0  0  0  0  0  0
  -22.1285  -13.9213   20.2741 O   0  0  0  0  0  0  0  0  0  0  0  0
  -27.1150  -31.8910   22.3835 O   0  0  0  0  0  0  0  0  0  0  0  0
  -23.6441  -32.3520   23.7746 O   0  0  0  0  0  0  0  0  0  0  0  0
  -23.1573  -27.7366   24.7653 O   0  0  0  0  0  0  0  0  0  0  0  0
  -30.9371  -16.0826   18.3769 O   0  0  0  0  0  0  0  0  0  0  0  0
  -23.3040   -8.3360   25.5664 O   0  0  0  0  0  0  0  0  0  0  0  0
  -27.2664  -25.8844   19.6627 O   0  0  0  0  0  0  0  0  0  1  0  0
  -18.6752   -5.4633   24.7146 F   0  0  0  0  0  0  0  0  0  0  0  0
  -23.3398   -5.5722   25.5116 F   0  0  0  0  0  0  0  0  0  0  0  0
  1  2  1  0  0  0  0
  1  5  2  0  0  0  0
  2  6  2  0  0  0  0
  3 12  2  0  0  0  0
  3 19  1  0  0  0  0
  4 13  1  0  0  0  0
  4 19  2  0  0  0  0
  5 21  1  0  0  0  0
  6 23  1  0  0  0  0
  7 14  2  0  0  0  0
  7 22  1  0  0  0  0
  8 10  2  0  0  0  0
  8 25  1  0  0  0  0
  9 11  1  0  0  0  0
  9 25  2  0  0  0  0
 10 26  1  0  0  0  0
 11 26  2  0  0  0  0
 12 27  1  0  0  0  0
 13 27  2  0  0  0  0
 14 28  1  0  0  0  0
 15 16  2  0  0  0  0
 15 29  1  0  0  0  0
 16 30  1  0  0  0  0
 17 24  1  0  0  0  0
 17 28  2  0  0  0  0
 18 30  2  0  0  0  0
 18 31  1  0  0  0  0
 19 32  1  0  0  0  0
 20 32  1  0  0  0  0
 20 33  2  0  0  0  0
 20 39  1  0  0  0  0
 21 23  2  0  0  0  0
 21 44  1  0  0  0  0
 22 24  2  0  0  0  0
 22 45  1  0  0  0  0
 23 54  1  0  0  0  0
 24 46  1  0  0  0  0
 25 67  1  0  0  0  0
 26 72  1  0  0  0  0
 27 82  1  0  0  0  0
 28 83  1  0  0  0  0
 29 31  2  0  0  0  0
 29 82  1  0  0  0  0
 30 84  1  0  0  0  0
 31 85  1  0  0  0  0
 32 65  2  0  0  0  0
 33 66  1  0  0  0  0
 33 70  1  0  0  0  0
 34 35  1  0  0  0  0
 34 36  1  0  0  0  0
 34 38  2  0  0  0  0
 35 37  2  0  0  0  0
 35 47  1  0  0  0  0
 36 67  1  0  0  0  0
 36 76  2  0  0  0  0
 38 83  1  0  0  0  0
 39 71  1  0  0  0  0
 39 77  2  0  0  0  0
 40 55  1  0  0  0  0
 40 73  1  0  0  0  0
 40 78  2  0  0  0  0
 41 62  1  0  0  0  0
 41 68  1  0  0  0  0
 41 79  2  0  0  0  0
 42 63  1  0  0  0  0
 42 74  1  0  0  0  0
 42 80  2  0  0  0  0
 43 69  1  0  0  0  0
 43 72  1  0  0  0  0
 43 81  2  0  0  0  0
 44 48  1  0  0  0  0
 45 55  1  0  0  0  0
 46 68  1  0  0  0  0
 47 67  1  0  0  0  0
 48 50  1  0  0  0  0
 49 51  1  0  0  0  0
 49 52  1  0  0  0  0
 50 54  1  0  0  0  0
 51 56  1  0  0  0  0
 52 69  1  0  0  0  0
 53 56  1  0  0  0  0
 53 69  1  0  0  0  0
 54 73  1  0  0  0  0
 55 68  1  0  0  0  0
 56 66  1  0  0  0  0
 57 63  1  0  0  0  0
 58 64  1  0  0  0  0
 59 64  1  0  0  0  0
 60 64  1  0  0  0  0
 61 75  1  0  0  0  0
 62 64  1  0  0  0  0
 62 74  1  0  0  0  0
 63 75  1  0  0  0  0
 65 66  1  0  0  0  0
M  CHG  1  75   1
M  ISO  4  38 101  43 100  72 100  83 101
M  END
> <Batch ID>
0081

> <Smiles>
C=C1CN(c2ccc([100NH:0][100C:0](=O)N3CCCC(n4nc(-c5ccc(Oc6ccc(F)cc6F)cc5)c(C(N)=O)c4N)C3)cc2)C(=O)C1=[101CH:1][101O:1]c1ccc2c(c1)CN(C(=O)C(NC(=O)C(C)NC)C(C)(C)C)C(C(=O)NC1CCCc3ccccc31)C2

> <Shape>
0.293

> <Color>
0.133

> <Negative vol penalty>
0.000

$$$$

  -OEChem-04052300043D

 83 92  0     1  0  0  0  0  0999 V2000
  -27.9138  -37.2831   18.4207 C   0  0  0  0  0  0  0  0  0  0  0  0
  -28.3772  -35.9714   18.4101 C   0  0  0  0  0  0  0  0  0  0  0  0
  -23.8760   -9.6693   19.8979 C   0  0  0  0  0  0  0  0  0  0  0  0
  -24.5982   -9.9042   22.1914 C   0  0  0  0  0  0  0  0  0  0  0  0
  -27.0122  -37.6949   19.4013 C   0  0  0  0  0  0  0  0  0  0  0  0
  -27.9401  -35.0709   19.3810 C   0  0  0  0  0  0  0  0  0  0  0  0
  -26.9489  -29.0709   18.6574 C   0  0  0  0  0  0  0  0  0  0  0  0
  -29.1346  -20.8774   20.5004 C   0  0  0  0  0  0  0  0  0  0  0  0
  -29.3565  -19.4967   20.5169 C   0  0  0  0  0  0  0  0  0  0  0  0
  -23.4957   -8.3517   20.1526 C   0  0  0  0  0  0  0  0  0  0  0  0
  -24.2179   -8.5866   22.4461 C   0  0  0  0  0  0  0  0  0  0  0  0
  -27.7233  -27.9499   18.9531 C   0  0  0  0  0  0  0  0  0  0  0  0
  -21.3558   -6.8946   23.0512 C   0  0  0  0  0  0  0  0  0  0  0  0
  -20.6407   -6.6429   24.2221 C   0  0  0  0  0  0  0  0  0  0  0  0
  -27.7311  -19.2104   22.2956 C   0  0  0  0  0  0  0  0  0  0  0  0
  -26.5569  -27.7048   21.0504 C   0  0  0  0  0  0  0  0  0  0  0  0
  -22.3868   -5.1484   24.9671 C   0  0  0  0  0  0  0  0  0  0  0  0
  -24.4273  -10.4455   20.9173 C   0  0  0  0  0  0  0  0  0  0  0  0
  -24.0270  -12.9616   20.7866 C   0  0  0  0  0  0  0  0  0  0  0  0
  -26.5564  -36.7964   20.3789 C   0  0  0  0  0  0  0  0  0  0  0  0
  -25.9785  -29.5245   19.5624 C   0  0  0  0  0  0  0  0  0  0  0  0
  -27.0326  -35.4714   20.3764 C   0  0  0  0  0  0  0  0  0  0  0  0
  -27.5167  -20.5804   22.2724 C   0  0  0  0  0  0  0  0  0  0  0  0
  -25.7697  -28.8303   20.7627 C   0  0  0  0  0  0  0  0  0  0  0  0
  -28.2087  -21.4085   21.3865 C   0  0  0  0  0  0  0  0  0  0  0  0
  -28.6602  -18.6685   21.4080 C   0  0  0  0  0  0  0  0  0  0  0  0
  -23.6666   -7.8103   21.4267 C   0  0  0  0  0  0  0  0  0  0  0  0
  -27.5294  -27.2684   20.1510 C   0  0  0  0  0  0  0  0  0  0  0  0
  -22.5863   -6.2732   22.8382 C   0  0  0  0  0  0  0  0  0  0  0  0
  -21.1562   -5.7698   25.1800 C   0  0  0  0  0  0  0  0  0  0  0  0
  -23.1018   -5.4001   23.7962 C   0  0  0  0  0  0  0  0  0  0  0  0
  -24.8209  -11.8065   20.6547 C   0  0  0  0  0  0  0  0  0  0  0  0
  -24.8574  -13.9925   20.4204 C   0  0  0  0  0  0  0  0  0  0  0  0
  -22.6612  -13.0910   21.2030 C   0  0  0  0  0  0  0  0  0  0  0  0
  -25.5313  -32.2015   21.2169 C   0  0  0  0  0  0  0  0  0  0  0  0
  -28.2872  -23.8429   20.8590 C   0  0  0  0  0  0  0  0  0  0  0  0
  -22.7260  -30.7802   22.0124 C   0  0  0  0  0  0  0  0  0  0  0  0
  -20.9449  -27.8935   22.3879 C   0  0  0  0  0  0  0  0  0  0  0  0
  -29.7900  -16.5699   20.5921 C   0  0  0  0  0  0  0  0  0  0  0  0
  -25.6182  -37.3002   21.4469 C   0  0  0  0  0  0  0  0  0  0  0  0
  -25.1330  -30.7195   19.2167 C   0  0  0  0  0  0  0  0  0  0  0  0
  -26.5723  -21.3563   23.1327 C   0  0  0  0  0  0  0  0  0  0  0  0
  -24.7269  -29.2646   21.7589 C   0  0  0  0  0  0  0  0  0  0  0  0
  -24.9156  -36.1845   22.2161 C   0  0  0  0  0  0  0  0  0  0  0  0
  -29.4221  -13.9279   18.2338 C   0  0  0  0  0  0  0  0  0  0  0  0
  -25.9150  -35.1079   22.6269 C   0  0  0  0  0  0  0  0  0  0  0  0
  -28.1269  -13.2355   18.6643 C   0  0  0  0  0  0  0  0  0  0  0  0
  -26.7920  -22.7902   22.6384 C   0  0  0  0  0  0  0  0  0  0  0  0
  -30.2306  -14.4155   19.4347 C   0  0  0  0  0  0  0  0  0  0  0  0
  -28.1937  -14.5652   20.8124 C   0  0  0  0  0  0  0  0  0  0  0  0
  -26.5627  -34.4586   21.3979 C   0  0  1  0  0  0  0  0  0  0  0  0
  -24.5266  -31.3970   20.4417 C   0  0  1  0  0  0  0  0  0  0  0  0
  -27.3139  -14.1142   19.6351 C   0  0  2  0  0  0  0  0  0  0  0  0
  -18.6884  -27.0480   23.0884 C   0  0  0  0  0  0  0  0  0  0  0  0
  -23.4580  -31.2561   24.9360 C   0  0  0  0  0  0  0  0  0  0  0  0
  -21.6985  -29.5935   25.5747 C   0  0  0  0  0  0  0  0  0  0  0  0
  -21.0584  -31.6865   24.3780 C   0  0  0  0  0  0  0  0  0  0  0  0
  -20.4372  -26.7009   19.7273 C   0  0  0  0  0  0  0  0  0  0  0  0
  -27.6835  -25.1690   21.2577 C   0  0  0  0  0  0  0  0  0  1  0  0
  -22.2698  -29.8596   23.1184 C   0  0  1  0  0  0  0  0  0  0  0  0
  -19.5544  -27.5000   21.9229 C   0  0  2  0  0  0  0  0  0  0  0  0
  -22.1422  -30.5916   24.4841 C   0  0  0  0  0  0  0  0  0  0  0  0
  -26.0603  -12.0776   20.2372 N   0  0  0  0  0  0  0  0  0  0  0  0
  -26.0515  -13.4148   20.1035 N   0  0  0  0  0  0  0  0  0  0  0  0
  -27.8087  -22.7487   21.5666 N   0  0  0  0  0  0  0  0  0  0  0  0
  -23.9299  -30.4424   21.3781 N   0  0  0  0  0  0  0  0  0  0  0  0
  -29.3970  -15.2450   20.3076 N   0  0  0  0  0  0  0  0  0  0  0  0
  -24.6752  -15.3278   20.3418 N   0  0  0  0  0  0  0  0  0  0  0  0
  -21.9537  -11.9301   21.5439 N   0  0  0  0  0  0  0  0  0  0  0  0
  -28.9023  -17.2724   21.4064 N   0  0  0  0  0  0  0  0  0  0  0  0
  -25.6545  -33.5099   20.7899 N   0  0  0  0  0  0  0  0  0  0  0  0
  -21.0320  -29.2439   22.6525 N   0  0  0  0  0  0  0  0  0  0  0  0
  -19.6341  -26.3856   20.9367 N   0  3  0  0  0  0  0  0  0  0  0  0
  -22.0802  -14.2015   21.2550 O   0  0  0  0  0  0  0  0  0  0  0  0
  -26.1479  -31.6747   22.1356 O   0  0  0  0  0  0  0  0  0  0  0  0
  -29.1340  -23.8108   19.9658 O   0  0  0  0  0  0  0  0  0  0  0  0
  -22.0358  -31.7591   21.7171 O   0  0  0  0  0  0  0  0  0  0  0  0
  -21.8611  -27.0832   22.5083 O   0  0  0  0  0  0  0  0  0  0  0  0
  -30.8232  -17.0550   20.1240 O   0  0  0  0  0  0  0  0  0  0  0  0
  -23.2954   -6.5247   21.6756 O   0  0  0  0  0  0  0  0  0  0  0  0
  -28.2843  -26.1743   20.4424 O   0  0  0  0  0  0  0  0  0  1  0  0
  -20.4702   -5.5294   26.3051 F   0  0  0  0  0  0  0  0  0  0  0  0
  -24.2840   -4.8011   23.5977 F   0  0  0  0  0  0  0  0  0  0  0  0
  1  2  1  0  0  0  0
  1  5  2  0  0  0  0
  2  6  2  0  0  0  0
  3 10  2  0  0  0  0
  3 18  1  0  0  0  0
  4 11  1  0  0  0  0
  4 18  2  0  0  0  0
  5 20  1  0  0  0  0
  6 22  1  0  0  0  0
  7 12  2  0  0  0  0
  7 21  1  0  0  0  0
  8  9  2  0  0  0  0
  8 25  1  0  0  0  0
  9 26  1  0  0  0  0
 10 27  1  0  0  0  0
 11 27  2  0  0  0  0
 12 28  1  0  0  0  0
 13 14  2  0  0  0  0
 13 29  1  0  0  0  0
 14 30  1  0  0  0  0
 15 23  1  0  0  0  0
 15 26  2  0  0  0  0
 16 24  1  0  0  0  0
 16 28  2  0  0  0  0
 17 30  2  0  0  0  0
 17 31  1  0  0  0  0
 18 32  1  0  0  0  0
 19 32  1  0  0  0  0
 19 33  2  0  0  0  0
 19 34  1  0  0  0  0
 20 22  2  0  0  0  0
 20 40  1  0  0  0  0
 21 24  2  0  0  0  0
 21 41  1  0  0  0  0
 22 51  1  0  0  0  0
 23 25  2  0  0  0  0
 23 42  1  0  0  0  0
 24 43  1  0  0  0  0
 25 65  1  0  0  0  0
 26 70  1  0  0  0  0
 27 80  1  0  0  0  0
 28 81  1  0  0  0  0
 29 31  2  0  0  0  0
 29 80  1  0  0  0  0
 30 82  1  0  0  0  0
 31 83  1  0  0  0  0
 32 63  2  0  0  0  0
 33 64  1  0  0  0  0
 33 68  1  0  0  0  0
 34 69  1  0  0  0  0
 34 74  2  0  0  0  0
 35 52  1  0  0  0  0
 35 71  1  0  0  0  0
 35 75  2  0  0  0  0
 36 59  1  0  0  0  0
 36 65  1  0  0  0  0
 36 76  2  0  0  0  0
 37 60  1  0  0  0  0
 37 66  1  0  0  0  0
 37 77  2  0  0  0  0
 38 61  1  0  0  0  0
 38 72  1  0  0  0  0
 38 78  2  0  0  0  0
 39 67  1  0  0  0  0
 39 70  1  0  0  0  0
 39 79  2  0  0  0  0
 40 44  1  0  0  0  0
 41 52  1  0  0  0  0
 42 48  1  0  0  0  0
 43 66  1  0  0  0  0
 44 46  1  0  0  0  0
 45 47  1  0  0  0  0
 45 49  1  0  0  0  0
 46 51  1  0  0  0  0
 47 53  1  0  0  0  0
 48 65  1  0  0  0  0
 49 67  1  0  0  0  0
 50 53  1  0  0  0  0
 50 67  1  0  0  0  0
 51 71  1  0  0  0  0
 52 66  1  0  0  0  0
 53 64  1  0  0  0  0
 54 61  1  0  0  0  0
 55 62  1  0  0  0  0
 56 62  1  0  0  0  0
 57 62  1  0  0  0  0
 58 73  1  0  0  0  0
 59 81  1  0  0  0  0
 60 62  1  0  0  0  0
 60 72  1  0  0  0  0
 61 73  1  0  0  0  0
 63 64  1  0  0  0  0
M  CHG  1  73   1
M  ISO  4  39 100  59 101  70 100  81 101
M  END
> <Batch ID>
0081

> <Smiles>
CNC(C)C(=O)NC(C(=O)N1Cc2cc([101O:1][101CH2:1]C(=O)N3CCc4cc([100NH:0][100C:0](=O)N5CCCC(n6nc(-c7ccc(Oc8ccc(F)cc8F)cc7)c(C(N)=O)c6N)C5)ccc43)ccc2CC1C(=O)NC1CCCc2ccccc21)C(C)(C)C

> <Shape>
0.338

> <Color>
0.169

> <Negative vol penalty>
0.000

$$$$

  -OEChem-04052300043D

 83 92  0     1  0  0  0  0  0999 V2000
  -27.3675  -37.7450   23.8656 C   0  0  0  0  0  0  0  0  0  0  0  0
  -27.9570  -36.8019   23.0298 C   0  0  0  0  0  0  0  0  0  0  0  0
  -24.1813   -9.2922   22.1889 C   0  0  0  0  0  0  0  0  0  0  0  0
  -22.9180  -11.2744   21.6302 C   0  0  0  0  0  0  0  0  0  0  0  0
  -26.4797  -37.3357   24.8597 C   0  0  0  0  0  0  0  0  0  0  0  0
  -27.6598  -35.4488   23.1884 C   0  0  0  0  0  0  0  0  0  0  0  0
  -26.9126  -29.4156   19.3992 C   0  0  0  0  0  0  0  0  0  0  0  0
  -26.2945  -19.4048   19.1182 C   0  0  0  0  0  0  0  0  0  0  0  0
  -28.5717  -19.7743   19.8357 C   0  0  0  0  0  0  0  0  0  0  0  0
  -26.5615  -18.0437   18.9714 C   0  0  0  0  0  0  0  0  0  0  0  0
  -28.8387  -18.4131   19.6889 C   0  0  0  0  0  0  0  0  0  0  0  0
  -23.3114   -9.0365   23.2488 C   0  0  0  0  0  0  0  0  0  0  0  0
  -22.0480  -11.0187   22.6901 C   0  0  0  0  0  0  0  0  0  0  0  0
  -27.3666  -28.0976   19.3719 C   0  0  0  0  0  0  0  0  0  0  0  0
  -20.2207   -7.7332   23.6758 C   0  0  0  0  0  0  0  0  0  0  0  0
  -19.7640   -6.4253   23.8385 C   0  0  0  0  0  0  0  0  0  0  0  0
  -25.7575  -27.5145   21.0718 C   0  0  0  0  0  0  0  0  0  0  0  0
  -20.7524   -6.3542   26.0419 C   0  0  0  0  0  0  0  0  0  0  0  0
  -23.9846  -10.4112   21.3796 C   0  0  0  0  0  0  0  0  0  0  0  0
  -24.7619  -10.2248   18.9571 C   0  0  0  0  0  0  0  0  0  0  0  0
  -26.1641  -35.9778   25.0243 C   0  0  0  0  0  0  0  0  0  0  0  0
  -25.8833  -29.7959   20.2723 C   0  0  0  0  0  0  0  0  0  0  0  0
  -26.7680  -35.0208   24.1865 C   0  0  0  0  0  0  0  0  0  0  0  0
  -25.2905  -28.8373   21.1065 C   0  0  0  0  0  0  0  0  0  0  0  0
  -27.2996  -20.2701   19.5503 C   0  0  0  0  0  0  0  0  0  0  0  0
  -27.8336  -17.5478   19.2568 C   0  0  0  0  0  0  0  0  0  0  0  0
  -22.2447   -9.8997   23.4994 C   0  0  0  0  0  0  0  0  0  0  0  0
  -26.7910  -27.1475   20.2103 C   0  0  0  0  0  0  0  0  0  0  0  0
  -20.9434   -8.3516   24.6961 C   0  0  0  0  0  0  0  0  0  0  0  0
  -20.0298   -5.7359   25.0215 C   0  0  0  0  0  0  0  0  0  0  0  0
  -21.2091   -7.6621   25.8792 C   0  0  0  0  0  0  0  0  0  0  0  0
  -24.8833  -10.6762   20.2849 C   0  0  0  0  0  0  0  0  0  0  0  0
  -25.8596  -10.7447   18.3159 C   0  0  0  0  0  0  0  0  0  0  0  0
  -26.6631  -23.5750   19.8063 C   0  0  0  0  0  0  0  0  0  0  0  0
  -25.9191  -22.3542   19.4940 C   0  0  0  0  0  0  0  0  0  0  0  0
  -26.3384  -24.8794   19.8614 C   0  0  0  0  0  0  0  0  0  1  0  0
  -23.7475   -9.4085   18.3568 C   0  0  0  0  0  0  0  0  0  0  0  0
  -25.6404  -31.8305   22.7024 C   0  0  0  0  0  0  0  0  0  0  0  0
  -22.5040  -31.0140   22.5646 C   0  0  0  0  0  0  0  0  0  0  0  0
  -20.1433  -28.7267   21.6470 C   0  0  0  0  0  0  0  0  0  0  0  0
  -29.3128  -15.5107   19.3485 C   0  0  0  0  0  0  0  0  0  0  0  0
  -25.2352  -35.5790   26.1436 C   0  0  0  0  0  0  0  0  0  0  0  0
  -25.3867  -31.2157   20.2705 C   0  0  0  0  0  0  0  0  0  0  0  0
  -24.1687  -29.1900   22.0476 C   0  0  0  0  0  0  0  0  0  0  0  0
  -27.8996  -22.7333   20.0236 C   0  0  0  0  0  0  0  0  0  0  0  0
  -24.6852  -34.1619   26.0029 C   0  0  0  0  0  0  0  0  0  0  0  0
  -30.3734  -12.1185   19.1363 C   0  0  0  0  0  0  0  0  0  0  0  0
  -25.8053  -33.1867   25.6545 C   0  0  0  0  0  0  0  0  0  0  0  0
  -29.0741  -11.3227   19.2798 C   0  0  0  0  0  0  0  0  0  0  0  0
  -30.3747  -13.3661   20.0178 C   0  0  0  0  0  0  0  0  0  0  0  0
  -27.9128  -13.4513   19.9922 C   0  0  0  0  0  0  0  0  0  0  0  0
  -26.4518  -33.5462   24.3113 C   0  0  1  0  0  0  0  0  0  0  0  0
  -24.6826  -31.6040   21.5670 C   0  0  1  0  0  0  0  0  0  0  0  0
  -27.8380  -12.2202   19.0743 C   0  0  2  0  0  0  0  0  0  0  0  0
  -17.6672  -28.3223   21.6989 C   0  0  0  0  0  0  0  0  0  0  0  0
  -22.6801  -30.3319   25.5334 C   0  0  0  0  0  0  0  0  0  0  0  0
  -20.5291  -29.0722   25.3002 C   0  0  0  0  0  0  0  0  0  0  0  0
  -20.5889  -31.5268   24.8597 C   0  0  0  0  0  0  0  0  0  0  0  0
  -19.9827  -28.6134   18.6940 C   0  0  0  0  0  0  0  0  0  0  0  0
  -21.6492  -29.9432   23.1984 C   0  0  1  0  0  0  0  0  0  0  0  0
  -18.8330  -28.8776   20.8956 C   0  0  2  0  0  0  0  0  0  0  0  0
  -21.3843  -30.2120   24.7067 C   0  0  0  0  0  0  0  0  0  0  0  0
  -25.9723  -11.4252   20.4774 N   0  0  0  0  0  0  0  0  0  0  0  0
  -26.5453  -11.4483   19.2620 N   0  0  0  0  0  0  0  0  0  0  0  0
  -27.0365  -21.6126   19.6947 N   0  0  0  0  0  0  0  0  0  0  0  0
  -23.7225  -30.5926   22.0136 N   0  0  0  0  0  0  0  0  0  0  0  0
  -29.1767  -14.1697   19.7656 N   0  0  0  0  0  0  0  0  0  0  0  0
  -26.2957  -10.6641   17.0409 N   0  0  0  0  0  0  0  0  0  0  0  0
  -22.6896   -8.9596   19.1591 N   0  0  0  0  0  0  0  0  0  0  0  0
  -28.1052  -16.1651   19.1078 N   0  0  0  0  0  0  0  0  0  0  0  0
  -25.6125  -33.1135   23.2146 N   0  0  0  0  0  0  0  0  0  0  0  0
  -20.4406  -29.8519   22.3864 N   0  0  0  0  0  0  0  0  0  0  0  0
  -18.8952  -28.1526   19.5950 N   0  3  0  0  0  0  0  0  0  0  0  0
  -24.7764  -22.1020   19.1729 O   0  0  0  0  0  0  0  0  0  0  0  0
  -23.7869   -9.0732   17.1487 O   0  0  0  0  0  0  0  0  0  0  0  0
  -26.3510  -30.9089   23.0863 O   0  0  0  0  0  0  0  0  0  0  0  0
  -22.1021  -32.1802   22.5523 O   0  0  0  0  0  0  0  0  0  0  0  0
  -20.8322  -27.7106   21.5873 O   0  0  0  0  0  0  0  0  0  0  0  0
  -30.4198  -16.0313   19.1885 O   0  0  0  0  0  0  0  0  0  0  0  0
  -21.3955   -9.6504   24.5334 O   0  0  0  0  0  0  0  0  0  0  0  0
  -27.2327  -25.8606   20.1862 O   0  0  0  0  0  0  0  0  0  1  0  0
  -19.5898   -4.4805   25.1782 F   0  0  0  0  0  0  0  0  0  0  0  0
  -21.9018   -8.2514   26.8635 F   0  0  0  0  0  0  0  0  0  0  0  0
  1  2  1  0  0  0  0
  1  5  2  0  0  0  0
  2  6  2  0  0  0  0
  3 12  2  0  0  0  0
  3 19  1  0  0  0  0
  4 13  1  0  0  0  0
  4 19  2  0  0  0  0
  5 21  1  0  0  0  0
  6 23  1  0  0  0  0
  7 14  2  0  0  0  0
  7 22  1  0  0  0  0
  8 10  2  0  0  0  0
  8 25  1  0  0  0  0
  9 11  1  0  0  0  0
  9 25  2  0  0  0  0
 10 26  1  0  0  0  0
 11 26  2  0  0  0  0
 12 27  1  0  0  0  0
 13 27  2  0  0  0  0
 14 28  1  0  0  0  0
 15 16  2  0  0  0  0
 15 29  1  0  0  0  0
 16 30  1  0  0  0  0
 17 24  1  0  0  0  0
 17 28  2  0  0  0  0
 18 30  2  0  0  0  0
 18 31  1  0  0  0  0
 19 32  1  0  0  0  0
 20 32  1  0  0  0  0
 20 33  2  0  0  0  0
 20 37  1  0  0  0  0
 21 23  2  0  0  0  0
 21 42  1  0  0  0  0
 22 24  2  0  0  0  0
 22 43  1  0  0  0  0
 23 52  1  0  0  0  0
 24 44  1  0  0  0  0
 25 65  1  0  0  0  0
 26 70  1  0  0  0  0
 27 80  1  0  0  0  0
 28 81  1  0  0  0  0
 29 31  2  0  0  0  0
 29 80  1  0  0  0  0
 30 82  1  0  0  0  0
 31 83  1  0  0  0  0
 32 63  2  0  0  0  0
 33 64  1  0  0  0  0
 33 68  1  0  0  0  0
 34 35  1  0  0  0  0
 34 36  2  0  0  0  0
 34 45  1  0  0  0  0
 35 65  1  0  0  0  0
 35 74  2  0  0  0  0
 36 81  1  0  0  0  0
 37 69  1  0  0  0  0
 37 75  2  0  0  0  0
 38 53  1  0  0  0  0
 38 71  1  0  0  0  0
 38 76  2  0  0  0  0
 39 60  1  0  0  0  0
 39 66  1  0  0  0  0
 39 77  2  0  0  0  0
 40 61  1  0  0  0  0
 40 72  1  0  0  0  0
 40 78  2  0  0  0  0
 41 67  1  0  0  0  0
 41 70  1  0  0  0  0
 41 79  2  0  0  0  0
 42 46  1  0  0  0  0
 43 53  1  0  0  0  0
 44 66  1  0  0  0  0
 45 65  1  0  0  0  0
 46 48  1  0  0  0  0
 47 49  1  0  0  0  0
 47 50  1  0  0  0  0
 48 52  1  0  0  0  0
 49 54  1  0  0  0  0
 50 67  1  0  0  0  0
 51 54  1  0  0  0  0
 51 67  1  0  0  0  0
 52 71  1  0  0  0  0
 53 66  1  0  0  0  0
 54 64  1  0  0  0  0
 55 61  1  0  0  0  0
 56 62  1  0  0  0  0
 57 62  1  0  0  0  0
 58 62  1  0  0  0  0
 59 73  1  0  0  0  0
 60 62  1  0  0  0  0
 60 72  1  0  0  0  0
 61 73  1  0  0  0  0
 63 64  1  0  0  0  0
M  CHG  1  73   1
M  ISO  4  36 101  41 100  70 100  81 101
M  END
> <Batch ID>
0081

> <Smiles>
CNC(C)C(=O)NC(C(=O)N1Cc2cc([101O:1][101CH:1]=C3CN(c4ccc([100NH:0][100C:0](=O)N5CCCC(n6nc(-c7ccc(Oc8ccc(F)cc8F)cc7)c(C(N)=O)c6N)C5)cc4)C3=O)ccc2CC1C(=O)NC1CCCc2ccccc21)C(C)(C)C

> <Shape>
0.292

> <Color>
0.088

> <Negative vol penalty>
0.000

$$$$

  -OEChem-04052300043D

 84 93  0     1  0  0  0  0  0999 V2000
  -16.4004  -29.3050   23.1820 C   0  0  0  0  0  0  0  0  0  0  0  0
  -17.3071  -29.4254   22.1338 C   0  0  0  0  0  0  0  0  0  0  0  0
  -25.2080  -14.0346   18.8932 C   0  0  0  0  0  0  0  0  0  0  0  0
  -25.3538  -13.7865   21.2920 C   0  0  0  0  0  0  0  0  0  0  0  0
  -16.8590  -29.2680   24.4982 C   0  0  0  0  0  0  0  0  0  0  0  0
  -18.6731  -29.5100   22.4012 C   0  0  0  0  0  0  0  0  0  0  0  0
  -25.0249  -27.6599   19.6539 C   0  0  0  0  0  0  0  0  0  0  0  0
  -25.0805  -12.6522   18.7580 C   0  0  0  0  0  0  0  0  0  0  0  0
  -25.2262  -12.4040   21.1568 C   0  0  0  0  0  0  0  0  0  0  0  0
  -26.2588  -28.2179   19.3226 C   0  0  0  0  0  0  0  0  0  0  0  0
  -24.5769   -8.8405   21.4688 C   0  0  0  0  0  0  0  0  0  0  0  0
  -23.7034   -8.1813   22.3338 C   0  0  0  0  0  0  0  0  0  0  0  0
  -30.2936  -25.7615   22.3477 C   0  0  0  0  0  0  0  0  0  0  0  0
  -29.0417  -25.0354   22.2683 C   0  0  0  0  0  0  0  0  0  0  0  0
  -26.9415  -28.0640   21.6311 C   0  0  0  0  0  0  0  0  0  0  0  0
  -21.8691   -9.5112   21.4948 C   0  0  0  0  0  0  0  0  0  0  0  0
  -25.3447  -14.6017   20.1603 C   0  0  0  0  0  0  0  0  0  0  0  0
  -24.4399  -16.9679   20.4609 C   0  0  0  0  0  0  0  0  0  0  0  0
  -18.2319  -29.3425   24.7813 C   0  0  0  0  0  0  0  0  0  0  0  0
  -24.7355  -27.3092   20.9804 C   0  0  0  0  0  0  0  0  0  0  0  0
  -19.1504  -29.4754   23.7225 C   0  0  0  0  0  0  0  0  0  0  0  0
  -25.7042  -27.4993   21.9762 C   0  0  0  0  0  0  0  0  0  0  0  0
  -25.0895  -11.8369   19.8897 C   0  0  0  0  0  0  0  0  0  0  0  0
  -27.2163  -28.4227   20.3117 C   0  0  0  0  0  0  0  0  0  0  0  0
  -24.0965   -9.8350   20.6169 C   0  0  0  0  0  0  0  0  0  0  0  0
  -22.3495   -8.5167   22.3467 C   0  0  0  0  0  0  0  0  0  0  0  0
  -22.7426  -10.1704   20.6298 C   0  0  0  0  0  0  0  0  0  0  0  0
  -25.4771  -16.0296   20.3006 C   0  0  0  0  0  0  0  0  0  0  0  0
  -30.5813  -26.0205   21.0115 C   0  0  0  0  0  0  0  0  0  0  0  0
  -28.7745  -25.0182   20.9055 C   0  0  0  0  0  0  0  0  0  0  0  0
  -25.0825  -18.1786   20.5479 C   0  0  0  0  0  0  0  0  0  0  0  0
  -31.5628  -25.5104   20.1306 C   0  0  0  0  0  0  0  0  0  0  0  0
  -31.2892  -24.4058   19.4008 C   0  0  0  0  0  0  0  0  0  0  0  0
  -30.0197  -23.5483   19.3158 C   0  0  0  0  0  0  0  0  0  0  0  0
  -30.0556  -28.9573   18.2792 C   0  0  0  0  0  0  0  0  0  0  0  0
  -23.0223  -16.7632   20.5254 C   0  0  0  0  0  0  0  0  0  0  0  0
  -29.2058  -28.3082   19.0872 C   0  0  0  0  0  0  0  0  0  1  0  0
  -22.5780  -28.2315   23.1248 C   0  0  0  0  0  0  0  0  0  0  0  0
  -23.8597  -25.8204   24.8759 C   0  0  0  0  0  0  0  0  0  0  0  0
  -26.5365  -23.7966   25.4969 C   0  0  0  0  0  0  0  0  0  0  0  0
  -28.8880  -21.6894   18.5944 C   0  0  0  0  0  0  0  0  0  0  0  0
  -18.6768  -29.3462   26.2225 C   0  0  0  0  0  0  0  0  0  0  0  0
  -23.4097  -26.6836   21.3170 C   0  0  0  0  0  0  0  0  0  0  0  0
  -25.4504  -27.1211   23.4119 C   0  0  0  0  0  0  0  0  0  0  0  0
  -20.1664  -29.0643   26.4008 C   0  0  0  0  0  0  0  0  0  0  0  0
  -29.9769  -19.2891   21.1081 C   0  0  0  0  0  0  0  0  0  0  0  0
  -20.9882  -29.8975   25.4224 C   0  0  0  0  0  0  0  0  0  0  0  0
  -28.8261  -18.2835   21.1033 C   0  0  0  0  0  0  0  0  0  0  0  0
  -30.2340  -19.8548   19.7143 C   0  0  0  0  0  0  0  0  0  0  0  0
  -27.8694  -19.4624   19.0763 C   0  0  0  0  0  0  0  0  0  0  0  0
  -20.6416  -29.5449   23.9709 C   0  0  1  0  0  0  0  0  0  0  0  0
  -28.6336  -23.9167   19.9305 C   0  0  1  0  0  0  0  0  0  0  0  0
  -23.0313  -26.8394   22.7866 C   0  0  1  0  0  0  0  0  0  0  0  0
  -27.5624  -18.8939   20.4717 C   0  0  1  0  0  0  0  0  0  0  0  0
  -27.8508  -21.9261   26.5319 C   0  0  0  0  0  0  0  0  0  0  0  0
  -24.2766  -27.8418   27.1231 C   0  0  0  0  0  0  0  0  0  0  0  0
  -25.8563  -26.2211   28.1937 C   0  0  0  0  0  0  0  0  0  0  0  0
  -23.4615  -25.6000   27.8744 C   0  0  0  0  0  0  0  0  0  0  0  0
  -25.6272  -21.8672   23.4451 C   0  0  0  0  0  0  0  0  0  0  0  0
  -29.0631  -26.8121   19.1023 C   0  0  0  0  0  0  0  0  0  0  0  0
  -24.9935  -25.7037   25.8658 C   0  0  1  0  0  0  0  0  0  0  0  0
  -26.6406  -22.2942   25.6878 C   0  0  2  0  0  0  0  0  0  0  0  0
  -24.6514  -26.3507   27.2376 C   0  0  0  0  0  0  0  0  0  0  0  0
  -26.6868  -16.5958   20.2861 N   0  0  0  0  0  0  0  0  0  0  0  0
  -30.0457  -22.4423   18.6548 N   0  0  0  0  0  0  0  0  0  0  0  0
  -29.3242  -26.2084   20.4609 N   0  0  0  0  0  0  0  0  0  0  0  0
  -26.4137  -17.9028   20.4383 N   0  0  0  0  0  0  0  0  0  0  0  0
  -24.1366  -26.5186   23.6919 N   0  0  0  0  0  0  0  0  0  0  0  0
  -29.0008  -20.3923   19.1285 N   0  0  0  0  0  0  0  0  0  0  0  0
  -24.6331  -19.4416   20.7065 N   0  0  0  0  0  0  0  0  0  0  0  0
  -22.5305  -15.4551   20.4193 N   0  0  0  0  0  0  0  0  0  0  0  0
  -21.2776  -28.3031   23.5867 N   0  0  0  0  0  0  0  0  0  0  0  0
  -25.3258  -24.2852   25.9405 N   0  0  0  0  0  0  0  0  0  0  0  0
  -26.7624  -21.6116   24.3686 N   0  3  0  0  0  0  0  0  0  0  0  0
  -22.2145  -17.7140   20.6564 O   0  0  0  0  0  0  0  0  0  0  0  0
  -23.3513  -29.1709   22.9789 O   0  0  0  0  0  0  0  0  0  0  0  0
  -22.7707  -25.3047   25.1401 O   0  0  0  0  0  0  0  0  0  0  0  0
  -27.4404  -24.4700   25.0069 O   0  0  0  0  0  0  0  0  0  0  0  0
  -27.8282  -22.0968   18.1121 O   0  0  0  0  0  0  0  0  0  0  0  0
  -24.9649  -10.4880   19.7581 O   0  0  0  0  0  0  0  0  0  0  0  0
  -28.4213  -28.9678   19.9911 O   0  0  0  0  0  0  0  0  0  1  0  0
  -21.5106   -7.8826   23.1763 F   0  0  0  0  0  0  0  0  0  0  0  0
  -22.2751  -11.1242   19.8129 F   0  0  0  0  0  0  0  0  0  0  0  0
  -28.0799  -22.8204   20.5227 F   0  0  0  0  0  0  0  0  0  0  0  0
  1  2  1  0  0  0  0
  1  5  2  0  0  0  0
  2  6  2  0  0  0  0
  3  8  2  0  0  0  0
  3 17  1  0  0  0  0
  4  9  1  0  0  0  0
  4 17  2  0  0  0  0
  5 19  1  0  0  0  0
  6 21  1  0  0  0  0
  7 10  2  0  0  0  0
  7 20  1  0  0  0  0
  8 23  1  0  0  0  0
  9 23  2  0  0  0  0
 10 24  1  0  0  0  0
 11 12  2  0  0  0  0
 11 25  1  0  0  0  0
 12 26  1  0  0  0  0
 13 14  1  0  0  0  0
 13 29  2  0  0  0  0
 14 30  2  0  0  0  0
 15 22  1  0  0  0  0
 15 24  2  0  0  0  0
 16 26  2  0  0  0  0
 16 27  1  0  0  0  0
 17 28  1  0  0  0  0
 18 28  1  0  0  0  0
 18 31  2  0  0  0  0
 18 36  1  0  0  0  0
 19 21  2  0  0  0  0
 19 42  1  0  0  0  0
 20 22  2  0  0  0  0
 20 43  1  0  0  0  0
 21 51  1  0  0  0  0
 22 44  1  0  0  0  0
 23 80  1  0  0  0  0
 24 81  1  0  0  0  0
 25 27  2  0  0  0  0
 25 80  1  0  0  0  0
 26 82  1  0  0  0  0
 27 83  1  0  0  0  0
 28 64  2  0  0  0  0
 29 32  1  0  0  0  0
 29 66  1  0  0  0  0
 30 52  1  0  0  0  0
 30 66  1  0  0  0  0
 31 67  1  0  0  0  0
 31 70  1  0  0  0  0
 32 33  2  0  0  0  0
 33 34  1  0  0  0  0
 34 52  1  0  0  0  0
 34 65  2  0  0  0  0
 35 37  2  0  0  0  0
 36 71  1  0  0  0  0
 36 75  2  0  0  0  0
 37 60  1  0  0  0  0
 37 81  1  0  0  0  0
 38 53  1  0  0  0  0
 38 72  1  0  0  0  0
 38 76  2  0  0  0  0
 39 61  1  0  0  0  0
 39 68  1  0  0  0  0
 39 77  2  0  0  0  0
 40 62  1  0  0  0  0
 40 73  1  0  0  0  0
 40 78  2  0  0  0  0
 41 65  1  0  0  0  0
 41 69  1  0  0  0  0
 41 79  2  0  0  0  0
 42 45  1  0  0  0  0
 43 53  1  0  0  0  0
 44 68  1  0  0  0  0
 45 47  1  0  0  0  0
 46 48  1  0  0  0  0
 46 49  1  0  0  0  0
 47 51  1  0  0  0  0
 48 54  1  0  0  0  0
 49 69  1  0  0  0  0
 50 54  1  0  0  0  0
 50 69  1  0  0  0  0
 51 72  1  0  0  0  0
 52 84  1  0  0  0  0
 53 68  1  0  0  0  0
 54 67  1  0  0  0  0
 55 62  1  0  0  0  0
 56 63  1  0  0  0  0
 57 63  1  0  0  0  0
 58 63  1  0  0  0  0
 59 74  1  0  0  0  0
 60 66  1  0  0  0  0
 61 63  1  0  0  0  0
 61 73  1  0  0  0  0
 62 74  1  0  0  0  0
 64 67  1  0  0  0  0
M  CHG  1  74   1
M  ISO  4  37 101  41 100  65 100  81 101
M  END
> <Batch ID>
0081

> <Smiles>
C=[101C:1](Cn1c2ccc1=C(F)C([100NH:0][100C:0](=O)N1CCCC(n3nc(-c4ccc(Oc5ccc(F)cc5F)cc4)c(C(N)=O)c3N)C1)=CC=2)[101O:1]c1ccc2c(c1)CN(C(=O)C(NC(=O)C(C)NC)C(C)(C)C)C(C(=O)NC1CCCc3ccccc31)C2

> <Shape>
0.235

> <Color>
0.083

> <Negative vol penalty>
0.000

$$$$

  -OEChem-04052300043D

 85 94  0     1  0  0  0  0  0999 V2000
  -19.0130  -25.3341   23.6188 C   0  0  0  0  0  0  0  0  0  0  0  0
  -20.0047  -25.2813   22.6445 C   0  0  0  0  0  0  0  0  0  0  0  0
  -22.8873  -11.2574   17.8938 C   0  0  0  0  0  0  0  0  0  0  0  0
  -22.6569  -10.3553   20.1232 C   0  0  0  0  0  0  0  0  0  0  0  0
  -30.3145  -19.4794   19.5406 C   0  0  0  0  0  0  0  0  0  0  0  0
  -28.5503  -18.3275   18.3584 C   0  0  0  0  0  0  0  0  0  0  0  0
  -18.3852  -26.5450   23.9079 C   0  0  0  0  0  0  0  0  0  0  0  0
  -20.3683  -26.4392   21.9579 C   0  0  0  0  0  0  0  0  0  0  0  0
  -25.3888  -26.9560   21.5431 C   0  0  0  0  0  0  0  0  0  0  0  0
  -29.6847  -20.6989   19.2922 C   0  0  0  0  0  0  0  0  0  0  0  0
  -27.9205  -19.5471   18.1100 C   0  0  0  0  0  0  0  0  0  0  0  0
  -21.9417  -10.3446   17.4267 C   0  0  0  0  0  0  0  0  0  0  0  0
  -21.7113   -9.4425   19.6561 C   0  0  0  0  0  0  0  0  0  0  0  0
  -26.0300  -26.1877   20.5723 C   0  0  0  0  0  0  0  0  0  0  0  0
  -21.6988   -6.5053   17.9817 C   0  0  0  0  0  0  0  0  0  0  0  0
  -21.8138   -5.1805   18.4027 C   0  0  0  0  0  0  0  0  0  0  0  0
  -26.0833  -28.1000   19.1027 C   0  0  0  0  0  0  0  0  0  0  0  0
  -19.6185   -5.3079   19.4035 C   0  0  0  0  0  0  0  0  0  0  0  0
  -23.2450  -11.2627   19.2421 C   0  0  0  0  0  0  0  0  0  0  0  0
  -29.7473  -18.2937   19.0737 C   0  0  0  0  0  0  0  0  0  0  0  0
  -23.9811  -13.4991   20.2241 C   0  0  0  0  0  0  0  0  0  0  0  0
  -18.7481  -27.7202   23.2313 C   0  0  0  0  0  0  0  0  0  0  0  0
  -25.0799  -28.3014   21.2964 C   0  0  0  0  0  0  0  0  0  0  0  0
  -19.7438  -27.6667   22.2373 C   0  0  0  0  0  0  0  0  0  0  0  0
  -25.4406  -28.8839   20.0730 C   0  0  0  0  0  0  0  0  0  0  0  0
  -28.4877  -20.7328   18.5769 C   0  0  0  0  0  0  0  0  0  0  0  0
  -21.3537   -9.4371   18.3079 C   0  0  0  0  0  0  0  0  0  0  0  0
  -26.3747  -26.7588   19.3508 C   0  0  0  0  0  0  0  0  0  0  0  0
  -20.5437   -7.2315   18.2717 C   0  0  0  0  0  0  0  0  0  0  0  0
  -20.7737   -4.5818   19.1135 C   0  0  0  0  0  0  0  0  0  0  0  0
  -19.5036   -6.6328   18.9826 C   0  0  0  0  0  0  0  0  0  0  0  0
  -24.2222  -12.2050   19.7251 C   0  0  0  0  0  0  0  0  0  0  0  0
  -25.2263  -13.9797   20.5481 C   0  0  0  0  0  0  0  0  0  0  0  0
  -26.9301  -23.6841   18.0704 C   0  0  0  0  0  0  0  0  0  0  0  0
  -28.1844  -23.2134   18.6593 C   0  0  0  0  0  0  0  0  0  0  0  0
  -30.4127  -17.0052   19.3359 C   0  0  0  0  0  0  0  0  0  0  0  0
  -22.7423  -14.2038   20.3807 C   0  0  0  0  0  0  0  0  0  0  0  0
  -26.3561  -24.9020   17.9286 C   0  0  0  0  0  0  0  0  0  1  0  0
  -22.3930  -29.9915   21.1285 C   0  0  0  0  0  0  0  0  0  0  0  0
  -24.4420  -32.4917   20.8574 C   0  0  0  0  0  0  0  0  0  0  0  0
  -27.5486  -33.6112   19.9959 C   0  0  0  0  0  0  0  0  0  0  0  0
  -30.5936  -14.7157   19.2051 C   0  0  0  0  0  0  0  0  0  0  0  0
  -18.0081  -28.9964   23.5449 C   0  0  0  0  0  0  0  0  0  0  0  0
  -24.4120  -29.1239   22.3641 C   0  0  0  0  0  0  0  0  0  0  0  0
  -25.1493  -30.3295   19.7665 C   0  0  0  0  0  0  0  0  0  0  0  0
  -26.5916  -22.2542   17.7161 C   0  0  0  0  0  0  0  0  0  0  0  0
  -18.7136  -30.2506   23.0355 C   0  0  0  0  0  0  0  0  0  0  0  0
  -29.6928  -11.6416   20.8614 C   0  0  0  0  0  0  0  0  0  0  0  0
  -19.1742  -30.0558   21.5944 C   0  0  0  0  0  0  0  0  0  0  0  0
  -28.1710  -11.6054   20.7221 C   0  0  0  0  0  0  0  0  0  0  0  0
  -30.3523  -12.2707   19.6379 C   0  0  0  0  0  0  0  0  0  0  0  0
  -28.3138  -13.6028   19.1698 C   0  0  0  0  0  0  0  0  0  0  0  0
  -20.1833  -28.9060   21.4883 C   0  0  1  0  0  0  0  0  0  0  0  0
  -23.6845  -30.3450   21.8102 C   0  0  1  0  0  0  0  0  0  0  0  0
  -27.6118  -13.0027   20.4000 C   0  0  1  0  0  0  0  0  0  0  0  0
  -25.0324  -25.1417   17.2744 C   0  0  0  0  0  0  0  0  0  0  0  0
  -28.9144  -35.7112   19.8463 C   0  0  0  0  0  0  0  0  0  0  0  0
  -22.9449  -33.2816   18.3187 C   0  0  0  0  0  0  0  0  0  0  0  0
  -24.8791  -34.7541   17.7197 C   0  0  0  0  0  0  0  0  0  0  0  0
  -23.5730  -35.1975   19.7983 C   0  0  0  0  0  0  0  0  0  0  0  0
  -29.5318  -32.5985   21.9453 C   0  0  0  0  0  0  0  0  0  0  0  0
  -25.1192  -33.1992   19.7085 C   0  0  1  0  0  0  0  0  0  0  0  0
  -28.5252  -34.5247   20.7144 C   0  0  2  0  0  0  0  0  0  0  0  0
  -24.1330  -34.0803   18.8910 C   0  0  0  0  0  0  0  0  0  0  0  0
  -25.5186  -11.8839   19.7297 N   0  0  0  0  0  0  0  0  0  0  0  0
  -29.9157  -15.8860   18.9215 N   0  0  0  0  0  0  0  0  0  0  0  0
  -26.1034  -12.9831   20.2354 N   0  0  0  0  0  0  0  0  0  0  0  0
  -27.8673  -21.9360   18.3327 N   0  0  0  0  0  0  0  0  0  0  0  0
  -24.4893  -31.0905   20.8401 N   0  0  0  0  0  0  0  0  0  0  0  0
  -29.7722  -13.5818   19.3435 N   0  0  0  0  0  0  0  0  0  0  0  0
  -25.6456  -15.1532   21.0671 N   0  0  0  0  0  0  0  0  0  0  0  0
  -21.5560  -13.5630   19.9980 N   0  0  0  0  0  0  0  0  0  0  0  0
  -21.4887  -29.3358   21.9418 N   0  0  0  0  0  0  0  0  0  0  0  0
  -26.2397  -33.9341   20.2853 N   0  0  0  0  0  0  0  0  0  0  0  0
  -29.7643  -33.7785   21.0733 N   0  3  0  0  0  0  0  0  0  0  0  0
  -29.1211  -23.7405   19.2225 O   0  0  0  0  0  0  0  0  0  0  0  0
  -22.6905  -15.3735   20.8310 O   0  0  0  0  0  0  0  0  0  0  0  0
  -22.2286  -30.2928   19.9521 O   0  0  0  0  0  0  0  0  0  0  0  0
  -23.8975  -33.1578   21.7413 O   0  0  0  0  0  0  0  0  0  0  0  0
  -27.9106  -32.7045   19.2494 O   0  0  0  0  0  0  0  0  0  0  0  0
  -31.8187  -14.6431   19.3264 O   0  0  0  0  0  0  0  0  0  0  0  0
  -20.4307   -8.5464   17.8525 O   0  0  0  0  0  0  0  0  0  0  0  0
  -26.9999  -26.0110   18.4013 O   0  0  0  0  0  0  0  0  0  1  0  0
  -20.8836   -3.3090   19.5164 F   0  0  0  0  0  0  0  0  0  0  0  0
  -18.3909   -7.3250   19.2632 F   0  0  0  0  0  0  0  0  0  0  0  0
  1  2  1  0  0  0  0
  1  7  2  0  0  0  0
  2  8  2  0  0  0  0
  3 12  2  0  0  0  0
  3 19  1  0  0  0  0
  4 13  1  0  0  0  0
  4 19  2  0  0  0  0
  5 10  2  0  0  0  0
  5 20  1  0  0  0  0
  6 11  1  0  0  0  0
  6 20  2  0  0  0  0
  7 22  1  0  0  0  0
  8 24  1  0  0  0  0
  9 14  2  0  0  0  0
  9 23  1  0  0  0  0
 10 26  1  0  0  0  0
 11 26  2  0  0  0  0
 12 27  1  0  0  0  0
 13 27  2  0  0  0  0
 14 28  1  0  0  0  0
 15 16  2  0  0  0  0
 15 29  1  0  0  0  0
 16 30  1  0  0  0  0
 17 25  1  0  0  0  0
 17 28  2  0  0  0  0
 18 30  2  0  0  0  0
 18 31  1  0  0  0  0
 19 32  1  0  0  0  0
 20 36  1  0  0  0  0
 21 32  1  0  0  0  0
 21 33  2  0  0  0  0
 21 37  1  0  0  0  0
 22 24  2  0  0  0  0
 22 43  1  0  0  0  0
 23 25  2  0  0  0  0
 23 44  1  0  0  0  0
 24 53  1  0  0  0  0
 25 45  1  0  0  0  0
 26 68  1  0  0  0  0
 27 82  1  0  0  0  0
 28 83  1  0  0  0  0
 29 31  2  0  0  0  0
 29 82  1  0  0  0  0
 30 84  1  0  0  0  0
 31 85  1  0  0  0  0
 32 65  2  0  0  0  0
 33 67  1  0  0  0  0
 33 71  1  0  0  0  0
 34 35  1  0  0  0  0
 34 38  2  0  0  0  0
 34 46  1  0  0  0  0
 35 68  1  0  0  0  0
 35 76  2  0  0  0  0
 36 66  2  0  0  0  0
 37 72  1  0  0  0  0
 37 77  2  0  0  0  0
 38 56  1  0  0  0  0
 38 83  1  0  0  0  0
 39 54  1  0  0  0  0
 39 73  1  0  0  0  0
 39 78  2  0  0  0  0
 40 62  1  0  0  0  0
 40 69  1  0  0  0  0
 40 79  2  0  0  0  0
 41 63  1  0  0  0  0
 41 74  1  0  0  0  0
 41 80  2  0  0  0  0
 42 66  1  0  0  0  0
 42 70  1  0  0  0  0
 42 81  2  0  0  0  0
 43 47  1  0  0  0  0
 44 54  1  0  0  0  0
 45 69  1  0  0  0  0
 46 68  1  0  0  0  0
 47 49  1  0  0  0  0
 48 50  1  0  0  0  0
 48 51  1  0  0  0  0
 49 53  1  0  0  0  0
 50 55  1  0  0  0  0
 51 70  1  0  0  0  0
 52 55  1  0  0  0  0
 52 70  1  0  0  0  0
 53 73  1  0  0  0  0
 54 69  1  0  0  0  0
 55 67  1  0  0  0  0
 57 63  1  0  0  0  0
 58 64  1  0  0  0  0
 59 64  1  0  0  0  0
 60 64  1  0  0  0  0
 61 75  1  0  0  0  0
 62 64  1  0  0  0  0
 62 74  1  0  0  0  0
 63 75  1  0  0  0  0
 65 67  1  0  0  0  0
M  CHG  1  75   1
M  ISO  4  38 101  42 100  66 100  83 101
M  END
> <Batch ID>
0081

> <Smiles>
CNC(C)C(=O)NC(C(=O)N1Cc2cc([101O:1][101C:1](C)=C3CN(c4ccc(C=[100N:0][100C:0](=O)N5CCCC(n6nc(-c7ccc(Oc8ccc(F)cc8F)cc7)c(C(N)=O)c6N)C5)cc4)C3=O)ccc2CC1C(=O)NC1CCCc2ccccc21)C(C)(C)C

> <Shape>
0.250

> <Color>
0.147

> <Negative vol penalty>
0.000

$$$$

  -OEChem-04052300043D

 84 93  0     1  0  0  0  0  0999 V2000
  -31.9667  -36.5933   17.3638 C   0  0  0  0  0  0  0  0  0  0  0  0
  -31.7918  -35.2248   17.1853 C   0  0  0  0  0  0  0  0  0  0  0  0
  -24.4348   -8.2687   21.3129 C   0  0  0  0  0  0  0  0  0  0  0  0
  -24.0937  -10.0301   22.9310 C   0  0  0  0  0  0  0  0  0  0  0  0
  -31.6957  -37.1739   18.6021 C   0  0  0  0  0  0  0  0  0  0  0  0
  -31.3468  -34.4358   18.2455 C   0  0  0  0  0  0  0  0  0  0  0  0
  -27.7032  -29.5253   17.9038 C   0  0  0  0  0  0  0  0  0  0  0  0
  -26.5013  -19.7385   18.5856 C   0  0  0  0  0  0  0  0  0  0  0  0
  -28.8679  -19.9819   19.0064 C   0  0  0  0  0  0  0  0  0  0  0  0
  -26.6477  -18.3516   18.5641 C   0  0  0  0  0  0  0  0  0  0  0  0
  -29.0143  -18.5949   18.9849 C   0  0  0  0  0  0  0  0  0  0  0  0
  -24.0291   -7.3241   22.2555 C   0  0  0  0  0  0  0  0  0  0  0  0
  -23.6879   -9.0854   23.8737 C   0  0  0  0  0  0  0  0  0  0  0  0
  -27.9708  -28.1570   17.9015 C   0  0  0  0  0  0  0  0  0  0  0  0
  -21.1195   -6.1867   23.5491 C   0  0  0  0  0  0  0  0  0  0  0  0
  -20.2261   -5.1991   23.1341 C   0  0  0  0  0  0  0  0  0  0  0  0
  -27.5515  -28.0771   20.2757 C   0  0  0  0  0  0  0  0  0  0  0  0
  -21.8415   -3.4967   23.7081 C   0  0  0  0  0  0  0  0  0  0  0  0
  -24.4672   -9.6217   21.6506 C   0  0  0  0  0  0  0  0  0  0  0  0
  -24.0727  -11.2857   19.7577 C   0  0  0  0  0  0  0  0  0  0  0  0
  -31.2379  -36.3932   19.6752 C   0  0  0  0  0  0  0  0  0  0  0  0
  -27.3677  -30.1829   19.0961 C   0  0  0  0  0  0  0  0  0  0  0  0
  -31.0707  -35.0063   19.4997 C   0  0  0  0  0  0  0  0  0  0  0  0
  -27.2775  -29.4533   20.2901 C   0  0  0  0  0  0  0  0  0  0  0  0
  -27.6114  -20.5537   18.8067 C   0  0  0  0  0  0  0  0  0  0  0  0
  -27.9042  -17.7797   18.7638 C   0  0  0  0  0  0  0  0  0  0  0  0
  -23.6556   -7.7324   23.5359 C   0  0  0  0  0  0  0  0  0  0  0  0
  -27.8978  -27.4333   19.0881 C   0  0  0  0  0  0  0  0  0  0  0  0
  -22.3739   -5.8293   24.0435 C   0  0  0  0  0  0  0  0  0  0  0  0
  -20.5871   -3.8541   23.2136 C   0  0  0  0  0  0  0  0  0  0  0  0
  -22.7349   -4.4843   24.1231 C   0  0  0  0  0  0  0  0  0  0  0  0
  -24.8868  -10.5980   20.6775 C   0  0  0  0  0  0  0  0  0  0  0  0
  -24.9426  -12.0918   19.0649 C   0  0  0  0  0  0  0  0  0  0  0  0
  -27.2587  -23.9004   18.8578 C   0  0  0  0  0  0  0  0  0  0  0  0
  -26.3914  -22.7428   18.6676 C   0  0  0  0  0  0  0  0  0  0  0  0
  -28.3490  -22.9437   19.0157 C   0  0  0  0  0  0  0  0  0  0  0  0
  -27.1178  -25.2382   18.8782 C   0  0  0  0  0  0  0  0  0  1  0  0
  -22.6567  -11.2033   19.5482 C   0  0  0  0  0  0  0  0  0  0  0  0
  -28.6682  -32.5232   20.8094 C   0  0  0  0  0  0  0  0  0  0  0  0
  -25.9432  -32.2387   22.5460 C   0  0  0  0  0  0  0  0  0  0  0  0
  -23.3201  -30.2857   23.5217 C   0  0  0  0  0  0  0  0  0  0  0  0
  -29.2290  -15.6428   18.9223 C   0  0  0  0  0  0  0  0  0  0  0  0
  -31.0033  -37.0581   21.0085 C   0  0  0  0  0  0  0  0  0  0  0  0
  -27.0558  -31.6542   19.0770 C   0  0  0  0  0  0  0  0  0  0  0  0
  -26.9018  -30.1083   21.5932 C   0  0  0  0  0  0  0  0  0  0  0  0
  -30.1771  -36.2122   21.9739 C   0  0  0  0  0  0  0  0  0  0  0  0
  -30.0031  -12.1680   18.9775 C   0  0  0  0  0  0  0  0  0  0  0  0
  -30.6907  -34.7761   21.9994 C   0  0  0  0  0  0  0  0  0  0  0  0
  -28.6741  -11.5063   19.3490 C   0  0  0  0  0  0  0  0  0  0  0  0
  -30.2000  -13.4948   19.7085 C   0  0  0  0  0  0  0  0  0  0  0  0
  -27.7650  -13.7891   19.9402 C   0  0  0  0  0  0  0  0  0  0  0  0
  -30.5659  -34.1211   20.6185 C   0  0  1  0  0  0  0  0  0  0  0  0
  -27.2263  -32.3188   20.4396 C   0  0  1  0  0  0  0  0  0  0  0  0
  -27.4924  -12.4812   19.1794 C   0  0  2  0  0  0  0  0  0  0  0  0
  -21.2754  -30.3164   24.9763 C   0  0  0  0  0  0  0  0  0  0  0  0
  -27.7012  -31.9222   25.0198 C   0  0  0  0  0  0  0  0  0  0  0  0
  -25.7058  -31.0255   26.2374 C   0  0  0  0  0  0  0  0  0  0  0  0
  -25.6805  -33.3577   25.3527 C   0  0  0  0  0  0  0  0  0  0  0  0
  -21.5282  -29.8244   21.2120 C   0  0  0  0  0  0  0  0  0  0  0  0
  -25.5167  -31.4181   23.7392 C   0  0  1  0  0  0  0  0  0  0  0  0
  -21.8280  -30.5589   23.5804 C   0  0  2  0  0  0  0  0  0  0  0  0
  -26.1600  -31.9186   25.0632 C   0  0  0  0  0  0  0  0  0  0  0  0
  -26.1750  -10.9374   20.5803 N   0  0  0  0  0  0  0  0  0  0  0  0
  -26.1769  -11.8472   19.5912 N   0  0  0  0  0  0  0  0  0  0  0  0
  -27.4674  -21.9207   18.8276 N   0  0  0  0  0  0  0  0  0  0  0  0
  -26.6122  -31.5501   21.5242 N   0  0  0  0  0  0  0  0  0  0  0  0
  -29.0435  -14.3686   19.4991 N   0  0  0  0  0  0  0  0  0  0  0  0
  -24.7646  -12.9788   18.0630 N   0  0  0  0  0  0  0  0  0  0  0  0
  -21.9132  -10.3241   20.3473 N   0  0  0  0  0  0  0  0  0  0  0  0
  -28.0533  -16.3708   18.7420 N   0  0  0  0  0  0  0  0  0  0  0  0
  -29.1971  -33.7219   20.3703 N   0  0  0  0  0  0  0  0  0  0  0  0
  -24.0578  -31.4296   23.7421 N   0  0  0  0  0  0  0  0  0  0  0  0
  -21.1015  -29.6734   22.6269 N   0  3  0  0  0  0  0  0  0  0  0  0
  -25.2091  -22.5718   18.4556 O   0  0  0  0  0  0  0  0  0  0  0  0
  -29.5415  -23.0166   19.2260 O   0  0  0  0  0  0  0  0  0  0  0  0
  -22.0706  -11.8769   18.6672 O   0  0  0  0  0  0  0  0  0  0  0  0
  -29.2569  -31.6581   21.4472 O   0  0  0  0  0  0  0  0  0  0  0  0
  -25.6858  -33.4448   22.5184 O   0  0  0  0  0  0  0  0  0  0  0  0
  -23.7848  -29.1685   23.3061 O   0  0  0  0  0  0  0  0  0  0  0  0
  -30.3451  -16.0468   18.5861 O   0  0  0  0  0  0  0  0  0  0  0  0
  -23.2594   -6.8109   24.4559 O   0  0  0  0  0  0  0  0  0  0  0  0
  -28.1592  -26.0978   19.0887 O   0  0  0  0  0  0  0  0  0  1  0  0
  -19.7286   -2.9058   22.8165 F   0  0  0  0  0  0  0  0  0  0  0  0
  -23.9381   -4.1348   24.5983 F   0  0  0  0  0  0  0  0  0  0  0  0
  1  2  1  0  0  0  0
  1  5  2  0  0  0  0
  2  6  2  0  0  0  0
  3 12  2  0  0  0  0
  3 19  1  0  0  0  0
  4 13  1  0  0  0  0
  4 19  2  0  0  0  0
  5 21  1  0  0  0  0
  6 23  1  0  0  0  0
  7 14  2  0  0  0  0
  7 22  1  0  0  0  0
  8 10  2  0  0  0  0
  8 25  1  0  0  0  0
  9 11  1  0  0  0  0
  9 25  2  0  0  0  0
 10 26  1  0  0  0  0
 11 26  2  0  0  0  0
 12 27  1  0  0  0  0
 13 27  2  0  0  0  0
 14 28  1  0  0  0  0
 15 16  2  0  0  0  0
 15 29  1  0  0  0  0
 16 30  1  0  0  0  0
 17 24  1  0  0  0  0
 17 28  2  0  0  0  0
 18 30  2  0  0  0  0
 18 31  1  0  0  0  0
 19 32  1  0  0  0  0
 20 32  1  0  0  0  0
 20 33  2  0  0  0  0
 20 38  1  0  0  0  0
 21 23  2  0  0  0  0
 21 43  1  0  0  0  0
 22 24  2  0  0  0  0
 22 44  1  0  0  0  0
 23 52  1  0  0  0  0
 24 45  1  0  0  0  0
 25 65  1  0  0  0  0
 26 70  1  0  0  0  0
 27 81  1  0  0  0  0
 28 82  1  0  0  0  0
 29 31  2  0  0  0  0
 29 81  1  0  0  0  0
 30 83  1  0  0  0  0
 31 84  1  0  0  0  0
 32 63  2  0  0  0  0
 33 64  1  0  0  0  0
 33 68  1  0  0  0  0
 34 35  1  0  0  0  0
 34 36  1  0  0  0  0
 34 37  2  0  0  0  0
 35 65  1  0  0  0  0
 35 74  2  0  0  0  0
 36 65  1  0  0  0  0
 36 75  2  0  0  0  0
 37 82  1  0  0  0  0
 38 69  1  0  0  0  0
 38 76  2  0  0  0  0
 39 53  1  0  0  0  0
 39 71  1  0  0  0  0
 39 77  2  0  0  0  0
 40 60  1  0  0  0  0
 40 66  1  0  0  0  0
 40 78  2  0  0  0  0
 41 61  1  0  0  0  0
 41 72  1  0  0  0  0
 41 79  2  0  0  0  0
 42 67  1  0  0  0  0
 42 70  1  0  0  0  0
 42 80  2  0  0  0  0
 43 46  1  0  0  0  0
 44 53  1  0  0  0  0
 45 66  1  0  0  0  0
 46 48  1  0  0  0  0
 47 49  1  0  0  0  0
 47 50  1  0  0  0  0
 48 52  1  0  0  0  0
 49 54  1  0  0  0  0
 50 67  1  0  0  0  0
 51 54  1  0  0  0  0
 51 67  1  0  0  0  0
 52 71  1  0  0  0  0
 53 66  1  0  0  0  0
 54 64  1  0  0  0  0
 55 61  1  0  0  0  0
 56 62  1  0  0  0  0
 57 62  1  0  0  0  0
 58 62  1  0  0  0  0
 59 73  1  0  0  0  0
 60 62  1  0  0  0  0
 60 72  1  0  0  0  0
 61 73  1  0  0  0  0
 63 64  1  0  0  0  0
M  CHG  1  73   1
M  ISO  4  37 101  42 100  70 100  82 101
M  END
> <Batch ID>
0081

> <Smiles>
CNC(C)C(=O)NC(C(=O)N1Cc2cc([101O:1][101CH:1]=C3C(=O)N(c4ccc([100NH:0][100C:0](=O)N5CCCC(n6nc(-c7ccc(Oc8ccc(F)cc8F)cc7)c(C(N)=O)c6N)C5)cc4)C3=O)ccc2CC1C(=O)NC1CCCc2ccccc21)C(C)(C)C

> <Shape>
0.262

> <Color>
0.109

> <Negative vol penalty>
0.000

$$$$

  -OEChem-04052300043D

 86 95  0     1  0  0  0  0  0999 V2000
  -28.2142  -11.0084   20.9933 C   0  0  0  0  0  0  0  0  0  0  0  0
  -28.7741  -12.2097   20.5704 C   0  0  0  0  0  0  0  0  0  0  0  0
  -20.5270  -26.9885   22.0307 C   0  0  0  0  0  0  0  0  0  0  0  0
  -19.8269  -29.0328   23.1113 C   0  0  0  0  0  0  0  0  0  0  0  0
  -30.5394  -26.0851   19.8117 C   0  0  0  0  0  0  0  0  0  0  0  0
  -28.2981  -25.4264   20.4279 C   0  0  0  0  0  0  0  0  0  0  0  0
  -26.8281  -10.8666   21.0448 C   0  0  0  0  0  0  0  0  0  0  0  0
  -27.9482  -13.2696   20.1977 C   0  0  0  0  0  0  0  0  0  0  0  0
  -29.0180  -19.2412   21.0352 C   0  0  0  0  0  0  0  0  0  0  0  0
  -30.3500  -25.5414   18.5413 C   0  0  0  0  0  0  0  0  0  0  0  0
  -28.1086  -24.8828   19.1574 C   0  0  0  0  0  0  0  0  0  0  0  0
  -19.2499  -26.4568   22.2090 C   0  0  0  0  0  0  0  0  0  0  0  0
  -18.5497  -28.5012   23.2896 C   0  0  0  0  0  0  0  0  0  0  0  0
  -29.5127  -20.2331   20.1895 C   0  0  0  0  0  0  0  0  0  0  0  0
  -17.4647  -25.0506   24.7110 C   0  0  0  0  0  0  0  0  0  0  0  0
  -17.3686  -23.7396   25.1773 C   0  0  0  0  0  0  0  0  0  0  0  0
  -27.2553  -20.8977   19.6586 C   0  0  0  0  0  0  0  0  0  0  0  0
  -16.1790  -23.1128   23.1700 C   0  0  0  0  0  0  0  0  0  0  0  0
  -20.8156  -28.2765   22.4819 C   0  0  0  0  0  0  0  0  0  0  0  0
  -29.5135  -26.0275   20.7551 C   0  0  0  0  0  0  0  0  0  0  0  0
  -22.6010  -29.5683   21.1969 C   0  0  0  0  0  0  0  0  0  0  0  0
  -25.9848  -11.9285   20.6817 C   0  0  0  0  0  0  0  0  0  0  0  0
  -27.6359  -19.0626   21.1908 C   0  0  0  0  0  0  0  0  0  0  0  0
  -26.5495  -13.1414   20.2431 C   0  0  0  0  0  0  0  0  0  0  0  0
  -26.7457  -19.9045   20.5088 C   0  0  0  0  0  0  0  0  0  0  0  0
  -29.1346  -24.9403   18.2141 C   0  0  0  0  0  0  0  0  0  0  0  0
  -18.2612  -27.2131   22.8384 C   0  0  0  0  0  0  0  0  0  0  0  0
  -28.6313  -21.0597   19.4989 C   0  0  0  0  0  0  0  0  0  0  0  0
  -16.9179  -25.3929   23.4742 C   0  0  0  0  0  0  0  0  0  0  0  0
  -16.7258  -22.7707   24.4068 C   0  0  0  0  0  0  0  0  0  0  0  0
  -16.2751  -24.4240   22.7038 C   0  0  0  0  0  0  0  0  0  0  0  0
  -22.1348  -28.8261   22.2985 C   0  0  0  0  0  0  0  0  0  0  0  0
  -23.9086  -29.8546   21.5043 C   0  0  0  0  0  0  0  0  0  0  0  0
  -28.6472  -23.0649   16.5805 C   0  0  0  0  0  0  0  0  0  0  0  0
  -29.0019  -25.1818   15.7466 C   0  0  0  0  0  0  0  0  0  0  0  0
  -28.7653  -21.9764   17.3512 C   0  0  0  0  0  0  0  0  0  1  0  0
  -29.7154  -26.6064   22.1082 C   0  0  0  0  0  0  0  0  0  0  0  0
  -21.9134  -29.9636   20.0025 C   0  0  0  0  0  0  0  0  0  0  0  0
  -25.5996  -16.6942   20.6012 C   0  0  0  0  0  0  0  0  0  0  0  0
  -23.4880  -18.6621   22.0813 C   0  0  0  0  0  0  0  0  0  0  0  0
  -22.6297  -21.8405   22.9803 C   0  0  0  0  0  0  0  0  0  0  0  0
  -28.5235  -27.5697   24.0512 C   0  0  0  0  0  0  0  0  0  0  0  0
  -24.4925  -11.7122   20.7086 C   0  0  0  0  0  0  0  0  0  0  0  0
  -27.1185  -18.0055   22.1274 C   0  0  0  0  0  0  0  0  0  0  0  0
  -25.2532  -19.7671   20.6570 C   0  0  0  0  0  0  0  0  0  0  0  0
  -28.2669  -22.9895   15.1342 C   0  0  0  0  0  0  0  0  0  0  0  0
  -28.8546  -24.2638   14.5580 C   0  0  0  0  0  0  0  0  0  0  0  0
  -23.6880  -13.0084   20.6541 C   0  0  0  0  0  0  0  0  0  0  0  0
  -26.5541  -30.0069   25.6878 C   0  0  0  0  0  0  0  0  0  0  0  0
  -24.2327  -13.9294   19.5669 C   0  0  0  0  0  0  0  0  0  0  0  0
  -25.2598  -30.0338   24.8702 C   0  0  0  0  0  0  0  0  0  0  0  0
  -27.1145  -28.5912   25.8167 C   0  0  0  0  0  0  0  0  0  0  0  0
  -25.9957  -27.8990   23.7365 C   0  0  0  0  0  0  0  0  0  0  0  0
  -25.6868  -14.3224   19.8543 C   0  0  1  0  0  0  0  0  0  0  0  0
  -25.6883  -17.5773   21.8136 C   0  0  1  0  0  0  0  0  0  0  0  0
  -25.4294  -29.3114   23.5186 C   0  0  1  0  0  0  0  0  0  0  0  0
  -20.8282  -23.1384   24.1497 C   0  0  0  0  0  0  0  0  0  0  0  0
  -21.6929  -18.3735   19.6310 C   0  0  0  0  0  0  0  0  0  0  0  0
  -20.4147  -20.3773   20.4177 C   0  0  0  0  0  0  0  0  0  0  0  0
  -20.4863  -18.3160   21.8208 C   0  0  0  0  0  0  0  0  0  0  0  0
  -24.5126  -22.8187   25.0435 C   0  0  0  0  0  0  0  0  0  0  0  0
  -22.5535  -19.7593   21.6322 C   0  0  1  0  0  0  0  0  0  0  0  0
  -22.1608  -22.4216   24.3020 C   0  0  2  0  0  0  0  0  0  0  0  0
  -21.3149  -19.2081   20.8709 C   0  0  0  0  0  0  0  0  0  0  0  0
  -23.0703  -28.6516   23.2357 N   0  0  0  0  0  0  0  0  0  0  0  0
  -24.1374  -29.2882   22.7238 N   0  0  0  0  0  0  0  0  0  0  0  0
  -28.9410  -24.3825   16.9092 N   0  0  0  0  0  0  0  0  0  0  0  0
  -24.7962  -18.7147   21.5795 N   0  0  0  0  0  0  0  0  0  0  0  0
  -27.2539  -27.9805   24.4935 N   0  0  0  0  0  0  0  0  0  0  0  0
  -24.8736  -30.5330   20.8478 N   0  0  0  0  0  0  0  0  0  0  0  0
  -20.5727  -29.5857   19.8471 N   0  0  0  0  0  0  0  0  0  0  0  0
  -28.5583  -27.0379   22.7574 N   0  0  0  0  0  0  0  0  0  0  0  0
  -25.7412  -15.3471   20.8748 N   0  0  0  0  0  0  0  0  0  0  0  0
  -22.2262  -20.5310   22.8263 N   0  0  0  0  0  0  0  0  0  0  0  0
  -23.1612  -23.3951   24.8238 N   0  3  0  0  0  0  0  0  0  0  0  0
  -29.1578  -26.3903   15.6367 O   0  0  0  0  0  0  0  0  0  0  0  0
  -30.8474  -26.6362   22.5832 O   0  0  0  0  0  0  0  0  0  0  0  0
  -22.4761  -30.6182   19.0923 O   0  0  0  0  0  0  0  0  0  0  0  0
  -25.4148  -17.1975   19.4993 O   0  0  0  0  0  0  0  0  0  0  0  0
  -23.0747  -17.7946   22.8547 O   0  0  0  0  0  0  0  0  0  0  0  0
  -23.2850  -22.4850   22.1644 O   0  0  0  0  0  0  0  0  0  0  0  0
  -29.5444  -27.7002   24.7340 O   0  0  0  0  0  0  0  0  0  0  0  0
  -17.0148  -26.6947   23.0123 O   0  0  0  0  0  0  0  0  0  0  0  0
  -29.1115  -22.0282   18.6723 O   0  0  0  0  0  0  0  0  0  1  0  0
  -16.6350  -21.5113   24.8541 F   0  0  0  0  0  0  0  0  0  0  0  0
  -15.7488  -24.7465   21.5143 F   0  0  0  0  0  0  0  0  0  0  0  0
  1  2  1  0  0  0  0
  1  7  2  0  0  0  0
  2  8  2  0  0  0  0
  3 12  2  0  0  0  0
  3 19  1  0  0  0  0
  4 13  1  0  0  0  0
  4 19  2  0  0  0  0
  5 10  2  0  0  0  0
  5 20  1  0  0  0  0
  6 11  1  0  0  0  0
  6 20  2  0  0  0  0
  7 22  1  0  0  0  0
  8 24  1  0  0  0  0
  9 14  2  0  0  0  0
  9 23  1  0  0  0  0
 10 26  1  0  0  0  0
 11 26  2  0  0  0  0
 12 27  1  0  0  0  0
 13 27  2  0  0  0  0
 14 28  1  0  0  0  0
 15 16  2  0  0  0  0
 15 29  1  0  0  0  0
 16 30  1  0  0  0  0
 17 25  1  0  0  0  0
 17 28  2  0  0  0  0
 18 30  2  0  0  0  0
 18 31  1  0  0  0  0
 19 32  1  0  0  0  0
 20 37  1  0  0  0  0
 21 32  1  0  0  0  0
 21 33  2  0  0  0  0
 21 38  1  0  0  0  0
 22 24  2  0  0  0  0
 22 43  1  0  0  0  0
 23 25  2  0  0  0  0
 23 44  1  0  0  0  0
 24 54  1  0  0  0  0
 25 45  1  0  0  0  0
 26 67  1  0  0  0  0
 27 83  1  0  0  0  0
 28 84  1  0  0  0  0
 29 31  2  0  0  0  0
 29 83  1  0  0  0  0
 30 85  1  0  0  0  0
 31 86  1  0  0  0  0
 32 65  2  0  0  0  0
 33 66  1  0  0  0  0
 33 70  1  0  0  0  0
 34 36  2  0  0  0  0
 34 46  1  0  0  0  0
 34 67  1  0  0  0  0
 35 47  1  0  0  0  0
 35 67  1  0  0  0  0
 35 76  2  0  0  0  0
 36 84  1  0  0  0  0
 37 72  1  0  0  0  0
 37 77  2  0  0  0  0
 38 71  1  0  0  0  0
 38 78  2  0  0  0  0
 39 55  1  0  0  0  0
 39 73  1  0  0  0  0
 39 79  2  0  0  0  0
 40 62  1  0  0  0  0
 40 68  1  0  0  0  0
 40 80  2  0  0  0  0
 41 63  1  0  0  0  0
 41 74  1  0  0  0  0
 41 81  2  0  0  0  0
 42 69  1  0  0  0  0
 42 72  1  0  0  0  0
 42 82  2  0  0  0  0
 43 48  1  0  0  0  0
 44 55  1  0  0  0  0
 45 68  1  0  0  0  0
 46 47  1  0  0  0  0
 48 50  1  0  0  0  0
 49 51  1  0  0  0  0
 49 52  1  0  0  0  0
 50 54  1  0  0  0  0
 51 56  1  0  0  0  0
 52 69  1  0  0  0  0
 53 56  1  0  0  0  0
 53 69  1  0  0  0  0
 54 73  1  0  0  0  0
 55 68  1  0  0  0  0
 56 66  1  0  0  0  0
 57 63  1  0  0  0  0
 58 64  1  0  0  0  0
 59 64  1  0  0  0  0
 60 64  1  0  0  0  0
 61 75  1  0  0  0  0
 62 64  1  0  0  0  0
 62 74  1  0  0  0  0
 63 75  1  0  0  0  0
 65 66  1  0  0  0  0
M  CHG  1  75   1
M  ISO  4  36 101  42 100  72 100  84 101
M  END
> <Batch ID>
0081

> <Smiles>
CNC(C)C(=O)NC(C(=O)N1Cc2cc([101O:1][101CH:1]=C3CCC(=O)N3c3ccc(C(=O)[100NH:0][100C:0](=O)N4CCCC(n5nc(-c6ccc(Oc7ccc(F)cc7F)cc6)c(C(N)=O)c5N)C4)cc3)ccc2CC1C(=O)NC1CCCc2ccccc21)C(C)(C)C

> <Shape>
0.228

> <Color>
0.069

> <Negative vol penalty>
0.000

$$$$

  -OEChem-04052300043D

 78 85  0     1  0  0  0  0  0999 V2000
  -20.0403  -34.5066   21.5523 C   0  0  0  0  0  0  0  0  0  0  0  0
  -21.2620  -33.9757   21.1510 C   0  0  0  0  0  0  0  0  0  0  0  0
  -25.1795  -13.7768   21.2975 C   0  0  0  0  0  0  0  0  0  0  0  0
  -23.1406  -14.9710   21.8014 C   0  0  0  0  0  0  0  0  0  0  0  0
  -19.3137  -33.8894   22.5696 C   0  0  0  0  0  0  0  0  0  0  0  0
  -21.7583  -32.8277   21.7676 C   0  0  0  0  0  0  0  0  0  0  0  0
  -25.0294  -28.3625   19.1470 C   0  0  0  0  0  0  0  0  0  0  0  0
  -24.6020  -12.5949   21.7613 C   0  0  0  0  0  0  0  0  0  0  0  0
  -22.5630  -13.7891   22.2652 C   0  0  0  0  0  0  0  0  0  0  0  0
  -26.3982  -28.1002   19.1105 C   0  0  0  0  0  0  0  0  0  0  0  0
  -23.5401   -9.1928   22.4775 C   0  0  0  0  0  0  0  0  0  0  0  0
  -23.7120   -8.0417   21.7087 C   0  0  0  0  0  0  0  0  0  0  0  0
  -26.1504  -26.5804   20.9674 C   0  0  0  0  0  0  0  0  0  0  0  0
  -22.6014   -9.1163   19.8515 C   0  0  0  0  0  0  0  0  0  0  0  0
  -24.4489  -14.9649   21.3175 C   0  0  0  0  0  0  0  0  0  0  0  0
  -25.0146  -16.6890   19.5245 C   0  0  0  0  0  0  0  0  0  0  0  0
  -19.7968  -32.7277   23.1924 C   0  0  0  0  0  0  0  0  0  0  0  0
  -24.2112  -27.7430   20.1026 C   0  0  0  0  0  0  0  0  0  0  0  0
  -21.0381  -32.1951   22.7952 C   0  0  0  0  0  0  0  0  0  0  0  0
  -24.7711  -26.8346   21.0123 C   0  0  0  0  0  0  0  0  0  0  0  0
  -23.2937  -12.6011   22.2452 C   0  0  0  0  0  0  0  0  0  0  0  0
  -26.9594  -27.2113   20.0226 C   0  0  0  0  0  0  0  0  0  0  0  0
  -22.8988  -10.3056   21.9334 C   0  0  0  0  0  0  0  0  0  0  0  0
  -23.2427   -8.0034   20.3957 C   0  0  0  0  0  0  0  0  0  0  0  0
  -22.4295  -10.2673   20.6204 C   0  0  0  0  0  0  0  0  0  0  0  0
  -25.0452  -16.1862   20.8391 C   0  0  0  0  0  0  0  0  0  0  0  0
  -25.7193  -17.8661   19.5907 C   0  0  0  0  0  0  0  0  0  0  0  0
  -29.9421  -25.2082   19.7068 C   0  0  0  0  0  0  0  0  0  0  0  0
  -28.6865  -25.6612   19.7736 C   0  0  0  0  0  0  0  0  0  1  0  0
  -24.4037  -16.1412   18.3488 C   0  0  0  0  0  0  0  0  0  0  0  0
  -30.3907  -23.8054   19.4727 C   0  0  0  0  0  0  0  0  0  0  0  0
  -22.3832  -28.7669   22.4930 C   0  0  0  0  0  0  0  0  0  0  0  0
  -29.9811  -21.3367   19.0320 C   0  0  0  0  0  0  0  0  0  0  0  0
  -21.5375  -25.6403   22.6693 C   0  0  0  0  0  0  0  0  0  0  0  0
  -22.3340  -22.3832   22.0338 C   0  0  0  0  0  0  0  0  0  0  0  0
  -30.0600  -20.8164   21.2736 C   0  0  0  0  0  0  0  0  0  0  0  0
  -18.9983  -32.1229   24.3199 C   0  0  0  0  0  0  0  0  0  0  0  0
  -22.7321  -28.0162   20.1117 C   0  0  0  0  0  0  0  0  0  0  0  0
  -23.9328  -26.1279   22.0450 C   0  0  0  0  0  0  0  0  0  0  0  0
  -19.4164  -30.6959   24.6652 C   0  0  0  0  0  0  0  0  0  0  0  0
  -27.3893  -20.5011   23.5744 C   0  0  0  0  0  0  0  0  0  0  0  0
  -20.9352  -30.5933   24.7623 C   0  0  0  0  0  0  0  0  0  0  0  0
  -26.5367  -19.3852   22.9657 C   0  0  0  0  0  0  0  0  0  0  0  0
  -28.8805  -20.2317   23.3889 C   0  0  0  0  0  0  0  0  0  0  0  0
  -28.4374  -18.8703   21.3726 C   0  0  0  0  0  0  0  0  0  0  0  0
  -21.5981  -30.9371   23.4229 C   0  0  1  0  0  0  0  0  0  0  0  0
  -22.0782  -27.7212   21.4581 C   0  0  1  0  0  0  0  0  0  0  0  0
  -26.9247  -19.1205   21.4979 C   0  0  1  0  0  0  0  0  0  0  0  0
  -30.2753  -20.9637   17.5999 C   0  0  0  0  0  0  0  0  0  0  0  0
  -21.4615  -20.0486   22.3269 C   0  0  0  0  0  0  0  0  0  0  0  0
  -22.2899  -25.7327   25.6248 C   0  0  0  0  0  0  0  0  0  0  0  0
  -22.3144  -23.2292   25.6252 C   0  0  0  0  0  0  0  0  0  0  0  0
  -20.2009  -24.4540   25.1197 C   0  0  0  0  0  0  0  0  0  0  0  0
  -22.2805  -21.9122   19.1125 C   0  0  0  0  0  0  0  0  0  0  0  0
  -29.3690  -22.7054   19.2783 C   0  0  0  0  0  0  0  0  0  0  0  0
  -22.0603  -24.4313   23.4068 C   0  0  1  0  0  0  0  0  0  0  0  0
  -21.5362  -21.2554   21.4045 C   0  0  2  0  0  0  0  0  0  0  0  0
  -21.7328  -24.4764   24.9260 C   0  0  0  0  0  0  0  0  0  0  0  0
  -25.7164  -16.9788   21.6788 N   0  0  0  0  0  0  0  0  0  0  0  0
  -30.2878  -20.4782   19.9581 N   0  0  0  0  0  0  0  0  0  0  0  0
  -26.1141  -17.9916   20.8901 N   0  0  0  0  0  0  0  0  0  0  0  0
  -22.4928  -26.4331   22.0176 N   0  0  0  0  0  0  0  0  0  0  0  0
  -29.1809  -19.9797   21.9803 N   0  0  0  0  0  0  0  0  0  0  0  0
  -26.0337  -18.7955   18.6634 N   0  0  0  0  0  0  0  0  0  0  0  0
  -23.7182  -14.9235   18.4576 N   0  0  0  0  0  0  0  0  0  0  0  0
  -21.4918  -29.8227   22.5056 N   0  0  0  0  0  0  0  0  0  0  0  0
  -21.5217  -23.2659   22.7137 N   0  0  0  0  0  0  0  0  0  0  0  0
  -22.1649  -20.8289   20.1224 N   0  3  0  0  0  0  0  0  0  0  0  0
  -24.4778  -16.7062   17.2313 O   0  0  0  0  0  0  0  0  0  0  0  0
  -31.6014  -23.5785   19.4439 O   0  0  0  0  0  0  0  0  0  0  0  0
  -23.3545  -28.6256   23.2267 O   0  0  0  0  0  0  0  0  0  0  0  0
  -20.3253  -25.8688   22.6653 O   0  0  0  0  0  0  0  0  0  0  0  0
  -23.5560  -22.4702   21.9355 O   0  0  0  0  0  0  0  0  0  0  0  0
  -30.6114  -21.7863   21.7961 O   0  0  0  0  0  0  0  0  0  0  0  0
  -22.7297  -11.4479   22.6976 O   0  0  0  0  0  0  0  0  0  0  0  0
  -28.3046  -26.9522   19.9893 O   0  0  0  0  0  0  0  0  0  1  0  0
  -23.4092   -6.8985   19.6571 F   0  0  0  0  0  0  0  0  0  0  0  0
  -21.8137  -11.3337   20.0918 F   0  0  0  0  0  0  0  0  0  0  0  0
  1  2  1  0  0  0  0
  1  5  2  0  0  0  0
  2  6  2  0  0  0  0
  3  8  2  0  0  0  0
  3 15  1  0  0  0  0
  4  9  1  0  0  0  0
  4 15  2  0  0  0  0
  5 17  1  0  0  0  0
  6 19  1  0  0  0  0
  7 10  2  0  0  0  0
  7 18  1  0  0  0  0
  8 21  1  0  0  0  0
  9 21  2  0  0  0  0
 10 22  1  0  0  0  0
 11 12  2  0  0  0  0
 11 23  1  0  0  0  0
 12 24  1  0  0  0  0
 13 20  1  0  0  0  0
 13 22  2  0  0  0  0
 14 24  2  0  0  0  0
 14 25  1  0  0  0  0
 15 26  1  0  0  0  0
 16 26  1  0  0  0  0
 16 27  2  0  0  0  0
 16 30  1  0  0  0  0
 17 19  2  0  0  0  0
 17 37  1  0  0  0  0
 18 20  2  0  0  0  0
 18 38  1  0  0  0  0
 19 46  1  0  0  0  0
 20 39  1  0  0  0  0
 21 75  1  0  0  0  0
 22 76  1  0  0  0  0
 23 25  2  0  0  0  0
 23 75  1  0  0  0  0
 24 77  1  0  0  0  0
 25 78  1  0  0  0  0
 26 59  2  0  0  0  0
 27 61  1  0  0  0  0
 27 64  1  0  0  0  0
 28 29  2  0  0  0  0
 28 31  1  0  0  0  0
 29 76  1  0  0  0  0
 30 65  1  0  0  0  0
 30 69  2  0  0  0  0
 31 55  1  0  0  0  0
 31 70  2  0  0  0  0
 32 47  1  0  0  0  0
 32 66  1  0  0  0  0
 32 71  2  0  0  0  0
 33 49  1  0  0  0  0
 33 55  1  0  0  0  0
 33 60  2  0  0  0  0
 34 56  1  0  0  0  0
 34 62  1  0  0  0  0
 34 72  2  0  0  0  0
 35 57  1  0  0  0  0
 35 67  1  0  0  0  0
 35 73  2  0  0  0  0
 36 60  1  0  0  0  0
 36 63  1  0  0  0  0
 36 74  2  0  0  0  0
 37 40  1  0  0  0  0
 38 47  1  0  0  0  0
 39 62  1  0  0  0  0
 40 42  1  0  0  0  0
 41 43  1  0  0  0  0
 41 44  1  0  0  0  0
 42 46  1  0  0  0  0
 43 48  1  0  0  0  0
 44 63  1  0  0  0  0
 45 48  1  0  0  0  0
 45 63  1  0  0  0  0
 46 66  1  0  0  0  0
 47 62  1  0  0  0  0
 48 61  1  0  0  0  0
 50 57  1  0  0  0  0
 51 58  1  0  0  0  0
 52 58  1  0  0  0  0
 53 58  1  0  0  0  0
 54 68  1  0  0  0  0
 56 58  1  0  0  0  0
 56 67  1  0  0  0  0
 57 68  1  0  0  0  0
 59 61  1  0  0  0  0
M  CHG  1  68   1
M  ISO  4  29 101  36 100  60 100  76 101
M  END
> <Batch ID>
0081

> <Smiles>
CNC(C)C(=O)NC(C(=O)N1Cc2cc([101O:1][101CH:1]=CC(=O)C=C(C)[100NH:0][100C:0](=O)N3CCCC(n4nc(-c5ccc(Oc6ccc(F)cc6F)cc5)c(C(N)=O)c4N)C3)ccc2CC1C(=O)NC1CCCc2ccccc21)C(C)(C)C

> <Shape>
0.185

> <Color>
0.091

> <Negative vol penalty>
0.000

$$$$

  -OEChem-04052300043D

 79 87  0     1  0  0  0  0  0999 V2000
  -29.2062  -35.5308   17.6247 C   0  0  0  0  0  0  0  0  0  0  0  0
  -29.3570  -34.2924   18.2404 C   0  0  0  0  0  0  0  0  0  0  0  0
  -31.3665  -25.3357   24.4772 C   0  0  0  0  0  0  0  0  0  0  0  0
  -26.1383  -12.9255   21.1647 C   0  0  0  0  0  0  0  0  0  0  0  0
  -26.2512  -12.9821   18.7520 C   0  0  0  0  0  0  0  0  0  0  0  0
  -31.0285  -23.9892   24.3430 C   0  0  0  0  0  0  0  0  0  0  0  0
  -28.2084  -36.4047   18.0544 C   0  0  0  0  0  0  0  0  0  0  0  0
  -28.5106  -33.9276   19.2868 C   0  0  0  0  0  0  0  0  0  0  0  0
  -26.8123  -29.1772   18.8460 C   0  0  0  0  0  0  0  0  0  0  0  0
  -30.7423  -26.2944   23.6790 C   0  0  0  0  0  0  0  0  0  0  0  0
  -24.9666  -12.1722   21.0922 C   0  0  0  0  0  0  0  0  0  0  0  0
  -25.0795  -12.2287   18.6795 C   0  0  0  0  0  0  0  0  0  0  0  0
  -27.6867  -28.1525   19.2055 C   0  0  0  0  0  0  0  0  0  0  0  0
  -24.1071   -8.9511   20.5279 C   0  0  0  0  0  0  0  0  0  0  0  0
  -23.9947   -7.8446   21.3697 C   0  0  0  0  0  0  0  0  0  0  0  0
  -29.4421  -24.5598   22.6125 C   0  0  0  0  0  0  0  0  0  0  0  0
  -26.5744  -27.9595   21.3374 C   0  0  0  0  0  0  0  0  0  0  0  0
  -22.0312   -8.8179   22.3868 C   0  0  0  0  0  0  0  0  0  0  0  0
  -26.7806  -13.3305   19.9946 C   0  0  0  0  0  0  0  0  0  0  0  0
  -30.0663  -23.6012   23.4106 C   0  0  0  0  0  0  0  0  0  0  0  0
  -29.3115  -13.6247   20.1190 C   0  0  0  0  0  0  0  0  0  0  0  0
  -27.3432  -36.0465   19.1002 C   0  0  0  0  0  0  0  0  0  0  0  0
  -25.8177  -29.6089   19.7352 C   0  0  0  0  0  0  0  0  0  0  0  0
  -27.5012  -34.7981   19.7318 C   0  0  0  0  0  0  0  0  0  0  0  0
  -25.6871  -28.9881   20.9857 C   0  0  0  0  0  0  0  0  0  0  0  0
  -29.7801  -25.9064   22.7467 C   0  0  0  0  0  0  0  0  0  0  0  0
  -24.4372  -11.8238   19.8497 C   0  0  0  0  0  0  0  0  0  0  0  0
  -27.5697  -27.5454   20.4524 C   0  0  0  0  0  0  0  0  0  0  0  0
  -23.1816   -9.9911   20.6156 C   0  0  0  0  0  0  0  0  0  0  0  0
  -22.9568   -7.7780   22.2991 C   0  0  0  0  0  0  0  0  0  0  0  0
  -22.1436   -9.9244   21.5450 C   0  0  0  0  0  0  0  0  0  0  0  0
  -27.9907  -14.1092   20.0688 C   0  0  0  0  0  0  0  0  0  0  0  0
  -30.0896  -14.7549   20.1811 C   0  0  0  0  0  0  0  0  0  0  0  0
  -29.7139  -22.1970   23.2715 C   0  0  0  0  0  0  0  0  0  0  0  0
  -29.1143  -21.6427   22.1963 C   0  0  0  0  0  0  0  0  0  0  0  0
  -29.7922  -12.2740   20.1103 C   0  0  0  0  0  0  0  0  0  0  0  0
  -28.8294  -20.1937   22.2020 C   0  0  0  0  0  0  0  0  0  0  0  0
  -25.1575  -32.3498   21.2034 C   0  0  0  0  0  0  0  0  0  0  0  0
  -22.4996  -30.7507   22.1528 C   0  0  0  0  0  0  0  0  0  0  0  0
  -20.9860  -27.7545   22.7677 C   0  0  0  0  0  0  0  0  0  0  0  0
  -26.3100  -37.0437   19.5614 C   0  0  0  0  0  0  0  0  0  0  0  0
  -24.8654  -30.6973   19.3219 C   0  0  0  0  0  0  0  0  0  0  0  0
  -24.6233  -29.4010   21.9687 C   0  0  0  0  0  0  0  0  0  0  0  0
  -25.2138  -36.4286   20.4277 C   0  0  0  0  0  0  0  0  0  0  0  0
  -30.1506  -19.3467   18.8901 C   0  0  0  0  0  0  0  0  0  0  0  0
  -25.8213  -35.5211   21.4927 C   0  0  0  0  0  0  0  0  0  0  0  0
  -29.8168  -17.8593   18.8124 C   0  0  0  0  0  0  0  0  0  0  0  0
  -29.0915  -20.1307   19.6636 C   0  0  0  0  0  0  0  0  0  0  0  0
  -28.4908  -18.0990   20.9488 C   0  0  0  0  0  0  0  0  0  0  0  0
  -26.5868  -34.3562   20.8537 C   0  0  1  0  0  0  0  0  0  0  0  0
  -24.2177  -31.4065   20.5072 C   0  0  1  0  0  0  0  0  0  0  0  0
  -29.5670  -17.2835   20.2153 C   0  0  1  0  0  0  0  0  0  0  0  0
  -18.8225  -26.7685   23.5707 C   0  0  0  0  0  0  0  0  0  0  0  0
  -23.2253  -31.4998   25.0202 C   0  0  0  0  0  0  0  0  0  0  0  0
  -21.6284  -29.7408   25.8100 C   0  0  0  0  0  0  0  0  0  0  0  0
  -20.7900  -31.6775   24.4801 C   0  0  0  0  0  0  0  0  0  0  0  0
  -20.5505  -26.3321   20.2092 C   0  0  0  0  0  0  0  0  0  0  0  0
  -22.1414  -29.8765   23.3302 C   0  0  1  0  0  0  0  0  0  0  0  0
  -19.6297  -27.2085   22.3592 C   0  0  2  0  0  0  0  0  0  0  0  0
  -21.9676  -30.6919   24.6426 C   0  0  0  0  0  0  0  0  0  0  0  0
  -27.9293  -15.4431   20.0967 N   0  0  0  0  0  0  0  0  0  0  0  0
  -29.2213  -15.8066   20.1652 N   0  0  0  0  0  0  0  0  0  0  0  0
  -28.8280  -19.5266   20.9783 N   0  0  0  0  0  0  0  0  0  0  0  0
  -23.7202  -30.4740   21.5207 N   0  0  0  0  0  0  0  0  0  0  0  0
  -31.4249  -14.9417   20.2472 N   0  0  0  0  0  0  0  0  0  0  0  0
  -28.8568  -11.2324   20.0428 N   0  0  0  0  0  0  0  0  0  0  0  0
  -29.1533  -26.8696   21.9453 N   0  0  0  0  0  0  0  0  0  1  0  0
  -25.6660  -33.3419   20.3870 N   0  0  0  0  0  0  0  0  0  0  0  0
  -20.9567  -29.1230   22.9337 N   0  0  0  0  0  0  0  0  0  0  0  0
  -19.7945  -26.0366   21.4534 N   0  3  0  0  0  0  0  0  0  0  0  0
  -31.0141  -11.9984   20.1773 O   0  0  0  0  0  0  0  0  0  0  0  0
  -28.6050  -19.6626   23.2911 O   0  0  0  0  0  0  0  0  0  0  0  0
  -25.4020  -32.1902   22.3936 O   0  0  0  0  0  0  0  0  0  0  0  0
  -21.7218  -31.6416   21.8021 O   0  0  0  0  0  0  0  0  0  0  0  0
  -21.9718  -27.0381   22.9275 O   0  0  0  0  0  0  0  0  0  0  0  0
  -23.2940  -11.0885   19.7786 O   0  0  0  0  0  0  0  0  0  0  0  0
  -28.4222  -26.5455   20.8061 O   0  0  0  0  0  0  0  0  0  1  0  0
  -22.8481   -6.7147   23.1064 F   0  0  0  0  0  0  0  0  0  0  0  0
  -21.2508  -10.9198   21.6331 F   0  0  0  0  0  0  0  0  0  0  0  0
  1  2  1  0  0  0  0
  1  7  2  0  0  0  0
  2  8  2  0  0  0  0
  3  6  1  0  0  0  0
  3 10  2  0  0  0  0
  4 11  2  0  0  0  0
  4 19  1  0  0  0  0
  5 12  1  0  0  0  0
  5 19  2  0  0  0  0
  6 20  2  0  0  0  0
  7 22  1  0  0  0  0
  8 24  1  0  0  0  0
  9 13  2  0  0  0  0
  9 23  1  0  0  0  0
 10 26  1  0  0  0  0
 11 27  1  0  0  0  0
 12 27  2  0  0  0  0
 13 28  1  0  0  0  0
 14 15  2  0  0  0  0
 14 29  1  0  0  0  0
 15 30  1  0  0  0  0
 16 20  1  0  0  0  0
 16 26  2  0  0  0  0
 17 25  1  0  0  0  0
 17 28  2  0  0  0  0
 18 30  2  0  0  0  0
 18 31  1  0  0  0  0
 19 32  1  0  0  0  0
 20 34  1  0  0  0  0
 21 32  1  0  0  0  0
 21 33  2  0  0  0  0
 21 36  1  0  0  0  0
 22 24  2  0  0  0  0
 22 41  1  0  0  0  0
 23 25  2  0  0  0  0
 23 42  1  0  0  0  0
 24 50  1  0  0  0  0
 25 43  1  0  0  0  0
 26 67  1  0  0  0  0
 27 76  1  0  0  0  0
 28 77  1  0  0  0  0
 29 31  2  0  0  0  0
 29 76  1  0  0  0  0
 30 78  1  0  0  0  0
 31 79  1  0  0  0  0
 32 61  2  0  0  0  0
 33 62  1  0  0  0  0
 33 65  1  0  0  0  0
 34 35  2  0  0  0  0
 35 37  1  0  0  0  0
 36 66  1  0  0  0  0
 36 71  2  0  0  0  0
 37 63  1  0  0  0  0
 37 72  2  0  0  0  0
 38 51  1  0  0  0  0
 38 68  1  0  0  0  0
 38 73  2  0  0  0  0
 39 58  1  0  0  0  0
 39 64  1  0  0  0  0
 39 74  2  0  0  0  0
 40 59  1  0  0  0  0
 40 69  1  0  0  0  0
 40 75  2  0  0  0  0
 41 44  1  0  0  0  0
 42 51  1  0  0  0  0
 43 64  1  0  0  0  0
 44 46  1  0  0  0  0
 45 47  1  0  0  0  0
 45 48  1  0  0  0  0
 46 50  1  0  0  0  0
 47 52  1  0  0  0  0
 48 63  1  0  0  0  0
 49 52  1  0  0  0  0
 49 63  1  0  0  0  0
 50 68  1  0  0  0  0
 51 64  1  0  0  0  0
 52 62  1  0  0  0  0
 53 59  1  0  0  0  0
 54 60  1  0  0  0  0
 55 60  1  0  0  0  0
 56 60  1  0  0  0  0
 57 70  1  0  0  0  0
 58 60  1  0  0  0  0
 58 69  1  0  0  0  0
 59 70  1  0  0  0  0
 61 62  1  0  0  0  0
 67 77  1  0  0  0  0
M  CHG  1  70   1
M  ISO  4  35 100  37 100  67 101  77 101
M  END
> <Batch ID>
0081

> <Smiles>
CNC(C)C(=O)NC(C(=O)N1Cc2cc([101O:1][101NH:1]c3cccc(C=[100CH:0][100C:0](=O)N4CCCC(n5nc(-c6ccc(Oc7ccc(F)cc7F)cc6)c(C(N)=O)c5N)C4)c3)ccc2CC1C(=O)NC1CCCc2ccccc21)C(C)(C)C

> <Shape>
0.278

> <Color>
0.086

> <Negative vol penalty>
0.000

$$$$

  -OEChem-04052300043D

 86 94  0     1  0  0  0  0  0999 V2000
  -31.7820  -25.9439   17.7491 C   0  0  0  0  0  0  0  0  0  0  0  0
  -30.4154  -25.6915   17.8126 C   0  0  0  0  0  0  0  0  0  0  0  0
  -28.2050  -15.7915   22.5714 C   0  0  0  0  0  0  0  0  0  0  0  0
  -26.1429  -16.1964   21.3793 C   0  0  0  0  0  0  0  0  0  0  0  0
  -32.4180  -26.6013   18.8014 C   0  0  0  0  0  0  0  0  0  0  0  0
  -29.6841  -26.0954   18.9291 C   0  0  0  0  0  0  0  0  0  0  0  0
  -23.8924  -28.0840   19.0142 C   0  0  0  0  0  0  0  0  0  0  0  0
  -21.2934  -25.0351   23.7851 C   0  0  0  0  0  0  0  0  0  0  0  0
  -20.9685  -23.7379   21.7729 C   0  0  0  0  0  0  0  0  0  0  0  0
  -22.6353  -24.6556   23.8131 C   0  0  0  0  0  0  0  0  0  0  0  0
  -22.3105  -23.3584   21.8010 C   0  0  0  0  0  0  0  0  0  0  0  0
  -27.7996  -14.4817   22.8279 C   0  0  0  0  0  0  0  0  0  0  0  0
  -25.7375  -14.8866   21.6358 C   0  0  0  0  0  0  0  0  0  0  0  0
  -22.6871  -27.4498   19.3123 C   0  0  0  0  0  0  0  0  0  0  0  0
  -24.3168  -11.5401   21.6667 C   0  0  0  0  0  0  0  0  0  0  0  0
  -23.7595  -10.8150   20.6135 C   0  0  0  0  0  0  0  0  0  0  0  0
  -22.8148  -28.2827   21.5726 C   0  0  0  0  0  0  0  0  0  0  0  0
  -25.8045  -11.0736   19.3533 C   0  0  0  0  0  0  0  0  0  0  0  0
  -27.3766  -16.6488   21.8472 C   0  0  0  0  0  0  0  0  0  0  0  0
  -28.5268  -18.4639   20.4723 C   0  0  0  0  0  0  0  0  0  0  0  0
  -31.6923  -27.0220   19.9270 C   0  0  0  0  0  0  0  0  0  0  0  0
  -24.5745  -28.8146   19.9978 C   0  0  0  0  0  0  0  0  0  0  0  0
  -30.3112  -26.7578   19.9980 C   0  0  0  0  0  0  0  0  0  0  0  0
  -24.0272  -28.9274   21.2838 C   0  0  0  0  0  0  0  0  0  0  0  0
  -20.4599  -24.5762   22.7650 C   0  0  0  0  0  0  0  0  0  0  0  0
  -23.1439  -23.8173   22.8211 C   0  0  0  0  0  0  0  0  0  0  0  0
  -26.5659  -14.0293   22.3601 C   0  0  0  0  0  0  0  0  0  0  0  0
  -22.1496  -27.5466   20.5924 C   0  0  0  0  0  0  0  0  0  0  0  0
  -25.6179  -12.0321   21.5631 C   0  0  0  0  0  0  0  0  0  0  0  0
  -24.5034  -10.5817   19.4568 C   0  0  0  0  0  0  0  0  0  0  0  0
  -26.3618  -11.7988   20.4065 C   0  0  0  0  0  0  0  0  0  0  0  0
  -27.7946  -18.0021   21.5824 C   0  0  0  0  0  0  0  0  0  0  0  0
  -28.6652  -19.8130   20.6894 C   0  0  0  0  0  0  0  0  0  0  0  0
  -29.0362  -17.7382   19.3455 C   0  0  0  0  0  0  0  0  0  0  0  0
  -18.8766  -27.2826   21.5848 C   0  0  0  0  0  0  0  0  0  0  0  0
  -17.7653  -28.1901   22.0260 C   0  0  0  0  0  0  0  0  0  0  0  0
  -18.6860  -25.7926   21.4850 C   0  0  0  0  0  0  0  0  0  0  0  0
  -27.4173  -28.5778   21.4001 C   0  0  0  0  0  0  0  0  0  0  0  0
  -26.5523  -31.3980   22.7495 C   0  0  0  0  0  0  0  0  0  0  0  0
  -24.0425  -33.5087   23.6941 C   0  0  0  0  0  0  0  0  0  0  0  0
  -25.4693  -23.7978   23.7898 C   0  0  0  0  0  0  0  0  0  0  0  0
  -32.4321  -27.6870   21.0606 C   0  0  0  0  0  0  0  0  0  0  0  0
  -25.8601  -29.5151   19.6529 C   0  0  0  0  0  0  0  0  0  0  0  0
  -24.7100  -29.7166   22.3698 C   0  0  0  0  0  0  0  0  0  0  0  0
  -31.5166  -28.4152   22.0413 C   0  0  0  0  0  0  0  0  0  0  0  0
  -28.9183  -23.0300   24.2279 C   0  0  0  0  0  0  0  0  0  0  0  0
  -30.3272  -27.5361   22.4146 C   0  0  0  0  0  0  0  0  0  0  0  0
  -29.0895  -21.6986   23.4930 C   0  0  0  0  0  0  0  0  0  0  0  0
  -27.5671  -23.1178   24.9352 C   0  0  0  0  0  0  0  0  0  0  0  0
  -26.5729  -21.5169   23.3483 C   0  0  0  0  0  0  0  0  0  0  0  0
  -29.4792  -27.2025   21.1813 C   0  0  1  0  0  0  0  0  0  0  0  0
  -26.7286  -29.8049   20.8732 C   0  0  1  0  0  0  0  0  0  0  0  0
  -27.8924  -21.4082   22.5667 C   0  0  2  0  0  0  0  0  0  0  0  0
  -18.0072  -29.0106   23.2558 C   0  0  0  0  0  0  0  0  0  0  0  0
  -18.0543  -23.7943   22.8716 C   0  0  0  0  0  0  0  0  0  0  0  0
  -23.6444  -35.7224   24.8069 C   0  0  0  0  0  0  0  0  0  0  0  0
  -27.1427  -30.1366   25.4643 C   0  0  0  0  0  0  0  0  0  0  0  0
  -25.8540  -31.9989   26.5318 C   0  0  0  0  0  0  0  0  0  0  0  0
  -27.9169  -32.5023   25.2227 C   0  0  0  0  0  0  0  0  0  0  0  0
  -22.7327  -34.6165   21.2824 C   0  0  0  0  0  0  0  0  0  0  0  0
  -19.0019  -24.9885   22.7347 C   0  0  1  0  0  0  0  0  0  0  0  0
  -25.8156  -31.8015   24.0038 C   0  0  1  0  0  0  0  0  0  0  0  0
  -23.8476  -34.9995   23.4845 C   0  0  2  0  0  0  0  0  0  0  0  0
  -26.6702  -31.5933   25.2860 C   0  0  0  0  0  0  0  0  0  0  0  0
  -27.4893  -18.9786   22.4411 N   0  0  0  0  0  0  0  0  0  0  0  0
  -20.0039  -27.8562   21.3008 N   0  0  0  0  0  0  0  0  0  1  0  0
  -28.0324  -20.0674   21.8705 N   0  0  0  0  0  0  0  0  0  0  0  0
  -25.9677  -30.3782   21.9852 N   0  0  0  0  0  0  0  0  0  0  0  0
  -26.4803  -22.8353   23.9949 N   0  0  0  0  0  0  0  0  0  0  0  0
  -29.2653  -20.7947   19.9833 N   0  0  0  0  0  0  0  0  0  0  0  0
  -28.8041  -16.3576   19.2796 N   0  0  0  0  0  0  0  0  0  0  0  0
  -24.5071  -23.4319   22.8491 N   0  0  0  0  0  0  0  0  0  0  0  0
  -28.6468  -28.3300   20.8202 N   0  0  0  0  0  0  0  0  0  0  0  0
  -25.3771  -33.1772   23.7949 N   0  0  0  0  0  0  0  0  0  0  0  0
  -22.6571  -35.2504   22.6239 N   0  3  0  0  0  0  0  0  0  0  0  0
  -29.6923  -18.2947   18.4327 O   0  0  0  0  0  0  0  0  0  0  0  0
  -16.7405  -28.2027   21.3617 O   0  0  0  0  0  0  0  0  0  0  0  0
  -18.2784  -25.3470   20.4230 O   0  0  0  0  0  0  0  0  0  0  0  0
  -26.8740  -27.9065   22.2694 O   0  0  0  0  0  0  0  0  0  0  0  0
  -27.6040  -31.9715   22.4548 O   0  0  0  0  0  0  0  0  0  0  0  0
  -23.1044  -32.7178   23.7652 O   0  0  0  0  0  0  0  0  0  0  0  0
  -25.4728  -24.8793   24.3834 O   0  0  0  0  0  0  0  0  0  0  0  0
  -26.1701  -12.7512   22.6099 O   0  0  0  0  0  0  0  0  0  0  0  0
  -20.9737  -26.9279   20.8862 O   0  0  0  0  0  0  0  0  0  1  0  0
  -23.9686   -9.8840   18.4462 F   0  0  0  0  0  0  0  0  0  0  0  0
  -27.6127  -12.2679   20.3017 F   0  0  0  0  0  0  0  0  0  0  0  0
  1  2  1  0  0  0  0
  1  5  2  0  0  0  0
  2  6  2  0  0  0  0
  3 12  2  0  0  0  0
  3 19  1  0  0  0  0
  4 13  1  0  0  0  0
  4 19  2  0  0  0  0
  5 21  1  0  0  0  0
  6 23  1  0  0  0  0
  7 14  2  0  0  0  0
  7 22  1  0  0  0  0
  8 10  2  0  0  0  0
  8 25  1  0  0  0  0
  9 11  1  0  0  0  0
  9 25  2  0  0  0  0
 10 26  1  0  0  0  0
 11 26  2  0  0  0  0
 12 27  1  0  0  0  0
 13 27  2  0  0  0  0
 14 28  1  0  0  0  0
 15 16  2  0  0  0  0
 15 29  1  0  0  0  0
 16 30  1  0  0  0  0
 17 24  1  0  0  0  0
 17 28  2  0  0  0  0
 18 30  2  0  0  0  0
 18 31  1  0  0  0  0
 19 32  1  0  0  0  0
 20 32  1  0  0  0  0
 20 33  2  0  0  0  0
 20 34  1  0  0  0  0
 21 23  2  0  0  0  0
 21 42  1  0  0  0  0
 22 24  2  0  0  0  0
 22 43  1  0  0  0  0
 23 51  1  0  0  0  0
 24 44  1  0  0  0  0
 25 61  1  0  0  0  0
 26 72  1  0  0  0  0
 27 83  1  0  0  0  0
 28 84  1  0  0  0  0
 29 31  2  0  0  0  0
 29 83  1  0  0  0  0
 30 85  1  0  0  0  0
 31 86  1  0  0  0  0
 32 65  2  0  0  0  0
 33 67  1  0  0  0  0
 33 70  1  0  0  0  0
 34 71  1  0  0  0  0
 34 76  2  0  0  0  0
 35 36  1  0  0  0  0
 35 37  1  0  0  0  0
 35 66  2  0  0  0  0
 36 54  1  0  0  0  0
 36 77  2  0  0  0  0
 37 61  1  0  0  0  0
 37 78  2  0  0  0  0
 38 52  1  0  0  0  0
 38 73  1  0  0  0  0
 38 79  2  0  0  0  0
 39 62  1  0  0  0  0
 39 68  1  0  0  0  0
 39 80  2  0  0  0  0
 40 63  1  0  0  0  0
 40 74  1  0  0  0  0
 40 81  2  0  0  0  0
 41 69  1  0  0  0  0
 41 72  1  0  0  0  0
 41 82  2  0  0  0  0
 42 45  1  0  0  0  0
 43 52  1  0  0  0  0
 44 68  1  0  0  0  0
 45 47  1  0  0  0  0
 46 48  1  0  0  0  0
 46 49  1  0  0  0  0
 47 51  1  0  0  0  0
 48 53  1  0  0  0  0
 49 69  1  0  0  0  0
 50 53  1  0  0  0  0
 50 69  1  0  0  0  0
 51 73  1  0  0  0  0
 52 68  1  0  0  0  0
 53 67  1  0  0  0  0
 55 61  1  0  0  0  0
 56 63  1  0  0  0  0
 57 64  1  0  0  0  0
 58 64  1  0  0  0  0
 59 64  1  0  0  0  0
 60 75  1  0  0  0  0
 62 64  1  0  0  0  0
 62 74  1  0  0  0  0
 63 75  1  0  0  0  0
 65 67  1  0  0  0  0
 66 84  1  0  0  0  0
M  CHG  1  75   1
M  ISO  4  41 100  66 101  72 100  84 101
M  END
> <Batch ID>
0081

> <Smiles>
C=C(C(=O)C(C(C)=O)[101NH:1][101O:1]c1ccc2c(c1)CN(C(=O)C(NC(=O)C(C)NC)C(C)(C)C)C(C(=O)NC1CCCc3ccccc31)C2)c1ccc([100NH:0][100C:0](=O)N2CCCC(n3nc(-c4ccc(Oc5ccc(F)cc5F)cc4)c(C(N)=O)c3N)C2)cc1

> <Shape>
0.292

> <Color>
0.067

> <Negative vol penalty>
0.000

$$$$

  -OEChem-04052300043D

 87 96  0     1  0  0  0  0  0999 V2000
  -27.2086  -32.2039   25.0625 C   0  0  0  0  0  0  0  0  0  0  0  0
  -27.5546  -31.0532   24.3614 C   0  0  0  0  0  0  0  0  0  0  0  0
  -23.1000   -9.7336   20.0383 C   0  0  0  0  0  0  0  0  0  0  0  0
  -23.7808   -9.9380   22.3474 C   0  0  0  0  0  0  0  0  0  0  0  0
  -26.8060  -33.3456   24.3709 C   0  0  0  0  0  0  0  0  0  0  0  0
  -27.4971  -31.0432   22.9682 C   0  0  0  0  0  0  0  0  0  0  0  0
  -31.5741  -28.8928   20.8709 C   0  0  0  0  0  0  0  0  0  0  0  0
  -31.0490  -19.2175   20.2349 C   0  0  0  0  0  0  0  0  0  0  0  0
  -30.9085  -17.8341   20.3452 C   0  0  0  0  0  0  0  0  0  0  0  0
  -22.3841   -8.5783   20.3517 C   0  0  0  0  0  0  0  0  0  0  0  0
  -23.0648   -8.7827   22.6608 C   0  0  0  0  0  0  0  0  0  0  0  0
  -31.6305  -27.4998   20.8713 C   0  0  0  0  0  0  0  0  0  0  0  0
  -23.4770   -5.4398   22.3673 C   0  0  0  0  0  0  0  0  0  0  0  0
  -24.0991   -4.4924   23.1803 C   0  0  0  0  0  0  0  0  0  0  0  0
  -29.3566  -19.5248   21.9314 C   0  0  0  0  0  0  0  0  0  0  0  0
  -30.8936  -27.4752   18.5744 C   0  0  0  0  0  0  0  0  0  0  0  0
  -22.3360   -4.7367   24.8140 C   0  0  0  0  0  0  0  0  0  0  0  0
  -23.7985  -10.4135   21.0362 C   0  0  0  0  0  0  0  0  0  0  0  0
  -29.2160  -18.1415   22.0418 C   0  0  0  0  0  0  0  0  0  0  0  0
  -24.0660  -12.9325   20.7352 C   0  0  0  0  0  0  0  0  0  0  0  0
  -26.7528  -33.3526   22.9681 C   0  0  0  0  0  0  0  0  0  0  0  0
  -31.1659  -29.5883   19.7236 C   0  0  0  0  0  0  0  0  0  0  0  0
  -27.0921  -32.1856   22.2572 C   0  0  0  0  0  0  0  0  0  0  0  0
  -30.8354  -28.8772   18.5612 C   0  0  0  0  0  0  0  0  0  0  0  0
  -30.2731  -20.0628   21.0280 C   0  0  0  0  0  0  0  0  0  0  0  0
  -29.9920  -17.2961   21.2486 C   0  0  0  0  0  0  0  0  0  0  0  0
  -22.3664   -8.1029   21.6629 C   0  0  0  0  0  0  0  0  0  0  0  0
  -31.2874  -26.7906   19.7239 C   0  0  0  0  0  0  0  0  0  0  0  0
  -22.2844   -6.0358   22.7777 C   0  0  0  0  0  0  0  0  0  0  0  0
  -23.5286   -4.1408   24.4037 C   0  0  0  0  0  0  0  0  0  0  0  0
  -21.7139   -5.6842   24.0010 C   0  0  0  0  0  0  0  0  0  0  0  0
  -24.5387  -11.6067   20.7130 C   0  0  0  0  0  0  0  0  0  0  0  0
  -25.1462  -13.6886   20.3506 C   0  0  0  0  0  0  0  0  0  0  0  0
  -30.5308  -23.4126   20.7031 C   0  0  0  0  0  0  0  0  0  0  0  0
  -29.8041  -22.4634   21.5472 C   0  0  0  0  0  0  0  0  0  0  0  0
  -25.8744  -17.5052   23.6650 C   0  0  0  0  0  0  0  0  0  0  0  0
  -30.5588  -24.7548   20.6157 C   0  0  0  0  0  0  0  0  0  1  0  0
  -26.8040  -17.9796   22.8299 C   0  0  0  0  0  0  0  0  0  0  0  0
  -28.2475  -17.6112   22.9934 C   0  0  0  0  0  0  0  0  0  0  0  0
  -22.7667  -13.4356   21.0733 C   0  0  0  0  0  0  0  0  0  0  0  0
  -28.7588  -31.5423   19.0229 C   0  0  0  0  0  0  0  0  0  0  0  0
  -30.3425  -31.8525   16.2089 C   0  0  0  0  0  0  0  0  0  0  0  0
  -32.5431  -30.5282   13.9616 C   0  0  0  0  0  0  0  0  0  0  0  0
  -30.5684  -14.9262   20.6180 C   0  0  0  0  0  0  0  0  0  0  0  0
  -26.2660  -34.5957   22.2664 C   0  0  0  0  0  0  0  0  0  0  0  0
  -31.1361  -31.0921   19.7310 C   0  0  0  0  0  0  0  0  0  0  0  0
  -30.4103  -29.5773   17.2972 C   0  0  0  0  0  0  0  0  0  0  0  0
  -31.1969  -22.2454   20.0112 C   0  0  0  0  0  0  0  0  0  0  0  0
  -26.5916  -34.6204   20.7752 C   0  0  0  0  0  0  0  0  0  0  0  0
  -29.6104  -12.3056   18.4062 C   0  0  0  0  0  0  0  0  0  0  0  0
  -26.2434  -33.2824   20.1306 C   0  0  0  0  0  0  0  0  0  0  0  0
  -28.1666  -11.9992   18.8110 C   0  0  0  0  0  0  0  0  0  0  0  0
  -30.4765  -12.6544   19.6153 C   0  0  0  0  0  0  0  0  0  0  0  0
  -28.5022  -13.4164   20.8764 C   0  0  0  0  0  0  0  0  0  0  0  0
  -27.0663  -32.1434   20.7447 C   0  0  1  0  0  0  0  0  0  0  0  0
  -30.2124  -31.6767   18.6669 C   0  0  1  0  0  0  0  0  0  0  0  0
  -27.5759  -13.1229   19.6851 C   0  0  2  0  0  0  0  0  0  0  0  0
  -33.6095  -30.9960   11.7388 C   0  0  0  0  0  0  0  0  0  0  0  0
  -27.7394  -31.1022   14.8049 C   0  0  0  0  0  0  0  0  0  0  0  0
  -29.0678  -30.6599   12.7293 C   0  0  0  0  0  0  0  0  0  0  0  0
  -29.0186  -32.9523   13.7117 C   0  0  0  0  0  0  0  0  0  0  0  0
  -35.2604  -30.5257   15.1343 C   0  0  0  0  0  0  0  0  0  0  0  0
  -30.3199  -31.1291   14.8841 C   0  0  1  0  0  0  0  0  0  0  0  0
  -33.7394  -31.1314   13.2479 C   0  0  2  0  0  0  0  0  0  0  0  0
  -29.0426  -31.4473   14.0568 C   0  0  0  0  0  0  0  0  0  0  0  0
  -25.8195  -11.5220   20.3434 N   0  0  0  0  0  0  0  0  0  0  0  0
  -26.1607  -12.8042   20.1297 N   0  0  0  0  0  0  0  0  0  0  0  0
  -30.4118  -21.4270   20.9182 N   0  0  0  0  0  0  0  0  0  0  0  0
  -30.3909  -31.0482   17.3564 N   0  0  0  0  0  0  0  0  0  0  0  0
  -29.8564  -13.7289   20.3936 N   0  0  0  0  0  0  0  0  0  0  0  0
  -25.3178  -15.0171   20.1832 N   0  0  0  0  0  0  0  0  0  0  0  0
  -21.7725  -12.5210   21.4466 N   0  0  0  0  0  0  0  0  0  0  0  0
  -29.8653  -15.8880   21.3427 N   0  0  0  0  0  0  0  0  0  0  0  0
  -28.4129  -32.1501   20.2147 N   0  0  0  0  0  0  0  0  0  0  0  0
  -31.5683  -31.4710   14.2111 N   0  0  0  0  0  0  0  0  0  0  0  0
  -34.9945  -30.4506   13.6746 N   0  3  0  0  0  0  0  0  0  0  0  0
  -28.9836  -22.5565   22.4362 O   0  0  0  0  0  0  0  0  0  0  0  0
  -28.6044  -16.8507   23.9039 O   0  0  0  0  0  0  0  0  0  0  0  0
  -22.4907  -14.6585   21.0293 O   0  0  0  0  0  0  0  0  0  0  0  0
  -28.0064  -30.9337   18.2711 O   0  0  0  0  0  0  0  0  0  0  0  0
  -30.3252  -33.0858   16.2249 O   0  0  0  0  0  0  0  0  0  0  0  0
  -32.4781  -29.3387   14.2641 O   0  0  0  0  0  0  0  0  0  0  0  0
  -31.7070  -15.0970   20.1748 O   0  0  0  0  0  0  0  0  0  0  0  0
  -21.6677   -6.9757   21.9690 O   0  0  0  0  0  0  0  0  0  0  0  0
  -31.3409  -25.4308   19.7218 O   0  0  0  0  0  0  0  0  0  1  0  0
  -24.1252   -3.2299   25.1836 F   0  0  0  0  0  0  0  0  0  0  0  0
  -20.5678   -6.2524   24.4001 F   0  0  0  0  0  0  0  0  0  0  0  0
  1  2  1  0  0  0  0
  1  5  2  0  0  0  0
  2  6  2  0  0  0  0
  3 10  2  0  0  0  0
  3 18  1  0  0  0  0
  4 11  1  0  0  0  0
  4 18  2  0  0  0  0
  5 21  1  0  0  0  0
  6 23  1  0  0  0  0
  7 12  2  0  0  0  0
  7 22  1  0  0  0  0
  8  9  2  0  0  0  0
  8 25  1  0  0  0  0
  9 26  1  0  0  0  0
 10 27  1  0  0  0  0
 11 27  2  0  0  0  0
 12 28  1  0  0  0  0
 13 14  2  0  0  0  0
 13 29  1  0  0  0  0
 14 30  1  0  0  0  0
 15 19  1  0  0  0  0
 15 25  2  0  0  0  0
 16 24  1  0  0  0  0
 16 28  2  0  0  0  0
 17 30  2  0  0  0  0
 17 31  1  0  0  0  0
 18 32  1  0  0  0  0
 19 26  2  0  0  0  0
 19 39  1  0  0  0  0
 20 32  1  0  0  0  0
 20 33  2  0  0  0  0
 20 40  1  0  0  0  0
 21 23  2  0  0  0  0
 21 45  1  0  0  0  0
 22 24  2  0  0  0  0
 22 46  1  0  0  0  0
 23 55  1  0  0  0  0
 24 47  1  0  0  0  0
 25 68  1  0  0  0  0
 26 73  1  0  0  0  0
 27 84  1  0  0  0  0
 28 85  1  0  0  0  0
 29 31  2  0  0  0  0
 29 84  1  0  0  0  0
 30 86  1  0  0  0  0
 31 87  1  0  0  0  0
 32 66  2  0  0  0  0
 33 67  1  0  0  0  0
 33 71  1  0  0  0  0
 34 35  1  0  0  0  0
 34 37  2  0  0  0  0
 34 48  1  0  0  0  0
 35 68  1  0  0  0  0
 35 77  2  0  0  0  0
 36 38  2  0  0  0  0
 37 85  1  0  0  0  0
 38 39  1  0  0  0  0
 39 78  2  0  0  0  0
 40 72  1  0  0  0  0
 40 79  2  0  0  0  0
 41 56  1  0  0  0  0
 41 74  1  0  0  0  0
 41 80  2  0  0  0  0
 42 63  1  0  0  0  0
 42 69  1  0  0  0  0
 42 81  2  0  0  0  0
 43 64  1  0  0  0  0
 43 75  1  0  0  0  0
 43 82  2  0  0  0  0
 44 70  1  0  0  0  0
 44 73  1  0  0  0  0
 44 83  2  0  0  0  0
 45 49  1  0  0  0  0
 46 56  1  0  0  0  0
 47 69  1  0  0  0  0
 48 68  1  0  0  0  0
 49 51  1  0  0  0  0
 50 52  1  0  0  0  0
 50 53  1  0  0  0  0
 51 55  1  0  0  0  0
 52 57  1  0  0  0  0
 53 70  1  0  0  0  0
 54 57  1  0  0  0  0
 54 70  1  0  0  0  0
 55 74  1  0  0  0  0
 56 69  1  0  0  0  0
 57 67  1  0  0  0  0
 58 64  1  0  0  0  0
 59 65  1  0  0  0  0
 60 65  1  0  0  0  0
 61 65  1  0  0  0  0
 62 76  1  0  0  0  0
 63 65  1  0  0  0  0
 63 75  1  0  0  0  0
 64 76  1  0  0  0  0
 66 67  1  0  0  0  0
M  CHG  1  76   1
M  ISO  4  37 101  44 100  73 100  85 101
M  END
> <Batch ID>
0081

> <Smiles>
C=CC(=O)c1cc(N2CC(=[101CH:1][101O:1]c3ccc4c(c3)CN(C(=O)C(NC(=O)C(C)NC)C(C)(C)C)C(C(=O)NC3CCCc5ccccc53)C4)C2=O)ccc1[100NH:0][100C:0](=O)N1CCCC(n2nc(-c3ccc(Oc4ccc(F)cc4F)cc3)c(C(N)=O)c2N)C1

> <Shape>
0.272

> <Color>
0.197

> <Negative vol penalty>
0.000

$$$$

  -OEChem-04052300043D

 84 93  0     1  0  0  0  0  0999 V2000
  -21.8265  -12.2527   19.1721 C   0  0  0  0  0  0  0  0  0  0  0  0
  -21.6896  -13.5350   19.6939 C   0  0  0  0  0  0  0  0  0  0  0  0
  -18.3626  -27.9742   23.5937 C   0  0  0  0  0  0  0  0  0  0  0  0
  -30.4298  -29.6273   22.0483 C   0  0  0  0  0  0  0  0  0  0  0  0
  -29.3251  -27.6981   22.9943 C   0  0  0  0  0  0  0  0  0  0  0  0
  -23.0372  -11.5738   19.3028 C   0  0  0  0  0  0  0  0  0  0  0  0
  -22.7631  -14.1387   20.3478 C   0  0  0  0  0  0  0  0  0  0  0  0
  -23.4316  -18.9581   18.9435 C   0  0  0  0  0  0  0  0  0  0  0  0
  -18.3942  -26.6258   23.2383 C   0  0  0  0  0  0  0  0  0  0  0  0
  -19.3882  -28.8272   23.1859 C   0  0  0  0  0  0  0  0  0  0  0  0
  -31.5661  -29.3492   22.8080 C   0  0  0  0  0  0  0  0  0  0  0  0
  -30.4614  -27.4200   23.7540 C   0  0  0  0  0  0  0  0  0  0  0  0
  -22.5716  -19.9070   19.4946 C   0  0  0  0  0  0  0  0  0  0  0  0
  -33.2011  -25.9947   25.6725 C   0  0  0  0  0  0  0  0  0  0  0  0
  -33.6417  -24.6722   25.7214 C   0  0  0  0  0  0  0  0  0  0  0  0
  -24.2781  -20.5209   21.0853 C   0  0  0  0  0  0  0  0  0  0  0  0
  -20.4772  -26.9832   22.0676 C   0  0  0  0  0  0  0  0  0  0  0  0
  -33.9350  -24.6811   23.3233 C   0  0  0  0  0  0  0  0  0  0  0  0
  -29.3093  -28.8018   22.1415 C   0  0  0  0  0  0  0  0  0  0  0  0
  -27.8423  -28.6211   20.0623 C   0  0  0  0  0  0  0  0  0  0  0  0
  -24.1291  -12.1732   19.9501 C   0  0  0  0  0  0  0  0  0  0  0  0
  -24.7196  -18.7756   19.4671 C   0  0  0  0  0  0  0  0  0  0  0  0
  -23.9891  -13.4667   20.4885 C   0  0  0  0  0  0  0  0  0  0  0  0
  -25.1534  -19.5708   20.5374 C   0  0  0  0  0  0  0  0  0  0  0  0
  -19.4515  -26.1302   22.4753 C   0  0  0  0  0  0  0  0  0  0  0  0
  -20.4455  -28.3316   22.4229 C   0  0  0  0  0  0  0  0  0  0  0  0
  -31.5819  -28.2455   23.6608 C   0  0  0  0  0  0  0  0  0  0  0  0
  -22.9937  -20.6866   20.5675 C   0  0  0  0  0  0  0  0  0  0  0  0
  -33.1274  -26.6605   24.4489 C   0  0  0  0  0  0  0  0  0  0  0  0
  -34.0087  -24.0154   24.5469 C   0  0  0  0  0  0  0  0  0  0  0  0
  -33.4944  -26.0037   23.2744 C   0  0  0  0  0  0  0  0  0  0  0  0
  -28.1350  -29.0889   21.3574 C   0  0  0  0  0  0  0  0  0  0  0  0
  -26.6206  -29.1741   19.7654 C   0  0  0  0  0  0  0  0  0  0  0  0
  -18.9173  -22.5535   21.9047 C   0  0  0  0  0  0  0  0  0  0  0  0
  -20.0680  -22.7549   21.2589 C   0  0  0  0  0  0  0  0  0  0  0  0
  -18.5045  -23.8499   22.4783 C   0  0  0  0  0  0  0  0  0  0  0  0
  -28.6064  -27.7634   19.2043 C   0  0  0  0  0  0  0  0  0  0  0  0
  -26.2598  -16.3599   20.8440 C   0  0  0  0  0  0  0  0  0  0  0  0
  -28.7873  -18.3860   20.6752 C   0  0  0  0  0  0  0  0  0  0  0  0
  -29.9151  -21.6006   20.4708 C   0  0  0  0  0  0  0  0  0  0  0  0
  -21.6074  -30.5620   22.2758 C   0  0  0  0  0  0  0  0  0  0  0  0
  -25.4031  -11.3817   20.1085 C   0  0  0  0  0  0  0  0  0  0  0  0
  -25.6447  -17.7663   18.8442 C   0  0  0  0  0  0  0  0  0  0  0  0
  -26.5336  -19.4280   21.1230 C   0  0  0  0  0  0  0  0  0  0  0  0
  -20.5293  -24.1696   21.3339 C   0  0  0  0  0  0  0  0  0  0  0  0
  -26.6092  -12.2378   20.4863 C   0  0  0  0  0  0  0  0  0  0  0  0
  -24.0372  -33.0358   21.4673 C   0  0  0  0  0  0  0  0  0  0  0  0
  -26.2490  -13.1994   21.6143 C   0  0  0  0  0  0  0  0  0  0  0  0
  -25.3138  -32.2260   21.2295 C   0  0  0  0  0  0  0  0  0  0  0  0
  -23.1943  -32.4471   22.5972 C   0  0  0  0  0  0  0  0  0  0  0  0
  -24.1547  -30.2101   22.2193 C   0  0  0  0  0  0  0  0  0  0  0  0
  -25.1384  -14.1647   21.1827 C   0  0  1  0  0  0  0  0  0  0  0  0
  -26.7523  -17.3085   19.7880 C   0  0  1  0  0  0  0  0  0  0  0  0
  -25.0046  -30.7271   21.0471 C   0  0  2  0  0  0  0  0  0  0  0  0
  -32.0333  -22.9435   20.3885 C   0  0  0  0  0  0  0  0  0  0  0  0
  -29.1785  -17.9479   23.6694 C   0  0  0  0  0  0  0  0  0  0  0  0
  -30.6409  -19.9797   23.7049 C   0  0  0  0  0  0  0  0  0  0  0  0
  -31.2945  -17.9986   22.3373 C   0  0  0  0  0  0  0  0  0  0  0  0
  -29.2472  -22.7069   17.8083 C   0  0  0  0  0  0  0  0  0  0  0  0
  -20.8587  -21.7334   20.5258 C   0  0  0  0  0  0  0  0  0  1  0  0
  -29.3679  -19.4485   21.5770 C   0  0  1  0  0  0  0  0  0  0  0  0
  -30.9540  -22.2484   19.5733 C   0  0  2  0  0  0  0  0  0  0  0  0
  -30.0937  -18.8453   22.8126 C   0  0  0  0  0  0  0  0  0  0  0  0
  -27.1765  -29.8783   21.8494 N   0  0  0  0  0  0  0  0  0  0  0  0
  -26.2696  -29.9110   20.8581 N   0  0  0  0  0  0  0  0  0  0  0  0
  -19.4821  -24.7869   22.1213 N   0  0  0  0  0  0  0  0  0  0  0  0
  -27.3989  -18.4232   20.4834 N   0  0  0  0  0  0  0  0  0  0  0  0
  -22.9376  -31.0258   22.3543 N   0  0  0  0  0  0  0  0  0  0  0  0
  -25.8231  -29.0971   18.6789 N   0  0  0  0  0  0  0  0  0  0  0  0
  -29.8401  -27.2841   19.6656 N   0  0  0  0  0  0  0  0  0  0  0  0
  -21.4870  -29.1986   22.0089 N   0  0  0  0  0  0  0  0  0  0  0  0
  -25.6775  -15.2118   20.3417 N   0  0  0  0  0  0  0  0  0  0  0  0
  -30.2176  -20.2810   20.7324 N   0  0  0  0  0  0  0  0  0  0  0  0
  -30.3131  -23.2581   18.6841 N   0  3  0  0  0  0  0  0  0  0  0  0
  -17.4876  -24.0108   23.1335 O   0  0  0  0  0  0  0  0  0  0  0  0
  -28.2147  -27.4451   18.0560 O   0  0  0  0  0  0  0  0  0  0  0  0
  -26.3990  -16.6475   22.0271 O   0  0  0  0  0  0  0  0  0  0  0  0
  -29.5389  -17.5581   20.1544 O   0  0  0  0  0  0  0  0  0  0  0  0
  -28.9352  -22.2057   20.9001 O   0  0  0  0  0  0  0  0  0  0  0  0
  -20.6458  -31.3237   22.4066 O   0  0  0  0  0  0  0  0  0  0  0  0
  -32.6906  -27.9737   24.4021 O   0  0  0  0  0  0  0  0  0  0  0  0
  -22.1561  -21.6131   21.1077 O   0  0  0  0  0  0  0  0  0  1  0  0
  -34.4332  -22.7459   24.5942 F   0  0  0  0  0  0  0  0  0  0  0  0
  -33.4269  -26.6385   22.0961 F   0  0  0  0  0  0  0  0  0  0  0  0
  1  2  1  0  0  0  0
  1  6  2  0  0  0  0
  2  7  2  0  0  0  0
  3  9  2  0  0  0  0
  3 10  1  0  0  0  0
  4 11  2  0  0  0  0
  4 19  1  0  0  0  0
  5 12  1  0  0  0  0
  5 19  2  0  0  0  0
  6 21  1  0  0  0  0
  7 23  1  0  0  0  0
  8 13  2  0  0  0  0
  8 22  1  0  0  0  0
  9 25  1  0  0  0  0
 10 26  2  0  0  0  0
 11 27  1  0  0  0  0
 12 27  2  0  0  0  0
 13 28  1  0  0  0  0
 14 15  2  0  0  0  0
 14 29  1  0  0  0  0
 15 30  1  0  0  0  0
 16 24  1  0  0  0  0
 16 28  2  0  0  0  0
 17 25  2  0  0  0  0
 17 26  1  0  0  0  0
 18 30  2  0  0  0  0
 18 31  1  0  0  0  0
 19 32  1  0  0  0  0
 20 32  1  0  0  0  0
 20 33  2  0  0  0  0
 20 37  1  0  0  0  0
 21 23  2  0  0  0  0
 21 42  1  0  0  0  0
 22 24  2  0  0  0  0
 22 43  1  0  0  0  0
 23 52  1  0  0  0  0
 24 44  1  0  0  0  0
 25 66  1  0  0  0  0
 26 71  1  0  0  0  0
 27 81  1  0  0  0  0
 28 82  1  0  0  0  0
 29 31  2  0  0  0  0
 29 81  1  0  0  0  0
 30 83  1  0  0  0  0
 31 84  1  0  0  0  0
 32 64  2  0  0  0  0
 33 65  1  0  0  0  0
 33 69  1  0  0  0  0
 34 35  2  0  0  0  0
 34 36  1  0  0  0  0
 35 45  1  0  0  0  0
 35 60  1  0  0  0  0
 36 66  1  0  0  0  0
 36 75  2  0  0  0  0
 37 70  1  0  0  0  0
 37 76  2  0  0  0  0
 38 53  1  0  0  0  0
 38 72  1  0  0  0  0
 38 77  2  0  0  0  0
 39 61  1  0  0  0  0
 39 67  1  0  0  0  0
 39 78  2  0  0  0  0
 40 62  1  0  0  0  0
 40 73  1  0  0  0  0
 40 79  2  0  0  0  0
 41 68  1  0  0  0  0
 41 71  1  0  0  0  0
 41 80  2  0  0  0  0
 42 46  1  0  0  0  0
 43 53  1  0  0  0  0
 44 67  1  0  0  0  0
 45 66  1  0  0  0  0
 46 48  1  0  0  0  0
 47 49  1  0  0  0  0
 47 50  1  0  0  0  0
 48 52  1  0  0  0  0
 49 54  1  0  0  0  0
 50 68  1  0  0  0  0
 51 54  1  0  0  0  0
 51 68  1  0  0  0  0
 52 72  1  0  0  0  0
 53 67  1  0  0  0  0
 54 65  1  0  0  0  0
 55 62  1  0  0  0  0
 56 63  1  0  0  0  0
 57 63  1  0  0  0  0
 58 63  1  0  0  0  0
 59 74  1  0  0  0  0
 60 82  1  0  0  0  0
 61 63  1  0  0  0  0
 61 73  1  0  0  0  0
 62 74  1  0  0  0  0
 64 65  1  0  0  0  0
M  CHG  1  74   1
M  ISO  4  41 100  60 101  71 100  82 101
M  END
> <Batch ID>
0081

> <Smiles>
CNC(C)C(=O)NC(C(=O)N1Cc2cc([101O:1][101CH2:1]C3=CC(=O)N(c4cccc([100NH:0][100C:0](=O)N5CCCC(n6nc(-c7ccc(Oc8ccc(F)cc8F)cc7)c(C(N)=O)c6N)C5)c4)C3)ccc2CC1C(=O)NC1CCCc2ccccc21)C(C)(C)C

> <Shape>
0.224

> <Color>
0.083

> <Negative vol penalty>
0.000

$$$$

  -OEChem-04052300043D

 86 95  0     1  0  0  0  0  0999 V2000
  -21.0461  -31.0994   15.1258 C   0  0  0  0  0  0  0  0  0  0  0  0
  -22.0148  -30.2429   15.6391 C   0  0  0  0  0  0  0  0  0  0  0  0
  -32.1761  -18.7903   21.1222 C   0  0  0  0  0  0  0  0  0  0  0  0
  -23.1381   -9.8279   21.5029 C   0  0  0  0  0  0  0  0  0  0  0  0
  -23.6197  -11.1422   23.4721 C   0  0  0  0  0  0  0  0  0  0  0  0
  -20.8661  -32.3628   15.6874 C   0  0  0  0  0  0  0  0  0  0  0  0
  -22.8047  -30.6496   16.7138 C   0  0  0  0  0  0  0  0  0  0  0  0
  -23.2806  -27.0524   20.2463 C   0  0  0  0  0  0  0  0  0  0  0  0
  -31.2910  -19.8663   21.1883 C   0  0  0  0  0  0  0  0  0  0  0  0
  -31.7037  -17.5171   20.8035 C   0  0  0  0  0  0  0  0  0  0  0  0
  -22.3780   -8.9495   22.2750 C   0  0  0  0  0  0  0  0  0  0  0  0
  -22.8596  -10.2638   24.2443 C   0  0  0  0  0  0  0  0  0  0  0  0
  -24.1797  -26.0192   19.9858 C   0  0  0  0  0  0  0  0  0  0  0  0
  -22.9351   -6.3813   24.4007 C   0  0  0  0  0  0  0  0  0  0  0  0
  -23.1205   -5.0139   24.1969 C   0  0  0  0  0  0  0  0  0  0  0  0
  -25.8168  -27.0976   21.3916 C   0  0  0  0  0  0  0  0  0  0  0  0
  -20.7936   -4.7895   23.5867 C   0  0  0  0  0  0  0  0  0  0  0  0
  -23.7590  -10.9242   22.1015 C   0  0  0  0  0  0  0  0  0  0  0  0
  -24.0948  -12.9894   20.6421 C   0  0  0  0  0  0  0  0  0  0  0  0
  -21.6476  -32.7815   16.7758 C   0  0  0  0  0  0  0  0  0  0  0  0
  -23.6473  -28.1232   21.0740 C   0  0  0  0  0  0  0  0  0  0  0  0
  -22.6358  -31.9203   17.2897 C   0  0  0  0  0  0  0  0  0  0  0  0
  -24.9196  -28.1418   21.6630 C   0  0  0  0  0  0  0  0  0  0  0  0
  -29.9335  -19.6692   20.9357 C   0  0  0  0  0  0  0  0  0  0  0  0
  -30.3461  -17.3200   20.5509 C   0  0  0  0  0  0  0  0  0  0  0  0
  -22.2387   -9.1674   23.6457 C   0  0  0  0  0  0  0  0  0  0  0  0
  -25.4491  -26.0431   20.5561 C   0  0  0  0  0  0  0  0  0  0  0  0
  -21.6790   -6.9528   24.1975 C   0  0  0  0  0  0  0  0  0  0  0  0
  -22.0497   -4.2180   23.7899 C   0  0  0  0  0  0  0  0  0  0  0  0
  -20.6083   -6.1569   23.7905 C   0  0  0  0  0  0  0  0  0  0  0  0
  -29.4610  -18.3960   20.6170 C   0  0  0  0  0  0  0  0  0  0  0  0
  -24.5448  -11.8316   21.3045 C   0  0  0  0  0  0  0  0  0  0  0  0
  -25.2171  -13.4940   20.0319 C   0  0  0  0  0  0  0  0  0  0  0  0
  -27.0606  -21.8044   21.9380 C   0  0  0  0  0  0  0  0  0  0  0  0
  -27.9581  -20.8115   21.8812 C   0  0  0  0  0  0  0  0  0  0  0  0
  -27.1520  -22.9030   20.9843 C   0  0  0  0  0  0  0  0  0  0  0  0
  -28.1633  -22.8381   19.9146 C   0  0  0  0  0  0  0  0  0  0  0  0
  -28.0319  -23.4325   18.7162 C   0  0  0  0  0  0  0  0  0  0  0  0
  -26.3270  -23.9549   21.1387 C   0  0  0  0  0  0  0  0  0  1  0  0
  -22.7799  -13.5580   20.5837 C   0  0  0  0  0  0  0  0  0  0  0  0
  -23.9593  -31.2614   20.6760 C   0  0  0  0  0  0  0  0  0  0  0  0
  -24.4625  -31.2245   23.8804 C   0  0  0  0  0  0  0  0  0  0  0  0
  -25.4318  -29.4674   26.6408 C   0  0  0  0  0  0  0  0  0  0  0  0
  -30.6161  -14.8524   20.1212 C   0  0  0  0  0  0  0  0  0  0  0  0
  -21.4486  -34.1743   17.3191 C   0  0  0  0  0  0  0  0  0  0  0  0
  -22.6564  -29.2164   21.3666 C   0  0  0  0  0  0  0  0  0  0  0  0
  -25.3550  -29.2584   22.5752 C   0  0  0  0  0  0  0  0  0  0  0  0
  -29.3830  -21.9745   20.2152 C   0  0  0  0  0  0  0  0  0  0  0  0
  -22.0720  -34.3856   18.6965 C   0  0  0  0  0  0  0  0  0  0  0  0
  -29.8085  -11.4642   19.3834 C   0  0  0  0  0  0  0  0  0  0  0  0
  -23.4909  -33.8270   18.7317 C   0  0  0  0  0  0  0  0  0  0  0  0
  -28.3300  -11.3530   19.7629 C   0  0  0  0  0  0  0  0  0  0  0  0
  -30.5725  -12.3775   20.3403 C   0  0  0  0  0  0  0  0  0  0  0  0
  -28.5097  -13.6009   20.9037 C   0  0  0  0  0  0  0  0  0  0  0  0
  -23.4955  -32.3159   18.4707 C   0  0  1  0  0  0  0  0  0  0  0  0
  -23.3165  -30.5175   21.8124 C   0  0  1  0  0  0  0  0  0  0  0  0
  -27.6851  -12.7428   19.9304 C   0  0  2  0  0  0  0  0  0  0  0  0
  -25.7755  -29.7166   29.1141 C   0  0  0  0  0  0  0  0  0  0  0  0
  -27.0576  -32.7440   23.3642 C   0  0  0  0  0  0  0  0  0  0  0  0
  -27.7937  -32.1334   25.6779 C   0  0  0  0  0  0  0  0  0  0  0  0
  -25.7598  -33.5396   25.3485 C   0  0  0  0  0  0  0  0  0  0  0  0
  -23.4048  -27.3983   27.2483 C   0  0  0  0  0  0  0  0  0  0  0  0
  -25.6729  -31.0798   24.7709 C   0  0  1  0  0  0  0  0  0  0  0  0
  -24.8022  -29.3216   28.0144 C   0  0  2  0  0  0  0  0  0  0  0  0
  -26.5638  -32.3540   24.7717 C   0  0  0  0  0  0  0  0  0  0  0  0
  -25.8511  -11.6134   21.1313 N   0  0  0  0  0  0  0  0  0  0  0  0
  -26.2315  -12.6408   20.3530 N   0  0  0  0  0  0  0  0  0  0  0  0
  -29.0341  -20.7676   21.0033 N   0  0  0  0  0  0  0  0  0  0  0  0
  -24.3527  -30.3074   22.8255 N   0  0  0  0  0  0  0  0  0  0  0  0
  -29.9058  -13.6773   20.4457 N   0  0  0  0  0  0  0  0  0  0  0  0
  -25.4252  -14.5798   19.2572 N   0  0  0  0  0  0  0  0  0  0  0  0
  -21.7415  -12.9117   21.2681 N   0  0  0  0  0  0  0  0  0  0  0  0
  -29.8695  -16.0254   20.2276 N   0  0  0  0  0  0  0  0  0  0  0  0
  -23.0869  -31.5966   19.6582 N   0  0  0  0  0  0  0  0  0  0  0  0
  -25.1687  -30.7024   26.0869 N   0  0  0  0  0  0  0  0  0  0  0  0
  -24.3810  -27.9106   28.2440 N   0  3  0  0  0  0  0  0  0  0  0  0
  -22.5298  -14.5990   19.9300 O   0  0  0  0  0  0  0  0  0  0  0  0
  -25.1576  -31.5139   20.7202 O   0  0  0  0  0  0  0  0  0  0  0  0
  -23.6409  -32.1138   24.1165 O   0  0  0  0  0  0  0  0  0  0  0  0
  -26.0941  -28.5764   26.1137 O   0  0  0  0  0  0  0  0  0  0  0  0
  -31.7916  -14.8182   19.7483 O   0  0  0  0  0  0  0  0  0  0  0  0
  -21.4968   -8.3106   24.3994 O   0  0  0  0  0  0  0  0  0  0  0  0
  -26.3289  -25.0363   20.3030 O   0  0  0  0  0  0  0  0  0  1  0  0
  -22.2282   -2.9052   23.5928 F   0  0  0  0  0  0  0  0  0  0  0  0
  -19.3995   -6.7004   23.5925 F   0  0  0  0  0  0  0  0  0  0  0  0
  -28.1549  -18.2069   20.3739 F   0  0  0  0  0  0  0  0  0  0  0  0
  1  2  1  0  0  0  0
  1  6  2  0  0  0  0
  2  7  2  0  0  0  0
  3  9  2  0  0  0  0
  3 10  1  0  0  0  0
  4 11  2  0  0  0  0
  4 18  1  0  0  0  0
  5 12  1  0  0  0  0
  5 18  2  0  0  0  0
  6 20  1  0  0  0  0
  7 22  1  0  0  0  0
  8 13  2  0  0  0  0
  8 21  1  0  0  0  0
  9 24  1  0  0  0  0
 10 25  2  0  0  0  0
 11 26  1  0  0  0  0
 12 26  2  0  0  0  0
 13 27  1  0  0  0  0
 14 15  2  0  0  0  0
 14 28  1  0  0  0  0
 15 29  1  0  0  0  0
 16 23  1  0  0  0  0
 16 27  2  0  0  0  0
 17 29  2  0  0  0  0
 17 30  1  0  0  0  0
 18 32  1  0  0  0  0
 19 32  1  0  0  0  0
 19 33  2  0  0  0  0
 19 40  1  0  0  0  0
 20 22  2  0  0  0  0
 20 45  1  0  0  0  0
 21 23  2  0  0  0  0
 21 46  1  0  0  0  0
 22 55  1  0  0  0  0
 23 47  1  0  0  0  0
 24 31  2  0  0  0  0
 24 68  1  0  0  0  0
 25 31  1  0  0  0  0
 25 73  1  0  0  0  0
 26 82  1  0  0  0  0
 27 83  1  0  0  0  0
 28 30  2  0  0  0  0
 28 82  1  0  0  0  0
 29 84  1  0  0  0  0
 30 85  1  0  0  0  0
 31 86  1  0  0  0  0
 32 66  2  0  0  0  0
 33 67  1  0  0  0  0
 33 71  1  0  0  0  0
 34 35  2  0  0  0  0
 34 36  1  0  0  0  0
 35 68  1  0  0  0  0
 36 37  1  0  0  0  0
 36 39  2  0  0  0  0
 37 38  2  0  0  0  0
 37 48  1  0  0  0  0
 39 83  1  0  0  0  0
 40 72  1  0  0  0  0
 40 77  2  0  0  0  0
 41 56  1  0  0  0  0
 41 74  1  0  0  0  0
 41 78  2  0  0  0  0
 42 63  1  0  0  0  0
 42 69  1  0  0  0  0
 42 79  2  0  0  0  0
 43 64  1  0  0  0  0
 43 75  1  0  0  0  0
 43 80  2  0  0  0  0
 44 70  1  0  0  0  0
 44 73  1  0  0  0  0
 44 81  2  0  0  0  0
 45 49  1  0  0  0  0
 46 56  1  0  0  0  0
 47 69  1  0  0  0  0
 48 68  1  0  0  0  0
 49 51  1  0  0  0  0
 50 52  1  0  0  0  0
 50 53  1  0  0  0  0
 51 55  1  0  0  0  0
 52 57  1  0  0  0  0
 53 70  1  0  0  0  0
 54 57  1  0  0  0  0
 54 70  1  0  0  0  0
 55 74  1  0  0  0  0
 56 69  1  0  0  0  0
 57 67  1  0  0  0  0
 58 64  1  0  0  0  0
 59 65  1  0  0  0  0
 60 65  1  0  0  0  0
 61 65  1  0  0  0  0
 62 76  1  0  0  0  0
 63 65  1  0  0  0  0
 63 75  1  0  0  0  0
 64 76  1  0  0  0  0
 66 67  1  0  0  0  0
M  CHG  1  76   1
M  ISO  4  39 101  44 100  73 100  83 101
M  END
> <Batch ID>
0081

> <Smiles>
C=C1CN(c2cccc([100NH:0][100C:0](=O)N3CCCC(n4nc(-c5ccc(Oc6ccc(F)cc6F)cc5)c(C(N)=O)c4N)C3)c2F)C=CC1=[101CH:1][101O:1]c1ccc2c(c1)CN(C(=O)C(NC(=O)C(C)NC)C(C)(C)C)C(C(=O)NC1CCCc3ccccc31)C2

> <Shape>
0.300

> <Color>
0.139

> <Negative vol penalty>
0.000

$$$$

  -OEChem-04052300043D

 86 95  0     1  0  0  0  0  0999 V2000
  -31.0160  -32.5569   14.2012 C   0  0  0  0  0  0  0  0  0  0  0  0
  -30.6946  -31.5517   15.1076 C   0  0  0  0  0  0  0  0  0  0  0  0
  -23.8912   -9.5145   20.3504 C   0  0  0  0  0  0  0  0  0  0  0  0
  -24.3795  -10.0547   22.6540 C   0  0  0  0  0  0  0  0  0  0  0  0
  -31.2208  -33.8605   14.6513 C   0  0  0  0  0  0  0  0  0  0  0  0
  -30.5789  -31.8493   16.4650 C   0  0  0  0  0  0  0  0  0  0  0  0
  -26.4917  -29.7325   18.5766 C   0  0  0  0  0  0  0  0  0  0  0  0
  -29.4139  -20.5826   19.9676 C   0  0  0  0  0  0  0  0  0  0  0  0
  -29.5850  -19.2180   20.2000 C   0  0  0  0  0  0  0  0  0  0  0  0
  -23.4465   -8.2514   20.7408 C   0  0  0  0  0  0  0  0  0  0  0  0
  -23.9347   -8.7916   23.0445 C   0  0  0  0  0  0  0  0  0  0  0  0
  -26.5664  -28.3755   18.8879 C   0  0  0  0  0  0  0  0  0  0  0  0
  -20.9750   -7.2463   23.5667 C   0  0  0  0  0  0  0  0  0  0  0  0
  -20.1355   -7.1715   24.6781 C   0  0  0  0  0  0  0  0  0  0  0  0
  -27.6060  -20.6288   21.5697 C   0  0  0  0  0  0  0  0  0  0  0  0
  -27.0108  -28.9346   21.1920 C   0  0  0  0  0  0  0  0  0  0  0  0
  -21.7487   -5.7675   25.8022 C   0  0  0  0  0  0  0  0  0  0  0  0
  -24.3578  -10.4161   21.3070 C   0  0  0  0  0  0  0  0  0  0  0  0
  -27.7772  -19.2641   21.8020 C   0  0  0  0  0  0  0  0  0  0  0  0
  -24.0502  -12.8956   20.7916 C   0  0  0  0  0  0  0  0  0  0  0  0
  -31.0982  -34.1761   16.0137 C   0  0  0  0  0  0  0  0  0  0  0  0
  -26.6871  -30.7024   19.5703 C   0  0  0  0  0  0  0  0  0  0  0  0
  -30.7837  -33.1580   16.9340 C   0  0  0  0  0  0  0  0  0  0  0  0
  -26.9355  -30.3032   20.8913 C   0  0  0  0  0  0  0  0  0  0  0  0
  -28.4244  -21.2880   20.6525 C   0  0  0  0  0  0  0  0  0  0  0  0
  -28.7667  -18.5587   21.1172 C   0  0  0  0  0  0  0  0  0  0  0  0
  -23.4683   -7.8900   22.0878 C   0  0  0  0  0  0  0  0  0  0  0  0
  -26.8288  -27.9764   20.1951 C   0  0  0  0  0  0  0  0  0  0  0  0
  -22.2014   -6.5817   23.5730 C   0  0  0  0  0  0  0  0  0  0  0  0
  -20.5223   -6.4321   25.7958 C   0  0  0  0  0  0  0  0  0  0  0  0
  -22.5882   -5.8424   24.6908 C   0  0  0  0  0  0  0  0  0  0  0  0
  -24.8178  -11.7208   20.9042 C   0  0  0  0  0  0  0  0  0  0  0  0
  -24.9451  -13.8521   20.3785 C   0  0  0  0  0  0  0  0  0  0  0  0
  -28.0140  -24.5813   20.0923 C   0  0  0  0  0  0  0  0  0  0  0  0
  -28.8916  -23.5215   19.6069 C   0  0  0  0  0  0  0  0  0  0  0  0
  -27.3958  -23.5604   20.9316 C   0  0  0  0  0  0  0  0  0  0  0  0
  -25.5884  -18.5346   22.6343 C   0  0  0  0  0  0  0  0  0  0  0  0
  -26.9033  -18.6093   22.7687 C   0  0  0  0  0  0  0  0  0  0  0  0
  -27.8500  -25.8977   19.8683 C   0  0  0  0  0  0  0  0  0  1  0  0
  -22.6533  -13.1035   21.0385 C   0  0  0  0  0  0  0  0  0  0  0  0
  -28.7950  -33.0337   20.0456 C   0  0  0  0  0  0  0  0  0  0  0  0
  -26.8514  -33.7527   22.5412 C   0  0  0  0  0  0  0  0  0  0  0  0
  -24.5219  -32.6920   24.7984 C   0  0  0  0  0  0  0  0  0  0  0  0
  -29.9100  -16.3492   20.7209 C   0  0  0  0  0  0  0  0  0  0  0  0
  -31.3754  -35.5901   16.4590 C   0  0  0  0  0  0  0  0  0  0  0  0
  -26.5769  -32.1619   19.2235 C   0  0  0  0  0  0  0  0  0  0  0  0
  -27.1327  -31.3049   21.9987 C   0  0  0  0  0  0  0  0  0  0  0  0
  -30.8659  -35.8969   17.8650 C   0  0  0  0  0  0  0  0  0  0  0  0
  -29.7072  -13.4108   18.7203 C   0  0  0  0  0  0  0  0  0  0  0  0
  -31.2547  -34.7805   18.8290 C   0  0  0  0  0  0  0  0  0  0  0  0
  -28.3539  -12.8059   19.1009 C   0  0  0  0  0  0  0  0  0  0  0  0
  -30.4018  -14.0479   19.9225 C   0  0  0  0  0  0  0  0  0  0  0  0
  -28.2391  -14.4203   21.0418 C   0  0  0  0  0  0  0  0  0  0  0  0
  -30.6249  -33.4463   18.4111 C   0  0  1  0  0  0  0  0  0  0  0  0
  -27.3022  -33.0678   20.2138 C   0  0  1  0  0  0  0  0  0  0  0  0
  -27.4722  -13.8240   19.8502 C   0  0  2  0  0  0  0  0  0  0  0  0
  -23.1480  -33.4980   26.7376 C   0  0  0  0  0  0  0  0  0  0  0  0
  -29.3182  -33.6379   24.3334 C   0  0  0  0  0  0  0  0  0  0  0  0
  -27.7891  -33.4988   26.3110 C   0  0  0  0  0  0  0  0  0  0  0  0
  -27.7455  -35.5146   24.8422 C   0  0  0  0  0  0  0  0  0  0  0  0
  -21.9838  -32.1137   23.3903 C   0  0  0  0  0  0  0  0  0  0  0  0
  -26.7765  -33.3400   23.9914 C   0  0  1  0  0  0  0  0  0  0  0  0
  -23.1949  -33.2883   25.2321 C   0  0  2  0  0  0  0  0  0  0  0  0
  -27.9056  -33.9787   24.8485 C   0  0  0  0  0  0  0  0  0  0  0  0
  -26.1015  -11.9114   20.5880 N   0  0  0  0  0  0  0  0  0  0  0  0
  -26.1474  -13.2169   20.2726 N   0  0  0  0  0  0  0  0  0  0  0  0
  -28.2568  -22.6332   20.4236 N   0  0  0  0  0  0  0  0  0  0  0  0
  -27.0216  -32.7201   21.6082 N   0  0  0  0  0  0  0  0  0  0  0  0
  -29.5082  -15.0040   20.5799 N   0  0  0  0  0  0  0  0  0  0  0  0
  -24.8129  -15.1662   20.0991 N   0  0  0  0  0  0  0  0  0  0  0  0
  -21.8792  -12.0128   21.4575 N   0  0  0  0  0  0  0  0  0  0  0  0
  -28.9648  -17.1722   21.3322 N   0  0  0  0  0  0  0  0  0  0  0  0
  -29.2281  -33.4069   18.7876 N   0  0  0  0  0  0  0  0  0  0  0  0
  -25.4276  -33.6680   24.4400 N   0  0  0  0  0  0  0  0  0  0  0  0
  -22.0718  -32.3872   24.8479 N   0  3  0  0  0  0  0  0  0  0  0  0
  -29.8049  -23.4496   18.8116 O   0  0  0  0  0  0  0  0  0  0  0  0
  -26.4946  -23.5358   21.7434 O   0  0  0  0  0  0  0  0  0  0  0  0
  -22.1042  -14.2196   20.8760 O   0  0  0  0  0  0  0  0  0  0  0  0
  -29.5015  -32.6954   20.9880 O   0  0  0  0  0  0  0  0  0  0  0  0
  -26.7551  -34.9467   22.2466 O   0  0  0  0  0  0  0  0  0  0  0  0
  -24.7350  -31.4817   24.7830 O   0  0  0  0  0  0  0  0  0  0  0  0
  -31.0005  -16.7478   20.3037 O   0  0  0  0  0  0  0  0  0  0  0  0
  -23.0341   -6.6576   22.4692 O   0  0  0  0  0  0  0  0  0  0  0  0
  -26.9029  -26.6526   20.5015 O   0  0  0  0  0  0  0  0  0  1  0  0
  -19.7166   -6.3616   26.8636 F   0  0  0  0  0  0  0  0  0  0  0  0
  -23.7657   -5.2027   24.7032 F   0  0  0  0  0  0  0  0  0  0  0  0
  1  2  1  0  0  0  0
  1  5  2  0  0  0  0
  2  6  2  0  0  0  0
  3 10  2  0  0  0  0
  3 18  1  0  0  0  0
  4 11  1  0  0  0  0
  4 18  2  0  0  0  0
  5 21  1  0  0  0  0
  6 23  1  0  0  0  0
  7 12  2  0  0  0  0
  7 22  1  0  0  0  0
  8  9  2  0  0  0  0
  8 25  1  0  0  0  0
  9 26  1  0  0  0  0
 10 27  1  0  0  0  0
 11 27  2  0  0  0  0
 12 28  1  0  0  0  0
 13 14  2  0  0  0  0
 13 29  1  0  0  0  0
 14 30  1  0  0  0  0
 15 19  1  0  0  0  0
 15 25  2  0  0  0  0
 16 24  1  0  0  0  0
 16 28  2  0  0  0  0
 17 30  2  0  0  0  0
 17 31  1  0  0  0  0
 18 32  1  0  0  0  0
 19 26  2  0  0  0  0
 19 38  1  0  0  0  0
 20 32  1  0  0  0  0
 20 33  2  0  0  0  0
 20 40  1  0  0  0  0
 21 23  2  0  0  0  0
 21 45  1  0  0  0  0
 22 24  2  0  0  0  0
 22 46  1  0  0  0  0
 23 54  1  0  0  0  0
 24 47  1  0  0  0  0
 25 67  1  0  0  0  0
 26 72  1  0  0  0  0
 27 83  1  0  0  0  0
 28 84  1  0  0  0  0
 29 31  2  0  0  0  0
 29 83  1  0  0  0  0
 30 85  1  0  0  0  0
 31 86  1  0  0  0  0
 32 65  2  0  0  0  0
 33 66  1  0  0  0  0
 33 70  1  0  0  0  0
 34 35  1  0  0  0  0
 34 36  1  0  0  0  0
 34 39  2  0  0  0  0
 35 67  1  0  0  0  0
 35 76  2  0  0  0  0
 36 67  1  0  0  0  0
 36 77  2  0  0  0  0
 37 38  2  0  0  0  0
 39 84  1  0  0  0  0
 40 71  1  0  0  0  0
 40 78  2  0  0  0  0
 41 55  1  0  0  0  0
 41 73  1  0  0  0  0
 41 79  2  0  0  0  0
 42 62  1  0  0  0  0
 42 68  1  0  0  0  0
 42 80  2  0  0  0  0
 43 63  1  0  0  0  0
 43 74  1  0  0  0  0
 43 81  2  0  0  0  0
 44 69  1  0  0  0  0
 44 72  1  0  0  0  0
 44 82  2  0  0  0  0
 45 48  1  0  0  0  0
 46 55  1  0  0  0  0
 47 68  1  0  0  0  0
 48 50  1  0  0  0  0
 49 51  1  0  0  0  0
 49 52  1  0  0  0  0
 50 54  1  0  0  0  0
 51 56  1  0  0  0  0
 52 69  1  0  0  0  0
 53 56  1  0  0  0  0
 53 69  1  0  0  0  0
 54 73  1  0  0  0  0
 55 68  1  0  0  0  0
 56 66  1  0  0  0  0
 57 63  1  0  0  0  0
 58 64  1  0  0  0  0
 59 64  1  0  0  0  0
 60 64  1  0  0  0  0
 61 75  1  0  0  0  0
 62 64  1  0  0  0  0
 62 74  1  0  0  0  0
 63 75  1  0  0  0  0
 65 66  1  0  0  0  0
M  CHG  1  75   1
M  ISO  4  39 101  44 100  72 100  84 101
M  END
> <Batch ID>
0081

> <Smiles>
C=Cc1cc(N2C(=O)C(=[101CH:1][101O:1]c3ccc4c(c3)CN(C(=O)C(NC(=O)C(C)NC)C(C)(C)C)C(C(=O)NC3CCCc5ccccc53)C4)C2=O)ccc1[100NH:0][100C:0](=O)N1CCCC(n2nc(-c3ccc(Oc4ccc(F)cc4F)cc3)c(C(N)=O)c2N)C1

> <Shape>
0.295

> <Color>
0.159

> <Negative vol penalty>
0.000

$$$$

  -OEChem-04052300043D

 84 92  0     1  0  0  0  0  0999 V2000
  -28.5502  -36.5485   25.1766 C   0  0  0  0  0  0  0  0  0  0  0  0
  -29.0054  -35.6339   24.2323 C   0  0  0  0  0  0  0  0  0  0  0  0
  -23.9843   -8.9280   21.0942 C   0  0  0  0  0  0  0  0  0  0  0  0
  -23.1790  -11.2019   20.9597 C   0  0  0  0  0  0  0  0  0  0  0  0
  -30.4900  -18.5303   21.4892 C   0  0  0  0  0  0  0  0  0  0  0  0
  -28.2616  -18.8093   20.5985 C   0  0  0  0  0  0  0  0  0  0  0  0
  -27.5228  -36.1941   26.0500 C   0  0  0  0  0  0  0  0  0  0  0  0
  -28.4341  -34.3639   24.1616 C   0  0  0  0  0  0  0  0  0  0  0  0
  -26.8087  -29.2286   19.4389 C   0  0  0  0  0  0  0  0  0  0  0  0
  -30.5051  -17.2105   21.0383 C   0  0  0  0  0  0  0  0  0  0  0  0
  -28.2767  -17.4894   20.1475 C   0  0  0  0  0  0  0  0  0  0  0  0
  -22.9861   -8.6294   22.0216 C   0  0  0  0  0  0  0  0  0  0  0  0
  -22.1808  -10.9032   21.8871 C   0  0  0  0  0  0  0  0  0  0  0  0
  -26.9930  -27.8630   19.2266 C   0  0  0  0  0  0  0  0  0  0  0  0
  -19.6779   -7.9316   21.9828 C   0  0  0  0  0  0  0  0  0  0  0  0
  -18.9676   -6.7435   21.8107 C   0  0  0  0  0  0  0  0  0  0  0  0
  -25.1704  -27.3888   20.7340 C   0  0  0  0  0  0  0  0  0  0  0  0
  -19.7134   -5.9834   23.9794 C   0  0  0  0  0  0  0  0  0  0  0  0
  -24.0808  -10.2143   20.5632 C   0  0  0  0  0  0  0  0  0  0  0  0
  -29.3682  -19.3297   21.2694 C   0  0  0  0  0  0  0  0  0  0  0  0
  -25.0319  -10.4125   18.2045 C   0  0  0  0  0  0  0  0  0  0  0  0
  -26.9321  -34.9224   25.9835 C   0  0  0  0  0  0  0  0  0  0  0  0
  -25.8092  -29.6849   20.3103 C   0  0  0  0  0  0  0  0  0  0  0  0
  -27.3988  -33.9916   25.0358 C   0  0  0  0  0  0  0  0  0  0  0  0
  -24.9738  -28.7607   20.9537 C   0  0  0  0  0  0  0  0  0  0  0  0
  -29.3985  -16.6900   20.3674 C   0  0  0  0  0  0  0  0  0  0  0  0
  -22.0844   -9.6169   22.4181 C   0  0  0  0  0  0  0  0  0  0  0  0
  -26.1757  -26.9428   19.8764 C   0  0  0  0  0  0  0  0  0  0  0  0
  -20.4061   -8.1455   23.1531 C   0  0  0  0  0  0  0  0  0  0  0  0
  -18.9853   -5.7695   22.8090 C   0  0  0  0  0  0  0  0  0  0  0  0
  -20.4238   -7.1715   24.1514 C   0  0  0  0  0  0  0  0  0  0  0  0
  -25.1120  -10.5235   19.6056 C   0  0  0  0  0  0  0  0  0  0  0  0
  -26.2637  -10.8231   17.7566 C   0  0  0  0  0  0  0  0  0  0  0  0
  -27.4572  -23.6335   20.3779 C   0  0  0  0  0  0  0  0  0  0  0  0
  -27.2141  -24.9408   20.4966 C   0  0  0  0  0  0  0  0  0  1  0  0
  -29.3521  -20.7349   21.7497 C   0  0  0  0  0  0  0  0  0  0  0  0
  -23.9416   -9.9772   17.3815 C   0  0  0  0  0  0  0  0  0  0  0  0
  -28.4067  -22.9681   21.3105 C   0  0  0  0  0  0  0  0  0  0  0  0
  -25.7824  -31.3536   23.0156 C   0  0  0  0  0  0  0  0  0  0  0  0
  -22.5675  -31.2362   22.5999 C   0  0  0  0  0  0  0  0  0  0  0  0
  -19.8805  -29.6468   21.2212 C   0  0  0  0  0  0  0  0  0  0  0  0
  -30.4480  -14.4226   20.0458 C   0  0  0  0  0  0  0  0  0  0  0  0
  -25.8567  -34.5685   26.9800 C   0  0  0  0  0  0  0  0  0  0  0  0
  -25.6058  -31.1620   20.5080 C   0  0  0  0  0  0  0  0  0  0  0  0
  -23.8731  -29.1997   21.8834 C   0  0  0  0  0  0  0  0  0  0  0  0
  -25.0496  -33.3323   26.5918 C   0  0  0  0  0  0  0  0  0  0  0  0
  -30.8592  -11.0176   19.0899 C   0  0  0  0  0  0  0  0  0  0  0  0
  -25.9780  -32.2060   26.1488 C   0  0  0  0  0  0  0  0  0  0  0  0
  -29.4246  -10.4960   18.9802 C   0  0  0  0  0  0  0  0  0  0  0  0
  -31.0152  -12.0110   20.2399 C   0  0  0  0  0  0  0  0  0  0  0  0
  -28.6278  -12.6068   20.1189 C   0  0  0  0  0  0  0  0  0  0  0  0
  -26.7876  -32.6128   24.9116 C   0  0  1  0  0  0  0  0  0  0  0  0
  -24.8920  -31.4974   21.8139 C   0  0  1  0  0  0  0  0  0  0  0  0
  -28.4066  -11.6523   18.9341 C   0  0  2  0  0  0  0  0  0  0  0  0
  -17.3772  -29.7634   21.0894 C   0  0  0  0  0  0  0  0  0  0  0  0
  -22.3685  -30.1119   25.4295 C   0  0  0  0  0  0  0  0  0  0  0  0
  -20.0358  -29.3744   24.8975 C   0  0  0  0  0  0  0  0  0  0  0  0
  -20.6160  -31.8001   24.8521 C   0  0  0  0  0  0  0  0  0  0  0  0
  -19.9357  -29.9962   18.2829 C   0  0  0  0  0  0  0  0  0  0  0  0
  -21.4697  -30.2868   23.0154 C   0  0  1  0  0  0  0  0  0  0  0  0
  -18.6900  -30.1738   20.4405 C   0  0  2  0  0  0  0  0  0  0  0  0
  -21.1444  -30.3846   24.5327 C   0  0  0  0  0  0  0  0  0  0  0  0
  -26.3007  -10.9695   20.0204 N   0  0  0  0  0  0  0  0  0  0  0  0
  -26.9789  -11.1423   18.8732 N   0  0  0  0  0  0  0  0  0  0  0  0
  -23.7180  -30.6544   22.0490 N   0  0  0  0  0  0  0  0  0  0  0  0
  -30.0208  -13.0804   20.1280 N   0  0  0  0  0  0  0  0  0  0  0  0
  -26.7940  -10.9386   16.5205 N   0  0  0  0  0  0  0  0  0  0  0  0
  -22.7472   -9.5903   18.0044 N   0  0  0  0  0  0  0  0  0  0  0  0
  -29.4149  -15.3492   19.9095 N   0  0  0  0  0  0  0  0  0  0  0  0
  -28.5329  -21.6080   21.0348 N   0  0  0  0  0  0  0  0  0  0  0  0
  -25.9689  -32.5269   23.7213 N   0  0  0  0  0  0  0  0  0  0  0  0
  -20.3354  -30.5670   22.1418 N   0  0  0  0  0  0  0  0  0  0  0  0
  -18.7103  -29.6468   19.0467 N   0  3  0  0  0  0  0  0  0  0  0  0
  -30.0596  -21.0483   22.7033 O   0  0  0  0  0  0  0  0  0  0  0  0
  -24.0296   -9.9171   16.1316 O   0  0  0  0  0  0  0  0  0  0  0  0
  -28.9869  -23.5772   22.2034 O   0  0  0  0  0  0  0  0  0  0  0  0
  -26.2634  -30.2588   23.2836 O   0  0  0  0  0  0  0  0  0  0  0  0
  -22.4071  -32.4498   22.7519 O   0  0  0  0  0  0  0  0  0  0  0  0
  -20.3568  -28.5291   21.0357 O   0  0  0  0  0  0  0  0  0  0  0  0
  -31.6438  -14.7253   20.0655 O   0  0  0  0  0  0  0  0  0  0  0  0
  -21.1101   -9.3258   23.3228 O   0  0  0  0  0  0  0  0  0  0  0  0
  -26.3539  -25.6093   19.6714 O   0  0  0  0  0  0  0  0  0  1  0  0
  -18.3019   -4.6293   22.6442 F   0  0  0  0  0  0  0  0  0  0  0  0
  -21.1206   -7.3718   25.2784 F   0  0  0  0  0  0  0  0  0  0  0  0
  1  2  1  0  0  0  0
  1  7  2  0  0  0  0
  2  8  2  0  0  0  0
  3 12  2  0  0  0  0
  3 19  1  0  0  0  0
  4 13  1  0  0  0  0
  4 19  2  0  0  0  0
  5 10  2  0  0  0  0
  5 20  1  0  0  0  0
  6 11  1  0  0  0  0
  6 20  2  0  0  0  0
  7 22  1  0  0  0  0
  8 24  1  0  0  0  0
  9 14  2  0  0  0  0
  9 23  1  0  0  0  0
 10 26  1  0  0  0  0
 11 26  2  0  0  0  0
 12 27  1  0  0  0  0
 13 27  2  0  0  0  0
 14 28  1  0  0  0  0
 15 16  2  0  0  0  0
 15 29  1  0  0  0  0
 16 30  1  0  0  0  0
 17 25  1  0  0  0  0
 17 28  2  0  0  0  0
 18 30  2  0  0  0  0
 18 31  1  0  0  0  0
 19 32  1  0  0  0  0
 20 36  1  0  0  0  0
 21 32  1  0  0  0  0
 21 33  2  0  0  0  0
 21 37  1  0  0  0  0
 22 24  2  0  0  0  0
 22 43  1  0  0  0  0
 23 25  2  0  0  0  0
 23 44  1  0  0  0  0
 24 52  1  0  0  0  0
 25 45  1  0  0  0  0
 26 69  1  0  0  0  0
 27 81  1  0  0  0  0
 28 82  1  0  0  0  0
 29 31  2  0  0  0  0
 29 81  1  0  0  0  0
 30 83  1  0  0  0  0
 31 84  1  0  0  0  0
 32 63  2  0  0  0  0
 33 64  1  0  0  0  0
 33 67  1  0  0  0  0
 34 35  2  0  0  0  0
 34 38  1  0  0  0  0
 35 82  1  0  0  0  0
 36 70  1  0  0  0  0
 36 74  2  0  0  0  0
 37 68  1  0  0  0  0
 37 75  2  0  0  0  0
 38 70  1  0  0  0  0
 38 76  2  0  0  0  0
 39 53  1  0  0  0  0
 39 71  1  0  0  0  0
 39 77  2  0  0  0  0
 40 60  1  0  0  0  0
 40 65  1  0  0  0  0
 40 78  2  0  0  0  0
 41 61  1  0  0  0  0
 41 72  1  0  0  0  0
 41 79  2  0  0  0  0
 42 66  1  0  0  0  0
 42 69  1  0  0  0  0
 42 80  2  0  0  0  0
 43 46  1  0  0  0  0
 44 53  1  0  0  0  0
 45 65  1  0  0  0  0
 46 48  1  0  0  0  0
 47 49  1  0  0  0  0
 47 50  1  0  0  0  0
 48 52  1  0  0  0  0
 49 54  1  0  0  0  0
 50 66  1  0  0  0  0
 51 54  1  0  0  0  0
 51 66  1  0  0  0  0
 52 71  1  0  0  0  0
 53 65  1  0  0  0  0
 54 64  1  0  0  0  0
 55 61  1  0  0  0  0
 56 62  1  0  0  0  0
 57 62  1  0  0  0  0
 58 62  1  0  0  0  0
 59 73  1  0  0  0  0
 60 62  1  0  0  0  0
 60 72  1  0  0  0  0
 61 73  1  0  0  0  0
 63 64  1  0  0  0  0
M  CHG  1  73   1
M  ISO  4  35 101  42 100  69 100  82 101
M  END
> <Batch ID>
0081

> <Smiles>
CNC(C)C(=O)NC(C(=O)N1Cc2cc([101O:1][101CH:1]=CC(=O)NC(=O)c3ccc([100NH:0][100C:0](=O)N4CCCC(n5nc(-c6ccc(Oc7ccc(F)cc7F)cc6)c(C(N)=O)c5N)C4)cc3)ccc2CC1C(=O)NC1CCCc2ccccc21)C(C)(C)C

> <Shape>
0.284

> <Color>
0.083

> <Negative vol penalty>
0.000

$$$$

  -OEChem-04052300043D

 87 96  0     1  0  0  0  0  0999 V2000
  -23.0425  -36.4878   20.9332 C   0  0  0  0  0  0  0  0  0  0  0  0
  -24.0720  -35.5670   20.7666 C   0  0  0  0  0  0  0  0  0  0  0  0
  -22.7919  -10.0449   20.1697 C   0  0  0  0  0  0  0  0  0  0  0  0
  -24.5978   -8.9797   21.3704 C   0  0  0  0  0  0  0  0  0  0  0  0
  -21.9194  -36.1474   21.6860 C   0  0  0  0  0  0  0  0  0  0  0  0
  -23.9794  -34.3056   21.3536 C   0  0  0  0  0  0  0  0  0  0  0  0
  -26.0957  -29.0252   19.0854 C   0  0  0  0  0  0  0  0  0  0  0  0
  -28.9382  -20.0346   20.4302 C   0  0  0  0  0  0  0  0  0  0  0  0
  -28.8326  -18.6518   20.2806 C   0  0  0  0  0  0  0  0  0  0  0  0
  -21.8771   -9.5282   21.0872 C   0  0  0  0  0  0  0  0  0  0  0  0
  -23.6829   -8.4631   22.2879 C   0  0  0  0  0  0  0  0  0  0  0  0
  -27.2578  -28.2963   19.3341 C   0  0  0  0  0  0  0  0  0  0  0  0
  -21.4774   -5.9049   22.4358 C   0  0  0  0  0  0  0  0  0  0  0  0
  -21.6116   -4.5653   22.8005 C   0  0  0  0  0  0  0  0  0  0  0  0
  -26.0532  -26.9256   20.9119 C   0  0  0  0  0  0  0  0  0  0  0  0
  -31.3393  -19.8745   20.2160 C   0  0  0  0  0  0  0  0  0  0  0  0
  -21.9198   -5.2235   25.1046 C   0  0  0  0  0  0  0  0  0  0  0  0
  -24.1523   -9.7706   20.3113 C   0  0  0  0  0  0  0  0  0  0  0  0
  -25.1332  -10.0706   17.9756 C   0  0  0  0  0  0  0  0  0  0  0  0
  -21.8087  -34.8777   22.2744 C   0  0  0  0  0  0  0  0  0  0  0  0
  -24.9043  -28.7163   19.7573 C   0  0  0  0  0  0  0  0  0  0  0  0
  -22.8544  -33.9483   22.1161 C   0  0  0  0  0  0  0  0  0  0  0  0
  -24.8767  -27.6505   20.6680 C   0  0  0  0  0  0  0  0  0  0  0  0
  -30.1915  -20.6460   20.3979 C   0  0  0  0  0  0  0  0  0  0  0  0
  -29.9804  -17.8804   20.0987 C   0  0  0  0  0  0  0  0  0  0  0  0
  -22.3226   -8.7374   22.1463 C   0  0  0  0  0  0  0  0  0  0  0  0
  -27.2374  -27.2482   20.2496 C   0  0  0  0  0  0  0  0  0  0  0  0
  -21.5645   -6.9038   23.4055 C   0  0  0  0  0  0  0  0  0  0  0  0
  -21.8328   -4.2245   24.1349 C   0  0  0  0  0  0  0  0  0  0  0  0
  -31.2338  -18.4917   20.0664 C   0  0  0  0  0  0  0  0  0  0  0  0
  -21.7857   -6.5631   24.7399 C   0  0  0  0  0  0  0  0  0  0  0  0
  -25.0977  -10.3035   19.3635 C   0  0  0  0  0  0  0  0  0  0  0  0
  -26.2111  -10.7977   17.5329 C   0  0  0  0  0  0  0  0  0  0  0  0
  -29.4123  -24.3927   20.4444 C   0  0  0  0  0  0  0  0  0  0  0  0
  -29.2588  -22.9292   20.1220 C   0  0  0  0  0  0  0  0  0  0  0  0
  -31.4019  -23.8716   21.7881 C   0  0  0  0  0  0  0  0  0  0  0  0
  -31.8121  -24.0390   23.0532 C   0  0  0  0  0  0  0  0  0  0  0  0
  -28.3537  -25.1928   20.2403 C   0  0  0  0  0  0  0  0  0  1  0  0
  -24.2691   -9.2687   17.1595 C   0  0  0  0  0  0  0  0  0  0  0  0
  -22.9919  -30.2728   21.7633 C   0  0  0  0  0  0  0  0  0  0  0  0
  -21.1239  -27.6450   21.4062 C   0  0  0  0  0  0  0  0  0  0  0  0
  -20.9054  -24.3302   20.6242 C   0  0  0  0  0  0  0  0  0  0  0  0
  -28.7050  -15.7039   19.9548 C   0  0  0  0  0  0  0  0  0  0  0  0
  -20.5968  -34.5721   23.1187 C   0  0  0  0  0  0  0  0  0  0  0  0
  -23.6527  -29.4951   19.4580 C   0  0  0  0  0  0  0  0  0  0  0  0
  -23.6182  -27.2657   21.4005 C   0  0  0  0  0  0  0  0  0  0  0  0
  -30.6915  -24.9282   21.0088 C   0  0  0  0  0  0  0  0  0  0  0  0
  -31.6011  -22.6052   21.0176 C   0  0  0  0  0  0  0  0  0  0  0  0
  -20.4071  -33.0829   23.3954 C   0  0  0  0  0  0  0  0  0  0  0  0
  -30.2629  -12.2019   19.7747 C   0  0  0  0  0  0  0  0  0  0  0  0
  -21.7258  -32.4475   23.8247 C   0  0  0  0  0  0  0  0  0  0  0  0
  -29.2565  -11.5241   18.8478 C   0  0  0  0  0  0  0  0  0  0  0  0
  -30.2660  -13.7169   19.6148 C   0  0  0  0  0  0  0  0  0  0  0  0
  -27.7910  -13.3971   19.7830 C   0  0  0  0  0  0  0  0  0  0  0  0
  -22.7795  -32.5612   22.7165 C   0  0  1  0  0  0  0  0  0  0  0  0
  -22.6218  -29.4236   20.5802 C   0  0  1  0  0  0  0  0  0  0  0  0
  -27.9424  -12.3165   18.7009 C   0  0  2  0  0  0  0  0  0  0  0  0
  -19.2515  -22.4501   20.4588 C   0  0  0  0  0  0  0  0  0  0  0  0
  -21.0955  -27.4057   24.4479 C   0  0  0  0  0  0  0  0  0  0  0  0
  -20.2715  -25.0561   24.1858 C   0  0  0  0  0  0  0  0  0  0  0  0
  -18.8953  -26.9596   23.3457 C   0  0  0  0  0  0  0  0  0  0  0  0
  -21.4313  -23.9674   17.7344 C   0  0  0  0  0  0  0  0  0  0  0  0
  -21.0044  -26.3146   22.1097 C   0  0  1  0  0  0  0  0  0  0  0  0
  -19.9587  -23.5707   19.7124 C   0  0  2  0  0  0  0  0  0  0  0  0
  -20.3410  -26.4423   23.5101 C   0  0  0  0  0  0  0  0  0  0  0  0
  -26.0754  -11.1150   19.7753 N   0  0  0  0  0  0  0  0  0  0  0  0
  -26.7354  -11.3983   18.6395 N   0  0  0  0  0  0  0  0  0  0  0  0
  -30.3013  -22.0806   20.5537 N   0  0  0  0  0  0  0  0  0  0  0  0
  -22.4220  -28.0612   21.0783 N   0  0  0  0  0  0  0  0  0  0  0  0
  -28.9340  -14.3174   19.7779 N   0  0  0  0  0  0  0  0  0  0  0  0
  -26.7521  -10.9754   16.3089 N   0  0  0  0  0  0  0  0  0  0  0  0
  -24.5983   -7.9209   16.9614 N   0  0  0  0  0  0  0  0  0  0  0  0
  -29.8700  -16.4755   19.9475 N   0  0  0  0  0  0  0  0  0  0  0  0
  -22.5370  -31.5752   21.6853 N   0  0  0  0  0  0  0  0  0  0  0  0
  -20.2961  -25.4295   21.1914 N   0  0  0  0  0  0  0  0  0  0  0  0
  -20.7068  -22.9750   18.5694 N   0  3  0  0  0  0  0  0  0  0  0  0
  -28.2649  -22.5578   19.4948 O   0  0  0  0  0  0  0  0  0  0  0  0
  -23.2445   -9.7378   16.6084 O   0  0  0  0  0  0  0  0  0  0  0  0
  -23.6409  -29.7822   22.6797 O   0  0  0  0  0  0  0  0  0  0  0  0
  -20.1026  -28.2877   21.1504 O   0  0  0  0  0  0  0  0  0  0  0  0
  -22.0679  -23.9811   20.8170 O   0  0  0  0  0  0  0  0  0  0  0  0
  -27.5677  -16.1609   20.0876 O   0  0  0  0  0  0  0  0  0  0  0  0
  -21.4303   -8.2333   23.0419 O   0  0  0  0  0  0  0  0  0  0  0  0
  -28.3705  -26.5354   20.4947 O   0  0  0  0  0  0  0  0  0  1  0  0
  -21.9601   -2.9380   24.4852 F   0  0  0  0  0  0  0  0  0  0  0  0
  -32.3440  -17.7601   19.8937 F   0  0  0  0  0  0  0  0  0  0  0  0
  -21.8691   -7.5183   25.6761 F   0  0  0  0  0  0  0  0  0  0  0  0
  1  2  1  0  0  0  0
  1  5  2  0  0  0  0
  2  6  2  0  0  0  0
  3 10  2  0  0  0  0
  3 18  1  0  0  0  0
  4 11  1  0  0  0  0
  4 18  2  0  0  0  0
  5 20  1  0  0  0  0
  6 22  1  0  0  0  0
  7 12  2  0  0  0  0
  7 21  1  0  0  0  0
  8  9  2  0  0  0  0
  8 24  1  0  0  0  0
  9 25  1  0  0  0  0
 10 26  1  0  0  0  0
 11 26  2  0  0  0  0
 12 27  1  0  0  0  0
 13 14  2  0  0  0  0
 13 28  1  0  0  0  0
 14 29  1  0  0  0  0
 15 23  1  0  0  0  0
 15 27  2  0  0  0  0
 16 24  2  0  0  0  0
 16 30  1  0  0  0  0
 17 29  2  0  0  0  0
 17 31  1  0  0  0  0
 18 32  1  0  0  0  0
 19 32  1  0  0  0  0
 19 33  2  0  0  0  0
 19 39  1  0  0  0  0
 20 22  2  0  0  0  0
 20 44  1  0  0  0  0
 21 23  2  0  0  0  0
 21 45  1  0  0  0  0
 22 55  1  0  0  0  0
 23 46  1  0  0  0  0
 24 68  1  0  0  0  0
 25 30  2  0  0  0  0
 25 73  1  0  0  0  0
 26 83  1  0  0  0  0
 27 84  1  0  0  0  0
 28 31  2  0  0  0  0
 28 83  1  0  0  0  0
 29 85  1  0  0  0  0
 30 86  1  0  0  0  0
 31 87  1  0  0  0  0
 32 66  2  0  0  0  0
 33 67  1  0  0  0  0
 33 71  1  0  0  0  0
 34 35  1  0  0  0  0
 34 38  2  0  0  0  0
 34 47  1  0  0  0  0
 35 68  1  0  0  0  0
 35 77  2  0  0  0  0
 36 37  2  0  0  0  0
 36 47  1  0  0  0  0
 36 48  1  0  0  0  0
 38 84  1  0  0  0  0
 39 72  1  0  0  0  0
 39 78  2  0  0  0  0
 40 56  1  0  0  0  0
 40 74  1  0  0  0  0
 40 79  2  0  0  0  0
 41 63  1  0  0  0  0
 41 69  1  0  0  0  0
 41 80  2  0  0  0  0
 42 64  1  0  0  0  0
 42 75  1  0  0  0  0
 42 81  2  0  0  0  0
 43 70  1  0  0  0  0
 43 73  1  0  0  0  0
 43 82  2  0  0  0  0
 44 49  1  0  0  0  0
 45 56  1  0  0  0  0
 46 69  1  0  0  0  0
 48 68  1  0  0  0  0
 49 51  1  0  0  0  0
 50 52  1  0  0  0  0
 50 53  1  0  0  0  0
 51 55  1  0  0  0  0
 52 57  1  0  0  0  0
 53 70  1  0  0  0  0
 54 57  1  0  0  0  0
 54 70  1  0  0  0  0
 55 74  1  0  0  0  0
 56 69  1  0  0  0  0
 57 67  1  0  0  0  0
 58 64  1  0  0  0  0
 59 65  1  0  0  0  0
 60 65  1  0  0  0  0
 61 65  1  0  0  0  0
 62 76  1  0  0  0  0
 63 65  1  0  0  0  0
 63 75  1  0  0  0  0
 64 76  1  0  0  0  0
 66 67  1  0  0  0  0
M  CHG  1  76   1
M  ISO  4  38 101  43 100  73 100  84 101
M  END
> <Batch ID>
0081

> <Smiles>
C=C1CC(=[101CH:1][101O:1]c2ccc3c(c2)CN(C(=O)C(NC(=O)C(C)NC)C(C)(C)C)C(C(=O)NC2CCCc4ccccc42)C3)C(=O)N(c2ccc([100NH:0][100C:0](=O)N3CCCC(n4nc(-c5ccc(Oc6ccc(F)cc6F)cc5)c(C(N)=O)c4N)C3)c(F)c2)C1

> <Shape>
0.286

> <Color>
0.108

> <Negative vol penalty>
0.000

$$$$

  -OEChem-04052300043D

 88 97  0     1  0  0  0  0  0999 V2000
  -24.4419  -10.5975   17.8130 C   0  0  0  0  0  0  0  0  0  0  0  0
  -23.8284  -11.8044   17.4930 C   0  0  0  0  0  0  0  0  0  0  0  0
  -18.1150  -28.0019   22.5687 C   0  0  0  0  0  0  0  0  0  0  0  0
  -28.4335  -24.6798   19.7675 C   0  0  0  0  0  0  0  0  0  0  0  0
  -29.3451  -26.5231   18.4993 C   0  0  0  0  0  0  0  0  0  0  0  0
  -18.9940  -29.0848   22.5543 C   0  0  0  0  0  0  0  0  0  0  0  0
  -25.1157  -10.4593   19.0258 C   0  0  0  0  0  0  0  0  0  0  0  0
  -23.8873  -12.8735   18.3863 C   0  0  0  0  0  0  0  0  0  0  0  0
  -24.1789  -20.0300   18.5167 C   0  0  0  0  0  0  0  0  0  0  0  0
  -18.6107  -26.7027   22.6789 C   0  0  0  0  0  0  0  0  0  0  0  0
  -29.6230  -23.9722   19.5941 C   0  0  0  0  0  0  0  0  0  0  0  0
  -30.5347  -25.8155   18.3260 C   0  0  0  0  0  0  0  0  0  0  0  0
  -23.5326  -21.1240   19.0904 C   0  0  0  0  0  0  0  0  0  0  0  0
  -33.6797  -24.3507   17.2428 C   0  0  0  0  0  0  0  0  0  0  0  0
  -34.2478  -24.3398   15.9690 C   0  0  0  0  0  0  0  0  0  0  0  0
  -20.8644  -27.5694   22.7604 C   0  0  0  0  0  0  0  0  0  0  0  0
  -24.7920  -20.7952   21.1214 C   0  0  0  0  0  0  0  0  0  0  0  0
  -32.2514  -23.3030   15.0876 C   0  0  0  0  0  0  0  0  0  0  0  0
  -28.2946  -25.9552   19.2201 C   0  0  0  0  0  0  0  0  0  0  0  0
  -20.3687  -28.8686   22.6502 C   0  0  0  0  0  0  0  0  0  0  0  0
  -25.7785  -26.3003   18.9795 C   0  0  0  0  0  0  0  0  0  0  0  0
  -25.1911  -11.5303   19.9301 C   0  0  0  0  0  0  0  0  0  0  0  0
  -25.1303  -19.3024   19.2460 C   0  0  0  0  0  0  0  0  0  0  0  0
  -24.5615  -12.7491   19.6129 C   0  0  0  0  0  0  0  0  0  0  0  0
  -25.4508  -19.6939   20.5537 C   0  0  0  0  0  0  0  0  0  0  0  0
  -19.9853  -26.4865   22.7748 C   0  0  0  0  0  0  0  0  0  0  0  0
  -30.6736  -24.5401   18.8734 C   0  0  0  0  0  0  0  0  0  0  0  0
  -23.8370  -21.5050   20.3940 C   0  0  0  0  0  0  0  0  0  0  0  0
  -32.3975  -23.8377   17.4391 C   0  0  0  0  0  0  0  0  0  0  0  0
  -33.5337  -23.8159   14.8913 C   0  0  0  0  0  0  0  0  0  0  0  0
  -31.6833  -23.3139   16.3615 C   0  0  0  0  0  0  0  0  0  0  0  0
  -27.0659  -26.6864   19.3983 C   0  0  0  0  0  0  0  0  0  0  0  0
  -24.9631  -27.3291   19.3836 C   0  0  0  0  0  0  0  0  0  0  0  0
  -20.7022  -22.9583   23.3758 C   0  0  0  0  0  0  0  0  0  0  0  0
  -21.8161  -23.3289   22.7395 C   0  0  0  0  0  0  0  0  0  0  0  0
  -19.8153  -24.1371   23.4772 C   0  0  0  0  0  0  0  0  0  0  0  0
  -21.7064  -24.7681   22.4184 C   0  0  0  0  0  0  0  0  0  0  0  0
  -21.3048  -30.0243   22.6348 C   0  0  0  0  0  0  0  0  0  0  0  0
  -25.3573  -25.1175   18.2872 C   0  0  0  0  0  0  0  0  0  0  0  0
  -25.3640  -16.2979   20.2569 C   0  0  0  0  0  0  0  0  0  0  0  0
  -28.3250  -17.2492   21.1788 C   0  0  0  0  0  0  0  0  0  0  0  0
  -30.4005  -19.8091   22.0653 C   0  0  0  0  0  0  0  0  0  0  0  0
  -23.3266  -30.9608   23.2283 C   0  0  0  0  0  0  0  0  0  0  0  0
  -25.8902  -11.3184   21.2496 C   0  0  0  0  0  0  0  0  0  0  0  0
  -25.8380  -18.1411   18.6035 C   0  0  0  0  0  0  0  0  0  0  0  0
  -26.4794  -18.9585   21.3721 C   0  0  0  0  0  0  0  0  0  0  0  0
  -26.2262  -12.6180   21.9765 C   0  0  0  0  0  0  0  0  0  0  0  0
  -26.0728  -31.9313   21.1603 C   0  0  0  0  0  0  0  0  0  0  0  0
  -25.0238  -13.5567   21.9751 C   0  0  0  0  0  0  0  0  0  0  0  0
  -26.4873  -30.6166   20.4966 C   0  0  0  0  0  0  0  0  0  0  0  0
  -25.6176  -31.7151   22.6013 C   0  0  0  0  0  0  0  0  0  0  0  0
  -24.9560  -29.3849   22.0917 C   0  0  0  0  0  0  0  0  0  0  0  0
  -24.6246  -13.9397   20.5449 C   0  0  1  0  0  0  0  0  0  0  0  0
  -26.4164  -17.1588   19.6173 C   0  0  1  0  0  0  0  0  0  0  0  0
  -25.3785  -29.5552   20.6230 C   0  0  2  0  0  0  0  0  0  0  0  0
  -20.2980  -21.6403   23.9239 C   0  0  0  0  0  0  0  0  0  0  0  0
  -20.8952  -31.2630   21.8619 C   0  0  0  0  0  0  0  0  0  0  0  0
  -32.5409  -20.9634   22.6850 C   0  0  0  0  0  0  0  0  0  0  0  0
  -27.6538  -16.2105   23.9681 C   0  0  0  0  0  0  0  0  0  0  0  0
  -29.5937  -17.5255   24.8488 C   0  0  0  0  0  0  0  0  0  0  0  0
  -29.9762  -15.6976   23.1949 C   0  0  0  0  0  0  0  0  0  0  0  0
  -31.0856  -20.3122   19.2304 C   0  0  0  0  0  0  0  0  0  0  0  0
  -23.0232  -22.5457   22.3715 C   0  0  0  0  0  0  0  0  0  1  0  0
  -28.9110  -17.8589   22.4293 C   0  0  1  0  0  0  0  0  0  0  0  0
  -31.8061  -20.1675   21.6176 C   0  0  2  0  0  0  0  0  0  0  0  0
  -29.0128  -16.8360   23.5958 C   0  0  0  0  0  0  0  0  0  0  0  0
  -27.0729  -27.8682   20.0206 N   0  0  0  0  0  0  0  0  0  0  0  0
  -22.4383  -29.9086   23.2630 N   0  0  0  0  0  0  0  0  0  0  0  0
  -25.7799  -28.2337   19.9957 N   0  0  0  0  0  0  0  0  0  0  0  0
  -20.4792  -25.1914   22.8850 N   0  0  0  0  0  0  0  0  0  0  0  0
  -27.1395  -17.8260   20.7018 N   0  0  0  0  0  0  0  0  0  0  0  0
  -24.5837  -30.6831   22.6668 N   0  0  0  0  0  0  0  0  0  0  0  0
  -23.6343  -27.5391   19.2715 N   0  0  0  0  0  0  0  0  0  0  0  0
  -25.3420  -25.1333   16.8858 N   0  0  0  0  0  0  0  0  0  0  0  0
  -25.5237  -14.9457   20.0214 N   0  0  0  0  0  0  0  0  0  0  0  0
  -30.1872  -18.4472   22.0373 N   0  0  0  0  0  0  0  0  0  0  0  0
  -31.7606  -20.9831   20.3712 N   0  3  0  0  0  0  0  0  0  0  0  0
  -18.7121  -24.1226   24.0001 O   0  0  0  0  0  0  0  0  0  0  0  0
  -22.5714  -25.4106   21.8442 O   0  0  0  0  0  0  0  0  0  0  0  0
  -24.9894  -24.0829   18.8936 O   0  0  0  0  0  0  0  0  0  0  0  0
  -24.4740  -16.8216   20.9166 O   0  0  0  0  0  0  0  0  0  0  0  0
  -28.9020  -16.3008   20.6409 O   0  0  0  0  0  0  0  0  0  0  0  0
  -29.5756  -20.6528   22.4093 O   0  0  0  0  0  0  0  0  0  0  0  0
  -23.0368  -32.0674   23.6854 O   0  0  0  0  0  0  0  0  0  0  0  0
  -31.8345  -23.8500   18.7042 O   0  0  0  0  0  0  0  0  0  0  0  0
  -23.2072  -22.5720   20.9566 O   0  0  0  0  0  0  0  0  0  1  0  0
  -34.0787  -23.8069   13.6678 F   0  0  0  0  0  0  0  0  0  0  0  0
  -30.4507  -22.8207   16.5436 F   0  0  0  0  0  0  0  0  0  0  0  0
  1  2  1  0  0  0  0
  1  7  2  0  0  0  0
  2  8  2  0  0  0  0
  3  6  2  0  0  0  0
  3 10  1  0  0  0  0
  4 11  2  0  0  0  0
  4 19  1  0  0  0  0
  5 12  1  0  0  0  0
  5 19  2  0  0  0  0
  6 20  1  0  0  0  0
  7 22  1  0  0  0  0
  8 24  1  0  0  0  0
  9 13  2  0  0  0  0
  9 23  1  0  0  0  0
 10 26  2  0  0  0  0
 11 27  1  0  0  0  0
 12 27  2  0  0  0  0
 13 28  1  0  0  0  0
 14 15  2  0  0  0  0
 14 29  1  0  0  0  0
 15 30  1  0  0  0  0
 16 20  2  0  0  0  0
 16 26  1  0  0  0  0
 17 25  1  0  0  0  0
 17 28  2  0  0  0  0
 18 30  2  0  0  0  0
 18 31  1  0  0  0  0
 19 32  1  0  0  0  0
 20 38  1  0  0  0  0
 21 32  1  0  0  0  0
 21 33  2  0  0  0  0
 21 39  1  0  0  0  0
 22 24  2  0  0  0  0
 22 44  1  0  0  0  0
 23 25  2  0  0  0  0
 23 45  1  0  0  0  0
 24 53  1  0  0  0  0
 25 46  1  0  0  0  0
 26 70  1  0  0  0  0
 27 85  1  0  0  0  0
 28 86  1  0  0  0  0
 29 31  2  0  0  0  0
 29 85  1  0  0  0  0
 30 87  1  0  0  0  0
 31 88  1  0  0  0  0
 32 67  2  0  0  0  0
 33 69  1  0  0  0  0
 33 73  1  0  0  0  0
 34 35  2  0  0  0  0
 34 36  1  0  0  0  0
 34 56  1  0  0  0  0
 35 37  1  0  0  0  0
 35 63  1  0  0  0  0
 36 70  1  0  0  0  0
 36 78  2  0  0  0  0
 37 70  1  0  0  0  0
 37 79  2  0  0  0  0
 38 57  1  0  0  0  0
 38 68  2  0  0  0  0
 39 74  1  0  0  0  0
 39 80  2  0  0  0  0
 40 54  1  0  0  0  0
 40 75  1  0  0  0  0
 40 81  2  0  0  0  0
 41 64  1  0  0  0  0
 41 71  1  0  0  0  0
 41 82  2  0  0  0  0
 42 65  1  0  0  0  0
 42 76  1  0  0  0  0
 42 83  2  0  0  0  0
 43 68  1  0  0  0  0
 43 72  1  0  0  0  0
 43 84  2  0  0  0  0
 44 47  1  0  0  0  0
 45 54  1  0  0  0  0
 46 71  1  0  0  0  0
 47 49  1  0  0  0  0
 48 50  1  0  0  0  0
 48 51  1  0  0  0  0
 49 53  1  0  0  0  0
 50 55  1  0  0  0  0
 51 72  1  0  0  0  0
 52 55  1  0  0  0  0
 52 72  1  0  0  0  0
 53 75  1  0  0  0  0
 54 71  1  0  0  0  0
 55 69  1  0  0  0  0
 58 65  1  0  0  0  0
 59 66  1  0  0  0  0
 60 66  1  0  0  0  0
 61 66  1  0  0  0  0
 62 77  1  0  0  0  0
 63 86  1  0  0  0  0
 64 66  1  0  0  0  0
 64 76  1  0  0  0  0
 65 77  1  0  0  0  0
 67 69  1  0  0  0  0
M  CHG  1  77   1
M  ISO  4  43 100  63 101  68 100  86 101
M  END
> <Batch ID>
0081

> <Smiles>
C=C([100NH:0][100C:0](=O)N1CCCC(n2nc(-c3ccc(Oc4ccc(F)cc4F)cc3)c(C(N)=O)c2N)C1)c1cccc(N2C(=O)C(C)=C([101CH2:1][101O:1]c3ccc4c(c3)CN(C(=O)C(NC(=O)C(C)NC)C(C)(C)C)C(C(=O)NC3CCCc5ccccc53)C4)C2=O)c1

> <Shape>
0.222

> <Color>
0.082

> <Negative vol penalty>
0.000

$$$$

  -OEChem-04052300043D

 87 96  0     1  0  0  0  0  0999 V2000
  -24.3506  -35.0031   19.8488 C   0  0  0  0  0  0  0  0  0  0  0  0
  -25.1802  -33.9001   20.0234 C   0  0  0  0  0  0  0  0  0  0  0  0
  -32.2252  -19.5916   18.7391 C   0  0  0  0  0  0  0  0  0  0  0  0
  -21.7389  -10.3785   20.6277 C   0  0  0  0  0  0  0  0  0  0  0  0
  -23.4540   -9.9590   22.2767 C   0  0  0  0  0  0  0  0  0  0  0  0
  -31.3211  -18.9445   19.5814 C   0  0  0  0  0  0  0  0  0  0  0  0
  -23.1499  -35.0891   20.5522 C   0  0  0  0  0  0  0  0  0  0  0  0
  -24.8100  -32.8828   20.9024 C   0  0  0  0  0  0  0  0  0  0  0  0
  -25.5398  -28.2674   18.9505 C   0  0  0  0  0  0  0  0  0  0  0  0
  -32.1184  -20.9659   18.5254 C   0  0  0  0  0  0  0  0  0  0  0  0
  -21.4927   -9.0087   20.5352 C   0  0  0  0  0  0  0  0  0  0  0  0
  -23.2079   -8.5892   22.1842 C   0  0  0  0  0  0  0  0  0  0  0  0
  -26.8451  -27.7776   18.9448 C   0  0  0  0  0  0  0  0  0  0  0  0
  -20.9237   -6.3865   23.3467 C   0  0  0  0  0  0  0  0  0  0  0  0
  -20.8332   -5.6641   24.5364 C   0  0  0  0  0  0  0  0  0  0  0  0
  -30.2032  -21.0458   19.9960 C   0  0  0  0  0  0  0  0  0  0  0  0
  -26.3548  -26.4653   20.9086 C   0  0  0  0  0  0  0  0  0  0  0  0
  -22.6917   -4.2859   23.8409 C   0  0  0  0  0  0  0  0  0  0  0  0
  -22.7196  -10.8537   21.4984 C   0  0  0  0  0  0  0  0  0  0  0  0
  -30.3101  -19.6715   20.2098 C   0  0  0  0  0  0  0  0  0  0  0  0
  -22.3601  -13.1861   22.4670 C   0  0  0  0  0  0  0  0  0  0  0  0
  -22.7602  -34.0679   21.4329 C   0  0  0  0  0  0  0  0  0  0  0  0
  -24.6338  -27.8675   19.9433 C   0  0  0  0  0  0  0  0  0  0  0  0
  -23.6036  -32.9559   21.6192 C   0  0  0  0  0  0  0  0  0  0  0  0
  -25.0378  -26.9495   20.9232 C   0  0  0  0  0  0  0  0  0  0  0  0
  -31.1073  -21.6930   19.1537 C   0  0  0  0  0  0  0  0  0  0  0  0
  -22.2272   -8.1140   21.3134 C   0  0  0  0  0  0  0  0  0  0  0  0
  -27.2536  -26.8786   19.9256 C   0  0  0  0  0  0  0  0  0  0  0  0
  -21.8981   -6.0586   22.4040 C   0  0  0  0  0  0  0  0  0  0  0  0
  -21.7172   -4.6138   24.7835 C   0  0  0  0  0  0  0  0  0  0  0  0
  -22.7821   -5.0083   22.6511 C   0  0  0  0  0  0  0  0  0  0  0  0
  -22.9747  -12.2686   21.5940 C   0  0  0  0  0  0  0  0  0  0  0  0
  -22.9456  -14.3916   22.1660 C   0  0  0  0  0  0  0  0  0  0  0  0
  -31.4947  -25.2559   18.5065 C   0  0  0  0  0  0  0  0  0  0  0  0
  -30.1791  -25.1900   18.7000 C   0  0  0  0  0  0  0  0  0  0  0  0
  -32.0573  -23.9070   18.6625 C   0  0  0  0  0  0  0  0  0  0  0  0
  -29.8238  -23.7839   18.9736 C   0  0  0  0  0  0  0  0  0  0  0  0
  -29.3520  -18.9868   21.1027 C   0  0  0  0  0  0  0  0  0  0  0  0
  -21.3503  -12.9683   23.4613 C   0  0  0  0  0  0  0  0  0  0  0  0
  -23.0145  -29.3606   22.2351 C   0  0  0  0  0  0  0  0  0  0  0  0
  -21.6575  -26.4421   22.6391 C   0  0  0  0  0  0  0  0  0  0  0  0
  -21.8939  -23.0591   22.2568 C   0  0  0  0  0  0  0  0  0  0  0  0
  -27.6090  -17.2258   21.2963 C   0  0  0  0  0  0  0  0  0  0  0  0
  -21.4756  -34.2277   22.2069 C   0  0  0  0  0  0  0  0  0  0  0  0
  -23.2215  -28.3845   19.9199 C   0  0  0  0  0  0  0  0  0  0  0  0
  -24.0978  -26.4731   21.9992 C   0  0  0  0  0  0  0  0  0  0  0  0
  -20.9783  -32.9290   22.8365 C   0  0  0  0  0  0  0  0  0  0  0  0
  -25.9112  -15.7683   18.3382 C   0  0  0  0  0  0  0  0  0  0  0  0
  -22.1219  -32.2041   23.5389 C   0  0  0  0  0  0  0  0  0  0  0  0
  -25.0000  -14.7453   19.0075 C   0  0  0  0  0  0  0  0  0  0  0  0
  -27.2153  -15.9717   19.1083 C   0  0  0  0  0  0  0  0  0  0  0  0
  -26.0866  -15.2944   21.2162 C   0  0  0  0  0  0  0  0  0  0  0  0
  -23.2249  -31.8203   22.5451 C   0  0  1  0  0  0  0  0  0  0  0  0
  -22.5337  -28.3056   21.2793 C   0  0  1  0  0  0  0  0  0  0  0  0
  -24.7528  -15.1265   20.4741 C   0  0  2  0  0  0  0  0  0  0  0  0
  -20.6439  -20.9324   22.7174 C   0  0  0  0  0  0  0  0  0  0  0  0
  -22.4286  -26.6299   25.5853 C   0  0  0  0  0  0  0  0  0  0  0  0
  -22.0331  -24.1649   25.7741 C   0  0  0  0  0  0  0  0  0  0  0  0
  -20.1525  -25.6847   25.1609 C   0  0  0  0  0  0  0  0  0  0  0  0
  -21.7485  -22.3847   19.3787 C   0  0  0  0  0  0  0  0  0  0  0  0
  -29.1746  -26.2832   18.6564 C   0  0  0  0  0  0  0  0  0  1  0  0
  -21.9737  -25.2217   23.4696 C   0  0  1  0  0  0  0  0  0  0  0  0
  -20.9154  -22.0366   21.7076 C   0  0  2  0  0  0  0  0  0  0  0  0
  -21.6655  -25.4356   24.9785 C   0  0  0  0  0  0  0  0  0  0  0  0
  -23.8810  -12.8420   20.7979 N   0  0  0  0  0  0  0  0  0  0  0  0
  -23.8402  -14.1329   21.1695 N   0  0  0  0  0  0  0  0  0  0  0  0
  -31.0016  -23.0627   18.9401 N   0  0  0  0  0  0  0  0  0  0  0  0
  -22.7291  -27.0122   21.9374 N   0  0  0  0  0  0  0  0  0  0  0  0
  -26.9792  -16.2375   20.5340 N   0  0  0  0  0  0  0  0  0  0  0  0
  -22.7772  -15.6370   22.6590 N   0  0  0  0  0  0  0  0  0  0  0  0
  -20.8587  -11.6681   23.6406 N   0  0  0  0  0  0  0  0  0  0  0  0
  -28.5969  -18.0065   20.5831 N   0  0  0  0  0  0  0  0  0  0  0  0
  -22.8347  -30.6538   21.7826 N   0  0  0  0  0  0  0  0  0  0  0  0
  -21.2442  -24.1141   22.8618 N   0  0  0  0  0  0  0  0  0  0  0  0
  -29.2940  -19.3913   22.3714 N   0  3  0  0  0  0  0  0  0  0  0  0
  -21.4577  -21.4153   20.4663 N   0  3  0  0  0  0  0  0  0  0  0  0
  -33.2455  -23.6516   18.5523 O   0  0  0  0  0  0  0  0  0  0  0  0
  -28.6878  -23.3906   19.1852 O   0  0  0  0  0  0  0  0  0  0  0  0
  -20.8855  -13.9019   24.1583 O   0  0  0  0  0  0  0  0  0  0  0  0
  -23.5105  -29.0261   23.3046 O   0  0  0  0  0  0  0  0  0  0  0  0
  -20.5007  -26.8694   22.6083 O   0  0  0  0  0  0  0  0  0  0  0  0
  -23.1127  -22.9325   22.1620 O   0  0  0  0  0  0  0  0  0  0  0  0
  -27.4091  -17.4444   22.4864 O   0  0  0  0  0  0  0  0  0  0  0  0
  -21.9871   -6.7773   21.2236 O   0  0  0  0  0  0  0  0  0  0  0  0
  -28.5273  -26.3995   19.9227 O   0  0  0  0  0  0  0  0  0  1  0  0
  -21.6312   -3.9212   25.9268 F   0  0  0  0  0  0  0  0  0  0  0  0
  -23.7211   -4.6894   21.7497 F   0  0  0  0  0  0  0  0  0  0  0  0
  1  2  1  0  0  0  0
  1  7  2  0  0  0  0
  2  8  2  0  0  0  0
  3  6  1  0  0  0  0
  3 10  2  0  0  0  0
  4 11  2  0  0  0  0
  4 19  1  0  0  0  0
  5 12  1  0  0  0  0
  5 19  2  0  0  0  0
  6 20  2  0  0  0  0
  7 22  1  0  0  0  0
  8 24  1  0  0  0  0
  9 13  2  0  0  0  0
  9 23  1  0  0  0  0
 10 26  1  0  0  0  0
 11 27  1  0  0  0  0
 12 27  2  0  0  0  0
 13 28  1  0  0  0  0
 14 15  2  0  0  0  0
 14 29  1  0  0  0  0
 15 30  1  0  0  0  0
 16 20  1  0  0  0  0
 16 26  2  0  0  0  0
 17 25  1  0  0  0  0
 17 28  2  0  0  0  0
 18 30  2  0  0  0  0
 18 31  1  0  0  0  0
 19 32  1  0  0  0  0
 20 38  1  0  0  0  0
 21 32  1  0  0  0  0
 21 33  2  0  0  0  0
 21 39  1  0  0  0  0
 22 24  2  0  0  0  0
 22 44  1  0  0  0  0
 23 25  2  0  0  0  0
 23 45  1  0  0  0  0
 24 53  1  0  0  0  0
 25 46  1  0  0  0  0
 26 67  1  0  0  0  0
 27 84  1  0  0  0  0
 28 85  1  0  0  0  0
 29 31  2  0  0  0  0
 29 84  1  0  0  0  0
 30 86  1  0  0  0  0
 31 87  1  0  0  0  0
 32 65  2  0  0  0  0
 33 66  1  0  0  0  0
 33 70  1  0  0  0  0
 34 35  2  0  0  0  0
 34 36  1  0  0  0  0
 35 37  1  0  0  0  0
 35 61  1  0  0  0  0
 36 67  1  0  0  0  0
 36 77  2  0  0  0  0
 37 67  1  0  0  0  0
 37 78  2  0  0  0  0
 38 72  1  0  0  0  0
 38 75  2  0  0  0  0
 39 71  1  0  0  0  0
 39 79  2  0  0  0  0
 40 54  1  0  0  0  0
 40 73  1  0  0  0  0
 40 80  2  0  0  0  0
 41 62  1  0  0  0  0
 41 68  1  0  0  0  0
 41 81  2  0  0  0  0
 42 63  1  0  0  0  0
 42 74  1  0  0  0  0
 42 82  2  0  0  0  0
 43 69  1  0  0  0  0
 43 72  1  0  0  0  0
 43 83  2  0  0  0  0
 44 47  1  0  0  0  0
 45 54  1  0  0  0  0
 46 68  1  0  0  0  0
 47 49  1  0  0  0  0
 48 50  1  0  0  0  0
 48 51  1  0  0  0  0
 49 53  1  0  0  0  0
 50 55  1  0  0  0  0
 51 69  1  0  0  0  0
 52 55  1  0  0  0  0
 52 69  1  0  0  0  0
 53 73  1  0  0  0  0
 54 68  1  0  0  0  0
 55 66  1  0  0  0  0
 56 63  1  0  0  0  0
 57 64  1  0  0  0  0
 58 64  1  0  0  0  0
 59 64  1  0  0  0  0
 60 76  1  0  0  0  0
 61 85  1  0  0  0  0
 62 64  1  0  0  0  0
 62 74  1  0  0  0  0
 63 76  1  0  0  0  0
 65 66  1  0  0  0  0
M  CHG  2  75   1  76   1
M  ISO  4  43 100  61 101  72 100  85 101
M  END
> <Batch ID>
0081

> <Smiles>
CNC(C)C(=O)NC(C(=O)N1Cc2cc([101O:1][101CH2:1]C3=CC(=O)N(c4cccc(C(=N)[100NH:0][100C:0](=O)N5CCCC(n6nc(-c7ccc(Oc8ccc(F)cc8F)cc7)c(C(N)=O)c6N)C5)c4)C3=O)ccc2CC1C(=O)NC1CCCc2ccccc21)C(C)(C)C

> <Shape>
0.252

> <Color>
0.102

> <Negative vol penalty>
0.000

$$$$

  -OEChem-04052300043D

 84 93  0     1  0  0  0  0  0999 V2000
  -29.0275  -35.3506   27.0861 C   0  0  0  0  0  0  0  0  0  0  0  0
  -29.6290  -34.3089   26.3872 C   0  0  0  0  0  0  0  0  0  0  0  0
  -22.5149  -10.5898   20.7015 C   0  0  0  0  0  0  0  0  0  0  0  0
  -24.1001  -10.0575   22.4453 C   0  0  0  0  0  0  0  0  0  0  0  0
  -27.7889  -35.1556   27.6960 C   0  0  0  0  0  0  0  0  0  0  0  0
  -28.9927  -33.0712   26.2987 C   0  0  0  0  0  0  0  0  0  0  0  0
  -28.1911  -27.5113   21.8534 C   0  0  0  0  0  0  0  0  0  0  0  0
  -21.7038   -9.5336   21.1164 C   0  0  0  0  0  0  0  0  0  0  0  0
  -23.2889   -9.0014   22.8603 C   0  0  0  0  0  0  0  0  0  0  0  0
  -28.3115  -26.1224   21.8331 C   0  0  0  0  0  0  0  0  0  0  0  0
  -20.4706   -8.5935   24.6801 C   0  0  0  0  0  0  0  0  0  0  0  0
  -20.2469   -8.4494   26.0493 C   0  0  0  0  0  0  0  0  0  0  0  0
  -26.1373  -25.9250   22.8593 C   0  0  0  0  0  0  0  0  0  0  0  0
  -21.2365   -6.2465   25.9792 C   0  0  0  0  0  0  0  0  0  0  0  0
  -28.7586  -18.2300   19.2216 C   0  0  0  0  0  0  0  0  0  0  0  0
  -23.7131  -10.8517   21.3659 C   0  0  0  0  0  0  0  0  0  0  0  0
  -24.2113  -13.3072   20.8864 C   0  0  0  0  0  0  0  0  0  0  0  0
  -27.1327  -33.9179   27.6067 C   0  0  0  0  0  0  0  0  0  0  0  0
  -27.0456  -28.1187   22.3876 C   0  0  0  0  0  0  0  0  0  0  0  0
  -27.7448  -32.8592   26.9091 C   0  0  0  0  0  0  0  0  0  0  0  0
  -26.0037  -27.3217   22.8828 C   0  0  0  0  0  0  0  0  0  0  0  0
  -22.0907   -8.7395   22.1958 C   0  0  0  0  0  0  0  0  0  0  0  0
  -27.2858  -25.3291   22.3387 C   0  0  0  0  0  0  0  0  0  0  0  0
  -21.0772   -7.5641   23.9604 C   0  0  0  0  0  0  0  0  0  0  0  0
  -20.6299   -7.2759   26.6989 C   0  0  0  0  0  0  0  0  0  0  0  0
  -21.4602   -6.3906   24.6099 C   0  0  0  0  0  0  0  0  0  0  0  0
  -29.4502  -17.0011   19.4257 C   0  0  0  0  0  0  0  0  0  0  0  0
  -24.5518  -11.9422   20.9374 C   0  0  0  0  0  0  0  0  0  0  0  0
  -29.6923  -16.7590   20.7600 C   0  0  0  0  0  0  0  0  0  0  0  0
  -25.3431  -13.9260   20.4144 C   0  0  0  0  0  0  0  0  0  0  0  0
  -28.4983  -18.8804   20.4078 C   0  0  0  0  0  0  0  0  0  0  0  0
  -27.6757  -22.0239   20.9728 C   0  0  0  0  0  0  0  0  0  0  0  0
  -27.8453  -21.1304   19.8263 C   0  0  0  0  0  0  0  0  0  0  0  0
  -27.5526  -23.3565   21.1106 C   0  0  0  0  0  0  0  0  0  1  0  0
  -22.9820  -13.9577   21.2348 C   0  0  0  0  0  0  0  0  0  0  0  0
  -30.3526  -15.6467   21.3626 C   0  0  0  0  0  0  0  0  0  0  0  0
  -30.9025  -14.5268   20.5647 C   0  0  0  0  0  0  0  0  0  0  0  0
  -26.4776  -30.0918   24.8141 C   0  0  0  0  0  0  0  0  0  0  0  0
  -23.4705  -30.0967   23.5976 C   0  0  0  0  0  0  0  0  0  0  0  0
  -21.0947  -28.5010   21.7385 C   0  0  0  0  0  0  0  0  0  0  0  0
  -25.8170  -33.7405   28.3224 C   0  0  0  0  0  0  0  0  0  0  0  0
  -26.9195  -29.6175   22.3778 C   0  0  0  0  0  0  0  0  0  0  0  0
  -24.7446  -27.9241   23.4488 C   0  0  0  0  0  0  0  0  0  0  0  0
  -27.7101  -20.8178   21.8832 C   0  0  0  0  0  0  0  0  0  0  0  0
  -25.0354  -32.5118   27.8646 C   0  0  0  0  0  0  0  0  0  0  0  0
  -29.5561  -12.0116   18.3928 C   0  0  0  0  0  0  0  0  0  0  0  0
  -25.9509  -31.2938   27.7906 C   0  0  0  0  0  0  0  0  0  0  0  0
  -28.1173  -11.8545   18.8838 C   0  0  0  0  0  0  0  0  0  0  0  0
  -30.5082  -12.3198   19.5437 C   0  0  0  0  0  0  0  0  0  0  0  0
  -28.6724  -13.3645   20.8426 C   0  0  0  0  0  0  0  0  0  0  0  0
  -27.0746  -31.5095   26.7697 C   0  0  1  0  0  0  0  0  0  0  0  0
  -25.9311  -30.1408   23.4153 C   0  0  1  0  0  0  0  0  0  0  0  0
  -27.6770  -13.0798   19.7043 C   0  0  2  0  0  0  0  0  0  0  0  0
  -18.7221  -28.7335   20.9549 C   0  0  0  0  0  0  0  0  0  0  0  0
  -22.4791  -29.3236   26.3778 C   0  0  0  0  0  0  0  0  0  0  0  0
  -20.3021  -28.6532   25.3388 C   0  0  0  0  0  0  0  0  0  0  0  0
  -21.0696  -31.0228   25.2027 C   0  0  0  0  0  0  0  0  0  0  0  0
  -21.9119  -28.5004   18.8940 C   0  0  0  0  0  0  0  0  0  0  0  0
  -22.2306  -29.2618   23.8086 C   0  0  1  0  0  0  0  0  0  0  0  0
  -20.1843  -28.9951   20.6288 C   0  0  2  0  0  0  0  0  0  0  0  0
  -21.5448  -29.5537   25.1732 C   0  0  0  0  0  0  0  0  0  0  0  0
  -25.8019  -11.7070   20.5300 N   0  0  0  0  0  0  0  0  0  0  0  0
  -30.5381  -15.5069   22.6629 N   0  0  0  0  0  0  0  0  0  0  0  0
  -26.2569  -12.9326   20.2186 N   0  0  0  0  0  0  0  0  0  0  0  0
  -27.8719  -20.0582   20.6561 N   0  0  0  0  0  0  0  0  0  0  0  0
  -30.0421  -13.4650   20.3231 N   0  0  0  0  0  0  0  0  0  0  0  0
  -24.6713  -29.3943   23.4227 N   0  0  0  0  0  0  0  0  0  0  0  0
  -25.6357  -15.2174   20.1518 N   0  0  0  0  0  0  0  0  0  0  0  0
  -22.8126  -14.4046   22.5523 N   0  0  0  0  0  0  0  0  0  0  0  0
  -26.5758  -31.3282   25.4233 N   0  0  0  0  0  0  0  0  0  0  0  0
  -21.3776  -29.4974   22.6487 N   0  0  0  0  0  0  0  0  0  0  0  0
  -20.5102  -28.3081   19.3470 N   0  3  0  0  0  0  0  0  0  0  0  0
  -27.9956  -21.2905   18.6326 O   0  0  0  0  0  0  0  0  0  0  0  0
  -22.0546  -14.1228   20.4064 O   0  0  0  0  0  0  0  0  0  0  0  0
  -32.0642  -14.6583   20.2020 O   0  0  0  0  0  0  0  0  0  0  0  0
  -26.7859  -29.0121   25.3049 O   0  0  0  0  0  0  0  0  0  0  0  0
  -23.3760  -31.3265   23.5812 O   0  0  0  0  0  0  0  0  0  0  0  0
  -21.5102  -27.3456   21.7945 O   0  0  0  0  0  0  0  0  0  0  0  0
  -21.2993   -7.7090   22.6012 O   0  0  0  0  0  0  0  0  0  0  0  0
  -27.4010  -23.9733   22.3207 O   0  0  0  0  0  0  0  0  0  1  0  0
  -20.4164   -7.1383   28.0140 F   0  0  0  0  0  0  0  0  0  0  0  0
  -22.0444   -5.3986   23.9240 F   0  0  0  0  0  0  0  0  0  0  0  0
  -29.8176  -16.1847   18.4362 F   0  0  0  0  0  0  0  0  0  0  0  0
  -29.0869  -18.0102   21.7601 S   0  0  0  0  0  0  0  0  0  0  0  0
  1  2  1  0  0  0  0
  1  5  2  0  0  0  0
  2  6  2  0  0  0  0
  3  8  2  0  0  0  0
  3 16  1  0  0  0  0
  4  9  1  0  0  0  0
  4 16  2  0  0  0  0
  5 18  1  0  0  0  0
  6 20  1  0  0  0  0
  7 10  2  0  0  0  0
  7 19  1  0  0  0  0
  8 22  1  0  0  0  0
  9 22  2  0  0  0  0
 10 23  1  0  0  0  0
 11 12  2  0  0  0  0
 11 24  1  0  0  0  0
 12 25  1  0  0  0  0
 13 21  1  0  0  0  0
 13 23  2  0  0  0  0
 14 25  2  0  0  0  0
 14 26  1  0  0  0  0
 15 27  1  0  0  0  0
 15 31  2  0  0  0  0
 16 28  1  0  0  0  0
 17 28  1  0  0  0  0
 17 30  2  0  0  0  0
 17 35  1  0  0  0  0
 18 20  2  0  0  0  0
 18 41  1  0  0  0  0
 19 21  2  0  0  0  0
 19 42  1  0  0  0  0
 20 51  1  0  0  0  0
 21 43  1  0  0  0  0
 22 79  1  0  0  0  0
 23 80  1  0  0  0  0
 24 26  2  0  0  0  0
 24 79  1  0  0  0  0
 25 81  1  0  0  0  0
 26 82  1  0  0  0  0
 27 29  2  0  0  0  0
 27 83  1  0  0  0  0
 28 62  2  0  0  0  0
 29 36  1  0  0  0  0
 29 84  1  0  0  0  0
 30 64  1  0  0  0  0
 30 68  1  0  0  0  0
 31 65  1  0  0  0  0
 31 84  1  0  0  0  0
 32 33  1  0  0  0  0
 32 34  2  0  0  0  0
 32 44  1  0  0  0  0
 33 65  1  0  0  0  0
 33 73  2  0  0  0  0
 34 80  1  0  0  0  0
 35 69  1  0  0  0  0
 35 74  2  0  0  0  0
 36 37  1  0  0  0  0
 36 63  2  0  0  0  0
 37 66  1  0  0  0  0
 37 75  2  0  0  0  0
 38 52  1  0  0  0  0
 38 70  1  0  0  0  0
 38 76  2  0  0  0  0
 39 59  1  0  0  0  0
 39 67  1  0  0  0  0
 39 77  2  0  0  0  0
 40 60  1  0  0  0  0
 40 71  1  0  0  0  0
 40 78  2  0  0  0  0
 41 45  1  0  0  0  0
 42 52  1  0  0  0  0
 43 67  1  0  0  0  0
 44 65  1  0  0  0  0
 45 47  1  0  0  0  0
 46 48  1  0  0  0  0
 46 49  1  0  0  0  0
 47 51  1  0  0  0  0
 48 53  1  0  0  0  0
 49 66  1  0  0  0  0
 50 53  1  0  0  0  0
 50 66  1  0  0  0  0
 51 70  1  0  0  0  0
 52 67  1  0  0  0  0
 53 64  1  0  0  0  0
 54 60  1  0  0  0  0
 55 61  1  0  0  0  0
 56 61  1  0  0  0  0
 57 61  1  0  0  0  0
 58 72  1  0  0  0  0
 59 61  1  0  0  0  0
 59 71  1  0  0  0  0
 60 72  1  0  0  0  0
 62 64  1  0  0  0  0
M  CHG  1  72   1
M  ISO  4  34 101  36 100  37 100  80 101
M  END
> <Batch ID>
0081

> <Smiles>
CNC(C)C(=O)NC(C(=O)N1Cc2cc([101O:1][101CH:1]=C3CN(c4cc(F)c([100C:0](=N)[100C:0](=O)N5CCCC(n6nc(-c7ccc(Oc8ccc(F)cc8F)cc7)c(C(N)=O)c6N)C5)s4)C3=O)ccc2CC1C(=O)NC1CCCc2ccccc21)C(C)(C)C

> <Shape>
0.324

> <Color>
0.172

> <Negative vol penalty>
0.000

$$$$

  -OEChem-04052300043D

 84 92  0     1  0  0  0  0  0999 V2000
  -15.3840  -24.4171   21.3109 C   0  0  0  0  0  0  0  0  0  0  0  0
  -16.7089  -23.9942   21.3468 C   0  0  0  0  0  0  0  0  0  0  0  0
  -32.6985  -17.4412   23.4456 C   0  0  0  0  0  0  0  0  0  0  0  0
  -23.0628   -9.8876   19.9431 C   0  0  0  0  0  0  0  0  0  0  0  0
  -23.8343   -9.8787   22.2326 C   0  0  0  0  0  0  0  0  0  0  0  0
  -31.9091  -18.3085   24.2006 C   0  0  0  0  0  0  0  0  0  0  0  0
  -15.0667  -25.7390   21.6204 C   0  0  0  0  0  0  0  0  0  0  0  0
  -17.7174  -24.8934   21.6913 C   0  0  0  0  0  0  0  0  0  0  0  0
  -21.0423  -22.9234   24.9638 C   0  0  0  0  0  0  0  0  0  0  0  0
  -32.1014  -16.5647   22.5396 C   0  0  0  0  0  0  0  0  0  0  0  0
  -22.3136   -8.7374   20.1911 C   0  0  0  0  0  0  0  0  0  0  0  0
  -23.0851   -8.7285   22.4806 C   0  0  0  0  0  0  0  0  0  0  0  0
  -22.0031  -22.0539   24.4495 C   0  0  0  0  0  0  0  0  0  0  0  0
  -19.8556   -7.9461   23.0956 C   0  0  0  0  0  0  0  0  0  0  0  0
  -19.1043   -7.9045   24.2701 C   0  0  0  0  0  0  0  0  0  0  0  0
  -29.9252  -17.4227   23.1438 C   0  0  0  0  0  0  0  0  0  0  0  0
  -23.6189  -23.8450   24.4562 C   0  0  0  0  0  0  0  0  0  0  0  0
  -20.3384   -5.9564   24.9905 C   0  0  0  0  0  0  0  0  0  0  0  0
  -23.8232  -10.4582   20.9639 C   0  0  0  0  0  0  0  0  0  0  0  0
  -30.5224  -18.2993   24.0498 C   0  0  0  0  0  0  0  0  0  0  0  0
  -24.1788  -12.9819   20.8548 C   0  0  0  0  0  0  0  0  0  0  0  0
  -16.0708  -26.6524   21.9782 C   0  0  0  0  0  0  0  0  0  0  0  0
  -21.3601  -24.2652   25.2184 C   0  0  0  0  0  0  0  0  0  0  0  0
  -17.4134  -26.2292   22.0046 C   0  0  0  0  0  0  0  0  0  0  0  0
  -22.6610  -24.7289   24.9762 C   0  0  0  0  0  0  0  0  0  0  0  0
  -30.7147  -16.5554   22.3887 C   0  0  0  0  0  0  0  0  0  0  0  0
  -22.3248   -8.1579   21.4598 C   0  0  0  0  0  0  0  0  0  0  0  0
  -23.2908  -22.5153   24.1929 C   0  0  0  0  0  0  0  0  0  0  0  0
  -20.8482   -6.9927   22.8685 C   0  0  0  0  0  0  0  0  0  0  0  0
  -19.3458   -6.9097   25.2176 C   0  0  0  0  0  0  0  0  0  0  0  0
  -21.0896   -5.9979   23.8159 C   0  0  0  0  0  0  0  0  0  0  0  0
  -24.5978  -11.6459   20.7082 C   0  0  0  0  0  0  0  0  0  0  0  0
  -25.2734  -13.7270   20.4897 C   0  0  0  0  0  0  0  0  0  0  0  0
  -26.3442  -20.6469   24.0179 C   0  0  0  0  0  0  0  0  0  0  0  0
  -25.3643  -21.4578   24.4233 C   0  0  0  0  0  0  0  0  0  1  0  0
  -29.6831  -19.2233   24.8543 C   0  0  0  0  0  0  0  0  0  0  0  0
  -22.9134  -13.5028   21.2827 C   0  0  0  0  0  0  0  0  0  0  0  0
  -27.5530  -20.4628   24.8658 C   0  0  0  0  0  0  0  0  0  0  0  0
  -20.3278  -27.0628   24.1175 C   0  0  0  0  0  0  0  0  0  0  0  0
  -22.2770  -28.2483   26.4235 C   0  0  0  0  0  0  0  0  0  0  0  0
  -24.9896  -27.7882   28.4426 C   0  0  0  0  0  0  0  0  0  0  0  0
  -30.7463  -14.7406   20.6418 C   0  0  0  0  0  0  0  0  0  0  0  0
  -15.6844  -28.0830   22.2586 C   0  0  0  0  0  0  0  0  0  0  0  0
  -20.3197  -25.1838   25.7983 C   0  0  0  0  0  0  0  0  0  0  0  0
  -23.0586  -26.1553   25.2514 C   0  0  0  0  0  0  0  0  0  0  0  0
  -16.7713  -28.8778   22.9779 C   0  0  0  0  0  0  0  0  0  0  0  0
  -29.6061  -12.3451   18.2671 C   0  0  0  0  0  0  0  0  0  0  0  0
  -18.1272  -28.6453   22.3189 C   0  0  0  0  0  0  0  0  0  0  0  0
  -28.1670  -12.0596   18.7026 C   0  0  0  0  0  0  0  0  0  0  0  0
  -30.5286  -12.5627   19.4652 C   0  0  0  0  0  0  0  0  0  0  0  0
  -28.6328  -13.2910   20.8598 C   0  0  0  0  0  0  0  0  0  0  0  0
  -18.5329  -27.1685   22.3976 C   0  0  1  0  0  0  0  0  0  0  0  0
  -20.6115  -26.6581   25.5364 C   0  0  1  0  0  0  0  0  0  0  0  0
  -27.6531  -13.1292   19.6861 C   0  0  2  0  0  0  0  0  0  0  0  0
  -26.3613  -28.9496   30.1940 C   0  0  0  0  0  0  0  0  0  0  0  0
  -23.5936  -29.9503   24.2602 C   0  0  0  0  0  0  0  0  0  0  0  0
  -25.5053  -30.3410   25.8290 C   0  0  0  0  0  0  0  0  0  0  0  0
  -23.2175  -31.1316   26.4321 C   0  0  0  0  0  0  0  0  0  0  0  0
  -24.3662  -25.7214   30.4671 C   0  0  0  0  0  0  0  0  0  0  0  0
  -23.7289  -28.6563   26.4903 C   0  0  1  0  0  0  0  0  0  0  0  0
  -25.1887  -28.0178   29.9299 C   0  0  2  0  0  0  0  0  0  0  0  0
  -24.0036  -29.9934   25.7458 C   0  0  0  0  0  0  0  0  0  0  0  0
  -25.8599  -11.5450   20.2830 N   0  0  0  0  0  0  0  0  0  0  0  0
  -26.2435  -12.8271   20.1592 N   0  0  0  0  0  0  0  0  0  0  0  0
  -22.0043  -27.0163   25.8123 N   0  0  0  0  0  0  0  0  0  0  0  0
  -29.9800  -13.5922   20.3506 N   0  0  0  0  0  0  0  0  0  0  0  0
  -25.4910  -15.0576   20.4223 N   0  0  0  0  0  0  0  0  0  0  0  0
  -21.8981  -12.5977   21.6206 N   0  0  0  0  0  0  0  0  0  0  0  0
  -30.1083  -15.6652   21.4681 N   0  0  0  0  0  0  0  0  0  0  0  0
  -28.4637  -19.5840   24.2824 N   0  0  0  0  0  0  0  0  0  0  0  0
  -19.0213  -26.8485   23.7218 N   0  0  0  0  0  0  0  0  0  0  0  0
  -24.0824  -28.6770   27.9056 N   0  0  0  0  0  0  0  0  0  0  0  0
  -25.4505  -26.7248   30.6232 N   0  3  0  0  0  0  0  0  0  0  0  0
  -30.1069  -19.6286   25.9333 O   0  0  0  0  0  0  0  0  0  0  0  0
  -22.6845  -14.7345   21.3474 O   0  0  0  0  0  0  0  0  0  0  0  0
  -27.6929  -21.0317   25.9436 O   0  0  0  0  0  0  0  0  0  0  0  0
  -21.2273  -27.5358   23.4328 O   0  0  0  0  0  0  0  0  0  0  0  0
  -21.4172  -28.9919   26.9025 O   0  0  0  0  0  0  0  0  0  0  0  0
  -25.5825  -26.9109   27.8188 O   0  0  0  0  0  0  0  0  0  0  0  0
  -31.8739  -14.9053   20.1692 O   0  0  0  0  0  0  0  0  0  0  0  0
  -21.5936   -7.0357   21.7022 O   0  0  0  0  0  0  0  0  0  0  0  0
  -24.2304  -21.6689   23.6902 O   0  0  0  0  0  0  0  0  0  1  0  0
  -18.6253   -6.8709   26.3461 F   0  0  0  0  0  0  0  0  0  0  0  0
  -22.0426   -5.0800   23.6039 F   0  0  0  0  0  0  0  0  0  0  0  0
  1  2  1  0  0  0  0
  1  7  2  0  0  0  0
  2  8  2  0  0  0  0
  3  6  2  0  0  0  0
  3 10  1  0  0  0  0
  4 11  2  0  0  0  0
  4 19  1  0  0  0  0
  5 12  1  0  0  0  0
  5 19  2  0  0  0  0
  6 20  1  0  0  0  0
  7 22  1  0  0  0  0
  8 24  1  0  0  0  0
  9 13  2  0  0  0  0
  9 23  1  0  0  0  0
 10 26  2  0  0  0  0
 11 27  1  0  0  0  0
 12 27  2  0  0  0  0
 13 28  1  0  0  0  0
 14 15  2  0  0  0  0
 14 29  1  0  0  0  0
 15 30  1  0  0  0  0
 16 20  2  0  0  0  0
 16 26  1  0  0  0  0
 17 25  1  0  0  0  0
 17 28  2  0  0  0  0
 18 30  2  0  0  0  0
 18 31  1  0  0  0  0
 19 32  1  0  0  0  0
 20 36  1  0  0  0  0
 21 32  1  0  0  0  0
 21 33  2  0  0  0  0
 21 37  1  0  0  0  0
 22 24  2  0  0  0  0
 22 43  1  0  0  0  0
 23 25  2  0  0  0  0
 23 44  1  0  0  0  0
 24 52  1  0  0  0  0
 25 45  1  0  0  0  0
 26 69  1  0  0  0  0
 27 81  1  0  0  0  0
 28 82  1  0  0  0  0
 29 31  2  0  0  0  0
 29 81  1  0  0  0  0
 30 83  1  0  0  0  0
 31 84  1  0  0  0  0
 32 63  2  0  0  0  0
 33 64  1  0  0  0  0
 33 67  1  0  0  0  0
 34 35  2  0  0  0  0
 34 38  1  0  0  0  0
 35 82  1  0  0  0  0
 36 70  1  0  0  0  0
 36 74  2  0  0  0  0
 37 68  1  0  0  0  0
 37 75  2  0  0  0  0
 38 70  1  0  0  0  0
 38 76  2  0  0  0  0
 39 53  1  0  0  0  0
 39 71  1  0  0  0  0
 39 77  2  0  0  0  0
 40 60  1  0  0  0  0
 40 65  1  0  0  0  0
 40 78  2  0  0  0  0
 41 61  1  0  0  0  0
 41 72  1  0  0  0  0
 41 79  2  0  0  0  0
 42 66  1  0  0  0  0
 42 69  1  0  0  0  0
 42 80  2  0  0  0  0
 43 46  1  0  0  0  0
 44 53  1  0  0  0  0
 45 65  1  0  0  0  0
 46 48  1  0  0  0  0
 47 49  1  0  0  0  0
 47 50  1  0  0  0  0
 48 52  1  0  0  0  0
 49 54  1  0  0  0  0
 50 66  1  0  0  0  0
 51 54  1  0  0  0  0
 51 66  1  0  0  0  0
 52 71  1  0  0  0  0
 53 65  1  0  0  0  0
 54 64  1  0  0  0  0
 55 61  1  0  0  0  0
 56 62  1  0  0  0  0
 57 62  1  0  0  0  0
 58 62  1  0  0  0  0
 59 73  1  0  0  0  0
 60 62  1  0  0  0  0
 60 72  1  0  0  0  0
 61 73  1  0  0  0  0
 63 64  1  0  0  0  0
M  CHG  1  73   1
M  ISO  4  35 101  42 100  69 100  82 101
M  END
> <Batch ID>
0081

> <Smiles>
CNC(C)C(=O)NC(C(=O)N1Cc2cc([101O:1][101CH:1]=CC(=O)NC(=O)c3cccc([100NH:0][100C:0](=O)N4CCCC(n5nc(-c6ccc(Oc7ccc(F)cc7F)cc6)c(C(N)=O)c5N)C4)c3)ccc2CC1C(=O)NC1CCCc2ccccc21)C(C)(C)C

> <Shape>
0.232

> <Color>
0.188

> <Negative vol penalty>
0.000

$$$$

  -OEChem-04052300043D

 83 91  0     1  0  0  0  0  0999 V2000
  -22.2884  -11.1812   19.0374 C   0  0  0  0  0  0  0  0  0  0  0  0
  -21.7478  -12.3451   19.5744 C   0  0  0  0  0  0  0  0  0  0  0  0
  -23.5954  -27.6139   28.7011 C   0  0  0  0  0  0  0  0  0  0  0  0
  -28.3309  -27.3595   17.6327 C   0  0  0  0  0  0  0  0  0  0  0  0
  -28.9613  -26.2677   19.6937 C   0  0  0  0  0  0  0  0  0  0  0  0
  -23.7745  -26.2326   28.7743 C   0  0  0  0  0  0  0  0  0  0  0  0
  -23.6424  -10.8979   19.2116 C   0  0  0  0  0  0  0  0  0  0  0  0
  -22.5607  -13.2259   20.2870 C   0  0  0  0  0  0  0  0  0  0  0  0
  -23.3797  -20.2124   21.6417 C   0  0  0  0  0  0  0  0  0  0  0  0
  -24.3065  -28.3606   27.7617 C   0  0  0  0  0  0  0  0  0  0  0  0
  -29.4806  -26.8636   17.0182 C   0  0  0  0  0  0  0  0  0  0  0  0
  -30.1111  -25.7717   19.0791 C   0  0  0  0  0  0  0  0  0  0  0  0
  -23.5068  -21.0939   22.7144 C   0  0  0  0  0  0  0  0  0  0  0  0
  -33.3943  -24.5151   18.1566 C   0  0  0  0  0  0  0  0  0  0  0  0
  -34.5951  -24.6025   18.8610 C   0  0  0  0  0  0  0  0  0  0  0  0
  -25.3759  -26.3445   26.9687 C   0  0  0  0  0  0  0  0  0  0  0  0
  -25.8485  -20.5401   22.8841 C   0  0  0  0  0  0  0  0  0  0  0  0
  -34.3771  -27.0076   18.9338 C   0  0  0  0  0  0  0  0  0  0  0  0
  -28.0712  -27.0616   18.9705 C   0  0  0  0  0  0  0  0  0  0  0  0
  -24.6647  -25.5979   27.9082 C   0  0  0  0  0  0  0  0  0  0  0  0
  -25.5483  -27.3354   19.2306 C   0  0  0  0  0  0  0  0  0  0  0  0
  -24.4744  -11.7804   19.9184 C   0  0  0  0  0  0  0  0  0  0  0  0
  -24.4855  -19.4788   21.1884 C   0  0  0  0  0  0  0  0  0  0  0  0
  -23.9268  -12.9535   20.4720 C   0  0  0  0  0  0  0  0  0  0  0  0
  -25.7334  -19.6519   21.8039 C   0  0  0  0  0  0  0  0  0  0  0  0
  -25.1967  -27.7259   26.8955 C   0  0  0  0  0  0  0  0  0  0  0  0
  -30.3707  -26.0696   17.7414 C   0  0  0  0  0  0  0  0  0  0  0  0
  -24.7406  -21.2557   23.3376 C   0  0  0  0  0  0  0  0  0  0  0  0
  -32.6850  -25.6739   17.8407 C   0  0  0  0  0  0  0  0  0  0  0  0
  -35.0864  -25.8488   19.2496 C   0  0  0  0  0  0  0  0  0  0  0  0
  -33.1764  -26.9201   18.2294 C   0  0  0  0  0  0  0  0  0  0  0  0
  -26.8840  -27.5742   19.6060 C   0  0  0  0  0  0  0  0  0  0  0  0
  -24.8037  -28.0414   20.1437 C   0  0  0  0  0  0  0  0  0  0  0  0
  -24.8536  -24.1329   27.9869 C   0  0  0  0  0  0  0  0  0  0  0  0
  -25.0273  -26.5461   18.1531 C   0  0  0  0  0  0  0  0  0  0  0  0
  -25.1937  -16.3870   20.9807 C   0  0  0  0  0  0  0  0  0  0  0  0
  -27.8253  -17.4925   19.4397 C   0  0  0  0  0  0  0  0  0  0  0  0
  -25.4666  -22.1461   26.6461 C   0  0  0  0  0  0  0  0  0  0  0  0
  -29.9990  -20.0676   18.9006 C   0  0  0  0  0  0  0  0  0  0  0  0
  -25.8579  -29.8626   25.7363 C   0  0  0  0  0  0  0  0  0  0  0  0
  -25.9218  -11.4082   20.1212 C   0  0  0  0  0  0  0  0  0  0  0  0
  -24.3379  -18.5519   20.0130 C   0  0  0  0  0  0  0  0  0  0  0  0
  -26.9559  -18.9030   21.3424 C   0  0  0  0  0  0  0  0  0  0  0  0
  -26.7946  -12.5780   20.5683 C   0  0  0  0  0  0  0  0  0  0  0  0
  -25.0123  -31.9147   22.9523 C   0  0  0  0  0  0  0  0  0  0  0  0
  -26.1159  -13.3503   21.6951 C   0  0  0  0  0  0  0  0  0  0  0  0
  -25.2689  -31.0108   21.7443 C   0  0  0  0  0  0  0  0  0  0  0  0
  -26.0401  -31.6873   24.0593 C   0  0  0  0  0  0  0  0  0  0  0  0
  -26.4501  -29.3869   23.2789 C   0  0  0  0  0  0  0  0  0  0  0  0
  -24.7816  -13.9459   21.2300 C   0  0  1  0  0  0  0  0  0  0  0  0
  -25.4142  -17.4719   19.9648 C   0  0  1  0  0  0  0  0  0  0  0  0
  -25.4018  -29.5337   22.1639 C   0  0  2  0  0  0  0  0  0  0  0  0
  -25.9203  -21.4319   27.8648 C   0  0  0  0  0  0  0  0  0  0  0  0
  -32.0720  -20.6596   17.6161 C   0  0  0  0  0  0  0  0  0  0  0  0
  -29.5040  -15.8742   21.4077 C   0  0  0  0  0  0  0  0  0  0  0  0
  -31.4956  -17.2207   20.7086 C   0  0  0  0  0  0  0  0  0  0  0  0
  -30.3075  -15.7961   19.0407 C   0  0  0  0  0  0  0  0  0  0  0  0
  -28.6119  -22.2314   17.4332 C   0  0  0  0  0  0  0  0  0  0  0  0
  -29.2101  -17.9208   19.8614 C   0  0  1  0  0  0  0  0  0  0  0  0
  -30.5512  -20.6685   17.6205 C   0  0  2  0  0  0  0  0  0  0  0  0
  -30.1060  -16.7158   20.2648 C   0  0  0  0  0  0  0  0  0  0  0  0
  -26.9851  -28.3697   20.6741 N   0  0  0  0  0  0  0  0  0  0  0  0
  -25.7035  -28.6371   20.9777 N   0  0  0  0  0  0  0  0  0  0  0  0
  -26.7593  -18.0038   20.1933 N   0  0  0  0  0  0  0  0  0  0  0  0
  -26.1081  -30.2665   24.4077 N   0  0  0  0  0  0  0  0  0  0  0  0
  -23.4735  -28.2046   20.3064 N   0  0  0  0  0  0  0  0  0  0  0  0
  -24.7536  -25.1918   18.3885 N   0  0  0  0  0  0  0  0  0  0  0  0
  -25.9188  -28.4845   25.9411 N   0  0  0  0  0  0  0  0  0  0  0  0
  -25.2666  -23.4622   26.7755 N   0  0  0  0  0  0  0  0  0  0  0  0
  -25.0082  -15.1322   20.4326 N   0  0  0  0  0  0  0  0  0  0  0  0
  -29.7425  -18.7199   18.7630 N   0  0  0  0  0  0  0  0  0  0  0  0
  -25.2927  -21.4457   25.5282 N   0  3  0  0  0  0  0  0  0  1  0  0
  -30.0890  -22.0770   17.4680 N   0  3  0  0  0  0  0  0  0  0  0  0
  -24.6514  -23.5093   29.0189 O   0  0  0  0  0  0  0  0  0  0  0  0
  -24.8264  -27.0234   17.0106 O   0  0  0  0  0  0  0  0  0  0  0  0
  -25.1934  -16.6674   22.1737 O   0  0  0  0  0  0  0  0  0  0  0  0
  -27.6939  -16.7380   18.4727 O   0  0  0  0  0  0  0  0  0  0  0  0
  -29.8172  -20.7271   19.9216 O   0  0  0  0  0  0  0  0  0  0  0  0
  -25.5813  -30.6767   26.6209 O   0  0  0  0  0  0  0  0  0  0  0  0
  -31.4927  -25.5853   17.1420 O   0  0  0  0  0  0  0  0  0  0  0  0
  -24.8673  -22.1149   24.3853 O   0  0  0  0  0  0  0  0  0  1  0  0
  -36.2387  -25.9325   19.9274 F   0  0  0  0  0  0  0  0  0  0  0  0
  -32.4987  -28.0368   17.9298 F   0  0  0  0  0  0  0  0  0  0  0  0
  1  2  1  0  0  0  0
  1  7  2  0  0  0  0
  2  8  2  0  0  0  0
  3  6  2  0  0  0  0
  3 10  1  0  0  0  0
  4 11  2  0  0  0  0
  4 19  1  0  0  0  0
  5 12  1  0  0  0  0
  5 19  2  0  0  0  0
  6 20  1  0  0  0  0
  7 22  1  0  0  0  0
  8 24  1  0  0  0  0
  9 13  2  0  0  0  0
  9 23  1  0  0  0  0
 10 26  2  0  0  0  0
 11 27  1  0  0  0  0
 12 27  2  0  0  0  0
 13 28  1  0  0  0  0
 14 15  2  0  0  0  0
 14 29  1  0  0  0  0
 15 30  1  0  0  0  0
 16 20  2  0  0  0  0
 16 26  1  0  0  0  0
 17 25  1  0  0  0  0
 17 28  2  0  0  0  0
 18 30  2  0  0  0  0
 18 31  1  0  0  0  0
 19 32  1  0  0  0  0
 20 34  1  0  0  0  0
 21 32  1  0  0  0  0
 21 33  2  0  0  0  0
 21 35  1  0  0  0  0
 22 24  2  0  0  0  0
 22 41  1  0  0  0  0
 23 25  2  0  0  0  0
 23 42  1  0  0  0  0
 24 50  1  0  0  0  0
 25 43  1  0  0  0  0
 26 68  1  0  0  0  0
 27 80  1  0  0  0  0
 28 81  1  0  0  0  0
 29 31  2  0  0  0  0
 29 80  1  0  0  0  0
 30 82  1  0  0  0  0
 31 83  1  0  0  0  0
 32 62  2  0  0  0  0
 33 63  1  0  0  0  0
 33 66  1  0  0  0  0
 34 69  1  0  0  0  0
 34 74  2  0  0  0  0
 35 67  1  0  0  0  0
 35 75  2  0  0  0  0
 36 51  1  0  0  0  0
 36 70  1  0  0  0  0
 36 76  2  0  0  0  0
 37 59  1  0  0  0  0
 37 64  1  0  0  0  0
 37 77  2  0  0  0  0
 38 53  1  0  0  0  0
 38 69  1  0  0  0  0
 38 72  2  0  0  0  0
 39 60  1  0  0  0  0
 39 71  1  0  0  0  0
 39 78  2  0  0  0  0
 40 65  1  0  0  0  0
 40 68  1  0  0  0  0
 40 79  2  0  0  0  0
 41 44  1  0  0  0  0
 42 51  1  0  0  0  0
 43 64  1  0  0  0  0
 44 46  1  0  0  0  0
 45 47  1  0  0  0  0
 45 48  1  0  0  0  0
 46 50  1  0  0  0  0
 47 52  1  0  0  0  0
 48 65  1  0  0  0  0
 49 52  1  0  0  0  0
 49 65  1  0  0  0  0
 50 70  1  0  0  0  0
 51 64  1  0  0  0  0
 52 63  1  0  0  0  0
 54 60  1  0  0  0  0
 55 61  1  0  0  0  0
 56 61  1  0  0  0  0
 57 61  1  0  0  0  0
 58 73  1  0  0  0  0
 59 61  1  0  0  0  0
 59 71  1  0  0  0  0
 60 73  1  0  0  0  0
 62 63  1  0  0  0  0
 72 81  1  0  0  0  0
M  CHG  2  72   1  73   1
M  ISO  4  40 100  68 100  72 101  81 101
M  END
> <Batch ID>
0081

> <Smiles>
CNC(C)C(=O)NC(C(=O)N1Cc2cc([101O:1][101NH:1]C(C)=NC(=O)c3cccc([100NH:0][100C:0](=O)N4CCCC(n5nc(-c6ccc(Oc7ccc(F)cc7F)cc6)c(C(N)=O)c5N)C4)c3)ccc2CC1C(=O)NC1CCCc2ccccc21)C(C)(C)C

> <Shape>
0.202

> <Color>
0.067

> <Negative vol penalty>
0.000

$$$$

  -OEChem-04052300043D

 85 94  0     1  0  0  0  0  0999 V2000
  -28.8065  -36.6379   19.1765 C   0  0  0  0  0  0  0  0  0  0  0  0
  -29.0561  -35.2800   19.0052 C   0  0  0  0  0  0  0  0  0  0  0  0
  -23.6780   -9.1949   19.8938 C   0  0  0  0  0  0  0  0  0  0  0  0
  -23.2610  -10.7632   21.6836 C   0  0  0  0  0  0  0  0  0  0  0  0
  -28.0463  -37.0744   20.2607 C   0  0  0  0  0  0  0  0  0  0  0  0
  -28.5464  -34.3579   19.9186 C   0  0  0  0  0  0  0  0  0  0  0  0
  -26.5789  -28.6849   18.7137 C   0  0  0  0  0  0  0  0  0  0  0  0
  -28.5841  -20.1125   19.8975 C   0  0  0  0  0  0  0  0  0  0  0  0
  -30.7501  -19.7373   20.8998 C   0  0  0  0  0  0  0  0  0  0  0  0
  -28.4594  -18.7446   19.6548 C   0  0  0  0  0  0  0  0  0  0  0  0
  -30.6254  -18.3693   20.6572 C   0  0  0  0  0  0  0  0  0  0  0  0
  -22.8581   -8.2584   20.5233 C   0  0  0  0  0  0  0  0  0  0  0  0
  -22.4410   -9.8268   22.3131 C   0  0  0  0  0  0  0  0  0  0  0  0
  -27.1848  -27.4355   18.8392 C   0  0  0  0  0  0  0  0  0  0  0  0
  -19.5444   -7.6785   20.8642 C   0  0  0  0  0  0  0  0  0  0  0  0
  -18.6224   -6.9902   20.0758 C   0  0  0  0  0  0  0  0  0  0  0  0
  -26.1324  -27.1480   20.9907 C   0  0  0  0  0  0  0  0  0  0  0  0
  -19.6616   -4.8968   20.6880 C   0  0  0  0  0  0  0  0  0  0  0  0
  -23.8795  -10.4473   20.4739 C   0  0  0  0  0  0  0  0  0  0  0  0
  -24.3401  -12.3871   18.8825 C   0  0  0  0  0  0  0  0  0  0  0  0
  -27.5189  -36.1563   21.1825 C   0  0  0  0  0  0  0  0  0  0  0  0
  -25.7525  -29.1807   19.7323 C   0  0  0  0  0  0  0  0  0  0  0  0
  -27.7795  -34.7826   21.0168 C   0  0  0  0  0  0  0  0  0  0  0  0
  -25.5151  -28.4029   20.8746 C   0  0  0  0  0  0  0  0  0  0  0  0
  -29.7295  -20.6088   20.5199 C   0  0  0  0  0  0  0  0  0  0  0  0
  -29.4800  -17.8730   20.0347 C   0  0  0  0  0  0  0  0  0  0  0  0
  -22.2396   -8.5743   21.7330 C   0  0  0  0  0  0  0  0  0  0  0  0
  -26.9639  -26.6681   19.9791 C   0  0  0  0  0  0  0  0  0  0  0  0
  -20.5251   -6.9761   21.5645 C   0  0  0  0  0  0  0  0  0  0  0  0
  -18.6810   -5.5994   19.9877 C   0  0  0  0  0  0  0  0  0  0  0  0
  -20.5837   -5.5852   21.4765 C   0  0  0  0  0  0  0  0  0  0  0  0
  -24.7268  -11.4149   19.8243 C   0  0  0  0  0  0  0  0  0  0  0  0
  -25.5036  -13.0490   18.5748 C   0  0  0  0  0  0  0  0  0  0  0  0
  -29.4621  -24.2382   20.8718 C   0  0  0  0  0  0  0  0  0  0  0  0
  -30.7548  -24.0239   21.4723 C   0  0  0  0  0  0  0  0  0  0  0  0
  -28.8908  -22.9383   20.4217 C   0  0  0  0  0  0  0  0  0  0  0  0
  -31.5867  -24.9296   21.9976 C   0  0  0  0  0  0  0  0  0  0  0  0
  -28.7854  -25.3875   20.6953 C   0  0  0  0  0  0  0  0  0  1  0  0
  -23.0449  -12.6671   18.3349 C   0  0  0  0  0  0  0  0  0  0  0  0
  -25.8399  -31.7047   21.6626 C   0  0  0  0  0  0  0  0  0  0  0  0
  -22.9033  -30.6444   22.5426 C   0  0  0  0  0  0  0  0  0  0  0  0
  -20.7182  -28.0341   22.7855 C   0  0  0  0  0  0  0  0  0  0  0  0
  -30.2730  -15.4828   20.1019 C   0  0  0  0  0  0  0  0  0  0  0  0
  -26.7427  -36.6795   22.3650 C   0  0  0  0  0  0  0  0  0  0  0  0
  -25.0850  -30.5188   19.5698 C   0  0  0  0  0  0  0  0  0  0  0  0
  -24.6202  -28.8810   21.9877 C   0  0  0  0  0  0  0  0  0  0  0  0
  -31.0294  -22.5517   21.4102 C   0  0  0  0  0  0  0  0  0  0  0  0
  -25.9244  -35.6069   23.0793 C   0  0  0  0  0  0  0  0  0  0  0  0
  -30.3153  -11.9460   19.6938 C   0  0  0  0  0  0  0  0  0  0  0  0
  -26.7664  -34.3552   23.3052 C   0  0  0  0  0  0  0  0  0  0  0  0
  -28.8334  -11.5725   19.6139 C   0  0  0  0  0  0  0  0  0  0  0  0
  -30.5609  -13.0840   20.6830 C   0  0  0  0  0  0  0  0  0  0  0  0
  -28.2586  -13.9091   20.3867 C   0  0  0  0  0  0  0  0  0  0  0  0
  -27.2231  -33.7496   21.9725 C   0  0  1  0  0  0  0  0  0  0  0  0
  -24.6732  -31.1464   20.8979 C   0  0  1  0  0  0  0  0  0  0  0  0
  -27.9532  -12.8110   19.3549 C   0  0  2  0  0  0  0  0  0  0  0  0
  -18.4069  -27.4676   23.5817 C   0  0  0  0  0  0  0  0  0  0  0  0
  -23.8884  -30.6936   25.4300 C   0  0  0  0  0  0  0  0  0  0  0  0
  -21.9342  -29.2557   26.0478 C   0  0  0  0  0  0  0  0  0  0  0  0
  -21.5555  -31.5356   25.1091 C   0  0  0  0  0  0  0  0  0  0  0  0
  -19.8584  -27.2190   20.0735 C   0  0  0  0  0  0  0  0  0  0  0  0
  -22.3804  -29.6909   23.5897 C   0  0  1  0  0  0  0  0  0  0  0  0
  -19.2561  -27.9051   22.3984 C   0  0  2  0  0  0  0  0  0  0  0  0
  -22.4581  -30.2855   25.0242 C   0  0  0  0  0  0  0  0  0  0  0  0
  -26.0338  -11.4521   20.0969 N   0  0  0  0  0  0  0  0  0  0  0  0
  -26.4785  -12.4558   19.3216 N   0  0  0  0  0  0  0  0  0  0  0  0
  -29.8542  -21.9732   20.7617 N   0  0  0  0  0  0  0  0  0  0  0  0
  -23.9955  -30.1986   21.7848 N   0  0  0  0  0  0  0  0  0  0  0  0
  -29.6957  -14.2243   20.3732 N   0  0  0  0  0  0  0  0  0  0  0  0
  -25.7776  -14.0746   17.7409 N   0  0  0  0  0  0  0  0  0  0  0  0
  -21.9578  -11.8915   18.7603 N   0  0  0  0  0  0  0  0  0  0  0  0
  -29.3536  -16.4833   19.7884 N   0  0  0  0  0  0  0  0  0  0  0  0
  -26.1396  -33.0175   21.3524 N   0  0  0  0  0  0  0  0  0  0  0  0
  -21.0336  -29.3206   23.1685 N   0  0  0  0  0  0  0  0  0  0  0  0
  -19.0955  -26.9018   21.3081 N   0  3  0  0  0  0  0  0  0  0  0  0
  -27.8114  -22.7803   19.8763 O   0  0  0  0  0  0  0  0  0  0  0  0
  -22.8601  -13.5672   17.4810 O   0  0  0  0  0  0  0  0  0  0  0  0
  -26.4240  -30.9972   22.4750 O   0  0  0  0  0  0  0  0  0  0  0  0
  -22.3581  -31.7413   22.3972 O   0  0  0  0  0  0  0  0  0  0  0  0
  -21.5014  -27.0874   22.7550 O   0  0  0  0  0  0  0  0  0  0  0  0
  -31.4947  -15.6534   20.1179 O   0  0  0  0  0  0  0  0  0  0  0  0
  -21.4393   -7.6608   22.3475 O   0  0  0  0  0  0  0  0  0  0  0  0
  -27.5545  -25.4486   20.1045 O   0  0  0  0  0  0  0  0  0  1  0  0
  -17.7945   -4.9384   19.2317 F   0  0  0  0  0  0  0  0  0  0  0  0
  -21.5228   -4.9048   22.1479 F   0  0  0  0  0  0  0  0  0  0  0  0
  1  2  1  0  0  0  0
  1  5  2  0  0  0  0
  2  6  2  0  0  0  0
  3 12  2  0  0  0  0
  3 19  1  0  0  0  0
  4 13  1  0  0  0  0
  4 19  2  0  0  0  0
  5 21  1  0  0  0  0
  6 23  1  0  0  0  0
  7 14  2  0  0  0  0
  7 22  1  0  0  0  0
  8 10  2  0  0  0  0
  8 25  1  0  0  0  0
  9 11  1  0  0  0  0
  9 25  2  0  0  0  0
 10 26  1  0  0  0  0
 11 26  2  0  0  0  0
 12 27  1  0  0  0  0
 13 27  2  0  0  0  0
 14 28  1  0  0  0  0
 15 16  2  0  0  0  0
 15 29  1  0  0  0  0
 16 30  1  0  0  0  0
 17 24  1  0  0  0  0
 17 28  2  0  0  0  0
 18 30  2  0  0  0  0
 18 31  1  0  0  0  0
 19 32  1  0  0  0  0
 20 32  1  0  0  0  0
 20 33  2  0  0  0  0
 20 39  1  0  0  0  0
 21 23  2  0  0  0  0
 21 44  1  0  0  0  0
 22 24  2  0  0  0  0
 22 45  1  0  0  0  0
 23 54  1  0  0  0  0
 24 46  1  0  0  0  0
 25 67  1  0  0  0  0
 26 72  1  0  0  0  0
 27 82  1  0  0  0  0
 28 83  1  0  0  0  0
 29 31  2  0  0  0  0
 29 82  1  0  0  0  0
 30 84  1  0  0  0  0
 31 85  1  0  0  0  0
 32 65  2  0  0  0  0
 33 66  1  0  0  0  0
 33 70  1  0  0  0  0
 34 35  1  0  0  0  0
 34 36  1  0  0  0  0
 34 38  2  0  0  0  0
 35 37  2  0  0  0  0
 35 47  1  0  0  0  0
 36 67  1  0  0  0  0
 36 76  2  0  0  0  0
 38 83  1  0  0  0  0
 39 71  1  0  0  0  0
 39 77  2  0  0  0  0
 40 55  1  0  0  0  0
 40 73  1  0  0  0  0
 40 78  2  0  0  0  0
 41 62  1  0  0  0  0
 41 68  1  0  0  0  0
 41 79  2  0  0  0  0
 42 63  1  0  0  0  0
 42 74  1  0  0  0  0
 42 80  2  0  0  0  0
 43 69  1  0  0  0  0
 43 72  1  0  0  0  0
 43 81  2  0  0  0  0
 44 48  1  0  0  0  0
 45 55  1  0  0  0  0
 46 68  1  0  0  0  0
 47 67  1  0  0  0  0
 48 50  1  0  0  0  0
 49 51  1  0  0  0  0
 49 52  1  0  0  0  0
 50 54  1  0  0  0  0
 51 56  1  0  0  0  0
 52 69  1  0  0  0  0
 53 56  1  0  0  0  0
 53 69  1  0  0  0  0
 54 73  1  0  0  0  0
 55 68  1  0  0  0  0
 56 66  1  0  0  0  0
 57 63  1  0  0  0  0
 58 64  1  0  0  0  0
 59 64  1  0  0  0  0
 60 64  1  0  0  0  0
 61 75  1  0  0  0  0
 62 64  1  0  0  0  0
 62 74  1  0  0  0  0
 63 75  1  0  0  0  0
 65 66  1  0  0  0  0
M  CHG  1  75   1
M  ISO  4  38 101  43 100  72 100  83 101
M  END
> <Batch ID>
0081

> <Smiles>
C=C1CN(c2ccc([100NH:0][100C:0](=O)N3CCCC(n4nc(-c5ccc(Oc6ccc(F)cc6F)cc5)c(C(N)=O)c4N)C3)cc2)C(=O)C1=[101CH:1][101O:1]c1ccc2c(c1)CN(C(=O)C(NC(=O)C(C)NC)C(C)(C)C)C(C(=O)NC1CCCc3ccccc31)C2

> <Shape>
0.313

> <Color>
0.106

> <Negative vol penalty>
0.000

$$$$

  -OEChem-04052300043D

 87 96  0     1  0  0  0  0  0999 V2000
  -30.7541  -34.6270   15.8353 C   0  0  0  0  0  0  0  0  0  0  0  0
  -30.2777  -33.3233   15.9283 C   0  0  0  0  0  0  0  0  0  0  0  0
  -24.7321   -8.4753   21.4116 C   0  0  0  0  0  0  0  0  0  0  0  0
  -23.1143  -10.2315   21.0434 C   0  0  0  0  0  0  0  0  0  0  0  0
  -30.9786  -35.3702   16.9934 C   0  0  0  0  0  0  0  0  0  0  0  0
  -30.0266  -32.7615   17.1796 C   0  0  0  0  0  0  0  0  0  0  0  0
  -25.5837  -28.7968   18.6106 C   0  0  0  0  0  0  0  0  0  0  0  0
  -23.8752   -7.8800   22.3372 C   0  0  0  0  0  0  0  0  0  0  0  0
  -22.2574   -9.6361   21.9690 C   0  0  0  0  0  0  0  0  0  0  0  0
  -25.5738  -27.4098   18.7514 C   0  0  0  0  0  0  0  0  0  0  0  0
  -21.9617   -5.7017   24.5300 C   0  0  0  0  0  0  0  0  0  0  0  0
  -21.7848   -4.3202   24.4549 C   0  0  0  0  0  0  0  0  0  0  0  0
  -25.8718  -27.6556   21.1326 C   0  0  0  0  0  0  0  0  0  0  0  0
  -24.8423  -19.1719   20.1068 C   0  0  0  0  0  0  0  0  0  0  0  0
  -27.5025  -18.6237   20.7435 C   0  0  0  0  0  0  0  0  0  0  0  0
  -20.9333   -4.5515   22.2058 C   0  0  0  0  0  0  0  0  0  0  0  0
  -24.3517   -9.6511   20.7647 C   0  0  0  0  0  0  0  0  0  0  0  0
  -25.2910  -10.0266   18.4228 C   0  0  0  0  0  0  0  0  0  0  0  0
  -30.7210  -34.8205   18.2592 C   0  0  0  0  0  0  0  0  0  0  0  0
  -25.7488  -29.6248   19.7302 C   0  0  0  0  0  0  0  0  0  0  0  0
  -30.2492  -33.4975   18.3558 C   0  0  0  0  0  0  0  0  0  0  0  0
  -25.8808  -29.0528   21.0036 C   0  0  0  0  0  0  0  0  0  0  0  0
  -25.6171  -20.1345   20.7538 C   0  0  0  0  0  0  0  0  0  0  0  0
  -26.9473  -19.8604   21.0722 C   0  0  0  0  0  0  0  0  0  0  0  0
  -26.7276  -17.6611   20.0965 C   0  0  0  0  0  0  0  0  0  0  0  0
  -22.6378   -8.4603   22.6159 C   0  0  0  0  0  0  0  0  0  0  0  0
  -25.7208  -26.8389   20.0122 C   0  0  0  0  0  0  0  0  0  0  0  0
  -21.6243   -6.5082   23.4430 C   0  0  0  0  0  0  0  0  0  0  0  0
  -21.2706   -3.7450   23.2928 C   0  0  0  0  0  0  0  0  0  0  0  0
  -25.3975  -17.9352   19.7782 C   0  0  0  0  0  0  0  0  0  0  0  0
  -21.1102   -5.9331   22.2809 C   0  0  0  0  0  0  0  0  0  0  0  0
  -25.2367  -10.2669   19.8088 C   0  0  0  0  0  0  0  0  0  0  0  0
  -26.2900  -10.8531   17.9698 C   0  0  0  0  0  0  0  0  0  0  0  0
  -24.6450  -23.6139   21.1517 C   0  0  0  0  0  0  0  0  0  0  0  0
  -23.6307  -22.9604   21.9903 C   0  0  0  0  0  0  0  0  0  0  0  0
  -25.5350  -22.5868   20.5736 C   0  0  0  0  0  0  0  0  0  0  0  0
  -24.7479  -24.9266   20.9435 C   0  0  0  0  0  0  0  0  0  1  0  0
  -24.5082   -9.1359   17.6168 C   0  0  0  0  0  0  0  0  0  0  0  0
  -27.9190  -31.7622   20.6388 C   0  0  0  0  0  0  0  0  0  0  0  0
  -25.8311  -32.2719   23.0685 C   0  0  0  0  0  0  0  0  0  0  0  0
  -23.2959  -31.0684   25.0103 C   0  0  0  0  0  0  0  0  0  0  0  0
  -28.5950  -15.9721   20.0164 C   0  0  0  0  0  0  0  0  0  0  0  0
  -31.0239  -35.6462   19.4845 C   0  0  0  0  0  0  0  0  0  0  0  0
  -25.7305  -31.1197   19.5648 C   0  0  0  0  0  0  0  0  0  0  0  0
  -26.0408  -29.8981   22.2399 C   0  0  0  0  0  0  0  0  0  0  0  0
  -23.8664  -21.4791   21.9581 C   0  0  0  0  0  0  0  0  0  0  0  0
  -30.3771  -35.1067   20.7576 C   0  0  0  0  0  0  0  0  0  0  0  0
  -30.3572  -12.9412   19.3956 C   0  0  0  0  0  0  0  0  0  0  0  0
  -30.5927  -33.6008   20.8692 C   0  0  0  0  0  0  0  0  0  0  0  0
  -29.2486  -11.8906   19.2990 C   0  0  0  0  0  0  0  0  0  0  0  0
  -30.0440  -14.0006   20.4507 C   0  0  0  0  0  0  0  0  0  0  0  0
  -27.6252  -13.5980   20.2134 C   0  0  0  0  0  0  0  0  0  0  0  0
  -29.9413  -32.8616   19.6941 C   0  0  1  0  0  0  0  0  0  0  0  0
  -26.4210  -31.8559   20.7087 C   0  0  1  0  0  0  0  0  0  0  0  0
  -27.8653  -12.5459   19.1184 C   0  0  2  0  0  0  0  0  0  0  0  0
  -21.8205  -31.7020   26.9389 C   0  0  0  0  0  0  0  0  0  0  0  0
  -28.1512  -31.8037   24.9940 C   0  0  0  0  0  0  0  0  0  0  0  0
  -26.4757  -31.5045   26.8302 C   0  0  0  0  0  0  0  0  0  0  0  0
  -26.6317  -33.6855   25.6295 C   0  0  0  0  0  0  0  0  0  0  0  0
  -20.8451  -30.8062   23.3721 C   0  0  0  0  0  0  0  0  0  0  0  0
  -25.6308  -31.6880   24.4461 C   0  0  1  0  0  0  0  0  0  0  0  0
  -21.9688  -31.6775   25.4255 C   0  0  2  0  0  0  0  0  0  0  0  0
  -26.7213  -32.1542   25.4516 C   0  0  0  0  0  0  0  0  0  0  0  0
  -26.1303  -11.1749   20.2101 N   0  0  0  0  0  0  0  0  0  0  0  0
  -26.7556  -11.5124   19.0693 N   0  0  0  0  0  0  0  0  0  0  0  0
  -25.0400  -21.3615   21.0732 N   0  0  0  0  0  0  0  0  0  0  0  0
  -26.0228  -31.3545   22.0256 N   0  0  0  0  0  0  0  0  0  0  0  0
  -28.7203  -14.5806   20.2135 N   0  0  0  0  0  0  0  0  0  0  0  0
  -27.7490  -20.8197   21.7304 N   0  0  0  0  0  0  0  0  0  0  0  0
  -26.8070  -11.0730   16.7423 N   0  0  0  0  0  0  0  0  0  0  0  0
  -23.5237   -8.3592   18.2427 N   0  0  0  0  0  0  0  0  0  0  0  0
  -27.2927  -16.4042   19.7673 N   0  0  0  0  0  0  0  0  0  0  0  0
  -28.5109  -32.7617   19.8904 N   0  0  0  0  0  0  0  0  0  0  0  0
  -24.2687  -32.0307   24.8406 N   0  0  0  0  0  0  0  0  0  0  0  0
  -20.8376  -30.8927   24.8551 N   0  3  0  0  0  0  0  0  0  0  0  0
  -22.7461  -23.5265   22.6090 O   0  0  0  0  0  0  0  0  0  0  0  0
  -26.4797  -22.7926   19.8317 O   0  0  0  0  0  0  0  0  0  0  0  0
  -24.6879   -9.0199   16.3807 O   0  0  0  0  0  0  0  0  0  0  0  0
  -28.4953  -30.8515   21.2220 O   0  0  0  0  0  0  0  0  0  0  0  0
  -25.8109  -33.4965   22.9219 O   0  0  0  0  0  0  0  0  0  0  0  0
  -23.4546  -29.8595   24.8559 O   0  0  0  0  0  0  0  0  0  0  0  0
  -29.5748  -16.7215   20.0381 O   0  0  0  0  0  0  0  0  0  0  0  0
  -21.8013   -7.8795   23.5189 O   0  0  0  0  0  0  0  0  0  0  0  0
  -25.7122  -25.4853   20.1525 O   0  0  0  0  0  0  0  0  0  1  0  0
  -21.1023   -2.4182   23.2202 F   0  0  0  0  0  0  0  0  0  0  0  0
  -24.6430  -17.0175   19.1569 F   0  0  0  0  0  0  0  0  0  0  0  0
  -20.7854   -6.7026   21.2330 F   0  0  0  0  0  0  0  0  0  0  0  0
  1  2  1  0  0  0  0
  1  5  2  0  0  0  0
  2  6  2  0  0  0  0
  3  8  2  0  0  0  0
  3 17  1  0  0  0  0
  4  9  1  0  0  0  0
  4 17  2  0  0  0  0
  5 19  1  0  0  0  0
  6 21  1  0  0  0  0
  7 10  2  0  0  0  0
  7 20  1  0  0  0  0
  8 26  1  0  0  0  0
  9 26  2  0  0  0  0
 10 27  1  0  0  0  0
 11 12  2  0  0  0  0
 11 28  1  0  0  0  0
 12 29  1  0  0  0  0
 13 22  1  0  0  0  0
 13 27  2  0  0  0  0
 14 23  1  0  0  0  0
 14 30  2  0  0  0  0
 15 24  1  0  0  0  0
 15 25  2  0  0  0  0
 16 29  2  0  0  0  0
 16 31  1  0  0  0  0
 17 32  1  0  0  0  0
 18 32  1  0  0  0  0
 18 33  2  0  0  0  0
 18 38  1  0  0  0  0
 19 21  2  0  0  0  0
 19 43  1  0  0  0  0
 20 22  2  0  0  0  0
 20 44  1  0  0  0  0
 21 53  1  0  0  0  0
 22 45  1  0  0  0  0
 23 24  2  0  0  0  0
 23 66  1  0  0  0  0
 24 69  1  0  0  0  0
 25 30  1  0  0  0  0
 25 72  1  0  0  0  0
 26 83  1  0  0  0  0
 27 84  1  0  0  0  0
 28 31  2  0  0  0  0
 28 83  1  0  0  0  0
 29 85  1  0  0  0  0
 30 86  1  0  0  0  0
 31 87  1  0  0  0  0
 32 64  2  0  0  0  0
 33 65  1  0  0  0  0
 33 70  1  0  0  0  0
 34 35  1  0  0  0  0
 34 36  1  0  0  0  0
 34 37  2  0  0  0  0
 35 46  1  0  0  0  0
 35 76  2  0  0  0  0
 36 66  1  0  0  0  0
 36 77  2  0  0  0  0
 37 84  1  0  0  0  0
 38 71  1  0  0  0  0
 38 78  2  0  0  0  0
 39 54  1  0  0  0  0
 39 73  1  0  0  0  0
 39 79  2  0  0  0  0
 40 61  1  0  0  0  0
 40 67  1  0  0  0  0
 40 80  2  0  0  0  0
 41 62  1  0  0  0  0
 41 74  1  0  0  0  0
 41 81  2  0  0  0  0
 42 68  1  0  0  0  0
 42 72  1  0  0  0  0
 42 82  2  0  0  0  0
 43 47  1  0  0  0  0
 44 54  1  0  0  0  0
 45 67  1  0  0  0  0
 46 66  1  0  0  0  0
 47 49  1  0  0  0  0
 48 50  1  0  0  0  0
 48 51  1  0  0  0  0
 49 53  1  0  0  0  0
 50 55  1  0  0  0  0
 51 68  1  0  0  0  0
 52 55  1  0  0  0  0
 52 68  1  0  0  0  0
 53 73  1  0  0  0  0
 54 67  1  0  0  0  0
 55 65  1  0  0  0  0
 56 62  1  0  0  0  0
 57 63  1  0  0  0  0
 58 63  1  0  0  0  0
 59 63  1  0  0  0  0
 60 75  1  0  0  0  0
 61 63  1  0  0  0  0
 61 74  1  0  0  0  0
 62 75  1  0  0  0  0
 64 65  1  0  0  0  0
M  CHG  1  75   1
M  ISO  4  37 101  42 100  72 100  84 101
M  END
> <Batch ID>
0081

> <Smiles>
CNC(C)C(=O)NC(C(=O)N1Cc2cc([101O:1][101CH:1]=C3C(=O)CN(c4cc(F)c([100NH:0][100C:0](=O)N5CCCC(n6nc(-c7ccc(Oc8ccc(F)cc8F)cc7)c(C(N)=O)c6N)C5)cc4N)C3=O)ccc2CC1C(=O)NC1CCCc2ccccc21)C(C)(C)C

> <Shape>
0.237

> <Color>
0.087

> <Negative vol penalty>
0.000

$$$$

  -OEChem-04052300043D

 86 95  0     1  0  0  0  0  0999 V2000
  -29.7977  -36.4626   23.3994 C   0  0  0  0  0  0  0  0  0  0  0  0
  -29.9158  -35.4958   22.4060 C   0  0  0  0  0  0  0  0  0  0  0  0
  -24.7541   -8.7869   21.5855 C   0  0  0  0  0  0  0  0  0  0  0  0
  -23.1990  -10.2530   20.4588 C   0  0  0  0  0  0  0  0  0  0  0  0
  -29.1684  -36.1498   24.6036 C   0  0  0  0  0  0  0  0  0  0  0  0
  -29.4056  -34.2153   22.6167 C   0  0  0  0  0  0  0  0  0  0  0  0
  -26.3808  -28.7612   19.0926 C   0  0  0  0  0  0  0  0  0  0  0  0
  -25.3485  -19.9942   18.2265 C   0  0  0  0  0  0  0  0  0  0  0  0
  -23.7324   -8.3517   22.4294 C   0  0  0  0  0  0  0  0  0  0  0  0
  -22.1773   -9.8177   21.3027 C   0  0  0  0  0  0  0  0  0  0  0  0
  -26.5273  -27.3877   18.9031 C   0  0  0  0  0  0  0  0  0  0  0  0
  -21.4530   -6.5882   24.6452 C   0  0  0  0  0  0  0  0  0  0  0  0
  -24.7749  -18.8402   17.6930 C   0  0  0  0  0  0  0  0  0  0  0  0
  -21.3474   -5.2178   24.8825 C   0  0  0  0  0  0  0  0  0  0  0  0
  -25.3900  -26.9844   20.9919 C   0  0  0  0  0  0  0  0  0  0  0  0
  -27.2367  -18.6992   18.9978 C   0  0  0  0  0  0  0  0  0  0  0  0
  -21.0178   -4.8341   22.5200 C   0  0  0  0  0  0  0  0  0  0  0  0
  -24.4874   -9.7376   20.6002 C   0  0  0  0  0  0  0  0  0  0  0  0
  -25.9169   -9.6334   18.4899 C   0  0  0  0  0  0  0  0  0  0  0  0
  -28.6417  -34.8677   24.8254 C   0  0  0  0  0  0  0  0  0  0  0  0
  -25.7463  -29.2577   20.2404 C   0  0  0  0  0  0  0  0  0  0  0  0
  -28.7699  -33.8847   23.8255 C   0  0  0  0  0  0  0  0  0  0  0  0
  -25.2344  -28.3645   21.1923 C   0  0  0  0  0  0  0  0  0  0  0  0
  -26.5795  -19.9238   18.8789 C   0  0  0  0  0  0  0  0  0  0  0  0
  -26.6630  -17.5451   18.4643 C   0  0  0  0  0  0  0  0  0  0  0  0
  -22.4440   -8.8671   22.2880 C   0  0  0  0  0  0  0  0  0  0  0  0
  -26.0344  -26.4991   19.8542 C   0  0  0  0  0  0  0  0  0  0  0  0
  -21.3409   -7.0817   23.3453 C   0  0  0  0  0  0  0  0  0  0  0  0
  -21.1299   -4.3407   23.8199 C   0  0  0  0  0  0  0  0  0  0  0  0
  -25.4321  -17.6156   17.8120 C   0  0  0  0  0  0  0  0  0  0  0  0
  -21.1233   -6.2046   22.2827 C   0  0  0  0  0  0  0  0  0  0  0  0
  -25.5426  -10.1880   19.7285 C   0  0  0  0  0  0  0  0  0  0  0  0
  -26.9620  -10.4167   18.0647 C   0  0  0  0  0  0  0  0  0  0  0  0
  -27.5438  -23.2523   20.0443 C   0  0  0  0  0  0  0  0  0  0  0  0
  -28.6742  -22.4881   20.5089 C   0  0  0  0  0  0  0  0  0  0  0  0
  -26.5782  -22.3566   19.3487 C   0  0  0  0  0  0  0  0  0  0  0  0
  -29.7504  -22.9192   21.1755 C   0  0  0  0  0  0  0  0  0  0  0  0
  -27.3009  -24.5575   20.1650 C   0  0  0  0  0  0  0  0  0  1  0  0
  -25.3688   -8.5107   17.7864 C   0  0  0  0  0  0  0  0  0  0  0  0
  -26.6341  -31.0973   22.6758 C   0  0  0  0  0  0  0  0  0  0  0  0
  -23.4924  -30.9046   23.4599 C   0  0  0  0  0  0  0  0  0  0  0  0
  -20.5507  -29.1888   23.2373 C   0  0  0  0  0  0  0  0  0  0  0  0
  -28.5598  -16.0609   19.2029 C   0  0  0  0  0  0  0  0  0  0  0  0
  -28.0119  -34.5628   26.1615 C   0  0  0  0  0  0  0  0  0  0  0  0
  -25.5726  -30.7413   20.4170 C   0  0  0  0  0  0  0  0  0  0  0  0
  -24.5273  -28.8460   22.4319 C   0  0  0  0  0  0  0  0  0  0  0  0
  -28.4375  -21.0642   20.1054 C   0  0  0  0  0  0  0  0  0  0  0  0
  -27.1662  -33.2919   26.1604 C   0  0  0  0  0  0  0  0  0  0  0  0
  -30.5245  -13.1412   19.7439 C   0  0  0  0  0  0  0  0  0  0  0  0
  -27.9141  -32.1536   25.4737 C   0  0  0  0  0  0  0  0  0  0  0  0
  -29.5049  -12.0016   19.6826 C   0  0  0  0  0  0  0  0  0  0  0  0
  -29.9434  -14.3869   20.4106 C   0  0  0  0  0  0  0  0  0  0  0  0
  -27.6566  -13.7225   19.7792 C   0  0  0  0  0  0  0  0  0  0  0  0
  -28.2072  -32.4917   24.0070 C   0  0  1  0  0  0  0  0  0  0  0  0
  -25.3656  -31.1496   21.8722 C   0  0  1  0  0  0  0  0  0  0  0  0
  -28.1754  -12.4680   19.0577 C   0  0  2  0  0  0  0  0  0  0  0  0
  -18.1658  -29.2586   24.0148 C   0  0  0  0  0  0  0  0  0  0  0  0
  -24.3693  -29.9628   26.2265 C   0  0  0  0  0  0  0  0  0  0  0  0
  -22.0312  -29.1571   26.6168 C   0  0  0  0  0  0  0  0  0  0  0  0
  -22.4645  -31.5833   26.2313 C   0  0  0  0  0  0  0  0  0  0  0  0
  -19.5296  -29.3481   20.4640 C   0  0  0  0  0  0  0  0  0  0  0  0
  -22.6547  -29.9675   24.2961 C   0  0  1  0  0  0  0  0  0  0  0  0
  -19.1400  -29.6460   22.9131 C   0  0  2  0  0  0  0  0  0  0  0  0
  -22.8949  -30.1584   25.8204 C   0  0  0  0  0  0  0  0  0  0  0  0
  -26.2893  -11.2420   20.0682 N   0  0  0  0  0  0  0  0  0  0  0  0
  -27.1433  -11.3560   19.0368 N   0  0  0  0  0  0  0  0  0  0  0  0
  -27.1514  -21.0750   19.4110 N   0  0  0  0  0  0  0  0  0  0  0  0
  -24.3878  -30.3058   22.5624 N   0  0  0  0  0  0  0  0  0  0  0  0
  -28.6874  -14.7723   19.7635 N   0  0  0  0  0  0  0  0  0  0  0  0
  -27.7344  -10.3866   16.9580 N   0  0  0  0  0  0  0  0  0  0  0  0
  -24.2971   -7.8178   18.3657 N   0  0  0  0  0  0  0  0  0  0  0  0
  -27.3327  -16.3023   18.5861 N   0  0  0  0  0  0  0  0  0  0  0  0
  -27.0183  -32.3165   23.2006 N   0  0  0  0  0  0  0  0  0  0  0  0
  -21.2721  -30.1734   23.8787 N   0  0  0  0  0  0  0  0  0  0  0  0
  -18.6761  -29.0304   21.6377 N   0  3  0  0  0  0  0  0  0  0  0  0
  -25.5217  -22.6965   18.8429 O   0  0  0  0  0  0  0  0  0  0  0  0
  -25.8269   -8.1231   16.6849 O   0  0  0  0  0  0  0  0  0  0  0  0
  -27.2201  -30.0296   22.8110 O   0  0  0  0  0  0  0  0  0  0  0  0
  -23.3521  -32.1229   23.5928 O   0  0  0  0  0  0  0  0  0  0  0  0
  -20.9697  -28.0688   22.9534 O   0  0  0  0  0  0  0  0  0  0  0  0
  -29.4818  -16.8796   19.2417 O   0  0  0  0  0  0  0  0  0  0  0  0
  -21.4467   -8.4424   23.1112 O   0  0  0  0  0  0  0  0  0  0  0  0
  -26.1766  -25.1581   19.6721 O   0  0  0  0  0  0  0  0  0  1  0  0
  -21.0301   -3.0246   24.0478 F   0  0  0  0  0  0  0  0  0  0  0  0
  -24.8709  -16.5131   17.2956 F   0  0  0  0  0  0  0  0  0  0  0  0
  -21.0160   -6.6726   21.0316 F   0  0  0  0  0  0  0  0  0  0  0  0
  1  2  1  0  0  0  0
  1  5  2  0  0  0  0
  2  6  2  0  0  0  0
  3  9  2  0  0  0  0
  3 18  1  0  0  0  0
  4 10  1  0  0  0  0
  4 18  2  0  0  0  0
  5 20  1  0  0  0  0
  6 22  1  0  0  0  0
  7 11  2  0  0  0  0
  7 21  1  0  0  0  0
  8 13  2  0  0  0  0
  8 24  1  0  0  0  0
  9 26  1  0  0  0  0
 10 26  2  0  0  0  0
 11 27  1  0  0  0  0
 12 14  2  0  0  0  0
 12 28  1  0  0  0  0
 13 30  1  0  0  0  0
 14 29  1  0  0  0  0
 15 23  1  0  0  0  0
 15 27  2  0  0  0  0
 16 24  2  0  0  0  0
 16 25  1  0  0  0  0
 17 29  2  0  0  0  0
 17 31  1  0  0  0  0
 18 32  1  0  0  0  0
 19 32  1  0  0  0  0
 19 33  2  0  0  0  0
 19 39  1  0  0  0  0
 20 22  2  0  0  0  0
 20 44  1  0  0  0  0
 21 23  2  0  0  0  0
 21 45  1  0  0  0  0
 22 54  1  0  0  0  0
 23 46  1  0  0  0  0
 24 67  1  0  0  0  0
 25 30  2  0  0  0  0
 25 72  1  0  0  0  0
 26 82  1  0  0  0  0
 27 83  1  0  0  0  0
 28 31  2  0  0  0  0
 28 82  1  0  0  0  0
 29 84  1  0  0  0  0
 30 85  1  0  0  0  0
 31 86  1  0  0  0  0
 32 65  2  0  0  0  0
 33 66  1  0  0  0  0
 33 70  1  0  0  0  0
 34 35  1  0  0  0  0
 34 36  1  0  0  0  0
 34 38  2  0  0  0  0
 35 37  2  0  0  0  0
 35 47  1  0  0  0  0
 36 67  1  0  0  0  0
 36 76  2  0  0  0  0
 38 83  1  0  0  0  0
 39 71  1  0  0  0  0
 39 77  2  0  0  0  0
 40 55  1  0  0  0  0
 40 73  1  0  0  0  0
 40 78  2  0  0  0  0
 41 62  1  0  0  0  0
 41 68  1  0  0  0  0
 41 79  2  0  0  0  0
 42 63  1  0  0  0  0
 42 74  1  0  0  0  0
 42 80  2  0  0  0  0
 43 69  1  0  0  0  0
 43 72  1  0  0  0  0
 43 81  2  0  0  0  0
 44 48  1  0  0  0  0
 45 55  1  0  0  0  0
 46 68  1  0  0  0  0
 47 67  1  0  0  0  0
 48 50  1  0  0  0  0
 49 51  1  0  0  0  0
 49 52  1  0  0  0  0
 50 54  1  0  0  0  0
 51 56  1  0  0  0  0
 52 69  1  0  0  0  0
 53 56  1  0  0  0  0
 53 69  1  0  0  0  0
 54 73  1  0  0  0  0
 55 68  1  0  0  0  0
 56 66  1  0  0  0  0
 57 63  1  0  0  0  0
 58 64  1  0  0  0  0
 59 64  1  0  0  0  0
 60 64  1  0  0  0  0
 61 75  1  0  0  0  0
 62 64  1  0  0  0  0
 62 74  1  0  0  0  0
 63 75  1  0  0  0  0
 65 66  1  0  0  0  0
M  CHG  1  75   1
M  ISO  4  38 101  43 100  72 100  83 101
M  END
> <Batch ID>
0081

> <Smiles>
C=C1CN(c2ccc(F)c([100NH:0][100C:0](=O)N3CCCC(n4nc(-c5ccc(Oc6ccc(F)cc6F)cc5)c(C(N)=O)c4N)C3)c2)C(=O)C1=[101CH:1][101O:1]c1ccc2c(c1)CN(C(=O)C(NC(=O)C(C)NC)C(C)(C)C)C(C(=O)NC1CCCc3ccccc31)C2

> <Shape>
0.293

> <Color>
0.105

> <Negative vol penalty>
0.000

$$$$

  -OEChem-04052300043D

 84 93  0     1  0  0  0  0  0999 V2000
  -28.0946  -35.2054   25.8440 C   0  0  0  0  0  0  0  0  0  0  0  0
  -28.4519  -34.0551   25.1480 C   0  0  0  0  0  0  0  0  0  0  0  0
  -23.8095  -10.2116   22.2893 C   0  0  0  0  0  0  0  0  0  0  0  0
  -25.0458   -8.1855   21.8386 C   0  0  0  0  0  0  0  0  0  0  0  0
  -26.7926  -35.3546   26.3200 C   0  0  0  0  0  0  0  0  0  0  0  0
  -27.5078  -33.0526   24.9286 C   0  0  0  0  0  0  0  0  0  0  0  0
  -27.0496  -29.4408   20.0041 C   0  0  0  0  0  0  0  0  0  0  0  0
  -27.9980  -19.5539   21.5636 C   0  0  0  0  0  0  0  0  0  0  0  0
  -28.6987  -19.8189   19.2667 C   0  0  0  0  0  0  0  0  0  0  0  0
  -28.3098  -18.1958   21.5021 C   0  0  0  0  0  0  0  0  0  0  0  0
  -29.0105  -18.4607   19.2051 C   0  0  0  0  0  0  0  0  0  0  0  0
  -22.6116   -9.5064   22.1739 C   0  0  0  0  0  0  0  0  0  0  0  0
  -23.8480   -7.4802   21.7232 C   0  0  0  0  0  0  0  0  0  0  0  0
  -27.4769  -28.1376   19.7537 C   0  0  0  0  0  0  0  0  0  0  0  0
  -21.1248   -5.0721   21.6665 C   0  0  0  0  0  0  0  0  0  0  0  0
  -21.0361   -3.8344   22.3035 C   0  0  0  0  0  0  0  0  0  0  0  0
  -25.2858  -27.3138   20.3365 C   0  0  0  0  0  0  0  0  0  0  0  0
  -21.4481   -4.9004   24.4321 C   0  0  0  0  0  0  0  0  0  0  0  0
  -25.0266   -9.5512   22.1216 C   0  0  0  0  0  0  0  0  0  0  0  0
  -27.0228  -10.4820   23.4086 C   0  0  0  0  0  0  0  0  0  0  0  0
  -25.8294  -34.3578   26.0979 C   0  0  0  0  0  0  0  0  0  0  0  0
  -25.7382  -29.6898   20.4337 C   0  0  0  0  0  0  0  0  0  0  0  0
  -26.1921  -33.1880   25.4032 C   0  0  0  0  0  0  0  0  0  0  0  0
  -24.8436  -28.6213   20.5891 C   0  0  0  0  0  0  0  0  0  0  0  0
  -28.1925  -20.3655   20.4459 C   0  0  0  0  0  0  0  0  0  0  0  0
  -28.8160  -17.6492   20.3229 C   0  0  0  0  0  0  0  0  0  0  0  0
  -22.6308   -8.1407   21.8909 C   0  0  0  0  0  0  0  0  0  0  0  0
  -26.5958  -27.0735   19.9227 C   0  0  0  0  0  0  0  0  0  0  0  0
  -21.3752   -6.2240   22.4122 C   0  0  0  0  0  0  0  0  0  0  0  0
  -21.1977   -3.7485   23.6863 C   0  0  0  0  0  0  0  0  0  0  0  0
  -21.5368   -6.1381   23.7950 C   0  0  0  0  0  0  0  0  0  0  0  0
  -26.2643  -10.2793   22.2401 C   0  0  0  0  0  0  0  0  0  0  0  0
  -28.0982  -11.2293   22.9946 C   0  0  0  0  0  0  0  0  0  0  0  0
  -27.3414  -23.6289   20.5823 C   0  0  0  0  0  0  0  0  0  0  0  0
  -27.3897  -22.4876   21.4969 C   0  0  0  0  0  0  0  0  0  0  0  0
  -26.9610  -24.9004   20.7070 C   0  0  0  0  0  0  0  0  0  1  0  0
  -26.7773  -10.0346   24.7485 C   0  0  0  0  0  0  0  0  0  0  0  0
  -24.4344  -30.9542   23.0424 C   0  0  0  0  0  0  0  0  0  0  0  0
  -21.6866  -30.6432   21.3467 C   0  0  0  0  0  0  0  0  0  0  0  0
  -19.9880  -29.0565   18.8479 C   0  0  0  0  0  0  0  0  0  0  0  0
  -29.0445  -15.5238   19.0479 C   0  0  0  0  0  0  0  0  0  0  0  0
  -24.4474  -34.5428   26.6727 C   0  0  0  0  0  0  0  0  0  0  0  0
  -25.2850  -31.1038   20.6738 C   0  0  0  0  0  0  0  0  0  0  0  0
  -23.4194  -28.8371   21.0290 C   0  0  0  0  0  0  0  0  0  0  0  0
  -27.8914  -22.7415   19.4893 C   0  0  0  0  0  0  0  0  0  0  0  0
  -23.4071  -33.6004   26.0729 C   0  0  0  0  0  0  0  0  0  0  0  0
  -30.3106  -12.0798   18.6655 C   0  0  0  0  0  0  0  0  0  0  0  0
  -23.9468  -32.1747   26.0181 C   0  0  0  0  0  0  0  0  0  0  0  0
  -29.4161  -11.2811   19.6122 C   0  0  0  0  0  0  0  0  0  0  0  0
  -29.5907  -13.3008   18.1008 C   0  0  0  0  0  0  0  0  0  0  0  0
  -28.1246  -13.3990   20.0935 C   0  0  0  0  0  0  0  0  0  0  0  0
  -25.1896  -32.0894   25.1237 C   0  0  1  0  0  0  0  0  0  0  0  0
  -24.0782  -31.1949   21.6026 C   0  0  1  0  0  0  0  0  0  0  0  0
  -28.8356  -12.1861   20.7126 C   0  0  1  0  0  0  0  0  0  0  0  0
  -17.7463  -28.9926   17.7220 C   0  0  0  0  0  0  0  0  0  0  0  0
  -20.5370  -29.1201   23.7275 C   0  0  0  0  0  0  0  0  0  0  0  0
  -18.7179  -28.2830   22.2246 C   0  0  0  0  0  0  0  0  0  0  0  0
  -18.9515  -30.7291   22.6543 C   0  0  0  0  0  0  0  0  0  0  0  0
  -29.8004  -15.6239   21.4118 C   0  0  0  0  0  0  0  0  0  0  0  0
  -21.1494  -29.8188   16.2347 C   0  0  0  0  0  0  0  0  0  0  0  0
  -20.6462  -29.5612   21.1859 C   0  0  1  0  0  0  0  0  0  0  0  0
  -19.1437  -29.5924   17.7059 C   0  0  2  0  0  0  0  0  0  0  0  0
  -19.7405  -29.4188   22.4417 C   0  0  0  0  0  0  0  0  0  0  0  0
  -26.8114  -10.8518   21.1645 N   0  0  0  0  0  0  0  0  0  0  0  0
  -27.9251  -11.4217   21.6555 N   0  0  0  0  0  0  0  0  0  0  0  0
  -27.8847  -21.7049   20.5063 N   0  0  0  0  0  0  0  0  0  0  0  0
  -23.0257  -30.2372   21.2573 N   0  0  0  0  0  0  0  0  0  0  0  0
  -29.0093  -14.1197   19.1652 N   0  0  0  0  0  0  0  0  0  0  0  0
  -29.1656  -11.7342   23.6490 N   0  0  0  0  0  0  0  0  0  0  0  0
  -25.6253   -9.2768   24.9993 N   0  0  0  0  0  0  0  0  0  0  0  0
  -24.8087  -32.0944   23.7275 N   0  0  0  0  0  0  0  0  0  0  0  0
  -19.9213  -29.8711   19.9584 N   0  0  0  0  0  0  0  0  0  0  0  0
  -29.1389  -16.2433   20.2588 N   0  0  0  0  0  0  0  0  0  0  0  0
  -19.7785  -29.2699   16.3967 N   0  3  0  0  0  0  0  0  0  0  0  0
  -27.0962  -22.3047   22.6600 O   0  0  0  0  0  0  0  0  0  0  0  0
  -27.5478  -10.3130   25.6984 O   0  0  0  0  0  0  0  0  0  0  0  0
  -24.3727  -29.8185   23.4983 O   0  0  0  0  0  0  0  0  0  0  0  0
  -21.3245  -31.8069   21.5372 O   0  0  0  0  0  0  0  0  0  0  0  0
  -20.6386  -28.0171   18.7646 O   0  0  0  0  0  0  0  0  0  0  0  0
  -29.0235  -16.0872   17.9471 O   0  0  0  0  0  0  0  0  0  0  0  0
  -21.4622   -7.4521   21.7784 O   0  0  0  0  0  0  0  0  0  0  0  0
  -27.0104  -25.8004   19.6796 O   0  0  0  0  0  0  0  0  0  1  0  0
  -21.1110   -2.5601   24.2981 F   0  0  0  0  0  0  0  0  0  0  0  0
  -21.7764   -7.2414   24.5169 F   0  0  0  0  0  0  0  0  0  0  0  0
  1  2  1  0  0  0  0
  1  5  2  0  0  0  0
  2  6  2  0  0  0  0
  3 12  2  0  0  0  0
  3 19  1  0  0  0  0
  4 13  1  0  0  0  0
  4 19  2  0  0  0  0
  5 21  1  0  0  0  0
  6 23  1  0  0  0  0
  7 14  2  0  0  0  0
  7 22  1  0  0  0  0
  8 10  2  0  0  0  0
  8 25  1  0  0  0  0
  9 11  1  0  0  0  0
  9 25  2  0  0  0  0
 10 26  1  0  0  0  0
 11 26  2  0  0  0  0
 12 27  1  0  0  0  0
 13 27  2  0  0  0  0
 14 28  1  0  0  0  0
 15 16  2  0  0  0  0
 15 29  1  0  0  0  0
 16 30  1  0  0  0  0
 17 24  1  0  0  0  0
 17 28  2  0  0  0  0
 18 30  2  0  0  0  0
 18 31  1  0  0  0  0
 19 32  1  0  0  0  0
 20 32  1  0  0  0  0
 20 33  2  0  0  0  0
 20 37  1  0  0  0  0
 21 23  2  0  0  0  0
 21 42  1  0  0  0  0
 22 24  2  0  0  0  0
 22 43  1  0  0  0  0
 23 52  1  0  0  0  0
 24 44  1  0  0  0  0
 25 66  1  0  0  0  0
 26 73  1  0  0  0  0
 27 81  1  0  0  0  0
 28 82  1  0  0  0  0
 29 31  2  0  0  0  0
 29 81  1  0  0  0  0
 30 83  1  0  0  0  0
 31 84  1  0  0  0  0
 32 64  2  0  0  0  0
 33 65  1  0  0  0  0
 33 69  1  0  0  0  0
 34 35  1  0  0  0  0
 34 36  2  0  0  0  0
 34 45  1  0  0  0  0
 35 66  1  0  0  0  0
 35 75  2  0  0  0  0
 36 82  1  0  0  0  0
 37 70  1  0  0  0  0
 37 76  2  0  0  0  0
 38 53  1  0  0  0  0
 38 71  1  0  0  0  0
 38 77  2  0  0  0  0
 39 61  1  0  0  0  0
 39 67  1  0  0  0  0
 39 78  2  0  0  0  0
 40 62  1  0  0  0  0
 40 72  1  0  0  0  0
 40 79  2  0  0  0  0
 41 68  1  0  0  0  0
 41 73  1  0  0  0  0
 41 80  2  0  0  0  0
 42 46  1  0  0  0  0
 43 53  1  0  0  0  0
 44 67  1  0  0  0  0
 45 66  1  0  0  0  0
 46 48  1  0  0  0  0
 47 49  1  0  0  0  0
 47 50  1  0  0  0  0
 48 52  1  0  0  0  0
 49 54  1  0  0  0  0
 50 68  1  0  0  0  0
 51 54  1  0  0  0  0
 51 68  1  0  0  0  0
 52 71  1  0  0  0  0
 53 67  1  0  0  0  0
 54 65  1  0  0  0  0
 55 62  1  0  0  0  0
 56 63  1  0  0  0  0
 57 63  1  0  0  0  0
 58 63  1  0  0  0  0
 59 73  1  0  0  0  0
 60 74  1  0  0  0  0
 61 63  1  0  0  0  0
 61 72  1  0  0  0  0
 62 74  1  0  0  0  0
 64 65  1  0  0  0  0
M  CHG  1  74   1
M  ISO  4  36 101  41 100  73 100  82 101
M  END
> <Batch ID>
0081

> <Smiles>
CNC(C)C(=O)NC(C(=O)N1Cc2cc([101O:1][101CH:1]=C3CN(c4ccc([100N:0](C)[100C:0](=O)N5CCCC(n6nc(-c7ccc(Oc8ccc(F)cc8F)cc7)c(C(N)=O)c6N)C5)cc4)C3=O)ccc2CC1C(=O)NC1CCCc2ccccc21)C(C)(C)C

> <Shape>
0.320

> <Color>
0.093

> <Negative vol penalty>
0.000

$$$$

  -OEChem-04052300043D

 86 94  0     1  0  0  0  0  0999 V2000
  -20.1077  -22.7843   20.1197 C   0  0  0  0  0  0  0  0  0  0  0  0
  -21.4757  -22.5847   19.9646 C   0  0  0  0  0  0  0  0  0  0  0  0
  -33.7272  -24.8128   17.4009 C   0  0  0  0  0  0  0  0  0  0  0  0
  -23.7797  -30.3062   21.1583 C   0  0  0  0  0  0  0  0  0  0  0  0
  -25.8753  -30.5498   22.3358 C   0  0  0  0  0  0  0  0  0  0  0  0
  -34.3228  -23.6137   17.7920 C   0  0  0  0  0  0  0  0  0  0  0  0
  -19.3622  -21.9109   20.9105 C   0  0  0  0  0  0  0  0  0  0  0  0
  -22.0993  -21.5122   20.6013 C   0  0  0  0  0  0  0  0  0  0  0  0
  -26.8000  -18.2043   18.4877 C   0  0  0  0  0  0  0  0  0  0  0  0
  -32.3675  -25.0236   17.6301 C   0  0  0  0  0  0  0  0  0  0  0  0
  -23.1614  -31.1452   22.0852 C   0  0  0  0  0  0  0  0  0  0  0  0
  -25.2569  -31.3889   23.2627 C   0  0  0  0  0  0  0  0  0  0  0  0
  -28.1707  -18.2562   18.7371 C   0  0  0  0  0  0  0  0  0  0  0  0
  -24.2739  -34.6178   23.4298 C   0  0  0  0  0  0  0  0  0  0  0  0
  -24.9425  -35.7879   23.7896 C   0  0  0  0  0  0  0  0  0  0  0  0
  -32.1990  -22.8359   18.6414 C   0  0  0  0  0  0  0  0  0  0  0  0
  -27.9289  -16.5190   20.3933 C   0  0  0  0  0  0  0  0  0  0  0  0
  -24.9836  -35.0563   26.0918 C   0  0  0  0  0  0  0  0  0  0  0  0
  -25.1367  -30.0084   21.2836 C   0  0  0  0  0  0  0  0  0  0  0  0
  -33.5587  -22.6252   18.4122 C   0  0  0  0  0  0  0  0  0  0  0  0
  -26.4069  -29.5187   19.1262 C   0  0  0  0  0  0  0  0  0  0  0  0
  -19.9753  -20.8216   21.5494 C   0  0  0  0  0  0  0  0  0  0  0  0
  -25.9803  -17.3155   19.1981 C   0  0  0  0  0  0  0  0  0  0  0  0
  -21.3616  -20.6242   21.4025 C   0  0  0  0  0  0  0  0  0  0  0  0
  -26.5485  -16.4560   20.1492 C   0  0  0  0  0  0  0  0  0  0  0  0
  -31.6034  -24.0351   18.2503 C   0  0  0  0  0  0  0  0  0  0  0  0
  -23.8999  -31.6866   23.1374 C   0  0  0  0  0  0  0  0  0  0  0  0
  -28.7349  -17.4155   19.6921 C   0  0  0  0  0  0  0  0  0  0  0  0
  -23.9601  -33.6670   24.4009 C   0  0  0  0  0  0  0  0  0  0  0  0
  -25.2974  -36.0071   25.1206 C   0  0  0  0  0  0  0  0  0  0  0  0
  -24.3150  -33.8863   25.7320 C   0  0  0  0  0  0  0  0  0  0  0  0
  -25.7759  -29.1413   20.3267 C   0  0  0  0  0  0  0  0  0  0  0  0
  -26.8495  -28.3366   18.5846 C   0  0  0  0  0  0  0  0  0  0  0  0
  -34.1964  -21.3444   18.8296 C   0  0  0  0  0  0  0  0  0  0  0  0
  -26.5777  -30.8213   18.5519 C   0  0  0  0  0  0  0  0  0  0  0  0
  -33.2210  -19.2638   18.8850 C   0  0  0  0  0  0  0  0  0  0  0  0
  -32.2832  -18.3293   19.5949 C   0  0  0  0  0  0  0  0  0  0  0  0
  -23.5213  -17.6339   21.1869 C   0  0  0  0  0  0  0  0  0  0  0  0
  -23.4315  -14.3983   20.9733 C   0  0  0  0  0  0  0  0  0  0  0  0
  -25.0955  -11.4905   20.3234 C   0  0  0  0  0  0  0  0  0  0  0  0
  -29.3212  -23.3726   19.0865 C   0  0  0  0  0  0  0  0  0  0  0  0
  -19.1365  -19.9318   22.4323 C   0  0  0  0  0  0  0  0  0  0  0  0
  -24.5077  -17.2530   18.8983 C   0  0  0  0  0  0  0  0  0  0  0  0
  -25.7152  -15.4696   20.9246 C   0  0  0  0  0  0  0  0  0  0  0  0
  -19.8068  -18.6025   22.7699 C   0  0  0  0  0  0  0  0  0  0  0  0
  -25.8536  -23.5447   19.8760 C   0  0  0  0  0  0  0  0  0  0  0  0
  -21.2551  -18.8271   23.1926 C   0  0  0  0  0  0  0  0  0  0  0  0
  -25.5762  -25.0471   19.9649 C   0  0  0  0  0  0  0  0  0  0  0  0
  -27.2348  -23.1896   20.4238 C   0  0  0  0  0  0  0  0  0  0  0  0
  -28.0702  -25.4546   19.9325 C   0  0  0  0  0  0  0  0  0  0  0  0
  -22.0698  -19.4579   22.0569 C   0  0  1  0  0  0  0  0  0  0  0  0
  -23.6885  -16.6706   20.0459 C   0  0  1  0  0  0  0  0  0  0  0  0
  -26.7166  -25.8691   19.3329 C   0  0  2  0  0  0  0  0  0  0  0  0
  -35.1712  -18.0366   17.9390 C   0  0  0  0  0  0  0  0  0  0  0  0
  -24.7673   -9.0032   20.2679 C   0  0  0  0  0  0  0  0  0  0  0  0
  -23.5347  -14.3192   24.0217 C   0  0  0  0  0  0  0  0  0  0  0  0
  -24.1576  -11.8992   23.8684 C   0  0  0  0  0  0  0  0  0  0  0  0
  -21.9569  -12.6769   22.9884 C   0  0  0  0  0  0  0  0  0  0  0  0
  -25.7403  -11.3531   17.4382 C   0  0  0  0  0  0  0  0  0  0  0  0
  -33.8655  -18.7437   17.6237 C   0  0  0  0  0  0  0  0  0  0  0  0
  -30.8381  -18.4010   19.1811 C   0  0  0  0  0  0  0  0  0  1  0  0
  -24.0708  -13.2589   21.7295 C   0  0  1  0  0  0  0  0  0  0  0  0
  -24.7331  -10.2932   19.4633 C   0  0  2  0  0  0  0  0  0  0  0  0
  -23.4457  -13.0584   23.1389 C   0  0  0  0  0  0  0  0  0  0  0  0
  -25.8122  -27.8226   20.5359 N   0  0  0  0  0  0  0  0  0  0  0  0
  -33.3691  -20.4282   19.4328 N   0  0  0  0  0  0  0  0  0  0  0  0
  -26.4712  -27.3610   19.4594 N   0  0  0  0  0  0  0  0  0  0  0  0
  -24.2794  -15.4508   20.6000 N   0  0  0  0  0  0  0  0  0  0  0  0
  -28.2649  -24.0046   19.7761 N   0  0  0  0  0  0  0  0  0  0  0  0
  -27.5214  -28.0469   17.4502 N   0  0  0  0  0  0  0  0  0  0  0  0
  -26.0615  -31.9278   19.2401 N   0  0  0  0  0  0  0  0  0  0  0  0
  -30.2223  -24.2494   18.4833 N   0  0  0  0  0  0  0  0  0  0  0  0
  -22.4188  -18.4587   21.0699 N   0  0  0  0  0  0  0  0  0  0  0  0
  -23.9765  -12.0896   20.8622 N   0  0  0  0  0  0  0  0  0  0  0  0
  -25.6885  -10.1637   18.3268 N   0  3  0  0  0  0  0  0  0  0  0  0
  -35.3849  -21.1549   18.5916 O   0  0  0  0  0  0  0  0  0  0  0  0
  -27.1560  -30.9970   17.4527 O   0  0  0  0  0  0  0  0  0  0  0  0
  -32.7557  -17.5756   20.4315 O   0  0  0  0  0  0  0  0  0  0  0  0
  -24.3316  -17.6281   22.1062 O   0  0  0  0  0  0  0  0  0  0  0  0
  -22.2258  -14.3528   20.7168 O   0  0  0  0  0  0  0  0  0  0  0  0
  -26.2553  -11.8553   20.5025 O   0  0  0  0  0  0  0  0  0  0  0  0
  -29.4042  -22.1439   19.0119 O   0  0  0  0  0  0  0  0  0  0  0  0
  -23.2969  -32.5056   24.0420 O   0  0  0  0  0  0  0  0  0  0  0  0
  -30.0724  -17.4645   19.9381 O   0  0  0  0  0  0  0  0  0  1  0  0
  -25.9409  -37.1300   25.4658 F   0  0  0  0  0  0  0  0  0  0  0  0
  -24.0172  -32.9759   26.6692 F   0  0  0  0  0  0  0  0  0  0  0  0
  1  2  1  0  0  0  0
  1  7  2  0  0  0  0
  2  8  2  0  0  0  0
  3  6  2  0  0  0  0
  3 10  1  0  0  0  0
  4 11  2  0  0  0  0
  4 19  1  0  0  0  0
  5 12  1  0  0  0  0
  5 19  2  0  0  0  0
  6 20  1  0  0  0  0
  7 22  1  0  0  0  0
  8 24  1  0  0  0  0
  9 13  2  0  0  0  0
  9 23  1  0  0  0  0
 10 26  2  0  0  0  0
 11 27  1  0  0  0  0
 12 27  2  0  0  0  0
 13 28  1  0  0  0  0
 14 15  2  0  0  0  0
 14 29  1  0  0  0  0
 15 30  1  0  0  0  0
 16 20  2  0  0  0  0
 16 26  1  0  0  0  0
 17 25  1  0  0  0  0
 17 28  2  0  0  0  0
 18 30  2  0  0  0  0
 18 31  1  0  0  0  0
 19 32  1  0  0  0  0
 20 34  1  0  0  0  0
 21 32  1  0  0  0  0
 21 33  2  0  0  0  0
 21 35  1  0  0  0  0
 22 24  2  0  0  0  0
 22 42  1  0  0  0  0
 23 25  2  0  0  0  0
 23 43  1  0  0  0  0
 24 51  1  0  0  0  0
 25 44  1  0  0  0  0
 26 72  1  0  0  0  0
 27 83  1  0  0  0  0
 28 84  1  0  0  0  0
 29 31  2  0  0  0  0
 29 83  1  0  0  0  0
 30 85  1  0  0  0  0
 31 86  1  0  0  0  0
 32 65  2  0  0  0  0
 33 67  1  0  0  0  0
 33 70  1  0  0  0  0
 34 66  1  0  0  0  0
 34 76  2  0  0  0  0
 35 71  1  0  0  0  0
 35 77  2  0  0  0  0
 36 37  1  0  0  0  0
 36 60  1  0  0  0  0
 36 66  2  0  0  0  0
 37 61  1  0  0  0  0
 37 78  2  0  0  0  0
 38 52  1  0  0  0  0
 38 73  1  0  0  0  0
 38 79  2  0  0  0  0
 39 62  1  0  0  0  0
 39 68  1  0  0  0  0
 39 80  2  0  0  0  0
 40 63  1  0  0  0  0
 40 74  1  0  0  0  0
 40 81  2  0  0  0  0
 41 69  1  0  0  0  0
 41 72  1  0  0  0  0
 41 82  2  0  0  0  0
 42 45  1  0  0  0  0
 43 52  1  0  0  0  0
 44 68  1  0  0  0  0
 45 47  1  0  0  0  0
 46 48  1  0  0  0  0
 46 49  1  0  0  0  0
 47 51  1  0  0  0  0
 48 53  1  0  0  0  0
 49 69  1  0  0  0  0
 50 53  1  0  0  0  0
 50 69  1  0  0  0  0
 51 73  1  0  0  0  0
 52 68  1  0  0  0  0
 53 67  1  0  0  0  0
 54 60  1  0  0  0  0
 55 63  1  0  0  0  0
 56 64  1  0  0  0  0
 57 64  1  0  0  0  0
 58 64  1  0  0  0  0
 59 75  1  0  0  0  0
 61 84  1  0  0  0  0
 62 64  1  0  0  0  0
 62 74  1  0  0  0  0
 63 75  1  0  0  0  0
 65 67  1  0  0  0  0
M  CHG  1  75   1
M  ISO  4  41 100  61 101  72 100  84 101
M  END
> <Batch ID>
0081

> <Smiles>
C=CC(NC(=O)c1cccc([100NH:0][100C:0](=O)N2CCCC(n3nc(-c4ccc(Oc5ccc(F)cc5F)cc4)c(C(N)=O)c3N)C2)c1)C(=O)[101CH2:1][101O:1]c1ccc2c(c1)CN(C(=O)C(NC(=O)C(C)NC)C(C)(C)C)C(C(=O)NC1CCCc3ccccc31)C2

> <Shape>
0.202

> <Color>
0.086

> <Negative vol penalty>
0.000

$$$$

  -OEChem-04052300043D

 82 90  0     1  0  0  0  0  0999 V2000
  -21.4090  -12.9657   20.4135 C   0  0  0  0  0  0  0  0  0  0  0  0
  -21.4336  -14.3000   20.8063 C   0  0  0  0  0  0  0  0  0  0  0  0
  -17.7609  -26.8019   23.2817 C   0  0  0  0  0  0  0  0  0  0  0  0
  -25.3382  -27.5531   14.7604 C   0  0  0  0  0  0  0  0  0  0  0  0
  -27.5162  -26.8717   15.5537 C   0  0  0  0  0  0  0  0  0  0  0  0
  -18.6179  -27.8630   23.5733 C   0  0  0  0  0  0  0  0  0  0  0  0
  -22.6008  -12.2506   20.3033 C   0  0  0  0  0  0  0  0  0  0  0  0
  -22.6501  -14.9198   21.0902 C   0  0  0  0  0  0  0  0  0  0  0  0
  -23.0072  -19.5328   19.0317 C   0  0  0  0  0  0  0  0  0  0  0  0
  -18.1918  -25.7640   22.4553 C   0  0  0  0  0  0  0  0  0  0  0  0
  -25.8298  -27.6060   13.4561 C   0  0  0  0  0  0  0  0  0  0  0  0
  -28.0078  -26.9246   14.2494 C   0  0  0  0  0  0  0  0  0  0  0  0
  -22.3361  -20.5712   19.6760 C   0  0  0  0  0  0  0  0  0  0  0  0
  -26.5482  -25.4246   10.9745 C   0  0  0  0  0  0  0  0  0  0  0  0
  -25.7710  -24.8563    9.9653 C   0  0  0  0  0  0  0  0  0  0  0  0
  -20.3369  -26.8486   22.2120 C   0  0  0  0  0  0  0  0  0  0  0  0
  -24.4080  -21.2700   20.6950 C   0  0  0  0  0  0  0  0  0  0  0  0
  -25.6416  -26.9998    8.8581 C   0  0  0  0  0  0  0  0  0  0  0  0
  -26.1814  -27.1860   15.8092 C   0  0  0  0  0  0  0  0  0  0  0  0
  -19.9059  -27.8864   23.0384 C   0  0  0  0  0  0  0  0  0  0  0  0
  -25.0929  -26.0241   17.8023 C   0  0  0  0  0  0  0  0  0  0  0  0
  -23.8332  -12.8646   20.5766 C   0  0  0  0  0  0  0  0  0  0  0  0
  -24.3841  -19.3482   19.2232 C   0  0  0  0  0  0  0  0  0  0  0  0
  -23.8594  -14.2118   20.9848 C   0  0  0  0  0  0  0  0  0  0  0  0
  -25.0947  -20.2300   20.0500 C   0  0  0  0  0  0  0  0  0  0  0  0
  -19.4798  -25.7875   21.9204 C   0  0  0  0  0  0  0  0  0  0  0  0
  -27.1645  -27.2917   13.2006 C   0  0  0  0  0  0  0  0  0  0  0  0
  -23.0359  -21.4382   20.5100 C   0  0  0  0  0  0  0  0  0  0  0  0
  -26.8721  -26.7805   10.9256 C   0  0  0  0  0  0  0  0  0  0  0  0
  -25.3177  -25.6439    8.9071 C   0  0  0  0  0  0  0  0  0  0  0  0
  -26.4188  -27.5681    9.8674 C   0  0  0  0  0  0  0  0  0  0  0  0
  -25.6743  -27.1318   17.1568 C   0  0  0  0  0  0  0  0  0  0  0  0
  -24.7802  -26.4838   19.0583 C   0  0  0  0  0  0  0  0  0  0  0  0
  -20.4844  -23.7475   21.6858 C   0  0  0  0  0  0  0  0  0  0  0  0
  -20.8179  -29.0170   23.3497 C   0  0  0  0  0  0  0  0  0  0  0  0
  -24.8567  -24.6981   17.3107 C   0  0  0  0  0  0  0  0  0  0  0  0
  -26.1907  -17.0220   20.4184 C   0  0  0  0  0  0  0  0  0  0  0  0
  -28.6193  -18.9048   19.3795 C   0  0  0  0  0  0  0  0  0  0  0  0
  -29.7065  -22.0272   18.5339 C   0  0  0  0  0  0  0  0  0  0  0  0
  -22.7167  -30.3347   22.4656 C   0  0  0  0  0  0  0  0  0  0  0  0
  -25.0915  -12.0376   20.4893 C   0  0  0  0  0  0  0  0  0  0  0  0
  -25.0983  -18.2395   18.5000 C   0  0  0  0  0  0  0  0  0  0  0  0
  -26.5774  -20.0872   20.2729 C   0  0  0  0  0  0  0  0  0  0  0  0
  -26.3680  -12.8736   20.4458 C   0  0  0  0  0  0  0  0  0  0  0  0
  -26.0601  -30.7840   21.4086 C   0  0  0  0  0  0  0  0  0  0  0  0
  -26.3299  -13.9621   21.5137 C   0  0  0  0  0  0  0  0  0  0  0  0
  -26.2157  -29.7775   20.2654 C   0  0  0  0  0  0  0  0  0  0  0  0
  -24.6752  -31.4298   21.4115 C   0  0  0  0  0  0  0  0  0  0  0  0
  -23.7058  -29.4872   20.2518 C   0  0  0  0  0  0  0  0  0  0  0  0
  -25.1610  -14.9261   21.2774 C   0  0  1  0  0  0  0  0  0  0  0  0
  -26.4062  -17.8330   19.1721 C   0  0  1  0  0  0  0  0  0  0  0  0
  -25.0591  -28.7580   20.2479 C   0  0  1  0  0  0  0  0  0  0  0  0
  -31.7515  -23.2585   17.7597 C   0  0  0  0  0  0  0  0  0  0  0  0
  -29.7704  -18.7625   22.2017 C   0  0  0  0  0  0  0  0  0  0  0  0
  -31.2241  -20.7197   21.6324 C   0  0  0  0  0  0  0  0  0  0  0  0
  -31.4664  -18.5802   20.3729 C   0  0  0  0  0  0  0  0  0  0  0  0
  -28.3856  -22.8802   16.0266 C   0  0  0  0  0  0  0  0  0  0  0  0
  -20.9810  -22.5694   20.9024 C   0  0  0  0  0  0  0  0  0  1  0  0
  -29.4319  -20.0281   19.9769 C   0  0  1  0  0  0  0  0  0  0  0  0
  -30.4859  -22.5314   17.3327 C   0  0  2  0  0  0  0  0  0  0  0  0
  -30.4449  -19.5244   21.0435 C   0  0  0  0  0  0  0  0  0  0  0  0
  -25.7288  -28.2138   17.9380 N   0  0  0  0  0  0  0  0  0  0  0  0
  -19.9138  -24.7419   21.0880 N   0  0  0  0  0  0  0  0  0  0  0  0
  -25.1775  -27.7882   19.0874 N   0  0  0  0  0  0  0  0  0  0  0  0
  -27.2297  -18.9838   19.5486 N   0  0  0  0  0  0  0  0  0  0  0  0
  -23.6365  -30.3980   21.4044 N   0  0  0  0  0  0  0  0  0  0  0  0
  -24.2068  -25.8955   20.1295 N   0  0  0  0  0  0  0  0  0  0  0  0
  -25.2393  -24.3946   15.9970 N   0  0  0  0  0  0  0  0  0  0  0  0
  -21.7912  -29.2881   22.3877 N   0  0  0  0  0  0  0  0  0  0  0  0
  -25.4791  -15.8552   20.2144 N   0  0  0  0  0  0  0  0  0  0  0  0
  -30.0454  -20.7297   18.8545 N   0  0  0  0  0  0  0  0  0  0  0  0
  -29.6518  -23.4711   16.5313 N   0  3  0  0  0  0  0  0  0  0  0  0
  -20.6463  -29.6564   24.3840 O   0  0  0  0  0  0  0  0  0  0  0  0
  -24.3071  -23.8135   18.0100 O   0  0  0  0  0  0  0  0  0  0  0  0
  -26.6382  -17.4243   21.4860 O   0  0  0  0  0  0  0  0  0  0  0  0
  -29.1956  -17.9946   18.7787 O   0  0  0  0  0  0  0  0  0  0  0  0
  -28.8825  -22.7168   19.1304 O   0  0  0  0  0  0  0  0  0  0  0  0
  -22.7410  -31.1187   23.4196 O   0  0  0  0  0  0  0  0  0  0  0  0
  -27.6445  -27.3430   11.9280 O   0  0  0  0  0  0  0  0  0  0  0  0
  -22.3831  -22.4522   21.1406 O   0  0  0  0  0  0  0  0  0  1  0  0
  -24.5726  -25.0978    7.9372 F   0  0  0  0  0  0  0  0  0  0  0  0
  -26.7277  -28.8710    9.8144 F   0  0  0  0  0  0  0  0  0  0  0  0
  1  2  1  0  0  0  0
  1  7  2  0  0  0  0
  2  8  2  0  0  0  0
  3  6  1  0  0  0  0
  3 10  2  0  0  0  0
  4 11  2  0  0  0  0
  4 19  1  0  0  0  0
  5 12  1  0  0  0  0
  5 19  2  0  0  0  0
  6 20  2  0  0  0  0
  7 22  1  0  0  0  0
  8 24  1  0  0  0  0
  9 13  2  0  0  0  0
  9 23  1  0  0  0  0
 10 26  1  0  0  0  0
 11 27  1  0  0  0  0
 12 27  2  0  0  0  0
 13 28  1  0  0  0  0
 14 15  2  0  0  0  0
 14 29  1  0  0  0  0
 15 30  1  0  0  0  0
 16 20  1  0  0  0  0
 16 26  2  0  0  0  0
 17 25  1  0  0  0  0
 17 28  2  0  0  0  0
 18 30  2  0  0  0  0
 18 31  1  0  0  0  0
 19 32  1  0  0  0  0
 20 35  1  0  0  0  0
 21 32  1  0  0  0  0
 21 33  2  0  0  0  0
 21 36  1  0  0  0  0
 22 24  2  0  0  0  0
 22 41  1  0  0  0  0
 23 25  2  0  0  0  0
 23 42  1  0  0  0  0
 24 50  1  0  0  0  0
 25 43  1  0  0  0  0
 26 63  1  0  0  0  0
 27 79  1  0  0  0  0
 28 80  1  0  0  0  0
 29 31  2  0  0  0  0
 29 79  1  0  0  0  0
 30 81  1  0  0  0  0
 31 82  1  0  0  0  0
 32 62  2  0  0  0  0
 33 64  1  0  0  0  0
 33 67  1  0  0  0  0
 34 58  1  0  0  0  0
 34 63  2  0  0  0  0
 35 69  1  0  0  0  0
 35 73  2  0  0  0  0
 36 68  1  0  0  0  0
 36 74  2  0  0  0  0
 37 51  1  0  0  0  0
 37 70  1  0  0  0  0
 37 75  2  0  0  0  0
 38 59  1  0  0  0  0
 38 65  1  0  0  0  0
 38 76  2  0  0  0  0
 39 60  1  0  0  0  0
 39 71  1  0  0  0  0
 39 77  2  0  0  0  0
 40 66  1  0  0  0  0
 40 69  1  0  0  0  0
 40 78  2  0  0  0  0
 41 44  1  0  0  0  0
 42 51  1  0  0  0  0
 43 65  1  0  0  0  0
 44 46  1  0  0  0  0
 45 47  1  0  0  0  0
 45 48  1  0  0  0  0
 46 50  1  0  0  0  0
 47 52  1  0  0  0  0
 48 66  1  0  0  0  0
 49 52  1  0  0  0  0
 49 66  1  0  0  0  0
 50 70  1  0  0  0  0
 51 65  1  0  0  0  0
 52 64  1  0  0  0  0
 53 60  1  0  0  0  0
 54 61  1  0  0  0  0
 55 61  1  0  0  0  0
 56 61  1  0  0  0  0
 57 72  1  0  0  0  0
 58 80  1  0  0  0  0
 59 61  1  0  0  0  0
 59 71  1  0  0  0  0
 60 72  1  0  0  0  0
 62 64  1  0  0  0  0
M  CHG  1  72   1
M  ISO  4  40 100  58 101  69 100  80 101
M  END
> <Batch ID>
0081

> <Smiles>
CNC(C)C(=O)NC(C(=O)N1Cc2cc([101O:1][101CH:1]=CNc3cccc(C(=O)[100NH:0][100C:0](=O)N4CCCC(n5nc(-c6ccc(Oc7ccc(F)cc7F)cc6)c(C(N)=O)c5N)C4)c3)ccc2CC1C(=O)NC1CCCc2ccccc21)C(C)(C)C

> <Shape>
0.219

> <Color>
0.086

> <Negative vol penalty>
0.000

$$$$

  -OEChem-04052300043D

 88 97  0     1  0  0  0  0  0999 V2000
  -17.7369  -28.2708   24.3375 C   0  0  0  0  0  0  0  0  0  0  0  0
  -18.7052  -27.6488   23.5558 C   0  0  0  0  0  0  0  0  0  0  0  0
  -23.1656   -9.6791   19.8370 C   0  0  0  0  0  0  0  0  0  0  0  0
  -24.4826   -9.2502   21.8165 C   0  0  0  0  0  0  0  0  0  0  0  0
  -17.4358  -29.6166   24.1324 C   0  0  0  0  0  0  0  0  0  0  0  0
  -19.3723  -28.3722   22.5678 C   0  0  0  0  0  0  0  0  0  0  0  0
  -24.3649  -27.5240   22.5759 C   0  0  0  0  0  0  0  0  0  0  0  0
  -22.0723   -9.0448   20.4270 C   0  0  0  0  0  0  0  0  0  0  0  0
  -23.3893   -8.6160   22.4066 C   0  0  0  0  0  0  0  0  0  0  0  0
  -24.8099  -26.3364   21.9968 C   0  0  0  0  0  0  0  0  0  0  0  0
  -21.8596   -5.6063   22.2265 C   0  0  0  0  0  0  0  0  0  0  0  0
  -22.0872   -4.3935   22.8767 C   0  0  0  0  0  0  0  0  0  0  0  0
  -25.3914  -27.5405   19.9890 C   0  0  0  0  0  0  0  0  0  0  0  0
  -26.9979  -19.1796   19.3636 C   0  0  0  0  0  0  0  0  0  0  0  0
  -25.4170  -20.3874   17.9929 C   0  0  0  0  0  0  0  0  0  0  0  0
  -25.1276  -18.0184   18.3684 C   0  0  0  0  0  0  0  0  0  0  0  0
  -21.2827   -5.3508   24.9440 C   0  0  0  0  0  0  0  0  0  0  0  0
  -24.3708   -9.7817   20.5318 C   0  0  0  0  0  0  0  0  0  0  0  0
  -26.1505  -10.0737   18.7277 C   0  0  0  0  0  0  0  0  0  0  0  0
  -18.1064  -30.3593   23.1479 C   0  0  0  0  0  0  0  0  0  0  0  0
  -24.4198  -28.7289   21.8607 C   0  0  0  0  0  0  0  0  0  0  0  0
  -19.0790  -29.7289   22.3485 C   0  0  0  0  0  0  0  0  0  0  0  0
  -24.9489  -28.7424   20.5623 C   0  0  0  0  0  0  0  0  0  0  0  0
  -26.5674  -20.3719   18.7815 C   0  0  0  0  0  0  0  0  0  0  0  0
  -26.2780  -18.0029   19.1570 C   0  0  0  0  0  0  0  0  0  0  0  0
  -22.1841   -8.5133   21.7117 C   0  0  0  0  0  0  0  0  0  0  0  0
  -25.3206  -26.3441   20.7021 C   0  0  0  0  0  0  0  0  0  0  0  0
  -21.3436   -6.6914   22.9350 C   0  0  0  0  0  0  0  0  0  0  0  0
  -21.7987   -4.2657   24.2355 C   0  0  0  0  0  0  0  0  0  0  0  0
  -24.6971  -19.2107   17.7863 C   0  0  0  0  0  0  0  0  0  0  0  0
  -21.0551   -6.5637   24.2937 C   0  0  0  0  0  0  0  0  0  0  0  0
  -25.5007  -10.4362   19.9227 C   0  0  0  0  0  0  0  0  0  0  0  0
  -27.1522  -11.0027   18.5861 C   0  0  0  0  0  0  0  0  0  0  0  0
  -28.9929  -23.8759   18.7272 C   0  0  0  0  0  0  0  0  0  0  0  0
  -27.5988  -24.0211   19.1712 C   0  0  0  0  0  0  0  0  0  0  0  0
  -29.5312  -22.5135   18.6042 C   0  0  0  0  0  0  0  0  0  0  0  0
  -26.6676  -22.8445   18.9977 C   0  0  0  0  0  0  0  0  0  0  0  0
  -29.7516  -24.9552   18.4490 C   0  0  0  0  0  0  0  0  0  0  0  0
  -30.5944  -22.1492   17.8678 C   0  0  0  0  0  0  0  0  0  0  0  0
  -27.0621  -25.1128   19.7420 C   0  0  0  0  0  0  0  0  0  1  0  0
  -25.8735   -8.9937   17.8262 C   0  0  0  0  0  0  0  0  0  0  0  0
  -22.2652  -30.8286   20.8346 C   0  0  0  0  0  0  0  0  0  0  0  0
  -24.8961  -32.5219   19.9781 C   0  0  0  0  0  0  0  0  0  0  0  0
  -28.1027  -31.8256   18.4781 C   0  0  0  0  0  0  0  0  0  0  0  0
  -27.8349  -16.6022   20.5571 C   0  0  0  0  0  0  0  0  0  0  0  0
  -17.7133  -31.7992   22.9313 C   0  0  0  0  0  0  0  0  0  0  0  0
  -23.9605  -30.0059   22.5095 C   0  0  0  0  0  0  0  0  0  0  0  0
  -25.0483  -30.0130   19.7597 C   0  0  0  0  0  0  0  0  0  0  0  0
  -28.7317  -21.4903   19.3747 C   0  0  0  0  0  0  0  0  0  0  0  0
  -18.7311  -32.5924   22.1157 C   0  0  0  0  0  0  0  0  0  0  0  0
  -30.0107  -13.8503   21.1657 C   0  0  0  0  0  0  0  0  0  0  0  0
  -19.1615  -31.8014   20.8844 C   0  0  0  0  0  0  0  0  0  0  0  0
  -29.1622  -12.6298   20.8015 C   0  0  0  0  0  0  0  0  0  0  0  0
  -29.1761  -14.9430   21.8313 C   0  0  0  0  0  0  0  0  0  0  0  0
  -27.1324  -14.1332   20.7192 C   0  0  0  0  0  0  0  0  0  0  0  0
  -19.8419  -30.4865   21.2835 C   0  0  1  0  0  0  0  0  0  0  0  0
  -23.5869  -31.0877   21.5008 C   0  0  1  0  0  0  0  0  0  0  0  0
  -27.9168  -13.0319   19.9873 C   0  0  2  0  0  0  0  0  0  0  0  0
  -30.2935  -33.0333   18.6767 C   0  0  0  0  0  0  0  0  0  0  0  0
  -23.9968  -33.9694   17.4471 C   0  0  0  0  0  0  0  0  0  0  0  0
  -26.3646  -33.8801   16.6384 C   0  0  0  0  0  0  0  0  0  0  0  0
  -25.8073  -35.1290   18.7247 C   0  0  0  0  0  0  0  0  0  0  0  0
  -29.5080  -29.3726   19.3537 C   0  0  0  0  0  0  0  0  0  0  0  0
  -25.7613  -32.6012   18.7436 C   0  0  1  0  0  0  0  0  0  0  0  0
  -29.4552  -31.8627   19.1664 C   0  0  2  0  0  0  0  0  0  0  0  0
  -25.4687  -33.8710   17.8954 C   0  0  0  0  0  0  0  0  0  0  0  0
  -26.0439  -11.5116   20.4993 N   0  0  0  0  0  0  0  0  0  0  0  0
  -27.0458  -11.8327   19.6631 N   0  0  0  0  0  0  0  0  0  0  0  0
  -27.3112  -21.5883   18.9944 N   0  0  0  0  0  0  0  0  0  0  0  0
  -24.5805  -31.2346   20.4353 N   0  0  0  0  0  0  0  0  0  0  0  0
  -28.0161  -15.2752   21.0013 N   0  0  0  0  0  0  0  0  0  0  0  0
  -28.1049  -11.1824   17.6466 N   0  0  0  0  0  0  0  0  0  0  0  0
  -26.5087   -7.7632   18.0425 N   0  0  0  0  0  0  0  0  0  0  0  0
  -26.7152  -16.7914   19.7478 N   0  0  0  0  0  0  0  0  0  0  0  0
  -21.2023  -30.7312   21.7123 N   0  0  0  0  0  0  0  0  0  0  0  0
  -27.1413  -32.4956   19.2048 N   0  0  0  0  0  0  0  0  0  0  0  0
  -30.2063  -30.6032   18.9009 N   0  3  0  0  0  0  0  0  0  0  0  0
  -25.4556  -23.0329   18.9004 O   0  0  0  0  0  0  0  0  0  0  0  0
  -25.0986   -9.1210   16.8481 O   0  0  0  0  0  0  0  0  0  0  0  0
  -22.2134  -30.7262   19.6146 O   0  0  0  0  0  0  0  0  0  0  0  0
  -24.5201  -33.5638   20.5211 O   0  0  0  0  0  0  0  0  0  0  0  0
  -27.9184  -31.2620   17.4016 O   0  0  0  0  0  0  0  0  0  0  0  0
  -28.6306  -17.4986   20.8492 O   0  0  0  0  0  0  0  0  0  0  0  0
  -21.1174   -7.8946   22.2878 O   0  0  0  0  0  0  0  0  0  0  0  0
  -25.7550  -25.1862   20.1342 O   0  0  0  0  0  0  0  0  0  1  0  0
  -22.0159   -3.1005   24.8594 F   0  0  0  0  0  0  0  0  0  0  0  0
  -23.5927  -19.2252   17.0284 F   0  0  0  0  0  0  0  0  0  0  0  0
  -20.5581   -7.6022   24.9794 F   0  0  0  0  0  0  0  0  0  0  0  0
  1  2  1  0  0  0  0
  1  5  2  0  0  0  0
  2  6  2  0  0  0  0
  3  8  2  0  0  0  0
  3 18  1  0  0  0  0
  4  9  1  0  0  0  0
  4 18  2  0  0  0  0
  5 20  1  0  0  0  0
  6 22  1  0  0  0  0
  7 10  2  0  0  0  0
  7 21  1  0  0  0  0
  8 26  1  0  0  0  0
  9 26  2  0  0  0  0
 10 27  1  0  0  0  0
 11 12  2  0  0  0  0
 11 28  1  0  0  0  0
 12 29  1  0  0  0  0
 13 23  1  0  0  0  0
 13 27  2  0  0  0  0
 14 24  2  0  0  0  0
 14 25  1  0  0  0  0
 15 24  1  0  0  0  0
 15 30  2  0  0  0  0
 16 25  2  0  0  0  0
 16 30  1  0  0  0  0
 17 29  2  0  0  0  0
 17 31  1  0  0  0  0
 18 32  1  0  0  0  0
 19 32  1  0  0  0  0
 19 33  2  0  0  0  0
 19 41  1  0  0  0  0
 20 22  2  0  0  0  0
 20 46  1  0  0  0  0
 21 23  2  0  0  0  0
 21 47  1  0  0  0  0
 22 56  1  0  0  0  0
 23 48  1  0  0  0  0
 24 69  1  0  0  0  0
 25 74  1  0  0  0  0
 26 84  1  0  0  0  0
 27 85  1  0  0  0  0
 28 31  2  0  0  0  0
 28 84  1  0  0  0  0
 29 86  1  0  0  0  0
 30 87  1  0  0  0  0
 31 88  1  0  0  0  0
 32 67  2  0  0  0  0
 33 68  1  0  0  0  0
 33 72  1  0  0  0  0
 34 35  1  0  0  0  0
 34 36  1  0  0  0  0
 34 38  2  0  0  0  0
 35 37  1  0  0  0  0
 35 40  2  0  0  0  0
 36 39  2  0  0  0  0
 36 49  1  0  0  0  0
 37 69  1  0  0  0  0
 37 78  2  0  0  0  0
 40 85  1  0  0  0  0
 41 73  1  0  0  0  0
 41 79  2  0  0  0  0
 42 57  1  0  0  0  0
 42 75  1  0  0  0  0
 42 80  2  0  0  0  0
 43 64  1  0  0  0  0
 43 70  1  0  0  0  0
 43 81  2  0  0  0  0
 44 65  1  0  0  0  0
 44 76  1  0  0  0  0
 44 82  2  0  0  0  0
 45 71  1  0  0  0  0
 45 74  1  0  0  0  0
 45 83  2  0  0  0  0
 46 50  1  0  0  0  0
 47 57  1  0  0  0  0
 48 70  1  0  0  0  0
 49 69  1  0  0  0  0
 50 52  1  0  0  0  0
 51 53  1  0  0  0  0
 51 54  1  0  0  0  0
 52 56  1  0  0  0  0
 53 58  1  0  0  0  0
 54 71  1  0  0  0  0
 55 58  1  0  0  0  0
 55 71  1  0  0  0  0
 56 75  1  0  0  0  0
 57 70  1  0  0  0  0
 58 68  1  0  0  0  0
 59 65  1  0  0  0  0
 60 66  1  0  0  0  0
 61 66  1  0  0  0  0
 62 66  1  0  0  0  0
 63 77  1  0  0  0  0
 64 66  1  0  0  0  0
 64 76  1  0  0  0  0
 65 77  1  0  0  0  0
 67 68  1  0  0  0  0
M  CHG  1  77   1
M  ISO  4  40 101  45 100  74 100  85 101
M  END
> <Batch ID>
0081

> <Smiles>
C=C1CN(c2cc(F)cc([100NH:0][100C:0](=O)N3CCCC(n4nc(-c5ccc(Oc6ccc(F)cc6F)cc5)c(C(N)=O)c4N)C3)c2)C(=O)C(=[101CH:1][101O:1]c2ccc3c(c2)CN(C(=O)C(NC(=O)C(C)NC)C(C)(C)C)C(C(=O)NC2CCCc4ccccc42)C3)C1=C

> <Shape>
0.257

> <Color>
0.092

> <Negative vol penalty>
0.000

$$$$

  -OEChem-04052300043D

 85 94  0     1  0  0  0  0  0999 V2000
  -31.1452  -35.1915   21.1787 C   0  0  0  0  0  0  0  0  0  0  0  0
  -30.9271  -33.9049   20.6965 C   0  0  0  0  0  0  0  0  0  0  0  0
  -24.7817  -18.8369   17.6953 C   0  0  0  0  0  0  0  0  0  0  0  0
  -24.7509   -8.7863   21.5838 C   0  0  0  0  0  0  0  0  0  0  0  0
  -23.1968  -10.2559   20.4603 C   0  0  0  0  0  0  0  0  0  0  0  0
  -30.5527  -35.5965   22.3741 C   0  0  0  0  0  0  0  0  0  0  0  0
  -30.1171  -33.0222   21.4100 C   0  0  0  0  0  0  0  0  0  0  0  0
  -26.3824  -28.7587   19.0904 C   0  0  0  0  0  0  0  0  0  0  0  0
  -25.3558  -19.9913   18.2276 C   0  0  0  0  0  0  0  0  0  0  0  0
  -25.4395  -17.6125   17.8137 C   0  0  0  0  0  0  0  0  0  0  0  0
  -23.7296   -8.3526   22.4291 C   0  0  0  0  0  0  0  0  0  0  0  0
  -22.1755   -9.8221   21.3055 C   0  0  0  0  0  0  0  0  0  0  0  0
  -26.5297  -27.3853   18.9010 C   0  0  0  0  0  0  0  0  0  0  0  0
  -21.1154   -6.2130   22.2832 C   0  0  0  0  0  0  0  0  0  0  0  0
  -21.0057   -4.8423   22.5168 C   0  0  0  0  0  0  0  0  0  0  0  0
  -25.3953  -26.9816   20.9913 C   0  0  0  0  0  0  0  0  0  0  0  0
  -27.2453  -18.6971   18.9967 C   0  0  0  0  0  0  0  0  0  0  0  0
  -21.3391   -5.2184   24.8800 C   0  0  0  0  0  0  0  0  0  0  0  0
  -24.4845   -9.7381   20.5994 C   0  0  0  0  0  0  0  0  0  0  0  0
  -25.9105   -9.6324   18.4869 C   0  0  0  0  0  0  0  0  0  0  0  0
  -29.7273  -34.7214   23.0976 C   0  0  0  0  0  0  0  0  0  0  0  0
  -25.7490  -29.2550   20.2388 C   0  0  0  0  0  0  0  0  0  0  0  0
  -29.5141  -33.4154   22.6169 C   0  0  0  0  0  0  0  0  0  0  0  0
  -25.2389  -28.3616   21.1916 C   0  0  0  0  0  0  0  0  0  0  0  0
  -26.5876  -19.9214   18.8783 C   0  0  0  0  0  0  0  0  0  0  0  0
  -26.6713  -17.5426   18.4644 C   0  0  0  0  0  0  0  0  0  0  0  0
  -22.4419   -8.8704   22.2899 C   0  0  0  0  0  0  0  0  0  0  0  0
  -26.0387  -26.4966   19.8529 C   0  0  0  0  0  0  0  0  0  0  0  0
  -21.3371   -7.0865   23.3479 C   0  0  0  0  0  0  0  0  0  0  0  0
  -21.1175   -4.3450   23.8152 C   0  0  0  0  0  0  0  0  0  0  0  0
  -21.4489   -6.5892   24.6463 C   0  0  0  0  0  0  0  0  0  0  0  0
  -25.5391  -10.1870   19.7263 C   0  0  0  0  0  0  0  0  0  0  0  0
  -26.9564  -10.4139   18.0606 C   0  0  0  0  0  0  0  0  0  0  0  0
  -27.5508  -23.2510   20.0419 C   0  0  0  0  0  0  0  0  0  0  0  0
  -28.6823  -22.4877   20.5052 C   0  0  0  0  0  0  0  0  0  0  0  0
  -26.5850  -22.3543   19.3476 C   0  0  0  0  0  0  0  0  0  0  0  0
  -29.7591  -22.9198   21.1703 C   0  0  0  0  0  0  0  0  0  0  0  0
  -27.3071  -24.5560   20.1626 C   0  0  0  0  0  0  0  0  0  1  0  0
  -25.3593   -8.5110   17.7837 C   0  0  0  0  0  0  0  0  0  0  0  0
  -26.6384  -31.0959   22.6727 C   0  0  0  0  0  0  0  0  0  0  0  0
  -23.4978  -30.9009   23.4607 C   0  0  0  0  0  0  0  0  0  0  0  0
  -20.5572  -29.1828   23.2422 C   0  0  0  0  0  0  0  0  0  0  0  0
  -28.5664  -16.0545   19.1994 C   0  0  0  0  0  0  0  0  0  0  0  0
  -29.1467  -35.1887   24.4089 C   0  0  0  0  0  0  0  0  0  0  0  0
  -25.5743  -30.7385   20.4153 C   0  0  0  0  0  0  0  0  0  0  0  0
  -24.5330  -28.8429   22.4320 C   0  0  0  0  0  0  0  0  0  0  0  0
  -28.4462  -21.0635   20.1023 C   0  0  0  0  0  0  0  0  0  0  0  0
  -27.9999  -34.3162   24.9127 C   0  0  0  0  0  0  0  0  0  0  0  0
  -30.5266  -13.1309   19.7358 C   0  0  0  0  0  0  0  0  0  0  0  0
  -28.3666  -32.8393   24.8071 C   0  0  0  0  0  0  0  0  0  0  0  0
  -29.5047  -11.9932   19.6754 C   0  0  0  0  0  0  0  0  0  0  0  0
  -29.9488  -14.3773   20.4040 C   0  0  0  0  0  0  0  0  0  0  0  0
  -27.6598  -13.7175   19.7758 C   0  0  0  0  0  0  0  0  0  0  0  0
  -28.6218  -32.4370   23.3495 C   0  0  1  0  0  0  0  0  0  0  0  0
  -25.3688  -31.1470   21.8707 C   0  0  1  0  0  0  0  0  0  0  0  0
  -28.1751  -12.4624   19.0528 C   0  0  2  0  0  0  0  0  0  0  0  0
  -18.1731  -29.2509   24.0227 C   0  0  0  0  0  0  0  0  0  0  0  0
  -24.3789  -29.9604   26.2264 C   0  0  0  0  0  0  0  0  0  0  0  0
  -22.0418  -29.1530   26.6198 C   0  0  0  0  0  0  0  0  0  0  0  0
  -22.4728  -31.5794   26.2333 C   0  0  0  0  0  0  0  0  0  0  0  0
  -19.5325  -29.3407   20.4702 C   0  0  0  0  0  0  0  0  0  0  0  0
  -22.6619  -29.9634   24.2982 C   0  0  1  0  0  0  0  0  0  0  0  0
  -19.1456  -29.6389   22.9197 C   0  0  2  0  0  0  0  0  0  0  0  0
  -22.9038  -30.1547   25.8221 C   0  0  0  0  0  0  0  0  0  0  0  0
  -26.2883  -11.2394   20.0655 N   0  0  0  0  0  0  0  0  0  0  0  0
  -27.1410  -11.3523   19.0329 N   0  0  0  0  0  0  0  0  0  0  0  0
  -27.1593  -21.0732   19.4095 N   0  0  0  0  0  0  0  0  0  0  0  0
  -24.3926  -30.3026   22.5623 N   0  0  0  0  0  0  0  0  0  0  0  0
  -28.6925  -14.7654   19.7590 N   0  0  0  0  0  0  0  0  0  0  0  0
  -27.7271  -10.3830   16.9527 N   0  0  0  0  0  0  0  0  0  0  0  0
  -24.2871   -7.8198   18.3642 N   0  0  0  0  0  0  0  0  0  0  0  0
  -27.3388  -16.2986   18.5845 N   0  0  0  0  0  0  0  0  0  0  0  0
  -27.3689  -32.2684   22.6450 N   0  0  0  0  0  0  0  0  0  0  0  0
  -21.2785  -30.1681   23.8825 N   0  0  0  0  0  0  0  0  0  0  0  0
  -18.6807  -29.0226   21.6450 N   0  3  0  0  0  0  0  0  0  0  0  0
  -25.5276  -22.6934   18.8431 O   0  0  0  0  0  0  0  0  0  0  0  0
  -25.8149   -8.1232   16.6812 O   0  0  0  0  0  0  0  0  0  0  0  0
  -26.9326  -30.0691   23.2735 O   0  0  0  0  0  0  0  0  0  0  0  0
  -23.3567  -32.1191   23.5936 O   0  0  0  0  0  0  0  0  0  0  0  0
  -20.9766  -28.0630   22.9581 O   0  0  0  0  0  0  0  0  0  0  0  0
  -29.4900  -16.8715   19.2371 O   0  0  0  0  0  0  0  0  0  0  0  0
  -21.4451   -8.4472   23.1144 O   0  0  0  0  0  0  0  0  0  0  0  0
  -26.1817  -25.1556   19.6709 O   0  0  0  0  0  0  0  0  0  1  0  0
  -21.0105   -3.0288   24.0397 F   0  0  0  0  0  0  0  0  0  0  0  0
  -21.6607   -7.4235   25.6734 F   0  0  0  0  0  0  0  0  0  0  0  0
  1  2  1  0  0  0  0
  1  6  2  0  0  0  0
  2  7  2  0  0  0  0
  3  9  2  0  0  0  0
  3 10  1  0  0  0  0
  4 11  2  0  0  0  0
  4 19  1  0  0  0  0
  5 12  1  0  0  0  0
  5 19  2  0  0  0  0
  6 21  1  0  0  0  0
  7 23  1  0  0  0  0
  8 13  2  0  0  0  0
  8 22  1  0  0  0  0
  9 25  1  0  0  0  0
 10 26  2  0  0  0  0
 11 27  1  0  0  0  0
 12 27  2  0  0  0  0
 13 28  1  0  0  0  0
 14 15  2  0  0  0  0
 14 29  1  0  0  0  0
 15 30  1  0  0  0  0
 16 24  1  0  0  0  0
 16 28  2  0  0  0  0
 17 25  2  0  0  0  0
 17 26  1  0  0  0  0
 18 30  2  0  0  0  0
 18 31  1  0  0  0  0
 19 32  1  0  0  0  0
 20 32  1  0  0  0  0
 20 33  2  0  0  0  0
 20 39  1  0  0  0  0
 21 23  2  0  0  0  0
 21 44  1  0  0  0  0
 22 24  2  0  0  0  0
 22 45  1  0  0  0  0
 23 54  1  0  0  0  0
 24 46  1  0  0  0  0
 25 67  1  0  0  0  0
 26 72  1  0  0  0  0
 27 82  1  0  0  0  0
 28 83  1  0  0  0  0
 29 31  2  0  0  0  0
 29 82  1  0  0  0  0
 30 84  1  0  0  0  0
 31 85  1  0  0  0  0
 32 65  2  0  0  0  0
 33 66  1  0  0  0  0
 33 70  1  0  0  0  0
 34 35  1  0  0  0  0
 34 36  1  0  0  0  0
 34 38  2  0  0  0  0
 35 37  2  0  0  0  0
 35 47  1  0  0  0  0
 36 67  1  0  0  0  0
 36 76  2  0  0  0  0
 38 83  1  0  0  0  0
 39 71  1  0  0  0  0
 39 77  2  0  0  0  0
 40 55  1  0  0  0  0
 40 73  1  0  0  0  0
 40 78  2  0  0  0  0
 41 62  1  0  0  0  0
 41 68  1  0  0  0  0
 41 79  2  0  0  0  0
 42 63  1  0  0  0  0
 42 74  1  0  0  0  0
 42 80  2  0  0  0  0
 43 69  1  0  0  0  0
 43 72  1  0  0  0  0
 43 81  2  0  0  0  0
 44 48  1  0  0  0  0
 45 55  1  0  0  0  0
 46 68  1  0  0  0  0
 47 67  1  0  0  0  0
 48 50  1  0  0  0  0
 49 51  1  0  0  0  0
 49 52  1  0  0  0  0
 50 54  1  0  0  0  0
 51 56  1  0  0  0  0
 52 69  1  0  0  0  0
 53 56  1  0  0  0  0
 53 69  1  0  0  0  0
 54 73  1  0  0  0  0
 55 68  1  0  0  0  0
 56 66  1  0  0  0  0
 57 63  1  0  0  0  0
 58 64  1  0  0  0  0
 59 64  1  0  0  0  0
 60 64  1  0  0  0  0
 61 75  1  0  0  0  0
 62 64  1  0  0  0  0
 62 74  1  0  0  0  0
 63 75  1  0  0  0  0
 65 66  1  0  0  0  0
M  CHG  1  75   1
M  ISO  4  38 101  43 100  72 100  83 101
M  END
> <Batch ID>
0081

> <Smiles>
C=C1CN(c2cccc([100NH:0][100C:0](=O)N3CCCC(n4nc(-c5ccc(Oc6ccc(F)cc6F)cc5)c(C(N)=O)c4N)C3)c2)C(=O)C1=[101CH:1][101O:1]c1ccc2c(c1)CN(C(=O)C(NC(=O)C(C)NC)C(C)(C)C)C(C(=O)NC1CCCc3ccccc31)C2

> <Shape>
0.275

> <Color>
0.105

> <Negative vol penalty>
0.000

$$$$

  -OEChem-04052300043D

 86 95  0     1  0  0  0  0  0999 V2000
  -26.2860  -35.7903   22.3387 C   0  0  0  0  0  0  0  0  0  0  0  0
  -26.8030  -34.5010   22.2627 C   0  0  0  0  0  0  0  0  0  0  0  0
  -24.1346   -8.8454   20.2977 C   0  0  0  0  0  0  0  0  0  0  0  0
  -22.9901  -10.5994   21.5021 C   0  0  0  0  0  0  0  0  0  0  0  0
  -24.9893  -35.9935   22.8091 C   0  0  0  0  0  0  0  0  0  0  0  0
  -26.0240  -33.4142   22.6580 C   0  0  0  0  0  0  0  0  0  0  0  0
  -26.2745  -29.5536   19.3903 C   0  0  0  0  0  0  0  0  0  0  0  0
  -28.1015  -20.1373   20.1468 C   0  0  0  0  0  0  0  0  0  0  0  0
  -29.7426  -20.1631   21.9196 C   0  0  0  0  0  0  0  0  0  0  0  0
  -28.1490  -18.7435   20.1231 C   0  0  0  0  0  0  0  0  0  0  0  0
  -29.7901  -18.7692   21.8960 C   0  0  0  0  0  0  0  0  0  0  0  0
  -23.1870   -7.9228   20.7407 C   0  0  0  0  0  0  0  0  0  0  0  0
  -22.0424   -9.6768   21.9452 C   0  0  0  0  0  0  0  0  0  0  0  0
  -27.4114  -28.7483   19.4421 C   0  0  0  0  0  0  0  0  0  0  0  0
  -22.5394   -6.1779   23.5622 C   0  0  0  0  0  0  0  0  0  0  0  0
  -23.0031   -4.9514   24.0378 C   0  0  0  0  0  0  0  0  0  0  0  0
  -26.1838  -27.1077   20.7153 C   0  0  0  0  0  0  0  0  0  0  0  0
  -21.7377   -3.8090   22.3259 C   0  0  0  0  0  0  0  0  0  0  0  0
  -24.0362  -10.1838   20.6784 C   0  0  0  0  0  0  0  0  0  0  0  0
  -24.9643  -11.9111   19.0466 C   0  0  0  0  0  0  0  0  0  0  0  0
  -24.1905  -34.9078   23.2012 C   0  0  0  0  0  0  0  0  0  0  0  0
  -25.0848  -29.1463   20.0109 C   0  0  0  0  0  0  0  0  0  0  0  0
  -24.7158  -33.6032   23.1352 C   0  0  0  0  0  0  0  0  0  0  0  0
  -25.0325  -27.9085   20.6676 C   0  0  0  0  0  0  0  0  0  0  0  0
  -28.8983  -20.8471   21.0450 C   0  0  0  0  0  0  0  0  0  0  0  0
  -28.9932  -18.0594   20.9977 C   0  0  0  0  0  0  0  0  0  0  0  0
  -22.1409   -8.3385   21.5645 C   0  0  0  0  0  0  0  0  0  0  0  0
  -27.3670  -27.5264   20.1072 C   0  0  0  0  0  0  0  0  0  0  0  0
  -21.6748   -6.2200   22.4684 C   0  0  0  0  0  0  0  0  0  0  0  0
  -22.6023   -3.7670   23.4197 C   0  0  0  0  0  0  0  0  0  0  0  0
  -21.2740   -5.0355   21.8503 C   0  0  0  0  0  0  0  0  0  0  0  0
  -25.0152  -11.1372   20.2215 C   0  0  0  0  0  0  0  0  0  0  0  0
  -26.1217  -12.6501   19.0719 C   0  0  0  0  0  0  0  0  0  0  0  0
  -28.6144  -24.4098   20.3847 C   0  0  0  0  0  0  0  0  0  0  0  0
  -28.9379  -24.4334   21.8178 C   0  0  0  0  0  0  0  0  0  0  0  0
  -28.5617  -23.0089   19.9198 C   0  0  0  0  0  0  0  0  0  0  0  0
  -23.9605  -11.9578   18.0239 C   0  0  0  0  0  0  0  0  0  0  0  0
  -28.4006  -25.4858   19.6192 C   0  0  0  0  0  0  0  0  0  1  0  0
  -23.2743  -30.2906   22.3596 C   0  0  0  0  0  0  0  0  0  0  0  0
  -21.2972  -27.8707   21.4891 C   0  0  0  0  0  0  0  0  0  0  0  0
  -20.9327  -24.8173   20.0091 C   0  0  0  0  0  0  0  0  0  0  0  0
  -29.8242  -15.8115   21.7738 C   0  0  0  0  0  0  0  0  0  0  0  0
  -22.8116  -35.1811   23.7475 C   0  0  0  0  0  0  0  0  0  0  0  0
  -23.8596  -30.0143   19.9230 C   0  0  0  0  0  0  0  0  0  0  0  0
  -23.7740  -27.4162   21.3327 C   0  0  0  0  0  0  0  0  0  0  0  0
  -29.1001  -23.0202   22.2943 C   0  0  0  0  0  0  0  0  0  0  0  0
  -21.9185  -33.9440   23.7936 C   0  0  0  0  0  0  0  0  0  0  0  0
  -30.2010  -12.2814   22.0460 C   0  0  0  0  0  0  0  0  0  0  0  0
  -22.6753  -32.7611   24.3893 C   0  0  0  0  0  0  0  0  0  0  0  0
  -28.8813  -11.7327   21.4990 C   0  0  0  0  0  0  0  0  0  0  0  0
  -29.9943  -13.5719   22.8370 C   0  0  0  0  0  0  0  0  0  0  0  0
  -27.9365  -14.0753   21.5796 C   0  0  0  0  0  0  0  0  0  0  0  0
  -23.8929  -32.3966   23.5314 C   0  0  1  0  0  0  0  0  0  0  0  0
  -22.8483  -29.7344   21.0304 C   0  0  1  0  0  0  0  0  0  0  0  0
  -28.1020  -12.8110   20.7207 C   0  0  2  0  0  0  0  0  0  0  0  0
  -28.0736  -25.4135   18.1624 C   0  0  0  0  0  0  0  0  0  0  0  0
  -19.2028  -23.0772   19.4829 C   0  0  0  0  0  0  0  0  0  0  0  0
  -21.3175  -26.9723   24.4050 C   0  0  0  0  0  0  0  0  0  0  0  0
  -20.3964  -24.7670   23.6593 C   0  0  0  0  0  0  0  0  0  0  0  0
  -19.0808  -26.8544   23.2926 C   0  0  0  0  0  0  0  0  0  0  0  0
  -21.3885  -25.0782   17.0966 C   0  0  0  0  0  0  0  0  0  0  0  0
  -21.1386  -26.4235   21.8885 C   0  0  1  0  0  0  0  0  0  0  0  0
  -19.9394  -24.3089   18.9799 C   0  0  2  0  0  0  0  0  0  0  0  0
  -20.5077  -26.2642   23.3006 C   0  0  0  0  0  0  0  0  0  0  0  0
  -26.1177  -11.3635   20.9407 N   0  0  0  0  0  0  0  0  0  0  0  0
  -26.7704  -12.2879   20.2157 N   0  0  0  0  0  0  0  0  0  0  0  0
  -28.8513  -22.2392   21.0686 N   0  0  0  0  0  0  0  0  0  0  0  0
  -22.6043  -28.3037   21.2246 N   0  0  0  0  0  0  0  0  0  0  0  0
  -29.2532  -14.5480   22.0353 N   0  0  0  0  0  0  0  0  0  0  0  0
  -26.6378  -13.5680   18.2271 N   0  0  0  0  0  0  0  0  0  0  0  0
  -22.8350  -11.1328   18.1542 N   0  0  0  0  0  0  0  0  0  0  0  0
  -29.0417  -16.6435   20.9739 N   0  0  0  0  0  0  0  0  0  0  0  0
  -23.4809  -31.6569   22.3577 N   0  0  0  0  0  0  0  0  0  0  0  0
  -20.3784  -25.7859   20.8189 N   0  0  0  0  0  0  0  0  0  0  0  0
  -20.6413  -23.9526   17.7145 N   0  3  0  0  0  0  0  0  0  0  0  0
  -29.0554  -25.4335   22.5048 O   0  0  0  0  0  0  0  0  0  0  0  0
  -28.3180  -22.6395   18.7844 O   0  0  0  0  0  0  0  0  0  0  0  0
  -24.0666  -12.6968   17.0158 O   0  0  0  0  0  0  0  0  0  0  0  0
  -23.4045  -29.5362   23.3165 O   0  0  0  0  0  0  0  0  0  0  0  0
  -20.2975  -28.5887   21.4077 O   0  0  0  0  0  0  0  0  0  0  0  0
  -22.0840  -24.3945   20.0893 O   0  0  0  0  0  0  0  0  0  0  0  0
  -30.9383  -16.1216   22.2037 O   0  0  0  0  0  0  0  0  0  0  0  0
  -21.2159   -7.4385   21.9968 O   0  0  0  0  0  0  0  0  0  0  0  0
  -28.4754  -26.7387   20.1599 O   0  0  0  0  0  0  0  0  0  1  0  0
  -23.0489   -2.5894   23.8757 F   0  0  0  0  0  0  0  0  0  0  0  0
  -20.4444   -5.0697   20.7984 F   0  0  0  0  0  0  0  0  0  0  0  0
  1  2  1  0  0  0  0
  1  5  2  0  0  0  0
  2  6  2  0  0  0  0
  3 12  2  0  0  0  0
  3 19  1  0  0  0  0
  4 13  1  0  0  0  0
  4 19  2  0  0  0  0
  5 21  1  0  0  0  0
  6 23  1  0  0  0  0
  7 14  2  0  0  0  0
  7 22  1  0  0  0  0
  8 10  2  0  0  0  0
  8 25  1  0  0  0  0
  9 11  1  0  0  0  0
  9 25  2  0  0  0  0
 10 26  1  0  0  0  0
 11 26  2  0  0  0  0
 12 27  1  0  0  0  0
 13 27  2  0  0  0  0
 14 28  1  0  0  0  0
 15 16  2  0  0  0  0
 15 29  1  0  0  0  0
 16 30  1  0  0  0  0
 17 24  1  0  0  0  0
 17 28  2  0  0  0  0
 18 30  2  0  0  0  0
 18 31  1  0  0  0  0
 19 32  1  0  0  0  0
 20 32  1  0  0  0  0
 20 33  2  0  0  0  0
 20 37  1  0  0  0  0
 21 23  2  0  0  0  0
 21 43  1  0  0  0  0
 22 24  2  0  0  0  0
 22 44  1  0  0  0  0
 23 53  1  0  0  0  0
 24 45  1  0  0  0  0
 25 67  1  0  0  0  0
 26 72  1  0  0  0  0
 27 83  1  0  0  0  0
 28 84  1  0  0  0  0
 29 31  2  0  0  0  0
 29 83  1  0  0  0  0
 30 85  1  0  0  0  0
 31 86  1  0  0  0  0
 32 65  2  0  0  0  0
 33 66  1  0  0  0  0
 33 70  1  0  0  0  0
 34 35  1  0  0  0  0
 34 36  1  0  0  0  0
 34 38  2  0  0  0  0
 35 46  1  0  0  0  0
 35 76  2  0  0  0  0
 36 67  1  0  0  0  0
 36 77  2  0  0  0  0
 37 71  1  0  0  0  0
 37 78  2  0  0  0  0
 38 56  1  0  0  0  0
 38 84  1  0  0  0  0
 39 54  1  0  0  0  0
 39 73  1  0  0  0  0
 39 79  2  0  0  0  0
 40 62  1  0  0  0  0
 40 68  1  0  0  0  0
 40 80  2  0  0  0  0
 41 63  1  0  0  0  0
 41 74  1  0  0  0  0
 41 81  2  0  0  0  0
 42 69  1  0  0  0  0
 42 72  1  0  0  0  0
 42 82  2  0  0  0  0
 43 47  1  0  0  0  0
 44 54  1  0  0  0  0
 45 68  1  0  0  0  0
 46 67  1  0  0  0  0
 47 49  1  0  0  0  0
 48 50  1  0  0  0  0
 48 51  1  0  0  0  0
 49 53  1  0  0  0  0
 50 55  1  0  0  0  0
 51 69  1  0  0  0  0
 52 55  1  0  0  0  0
 52 69  1  0  0  0  0
 53 73  1  0  0  0  0
 54 68  1  0  0  0  0
 55 66  1  0  0  0  0
 57 63  1  0  0  0  0
 58 64  1  0  0  0  0
 59 64  1  0  0  0  0
 60 64  1  0  0  0  0
 61 75  1  0  0  0  0
 62 64  1  0  0  0  0
 62 74  1  0  0  0  0
 63 75  1  0  0  0  0
 65 66  1  0  0  0  0
M  CHG  1  75   1
M  ISO  4  38 101  42 100  72 100  84 101
M  END
> <Batch ID>
0081

> <Smiles>
CNC(C)C(=O)NC(C(=O)N1Cc2cc([101O:1][101C:1](C)=C3C(=O)CN(c4ccc([100NH:0][100C:0](=O)N5CCCC(n6nc(-c7ccc(Oc8ccc(F)cc8F)cc7)c(C(N)=O)c6N)C5)cc4)C3=O)ccc2CC1C(=O)NC1CCCc2ccccc21)C(C)(C)C

> <Shape>
0.333

> <Color>
0.119

> <Negative vol penalty>
0.000

$$$$

  -OEChem-04052300043D

 86 95  0     1  0  0  0  0  0999 V2000
  -29.8867  -31.0882   23.4106 C   0  0  0  0  0  0  0  0  0  0  0  0
  -29.3937  -29.8940   22.8946 C   0  0  0  0  0  0  0  0  0  0  0  0
  -22.9944   -9.9101   20.0338 C   0  0  0  0  0  0  0  0  0  0  0  0
  -23.7013  -10.0565   22.3394 C   0  0  0  0  0  0  0  0  0  0  0  0
  -29.2962  -16.9338   19.6664 C   0  0  0  0  0  0  0  0  0  0  0  0
  -28.8052  -17.7433   21.8891 C   0  0  0  0  0  0  0  0  0  0  0  0
  -29.0675  -31.8973   24.1969 C   0  0  0  0  0  0  0  0  0  0  0  0
  -28.0816  -29.5077   23.1655 C   0  0  0  0  0  0  0  0  0  0  0  0
  -25.6726  -27.7940   19.0540 C   0  0  0  0  0  0  0  0  0  0  0  0
  -28.6157  -18.0218   19.1198 C   0  0  0  0  0  0  0  0  0  0  0  0
  -28.1246  -18.8313   21.3426 C   0  0  0  0  0  0  0  0  0  0  0  0
  -22.2289   -8.7850   20.3399 C   0  0  0  0  0  0  0  0  0  0  0  0
  -22.9356   -8.9315   22.6456 C   0  0  0  0  0  0  0  0  0  0  0  0
  -25.9625  -26.4941   18.6416 C   0  0  0  0  0  0  0  0  0  0  0  0
  -23.1926   -5.5769   22.3114 C   0  0  0  0  0  0  0  0  0  0  0  0
  -23.7768   -4.5928   23.1087 C   0  0  0  0  0  0  0  0  0  0  0  0
  -23.9392  -25.7140   19.6984 C   0  0  0  0  0  0  0  0  0  0  0  0
  -22.0391   -4.8983   24.7592 C   0  0  0  0  0  0  0  0  0  0  0  0
  -23.7307  -10.5458   21.0335 C   0  0  0  0  0  0  0  0  0  0  0  0
  -29.3910  -16.7946   21.0511 C   0  0  0  0  0  0  0  0  0  0  0  0
  -24.1107  -13.0533   20.7587 C   0  0  0  0  0  0  0  0  0  0  0  0
  -27.7417  -31.5254   24.4697 C   0  0  0  0  0  0  0  0  0  0  0  0
  -24.5174  -28.0624   19.8022 C   0  0  0  0  0  0  0  0  0  0  0  0
  -27.2444  -30.3119   23.9574 C   0  0  0  0  0  0  0  0  0  0  0  0
  -23.6356  -27.0186   20.1169 C   0  0  0  0  0  0  0  0  0  0  0  0
  -28.0299  -18.9705   19.9579 C   0  0  0  0  0  0  0  0  0  0  0  0
  -22.1994   -8.2957   21.6458 C   0  0  0  0  0  0  0  0  0  0  0  0
  -25.0973  -25.4535   18.9663 C   0  0  0  0  0  0  0  0  0  0  0  0
  -22.0316   -6.2218   22.7380 C   0  0  0  0  0  0  0  0  0  0  0  0
  -23.2001   -4.2534   24.3326 C   0  0  0  0  0  0  0  0  0  0  0  0
  -21.4549   -5.8824   23.9619 C   0  0  0  0  0  0  0  0  0  0  0  0
  -24.5222  -11.7077   20.7178 C   0  0  0  0  0  0  0  0  0  0  0  0
  -25.2214  -13.7638   20.3739 C   0  0  0  0  0  0  0  0  0  0  0  0
  -26.4552  -22.1380   19.1090 C   0  0  0  0  0  0  0  0  0  0  0  0
  -27.2598  -21.2978   20.0222 C   0  0  0  0  0  0  0  0  0  0  0  0
  -26.6853  -20.0196   18.1877 C   0  0  0  0  0  0  0  0  0  0  0  0
  -26.1210  -23.3954   19.3992 C   0  0  0  0  0  0  0  0  0  1  0  0
  -30.1004  -15.6602   21.6210 C   0  0  0  0  0  0  0  0  0  0  0  0
  -22.8383  -13.6112   21.1128 C   0  0  0  0  0  0  0  0  0  0  0  0
  -30.7335  -14.6350   20.7599 C   0  0  0  0  0  0  0  0  0  0  0  0
  -23.9450  -29.2109   22.7103 C   0  0  0  0  0  0  0  0  0  0  0  0
  -20.8574  -29.1005   21.7219 C   0  0  0  0  0  0  0  0  0  0  0  0
  -18.5306  -27.7294   19.6355 C   0  0  0  0  0  0  0  0  0  0  0  0
  -26.9090  -32.4096   25.3638 C   0  0  0  0  0  0  0  0  0  0  0  0
  -24.2052  -29.4742   20.2165 C   0  0  0  0  0  0  0  0  0  0  0  0
  -22.3719  -27.2572   20.9008 C   0  0  0  0  0  0  0  0  0  0  0  0
  -26.1026  -21.3777   17.8870 C   0  0  0  0  0  0  0  0  0  0  0  0
  -25.4136  -32.1110   25.2938 C   0  0  0  0  0  0  0  0  0  0  0  0
  -29.5904  -12.2298   18.3589 C   0  0  0  0  0  0  0  0  0  0  0  0
  -25.1644  -30.6087   25.3826 C   0  0  0  0  0  0  0  0  0  0  0  0
  -28.1479  -11.9617   18.7870 C   0  0  0  0  0  0  0  0  0  0  0  0
  -30.4893  -12.4964   19.5619 C   0  0  0  0  0  0  0  0  0  0  0  0
  -28.5616  -13.3421   20.8724 C   0  0  0  0  0  0  0  0  0  0  0  0
  -25.8188  -29.8706   24.2085 C   0  0  1  0  0  0  0  0  0  0  0  0
  -23.2641  -29.5511   21.4148 C   0  0  1  0  0  0  0  0  0  0  0  0
  -27.6179  -13.0958   19.6824 C   0  0  2  0  0  0  0  0  0  0  0  0
  -16.0830  -27.8130   19.0881 C   0  0  0  0  0  0  0  0  0  0  0  0
  -20.2432  -27.4768   24.2311 C   0  0  0  0  0  0  0  0  0  0  0  0
  -18.0766  -26.7971   23.1765 C   0  0  0  0  0  0  0  0  0  0  0  0
  -18.5262  -29.2029   23.6592 C   0  0  0  0  0  0  0  0  0  0  0  0
  -19.0629  -28.6078   16.8600 C   0  0  0  0  0  0  0  0  0  0  0  0
  -19.7574  -28.0676   21.7651 C   0  0  1  0  0  0  0  0  0  0  0  0
  -17.4628  -28.3631   18.7622 C   0  0  2  0  0  0  0  0  0  0  0  0
  -19.1755  -27.8809   23.1949 C   0  0  0  0  0  0  0  0  0  0  0  0
  -25.7949  -11.5690   20.3370 N   0  0  0  0  0  0  0  0  0  0  0  0
  -30.2299  -15.4679   22.9060 N   0  0  0  0  0  0  0  0  0  0  0  0
  -26.1927  -12.8367   20.1349 N   0  0  0  0  0  0  0  0  0  0  0  0
  -27.3506  -20.0567   19.4110 N   0  0  0  0  0  0  0  0  0  0  0  0
  -29.9390  -13.5524   20.4093 N   0  0  0  0  0  0  0  0  0  0  0  0
  -22.1138  -28.6538   21.2885 N   0  0  0  0  0  0  0  0  0  0  0  0
  -25.4522  -15.0850   20.2200 N   0  0  0  0  0  0  0  0  0  0  0  0
  -21.8062  -12.7386   21.4839 N   0  0  0  0  0  0  0  0  0  0  0  0
  -25.0228  -30.0223   23.0094 N   0  0  0  0  0  0  0  0  0  0  0  0
  -18.7737  -28.4768   20.7685 N   0  0  0  0  0  0  0  0  0  0  0  0
  -17.7464  -28.0987   17.3232 N   0  3  0  0  0  0  0  0  0  0  0  0
  -27.7242  -21.6609   21.0906 O   0  0  0  0  0  0  0  0  0  0  0  0
  -26.5742  -19.0587   17.4352 O   0  0  0  0  0  0  0  0  0  0  0  0
  -22.6181  -14.8458   21.0848 O   0  0  0  0  0  0  0  0  0  0  0  0
  -31.8969  -14.8535   20.4482 O   0  0  0  0  0  0  0  0  0  0  0  0
  -23.5228  -28.2821   23.3891 O   0  0  0  0  0  0  0  0  0  0  0  0
  -20.6093  -30.2625   22.0533 O   0  0  0  0  0  0  0  0  0  0  0  0
  -19.0902  -26.6747   19.3439 O   0  0  0  0  0  0  0  0  0  0  0  0
  -21.4523   -7.1981   21.9450 O   0  0  0  0  0  0  0  0  0  0  0  0
  -25.3783  -24.1837   18.5656 O   0  0  0  0  0  0  0  0  0  1  0  0
  -23.7605   -3.3072   25.0974 F   0  0  0  0  0  0  0  0  0  0  0  0
  -20.3389   -6.4977   24.3765 F   0  0  0  0  0  0  0  0  0  0  0  0
  1  2  1  0  0  0  0
  1  7  2  0  0  0  0
  2  8  2  0  0  0  0
  3 12  2  0  0  0  0
  3 19  1  0  0  0  0
  4 13  1  0  0  0  0
  4 19  2  0  0  0  0
  5 10  2  0  0  0  0
  5 20  1  0  0  0  0
  6 11  1  0  0  0  0
  6 20  2  0  0  0  0
  7 22  1  0  0  0  0
  8 24  1  0  0  0  0
  9 14  2  0  0  0  0
  9 23  1  0  0  0  0
 10 26  1  0  0  0  0
 11 26  2  0  0  0  0
 12 27  1  0  0  0  0
 13 27  2  0  0  0  0
 14 28  1  0  0  0  0
 15 16  2  0  0  0  0
 15 29  1  0  0  0  0
 16 30  1  0  0  0  0
 17 25  1  0  0  0  0
 17 28  2  0  0  0  0
 18 30  2  0  0  0  0
 18 31  1  0  0  0  0
 19 32  1  0  0  0  0
 20 38  1  0  0  0  0
 21 32  1  0  0  0  0
 21 33  2  0  0  0  0
 21 39  1  0  0  0  0
 22 24  2  0  0  0  0
 22 44  1  0  0  0  0
 23 25  2  0  0  0  0
 23 45  1  0  0  0  0
 24 54  1  0  0  0  0
 25 46  1  0  0  0  0
 26 68  1  0  0  0  0
 27 83  1  0  0  0  0
 28 84  1  0  0  0  0
 29 31  2  0  0  0  0
 29 83  1  0  0  0  0
 30 85  1  0  0  0  0
 31 86  1  0  0  0  0
 32 65  2  0  0  0  0
 33 67  1  0  0  0  0
 33 71  1  0  0  0  0
 34 35  1  0  0  0  0
 34 37  2  0  0  0  0
 34 47  1  0  0  0  0
 35 68  1  0  0  0  0
 35 76  2  0  0  0  0
 36 47  1  0  0  0  0
 36 68  1  0  0  0  0
 36 77  2  0  0  0  0
 37 84  1  0  0  0  0
 38 40  1  0  0  0  0
 38 66  2  0  0  0  0
 39 72  1  0  0  0  0
 39 78  2  0  0  0  0
 40 69  1  0  0  0  0
 40 79  2  0  0  0  0
 41 55  1  0  0  0  0
 41 73  1  0  0  0  0
 41 80  2  0  0  0  0
 42 62  1  0  0  0  0
 42 70  1  0  0  0  0
 42 81  2  0  0  0  0
 43 63  1  0  0  0  0
 43 74  1  0  0  0  0
 43 82  2  0  0  0  0
 44 48  1  0  0  0  0
 45 55  1  0  0  0  0
 46 70  1  0  0  0  0
 48 50  1  0  0  0  0
 49 51  1  0  0  0  0
 49 52  1  0  0  0  0
 50 54  1  0  0  0  0
 51 56  1  0  0  0  0
 52 69  1  0  0  0  0
 53 56  1  0  0  0  0
 53 69  1  0  0  0  0
 54 73  1  0  0  0  0
 55 70  1  0  0  0  0
 56 67  1  0  0  0  0
 57 63  1  0  0  0  0
 58 64  1  0  0  0  0
 59 64  1  0  0  0  0
 60 64  1  0  0  0  0
 61 75  1  0  0  0  0
 62 64  1  0  0  0  0
 62 74  1  0  0  0  0
 63 75  1  0  0  0  0
 65 67  1  0  0  0  0
M  CHG  1  75   1
M  ISO  4  37 101  38 100  40 100  84 101
M  END
> <Batch ID>
0081

> <Smiles>
CNC(C)C(=O)NC(C(=O)N1Cc2cc([101O:1][101CH:1]=C3CC(=O)N(c4ccc([100C:0](=N)[100C:0](=O)N5CCCC(n6nc(-c7ccc(Oc8ccc(F)cc8F)cc7)c(C(N)=O)c6N)C5)cc4)C3=O)ccc2CC1C(=O)NC1CCCc2ccccc21)C(C)(C)C

> <Shape>
0.387

> <Color>
0.202

> <Negative vol penalty>
0.000

$$$$

  -OEChem-04052300043D

 86 94  0     1  0  0  0  0  0999 V2000
  -28.3675  -37.1526   19.2844 C   0  0  0  0  0  0  0  0  0  0  0  0
  -28.6694  -35.8010   19.1531 C   0  0  0  0  0  0  0  0  0  0  0  0
  -23.6356  -10.6591   22.6644 C   0  0  0  0  0  0  0  0  0  0  0  0
  -22.8073  -12.6922   21.6558 C   0  0  0  0  0  0  0  0  0  0  0  0
  -27.7896  -19.3051   17.7539 C   0  0  0  0  0  0  0  0  0  0  0  0
  -30.0861  -19.3625   18.5022 C   0  0  0  0  0  0  0  0  0  0  0  0
  -27.5427  -37.5839   20.3224 C   0  0  0  0  0  0  0  0  0  0  0  0
  -28.1474  -34.8798   20.0605 C   0  0  0  0  0  0  0  0  0  0  0  0
  -26.4267  -29.1216   18.8826 C   0  0  0  0  0  0  0  0  0  0  0  0
  -27.7780  -17.9175   17.8961 C   0  0  0  0  0  0  0  0  0  0  0  0
  -30.0745  -17.9750   18.6444 C   0  0  0  0  0  0  0  0  0  0  0  0
  -22.7199  -10.8030   23.7067 C   0  0  0  0  0  0  0  0  0  0  0  0
  -21.8915  -12.8362   22.6981 C   0  0  0  0  0  0  0  0  0  0  0  0
  -27.0666  -27.8960   19.0623 C   0  0  0  0  0  0  0  0  0  0  0  0
  -19.4244  -10.2482   24.2215 C   0  0  0  0  0  0  0  0  0  0  0  0
  -18.7100   -9.1175   24.6175 C   0  0  0  0  0  0  0  0  0  0  0  0
  -25.9231  -27.6144   21.1676 C   0  0  0  0  0  0  0  0  0  0  0  0
  -19.6383   -9.3092   26.8398 C   0  0  0  0  0  0  0  0  0  0  0  0
  -23.6794  -11.6037   21.6390 C   0  0  0  0  0  0  0  0  0  0  0  0
  -28.9437  -20.0276   18.0569 C   0  0  0  0  0  0  0  0  0  0  0  0
  -24.4301  -10.7734   19.3467 C   0  0  0  0  0  0  0  0  0  0  0  0
  -27.0025  -36.6664   21.2373 C   0  0  0  0  0  0  0  0  0  0  0  0
  -25.5370  -29.6087   19.8509 C   0  0  0  0  0  0  0  0  0  0  0  0
  -27.3157  -35.2993   21.1126 C   0  0  0  0  0  0  0  0  0  0  0  0
  -25.2712  -28.8452   20.9966 C   0  0  0  0  0  0  0  0  0  0  0  0
  -28.9204  -17.2525   18.3414 C   0  0  0  0  0  0  0  0  0  0  0  0
  -21.8478  -11.8915   23.7235 C   0  0  0  0  0  0  0  0  0  0  0  0
  -26.8170  -27.1435   20.2062 C   0  0  0  0  0  0  0  0  0  0  0  0
  -20.2459  -10.9093   25.1347 C   0  0  0  0  0  0  0  0  0  0  0  0
  -18.8169   -8.6481   25.9266 C   0  0  0  0  0  0  0  0  0  0  0  0
  -20.3528  -10.4399   26.4438 C   0  0  0  0  0  0  0  0  0  0  0  0
  -24.6255  -11.4559   20.5624 C   0  0  0  0  0  0  0  0  0  0  0  0
  -25.6177  -10.9243   18.6735 C   0  0  0  0  0  0  0  0  0  0  0  0
  -31.3889  -23.9882   18.9895 C   0  0  0  0  0  0  0  0  0  0  0  0
  -28.9562  -21.5054   17.9053 C   0  0  0  0  0  0  0  0  0  0  0  0
  -23.2780  -10.0664   18.8687 C   0  0  0  0  0  0  0  0  0  0  0  0
  -25.4496  -32.1706   21.7304 C   0  0  0  0  0  0  0  0  0  0  0  0
  -28.9665  -24.1904   19.7126 C   0  0  0  0  0  0  0  0  0  0  0  0
  -22.5109  -31.0288   22.4936 C   0  0  0  0  0  0  0  0  0  0  0  0
  -20.4036  -28.3514   22.6879 C   0  0  0  0  0  0  0  0  0  0  0  0
  -29.9543  -15.0281   18.9154 C   0  0  0  0  0  0  0  0  0  0  0  0
  -26.1542  -37.1856   22.3711 C   0  0  0  0  0  0  0  0  0  0  0  0
  -24.8344  -30.9201   19.6295 C   0  0  0  0  0  0  0  0  0  0  0  0
  -24.3092  -29.3141   22.0564 C   0  0  0  0  0  0  0  0  0  0  0  0
  -25.3386  -36.0999   23.0683 C   0  0  0  0  0  0  0  0  0  0  0  0
  -30.3068  -11.5242   19.4401 C   0  0  0  0  0  0  0  0  0  0  0  0
  -26.2095  -34.8819   23.3593 C   0  0  0  0  0  0  0  0  0  0  0  0
  -28.8714  -11.0459   19.6708 C   0  0  0  0  0  0  0  0  0  0  0  0
  -30.5512  -12.9015   20.0540 C   0  0  0  0  0  0  0  0  0  0  0  0
  -28.1582  -13.4613   19.8821 C   0  0  0  0  0  0  0  0  0  0  0  0
  -26.7487  -34.2666   22.0623 C   0  0  1  0  0  0  0  0  0  0  0  0
  -24.3395  -31.5587   20.9236 C   0  0  1  0  0  0  0  0  0  0  0  0
  -27.8456  -12.1067   19.2256 C   0  0  2  0  0  0  0  0  0  0  0  0
  -18.0769  -27.7225   23.3864 C   0  0  0  0  0  0  0  0  0  0  0  0
  -23.3555  -31.1666   25.4223 C   0  0  0  0  0  0  0  0  0  0  0  0
  -21.4224  -29.6756   25.9776 C   0  0  0  0  0  0  0  0  0  0  0  0
  -21.0141  -31.9230   24.9751 C   0  0  0  0  0  0  0  0  0  0  0  0
  -19.7008  -27.4559   19.9560 C   0  0  0  0  0  0  0  0  0  0  0  0
  -28.3385  -25.5238   19.3591 C   0  0  0  0  0  0  0  0  0  1  0  0
  -29.9533  -23.6300   18.7101 C   0  0  2  0  0  0  0  0  0  0  0  0
  -21.9704  -30.0785   23.5346 C   0  0  1  0  0  0  0  0  0  0  0  0
  -18.9665  -28.1657   22.2354 C   0  0  2  0  0  0  0  0  0  0  0  0
  -21.9603  -30.7027   24.9585 C   0  0  0  0  0  0  0  0  0  0  0  0
  -25.8416  -11.9997   20.6587 N   0  0  0  0  0  0  0  0  0  0  0  0
  -26.4211  -11.6591   19.4951 N   0  0  0  0  0  0  0  0  0  0  0  0
  -23.6519  -30.6057   21.7973 N   0  0  0  0  0  0  0  0  0  0  0  0
  -29.5441  -13.8552   19.5837 N   0  0  0  0  0  0  0  0  0  0  0  0
  -26.0428  -10.4988   17.4650 N   0  0  0  0  0  0  0  0  0  0  0  0
  -22.1420  -10.0089   19.6875 N   0  0  0  0  0  0  0  0  0  0  0  0
  -28.9074  -15.8430   18.4857 N   0  0  0  0  0  0  0  0  0  0  0  0
  -29.8425  -22.1977   18.7228 N   0  0  0  0  0  0  0  0  0  0  0  0
  -25.7205  -33.4866   21.4075 N   0  0  0  0  0  0  0  0  0  0  0  0
  -20.6580  -29.6549   23.0585 N   0  0  0  0  0  0  0  0  0  0  0  0
  -18.8909  -27.1369   21.1599 N   0  3  0  0  0  0  0  0  0  0  0  0
  -31.7306  -25.0633   19.4760 O   0  0  0  0  0  0  0  0  0  0  0  0
  -28.1904  -22.0327   17.1028 O   0  0  0  0  0  0  0  0  0  0  0  0
  -23.2623   -9.4884   17.7555 O   0  0  0  0  0  0  0  0  0  0  0  0
  -26.0174  -31.4990   22.5838 O   0  0  0  0  0  0  0  0  0  0  0  0
  -28.7167  -23.6156   20.7723 O   0  0  0  0  0  0  0  0  0  0  0  0
  -21.9375  -32.1037   22.3002 O   0  0  0  0  0  0  0  0  0  0  0  0
  -21.2180  -27.4313   22.7138 O   0  0  0  0  0  0  0  0  0  0  0  0
  -31.1456  -15.2770   18.7133 O   0  0  0  0  0  0  0  0  0  0  0  0
  -20.9540  -12.0322   24.7403 O   0  0  0  0  0  0  0  0  0  0  0  0
  -27.4408  -25.9473   20.3844 O   0  0  0  0  0  0  0  0  0  1  0  0
  -18.1295   -7.5632   26.3071 F   0  0  0  0  0  0  0  0  0  0  0  0
  -21.1394  -11.0715   27.3259 F   0  0  0  0  0  0  0  0  0  0  0  0
  1  2  1  0  0  0  0
  1  7  2  0  0  0  0
  2  8  2  0  0  0  0
  3 12  2  0  0  0  0
  3 19  1  0  0  0  0
  4 13  1  0  0  0  0
  4 19  2  0  0  0  0
  5 10  2  0  0  0  0
  5 20  1  0  0  0  0
  6 11  1  0  0  0  0
  6 20  2  0  0  0  0
  7 22  1  0  0  0  0
  8 24  1  0  0  0  0
  9 14  2  0  0  0  0
  9 23  1  0  0  0  0
 10 26  1  0  0  0  0
 11 26  2  0  0  0  0
 12 27  1  0  0  0  0
 13 27  2  0  0  0  0
 14 28  1  0  0  0  0
 15 16  2  0  0  0  0
 15 29  1  0  0  0  0
 16 30  1  0  0  0  0
 17 25  1  0  0  0  0
 17 28  2  0  0  0  0
 18 30  2  0  0  0  0
 18 31  1  0  0  0  0
 19 32  1  0  0  0  0
 20 35  1  0  0  0  0
 21 32  1  0  0  0  0
 21 33  2  0  0  0  0
 21 36  1  0  0  0  0
 22 24  2  0  0  0  0
 22 42  1  0  0  0  0
 23 25  2  0  0  0  0
 23 43  1  0  0  0  0
 24 51  1  0  0  0  0
 25 44  1  0  0  0  0
 26 70  1  0  0  0  0
 27 83  1  0  0  0  0
 28 84  1  0  0  0  0
 29 31  2  0  0  0  0
 29 83  1  0  0  0  0
 30 85  1  0  0  0  0
 31 86  1  0  0  0  0
 32 64  2  0  0  0  0
 33 65  1  0  0  0  0
 33 68  1  0  0  0  0
 34 60  1  0  0  0  0
 34 75  2  0  0  0  0
 35 71  1  0  0  0  0
 35 76  2  0  0  0  0
 36 69  1  0  0  0  0
 36 77  2  0  0  0  0
 37 52  1  0  0  0  0
 37 72  1  0  0  0  0
 37 78  2  0  0  0  0
 38 59  1  0  0  0  0
 38 60  1  0  0  0  0
 38 79  2  0  0  0  0
 39 61  1  0  0  0  0
 39 66  1  0  0  0  0
 39 80  2  0  0  0  0
 40 62  1  0  0  0  0
 40 73  1  0  0  0  0
 40 81  2  0  0  0  0
 41 67  1  0  0  0  0
 41 70  1  0  0  0  0
 41 82  2  0  0  0  0
 42 45  1  0  0  0  0
 43 52  1  0  0  0  0
 44 66  1  0  0  0  0
 45 47  1  0  0  0  0
 46 48  1  0  0  0  0
 46 49  1  0  0  0  0
 47 51  1  0  0  0  0
 48 53  1  0  0  0  0
 49 67  1  0  0  0  0
 50 53  1  0  0  0  0
 50 67  1  0  0  0  0
 51 72  1  0  0  0  0
 52 66  1  0  0  0  0
 53 65  1  0  0  0  0
 54 62  1  0  0  0  0
 55 63  1  0  0  0  0
 56 63  1  0  0  0  0
 57 63  1  0  0  0  0
 58 74  1  0  0  0  0
 59 84  1  0  0  0  0
 60 71  1  0  0  0  0
 61 63  1  0  0  0  0
 61 73  1  0  0  0  0
 62 74  1  0  0  0  0
 64 65  1  0  0  0  0
M  CHG  1  74   1
M  ISO  4  41 100  59 101  70 100  84 101
M  END
> <Batch ID>
0081

> <Smiles>
CNC(C)C(=O)NC(C(=O)N1Cc2cc([101O:1][101CH2:1]C(=O)C(C=O)NC(=O)c3ccc([100NH:0][100C:0](=O)N4CCCC(n5nc(-c6ccc(Oc7ccc(F)cc7F)cc6)c(C(N)=O)c5N)C4)cc3)ccc2CC1C(=O)NC1CCCc2ccccc21)C(C)(C)C

> <Shape>
0.280

> <Color>
0.089

> <Negative vol penalty>
0.000

$$$$

  -OEChem-04052300043D

 86 95  0     1  0  0  0  0  0999 V2000
  -28.9247  -33.2124   25.6320 C   0  0  0  0  0  0  0  0  0  0  0  0
  -28.8954  -32.0187   24.9180 C   0  0  0  0  0  0  0  0  0  0  0  0
  -24.8316  -17.0316   19.1508 C   0  0  0  0  0  0  0  0  0  0  0  0
  -25.7720  -16.0213   21.1338 C   0  0  0  0  0  0  0  0  0  0  0  0
  -27.7540  -33.7119   26.2010 C   0  0  0  0  0  0  0  0  0  0  0  0
  -27.6954  -31.3234   24.7735 C   0  0  0  0  0  0  0  0  0  0  0  0
  -26.9564  -29.6871   20.0384 C   0  0  0  0  0  0  0  0  0  0  0  0
  -28.6429  -21.0701   15.1838 C   0  0  0  0  0  0  0  0  0  0  0  0
  -29.2291  -19.9515   14.5917 C   0  0  0  0  0  0  0  0  0  0  0  0
  -23.6896  -16.2430   19.2906 C   0  0  0  0  0  0  0  0  0  0  0  0
  -24.6299  -15.2327   21.2736 C   0  0  0  0  0  0  0  0  0  0  0  0
  -27.6558  -28.5481   19.6419 C   0  0  0  0  0  0  0  0  0  0  0  0
  -22.1169  -12.6953   21.9494 C   0  0  0  0  0  0  0  0  0  0  0  0
  -22.2945  -11.3431   22.2419 C   0  0  0  0  0  0  0  0  0  0  0  0
  -30.3359  -21.0450   16.9072 C   0  0  0  0  0  0  0  0  0  0  0  0
  -25.6822  -27.2128   20.0173 C   0  0  0  0  0  0  0  0  0  0  0  0
  -23.5400  -11.0630   20.1907 C   0  0  0  0  0  0  0  0  0  0  0  0
  -25.8729  -16.9206   20.0724 C   0  0  0  0  0  0  0  0  0  0  0  0
  -30.9221  -19.9264   16.3151 C   0  0  0  0  0  0  0  0  0  0  0  0
  -27.2761  -19.0128   20.4740 C   0  0  0  0  0  0  0  0  0  0  0  0
  -26.5371  -33.0273   26.0551 C   0  0  0  0  0  0  0  0  0  0  0  0
  -25.6155  -29.5957   20.4384 C   0  0  0  0  0  0  0  0  0  0  0  0
  -26.5075  -31.8135   25.3422 C   0  0  0  0  0  0  0  0  0  0  0  0
  -24.9672  -28.3525   20.4160 C   0  0  0  0  0  0  0  0  0  0  0  0
  -29.1963  -21.6169   16.3416 C   0  0  0  0  0  0  0  0  0  0  0  0
  -30.3686  -19.3796   15.1573 C   0  0  0  0  0  0  0  0  0  0  0  0
  -23.5887  -15.3436   20.3520 C   0  0  0  0  0  0  0  0  0  0  0  0
  -27.0196  -27.3103   19.6340 C   0  0  0  0  0  0  0  0  0  0  0  0
  -22.6508  -13.2314   20.7775 C   0  0  0  0  0  0  0  0  0  0  0  0
  -23.0061  -10.5269   21.3626 C   0  0  0  0  0  0  0  0  0  0  0  0
  -23.3624  -12.4152   19.8982 C   0  0  0  0  0  0  0  0  0  0  0  0
  -27.0531  -17.7345   19.9282 C   0  0  0  0  0  0  0  0  0  0  0  0
  -28.5376  -19.3521   20.0497 C   0  0  0  0  0  0  0  0  0  0  0  0
  -27.8215  -24.3823   17.7036 C   0  0  0  0  0  0  0  0  0  0  0  0
  -27.5331  -23.4660   16.5996 C   0  0  0  0  0  0  0  0  0  0  0  0
  -33.3449  -19.7521   16.6541 C   0  0  0  0  0  0  0  0  0  0  0  0
  -32.1131  -19.3566   16.9346 C   0  0  0  0  0  0  0  0  0  0  0  0
  -27.2304  -25.4961   18.1729 C   0  0  0  0  0  0  0  0  0  1  0  0
  -26.4195  -19.8213   21.2916 C   0  0  0  0  0  0  0  0  0  0  0  0
  -24.0311  -30.1957   23.1279 C   0  0  0  0  0  0  0  0  0  0  0  0
  -21.4400  -29.5474   21.2873 C   0  0  0  0  0  0  0  0  0  0  0  0
  -20.1585  -27.9916   18.5334 C   0  0  0  0  0  0  0  0  0  0  0  0
  -31.6489  -17.2238   15.2264 C   0  0  0  0  0  0  0  0  0  0  0  0
  -25.3068  -33.5822   26.7282 C   0  0  0  0  0  0  0  0  0  0  0  0
  -24.8672  -30.8378   20.8378 C   0  0  0  0  0  0  0  0  0  0  0  0
  -23.5230  -28.2039   20.8169 C   0  0  0  0  0  0  0  0  0  0  0  0
  -29.0287  -23.5414   18.0503 C   0  0  0  0  0  0  0  0  0  0  0  0
  -24.0043  -32.9770   26.2110 C   0  0  0  0  0  0  0  0  0  0  0  0
  -32.7225  -17.4352   18.7614 C   0  0  0  0  0  0  0  0  0  0  0  0
  -24.1185  -31.4584   26.1246 C   0  0  0  0  0  0  0  0  0  0  0  0
  -31.3976  -17.5599   19.5114 C   0  0  0  0  0  0  0  0  0  0  0  0
  -32.5634  -16.6625   17.4555 C   0  0  0  0  0  0  0  0  0  0  0  0
  -30.1886  -17.3541   17.3029 C   0  0  0  0  0  0  0  0  0  0  0  0
  -25.2205  -31.0430   25.1425 C   0  0  1  0  0  0  0  0  0  0  0  0
  -23.6544  -30.5482   21.7167 C   0  0  1  0  0  0  0  0  0  0  0  0
  -30.3144  -18.1635   18.6023 C   0  0  1  0  0  0  0  0  0  0  0  0
  -18.0000  -27.6119   17.3111 C   0  0  0  0  0  0  0  0  0  0  0  0
  -20.6047  -27.5107   23.4001 C   0  0  0  0  0  0  0  0  0  0  0  0
  -19.0300  -26.5215   21.7238 C   0  0  0  0  0  0  0  0  0  0  0  0
  -18.7294  -28.8816   22.4737 C   0  0  0  0  0  0  0  0  0  0  0  0
  -31.0488  -18.2203   13.0635 C   0  0  0  0  0  0  0  0  0  0  0  0
  -21.1713  -29.3252   16.0931 C   0  0  0  0  0  0  0  0  0  0  0  0
  -20.6571  -28.3033   20.9435 C   0  0  1  0  0  0  0  0  0  0  0  0
  -19.2373  -28.4876   17.4335 C   0  0  2  0  0  0  0  0  0  0  0  0
  -19.7831  -27.8064   22.1295 C   0  0  0  0  0  0  0  0  0  0  0  0
  -28.0897  -17.2918   19.2117 N   0  0  0  0  0  0  0  0  0  0  0  0
  -28.9763  -18.2976   19.3043 N   0  0  0  0  0  0  0  0  0  0  0  0
  -28.6183  -22.7206   16.9246 N   0  0  0  0  0  0  0  0  0  0  0  0
  -22.8360  -29.4467   21.2055 N   0  0  0  0  0  0  0  0  0  0  0  0
  -31.4887  -17.2116   16.6273 N   0  0  0  0  0  0  0  0  0  0  0  0
  -29.3032  -20.4466   20.2452 N   0  0  0  0  0  0  0  0  0  0  0  0
  -25.1562  -19.3208   21.6347 N   0  0  0  0  0  0  0  0  0  0  0  0
  -24.7574  -31.1754   23.7777 N   0  0  0  0  0  0  0  0  0  0  0  0
  -19.9021  -28.6170   19.7352 N   0  0  0  0  0  0  0  0  0  0  0  0
  -30.9521  -18.2237   14.5215 N   0  0  0  0  0  0  0  0  0  0  0  0
  -19.9467  -28.4847   16.1229 N   0  3  0  0  0  0  0  0  0  0  0  0
  -26.6833  -23.4008   15.7359 O   0  0  0  0  0  0  0  0  0  0  0  0
  -26.7578  -20.9610   21.6919 O   0  0  0  0  0  0  0  0  0  0  0  0
  -23.6870  -29.1156   23.5933 O   0  0  0  0  0  0  0  0  0  0  0  0
  -20.8349  -30.5730   21.6094 O   0  0  0  0  0  0  0  0  0  0  0  0
  -21.0171  -27.1324   18.3460 O   0  0  0  0  0  0  0  0  0  0  0  0
  -32.3217  -16.3689   14.6373 O   0  0  0  0  0  0  0  0  0  0  0  0
  -22.4743  -14.5742   20.4889 O   0  0  0  0  0  0  0  0  0  0  0  0
  -27.7001  -26.1968   19.2481 O   0  0  0  0  0  0  0  0  0  1  0  0
  -23.1779   -9.2288   21.6444 F   0  0  0  0  0  0  0  0  0  0  0  0
  -23.8787  -12.9247   18.7714 F   0  0  0  0  0  0  0  0  0  0  0  0
  1  2  1  0  0  0  0
  1  5  2  0  0  0  0
  2  6  2  0  0  0  0
  3 10  2  0  0  0  0
  3 18  1  0  0  0  0
  4 11  1  0  0  0  0
  4 18  2  0  0  0  0
  5 21  1  0  0  0  0
  6 23  1  0  0  0  0
  7 12  2  0  0  0  0
  7 22  1  0  0  0  0
  8  9  2  0  0  0  0
  8 25  1  0  0  0  0
  9 26  1  0  0  0  0
 10 27  1  0  0  0  0
 11 27  2  0  0  0  0
 12 28  1  0  0  0  0
 13 14  2  0  0  0  0
 13 29  1  0  0  0  0
 14 30  1  0  0  0  0
 15 19  1  0  0  0  0
 15 25  2  0  0  0  0
 16 24  1  0  0  0  0
 16 28  2  0  0  0  0
 17 30  2  0  0  0  0
 17 31  1  0  0  0  0
 18 32  1  0  0  0  0
 19 26  2  0  0  0  0
 19 37  1  0  0  0  0
 20 32  1  0  0  0  0
 20 33  2  0  0  0  0
 20 39  1  0  0  0  0
 21 23  2  0  0  0  0
 21 44  1  0  0  0  0
 22 24  2  0  0  0  0
 22 45  1  0  0  0  0
 23 54  1  0  0  0  0
 24 46  1  0  0  0  0
 25 68  1  0  0  0  0
 26 75  1  0  0  0  0
 27 83  1  0  0  0  0
 28 84  1  0  0  0  0
 29 31  2  0  0  0  0
 29 83  1  0  0  0  0
 30 85  1  0  0  0  0
 31 86  1  0  0  0  0
 32 66  2  0  0  0  0
 33 67  1  0  0  0  0
 33 71  1  0  0  0  0
 34 35  1  0  0  0  0
 34 38  2  0  0  0  0
 34 47  1  0  0  0  0
 35 68  1  0  0  0  0
 35 77  2  0  0  0  0
 36 37  2  0  0  0  0
 38 84  1  0  0  0  0
 39 72  1  0  0  0  0
 39 78  2  0  0  0  0
 40 55  1  0  0  0  0
 40 73  1  0  0  0  0
 40 79  2  0  0  0  0
 41 63  1  0  0  0  0
 41 69  1  0  0  0  0
 41 80  2  0  0  0  0
 42 64  1  0  0  0  0
 42 74  1  0  0  0  0
 42 81  2  0  0  0  0
 43 70  1  0  0  0  0
 43 75  1  0  0  0  0
 43 82  2  0  0  0  0
 44 48  1  0  0  0  0
 45 55  1  0  0  0  0
 46 69  1  0  0  0  0
 47 68  1  0  0  0  0
 48 50  1  0  0  0  0
 49 51  1  0  0  0  0
 49 52  1  0  0  0  0
 50 54  1  0  0  0  0
 51 56  1  0  0  0  0
 52 70  1  0  0  0  0
 53 56  1  0  0  0  0
 53 70  1  0  0  0  0
 54 73  1  0  0  0  0
 55 69  1  0  0  0  0
 56 67  1  0  0  0  0
 57 64  1  0  0  0  0
 58 65  1  0  0  0  0
 59 65  1  0  0  0  0
 60 65  1  0  0  0  0
 61 75  1  0  0  0  0
 62 76  1  0  0  0  0
 63 65  1  0  0  0  0
 63 74  1  0  0  0  0
 64 76  1  0  0  0  0
 66 67  1  0  0  0  0
M  CHG  1  76   1
M  ISO  4  38 101  43 100  75 100  84 101
M  END
> <Batch ID>
0081

> <Smiles>
C=Cc1cc(N2CC(=[101CH:1][101O:1]c3ccc4c(c3)CN(C(=O)C(NC(=O)C(C)NC)C(C)(C)C)C(C(=O)NC3CCCc5ccccc53)C4)C2=O)ccc1[100N:0](C)[100C:0](=O)N1CCCC(n2nc(-c3ccc(Oc4ccc(F)cc4F)cc3)c(C(N)=O)c2N)C1

> <Shape>
0.261

> <Color>
0.084

> <Negative vol penalty>
0.000

$$$$

  -OEChem-04052300043D

 85 94  0     1  0  0  0  0  0999 V2000
  -26.8522  -36.3739   21.5521 C   0  0  0  0  0  0  0  0  0  0  0  0
  -27.6733  -35.2510   21.5322 C   0  0  0  0  0  0  0  0  0  0  0  0
  -23.5756   -9.7808   21.9248 C   0  0  0  0  0  0  0  0  0  0  0  0
  -24.4152  -11.1015   23.7654 C   0  0  0  0  0  0  0  0  0  0  0  0
  -25.5077  -36.2468   21.8990 C   0  0  0  0  0  0  0  0  0  0  0  0
  -27.1507  -34.0006   21.8603 C   0  0  0  0  0  0  0  0  0  0  0  0
  -28.7406  -28.5989   19.4519 C   0  0  0  0  0  0  0  0  0  0  0  0
  -31.8003  -19.2535   19.7356 C   0  0  0  0  0  0  0  0  0  0  0  0
  -29.5269  -19.9983   20.0729 C   0  0  0  0  0  0  0  0  0  0  0  0
  -31.3410  -17.9573   19.5020 C   0  0  0  0  0  0  0  0  0  0  0  0
  -29.0676  -18.7021   19.8392 C   0  0  0  0  0  0  0  0  0  0  0  0
  -23.0561   -8.8530   22.8274 C   0  0  0  0  0  0  0  0  0  0  0  0
  -23.8957  -10.1737   24.6681 C   0  0  0  0  0  0  0  0  0  0  0  0
  -29.5967  -27.5908   19.8930 C   0  0  0  0  0  0  0  0  0  0  0  0
  -24.2124   -6.3006   24.7176 C   0  0  0  0  0  0  0  0  0  0  0  0
  -24.4203   -4.9480   24.4474 C   0  0  0  0  0  0  0  0  0  0  0  0
  -27.7140  -26.4119   20.8337 C   0  0  0  0  0  0  0  0  0  0  0  0
  -22.0313   -4.5968   24.3672 C   0  0  0  0  0  0  0  0  0  0  0  0
  -24.2552  -10.9050   22.3937 C   0  0  0  0  0  0  0  0  0  0  0  0
  -24.1442  -13.0000   20.9423 C   0  0  0  0  0  0  0  0  0  0  0  0
  -24.9661  -34.9926   22.2222 C   0  0  0  0  0  0  0  0  0  0  0  0
  -27.3639  -28.5263   19.7084 C   0  0  0  0  0  0  0  0  0  0  0  0
  -25.7981  -33.8568   22.2132 C   0  0  0  0  0  0  0  0  0  0  0  0
  -26.8423  -27.4191   20.3926 C   0  0  0  0  0  0  0  0  0  0  0  0
  -30.8932  -20.2740   20.0212 C   0  0  0  0  0  0  0  0  0  0  0  0
  -29.9747  -17.6816   19.5537 C   0  0  0  0  0  0  0  0  0  0  0  0
  -23.2161   -9.0494   24.1991 C   0  0  0  0  0  0  0  0  0  0  0  0
  -29.0839  -26.4985   20.5865 C   0  0  0  0  0  0  0  0  0  0  0  0
  -22.9139   -6.8012   24.8127 C   0  0  0  0  0  0  0  0  0  0  0  0
  -23.3298   -4.0961   24.2721 C   0  0  0  0  0  0  0  0  0  0  0  0
  -21.8234   -5.9493   24.6375 C   0  0  0  0  0  0  0  0  0  0  0  0
  -24.7926  -11.8635   21.4617 C   0  0  0  0  0  0  0  0  0  0  0  0
  -25.0724  -13.5737   20.1083 C   0  0  0  0  0  0  0  0  0  0  0  0
  -32.6440  -23.3547   20.8624 C   0  0  0  0  0  0  0  0  0  0  0  0
  -31.5044  -23.8504   20.3846 C   0  0  0  0  0  0  0  0  0  0  0  0
  -32.5760  -21.8877   20.8021 C   0  0  0  0  0  0  0  0  0  0  0  0
  -30.6478  -22.7213   19.9730 C   0  0  0  0  0  0  0  0  0  0  0  0
  -22.8211  -13.4929   21.1916 C   0  0  0  0  0  0  0  0  0  0  0  0
  -25.2869  -30.3061   21.3277 C   0  0  0  0  0  0  0  0  0  0  0  0
  -23.1252  -28.2526   20.0499 C   0  0  0  0  0  0  0  0  0  0  0  0
  -22.4879  -25.1763   18.7170 C   0  0  0  0  0  0  0  0  0  0  0  0
  -30.2733  -15.2378   19.0201 C   0  0  0  0  0  0  0  0  0  0  0  0
  -23.5183  -34.9122   22.6367 C   0  0  0  0  0  0  0  0  0  0  0  0
  -26.4503  -29.6089   19.2026 C   0  0  0  0  0  0  0  0  0  0  0  0
  -25.3692  -27.2838   20.6756 C   0  0  0  0  0  0  0  0  0  0  0  0
  -22.9542  -33.4940   22.6075 C   0  0  0  0  0  0  0  0  0  0  0  0
  -29.5036  -11.8161   18.4063 C   0  0  0  0  0  0  0  0  0  0  0  0
  -23.9195  -32.5217   23.2780 C   0  0  0  0  0  0  0  0  0  0  0  0
  -28.1560  -11.6169   19.1038 C   0  0  0  0  0  0  0  0  0  0  0  0
  -30.4126  -12.7625   19.1885 C   0  0  0  0  0  0  0  0  0  0  0  0
  -28.4661  -13.8604   20.2251 C   0  0  0  0  0  0  0  0  0  0  0  0
  -25.2624  -32.4795   22.5388 C   0  0  1  0  0  0  0  0  0  0  0  0
  -25.1330  -29.6851   19.9682 C   0  0  1  0  0  0  0  0  0  0  0  0
  -27.4915  -12.9659   19.4417 C   0  0  2  0  0  0  0  0  0  0  0  0
  -20.6185  -23.7755   17.8001 C   0  0  0  0  0  0  0  0  0  0  0  0
  -22.1172  -27.7465   22.8850 C   0  0  0  0  0  0  0  0  0  0  0  0
  -20.9538  -25.7005   22.0314 C   0  0  0  0  0  0  0  0  0  0  0  0
  -20.3188  -27.9496   21.1591 C   0  0  0  0  0  0  0  0  0  0  0  0
  -23.7895  -24.9666   16.0673 C   0  0  0  0  0  0  0  0  0  0  0  0
  -31.0916  -25.2703   20.2452 C   0  0  0  0  0  0  0  0  0  1  0  0
  -22.5279  -26.9314   20.4699 C   0  0  1  0  0  0  0  0  0  0  0  0
  -21.7328  -24.7561   17.4689 C   0  0  2  0  0  0  0  0  0  0  0  0
  -21.5075  -27.0852   21.6329 C   0  0  0  0  0  0  0  0  0  0  0  0
  -26.0366  -11.7220   20.9964 N   0  0  0  0  0  0  0  0  0  0  0  0
  -26.1772  -12.7769   20.1759 N   0  0  0  0  0  0  0  0  0  0  0  0
  -31.3509  -21.5659   20.2545 N   0  0  0  0  0  0  0  0  0  0  0  0
  -24.5174  -28.3712   20.1662 N   0  0  0  0  0  0  0  0  0  0  0  0
  -29.7179  -14.0209   19.4688 N   0  0  0  0  0  0  0  0  0  0  0  0
  -25.0431  -14.6770   19.3309 N   0  0  0  0  0  0  0  0  0  0  0  0
  -21.9987  -12.7818   22.0760 N   0  0  0  0  0  0  0  0  0  0  0  0
  -29.5078  -16.3650   19.3164 N   0  0  0  0  0  0  0  0  0  0  0  0
  -25.1526  -31.6814   21.3365 N   0  0  0  0  0  0  0  0  0  0  0  0
  -21.9709  -26.3328   19.2616 N   0  0  0  0  0  0  0  0  0  0  0  0
  -22.6579  -24.1058   16.4982 N   0  3  0  0  0  0  0  0  0  0  0  0
  -33.4726  -21.1518   21.1813 O   0  0  0  0  0  0  0  0  0  0  0  0
  -29.5360  -22.8444   19.4845 O   0  0  0  0  0  0  0  0  0  0  0  0
  -22.3754  -14.5242   20.6335 O   0  0  0  0  0  0  0  0  0  0  0  0
  -25.5095  -29.5904   22.2972 O   0  0  0  0  0  0  0  0  0  0  0  0
  -22.3847  -29.1441   19.6274 O   0  0  0  0  0  0  0  0  0  0  0  0
  -23.4388  -24.5401   19.1661 O   0  0  0  0  0  0  0  0  0  0  0  0
  -31.3354  -15.2744   18.3934 O   0  0  0  0  0  0  0  0  0  0  0  0
  -22.7091   -8.1444   25.0802 O   0  0  0  0  0  0  0  0  0  0  0  0
  -29.9173  -25.5134   21.0187 O   0  0  0  0  0  0  0  0  0  1  0  0
  -23.5297   -2.7976   24.0111 F   0  0  0  0  0  0  0  0  0  0  0  0
  -20.5736   -6.4247   24.7265 F   0  0  0  0  0  0  0  0  0  0  0  0
  1  2  1  0  0  0  0
  1  5  2  0  0  0  0
  2  6  2  0  0  0  0
  3 12  2  0  0  0  0
  3 19  1  0  0  0  0
  4 13  1  0  0  0  0
  4 19  2  0  0  0  0
  5 21  1  0  0  0  0
  6 23  1  0  0  0  0
  7 14  2  0  0  0  0
  7 22  1  0  0  0  0
  8 10  2  0  0  0  0
  8 25  1  0  0  0  0
  9 11  1  0  0  0  0
  9 25  2  0  0  0  0
 10 26  1  0  0  0  0
 11 26  2  0  0  0  0
 12 27  1  0  0  0  0
 13 27  2  0  0  0  0
 14 28  1  0  0  0  0
 15 16  2  0  0  0  0
 15 29  1  0  0  0  0
 16 30  1  0  0  0  0
 17 24  1  0  0  0  0
 17 28  2  0  0  0  0
 18 30  2  0  0  0  0
 18 31  1  0  0  0  0
 19 32  1  0  0  0  0
 20 32  1  0  0  0  0
 20 33  2  0  0  0  0
 20 38  1  0  0  0  0
 21 23  2  0  0  0  0
 21 43  1  0  0  0  0
 22 24  2  0  0  0  0
 22 44  1  0  0  0  0
 23 52  1  0  0  0  0
 24 45  1  0  0  0  0
 25 66  1  0  0  0  0
 26 71  1  0  0  0  0
 27 82  1  0  0  0  0
 28 83  1  0  0  0  0
 29 31  2  0  0  0  0
 29 82  1  0  0  0  0
 30 84  1  0  0  0  0
 31 85  1  0  0  0  0
 32 64  2  0  0  0  0
 33 65  1  0  0  0  0
 33 69  1  0  0  0  0
 34 35  2  0  0  0  0
 34 36  1  0  0  0  0
 35 37  1  0  0  0  0
 35 60  1  0  0  0  0
 36 66  1  0  0  0  0
 36 75  2  0  0  0  0
 37 66  1  0  0  0  0
 37 76  2  0  0  0  0
 38 70  1  0  0  0  0
 38 77  2  0  0  0  0
 39 53  1  0  0  0  0
 39 72  1  0  0  0  0
 39 78  2  0  0  0  0
 40 61  1  0  0  0  0
 40 67  1  0  0  0  0
 40 79  2  0  0  0  0
 41 62  1  0  0  0  0
 41 73  1  0  0  0  0
 41 80  2  0  0  0  0
 42 68  1  0  0  0  0
 42 71  1  0  0  0  0
 42 81  2  0  0  0  0
 43 46  1  0  0  0  0
 44 53  1  0  0  0  0
 45 67  1  0  0  0  0
 46 48  1  0  0  0  0
 47 49  1  0  0  0  0
 47 50  1  0  0  0  0
 48 52  1  0  0  0  0
 49 54  1  0  0  0  0
 50 68  1  0  0  0  0
 51 54  1  0  0  0  0
 51 68  1  0  0  0  0
 52 72  1  0  0  0  0
 53 67  1  0  0  0  0
 54 65  1  0  0  0  0
 55 62  1  0  0  0  0
 56 63  1  0  0  0  0
 57 63  1  0  0  0  0
 58 63  1  0  0  0  0
 59 74  1  0  0  0  0
 60 83  1  0  0  0  0
 61 63  1  0  0  0  0
 61 73  1  0  0  0  0
 62 74  1  0  0  0  0
 64 65  1  0  0  0  0
M  CHG  1  74   1
M  ISO  4  42 100  60 101  71 100  83 101
M  END
> <Batch ID>
0081

> <Smiles>
CNC(C)C(=O)NC(C(=O)N1Cc2cc([101O:1][101CH2:1]C3=CC(=O)N(c4ccc([100NH:0][100C:0](=O)N5CCCC(n6nc(-c7ccc(Oc8ccc(F)cc8F)cc7)c(C(N)=O)c6N)C5)cc4)C3=O)ccc2CC1C(=O)NC1CCCc2ccccc21)C(C)(C)C

> <Shape>
0.296

> <Color>
0.133

> <Negative vol penalty>
0.000

$$$$

  -OEChem-04052300043D

 86 94  0     1  0  0  0  0  0999 V2000
  -19.5341  -14.4744   26.5951 C   0  0  0  0  0  0  0  0  0  0  0  0
  -20.5478  -15.3888   26.3271 C   0  0  0  0  0  0  0  0  0  0  0  0
  -23.0756   -9.8680   19.9403 C   0  0  0  0  0  0  0  0  0  0  0  0
  -23.8343   -9.8750   22.2341 C   0  0  0  0  0  0  0  0  0  0  0  0
  -18.2006  -14.8776   26.5395 C   0  0  0  0  0  0  0  0  0  0  0  0
  -20.2284  -16.7068   26.0024 C   0  0  0  0  0  0  0  0  0  0  0  0
  -23.1266  -20.0661   28.4436 C   0  0  0  0  0  0  0  0  0  0  0  0
  -22.3313   -8.7151   20.1900 C   0  0  0  0  0  0  0  0  0  0  0  0
  -23.0899   -8.7221   22.4838 C   0  0  0  0  0  0  0  0  0  0  0  0
  -24.4174  -20.2665   27.9563 C   0  0  0  0  0  0  0  0  0  0  0  0
  -19.8612   -7.9253   23.0847 C   0  0  0  0  0  0  0  0  0  0  0  0
  -19.1036   -7.8857   24.2552 C   0  0  0  0  0  0  0  0  0  0  0  0
  -31.5797  -19.3806   22.8316 C   0  0  0  0  0  0  0  0  0  0  0  0
  -31.8670  -17.3445   21.5634 C   0  0  0  0  0  0  0  0  0  0  0  0
  -23.6776  -22.2722   26.8387 C   0  0  0  0  0  0  0  0  0  0  0  0
  -29.8017  -17.7468   22.7507 C   0  0  0  0  0  0  0  0  0  0  0  0
  -20.3441   -5.9480   24.9925 C   0  0  0  0  0  0  0  0  0  0  0  0
  -23.8272  -10.4479   20.9624 C   0  0  0  0  0  0  0  0  0  0  0  0
  -32.3639  -18.5678   22.0132 C   0  0  0  0  0  0  0  0  0  0  0  0
  -24.1698  -12.9729   20.8422 C   0  0  0  0  0  0  0  0  0  0  0  0
  -17.8650  -16.2035   26.2234 C   0  0  0  0  0  0  0  0  0  0  0  0
  -22.0975  -20.9629   28.1226 C   0  0  0  0  0  0  0  0  0  0  0  0
  -18.8890  -17.1277   25.9413 C   0  0  0  0  0  0  0  0  0  0  0  0
  -22.3752  -22.0824   27.3253 C   0  0  0  0  0  0  0  0  0  0  0  0
  -30.2986  -18.9701   23.2005 C   0  0  0  0  0  0  0  0  0  0  0  0
  -30.5859  -16.9340   21.9322 C   0  0  0  0  0  0  0  0  0  0  0  0
  -22.3384   -8.1421   21.4618 C   0  0  0  0  0  0  0  0  0  0  0  0
  -24.6924  -21.3681   27.1513 C   0  0  0  0  0  0  0  0  0  0  0  0
  -20.8602   -6.9761   22.8680 C   0  0  0  0  0  0  0  0  0  0  0  0
  -19.3450   -6.8971   25.2091 C   0  0  0  0  0  0  0  0  0  0  0  0
  -21.1016   -5.9875   23.8220 C   0  0  0  0  0  0  0  0  0  0  0  0
  -24.5968  -11.6385   20.7049 C   0  0  0  0  0  0  0  0  0  0  0  0
  -25.2624  -13.7221   20.4795 C   0  0  0  0  0  0  0  0  0  0  0  0
  -35.4644  -18.9248   19.9000 C   0  0  0  0  0  0  0  0  0  0  0  0
  -34.2495  -18.5446   20.3077 C   0  0  0  0  0  0  0  0  0  0  0  0
  -27.7207  -20.6579   25.3431 C   0  0  0  0  0  0  0  0  0  0  0  0
  -26.4977  -20.5967   25.8798 C   0  0  0  0  0  0  0  0  0  1  0  0
  -33.6994  -18.9959   21.6285 C   0  0  0  0  0  0  0  0  0  0  0  0
  -22.8993  -13.4892   21.2604 C   0  0  0  0  0  0  0  0  0  0  0  0
  -28.2164  -19.5394   24.4891 C   0  0  0  0  0  0  0  0  0  0  0  0
  -19.3319  -20.7415   26.5713 C   0  0  0  0  0  0  0  0  0  0  0  0
  -18.9693  -23.8044   27.5761 C   0  0  0  0  0  0  0  0  0  0  0  0
  -20.4359  -26.7055   28.6152 C   0  0  0  0  0  0  0  0  0  0  0  0
  -30.7288  -14.7661   20.6570 C   0  0  0  0  0  0  0  0  0  0  0  0
  -16.4078  -16.5808   26.1293 C   0  0  0  0  0  0  0  0  0  0  0  0
  -20.7165  -20.7472   28.6782 C   0  0  0  0  0  0  0  0  0  0  0  0
  -21.3102  -23.0857   26.9684 C   0  0  0  0  0  0  0  0  0  0  0  0
  -16.1667  -18.0881   26.1445 C   0  0  0  0  0  0  0  0  0  0  0  0
  -29.6149  -12.3523   18.2884 C   0  0  0  0  0  0  0  0  0  0  0  0
  -17.1252  -18.7917   25.1890 C   0  0  0  0  0  0  0  0  0  0  0  0
  -28.1750  -12.0612   18.7172 C   0  0  0  0  0  0  0  0  0  0  0  0
  -30.5295  -12.5810   19.4905 C   0  0  0  0  0  0  0  0  0  0  0  0
  -28.6220  -13.3062   20.8707 C   0  0  0  0  0  0  0  0  0  0  0  0
  -18.5835  -18.5723   25.6096 C   0  0  1  0  0  0  0  0  0  0  0  0
  -19.6298  -21.4444   27.8655 C   0  0  1  0  0  0  0  0  0  0  0  0
  -27.6497  -13.1331   19.6923 C   0  0  2  0  0  0  0  0  0  0  0  0
  -19.8827  -29.0470   29.3286 C   0  0  0  0  0  0  0  0  0  0  0  0
  -18.4486  -24.5650   24.6675 C   0  0  0  0  0  0  0  0  0  0  0  0
  -18.8487  -26.9557   25.2938 C   0  0  0  0  0  0  0  0  0  0  0  0
  -16.9574  -25.6978   26.3250 C   0  0  0  0  0  0  0  0  0  0  0  0
  -21.6314  -26.2965   31.2915 C   0  0  0  0  0  0  0  0  0  0  0  0
  -19.3282  -25.1614   27.0205 C   0  0  1  0  0  0  0  0  0  0  0  0
  -20.1381  -27.6204   29.7894 C   0  0  2  0  0  0  0  0  0  0  0  0
  -18.4156  -25.5752   25.8316 C   0  0  0  0  0  0  0  0  0  0  0  0
  -25.8618  -11.5423   20.2873 N   0  0  0  0  0  0  0  0  0  0  0  0
  -26.2392  -12.8257   20.1590 N   0  0  0  0  0  0  0  0  0  0  0  0
  -19.9742  -22.8277   27.5307 N   0  0  0  0  0  0  0  0  0  0  0  0
  -29.9703  -13.6121   20.3675 N   0  0  0  0  0  0  0  0  0  0  0  0
  -25.4732  -15.0535   20.4064 N   0  0  0  0  0  0  0  0  0  0  0  0
  -21.8869  -12.5803   21.5973 N   0  0  0  0  0  0  0  0  0  0  0  0
  -29.5021  -19.7956   24.0317 N   0  0  0  0  0  0  0  0  0  0  0  0
  -30.0812  -15.6914   21.4749 N   0  0  0  0  0  0  0  0  0  0  0  0
  -18.9226  -19.4306   26.7244 N   0  0  0  0  0  0  0  0  0  0  0  0
  -19.2958  -26.0860   28.1486 N   0  0  0  0  0  0  0  0  0  0  0  0
  -21.2852  -27.6321   30.7408 N   0  3  0  0  0  0  0  0  0  0  0  0
  -34.3660  -19.7414   22.3628 O   0  0  0  0  0  0  0  0  0  0  0  0
  -22.6633  -14.7199   21.3175 O   0  0  0  0  0  0  0  0  0  0  0  0
  -27.5216  -18.5550   24.2654 O   0  0  0  0  0  0  0  0  0  0  0  0
  -19.4623  -21.3444   25.5124 O   0  0  0  0  0  0  0  0  0  0  0  0
  -17.8414  -23.6199   28.0402 O   0  0  0  0  0  0  0  0  0  0  0  0
  -21.5661  -26.5582   28.1554 O   0  0  0  0  0  0  0  0  0  0  0  0
  -31.8582  -14.9344   20.1899 O   0  0  0  0  0  0  0  0  0  0  0  0
  -21.6120   -7.0172   21.7058 O   0  0  0  0  0  0  0  0  0  0  0  0
  -25.9513  -21.5656   26.6737 O   0  0  0  0  0  0  0  0  0  1  0  0
  -18.6185   -6.8601   26.3338 F   0  0  0  0  0  0  0  0  0  0  0  0
  -22.0608   -5.0737   23.6200 F   0  0  0  0  0  0  0  0  0  0  0  0
  1  2  1  0  0  0  0
  1  5  2  0  0  0  0
  2  6  2  0  0  0  0
  3  8  2  0  0  0  0
  3 18  1  0  0  0  0
  4  9  1  0  0  0  0
  4 18  2  0  0  0  0
  5 21  1  0  0  0  0
  6 23  1  0  0  0  0
  7 10  2  0  0  0  0
  7 22  1  0  0  0  0
  8 27  1  0  0  0  0
  9 27  2  0  0  0  0
 10 28  1  0  0  0  0
 11 12  2  0  0  0  0
 11 29  1  0  0  0  0
 12 30  1  0  0  0  0
 13 19  1  0  0  0  0
 13 25  2  0  0  0  0
 14 19  2  0  0  0  0
 14 26  1  0  0  0  0
 15 24  1  0  0  0  0
 15 28  2  0  0  0  0
 16 25  1  0  0  0  0
 16 26  2  0  0  0  0
 17 30  2  0  0  0  0
 17 31  1  0  0  0  0
 18 32  1  0  0  0  0
 19 38  1  0  0  0  0
 20 32  1  0  0  0  0
 20 33  2  0  0  0  0
 20 39  1  0  0  0  0
 21 23  2  0  0  0  0
 21 45  1  0  0  0  0
 22 24  2  0  0  0  0
 22 46  1  0  0  0  0
 23 54  1  0  0  0  0
 24 47  1  0  0  0  0
 25 71  1  0  0  0  0
 26 72  1  0  0  0  0
 27 83  1  0  0  0  0
 28 84  1  0  0  0  0
 29 31  2  0  0  0  0
 29 83  1  0  0  0  0
 30 85  1  0  0  0  0
 31 86  1  0  0  0  0
 32 65  2  0  0  0  0
 33 66  1  0  0  0  0
 33 69  1  0  0  0  0
 34 35  2  0  0  0  0
 35 38  1  0  0  0  0
 36 37  2  0  0  0  0
 36 40  1  0  0  0  0
 37 84  1  0  0  0  0
 38 76  2  0  0  0  0
 39 70  1  0  0  0  0
 39 77  2  0  0  0  0
 40 71  1  0  0  0  0
 40 78  2  0  0  0  0
 41 55  1  0  0  0  0
 41 73  1  0  0  0  0
 41 79  2  0  0  0  0
 42 62  1  0  0  0  0
 42 67  1  0  0  0  0
 42 80  2  0  0  0  0
 43 63  1  0  0  0  0
 43 74  1  0  0  0  0
 43 81  2  0  0  0  0
 44 68  1  0  0  0  0
 44 72  1  0  0  0  0
 44 82  2  0  0  0  0
 45 48  1  0  0  0  0
 46 55  1  0  0  0  0
 47 67  1  0  0  0  0
 48 50  1  0  0  0  0
 49 51  1  0  0  0  0
 49 52  1  0  0  0  0
 50 54  1  0  0  0  0
 51 56  1  0  0  0  0
 52 68  1  0  0  0  0
 53 56  1  0  0  0  0
 53 68  1  0  0  0  0
 54 73  1  0  0  0  0
 55 67  1  0  0  0  0
 56 66  1  0  0  0  0
 57 63  1  0  0  0  0
 58 64  1  0  0  0  0
 59 64  1  0  0  0  0
 60 64  1  0  0  0  0
 61 75  1  0  0  0  0
 62 64  1  0  0  0  0
 62 74  1  0  0  0  0
 63 75  1  0  0  0  0
 65 66  1  0  0  0  0
M  CHG  1  75   1
M  ISO  4  37 101  44 100  72 100  84 101
M  END
> <Batch ID>
0081

> <Smiles>
C=CC(=O)c1cc(NC(=O)C=[101CH:1][101O:1]c2ccc3c(c2)CN(C(=O)C(NC(=O)C(C)NC)C(C)(C)C)C(C(=O)NC2CCCc4ccccc42)C3)cc([100NH:0][100C:0](=O)N2CCCC(n3nc(-c4ccc(Oc5ccc(F)cc5F)cc4)c(C(N)=O)c3N)C2)c1

> <Shape>
0.168

> <Color>
0.184

> <Negative vol penalty>
0.000

$$$$

  -OEChem-04052300043D

 82 90  0     1  0  0  0  0  0999 V2000
  -22.0477  -11.4761   19.4676 C   0  0  0  0  0  0  0  0  0  0  0  0
  -21.7266  -12.7037   20.0379 C   0  0  0  0  0  0  0  0  0  0  0  0
  -29.1621  -25.6270   17.7708 C   0  0  0  0  0  0  0  0  0  0  0  0
  -30.6590  -26.7375   19.3080 C   0  0  0  0  0  0  0  0  0  0  0  0
  -23.3712  -11.0376   19.4590 C   0  0  0  0  0  0  0  0  0  0  0  0
  -22.7287  -13.4931   20.6009 C   0  0  0  0  0  0  0  0  0  0  0  0
  -22.3490  -18.4414   19.2361 C   0  0  0  0  0  0  0  0  0  0  0  0
  -30.0631  -25.8527   16.7302 C   0  0  0  0  0  0  0  0  0  0  0  0
  -31.5601  -26.9632   18.2674 C   0  0  0  0  0  0  0  0  0  0  0  0
  -21.3957  -19.2334   19.8745 C   0  0  0  0  0  0  0  0  0  0  0  0
  -33.8915  -25.2034   16.5678 C   0  0  0  0  0  0  0  0  0  0  0  0
  -35.2401  -24.9457   16.8131 C   0  0  0  0  0  0  0  0  0  0  0  0
  -23.1019  -20.0868   21.3505 C   0  0  0  0  0  0  0  0  0  0  0  0
  -35.7683  -27.2542   16.3347 C   0  0  0  0  0  0  0  0  0  0  0  0
  -29.4600  -26.0694   19.0597 C   0  0  0  0  0  0  0  0  0  0  0  0
  -28.4802  -24.7199   20.9901 C   0  0  0  0  0  0  0  0  0  0  0  0
  -24.3914  -11.8264   20.0136 C   0  0  0  0  0  0  0  0  0  0  0  0
  -23.6866  -18.4580   19.6572 C   0  0  0  0  0  0  0  0  0  0  0  0
  -24.0669  -13.0642   20.6009 C   0  0  0  0  0  0  0  0  0  0  0  0
  -24.0711  -19.2977   20.7126 C   0  0  0  0  0  0  0  0  0  0  0  0
  -31.2621  -26.5208   16.9785 C   0  0  0  0  0  0  0  0  0  0  0  0
  -21.7717  -20.0546   20.9333 C   0  0  0  0  0  0  0  0  0  0  0  0
  -33.4812  -26.4865   16.2059 C   0  0  0  0  0  0  0  0  0  0  0  0
  -36.1786  -25.9711   16.6966 C   0  0  0  0  0  0  0  0  0  0  0  0
  -34.4196  -27.5119   16.0893 C   0  0  0  0  0  0  0  0  0  0  0  0
  -28.5294  -25.8370   20.1349 C   0  0  0  0  0  0  0  0  0  0  0  0
  -27.4259  -24.9780   21.8317 C   0  0  0  0  0  0  0  0  0  0  0  0
  -18.5512  -28.6701   23.5620 C   0  0  0  0  0  0  0  0  0  0  0  0
  -19.5665  -29.3307   22.9984 C   0  0  0  0  0  0  0  0  0  0  0  0
  -18.4763  -27.2392   23.4960 C   0  0  0  0  0  0  0  0  0  0  0  0
  -19.4412  -26.5683   22.8574 C   0  0  0  0  0  0  0  0  0  0  0  0
  -20.6292  -28.5852   22.2942 C   0  0  0  0  0  0  0  0  0  0  0  0
  -20.1733  -23.0284   22.1360 C   0  0  0  0  0  0  0  0  0  0  0  0
  -21.0260  -22.1834   21.5520 C   0  0  0  0  0  0  0  0  0  1  0  0
  -29.3131  -23.5533   21.0210 C   0  0  0  0  0  0  0  0  0  0  0  0
  -20.4324  -24.4934   22.0931 C   0  0  0  0  0  0  0  0  0  0  0  0
  -25.7789  -16.3315   20.8173 C   0  0  0  0  0  0  0  0  0  0  0  0
  -27.8133  -18.9424   20.5044 C   0  0  0  0  0  0  0  0  0  0  0  0
  -30.4754  -16.8597   20.9684 C   0  0  0  0  0  0  0  0  0  0  0  0
  -22.5732  -28.3743   21.0971 C   0  0  0  0  0  0  0  0  0  0  0  0
  -25.8006  -11.2890   20.0231 C   0  0  0  0  0  0  0  0  0  0  0  0
  -24.7055  -17.6185   18.9351 C   0  0  0  0  0  0  0  0  0  0  0  0
  -25.4939  -19.3544   21.1994 C   0  0  0  0  0  0  0  0  0  0  0  0
  -26.8568  -12.3543   20.3059 C   0  0  0  0  0  0  0  0  0  0  0  0
  -24.9949  -28.5824   23.8098 C   0  0  0  0  0  0  0  0  0  0  0  0
  -26.4394  -13.2184   21.4915 C   0  0  0  0  0  0  0  0  0  0  0  0
  -26.1871  -27.8243   23.2269 C   0  0  0  0  0  0  0  0  0  0  0  0
  -24.2425  -29.3590   22.7328 C   0  0  0  0  0  0  0  0  0  0  0  0
  -24.9880  -27.7511   20.9974 C   0  0  0  0  0  0  0  0  0  0  0  0
  -25.1294  -13.9602   21.1995 C   0  0  1  0  0  0  0  0  0  0  0  0
  -25.9747  -17.3671   19.7466 C   0  0  1  0  0  0  0  0  0  0  0  0
  -25.7524  -26.9321   22.0508 C   0  0  1  0  0  0  0  0  0  0  0  0
  -32.9819  -16.8117   20.8558 C   0  0  0  0  0  0  0  0  0  0  0  0
  -27.6712  -18.8434   17.4588 C   0  0  0  0  0  0  0  0  0  0  0  0
  -29.9756  -17.8646   17.4536 C   0  0  0  0  0  0  0  0  0  0  0  0
  -29.5964  -20.1529   18.3716 C   0  0  0  0  0  0  0  0  0  0  0  0
  -30.7074  -16.1882   23.8414 C   0  0  0  0  0  0  0  0  0  0  0  0
  -28.7902  -18.1440   19.6779 C   0  0  1  0  0  0  0  0  0  0  0  0
  -31.7682  -17.0348   21.7446 C   0  0  2  0  0  0  0  0  0  0  0  0
  -28.9873  -18.7386   18.2549 C   0  0  0  0  0  0  0  0  0  0  0  0
  -27.5816  -26.7377   20.4080 N   0  0  0  0  0  0  0  0  0  0  0  0
  -21.6327  -29.1649   21.7305 N   0  0  0  0  0  0  0  0  0  0  0  0
  -26.9269  -26.1867   21.4443 N   0  0  0  0  0  0  0  0  0  0  0  0
  -26.4627  -18.5831   20.4097 N   0  0  0  0  0  0  0  0  0  0  0  0
  -23.8784  -28.4857   21.6113 N   0  0  0  0  0  0  0  0  0  0  0  0
  -26.8862  -24.2865   22.8579 N   0  0  0  0  0  0  0  0  0  0  0  0
  -30.3510  -23.4483   20.0850 N   0  0  0  0  0  0  0  0  0  0  0  0
  -19.4427  -25.2078   22.7501 N   0  0  0  0  0  0  0  0  0  0  0  0
  -25.3742  -15.0992   20.3408 N   0  0  0  0  0  0  0  0  0  0  0  0
  -30.0158  -18.0582   20.4647 N   0  0  0  0  0  0  0  0  0  0  0  0
  -31.8290  -16.0656   22.8750 N   0  3  0  0  0  0  0  0  0  0  0  0
  -29.1318  -22.6237   21.8435 O   0  0  0  0  0  0  0  0  0  0  0  0
  -21.4153  -24.9690   21.5331 O   0  0  0  0  0  0  0  0  0  0  0  0
  -25.9814  -16.6280   21.9890 O   0  0  0  0  0  0  0  0  0  0  0  0
  -28.2324  -19.8646   21.2094 O   0  0  0  0  0  0  0  0  0  0  0  0
  -29.9300  -15.7684   20.8203 O   0  0  0  0  0  0  0  0  0  0  0  0
  -22.3160  -27.6253   20.1513 O   0  0  0  0  0  0  0  0  0  0  0  0
  -20.5320  -27.2233   22.2456 O   0  0  0  0  0  0  0  0  0  0  0  0
  -32.1417  -26.7410   15.9634 O   0  0  0  0  0  0  0  0  0  0  0  0
  -20.8432  -20.8291   21.5579 O   0  0  0  0  0  0  0  0  0  1  0  0
  -37.4735  -25.7238   16.9337 F   0  0  0  0  0  0  0  0  0  0  0  0
  -34.0312  -28.7469   15.7431 F   0  0  0  0  0  0  0  0  0  0  0  0
  1  2  1  0  0  0  0
  1  5  2  0  0  0  0
  2  6  2  0  0  0  0
  3  8  2  0  0  0  0
  3 15  1  0  0  0  0
  4  9  1  0  0  0  0
  4 15  2  0  0  0  0
  5 17  1  0  0  0  0
  6 19  1  0  0  0  0
  7 10  2  0  0  0  0
  7 18  1  0  0  0  0
  8 21  1  0  0  0  0
  9 21  2  0  0  0  0
 10 22  1  0  0  0  0
 11 12  2  0  0  0  0
 11 23  1  0  0  0  0
 12 24  1  0  0  0  0
 13 20  1  0  0  0  0
 13 22  2  0  0  0  0
 14 24  2  0  0  0  0
 14 25  1  0  0  0  0
 15 26  1  0  0  0  0
 16 26  1  0  0  0  0
 16 27  2  0  0  0  0
 16 35  1  0  0  0  0
 17 19  2  0  0  0  0
 17 41  1  0  0  0  0
 18 20  2  0  0  0  0
 18 42  1  0  0  0  0
 19 50  1  0  0  0  0
 20 43  1  0  0  0  0
 21 79  1  0  0  0  0
 22 80  1  0  0  0  0
 23 25  2  0  0  0  0
 23 79  1  0  0  0  0
 24 81  1  0  0  0  0
 25 82  1  0  0  0  0
 26 61  2  0  0  0  0
 27 63  1  0  0  0  0
 27 66  1  0  0  0  0
 28 29  2  0  0  0  0
 28 30  1  0  0  0  0
 29 32  1  0  0  0  0
 30 31  2  0  0  0  0
 31 68  1  0  0  0  0
 31 78  1  0  0  0  0
 32 62  2  0  0  0  0
 32 78  1  0  0  0  0
 33 34  2  0  0  0  0
 33 36  1  0  0  0  0
 34 80  1  0  0  0  0
 35 67  1  0  0  0  0
 35 72  2  0  0  0  0
 36 68  1  0  0  0  0
 36 73  2  0  0  0  0
 37 51  1  0  0  0  0
 37 69  1  0  0  0  0
 37 74  2  0  0  0  0
 38 58  1  0  0  0  0
 38 64  1  0  0  0  0
 38 75  2  0  0  0  0
 39 59  1  0  0  0  0
 39 70  1  0  0  0  0
 39 76  2  0  0  0  0
 40 62  1  0  0  0  0
 40 65  1  0  0  0  0
 40 77  2  0  0  0  0
 41 44  1  0  0  0  0
 42 51  1  0  0  0  0
 43 64  1  0  0  0  0
 44 46  1  0  0  0  0
 45 47  1  0  0  0  0
 45 48  1  0  0  0  0
 46 50  1  0  0  0  0
 47 52  1  0  0  0  0
 48 65  1  0  0  0  0
 49 52  1  0  0  0  0
 49 65  1  0  0  0  0
 50 69  1  0  0  0  0
 51 64  1  0  0  0  0
 52 63  1  0  0  0  0
 53 59  1  0  0  0  0
 54 60  1  0  0  0  0
 55 60  1  0  0  0  0
 56 60  1  0  0  0  0
 57 71  1  0  0  0  0
 58 60  1  0  0  0  0
 58 70  1  0  0  0  0
 59 71  1  0  0  0  0
 61 63  1  0  0  0  0
M  CHG  1  71   1
M  ISO  4  34 101  40 100  62 100  80 101
M  END
> <Batch ID>
0081

> <Smiles>
CNC(C)C(=O)NC(C(=O)N1Cc2cc([101O:1][101CH:1]=CC(=O)N=c3cccc([100NH:0][100C:0](=O)N4CCCC(n5nc(-c6ccc(Oc7ccc(F)cc7F)cc6)c(C(N)=O)c5N)C4)o3)ccc2CC1C(=O)NC1CCCc2ccccc21)C(C)(C)C

> <Shape>
0.228

> <Color>
0.073

> <Negative vol penalty>
0.000

$$$$

  -OEChem-04052300043D

 84 93  0     1  0  0  0  0  0999 V2000
  -43.7290  -27.9062   27.4522 C   0  0  0  0  0  0  0  0  0  0  0  0
  -43.1754  -26.6366   27.5827 C   0  0  0  0  0  0  0  0  0  0  0  0
  -30.4659  -18.3390   24.0465 C   0  0  0  0  0  0  0  0  0  0  0  0
  -23.0749   -9.8686   19.9402 C   0  0  0  0  0  0  0  0  0  0  0  0
  -23.8343   -9.8746   22.2337 C   0  0  0  0  0  0  0  0  0  0  0  0
  -43.1626  -28.8251   26.5698 C   0  0  0  0  0  0  0  0  0  0  0  0
  -42.0543  -26.2855   26.8315 C   0  0  0  0  0  0  0  0  0  0  0  0
  -40.7588  -20.7686   24.5095 C   0  0  0  0  0  0  0  0  0  0  0  0
  -31.8515  -18.3569   24.2055 C   0  0  0  0  0  0  0  0  0  0  0  0
  -29.8790  -17.4550   23.1411 C   0  0  0  0  0  0  0  0  0  0  0  0
  -22.3306   -8.7156   20.1897 C   0  0  0  0  0  0  0  0  0  0  0  0
  -23.0900   -8.7216   22.4832 C   0  0  0  0  0  0  0  0  0  0  0  0
  -39.9324  -19.7359   24.9503 C   0  0  0  0  0  0  0  0  0  0  0  0
  -19.8614   -7.9247   23.0849 C   0  0  0  0  0  0  0  0  0  0  0  0
  -19.1042   -7.8847   24.2556 C   0  0  0  0  0  0  0  0  0  0  0  0
  -38.1649  -20.5500   23.5246 C   0  0  0  0  0  0  0  0  0  0  0  0
  -32.0636  -16.6069   22.5533 C   0  0  0  0  0  0  0  0  0  0  0  0
  -20.3449   -5.9466   24.9917 C   0  0  0  0  0  0  0  0  0  0  0  0
  -23.8268  -10.4481   20.9622 C   0  0  0  0  0  0  0  0  0  0  0  0
  -24.1695  -12.9732   20.8430 C   0  0  0  0  0  0  0  0  0  0  0  0
  -42.0398  -28.4818   25.8003 C   0  0  0  0  0  0  0  0  0  0  0  0
  -40.2900  -21.7077   23.5796 C   0  0  0  0  0  0  0  0  0  0  0  0
  -41.4715  -27.2011   25.9389 C   0  0  0  0  0  0  0  0  0  0  0  0
  -38.9882  -21.5921   23.0717 C   0  0  0  0  0  0  0  0  0  0  0  0
  -32.6504  -17.4909   23.4588 C   0  0  0  0  0  0  0  0  0  0  0  0
  -30.6779  -16.5890   22.3944 C   0  0  0  0  0  0  0  0  0  0  0  0
  -22.3381   -8.1421   21.4612 C   0  0  0  0  0  0  0  0  0  0  0  0
  -38.6342  -19.6282   24.4600 C   0  0  0  0  0  0  0  0  0  0  0  0
  -20.8603   -6.9756   22.8675 C   0  0  0  0  0  0  0  0  0  0  0  0
  -19.3460   -6.8957   25.2091 C   0  0  0  0  0  0  0  0  0  0  0  0
  -21.1021   -5.9866   23.8210 C   0  0  0  0  0  0  0  0  0  0  0  0
  -24.5963  -11.6388   20.7050 C   0  0  0  0  0  0  0  0  0  0  0  0
  -25.2619  -13.7224   20.4802 C   0  0  0  0  0  0  0  0  0  0  0  0
  -36.0073  -17.6158   23.7881 C   0  0  0  0  0  0  0  0  0  0  0  0
  -34.8387  -18.2446   24.4050 C   0  0  0  0  0  0  0  0  0  0  0  0
  -22.8991  -13.4893   21.2618 C   0  0  0  0  0  0  0  0  0  0  0  0
  -37.3443  -17.7423   23.9600 C   0  0  0  0  0  0  0  0  0  1  0  0
  -39.8314  -24.8530   23.6046 C   0  0  0  0  0  0  0  0  0  0  0  0
  -39.1560  -24.3871   20.4662 C   0  0  0  0  0  0  0  0  0  0  0  0
  -38.1331  -22.2513   18.0089 C   0  0  0  0  0  0  0  0  0  0  0  0
  -30.7284  -14.7662   20.6563 C   0  0  0  0  0  0  0  0  0  0  0  0
  -41.4341  -29.5247   24.8947 C   0  0  0  0  0  0  0  0  0  0  0  0
  -41.2029  -22.8002   23.0940 C   0  0  0  0  0  0  0  0  0  0  0  0
  -38.4438  -22.5627   22.0568 C   0  0  0  0  0  0  0  0  0  0  0  0
  -35.0765  -16.8056   22.9153 C   0  0  0  0  0  0  0  0  0  0  0  0
  -40.4726  -28.9476   23.8589 C   0  0  0  0  0  0  0  0  0  0  0  0
  -29.6137  -12.3534   18.2871 C   0  0  0  0  0  0  0  0  0  0  0  0
  -39.5122  -27.9600   24.5139 C   0  0  0  0  0  0  0  0  0  0  0  0
  -28.1739  -12.0622   18.7163 C   0  0  0  0  0  0  0  0  0  0  0  0
  -30.5287  -12.5815   19.4890 C   0  0  0  0  0  0  0  0  0  0  0  0
  -28.6217  -13.3062   20.8701 C   0  0  0  0  0  0  0  0  0  0  0  0
  -40.2705  -26.7745   25.1231 C   0  0  1  0  0  0  0  0  0  0  0  0
  -40.4501  -24.0021   22.5318 C   0  0  1  0  0  0  0  0  0  0  0  0
  -27.6490  -13.1336   19.6920 C   0  0  2  0  0  0  0  0  0  0  0  0
  -38.3717  -16.9725   23.1924 C   0  0  0  0  0  0  0  0  0  0  0  0
  -37.6413  -22.1689   15.5494 C   0  0  0  0  0  0  0  0  0  0  0  0
  -36.5149  -25.8370   20.9482 C   0  0  0  0  0  0  0  0  0  0  0  0
  -35.6870  -24.9046   18.7771 C   0  0  0  0  0  0  0  0  0  0  0  0
  -37.6571  -26.4346   18.8051 C   0  0  0  0  0  0  0  0  0  0  0  0
  -40.2324  -20.2188   17.5392 C   0  0  0  0  0  0  0  0  0  0  0  0
  -37.9082  -24.0744   19.6762 C   0  0  1  0  0  0  0  0  0  0  0  0
  -38.6934  -21.9622   16.6279 C   0  0  2  0  0  0  0  0  0  0  0  0
  -36.9511  -25.2953   19.5722 C   0  0  0  0  0  0  0  0  0  0  0  0
  -25.8612  -11.5427   20.2869 N   0  0  0  0  0  0  0  0  0  0  0  0
  -26.2386  -12.8262   20.1591 N   0  0  0  0  0  0  0  0  0  0  0  0
  -34.0168  -17.5088   23.6164 N   0  0  0  0  0  0  0  0  0  0  0  0
  -39.3727  -23.6172   21.6178 N   0  0  0  0  0  0  0  0  0  0  0  0
  -29.9698  -13.6123   20.3666 N   0  0  0  0  0  0  0  0  0  0  0  0
  -25.4728  -15.0538   20.4076 N   0  0  0  0  0  0  0  0  0  0  0  0
  -21.8868  -12.5803   21.5986 N   0  0  0  0  0  0  0  0  0  0  0  0
  -30.0812  -15.6912   21.4749 N   0  0  0  0  0  0  0  0  0  0  0  0
  -40.6657  -25.8422   24.0891 N   0  0  0  0  0  0  0  0  0  0  0  0
  -38.3591  -23.5574   18.3886 N   0  0  0  0  0  0  0  0  0  0  0  0
  -39.1769  -20.5547   16.5493 N   0  3  0  0  0  0  0  0  0  0  0  0
  -34.6673  -19.0880   25.2604 O   0  0  0  0  0  0  0  0  0  0  0  0
  -22.6632  -14.7199   21.3195 O   0  0  0  0  0  0  0  0  0  0  0  0
  -38.6816  -24.6296   23.9649 O   0  0  0  0  0  0  0  0  0  0  0  0
  -39.9142  -25.2767   20.0722 O   0  0  0  0  0  0  0  0  0  0  0  0
  -37.5497  -21.4042   18.6817 O   0  0  0  0  0  0  0  0  0  0  0  0
  -31.8577  -14.9346   20.1890 O   0  0  0  0  0  0  0  0  0  0  0  0
  -21.6117   -7.0172   21.7050 O   0  0  0  0  0  0  0  0  0  0  0  0
  -37.8253  -18.6215   24.8891 O   0  0  0  0  0  0  0  0  0  1  0  0
  -18.6198   -6.8583   26.3340 F   0  0  0  0  0  0  0  0  0  0  0  0
  -22.0611   -5.0729   23.6183 F   0  0  0  0  0  0  0  0  0  0  0  0
  1  2  1  0  0  0  0
  1  6  2  0  0  0  0
  2  7  2  0  0  0  0
  3  9  2  0  0  0  0
  3 10  1  0  0  0  0
  4 11  2  0  0  0  0
  4 19  1  0  0  0  0
  5 12  1  0  0  0  0
  5 19  2  0  0  0  0
  6 21  1  0  0  0  0
  7 23  1  0  0  0  0
  8 13  2  0  0  0  0
  8 22  1  0  0  0  0
  9 25  1  0  0  0  0
 10 26  2  0  0  0  0
 11 27  1  0  0  0  0
 12 27  2  0  0  0  0
 13 28  1  0  0  0  0
 14 15  2  0  0  0  0
 14 29  1  0  0  0  0
 15 30  1  0  0  0  0
 16 24  1  0  0  0  0
 16 28  2  0  0  0  0
 17 25  2  0  0  0  0
 17 26  1  0  0  0  0
 18 30  2  0  0  0  0
 18 31  1  0  0  0  0
 19 32  1  0  0  0  0
 20 32  1  0  0  0  0
 20 33  2  0  0  0  0
 20 36  1  0  0  0  0
 21 23  2  0  0  0  0
 21 42  1  0  0  0  0
 22 24  2  0  0  0  0
 22 43  1  0  0  0  0
 23 52  1  0  0  0  0
 24 44  1  0  0  0  0
 25 66  1  0  0  0  0
 26 71  1  0  0  0  0
 27 81  1  0  0  0  0
 28 82  1  0  0  0  0
 29 31  2  0  0  0  0
 29 81  1  0  0  0  0
 30 83  1  0  0  0  0
 31 84  1  0  0  0  0
 32 64  2  0  0  0  0
 33 65  1  0  0  0  0
 33 69  1  0  0  0  0
 34 35  1  0  0  0  0
 34 37  2  0  0  0  0
 34 45  1  0  0  0  0
 35 66  1  0  0  0  0
 35 75  2  0  0  0  0
 36 70  1  0  0  0  0
 36 76  2  0  0  0  0
 37 55  1  0  0  0  0
 37 82  1  0  0  0  0
 38 53  1  0  0  0  0
 38 72  1  0  0  0  0
 38 77  2  0  0  0  0
 39 61  1  0  0  0  0
 39 67  1  0  0  0  0
 39 78  2  0  0  0  0
 40 62  1  0  0  0  0
 40 73  1  0  0  0  0
 40 79  2  0  0  0  0
 41 68  1  0  0  0  0
 41 71  1  0  0  0  0
 41 80  2  0  0  0  0
 42 46  1  0  0  0  0
 43 53  1  0  0  0  0
 44 67  1  0  0  0  0
 45 66  1  0  0  0  0
 46 48  1  0  0  0  0
 47 49  1  0  0  0  0
 47 50  1  0  0  0  0
 48 52  1  0  0  0  0
 49 54  1  0  0  0  0
 50 68  1  0  0  0  0
 51 54  1  0  0  0  0
 51 68  1  0  0  0  0
 52 72  1  0  0  0  0
 53 67  1  0  0  0  0
 54 65  1  0  0  0  0
 56 62  1  0  0  0  0
 57 63  1  0  0  0  0
 58 63  1  0  0  0  0
 59 63  1  0  0  0  0
 60 74  1  0  0  0  0
 61 63  1  0  0  0  0
 61 73  1  0  0  0  0
 62 74  1  0  0  0  0
 64 65  1  0  0  0  0
M  CHG  1  74   1
M  ISO  4  37 101  41 100  71 100  82 101
M  END
> <Batch ID>
0081

> <Smiles>
CNC(C)C(=O)NC(C(=O)N1Cc2cc([101O:1][101C:1](C)=C3CN(c4cccc([100NH:0][100C:0](=O)N5CCCC(n6nc(-c7ccc(Oc8ccc(F)cc8F)cc7)c(C(N)=O)c6N)C5)c4)C3=O)ccc2CC1C(=O)NC1CCCc2ccccc21)C(C)(C)C

> <Shape>
0.165

> <Color>
0.192

> <Negative vol penalty>
0.000

$$$$

  -OEChem-04052300043D

 85 94  0     1  0  0  0  0  0999 V2000
  -25.9812  -36.7447   16.1755 C   0  0  0  0  0  0  0  0  0  0  0  0
  -26.3262  -35.3971   16.1983 C   0  0  0  0  0  0  0  0  0  0  0  0
  -24.3122   -8.8451   21.4468 C   0  0  0  0  0  0  0  0  0  0  0  0
  -24.7848  -10.0639   23.4786 C   0  0  0  0  0  0  0  0  0  0  0  0
  -25.9330  -37.4710   17.3646 C   0  0  0  0  0  0  0  0  0  0  0  0
  -26.6243  -34.7754   17.4103 C   0  0  0  0  0  0  0  0  0  0  0  0
  -25.3985  -28.9829   18.9757 C   0  0  0  0  0  0  0  0  0  0  0  0
  -28.0037  -20.2611   20.1512 C   0  0  0  0  0  0  0  0  0  0  0  0
  -27.9570  -18.8745   20.2945 C   0  0  0  0  0  0  0  0  0  0  0  0
  -23.9358   -7.7338   22.2009 C   0  0  0  0  0  0  0  0  0  0  0  0
  -24.4083   -8.9525   24.2328 C   0  0  0  0  0  0  0  0  0  0  0  0
  -26.1790  -27.8276   18.9815 C   0  0  0  0  0  0  0  0  0  0  0  0
  -21.2372   -6.7212   23.9688 C   0  0  0  0  0  0  0  0  0  0  0  0
  -20.0669   -6.0560   23.6033 C   0  0  0  0  0  0  0  0  0  0  0  0
  -26.6547  -28.1679   21.3218 C   0  0  0  0  0  0  0  0  0  0  0  0
  -30.1599  -18.6993   19.3180 C   0  0  0  0  0  0  0  0  0  0  0  0
  -21.3330   -4.0318   23.2332 C   0  0  0  0  0  0  0  0  0  0  0  0
  -28.0832  -23.0623   19.2503 C   0  0  0  0  0  0  0  0  0  0  0  0
  -30.3103  -23.0153   19.4798 C   0  0  0  0  0  0  0  0  0  0  0  0
  -24.7368  -10.0102   22.0856 C   0  0  0  0  0  0  0  0  0  0  0  0
  -24.2983  -12.2093   20.8695 C   0  0  0  0  0  0  0  0  0  0  0  0
  -26.2213  -36.8554   18.5929 C   0  0  0  0  0  0  0  0  0  0  0  0
  -25.2490  -29.7466   20.1423 C   0  0  0  0  0  0  0  0  0  0  0  0
  -26.5813  -35.4944   18.6169 C   0  0  0  0  0  0  0  0  0  0  0  0
  -25.8698  -29.3310   21.3289 C   0  0  0  0  0  0  0  0  0  0  0  0
  -28.5342  -24.3602   19.1534 C   0  0  0  0  0  0  0  0  0  0  0  0
  -29.1285  -20.8669   19.5912 C   0  0  0  0  0  0  0  0  0  0  0  0
  -29.0351  -18.0935   19.8780 C   0  0  0  0  0  0  0  0  0  0  0  0
  -23.9838   -7.7875   23.5939 C   0  0  0  0  0  0  0  0  0  0  0  0
  -26.8095  -27.4215   20.1539 C   0  0  0  0  0  0  0  0  0  0  0  0
  -22.4554   -6.0417   23.9664 C   0  0  0  0  0  0  0  0  0  0  0  0
  -29.9431  -24.3305   19.2987 C   0  0  0  0  0  0  0  0  0  0  0  0
  -20.1148   -4.7113   23.2356 C   0  0  0  0  0  0  0  0  0  0  0  0
  -30.2066  -20.0860   19.1747 C   0  0  0  0  0  0  0  0  0  0  0  0
  -22.5033   -4.6971   23.5986 C   0  0  0  0  0  0  0  0  0  0  0  0
  -25.1263  -11.1583   21.3071 C   0  0  0  0  0  0  0  0  0  0  0  0
  -25.1400  -13.0431   20.1746 C   0  0  0  0  0  0  0  0  0  0  0  0
  -22.8938  -12.4138   21.0730 C   0  0  0  0  0  0  0  0  0  0  0  0
  -25.9848  -32.7218   20.9853 C   0  0  0  0  0  0  0  0  0  0  0  0
  -24.3684  -31.9412   23.6872 C   0  0  0  0  0  0  0  0  0  0  0  0
  -23.2574  -29.4978   25.7949 C   0  0  0  0  0  0  0  0  0  0  0  0
  -29.9708  -15.7644   19.6637 C   0  0  0  0  0  0  0  0  0  0  0  0
  -26.2021  -37.6931   19.8469 C   0  0  0  0  0  0  0  0  0  0  0  0
  -24.3820  -30.9756   20.1261 C   0  0  0  0  0  0  0  0  0  0  0  0
  -25.7244  -30.1046   22.6129 C   0  0  0  0  0  0  0  0  0  0  0  0
  -26.1673  -36.8675   21.1304 C   0  0  0  0  0  0  0  0  0  0  0  0
  -29.9091  -12.3603   18.6217 C   0  0  0  0  0  0  0  0  0  0  0  0
  -27.1936  -35.7407   21.0684 C   0  0  0  0  0  0  0  0  0  0  0  0
  -28.5912  -11.8306   19.1915 C   0  0  0  0  0  0  0  0  0  0  0  0
  -30.5766  -13.3563   19.5684 C   0  0  0  0  0  0  0  0  0  0  0  0
  -28.4038  -13.9386   20.5729 C   0  0  0  0  0  0  0  0  0  0  0  0
  -26.8873  -34.7784   19.9145 C   0  0  1  0  0  0  0  0  0  0  0  0
  -24.7171  -31.9579   21.2443 C   0  0  1  0  0  0  0  0  0  0  0  0
  -27.6621  -12.9812   19.6258 C   0  0  2  0  0  0  0  0  0  0  0  0
  -21.9968  -29.1699   27.9398 C   0  0  0  0  0  0  0  0  0  0  0  0
  -26.8245  -32.8309   25.2639 C   0  0  0  0  0  0  0  0  0  0  0  0
  -25.9013  -31.6199   27.2511 C   0  0  0  0  0  0  0  0  0  0  0  0
  -24.6380  -33.5278   26.2578 C   0  0  0  0  0  0  0  0  0  0  0  0
  -21.1425  -27.9265   24.4469 C   0  0  0  0  0  0  0  0  0  0  0  0
  -27.6834  -25.5765   18.9340 C   0  0  0  0  0  0  0  0  0  1  0  0
  -24.7399  -31.3280   25.0157 C   0  0  1  0  0  0  0  0  0  0  0  0
  -21.8981  -29.2521   26.4245 C   0  0  2  0  0  0  0  0  0  0  0  0
  -25.5304  -32.3129   25.9226 C   0  0  0  0  0  0  0  0  0  0  0  0
  -26.3966  -11.3082   20.9223 N   0  0  0  0  0  0  0  0  0  0  0  0
  -29.1716  -22.2533   19.4483 N   0  0  0  0  0  0  0  0  0  0  0  0
  -26.3730  -12.4631   20.2355 N   0  0  0  0  0  0  0  0  0  0  0  0
  -24.8715  -31.3027   22.5447 N   0  0  0  0  0  0  0  0  0  0  0  0
  -29.6384  -14.4200   19.9334 N   0  0  0  0  0  0  0  0  0  0  0  0
  -24.9384  -14.2083   19.5234 N   0  0  0  0  0  0  0  0  0  0  0  0
  -22.1797  -11.4596   21.8105 N   0  0  0  0  0  0  0  0  0  0  0  0
  -28.9877  -16.6850   20.0249 N   0  0  0  0  0  0  0  0  0  0  0  0
  -25.8015  -33.8906   20.2714 N   0  0  0  0  0  0  0  0  0  0  0  0
  -23.4959  -30.8423   25.6032 N   0  0  0  0  0  0  0  0  0  0  0  0
  -21.3175  -27.9751   25.9214 N   0  3  0  0  0  0  0  0  0  0  0  0
  -22.2868  -13.4046   20.6004 O   0  0  0  0  0  0  0  0  0  0  0  0
  -27.0502  -32.2839   21.4035 O   0  0  0  0  0  0  0  0  0  0  0  0
  -23.6523  -32.9452   23.6636 O   0  0  0  0  0  0  0  0  0  0  0  0
  -24.0319  -28.5883   25.5058 O   0  0  0  0  0  0  0  0  0  0  0  0
  -31.0367  -16.0739   19.1251 O   0  0  0  0  0  0  0  0  0  0  0  0
  -30.8003  -25.3608   19.2704 O   0  0  0  0  0  0  0  0  0  0  0  0
  -23.6163   -6.7033   24.3302 O   0  0  0  0  0  0  0  0  0  0  0  0
  -27.5724  -26.2946   20.1621 O   0  0  0  0  0  0  0  0  0  1  0  0
  -18.9906   -4.0723   22.8861 F   0  0  0  0  0  0  0  0  0  0  0  0
  -31.2933  -20.6548   18.6325 F   0  0  0  0  0  0  0  0  0  0  0  0
  -23.6705   -4.0387   23.5955 F   0  0  0  0  0  0  0  0  0  0  0  0
  1  2  1  0  0  0  0
  1  5  2  0  0  0  0
  2  6  2  0  0  0  0
  3 10  2  0  0  0  0
  3 20  1  0  0  0  0
  4 11  1  0  0  0  0
  4 20  2  0  0  0  0
  5 22  1  0  0  0  0
  6 24  1  0  0  0  0
  7 12  2  0  0  0  0
  7 23  1  0  0  0  0
  8  9  2  0  0  0  0
  8 27  1  0  0  0  0
  9 28  1  0  0  0  0
 10 29  1  0  0  0  0
 11 29  2  0  0  0  0
 12 30  1  0  0  0  0
 13 14  2  0  0  0  0
 13 31  1  0  0  0  0
 14 33  1  0  0  0  0
 15 25  1  0  0  0  0
 15 30  2  0  0  0  0
 16 28  2  0  0  0  0
 16 34  1  0  0  0  0
 17 33  2  0  0  0  0
 17 35  1  0  0  0  0
 18 26  2  0  0  0  0
 18 65  1  0  0  0  0
 19 32  2  0  0  0  0
 19 65  1  0  0  0  0
 20 36  1  0  0  0  0
 21 36  1  0  0  0  0
 21 37  2  0  0  0  0
 21 38  1  0  0  0  0
 22 24  2  0  0  0  0
 22 43  1  0  0  0  0
 23 25  2  0  0  0  0
 23 44  1  0  0  0  0
 24 52  1  0  0  0  0
 25 45  1  0  0  0  0
 26 32  1  0  0  0  0
 26 60  1  0  0  0  0
 27 34  2  0  0  0  0
 27 65  1  0  0  0  0
 28 71  1  0  0  0  0
 29 81  1  0  0  0  0
 30 82  1  0  0  0  0
 31 35  2  0  0  0  0
 31 81  1  0  0  0  0
 32 80  1  0  0  0  0
 33 83  1  0  0  0  0
 34 84  1  0  0  0  0
 35 85  1  0  0  0  0
 36 64  2  0  0  0  0
 37 66  1  0  0  0  0
 37 69  1  0  0  0  0
 38 70  1  0  0  0  0
 38 75  2  0  0  0  0
 39 53  1  0  0  0  0
 39 72  1  0  0  0  0
 39 76  2  0  0  0  0
 40 61  1  0  0  0  0
 40 67  1  0  0  0  0
 40 77  2  0  0  0  0
 41 62  1  0  0  0  0
 41 73  1  0  0  0  0
 41 78  2  0  0  0  0
 42 68  1  0  0  0  0
 42 71  1  0  0  0  0
 42 79  2  0  0  0  0
 43 46  1  0  0  0  0
 44 53  1  0  0  0  0
 45 67  1  0  0  0  0
 46 48  1  0  0  0  0
 47 49  1  0  0  0  0
 47 50  1  0  0  0  0
 48 52  1  0  0  0  0
 49 54  1  0  0  0  0
 50 68  1  0  0  0  0
 51 54  1  0  0  0  0
 51 68  1  0  0  0  0
 52 72  1  0  0  0  0
 53 67  1  0  0  0  0
 54 66  1  0  0  0  0
 55 62  1  0  0  0  0
 56 63  1  0  0  0  0
 57 63  1  0  0  0  0
 58 63  1  0  0  0  0
 59 74  1  0  0  0  0
 60 82  1  0  0  0  0
 61 63  1  0  0  0  0
 61 73  1  0  0  0  0
 62 74  1  0  0  0  0
 64 66  1  0  0  0  0
M  CHG  1  74   1
M  ISO  4  42 100  60 101  71 100  82 101
M  END
> <Batch ID>
0081

> <Smiles>
CNC(C)C(=O)NC(C(=O)N1Cc2cc([101O:1][101CH2:1]C3=CN(c4ccc([100NH:0][100C:0](=O)N5CCCC(n6nc(-c7ccc(Oc8ccc(F)cc8F)cc7)c(C(N)=O)c6N)C5)cc4F)CC3=O)ccc2CC1C(=O)NC1CCCc2ccccc21)C(C)(C)C

> <Shape>
0.325

> <Color>
0.145

> <Negative vol penalty>
0.000

$$$$

  -OEChem-04052300043D

 87 96  0     1  0  0  0  0  0999 V2000
  -27.3255  -30.4567   12.1746 C   0  0  0  0  0  0  0  0  0  0  0  0
  -27.5132  -29.5035   13.1704 C   0  0  0  0  0  0  0  0  0  0  0  0
  -31.5876  -19.4010   19.5202 C   0  0  0  0  0  0  0  0  0  0  0  0
  -22.9811  -10.0838   19.9066 C   0  0  0  0  0  0  0  0  0  0  0  0
  -23.9098   -9.8078   22.1198 C   0  0  0  0  0  0  0  0  0  0  0  0
  -26.8055  -31.7090   12.4991 C   0  0  0  0  0  0  0  0  0  0  0  0
  -27.1819  -29.8025   14.4915 C   0  0  0  0  0  0  0  0  0  0  0  0
  -24.6451  -26.0494   16.7553 C   0  0  0  0  0  0  0  0  0  0  0  0
  -31.8181  -18.2643   20.2952 C   0  0  0  0  0  0  0  0  0  0  0  0
  -30.3887  -20.1021   19.6498 C   0  0  0  0  0  0  0  0  0  0  0  0
  -22.2153   -8.9316   20.0843 C   0  0  0  0  0  0  0  0  0  0  0  0
  -23.1440   -8.6556   22.2975 C   0  0  0  0  0  0  0  0  0  0  0  0
  -25.3873  -24.9549   17.1967 C   0  0  0  0  0  0  0  0  0  0  0  0
  -19.9422   -7.8879   23.0589 C   0  0  0  0  0  0  0  0  0  0  0  0
  -19.2738   -7.7368   24.2738 C   0  0  0  0  0  0  0  0  0  0  0  0
  -25.3458  -25.8393   19.4406 C   0  0  0  0  0  0  0  0  0  0  0  0
  -20.4932   -5.6931   24.6905 C   0  0  0  0  0  0  0  0  0  0  0  0
  -23.8284  -10.5219   20.9244 C   0  0  0  0  0  0  0  0  0  0  0  0
  -24.2548  -13.0334   21.0596 C   0  0  0  0  0  0  0  0  0  0  0  0
  -26.4586  -32.0201   13.8233 C   0  0  0  0  0  0  0  0  0  0  0  0
  -24.2564  -27.0544   17.6527 C   0  0  0  0  0  0  0  0  0  0  0  0
  -26.6580  -31.0606   14.8342 C   0  0  0  0  0  0  0  0  0  0  0  0
  -24.5965  -26.9443   19.0086 C   0  0  0  0  0  0  0  0  0  0  0  0
  -30.8496  -17.8287   21.1996 C   0  0  0  0  0  0  0  0  0  0  0  0
  -29.4203  -19.6665   20.5542 C   0  0  0  0  0  0  0  0  0  0  0  0
  -22.2966   -8.2175   21.2797 C   0  0  0  0  0  0  0  0  0  0  0  0
  -25.7403  -24.8511   18.5390 C   0  0  0  0  0  0  0  0  0  0  0  0
  -20.8860   -6.9415   22.6597 C   0  0  0  0  0  0  0  0  0  0  0  0
  -19.5493   -6.6394   25.0896 C   0  0  0  0  0  0  0  0  0  0  0  0
  -21.1616   -5.8442   23.4755 C   0  0  0  0  0  0  0  0  0  0  0  0
  -29.6507  -18.5298   21.3291 C   0  0  0  0  0  0  0  0  0  0  0  0
  -24.6202  -11.7117   20.7412 C   0  0  0  0  0  0  0  0  0  0  0  0
  -25.3441  -13.7875   20.6974 C   0  0  0  0  0  0  0  0  0  0  0  0
  -26.5347  -21.9081   20.4268 C   0  0  0  0  0  0  0  0  0  0  0  0
  -26.0826  -20.9761   21.4290 C   0  0  0  0  0  0  0  0  0  0  0  0
  -27.8932  -21.5227   19.9526 C   0  0  0  0  0  0  0  0  0  0  0  0
  -24.9241  -20.9725   22.0971 C   0  0  0  0  0  0  0  0  0  0  0  0
  -25.9153  -22.9788   19.9298 C   0  0  0  0  0  0  0  0  0  1  0  0
  -23.0393  -13.5346   21.6316 C   0  0  0  0  0  0  0  0  0  0  0  0
  -24.8367  -30.1679   17.9227 C   0  0  0  0  0  0  0  0  0  0  0  0
  -22.6573  -29.9701   20.3172 C   0  0  0  0  0  0  0  0  0  0  0  0
  -21.0749  -28.0368   22.6421 C   0  0  0  0  0  0  0  0  0  0  0  0
  -30.8609  -14.6200   20.5674 C   0  0  0  0  0  0  0  0  0  0  0  0
  -25.9440  -33.4036   14.1330 C   0  0  0  0  0  0  0  0  0  0  0  0
  -23.4331  -28.2152   17.1657 C   0  0  0  0  0  0  0  0  0  0  0  0
  -24.1863  -27.9859   20.0162 C   0  0  0  0  0  0  0  0  0  0  0  0
  -27.1721  -19.9629   21.6101 C   0  0  0  0  0  0  0  0  0  0  0  0
  -25.2680  -33.5107   15.4975 C   0  0  0  0  0  0  0  0  0  0  0  0
  -29.4597  -12.5564   18.0267 C   0  0  0  0  0  0  0  0  0  0  0  0
  -26.1175  -32.8340   16.5687 C   0  0  0  0  0  0  0  0  0  0  0  0
  -28.0486  -12.2569   18.5357 C   0  0  0  0  0  0  0  0  0  0  0  0
  -30.4715  -12.6126   19.1691 C   0  0  0  0  0  0  0  0  0  0  0  0
  -28.7074  -13.2356   20.7732 C   0  0  0  0  0  0  0  0  0  0  0  0
  -26.2875  -31.3386   16.2749 C   0  0  1  0  0  0  0  0  0  0  0  0
  -23.5312  -29.4389   18.0714 C   0  0  1  0  0  0  0  0  0  0  0  0
  -27.6421  -13.2243   19.6635 C   0  0  2  0  0  0  0  0  0  0  0  0
  -19.3713  -28.1644   24.4803 C   0  0  0  0  0  0  0  0  0  0  0  0
  -24.7233  -31.2848   22.1374 C   0  0  0  0  0  0  0  0  0  0  0  0
  -23.3696  -30.5292   24.1033 C   0  0  0  0  0  0  0  0  0  0  0  0
  -22.3836  -32.1123   22.4466 C   0  0  0  0  0  0  0  0  0  0  0  0
  -19.2811  -26.1238   21.2703 C   0  0  0  0  0  0  0  0  0  0  0  0
  -31.0995  -16.6130   22.0268 C   0  0  0  0  0  0  0  0  0  0  0  0
  -22.7200  -29.6915   21.7996 C   0  0  1  0  0  0  0  0  0  0  0  0
  -19.6072  -27.8934   23.0025 C   0  0  2  0  0  0  0  0  0  0  0  0
  -23.3087  -30.8856   22.6026 C   0  0  0  0  0  0  0  0  0  0  0  0
  -25.8458  -11.6276   20.2170 N   0  0  0  0  0  0  0  0  0  0  0  0
  -26.2599  -12.9061   20.2031 N   0  0  0  0  0  0  0  0  0  0  0  0
  -28.2258  -20.3682   20.6818 N   0  0  0  0  0  0  0  0  0  0  0  0
  -23.3877  -29.1052   19.4899 N   0  0  0  0  0  0  0  0  0  0  0  0
  -30.0276  -13.5490   20.2044 N   0  0  0  0  0  0  0  0  0  0  0  0
  -25.5982  -15.1120   20.7567 N   0  0  0  0  0  0  0  0  0  0  0  0
  -22.0221  -12.6225   21.9440 N   0  0  0  0  0  0  0  0  0  0  0  0
  -25.0897  -30.6126   16.6391 N   0  0  0  0  0  0  0  0  0  0  0  0
  -21.3704  -29.3092   22.2005 N   0  0  0  0  0  0  0  0  0  0  0  0
  -30.3615  -15.4638   21.5519 N   0  0  0  0  0  0  0  0  0  0  0  0
  -19.1306  -26.5152   22.6954 N   0  3  0  0  0  0  0  0  0  0  0  0
  -28.5502  -22.1078   19.1081 O   0  0  0  0  0  0  0  0  0  0  0  0
  -22.8543  -14.7570   21.8439 O   0  0  0  0  0  0  0  0  0  0  0  0
  -25.5601  -30.3172   18.9005 O   0  0  0  0  0  0  0  0  0  0  0  0
  -21.9793  -30.9158   19.9078 O   0  0  0  0  0  0  0  0  0  0  0  0
  -21.8794  -27.1135   22.7456 O   0  0  0  0  0  0  0  0  0  0  0  0
  -31.9656  -14.8131   20.0484 O   0  0  0  0  0  0  0  0  0  0  0  0
  -21.5493   -7.0933   21.4536 O   0  0  0  0  0  0  0  0  0  0  0  0
  -26.4652  -23.7842   18.9724 O   0  0  0  0  0  0  0  0  0  1  0  0
  -18.9086   -6.4953   26.2570 F   0  0  0  0  0  0  0  0  0  0  0  0
  -22.0682   -4.9324   23.0979 F   0  0  0  0  0  0  0  0  0  0  0  0
  -28.7204  -18.1109   22.2003 F   0  0  0  0  0  0  0  0  0  0  0  0
  1  2  1  0  0  0  0
  1  6  2  0  0  0  0
  2  7  2  0  0  0  0
  3  9  1  0  0  0  0
  3 10  2  0  0  0  0
  4 11  2  0  0  0  0
  4 18  1  0  0  0  0
  5 12  1  0  0  0  0
  5 18  2  0  0  0  0
  6 20  1  0  0  0  0
  7 22  1  0  0  0  0
  8 13  2  0  0  0  0
  8 21  1  0  0  0  0
  9 24  2  0  0  0  0
 10 25  1  0  0  0  0
 11 26  1  0  0  0  0
 12 26  2  0  0  0  0
 13 27  1  0  0  0  0
 14 15  2  0  0  0  0
 14 28  1  0  0  0  0
 15 29  1  0  0  0  0
 16 23  1  0  0  0  0
 16 27  2  0  0  0  0
 17 29  2  0  0  0  0
 17 30  1  0  0  0  0
 18 32  1  0  0  0  0
 19 32  1  0  0  0  0
 19 33  2  0  0  0  0
 19 39  1  0  0  0  0
 20 22  2  0  0  0  0
 20 44  1  0  0  0  0
 21 23  2  0  0  0  0
 21 45  1  0  0  0  0
 22 54  1  0  0  0  0
 23 46  1  0  0  0  0
 24 31  1  0  0  0  0
 24 62  1  0  0  0  0
 25 31  2  0  0  0  0
 25 68  1  0  0  0  0
 26 83  1  0  0  0  0
 27 84  1  0  0  0  0
 28 30  2  0  0  0  0
 28 83  1  0  0  0  0
 29 85  1  0  0  0  0
 30 86  1  0  0  0  0
 31 87  1  0  0  0  0
 32 66  2  0  0  0  0
 33 67  1  0  0  0  0
 33 71  1  0  0  0  0
 34 35  1  0  0  0  0
 34 36  1  0  0  0  0
 34 38  2  0  0  0  0
 35 37  2  0  0  0  0
 35 47  1  0  0  0  0
 36 68  1  0  0  0  0
 36 77  2  0  0  0  0
 38 84  1  0  0  0  0
 39 72  1  0  0  0  0
 39 78  2  0  0  0  0
 40 55  1  0  0  0  0
 40 73  1  0  0  0  0
 40 79  2  0  0  0  0
 41 63  1  0  0  0  0
 41 69  1  0  0  0  0
 41 80  2  0  0  0  0
 42 64  1  0  0  0  0
 42 74  1  0  0  0  0
 42 81  2  0  0  0  0
 43 70  1  0  0  0  0
 43 75  1  0  0  0  0
 43 82  2  0  0  0  0
 44 48  1  0  0  0  0
 45 55  1  0  0  0  0
 46 69  1  0  0  0  0
 47 68  1  0  0  0  0
 48 50  1  0  0  0  0
 49 51  1  0  0  0  0
 49 52  1  0  0  0  0
 50 54  1  0  0  0  0
 51 56  1  0  0  0  0
 52 70  1  0  0  0  0
 53 56  1  0  0  0  0
 53 70  1  0  0  0  0
 54 73  1  0  0  0  0
 55 69  1  0  0  0  0
 56 67  1  0  0  0  0
 57 64  1  0  0  0  0
 58 65  1  0  0  0  0
 59 65  1  0  0  0  0
 60 65  1  0  0  0  0
 61 76  1  0  0  0  0
 62 75  1  0  0  0  0
 63 65  1  0  0  0  0
 63 74  1  0  0  0  0
 64 76  1  0  0  0  0
 66 67  1  0  0  0  0
M  CHG  1  76   1
M  ISO  4  38 101  43 100  75 100  84 101
M  END
> <Batch ID>
0081

> <Smiles>
C=C1CN(c2cccc(C[100NH:0][100C:0](=O)N3CCCC(n4nc(-c5ccc(Oc6ccc(F)cc6F)cc5)c(C(N)=O)c4N)C3)c2F)C(=O)C1=[101CH:1][101O:1]c1ccc2c(c1)CN(C(=O)C(NC(=O)C(C)NC)C(C)(C)C)C(C(=O)NC1CCCc3ccccc31)C2

> <Shape>
0.329

> <Color>
0.214

> <Negative vol penalty>
0.000

$$$$

  -OEChem-04052300043D

 84 93  0     1  0  0  0  0  0999 V2000
  -27.3341  -37.7069   23.9876 C   0  0  0  0  0  0  0  0  0  0  0  0
  -27.9373  -36.7668   23.1584 C   0  0  0  0  0  0  0  0  0  0  0  0
  -24.1630   -9.2402   22.0647 C   0  0  0  0  0  0  0  0  0  0  0  0
  -22.8923  -11.2091   21.4768 C   0  0  0  0  0  0  0  0  0  0  0  0
  -26.4219  -37.2953   24.9583 C   0  0  0  0  0  0  0  0  0  0  0  0
  -27.6294  -35.4142   23.3001 C   0  0  0  0  0  0  0  0  0  0  0  0
  -26.9360  -29.4132   19.4500 C   0  0  0  0  0  0  0  0  0  0  0  0
  -28.5332  -19.7600   19.8523 C   0  0  0  0  0  0  0  0  0  0  0  0
  -28.7962  -18.3984   19.7020 C   0  0  0  0  0  0  0  0  0  0  0  0
  -23.2690   -8.9728   23.1014 C   0  0  0  0  0  0  0  0  0  0  0  0
  -21.9982  -10.9417   22.5135 C   0  0  0  0  0  0  0  0  0  0  0  0
  -27.3835  -28.0930   19.4231 C   0  0  0  0  0  0  0  0  0  0  0  0
  -20.1833   -7.6341   23.4465 C   0  0  0  0  0  0  0  0  0  0  0  0
  -19.7373   -6.3209   23.5952 C   0  0  0  0  0  0  0  0  0  0  0  0
  -25.7331  -27.5063   21.0818 C   0  0  0  0  0  0  0  0  0  0  0  0
  -26.2709  -19.4082   19.0805 C   0  0  0  0  0  0  0  0  0  0  0  0
  -20.6693   -6.2567   25.8233 C   0  0  0  0  0  0  0  0  0  0  0  0
  -23.9747  -10.3585   21.2524 C   0  0  0  0  0  0  0  0  0  0  0  0
  -24.8162  -10.1853   18.8504 C   0  0  0  0  0  0  0  0  0  0  0  0
  -26.0953  -35.9380   25.1056 C   0  0  0  0  0  0  0  0  0  0  0  0
  -25.8893  -29.7927   20.3024 C   0  0  0  0  0  0  0  0  0  0  0  0
  -26.7129  -34.9838   24.2746 C   0  0  0  0  0  0  0  0  0  0  0  0
  -25.2725  -28.8313   21.1158 C   0  0  0  0  0  0  0  0  0  0  0  0
  -27.2705  -20.2649   19.5415 C   0  0  0  0  0  0  0  0  0  0  0  0
  -27.7966  -17.5417   19.2410 C   0  0  0  0  0  0  0  0  0  0  0  0
  -26.5339  -18.0466   18.9302 C   0  0  0  0  0  0  0  0  0  0  0  0
  -22.1866   -9.8235   23.3258 C   0  0  0  0  0  0  0  0  0  0  0  0
  -26.7839  -27.1399   20.2412 C   0  0  0  0  0  0  0  0  0  0  0  0
  -20.8724   -8.2586   24.4861 C   0  0  0  0  0  0  0  0  0  0  0  0
  -19.9802   -5.6322   24.7836 C   0  0  0  0  0  0  0  0  0  0  0  0
  -21.1153   -7.5699   25.6745 C   0  0  0  0  0  0  0  0  0  0  0  0
  -24.8983  -10.6356   20.1817 C   0  0  0  0  0  0  0  0  0  0  0  0
  -25.9242  -10.7188   18.2387 C   0  0  0  0  0  0  0  0  0  0  0  0
  -26.6461  -23.5712   19.8078 C   0  0  0  0  0  0  0  0  0  0  0  0
  -25.9028  -22.3568   19.4696 C   0  0  0  0  0  0  0  0  0  0  0  0
  -26.3272  -24.8770   19.8653 C   0  0  0  0  0  0  0  0  0  1  0  0
  -23.8269   -9.3589   18.2229 C   0  0  0  0  0  0  0  0  0  0  0  0
  -25.6022  -31.8107   22.7415 C   0  0  0  0  0  0  0  0  0  0  0  0
  -22.4654  -31.0126   22.5266 C   0  0  0  0  0  0  0  0  0  0  0  0
  -20.1139  -28.7452   21.5388 C   0  0  0  0  0  0  0  0  0  0  0  0
  -29.2958  -15.5212   19.3676 C   0  0  0  0  0  0  0  0  0  0  0  0
  -25.1391  -35.5361   26.2005 C   0  0  0  0  0  0  0  0  0  0  0  0
  -25.4005  -31.2152   20.3000 C   0  0  0  0  0  0  0  0  0  0  0  0
  -24.1316  -29.1833   22.0338 C   0  0  0  0  0  0  0  0  0  0  0  0
  -27.8728  -22.7211   20.0467 C   0  0  0  0  0  0  0  0  0  0  0  0
  -24.5849  -34.1231   26.0368 C   0  0  0  0  0  0  0  0  0  0  0  0
  -30.3996  -12.1414   19.1773 C   0  0  0  0  0  0  0  0  0  0  0  0
  -25.7073  -33.1444   25.7067 C   0  0  0  0  0  0  0  0  0  0  0  0
  -29.1060  -11.3309   19.2860 C   0  0  0  0  0  0  0  0  0  0  0  0
  -30.3642  -13.3873   20.0606 C   0  0  0  0  0  0  0  0  0  0  0  0
  -27.9029  -13.4450   19.9716 C   0  0  0  0  0  0  0  0  0  0  0  0
  -26.3861  -33.5101   24.3811 C   0  0  1  0  0  0  0  0  0  0  0  0
  -24.6692  -31.5979   21.5830 C   0  0  1  0  0  0  0  0  0  0  0  0
  -27.8656  -12.2149   19.0502 C   0  0  2  0  0  0  0  0  0  0  0  0
  -17.6351  -28.3542   21.5315 C   0  0  0  0  0  0  0  0  0  0  0  0
  -22.5704  -30.3078   25.4934 C   0  0  0  0  0  0  0  0  0  0  0  0
  -20.4186  -29.0617   25.2022 C   0  0  0  0  0  0  0  0  0  0  0  0
  -20.5015  -31.5191   24.7816 C   0  0  0  0  0  0  0  0  0  0  0  0
  -20.0198  -28.6545   18.5821 C   0  0  0  0  0  0  0  0  0  0  0  0
  -21.5907  -29.9420   23.1328 C   0  0  1  0  0  0  0  0  0  0  0  0
  -18.8218  -28.9089   20.7590 C   0  0  2  0  0  0  0  0  0  0  0  0
  -21.2931  -30.2011   24.6367 C   0  0  0  0  0  0  0  0  0  0  0  0
  -25.9735  -11.3963   20.4034 N   0  0  0  0  0  0  0  0  0  0  0  0
  -26.5773  -11.4282   19.2032 N   0  0  0  0  0  0  0  0  0  0  0  0
  -27.0114  -21.6077   19.6900 N   0  0  0  0  0  0  0  0  0  0  0  0
  -23.6938  -30.5886   22.0002 N   0  0  0  0  0  0  0  0  0  0  0  0
  -29.1640  -14.1779   19.7789 N   0  0  0  0  0  0  0  0  0  0  0  0
  -25.5068  -17.1966   18.4620 N   0  0  0  0  0  0  0  0  0  0  0  0
  -26.3939  -10.6454   16.9751 N   0  0  0  0  0  0  0  0  0  0  0  0
  -22.7538   -8.8966   18.9969 N   0  0  0  0  0  0  0  0  0  0  0  0
  -28.0875  -16.1625   19.0969 N   0  0  0  0  0  0  0  0  0  0  0  0
  -25.5695  -33.0901   23.2625 N   0  0  0  0  0  0  0  0  0  0  0  0
  -20.4004  -29.8633   22.2930 N   0  0  0  0  0  0  0  0  0  0  0  0
  -18.9096  -28.1931   19.4548 N   0  3  0  0  0  0  0  0  0  0  0  0
  -24.7664  -22.1133   19.1208 O   0  0  0  0  0  0  0  0  0  0  0  0
  -23.9012   -9.0263   17.0157 O   0  0  0  0  0  0  0  0  0  0  0  0
  -26.2990  -30.8824   23.1345 O   0  0  0  0  0  0  0  0  0  0  0  0
  -22.0701  -32.1811   22.5139 O   0  0  0  0  0  0  0  0  0  0  0  0
  -20.7986  -27.7258   21.4870 O   0  0  0  0  0  0  0  0  0  0  0  0
  -30.4006  -16.0545   19.2370 O   0  0  0  0  0  0  0  0  0  0  0  0
  -21.3139   -9.5626   24.3372 O   0  0  0  0  0  0  0  0  0  0  0  0
  -27.2191  -25.8508   20.2175 O   0  0  0  0  0  0  0  0  0  1  0  0
  -19.5505   -4.3716   24.9269 F   0  0  0  0  0  0  0  0  0  0  0  0
  -21.7758   -8.1650   26.6773 F   0  0  0  0  0  0  0  0  0  0  0  0
  1  2  1  0  0  0  0
  1  5  2  0  0  0  0
  2  6  2  0  0  0  0
  3 10  2  0  0  0  0
  3 18  1  0  0  0  0
  4 11  1  0  0  0  0
  4 18  2  0  0  0  0
  5 20  1  0  0  0  0
  6 22  1  0  0  0  0
  7 12  2  0  0  0  0
  7 21  1  0  0  0  0
  8  9  2  0  0  0  0
  8 24  1  0  0  0  0
  9 25  1  0  0  0  0
 10 27  1  0  0  0  0
 11 27  2  0  0  0  0
 12 28  1  0  0  0  0
 13 14  2  0  0  0  0
 13 29  1  0  0  0  0
 14 30  1  0  0  0  0
 15 23  1  0  0  0  0
 15 28  2  0  0  0  0
 16 24  2  0  0  0  0
 16 26  1  0  0  0  0
 17 30  2  0  0  0  0
 17 31  1  0  0  0  0
 18 32  1  0  0  0  0
 19 32  1  0  0  0  0
 19 33  2  0  0  0  0
 19 37  1  0  0  0  0
 20 22  2  0  0  0  0
 20 42  1  0  0  0  0
 21 23  2  0  0  0  0
 21 43  1  0  0  0  0
 22 52  1  0  0  0  0
 23 44  1  0  0  0  0
 24 65  1  0  0  0  0
 25 26  2  0  0  0  0
 25 71  1  0  0  0  0
 26 68  1  0  0  0  0
 27 81  1  0  0  0  0
 28 82  1  0  0  0  0
 29 31  2  0  0  0  0
 29 81  1  0  0  0  0
 30 83  1  0  0  0  0
 31 84  1  0  0  0  0
 32 63  2  0  0  0  0
 33 64  1  0  0  0  0
 33 69  1  0  0  0  0
 34 35  1  0  0  0  0
 34 36  2  0  0  0  0
 34 45  1  0  0  0  0
 35 65  1  0  0  0  0
 35 75  2  0  0  0  0
 36 82  1  0  0  0  0
 37 70  1  0  0  0  0
 37 76  2  0  0  0  0
 38 53  1  0  0  0  0
 38 72  1  0  0  0  0
 38 77  2  0  0  0  0
 39 60  1  0  0  0  0
 39 66  1  0  0  0  0
 39 78  2  0  0  0  0
 40 61  1  0  0  0  0
 40 73  1  0  0  0  0
 40 79  2  0  0  0  0
 41 67  1  0  0  0  0
 41 71  1  0  0  0  0
 41 80  2  0  0  0  0
 42 46  1  0  0  0  0
 43 53  1  0  0  0  0
 44 66  1  0  0  0  0
 45 65  1  0  0  0  0
 46 48  1  0  0  0  0
 47 49  1  0  0  0  0
 47 50  1  0  0  0  0
 48 52  1  0  0  0  0
 49 54  1  0  0  0  0
 50 67  1  0  0  0  0
 51 54  1  0  0  0  0
 51 67  1  0  0  0  0
 52 72  1  0  0  0  0
 53 66  1  0  0  0  0
 54 64  1  0  0  0  0
 55 61  1  0  0  0  0
 56 62  1  0  0  0  0
 57 62  1  0  0  0  0
 58 62  1  0  0  0  0
 59 74  1  0  0  0  0
 60 62  1  0  0  0  0
 60 73  1  0  0  0  0
 61 74  1  0  0  0  0
 63 64  1  0  0  0  0
M  CHG  1  74   1
M  ISO  4  36 101  41 100  71 100  82 101
M  END
> <Batch ID>
0081

> <Smiles>
CNC(C)C(=O)NC(C(=O)N1Cc2cc([101O:1][101CH:1]=C3CN(c4ccc([100NH:0][100C:0](=O)N5CCCC(n6nc(-c7ccc(Oc8ccc(F)cc8F)cc7)c(C(N)=O)c6N)C5)c(N)c4)C3=O)ccc2CC1C(=O)NC1CCCc2ccccc21)C(C)(C)C

> <Shape>
0.290

> <Color>
0.084

> <Negative vol penalty>
0.000

$$$$

  -OEChem-04052300043D

 85 93  0     1  0  0  0  0  0999 V2000
  -21.4617  -34.3463   15.6397 C   0  0  0  0  0  0  0  0  0  0  0  0
  -22.3235  -33.2544   15.6628 C   0  0  0  0  0  0  0  0  0  0  0  0
  -32.7986  -20.0577   23.0275 C   0  0  0  0  0  0  0  0  0  0  0  0
  -23.1996  -10.3297   20.0937 C   0  0  0  0  0  0  0  0  0  0  0  0
  -23.1974  -10.5147   22.5027 C   0  0  0  0  0  0  0  0  0  0  0  0
  -31.8137  -19.1475   23.4110 C   0  0  0  0  0  0  0  0  0  0  0  0
  -21.4844  -35.2729   16.6813 C   0  0  0  0  0  0  0  0  0  0  0  0
  -23.2092  -33.0891   16.7270 C   0  0  0  0  0  0  0  0  0  0  0  0
  -25.0448  -27.7959   19.2007 C   0  0  0  0  0  0  0  0  0  0  0  0
  -32.4449  -21.2218   22.3452 C   0  0  0  0  0  0  0  0  0  0  0  0
  -23.2727   -8.9409   20.2004 C   0  0  0  0  0  0  0  0  0  0  0  0
  -23.2704   -9.1259   22.6094 C   0  0  0  0  0  0  0  0  0  0  0  0
  -26.1943  -27.0270   19.0246 C   0  0  0  0  0  0  0  0  0  0  0  0
  -21.1624   -6.4961   22.3624 C   0  0  0  0  0  0  0  0  0  0  0  0
  -20.3220   -5.8735   23.2852 C   0  0  0  0  0  0  0  0  0  0  0  0
  -30.1213  -20.5654   22.4299 C   0  0  0  0  0  0  0  0  0  0  0  0
  -27.1795  -28.0663   20.9658 C   0  0  0  0  0  0  0  0  0  0  0  0
  -22.2491   -4.9874   24.4422 C   0  0  0  0  0  0  0  0  0  0  0  0
  -23.1621  -11.1167   21.2449 C   0  0  0  0  0  0  0  0  0  0  0  0
  -30.4751  -19.4014   23.1122 C   0  0  0  0  0  0  0  0  0  0  0  0
  -21.9224  -13.3397   21.0739 C   0  0  0  0  0  0  0  0  0  0  0  0
  -22.3641  -35.1136   17.7635 C   0  0  0  0  0  0  0  0  0  0  0  0
  -24.9581  -28.7152   20.2560 C   0  0  0  0  0  0  0  0  0  0  0  0
  -23.2446  -34.0151   17.7833 C   0  0  0  0  0  0  0  0  0  0  0  0
  -26.0268  -28.8438   21.1546 C   0  0  0  0  0  0  0  0  0  0  0  0
  -31.1063  -21.4757   22.0464 C   0  0  0  0  0  0  0  0  0  0  0  0
  -23.3081   -8.3390   21.4582 C   0  0  0  0  0  0  0  0  0  0  0  0
  -27.2631  -27.1642   19.9055 C   0  0  0  0  0  0  0  0  0  0  0  0
  -22.5461   -6.3644   22.4793 C   0  0  0  0  0  0  0  0  0  0  0  0
  -20.8654   -5.1192   24.3252 C   0  0  0  0  0  0  0  0  0  0  0  0
  -23.0894   -5.6100   23.5192 C   0  0  0  0  0  0  0  0  0  0  0  0
  -23.0872  -12.5514   21.1353 C   0  0  0  0  0  0  0  0  0  0  0  0
  -22.3852  -14.6291   20.9762 C   0  0  0  0  0  0  0  0  0  0  0  0
  -28.4499  -25.1999   20.3570 C   0  0  0  0  0  0  0  0  0  1  0  0
  -29.4307  -18.4379   23.5186 C   0  0  0  0  0  0  0  0  0  0  0  0
  -20.5452  -12.9418   21.1027 C   0  0  0  0  0  0  0  0  0  0  0  0
  -29.5050  -24.3822   20.2590 C   0  0  0  0  0  0  0  0  0  0  0  0
  -29.4760  -23.0676   20.9795 C   0  0  0  0  0  0  0  0  0  0  0  0
  -24.6123  -31.8683   20.4616 C   0  0  0  0  0  0  0  0  0  0  0  0
  -24.3823  -31.2446   23.6366 C   0  0  0  0  0  0  0  0  0  0  0  0
  -25.0926  -29.1517   26.2370 C   0  0  0  0  0  0  0  0  0  0  0  0
  -27.6122  -16.9241   22.7582 C   0  0  0  0  0  0  0  0  0  0  0  0
  -22.3852  -36.1668   18.8429 C   0  0  0  0  0  0  0  0  0  0  0  0
  -23.7006  -29.5179   20.4481 C   0  0  0  0  0  0  0  0  0  0  0  0
  -25.9757  -29.8018   22.3157 C   0  0  0  0  0  0  0  0  0  0  0  0
  -23.0924  -35.7172   20.1189 C   0  0  0  0  0  0  0  0  0  0  0  0
  -26.0731  -17.1909   19.3941 C   0  0  0  0  0  0  0  0  0  0  0  0
  -24.4199  -35.0442   19.7847 C   0  0  0  0  0  0  0  0  0  0  0  0
  -25.0783  -16.0364   19.4431 C   0  0  0  0  0  0  0  0  0  0  0  0
  -27.3263  -16.9092   20.2218 C   0  0  0  0  0  0  0  0  0  0  0  0
  -26.0263  -15.3784   21.6856 C   0  0  0  0  0  0  0  0  0  0  0  0
  -24.2025  -33.7879   18.9327 C   0  0  1  0  0  0  0  0  0  0  0  0
  -23.9234  -30.7937   21.2543 C   0  0  1  0  0  0  0  0  0  0  0  0
  -24.7429  -15.6797   20.8983 C   0  0  2  0  0  0  0  0  0  0  0  0
  -24.8081  -28.9285   28.7203 C   0  0  0  0  0  0  0  0  0  0  0  0
  -26.6006  -33.2938   24.0725 C   0  0  0  0  0  0  0  0  0  0  0  0
  -26.9232  -32.3525   26.3699 C   0  0  0  0  0  0  0  0  0  0  0  0
  -24.7443  -33.3941   25.7454 C   0  0  0  0  0  0  0  0  0  0  0  0
  -23.5195  -26.6614   25.9497 C   0  0  0  0  0  0  0  0  0  0  0  0
  -25.3630  -31.1410   24.7796 C   0  0  1  0  0  0  0  0  0  0  0  0
  -24.2240  -28.6028   27.3545 C   0  0  2  0  0  0  0  0  0  0  0  0
  -25.9098  -32.5286   25.2189 C   0  0  0  0  0  0  0  0  0  0  0  0
  -24.2058  -13.2793   21.0809 N   0  0  0  0  0  0  0  0  0  0  0  0
  -23.7460  -14.5384   20.9843 N   0  0  0  0  0  0  0  0  0  0  0  0
  -24.7271  -30.5689   22.4575 N   0  0  0  0  0  0  0  0  0  0  0  0
  -27.0005  -16.4706   21.5858 N   0  0  0  0  0  0  0  0  0  0  0  0
  -21.7568  -15.8204   20.8848 N   0  0  0  0  0  0  0  0  0  0  0  0
  -20.2462  -11.5765   21.2066 N   0  0  0  0  0  0  0  0  0  0  0  0
  -30.7482  -22.6574   21.3539 N   0  0  0  0  0  0  0  0  0  0  0  0
  -28.6772  -17.8829   22.5567 N   0  0  0  0  0  0  0  0  0  0  0  0
  -23.7509  -32.6889   19.7588 N   0  0  0  0  0  0  0  0  0  0  0  0
  -24.6799  -30.4055   25.8382 N   0  0  0  0  0  0  0  0  0  0  0  0
  -29.2988  -18.1840   24.8204 N   0  3  0  0  0  0  0  0  0  0  0  0
  -24.1022  -27.1223   27.2362 N   0  3  0  0  0  0  0  0  0  0  0  0
  -19.6076  -13.7712   21.0218 O   0  0  0  0  0  0  0  0  0  0  0  0
  -28.4173  -22.4815   21.1786 O   0  0  0  0  0  0  0  0  0  0  0  0
  -25.8349  -31.9480   20.4870 O   0  0  0  0  0  0  0  0  0  0  0  0
  -23.3450  -31.8951   23.7869 O   0  0  0  0  0  0  0  0  0  0  0  0
  -26.0445  -28.5320   25.7676 O   0  0  0  0  0  0  0  0  0  0  0  0
  -27.3372  -16.5553   23.8950 O   0  0  0  0  0  0  0  0  0  0  0  0
  -30.6242  -24.7005   19.5168 O   0  0  0  0  0  0  0  0  0  0  0  0
  -23.3791   -6.9837   21.5627 O   0  0  0  0  0  0  0  0  0  0  0  0
  -28.3866  -26.4154   19.7355 O   0  0  0  0  0  0  0  0  0  1  0  0
  -20.0583   -4.5226   25.2122 F   0  0  0  0  0  0  0  0  0  0  0  0
  -24.4180   -5.4808   23.6374 F   0  0  0  0  0  0  0  0  0  0  0  0
  1  2  1  0  0  0  0
  1  7  2  0  0  0  0
  2  8  2  0  0  0  0
  3  6  1  0  0  0  0
  3 10  2  0  0  0  0
  4 11  2  0  0  0  0
  4 19  1  0  0  0  0
  5 12  1  0  0  0  0
  5 19  2  0  0  0  0
  6 20  2  0  0  0  0
  7 22  1  0  0  0  0
  8 24  1  0  0  0  0
  9 13  2  0  0  0  0
  9 23  1  0  0  0  0
 10 26  1  0  0  0  0
 11 27  1  0  0  0  0
 12 27  2  0  0  0  0
 13 28  1  0  0  0  0
 14 15  2  0  0  0  0
 14 29  1  0  0  0  0
 15 30  1  0  0  0  0
 16 20  1  0  0  0  0
 16 26  2  0  0  0  0
 17 25  1  0  0  0  0
 17 28  2  0  0  0  0
 18 30  2  0  0  0  0
 18 31  1  0  0  0  0
 19 32  1  0  0  0  0
 20 35  1  0  0  0  0
 21 32  1  0  0  0  0
 21 33  2  0  0  0  0
 21 36  1  0  0  0  0
 22 24  2  0  0  0  0
 22 43  1  0  0  0  0
 23 25  2  0  0  0  0
 23 44  1  0  0  0  0
 24 52  1  0  0  0  0
 25 45  1  0  0  0  0
 26 69  1  0  0  0  0
 27 82  1  0  0  0  0
 28 83  1  0  0  0  0
 29 31  2  0  0  0  0
 29 82  1  0  0  0  0
 30 84  1  0  0  0  0
 31 85  1  0  0  0  0
 32 63  2  0  0  0  0
 33 64  1  0  0  0  0
 33 67  1  0  0  0  0
 34 37  2  0  0  0  0
 34 83  1  0  0  0  0
 35 70  1  0  0  0  0
 35 73  2  0  0  0  0
 36 68  1  0  0  0  0
 36 75  2  0  0  0  0
 37 38  1  0  0  0  0
 37 81  1  0  0  0  0
 38 69  1  0  0  0  0
 38 76  2  0  0  0  0
 39 53  1  0  0  0  0
 39 71  1  0  0  0  0
 39 77  2  0  0  0  0
 40 60  1  0  0  0  0
 40 65  1  0  0  0  0
 40 78  2  0  0  0  0
 41 61  1  0  0  0  0
 41 72  1  0  0  0  0
 41 79  2  0  0  0  0
 42 66  1  0  0  0  0
 42 70  1  0  0  0  0
 42 80  2  0  0  0  0
 43 46  1  0  0  0  0
 44 53  1  0  0  0  0
 45 65  1  0  0  0  0
 46 48  1  0  0  0  0
 47 49  1  0  0  0  0
 47 50  1  0  0  0  0
 48 52  1  0  0  0  0
 49 54  1  0  0  0  0
 50 66  1  0  0  0  0
 51 54  1  0  0  0  0
 51 66  1  0  0  0  0
 52 71  1  0  0  0  0
 53 65  1  0  0  0  0
 54 64  1  0  0  0  0
 55 61  1  0  0  0  0
 56 62  1  0  0  0  0
 57 62  1  0  0  0  0
 58 62  1  0  0  0  0
 59 74  1  0  0  0  0
 60 62  1  0  0  0  0
 60 72  1  0  0  0  0
 61 74  1  0  0  0  0
 63 64  1  0  0  0  0
M  CHG  2  73   1  74   1
M  ISO  4  34 101  42 100  70 100  83 101
M  END
> <Batch ID>
0081

> <Smiles>
CNC(C)C(=O)NC(C(=O)N1Cc2cc([101O:1][101CH2:1]C(=O)C(=O)Nc3cccc(C(=N)[100NH:0][100C:0](=O)N4CCCC(n5nc(-c6ccc(Oc7ccc(F)cc7F)cc6)c(C(N)=O)c5N)C4)c3)ccc2CC1C(=O)NC1CCCc2ccccc21)C(C)(C)C

> <Shape>
0.252

> <Color>
0.097

> <Negative vol penalty>
0.000

$$$$

  -OEChem-04052300043D

 85 94  0     1  0  0  0  0  0999 V2000
  -37.4384  -33.1663   26.7712 C   0  0  0  0  0  0  0  0  0  0  0  0
  -37.1285  -31.9946   26.0883 C   0  0  0  0  0  0  0  0  0  0  0  0
  -23.2092   -9.7119   19.9476 C   0  0  0  0  0  0  0  0  0  0  0  0
  -23.7602   -9.9031   22.2921 C   0  0  0  0  0  0  0  0  0  0  0  0
  -36.4406  -33.8558   27.4588 C   0  0  0  0  0  0  0  0  0  0  0  0
  -35.8206  -31.5111   26.0935 C   0  0  0  0  0  0  0  0  0  0  0  0
  -32.9552  -28.5958   21.5331 C   0  0  0  0  0  0  0  0  0  0  0  0
  -31.3769  -18.9952   23.2488 C   0  0  0  0  0  0  0  0  0  0  0  0
  -30.4814  -19.1713   21.0118 C   0  0  0  0  0  0  0  0  0  0  0  0
  -31.1651  -17.6168   23.2251 C   0  0  0  0  0  0  0  0  0  0  0  0
  -30.2696  -17.7928   20.9881 C   0  0  0  0  0  0  0  0  0  0  0  0
  -22.4706   -8.5593   20.2151 C   0  0  0  0  0  0  0  0  0  0  0  0
  -23.0215   -8.7506   22.5597 C   0  0  0  0  0  0  0  0  0  0  0  0
  -32.7215  -27.2441   21.2844 C   0  0  0  0  0  0  0  0  0  0  0  0
  -19.7701   -7.9086   22.9333 C   0  0  0  0  0  0  0  0  0  0  0  0
  -18.9123   -7.9312   24.0329 C   0  0  0  0  0  0  0  0  0  0  0  0
  -30.5363  -27.4437   22.2865 C   0  0  0  0  0  0  0  0  0  0  0  0
  -20.1236   -6.0862   25.0157 C   0  0  0  0  0  0  0  0  0  0  0  0
  -23.8541  -10.3838   20.9860 C   0  0  0  0  0  0  0  0  0  0  0  0
  -24.1516  -12.9025   20.7116 C   0  0  0  0  0  0  0  0  0  0  0  0
  -35.1179  -33.3857   27.4644 C   0  0  0  0  0  0  0  0  0  0  0  0
  -31.9839  -29.3805   22.1712 C   0  0  0  0  0  0  0  0  0  0  0  0
  -34.8043  -32.1942   26.7829 C   0  0  0  0  0  0  0  0  0  0  0  0
  -30.7591  -28.8058   22.5398 C   0  0  0  0  0  0  0  0  0  0  0  0
  -31.0350  -19.7725   22.1422 C   0  0  0  0  0  0  0  0  0  0  0  0
  -30.6115  -17.0156   22.0948 C   0  0  0  0  0  0  0  0  0  0  0  0
  -22.3767   -8.0787   21.5212 C   0  0  0  0  0  0  0  0  0  0  0  0
  -31.5131  -26.6671   21.6638 C   0  0  0  0  0  0  0  0  0  0  0  0
  -20.8046   -6.9748   22.8748 C   0  0  0  0  0  0  0  0  0  0  0  0
  -19.0890   -7.0200   25.0742 C   0  0  0  0  0  0  0  0  0  0  0  0
  -20.9814   -6.0636   23.9160 C   0  0  0  0  0  0  0  0  0  0  0  0
  -24.6177  -11.5741   20.7102 C   0  0  0  0  0  0  0  0  0  0  0  0
  -25.2557  -13.6541   20.3916 C   0  0  0  0  0  0  0  0  0  0  0  0
  -31.4640  -23.1186   22.2538 C   0  0  0  0  0  0  0  0  0  0  0  0
  -31.7528  -21.9650   23.1066 C   0  0  0  0  0  0  0  0  0  0  0  0
  -29.4821  -15.3849   24.2715 C   0  0  0  0  0  0  0  0  0  0  0  0
  -31.6440  -24.4455   22.3837 C   0  0  0  0  0  0  0  0  0  1  0  0
  -30.1186  -14.8628   23.2208 C   0  0  0  0  0  0  0  0  0  0  0  0
  -22.8380  -13.4115   20.9783 C   0  0  0  0  0  0  0  0  0  0  0  0
  -31.8554  -31.0162   24.8937 C   0  0  0  0  0  0  0  0  0  0  0  0
  -28.9875  -31.9815   23.7251 C   0  0  0  0  0  0  0  0  0  0  0  0
  -26.3464  -31.3634   21.6541 C   0  0  0  0  0  0  0  0  0  0  0  0
  -30.6163  -14.8789   20.8591 C   0  0  0  0  0  0  0  0  0  0  0  0
  -34.0828  -34.1398   28.2611 C   0  0  0  0  0  0  0  0  0  0  0  0
  -32.2408  -30.8434   22.4082 C   0  0  0  0  0  0  0  0  0  0  0  0
  -29.6756  -29.6096   23.2095 C   0  0  0  0  0  0  0  0  0  0  0  0
  -30.8978  -22.1759   21.2169 C   0  0  0  0  0  0  0  0  0  0  0  0
  -32.6469  -33.7625   27.9058 C   0  0  0  0  0  0  0  0  0  0  0  0
  -29.8017  -12.2796   18.6753 C   0  0  0  0  0  0  0  0  0  0  0  0
  -32.4950  -32.2463   27.8365 C   0  0  0  0  0  0  0  0  0  0  0  0
  -28.3440  -11.9619   19.0073 C   0  0  0  0  0  0  0  0  0  0  0  0
  -30.5994  -12.5734   19.9406 C   0  0  0  0  0  0  0  0  0  0  0  0
  -28.5709  -13.3752   21.1094 C   0  0  0  0  0  0  0  0  0  0  0  0
  -33.3923  -31.6513   26.7445 C   0  0  1  0  0  0  0  0  0  0  0  0
  -31.3840  -31.4270   23.5274 C   0  0  1  0  0  0  0  0  0  0  0  0
  -27.7161  -13.0777   19.8610 C   0  0  2  0  0  0  0  0  0  0  0  0
  -24.1357  -32.3147   20.9433 C   0  0  0  0  0  0  0  0  0  0  0  0
  -27.7447  -31.0492   26.3511 C   0  0  0  0  0  0  0  0  0  0  0  0
  -25.5033  -31.1308   25.2386 C   0  0  0  0  0  0  0  0  0  0  0  0
  -26.8484  -33.2172   25.4845 C   0  0  0  0  0  0  0  0  0  0  0  0
  -27.2274  -31.6126   18.8397 C   0  0  0  0  0  0  0  0  0  0  0  0
  -27.5708  -31.4669   23.8092 C   0  0  1  0  0  0  0  0  0  0  0  0
  -25.6262  -32.2447   20.6496 C   0  0  2  0  0  0  0  0  0  0  0  0
  -26.9378  -31.7001   25.2100 C   0  0  0  0  0  0  0  0  0  0  0  0
  -25.9167  -11.4838   20.4128 N   0  0  0  0  0  0  0  0  0  0  0  0
  -26.2762  -12.7649   20.2242 N   0  0  0  0  0  0  0  0  0  0  0  0
  -31.2435  -21.1320   22.1655 N   0  0  0  0  0  0  0  0  0  0  0  0
  -29.9770  -31.0344   23.4253 N   0  0  0  0  0  0  0  0  0  0  0  0
  -29.9684  -13.6346   20.7260 N   0  0  0  0  0  0  0  0  0  0  0  0
  -25.4435  -14.9824   20.2399 N   0  0  0  0  0  0  0  0  0  0  0  0
  -21.8195  -12.5010   21.2912 N   0  0  0  0  0  0  0  0  0  0  0  0
  -32.8048  -31.8597   25.4384 N   0  0  0  0  0  0  0  0  0  0  0  0
  -26.8425  -32.0951   22.7122 N   0  0  0  0  0  0  0  0  0  0  0  0
  -30.3914  -15.5842   22.0699 N   0  0  0  0  0  0  0  0  0  0  0  0
  -25.8088  -31.7130   19.2694 N   0  3  0  0  0  0  0  0  0  0  0  0
  -32.2358  -21.8099   24.2089 O   0  0  0  0  0  0  0  0  0  0  0  0
  -22.5715  -14.6360   20.9243 O   0  0  0  0  0  0  0  0  0  0  0  0
  -31.3912  -30.0094   25.4156 O   0  0  0  0  0  0  0  0  0  0  0  0
  -29.2073  -33.1810   23.9112 O   0  0  0  0  0  0  0  0  0  0  0  0
  -26.4545  -30.1469   21.5159 O   0  0  0  0  0  0  0  0  0  0  0  0
  -31.3596  -15.3237   19.9749 O   0  0  0  0  0  0  0  0  0  0  0  0
  -21.6559   -6.9542   21.7827 O   0  0  0  0  0  0  0  0  0  0  0  0
  -31.2826  -25.3477   21.4228 O   0  0  0  0  0  0  0  0  0  1  0  0
  -18.2662   -7.0428   26.1308 F   0  0  0  0  0  0  0  0  0  0  0  0
  -21.9742   -5.1649   23.8660 F   0  0  0  0  0  0  0  0  0  0  0  0
  1  2  1  0  0  0  0
  1  5  2  0  0  0  0
  2  6  2  0  0  0  0
  3 12  2  0  0  0  0
  3 19  1  0  0  0  0
  4 13  1  0  0  0  0
  4 19  2  0  0  0  0
  5 21  1  0  0  0  0
  6 23  1  0  0  0  0
  7 14  2  0  0  0  0
  7 22  1  0  0  0  0
  8 10  2  0  0  0  0
  8 25  1  0  0  0  0
  9 11  1  0  0  0  0
  9 25  2  0  0  0  0
 10 26  1  0  0  0  0
 11 26  2  0  0  0  0
 12 27  1  0  0  0  0
 13 27  2  0  0  0  0
 14 28  1  0  0  0  0
 15 16  2  0  0  0  0
 15 29  1  0  0  0  0
 16 30  1  0  0  0  0
 17 24  1  0  0  0  0
 17 28  2  0  0  0  0
 18 30  2  0  0  0  0
 18 31  1  0  0  0  0
 19 32  1  0  0  0  0
 20 32  1  0  0  0  0
 20 33  2  0  0  0  0
 20 39  1  0  0  0  0
 21 23  2  0  0  0  0
 21 44  1  0  0  0  0
 22 24  2  0  0  0  0
 22 45  1  0  0  0  0
 23 54  1  0  0  0  0
 24 46  1  0  0  0  0
 25 67  1  0  0  0  0
 26 74  1  0  0  0  0
 27 82  1  0  0  0  0
 28 83  1  0  0  0  0
 29 31  2  0  0  0  0
 29 82  1  0  0  0  0
 30 84  1  0  0  0  0
 31 85  1  0  0  0  0
 32 65  2  0  0  0  0
 33 66  1  0  0  0  0
 33 70  1  0  0  0  0
 34 35  1  0  0  0  0
 34 37  2  0  0  0  0
 34 47  1  0  0  0  0
 35 67  1  0  0  0  0
 35 76  2  0  0  0  0
 36 38  2  0  0  0  0
 37 83  1  0  0  0  0
 38 74  1  0  0  0  0
 39 71  1  0  0  0  0
 39 77  2  0  0  0  0
 40 55  1  0  0  0  0
 40 72  1  0  0  0  0
 40 78  2  0  0  0  0
 41 62  1  0  0  0  0
 41 68  1  0  0  0  0
 41 79  2  0  0  0  0
 42 63  1  0  0  0  0
 42 73  1  0  0  0  0
 42 80  2  0  0  0  0
 43 69  1  0  0  0  0
 43 74  1  0  0  0  0
 43 81  2  0  0  0  0
 44 48  1  0  0  0  0
 45 55  1  0  0  0  0
 46 68  1  0  0  0  0
 47 67  1  0  0  0  0
 48 50  1  0  0  0  0
 49 51  1  0  0  0  0
 49 52  1  0  0  0  0
 50 54  1  0  0  0  0
 51 56  1  0  0  0  0
 52 69  1  0  0  0  0
 53 56  1  0  0  0  0
 53 69  1  0  0  0  0
 54 72  1  0  0  0  0
 55 68  1  0  0  0  0
 56 66  1  0  0  0  0
 57 63  1  0  0  0  0
 58 64  1  0  0  0  0
 59 64  1  0  0  0  0
 60 64  1  0  0  0  0
 61 75  1  0  0  0  0
 62 64  1  0  0  0  0
 62 73  1  0  0  0  0
 63 75  1  0  0  0  0
 65 66  1  0  0  0  0
M  CHG  1  75   1
M  ISO  4  37 101  43 100  74 100  83 101
M  END
> <Batch ID>
0081

> <Smiles>
C=C[100N:0](c1ccc(N2CC(=[101CH:1][101O:1]c3ccc4c(c3)CN(C(=O)C(NC(=O)C(C)NC)C(C)(C)C)C(C(=O)NC3CCCc5ccccc53)C4)C2=O)cc1)[100C:0](=O)N1CCCC(n2nc(-c3ccc(Oc4ccc(F)cc4F)cc3)c(C(N)=O)c2N)C1

> <Shape>
0.253

> <Color>
0.205

> <Negative vol penalty>
0.000

$$$$

  -OEChem-04052300043D

 83 92  0     1  0  0  0  0  0999 V2000
  -30.2184  -35.6549   24.3950 C   0  0  0  0  0  0  0  0  0  0  0  0
  -30.3619  -34.7197   23.3751 C   0  0  0  0  0  0  0  0  0  0  0  0
  -23.4356  -18.2785   16.2341 C   0  0  0  0  0  0  0  0  0  0  0  0
  -24.6697   -9.1876   21.8883 C   0  0  0  0  0  0  0  0  0  0  0  0
  -23.1927  -10.0151   20.1646 C   0  0  0  0  0  0  0  0  0  0  0  0
  -29.4000  -35.3726   25.4879 C   0  0  0  0  0  0  0  0  0  0  0  0
  -29.6879  -33.5012   23.4480 C   0  0  0  0  0  0  0  0  0  0  0  0
  -26.5810  -28.5811   19.2700 C   0  0  0  0  0  0  0  0  0  0  0  0
  -23.5517  -19.6043   16.6514 C   0  0  0  0  0  0  0  0  0  0  0  0
  -24.3012  -17.3093   16.7412 C   0  0  0  0  0  0  0  0  0  0  0  0
  -23.5839   -8.5984   22.5358 C   0  0  0  0  0  0  0  0  0  0  0  0
  -22.1069   -9.4258   20.8122 C   0  0  0  0  0  0  0  0  0  0  0  0
  -26.5975  -27.2082   19.0277 C   0  0  0  0  0  0  0  0  0  0  0  0
  -21.6901   -5.8180   22.1959 C   0  0  0  0  0  0  0  0  0  0  0  0
  -21.8430   -4.5114   22.6596 C   0  0  0  0  0  0  0  0  0  0  0  0
  -25.1484  -26.8620   20.9249 C   0  0  0  0  0  0  0  0  0  0  0  0
  -25.3991  -18.9920   18.0829 C   0  0  0  0  0  0  0  0  0  0  0  0
  -21.4055   -5.2606   24.9145 C   0  0  0  0  0  0  0  0  0  0  0  0
  -24.4741   -9.8960   20.7026 C   0  0  0  0  0  0  0  0  0  0  0  0
  -26.4170   -9.9234   19.0497 C   0  0  0  0  0  0  0  0  0  0  0  0
  -28.7080  -34.1539   25.5696 C   0  0  0  0  0  0  0  0  0  0  0  0
  -25.8556  -29.1045   20.3499 C   0  0  0  0  0  0  0  0  0  0  0  0
  -28.8605  -33.2018   24.5437 C   0  0  0  0  0  0  0  0  0  0  0  0
  -25.1222  -28.2421   21.1772 C   0  0  0  0  0  0  0  0  0  0  0  0
  -24.5334  -19.9611   17.5758 C   0  0  0  0  0  0  0  0  0  0  0  0
  -25.2830  -17.6661   17.6656 C   0  0  0  0  0  0  0  0  0  0  0  0
  -22.3025   -8.7175   21.9978 C   0  0  0  0  0  0  0  0  0  0  0  0
  -25.8835  -26.3481   19.8570 C   0  0  0  0  0  0  0  0  0  0  0  0
  -21.3950   -6.8459   23.0914 C   0  0  0  0  0  0  0  0  0  0  0  0
  -21.7007   -4.2327   24.0189 C   0  0  0  0  0  0  0  0  0  0  0  0
  -21.2527   -6.5672   24.4507 C   0  0  0  0  0  0  0  0  0  0  0  0
  -25.5953  -10.5054   20.0335 C   0  0  0  0  0  0  0  0  0  0  0  0
  -27.3275  -10.9036   18.7390 C   0  0  0  0  0  0  0  0  0  0  0  0
  -24.8598  -23.1908   18.5008 C   0  0  0  0  0  0  0  0  0  0  0  0
  -23.9581  -22.3927   17.6691 C   0  0  0  0  0  0  0  0  0  0  0  0
  -24.9402  -24.4875   18.7992 C   0  0  0  0  0  0  0  0  0  1  0  0
  -26.3621   -8.6138   18.4687 C   0  0  0  0  0  0  0  0  0  0  0  0
  -26.6033  -30.7319   22.9760 C   0  0  0  0  0  0  0  0  0  0  0  0
  -23.3824  -30.8811   23.3307 C   0  0  0  0  0  0  0  0  0  0  0  0
  -20.3254  -29.5340   22.6330 C   0  0  0  0  0  0  0  0  0  0  0  0
  -27.1905  -16.8663   19.1037 C   0  0  0  0  0  0  0  0  0  0  0  0
  -27.8720  -33.8744   26.7934 C   0  0  0  0  0  0  0  0  0  0  0  0
  -25.8263  -30.5904   20.5818 C   0  0  0  0  0  0  0  0  0  0  0  0
  -24.3111  -28.7558   22.3378 C   0  0  0  0  0  0  0  0  0  0  0  0
  -25.6176  -21.9285   18.8428 C   0  0  0  0  0  0  0  0  0  0  0  0
  -26.8976  -32.7132   26.6133 C   0  0  0  0  0  0  0  0  0  0  0  0
  -29.5494  -14.6921   20.6481 C   0  0  0  0  0  0  0  0  0  0  0  0
  -27.6002  -31.5217   25.9701 C   0  0  0  0  0  0  0  0  0  0  0  0
  -28.8806  -13.3178   20.5708 C   0  0  0  0  0  0  0  0  0  0  0  0
  -28.5334  -15.8037   20.9044 C   0  0  0  0  0  0  0  0  0  0  0  0
  -26.7313  -14.4620   19.8936 C   0  0  0  0  0  0  0  0  0  0  0  0
  -28.1263  -31.8789   24.5747 C   0  0  1  0  0  0  0  0  0  0  0  0
  -25.4699  -30.9642   22.0173 C   0  0  1  0  0  0  0  0  0  0  0  0
  -27.7066  -13.3178   19.5721 C   0  0  2  0  0  0  0  0  0  0  0  0
  -17.8796  -29.8548   23.0943 C   0  0  0  0  0  0  0  0  0  0  0  0
  -23.7635  -29.7371   26.1335 C   0  0  0  0  0  0  0  0  0  0  0  0
  -21.3188  -29.1984   26.1705 C   0  0  0  0  0  0  0  0  0  0  0  0
  -22.0689  -31.5696   25.9762 C   0  0  0  0  0  0  0  0  0  0  0  0
  -19.7158  -29.9189   19.7626 C   0  0  0  0  0  0  0  0  0  0  0  0
  -22.3392  -30.0180   23.9984 C   0  0  1  0  0  0  0  0  0  0  0  0
  -19.0319  -30.1665   22.1521 C   0  0  2  0  0  0  0  0  0  0  0  0
  -22.3894  -30.1206   25.5490 C   0  0  0  0  0  0  0  0  0  0  0  0
  -25.9523  -11.7583   20.3283 N   0  0  0  0  0  0  0  0  0  0  0  0
  -27.0085  -11.9715   19.5251 N   0  0  0  0  0  0  0  0  0  0  0  0
  -24.6470  -21.2688   17.9873 N   0  0  0  0  0  0  0  0  0  0  0  0
  -24.3192  -30.2158   22.5272 N   0  0  0  0  0  0  0  0  0  0  0  0
  -27.4529  -15.7440   19.9176 N   0  0  0  0  0  0  0  0  0  0  0  0
  -28.3620  -10.9477   17.8727 N   0  0  0  0  0  0  0  0  0  0  0  0
  -25.3630   -7.7317   18.9025 N   0  0  0  0  0  0  0  0  0  0  0  0
  -26.1619  -16.6811   18.1804 N   0  0  0  0  0  0  0  0  0  0  0  0
  -27.0462  -31.8763   23.6114 N   0  0  0  0  0  0  0  0  0  0  0  0
  -21.0580  -30.4014   23.4153 N   0  0  0  0  0  0  0  0  0  0  0  0
  -18.6802  -29.6592   20.7957 N   0  3  0  0  0  0  0  0  0  0  0  0
  -22.9965  -22.6321   16.9688 O   0  0  0  0  0  0  0  0  0  0  0  0
  -27.1851   -8.2312   17.6028 O   0  0  0  0  0  0  0  0  0  0  0  0
  -27.0424  -29.5981   23.1291 O   0  0  0  0  0  0  0  0  0  0  0  0
  -23.3623  -32.1015   23.5094 O   0  0  0  0  0  0  0  0  0  0  0  0
  -20.6513  -28.3841   22.3466 O   0  0  0  0  0  0  0  0  0  0  0  0
  -27.8491  -17.9051   19.1987 O   0  0  0  0  0  0  0  0  0  0  0  0
  -21.2427   -8.1424   22.6293 O   0  0  0  0  0  0  0  0  0  0  0  0
  -25.8985  -25.0076   19.6231 O   0  0  0  0  0  0  0  0  0  1  0  0
  -21.8460   -2.9777   24.4639 F   0  0  0  0  0  0  0  0  0  0  0  0
  -20.9680   -7.5504   25.3157 F   0  0  0  0  0  0  0  0  0  0  0  0
  1  2  1  0  0  0  0
  1  6  2  0  0  0  0
  2  7  2  0  0  0  0
  3  9  2  0  0  0  0
  3 10  1  0  0  0  0
  4 11  2  0  0  0  0
  4 19  1  0  0  0  0
  5 12  1  0  0  0  0
  5 19  2  0  0  0  0
  6 21  1  0  0  0  0
  7 23  1  0  0  0  0
  8 13  2  0  0  0  0
  8 22  1  0  0  0  0
  9 25  1  0  0  0  0
 10 26  2  0  0  0  0
 11 27  1  0  0  0  0
 12 27  2  0  0  0  0
 13 28  1  0  0  0  0
 14 15  2  0  0  0  0
 14 29  1  0  0  0  0
 15 30  1  0  0  0  0
 16 24  1  0  0  0  0
 16 28  2  0  0  0  0
 17 25  2  0  0  0  0
 17 26  1  0  0  0  0
 18 30  2  0  0  0  0
 18 31  1  0  0  0  0
 19 32  1  0  0  0  0
 20 32  1  0  0  0  0
 20 33  2  0  0  0  0
 20 37  1  0  0  0  0
 21 23  2  0  0  0  0
 21 42  1  0  0  0  0
 22 24  2  0  0  0  0
 22 43  1  0  0  0  0
 23 52  1  0  0  0  0
 24 44  1  0  0  0  0
 25 65  1  0  0  0  0
 26 70  1  0  0  0  0
 27 80  1  0  0  0  0
 28 81  1  0  0  0  0
 29 31  2  0  0  0  0
 29 80  1  0  0  0  0
 30 82  1  0  0  0  0
 31 83  1  0  0  0  0
 32 63  2  0  0  0  0
 33 64  1  0  0  0  0
 33 68  1  0  0  0  0
 34 35  1  0  0  0  0
 34 36  2  0  0  0  0
 34 45  1  0  0  0  0
 35 65  1  0  0  0  0
 35 74  2  0  0  0  0
 36 81  1  0  0  0  0
 37 69  1  0  0  0  0
 37 75  2  0  0  0  0
 38 53  1  0  0  0  0
 38 71  1  0  0  0  0
 38 76  2  0  0  0  0
 39 60  1  0  0  0  0
 39 66  1  0  0  0  0
 39 77  2  0  0  0  0
 40 61  1  0  0  0  0
 40 72  1  0  0  0  0
 40 78  2  0  0  0  0
 41 67  1  0  0  0  0
 41 70  1  0  0  0  0
 41 79  2  0  0  0  0
 42 46  1  0  0  0  0
 43 53  1  0  0  0  0
 44 66  1  0  0  0  0
 45 65  1  0  0  0  0
 46 48  1  0  0  0  0
 47 49  1  0  0  0  0
 47 50  1  0  0  0  0
 48 52  1  0  0  0  0
 49 54  1  0  0  0  0
 50 67  1  0  0  0  0
 51 54  1  0  0  0  0
 51 67  1  0  0  0  0
 52 71  1  0  0  0  0
 53 66  1  0  0  0  0
 54 64  1  0  0  0  0
 55 61  1  0  0  0  0
 56 62  1  0  0  0  0
 57 62  1  0  0  0  0
 58 62  1  0  0  0  0
 59 73  1  0  0  0  0
 60 62  1  0  0  0  0
 60 72  1  0  0  0  0
 61 73  1  0  0  0  0
 63 64  1  0  0  0  0
M  CHG  1  73   1
M  ISO  4  36 101  41 100  70 100  81 101
M  END
> <Batch ID>
0081

> <Smiles>
CNC(C)C(=O)NC(C(=O)N1Cc2cc([101O:1][101CH:1]=C3CN(c4cccc([100NH:0][100C:0](=O)N5CCCC(n6nc(-c7ccc(Oc8ccc(F)cc8F)cc7)c(C(N)=O)c6N)C5)c4)C3=O)ccc2CC1C(=O)NC1CCCc2ccccc21)C(C)(C)C

> <Shape>
0.258

> <Color>
0.099

> <Negative vol penalty>
0.000

$$$$

  -OEChem-04052300043D

 85 94  0     1  0  0  0  0  0999 V2000
  -27.2374  -37.6215   21.1659 C   0  0  0  0  0  0  0  0  0  0  0  0
  -27.7981  -36.3905   20.8408 C   0  0  0  0  0  0  0  0  0  0  0  0
  -26.2982  -11.7086   21.0666 C   0  0  0  0  0  0  0  0  0  0  0  0
  -25.6113  -13.8356   20.1494 C   0  0  0  0  0  0  0  0  0  0  0  0
  -26.2326  -37.6958   22.1297 C   0  0  0  0  0  0  0  0  0  0  0  0
  -27.3552  -35.2332   21.4801 C   0  0  0  0  0  0  0  0  0  0  0  0
  -26.8813  -29.6339   19.0452 C   0  0  0  0  0  0  0  0  0  0  0  0
  -30.6942  -21.4208   19.4830 C   0  0  0  0  0  0  0  0  0  0  0  0
  -32.5421  -21.4912   21.0378 C   0  0  0  0  0  0  0  0  0  0  0  0
  -30.8232  -20.0349   19.3924 C   0  0  0  0  0  0  0  0  0  0  0  0
  -32.6711  -20.1052   20.9472 C   0  0  0  0  0  0  0  0  0  0  0  0
  -25.0607  -11.5810   21.6973 C   0  0  0  0  0  0  0  0  0  0  0  0
  -24.3738  -13.7080   20.7802 C   0  0  0  0  0  0  0  0  0  0  0  0
  -27.7126  -28.5157   19.0955 C   0  0  0  0  0  0  0  0  0  0  0  0
  -21.9086  -10.7041   20.8440 C   0  0  0  0  0  0  0  0  0  0  0  0
  -21.2634   -9.4701   20.7620 C   0  0  0  0  0  0  0  0  0  0  0  0
  -26.4062  -27.6341   20.9217 C   0  0  0  0  0  0  0  0  0  0  0  0
  -21.3028   -9.2894   23.1709 C   0  0  0  0  0  0  0  0  0  0  0  0
  -26.5735  -12.8360   20.2926 C   0  0  0  0  0  0  0  0  0  0  0  0
  -28.1988  -12.5247   18.3512 C   0  0  0  0  0  0  0  0  0  0  0  0
  -25.7704  -36.5375   22.7742 C   0  0  0  0  0  0  0  0  0  0  0  0
  -25.8110  -29.7659   19.9415 C   0  0  0  0  0  0  0  0  0  0  0  0
  -26.3442  -35.2922   22.4544 C   0  0  0  0  0  0  0  0  0  0  0  0
  -25.5612  -28.7536   20.8790 C   0  0  0  0  0  0  0  0  0  0  0  0
  -31.5537  -22.1490   20.3056 C   0  0  0  0  0  0  0  0  0  0  0  0
  -31.8116  -19.3771   20.1245 C   0  0  0  0  0  0  0  0  0  0  0  0
  -24.0984  -12.5806   21.5541 C   0  0  0  0  0  0  0  0  0  0  0  0
  -27.4769  -27.5170   20.0357 C   0  0  0  0  0  0  0  0  0  0  0  0
  -22.2509  -11.2307   22.0895 C   0  0  0  0  0  0  0  0  0  0  0  0
  -20.9605   -8.7628   21.9254 C   0  0  0  0  0  0  0  0  0  0  0  0
  -21.9480  -10.5234   23.2529 C   0  0  0  0  0  0  0  0  0  0  0  0
  -27.8519  -12.9687   19.6413 C   0  0  0  0  0  0  0  0  0  0  0  0
  -29.5154  -12.8880   18.2056 C   0  0  0  0  0  0  0  0  0  0  0  0
  -30.5007  -25.6261   20.4062 C   0  0  0  0  0  0  0  0  0  0  0  0
  -31.9384  -25.7795   20.6680 C   0  0  0  0  0  0  0  0  0  0  0  0
  -30.1865  -24.1931   20.2354 C   0  0  0  0  0  0  0  0  0  0  0  0
  -29.6169  -26.6214   20.3340 C   0  0  0  0  0  0  0  0  0  1  0  0
  -27.4022  -11.8448   17.3720 C   0  0  0  0  0  0  0  0  0  0  0  0
  -25.0331  -31.8459   22.2156 C   0  0  0  0  0  0  0  0  0  0  0  0
  -22.2894  -30.1183   22.3147 C   0  0  0  0  0  0  0  0  0  0  0  0
  -20.7080  -27.1553   21.7091 C   0  0  0  0  0  0  0  0  0  0  0  0
  -32.8697  -17.1625   20.6921 C   0  0  0  0  0  0  0  0  0  0  0  0
  -24.7153  -36.6737   23.8433 C   0  0  0  0  0  0  0  0  0  0  0  0
  -24.9074  -30.9654   19.8567 C   0  0  0  0  0  0  0  0  0  0  0  0
  -24.4131  -28.8379   21.8502 C   0  0  0  0  0  0  0  0  0  0  0  0
  -32.5721  -24.4197   20.6662 C   0  0  0  0  0  0  0  0  0  0  0  0
  -24.0406  -35.3530   24.2049 C   0  0  0  0  0  0  0  0  0  0  0  0
  -33.4924  -13.6575   20.7601 C   0  0  0  0  0  0  0  0  0  0  0  0
  -25.0831  -34.2566   24.3993 C   0  0  0  0  0  0  0  0  0  0  0  0
  -32.1499  -13.0429   20.3576 C   0  0  0  0  0  0  0  0  0  0  0  0
  -33.3093  -14.9023   21.6266 C   0  0  0  0  0  0  0  0  0  0  0  0
  -31.0819  -15.3137   20.6577 C   0  0  0  0  0  0  0  0  0  0  0  0
  -25.8731  -34.0113   23.1081 C   0  0  1  0  0  0  0  0  0  0  0  0
  -24.1566  -31.2409   21.1558 C   0  0  1  0  0  0  0  0  0  0  0  0
  -31.2141  -14.0947   19.7302 C   0  0  2  0  0  0  0  0  0  0  0  0
  -18.4737  -26.0341   21.9286 C   0  0  0  0  0  0  0  0  0  0  0  0
  -22.7501  -29.7927   25.3133 C   0  0  0  0  0  0  0  0  0  0  0  0
  -21.0766  -27.9306   25.2976 C   0  0  0  0  0  0  0  0  0  0  0  0
  -20.3764  -30.2398   24.6650 C   0  0  0  0  0  0  0  0  0  0  0  0
  -20.5037  -26.7317   18.7872 C   0  0  0  0  0  0  0  0  0  0  0  0
  -21.8184  -28.9027   23.0759 C   0  0  1  0  0  0  0  0  0  0  0  0
  -19.3923  -26.8379   21.0215 C   0  0  2  0  0  0  0  0  0  0  0  0
  -21.5282  -29.2155   24.5711 C   0  0  0  0  0  0  0  0  0  0  0  0
  -28.8662  -13.5681   20.2705 N   0  0  0  0  0  0  0  0  0  0  0  0
  -29.8635  -13.5032   19.3720 N   0  0  0  0  0  0  0  0  0  0  0  0
  -31.4253  -23.5331   20.3959 N   0  0  0  0  0  0  0  0  0  0  0  0
  -23.5618  -30.0332   21.7319 N   0  0  0  0  0  0  0  0  0  0  0  0
  -32.4145  -15.8555   20.9666 N   0  0  0  0  0  0  0  0  0  0  0  0
  -30.3976  -12.7379   17.1949 N   0  0  0  0  0  0  0  0  0  0  0  0
  -26.0686  -11.5481   17.6847 N   0  0  0  0  0  0  0  0  0  0  0  0
  -31.9429  -17.9692   20.0327 N   0  0  0  0  0  0  0  0  0  0  0  0
  -25.0902  -33.2261   22.1780 N   0  0  0  0  0  0  0  0  0  0  0  0
  -20.6713  -28.3802   22.3413 N   0  0  0  0  0  0  0  0  0  0  0  0
  -19.6338  -26.0499   19.7799 N   0  3  0  0  0  0  0  0  0  0  0  0
  -32.5194  -26.8347   20.8550 O   0  0  0  0  0  0  0  0  0  0  0  0
  -29.0856  -23.7233   20.0068 O   0  0  0  0  0  0  0  0  0  0  0  0
  -27.8642  -11.4956   16.2593 O   0  0  0  0  0  0  0  0  0  0  0  0
  -25.6133  -31.1149   23.0097 O   0  0  0  0  0  0  0  0  0  0  0  0
  -21.5526  -31.1043   22.2339 O   0  0  0  0  0  0  0  0  0  0  0  0
  -21.6705  -26.3914   21.6907 O   0  0  0  0  0  0  0  0  0  0  0  0
  -34.0082  -17.5298   20.9935 O   0  0  0  0  0  0  0  0  0  0  0  0
  -22.8907  -12.4562   22.1692 O   0  0  0  0  0  0  0  0  0  0  0  0
  -28.2871  -26.4249   20.0874 O   0  0  0  0  0  0  0  0  0  1  0  0
  -20.3396   -7.5786   21.8466 F   0  0  0  0  0  0  0  0  0  0  0  0
  -22.2733  -11.0248   24.4523 F   0  0  0  0  0  0  0  0  0  0  0  0
  1  2  1  0  0  0  0
  1  5  2  0  0  0  0
  2  6  2  0  0  0  0
  3 12  2  0  0  0  0
  3 19  1  0  0  0  0
  4 13  1  0  0  0  0
  4 19  2  0  0  0  0
  5 21  1  0  0  0  0
  6 23  1  0  0  0  0
  7 14  2  0  0  0  0
  7 22  1  0  0  0  0
  8 10  2  0  0  0  0
  8 25  1  0  0  0  0
  9 11  1  0  0  0  0
  9 25  2  0  0  0  0
 10 26  1  0  0  0  0
 11 26  2  0  0  0  0
 12 27  1  0  0  0  0
 13 27  2  0  0  0  0
 14 28  1  0  0  0  0
 15 16  2  0  0  0  0
 15 29  1  0  0  0  0
 16 30  1  0  0  0  0
 17 24  1  0  0  0  0
 17 28  2  0  0  0  0
 18 30  2  0  0  0  0
 18 31  1  0  0  0  0
 19 32  1  0  0  0  0
 20 32  1  0  0  0  0
 20 33  2  0  0  0  0
 20 38  1  0  0  0  0
 21 23  2  0  0  0  0
 21 43  1  0  0  0  0
 22 24  2  0  0  0  0
 22 44  1  0  0  0  0
 23 53  1  0  0  0  0
 24 45  1  0  0  0  0
 25 66  1  0  0  0  0
 26 71  1  0  0  0  0
 27 82  1  0  0  0  0
 28 83  1  0  0  0  0
 29 31  2  0  0  0  0
 29 82  1  0  0  0  0
 30 84  1  0  0  0  0
 31 85  1  0  0  0  0
 32 64  2  0  0  0  0
 33 65  1  0  0  0  0
 33 69  1  0  0  0  0
 34 35  1  0  0  0  0
 34 36  1  0  0  0  0
 34 37  2  0  0  0  0
 35 46  1  0  0  0  0
 35 75  2  0  0  0  0
 36 66  1  0  0  0  0
 36 76  2  0  0  0  0
 37 83  1  0  0  0  0
 38 70  1  0  0  0  0
 38 77  2  0  0  0  0
 39 54  1  0  0  0  0
 39 72  1  0  0  0  0
 39 78  2  0  0  0  0
 40 61  1  0  0  0  0
 40 67  1  0  0  0  0
 40 79  2  0  0  0  0
 41 62  1  0  0  0  0
 41 73  1  0  0  0  0
 41 80  2  0  0  0  0
 42 68  1  0  0  0  0
 42 71  1  0  0  0  0
 42 81  2  0  0  0  0
 43 47  1  0  0  0  0
 44 54  1  0  0  0  0
 45 67  1  0  0  0  0
 46 66  1  0  0  0  0
 47 49  1  0  0  0  0
 48 50  1  0  0  0  0
 48 51  1  0  0  0  0
 49 53  1  0  0  0  0
 50 55  1  0  0  0  0
 51 68  1  0  0  0  0
 52 55  1  0  0  0  0
 52 68  1  0  0  0  0
 53 72  1  0  0  0  0
 54 67  1  0  0  0  0
 55 65  1  0  0  0  0
 56 62  1  0  0  0  0
 57 63  1  0  0  0  0
 58 63  1  0  0  0  0
 59 63  1  0  0  0  0
 60 74  1  0  0  0  0
 61 63  1  0  0  0  0
 61 73  1  0  0  0  0
 62 74  1  0  0  0  0
 64 65  1  0  0  0  0
M  CHG  1  74   1
M  ISO  4  37 101  42 100  71 100  83 101
M  END
> <Batch ID>
0081

> <Smiles>
CNC(C)C(=O)NC(C(=O)N1Cc2cc([101O:1][101CH:1]=C3C(=O)CN(c4ccc([100NH:0][100C:0](=O)N5CCCC(n6nc(-c7ccc(Oc8ccc(F)cc8F)cc7)c(C(N)=O)c6N)C5)cc4)C3=O)ccc2CC1C(=O)NC1CCCc2ccccc21)C(C)(C)C

> <Shape>
0.325

> <Color>
0.086

> <Negative vol penalty>
0.000

$$$$

  -OEChem-04052300043D

 84 93  0     1  0  0  0  0  0999 V2000
  -28.6754  -36.5488   25.7499 C   0  0  0  0  0  0  0  0  0  0  0  0
  -29.0114  -35.3051   25.2248 C   0  0  0  0  0  0  0  0  0  0  0  0
  -24.4399   -8.7818   21.4151 C   0  0  0  0  0  0  0  0  0  0  0  0
  -24.1457  -10.4883   23.0998 C   0  0  0  0  0  0  0  0  0  0  0  0
  -27.3542  -36.8217   26.1020 C   0  0  0  0  0  0  0  0  0  0  0  0
  -28.0265  -34.3331   25.0526 C   0  0  0  0  0  0  0  0  0  0  0  0
  -27.7031  -30.1739   20.5691 C   0  0  0  0  0  0  0  0  0  0  0  0
  -26.5071  -20.3276   19.0338 C   0  0  0  0  0  0  0  0  0  0  0  0
  -26.6458  -18.9415   18.9616 C   0  0  0  0  0  0  0  0  0  0  0  0
  -24.0505   -7.8074   22.3340 C   0  0  0  0  0  0  0  0  0  0  0  0
  -23.7562   -9.5139   24.0188 C   0  0  0  0  0  0  0  0  0  0  0  0
  -28.0677  -28.8295   20.5087 C   0  0  0  0  0  0  0  0  0  0  0  0
  -21.1648   -6.6405   23.6547 C   0  0  0  0  0  0  0  0  0  0  0  0
  -20.2567   -5.6720   23.2269 C   0  0  0  0  0  0  0  0  0  0  0  0
  -25.7950  -28.1968   21.0121 C   0  0  0  0  0  0  0  0  0  0  0  0
  -29.0226  -19.1598   19.3361 C   0  0  0  0  0  0  0  0  0  0  0  0
  -21.8752   -3.9432   23.7052 C   0  0  0  0  0  0  0  0  0  0  0  0
  -24.4876  -10.1223   21.7980 C   0  0  0  0  0  0  0  0  0  0  0  0
  -24.0593  -11.8519   19.9724 C   0  0  0  0  0  0  0  0  0  0  0  0
  -26.3509  -35.8560   25.9250 C   0  0  0  0  0  0  0  0  0  0  0  0
  -26.3819  -30.5405   20.8627 C   0  0  0  0  0  0  0  0  0  0  0  0
  -26.6909  -34.5929   25.4039 C   0  0  0  0  0  0  0  0  0  0  0  0
  -25.4156  -29.5464   21.0732 C   0  0  0  0  0  0  0  0  0  0  0  0
  -27.6262  -21.1298   19.2570 C   0  0  0  0  0  0  0  0  0  0  0  0
  -27.9035  -18.3576   19.1128 C   0  0  0  0  0  0  0  0  0  0  0  0
  -23.7086   -8.1735   23.6359 C   0  0  0  0  0  0  0  0  0  0  0  0
  -27.1142  -27.8408   20.7331 C   0  0  0  0  0  0  0  0  0  0  0  0
  -22.4282   -6.2603   24.1077 C   0  0  0  0  0  0  0  0  0  0  0  0
  -20.6119   -4.3234   23.2521 C   0  0  0  0  0  0  0  0  0  0  0  0
  -28.8839  -20.5459   19.4082 C   0  0  0  0  0  0  0  0  0  0  0  0
  -22.7833   -4.9117   24.1329 C   0  0  0  0  0  0  0  0  0  0  0  0
  -24.8903  -11.1292   20.8493 C   0  0  0  0  0  0  0  0  0  0  0  0
  -24.9177  -12.6771   19.2878 C   0  0  0  0  0  0  0  0  0  0  0  0
  -27.1118  -24.4233   19.6093 C   0  0  0  0  0  0  0  0  0  0  0  0
  -26.6479  -23.3518   18.7681 C   0  0  0  0  0  0  0  0  0  0  0  0
  -25.7186  -23.2747   17.8103 C   0  0  0  0  0  0  0  0  0  0  0  0
  -26.8430  -25.7334   19.7553 C   0  0  0  0  0  0  0  0  0  1  0  0
  -22.6385  -11.7836   19.7929 C   0  0  0  0  0  0  0  0  0  0  0  0
  -24.9743  -32.1800   23.1939 C   0  0  0  0  0  0  0  0  0  0  0  0
  -22.3405  -31.8051   21.3379 C   0  0  0  0  0  0  0  0  0  0  0  0
  -20.7315  -30.0136   18.9195 C   0  0  0  0  0  0  0  0  0  0  0  0
  -29.2195  -16.2102   19.1677 C   0  0  0  0  0  0  0  0  0  0  0  0
  -24.9451  -36.1806   26.3643 C   0  0  0  0  0  0  0  0  0  0  0  0
  -25.9988  -31.9946   20.8979 C   0  0  0  0  0  0  0  0  0  0  0  0
  -23.9793  -29.8871   21.3720 C   0  0  0  0  0  0  0  0  0  0  0  0
  -28.0265  -23.4495   20.2644 C   0  0  0  0  0  0  0  0  0  0  0  0
  -23.8952  -35.2265   25.8009 C   0  0  0  0  0  0  0  0  0  0  0  0
  -29.9752  -12.7318   19.0866 C   0  0  0  0  0  0  0  0  0  0  0  0
  -24.3505  -33.7790   25.9573 C   0  0  0  0  0  0  0  0  0  0  0  0
  -28.6513  -12.0642   19.4658 C   0  0  0  0  0  0  0  0  0  0  0  0
  -30.1961  -14.0319   19.8577 C   0  0  0  0  0  0  0  0  0  0  0  0
  -27.7688  -14.3298   20.1553 C   0  0  0  0  0  0  0  0  0  0  0  0
  -25.6464  -33.5212   25.1789 C   0  0  1  0  0  0  0  0  0  0  0  0
  -24.7367  -32.2605   21.7125 C   0  0  1  0  0  0  0  0  0  0  0  0
  -27.4715  -13.0500   19.3568 C   0  0  2  0  0  0  0  0  0  0  0  0
  -18.5758  -29.9274   17.6376 C   0  0  0  0  0  0  0  0  0  0  0  0
  -20.9344  -30.6459   23.7852 C   0  0  0  0  0  0  0  0  0  0  0  0
  -19.1798  -29.7255   22.2546 C   0  0  0  0  0  0  0  0  0  0  0  0
  -19.5293  -32.1906   22.4089 C   0  0  0  0  0  0  0  0  0  0  0  0
  -22.1199  -30.3896   16.3330 C   0  0  0  0  0  0  0  0  0  0  0  0
  -21.2508  -30.7664   21.2256 C   0  0  1  0  0  0  0  0  0  0  0  0
  -20.0045  -30.4482   17.6597 C   0  0  2  0  0  0  0  0  0  0  0  0
  -20.2510  -30.8254   22.4149 C   0  0  0  0  0  0  0  0  0  0  0  0
  -26.1778  -11.4656   20.7342 N   0  0  0  0  0  0  0  0  0  0  0  0
  -26.1623  -12.4086   19.7768 N   0  0  0  0  0  0  0  0  0  0  0  0
  -27.4856  -22.5061   19.3267 N   0  0  0  0  0  0  0  0  0  0  0  0
  -23.6555  -31.3230   21.4018 N   0  0  0  0  0  0  0  0  0  0  0  0
  -29.0401  -14.9179   19.7049 N   0  0  0  0  0  0  0  0  0  0  0  0
  -24.7218  -13.5987   18.3210 N   0  0  0  0  0  0  0  0  0  0  0  0
  -21.9084  -10.8812   20.5785 N   0  0  0  0  0  0  0  0  0  0  0  0
  -28.0441  -16.9496   19.0395 N   0  0  0  0  0  0  0  0  0  0  0  0
  -25.3669  -33.3747   23.7665 N   0  0  0  0  0  0  0  0  0  0  0  0
  -20.6351  -30.9604   19.9172 N   0  0  0  0  0  0  0  0  0  0  0  0
  -20.7103  -29.9358   16.4514 N   0  3  0  0  0  0  0  0  0  0  0  0
  -22.0362  -12.4897   18.9491 O   0  0  0  0  0  0  0  0  0  0  0  0
  -24.8118  -31.1133   23.7748 O   0  0  0  0  0  0  0  0  0  0  0  0
  -22.0365  -33.0004   21.3606 O   0  0  0  0  0  0  0  0  0  0  0  0
  -21.3224  -28.9398   19.0106 O   0  0  0  0  0  0  0  0  0  0  0  0
  -30.3299  -16.6200   18.8200 O   0  0  0  0  0  0  0  0  0  0  0  0
  -23.3283   -7.2230   24.5328 O   0  0  0  0  0  0  0  0  0  0  0  0
  -27.4676  -26.5279   20.6753 O   0  0  0  0  0  0  0  0  0  1  0  0
  -19.7392   -3.3933   22.8428 F   0  0  0  0  0  0  0  0  0  0  0  0
  -29.9661  -21.3079   19.6217 F   0  0  0  0  0  0  0  0  0  0  0  0
  -23.9951   -4.5403   24.5681 F   0  0  0  0  0  0  0  0  0  0  0  0
  1  2  1  0  0  0  0
  1  5  2  0  0  0  0
  2  6  2  0  0  0  0
  3 10  2  0  0  0  0
  3 18  1  0  0  0  0
  4 11  1  0  0  0  0
  4 18  2  0  0  0  0
  5 20  1  0  0  0  0
  6 22  1  0  0  0  0
  7 12  2  0  0  0  0
  7 21  1  0  0  0  0
  8  9  2  0  0  0  0
  8 24  1  0  0  0  0
  9 25  1  0  0  0  0
 10 26  1  0  0  0  0
 11 26  2  0  0  0  0
 12 27  1  0  0  0  0
 13 14  2  0  0  0  0
 13 28  1  0  0  0  0
 14 29  1  0  0  0  0
 15 23  1  0  0  0  0
 15 27  2  0  0  0  0
 16 25  2  0  0  0  0
 16 30  1  0  0  0  0
 17 29  2  0  0  0  0
 17 31  1  0  0  0  0
 18 32  1  0  0  0  0
 19 32  1  0  0  0  0
 19 33  2  0  0  0  0
 19 38  1  0  0  0  0
 20 22  2  0  0  0  0
 20 43  1  0  0  0  0
 21 23  2  0  0  0  0
 21 44  1  0  0  0  0
 22 53  1  0  0  0  0
 23 45  1  0  0  0  0
 24 30  2  0  0  0  0
 24 66  1  0  0  0  0
 25 71  1  0  0  0  0
 26 80  1  0  0  0  0
 27 81  1  0  0  0  0
 28 31  2  0  0  0  0
 28 80  1  0  0  0  0
 29 82  1  0  0  0  0
 30 83  1  0  0  0  0
 31 84  1  0  0  0  0
 32 64  2  0  0  0  0
 33 65  1  0  0  0  0
 33 69  1  0  0  0  0
 34 35  1  0  0  0  0
 34 37  2  0  0  0  0
 34 46  1  0  0  0  0
 35 36  2  0  0  0  0
 35 66  1  0  0  0  0
 37 81  1  0  0  0  0
 38 70  1  0  0  0  0
 38 75  2  0  0  0  0
 39 54  1  0  0  0  0
 39 72  1  0  0  0  0
 39 76  2  0  0  0  0
 40 61  1  0  0  0  0
 40 67  1  0  0  0  0
 40 77  2  0  0  0  0
 41 62  1  0  0  0  0
 41 73  1  0  0  0  0
 41 78  2  0  0  0  0
 42 68  1  0  0  0  0
 42 71  1  0  0  0  0
 42 79  2  0  0  0  0
 43 47  1  0  0  0  0
 44 54  1  0  0  0  0
 45 67  1  0  0  0  0
 46 66  1  0  0  0  0
 47 49  1  0  0  0  0
 48 50  1  0  0  0  0
 48 51  1  0  0  0  0
 49 53  1  0  0  0  0
 50 55  1  0  0  0  0
 51 68  1  0  0  0  0
 52 55  1  0  0  0  0
 52 68  1  0  0  0  0
 53 72  1  0  0  0  0
 54 67  1  0  0  0  0
 55 65  1  0  0  0  0
 56 62  1  0  0  0  0
 57 63  1  0  0  0  0
 58 63  1  0  0  0  0
 59 63  1  0  0  0  0
 60 74  1  0  0  0  0
 61 63  1  0  0  0  0
 61 73  1  0  0  0  0
 62 74  1  0  0  0  0
 64 65  1  0  0  0  0
M  CHG  1  74   1
M  ISO  4  37 101  42 100  71 100  81 101
M  END
> <Batch ID>
0081

> <Smiles>
C=C1C(=[101CH:1][101O:1]c2ccc3c(c2)CN(C(=O)C(NC(=O)C(C)NC)C(C)(C)C)C(C(=O)NC2CCCc4ccccc42)C3)CN1c1ccc([100NH:0][100C:0](=O)N2CCCC(n3nc(-c4ccc(Oc5ccc(F)cc5F)cc4)c(C(N)=O)c3N)C2)cc1F

> <Shape>
0.290

> <Color>
0.090

> <Negative vol penalty>
0.000

$$$$

  -OEChem-04052300043D

 82 90  0     1  0  0  0  0  0999 V2000
  -25.8976  -23.4387   19.4098 C   0  0  0  0  0  0  0  0  0  0  0  0
  -28.7022  -37.1190   23.8960 C   0  0  0  0  0  0  0  0  0  0  0  0
  -29.0871  -36.1515   22.9733 C   0  0  0  0  0  0  0  0  0  0  0  0
  -24.3506   -9.6383   22.6737 C   0  0  0  0  0  0  0  0  0  0  0  0
  -23.1181  -11.6625   22.2040 C   0  0  0  0  0  0  0  0  0  0  0  0
  -26.5232  -19.5514   19.0497 C   0  0  0  0  0  0  0  0  0  0  0  0
  -28.8833  -19.8339   19.4819 C   0  0  0  0  0  0  0  0  0  0  0  0
  -27.8596  -36.7766   24.9528 C   0  0  0  0  0  0  0  0  0  0  0  0
  -28.6304  -34.8409   23.1075 C   0  0  0  0  0  0  0  0  0  0  0  0
  -26.7683  -29.1479   19.1782 C   0  0  0  0  0  0  0  0  0  0  0  0
  -26.7122  -18.1759   18.9166 C   0  0  0  0  0  0  0  0  0  0  0  0
  -29.0724  -18.4583   19.3489 C   0  0  0  0  0  0  0  0  0  0  0  0
  -23.6029   -9.4528   23.8365 C   0  0  0  0  0  0  0  0  0  0  0  0
  -22.3703  -11.4769   23.3667 C   0  0  0  0  0  0  0  0  0  0  0  0
  -27.0416  -27.7860   19.0582 C   0  0  0  0  0  0  0  0  0  0  0  0
  -20.5309   -8.3096   24.6666 C   0  0  0  0  0  0  0  0  0  0  0  0
  -20.0398   -7.0298   24.9241 C   0  0  0  0  0  0  0  0  0  0  0  0
  -25.5261  -27.3278   20.8783 C   0  0  0  0  0  0  0  0  0  0  0  0
  -21.2797   -6.9711   26.9969 C   0  0  0  0  0  0  0  0  0  0  0  0
  -24.1083  -10.7432   21.8575 C   0  0  0  0  0  0  0  0  0  0  0  0
  -27.6088  -20.3805   19.3323 C   0  0  0  0  0  0  0  0  0  0  0  0
  -24.5822  -10.4550   19.3675 C   0  0  0  0  0  0  0  0  0  0  0  0
  -27.3846  -35.4633   25.0945 C   0  0  0  0  0  0  0  0  0  0  0  0
  -25.8787  -29.6118   20.1579 C   0  0  0  0  0  0  0  0  0  0  0  0
  -27.7817  -34.4803   24.1679 C   0  0  0  0  0  0  0  0  0  0  0  0
  -25.2413  -28.6958   21.0069 C   0  0  0  0  0  0  0  0  0  0  0  0
  -27.9867  -17.6293   19.0662 C   0  0  0  0  0  0  0  0  0  0  0  0
  -22.6127  -10.3721   24.1830 C   0  0  0  0  0  0  0  0  0  0  0  0
  -26.4227  -26.8760   19.9102 C   0  0  0  0  0  0  0  0  0  0  0  0
  -21.3965   -8.9202   25.5741 C   0  0  0  0  0  0  0  0  0  0  0  0
  -20.4141   -6.3605   26.0893 C   0  0  0  0  0  0  0  0  0  0  0  0
  -21.7709   -8.2510   26.7393 C   0  0  0  0  0  0  0  0  0  0  0  0
  -24.8808  -10.9357   20.6565 C   0  0  0  0  0  0  0  0  0  0  0  0
  -25.6175  -10.9048   18.5850 C   0  0  0  0  0  0  0  0  0  0  0  0
  -25.6480  -24.7040   19.5193 C   0  0  0  0  0  0  0  0  0  1  0  0
  -27.4066  -21.8525   19.4745 C   0  0  0  0  0  0  0  0  0  0  0  0
  -23.4686   -9.6720   18.9177 C   0  0  0  0  0  0  0  0  0  0  0  0
  -26.1195  -31.5370   22.6757 C   0  0  0  0  0  0  0  0  0  0  0  0
  -22.9034  -31.1332   22.8020 C   0  0  0  0  0  0  0  0  0  0  0  0
  -20.1919  -29.2127   22.0236 C   0  0  0  0  0  0  0  0  0  0  0  0
  -29.3754  -15.5275   19.0488 C   0  0  0  0  0  0  0  0  0  0  0  0
  -26.5137  -35.1302   26.2800 C   0  0  0  0  0  0  0  0  0  0  0  0
  -25.5742  -31.0814   20.2568 C   0  0  0  0  0  0  0  0  0  0  0  0
  -24.2628  -29.1407   22.0619 C   0  0  0  0  0  0  0  0  0  0  0  0
  -25.7727  -33.8032   26.1377 C   0  0  0  0  0  0  0  0  0  0  0  0
  -30.2529  -12.0842   18.8228 C   0  0  0  0  0  0  0  0  0  0  0  0
  -26.7202  -32.7124   25.6489 C   0  0  0  0  0  0  0  0  0  0  0  0
  -28.9462  -11.3552   19.1441 C   0  0  0  0  0  0  0  0  0  0  0  0
  -30.4142  -13.3536   19.6573 C   0  0  0  0  0  0  0  0  0  0  0  0
  -27.9728  -13.5549   19.9192 C   0  0  0  0  0  0  0  0  0  0  0  0
  -27.2873  -33.0534   24.2656 C   0  0  1  0  0  0  0  0  0  0  0  0
  -25.0440  -31.4909   21.6275 C   0  0  1  0  0  0  0  0  0  0  0  0
  -27.7351  -12.3045   19.0569 C   0  0  2  0  0  0  0  0  0  0  0  0
  -17.6984  -29.1238   22.2922 C   0  0  0  0  0  0  0  0  0  0  0  0
  -23.2497  -30.2870   25.7130 C   0  0  0  0  0  0  0  0  0  0  0  0
  -20.9401  -29.3237   25.6349 C   0  0  0  0  0  0  0  0  0  0  0  0
  -21.2818  -31.7698   25.2846 C   0  0  0  0  0  0  0  0  0  0  0  0
  -19.7582  -29.2682   19.0965 C   0  0  0  0  0  0  0  0  0  0  0  0
  -21.9750  -30.1493   23.4719 C   0  0  1  0  0  0  0  0  0  0  0  0
  -18.8515  -29.5660   21.4048 C   0  0  2  0  0  0  0  0  0  0  0  0
  -21.8815  -30.3739   25.0076 C   0  0  0  0  0  0  0  0  0  0  0  0
  -26.0169  -11.6370   20.6950 N   0  0  0  0  0  0  0  0  0  0  0  0
  -26.1067  -22.2878   19.3073 N   0  0  0  0  0  0  0  0  0  0  0  0
  -26.4414  -11.6002   19.4204 N   0  0  0  0  0  0  0  0  0  0  0  0
  -24.0029  -30.5885   22.1234 N   0  0  0  0  0  0  0  0  0  0  0  0
  -29.2310  -14.2061   19.5221 N   0  0  0  0  0  0  0  0  0  0  0  0
  -25.8945  -10.7693   17.2707 N   0  0  0  0  0  0  0  0  0  0  0  0
  -22.4952   -9.2955   19.8532 N   0  0  0  0  0  0  0  0  0  0  0  0
  -28.1776  -16.2318   18.9311 N   0  0  0  0  0  0  0  0  0  0  0  0
  -26.3052  -32.7860   23.2368 N   0  0  0  0  0  0  0  0  0  0  0  0
  -20.6980  -30.2528   22.7741 N   0  0  0  0  0  0  0  0  0  0  0  0
  -18.7033  -28.9048   20.0775 N   0  3  0  0  0  0  0  0  0  0  0  0
  -28.3802  -22.5601   19.7239 O   0  0  0  0  0  0  0  0  0  0  0  0
  -23.3489   -9.3028   17.7248 O   0  0  0  0  0  0  0  0  0  0  0  0
  -26.7344  -30.5146   22.9559 O   0  0  0  0  0  0  0  0  0  0  0  0
  -22.6582  -32.3401   22.8719 O   0  0  0  0  0  0  0  0  0  0  0  0
  -20.7338  -28.1216   21.8608 O   0  0  0  0  0  0  0  0  0  0  0  0
  -30.4772  -15.9904   18.7427 O   0  0  0  0  0  0  0  0  0  0  0  0
  -21.8826  -10.1912   25.3174 O   0  0  0  0  0  0  0  0  0  0  0  0
  -26.6881  -25.5463   19.7957 O   0  0  0  0  0  0  0  0  0  1  0  0
  -19.9412   -5.1321   26.3372 F   0  0  0  0  0  0  0  0  0  0  0  0
  -22.6012   -8.8329   27.6155 F   0  0  0  0  0  0  0  0  0  0  0  0
  1 35  2  0  0  0  0
  1 63  2  0  0  0  0
  2  3  1  0  0  0  0
  2  8  2  0  0  0  0
  3  9  2  0  0  0  0
  4 13  2  0  0  0  0
  4 20  1  0  0  0  0
  5 14  1  0  0  0  0
  5 20  2  0  0  0  0
  6 11  2  0  0  0  0
  6 21  1  0  0  0  0
  7 12  1  0  0  0  0
  7 21  2  0  0  0  0
  8 23  1  0  0  0  0
  9 25  1  0  0  0  0
 10 15  2  0  0  0  0
 10 24  1  0  0  0  0
 11 27  1  0  0  0  0
 12 27  2  0  0  0  0
 13 28  1  0  0  0  0
 14 28  2  0  0  0  0
 15 29  1  0  0  0  0
 16 17  2  0  0  0  0
 16 30  1  0  0  0  0
 17 31  1  0  0  0  0
 18 26  1  0  0  0  0
 18 29  2  0  0  0  0
 19 31  2  0  0  0  0
 19 32  1  0  0  0  0
 20 33  1  0  0  0  0
 21 36  1  0  0  0  0
 22 33  1  0  0  0  0
 22 34  2  0  0  0  0
 22 37  1  0  0  0  0
 23 25  2  0  0  0  0
 23 42  1  0  0  0  0
 24 26  2  0  0  0  0
 24 43  1  0  0  0  0
 25 51  1  0  0  0  0
 26 44  1  0  0  0  0
 27 69  1  0  0  0  0
 28 79  1  0  0  0  0
 29 80  1  0  0  0  0
 30 32  2  0  0  0  0
 30 79  1  0  0  0  0
 31 81  1  0  0  0  0
 32 82  1  0  0  0  0
 33 62  2  0  0  0  0
 34 64  1  0  0  0  0
 34 67  1  0  0  0  0
 35 80  1  0  0  0  0
 36 63  1  0  0  0  0
 36 73  2  0  0  0  0
 37 68  1  0  0  0  0
 37 74  2  0  0  0  0
 38 52  1  0  0  0  0
 38 70  1  0  0  0  0
 38 75  2  0  0  0  0
 39 59  1  0  0  0  0
 39 65  1  0  0  0  0
 39 76  2  0  0  0  0
 40 60  1  0  0  0  0
 40 71  1  0  0  0  0
 40 77  2  0  0  0  0
 41 66  1  0  0  0  0
 41 69  1  0  0  0  0
 41 78  2  0  0  0  0
 42 45  1  0  0  0  0
 43 52  1  0  0  0  0
 44 65  1  0  0  0  0
 45 47  1  0  0  0  0
 46 48  1  0  0  0  0
 46 49  1  0  0  0  0
 47 51  1  0  0  0  0
 48 53  1  0  0  0  0
 49 66  1  0  0  0  0
 50 53  1  0  0  0  0
 50 66  1  0  0  0  0
 51 70  1  0  0  0  0
 52 65  1  0  0  0  0
 53 64  1  0  0  0  0
 54 60  1  0  0  0  0
 55 61  1  0  0  0  0
 56 61  1  0  0  0  0
 57 61  1  0  0  0  0
 58 72  1  0  0  0  0
 59 61  1  0  0  0  0
 59 71  1  0  0  0  0
 60 72  1  0  0  0  0
 62 64  1  0  0  0  0
M  CHG  1  72   1
M  ISO  4  35 101  41 100  69 100  80 101
M  END
> <Batch ID>
0081

> <Smiles>
CNC(C)C(=O)NC(C(=O)N1Cc2cc([101O:1][101CH:1]=C=NC(=O)c3ccc([100NH:0][100C:0](=O)N4CCCC(n5nc(-c6ccc(Oc7ccc(F)cc7F)cc6)c(C(N)=O)c5N)C4)cc3)ccc2CC1C(=O)NC1CCCc2ccccc21)C(C)(C)C

> <Shape>
0.273

> <Color>
0.088

> <Negative vol penalty>
0.000

$$$$

  -OEChem-04052300043D

 84 93  0     1  0  0  0  0  0999 V2000
  -27.3388  -37.7255   23.9309 C   0  0  0  0  0  0  0  0  0  0  0  0
  -27.9375  -36.7837   23.1002 C   0  0  0  0  0  0  0  0  0  0  0  0
  -24.1764   -9.2558   22.1101 C   0  0  0  0  0  0  0  0  0  0  0  0
  -22.9067  -11.2289   21.5339 C   0  0  0  0  0  0  0  0  0  0  0  0
  -26.4353  -37.3152   24.9103 C   0  0  0  0  0  0  0  0  0  0  0  0
  -27.6339  -35.4310   23.2492 C   0  0  0  0  0  0  0  0  0  0  0  0
  -26.9236  -29.4146   19.4262 C   0  0  0  0  0  0  0  0  0  0  0  0
  -28.5464  -19.7665   19.8500 C   0  0  0  0  0  0  0  0  0  0  0  0
  -28.8116  -18.4052   19.7015 C   0  0  0  0  0  0  0  0  0  0  0  0
  -23.2914   -8.9915   23.1553 C   0  0  0  0  0  0  0  0  0  0  0  0
  -22.0216  -10.9645   22.5790 C   0  0  0  0  0  0  0  0  0  0  0  0
  -27.3739  -28.0954   19.4004 C   0  0  0  0  0  0  0  0  0  0  0  0
  -20.2046   -7.6631   23.5297 C   0  0  0  0  0  0  0  0  0  0  0  0
  -19.7557   -6.3514   23.6829 C   0  0  0  0  0  0  0  0  0  0  0  0
  -25.7383  -27.5108   21.0744 C   0  0  0  0  0  0  0  0  0  0  0  0
  -26.2792  -19.4071   19.0968 C   0  0  0  0  0  0  0  0  0  0  0  0
  -20.7085   -6.2844   25.9021 C   0  0  0  0  0  0  0  0  0  0  0  0
  -23.9842  -10.3745   21.2994 C   0  0  0  0  0  0  0  0  0  0  0  0
  -24.8023  -10.1983   18.8896 C   0  0  0  0  0  0  0  0  0  0  0  0
  -26.1131  -35.9577   25.0650 C   0  0  0  0  0  0  0  0  0  0  0  0
  -25.8828  -29.7948   20.2856 C   0  0  0  0  0  0  0  0  0  0  0  0
  -26.7263  -35.0020   24.2325 C   0  0  0  0  0  0  0  0  0  0  0  0
  -25.2749  -28.8349   21.1073 C   0  0  0  0  0  0  0  0  0  0  0  0
  -27.2802  -20.2675   19.5476 C   0  0  0  0  0  0  0  0  0  0  0  0
  -27.8106  -17.5448   19.2507 C   0  0  0  0  0  0  0  0  0  0  0  0
  -22.2140   -9.8458   23.3897 C   0  0  0  0  0  0  0  0  0  0  0  0
  -26.7832  -27.1439   20.2267 C   0  0  0  0  0  0  0  0  0  0  0  0
  -20.9056   -8.2855   24.5627 C   0  0  0  0  0  0  0  0  0  0  0  0
  -26.5443  -18.0457   18.9483 C   0  0  0  0  0  0  0  0  0  0  0  0
  -20.0076   -5.6620   24.8690 C   0  0  0  0  0  0  0  0  0  0  0  0
  -21.1575   -7.5961   25.7488 C   0  0  0  0  0  0  0  0  0  0  0  0
  -24.8984  -10.6485   20.2200 C   0  0  0  0  0  0  0  0  0  0  0  0
  -25.9062  -10.7279   18.2673 C   0  0  0  0  0  0  0  0  0  0  0  0
  -26.6502  -23.5733   19.8071 C   0  0  0  0  0  0  0  0  0  0  0  0
  -25.9071  -22.3560   19.4792 C   0  0  0  0  0  0  0  0  0  0  0  0
  -26.3288  -24.8786   19.8625 C   0  0  0  0  0  0  0  0  0  1  0  0
  -23.8043   -9.3750   18.2716 C   0  0  0  0  0  0  0  0  0  0  0  0
  -25.6107  -31.8209   22.7197 C   0  0  0  0  0  0  0  0  0  0  0  0
  -22.4742  -31.0148   22.5329 C   0  0  0  0  0  0  0  0  0  0  0  0
  -20.1201  -28.7384   21.5721 C   0  0  0  0  0  0  0  0  0  0  0  0
  -29.3042  -15.5193   19.3634 C   0  0  0  0  0  0  0  0  0  0  0  0
  -25.1667  -35.5575   26.1690 C   0  0  0  0  0  0  0  0  0  0  0  0
  -25.3908  -31.2162   20.2821 C   0  0  0  0  0  0  0  0  0  0  0  0
  -24.1406  -29.1876   22.0333 C   0  0  0  0  0  0  0  0  0  0  0  0
  -27.8808  -22.7269   20.0392 C   0  0  0  0  0  0  0  0  0  0  0  0
  -24.6145  -34.1427   26.0149 C   0  0  0  0  0  0  0  0  0  0  0  0
  -30.3950  -12.1359   19.1633 C   0  0  0  0  0  0  0  0  0  0  0  0
  -25.7365  -33.1654   25.6792 C   0  0  0  0  0  0  0  0  0  0  0  0
  -29.0998  -11.3297   19.2844 C   0  0  0  0  0  0  0  0  0  0  0  0
  -30.3720  -13.3820   20.0467 C   0  0  0  0  0  0  0  0  0  0  0  0
  -27.9102  -13.4479   19.9810 C   0  0  0  0  0  0  0  0  0  0  0  0
  -26.4037  -33.5279   24.3469 C   0  0  1  0  0  0  0  0  0  0  0  0
  -24.6689  -31.6018   21.5696 C   0  0  1  0  0  0  0  0  0  0  0  0
  -27.8602  -12.2177   19.0602 C   0  0  2  0  0  0  0  0  0  0  0  0
  -17.6422  -28.3416   21.5862 C   0  0  0  0  0  0  0  0  0  0  0  0
  -22.6046  -30.3208   25.5013 C   0  0  0  0  0  0  0  0  0  0  0  0
  -20.4534  -29.0687   25.2318 C   0  0  0  0  0  0  0  0  0  0  0  0
  -20.5273  -31.5248   24.8017 C   0  0  0  0  0  0  0  0  0  0  0  0
  -20.0024  -28.6369   18.6166 C   0  0  0  0  0  0  0  0  0  0  0  0
  -21.6069  -29.9443   23.1500 C   0  0  1  0  0  0  0  0  0  0  0  0
  -18.8214  -28.8963   20.8021 C   0  0  2  0  0  0  0  0  0  0  0  0
  -21.3207  -30.2081   24.6553 C   0  0  0  0  0  0  0  0  0  0  0  0
  -25.9782  -11.4057   20.4314 N   0  0  0  0  0  0  0  0  0  0  0  0
  -26.5708  -11.4353   19.2255 N   0  0  0  0  0  0  0  0  0  0  0  0
  -27.0192  -21.6102   19.6934 N   0  0  0  0  0  0  0  0  0  0  0  0
  -23.6993  -30.5917   21.9981 N   0  0  0  0  0  0  0  0  0  0  0  0
  -29.1719  -14.1766   19.7762 N   0  0  0  0  0  0  0  0  0  0  0  0
  -26.3637  -10.6529   16.9994 N   0  0  0  0  0  0  0  0  0  0  0  0
  -22.7371   -8.9164   19.0558 N   0  0  0  0  0  0  0  0  0  0  0  0
  -28.0955  -16.1646   19.1040 N   0  0  0  0  0  0  0  0  0  0  0  0
  -25.5792  -33.1021   23.2364 N   0  0  0  0  0  0  0  0  0  0  0  0
  -20.4100  -29.8599   22.3200 N   0  0  0  0  0  0  0  0  0  0  0  0
  -18.9004  -28.1761   19.4998 N   0  3  0  0  0  0  0  0  0  0  0  0
  -24.7685  -22.1087   19.1405 O   0  0  0  0  0  0  0  0  0  0  0  0
  -23.8661   -9.0420   17.0638 O   0  0  0  0  0  0  0  0  0  0  0  0
  -26.3128  -30.8956   23.1104 O   0  0  0  0  0  0  0  0  0  0  0  0
  -22.0761  -32.1823   22.5192 O   0  0  0  0  0  0  0  0  0  0  0  0
  -20.8067  -27.7204   21.5185 O   0  0  0  0  0  0  0  0  0  0  0  0
  -30.4095  -16.0489   19.2223 O   0  0  0  0  0  0  0  0  0  0  0  0
  -25.5525  -17.2225   18.5047 O   0  0  0  0  0  0  0  0  0  0  0  0
  -21.3500   -9.5880   24.4093 O   0  0  0  0  0  0  0  0  0  0  0  0
  -27.2212  -25.8556   20.2040 O   0  0  0  0  0  0  0  0  0  1  0  0
  -19.5750   -4.4030   25.0166 F   0  0  0  0  0  0  0  0  0  0  0  0
  -21.8293   -8.1892   26.7452 F   0  0  0  0  0  0  0  0  0  0  0  0
  1  2  1  0  0  0  0
  1  5  2  0  0  0  0
  2  6  2  0  0  0  0
  3 10  2  0  0  0  0
  3 18  1  0  0  0  0
  4 11  1  0  0  0  0
  4 18  2  0  0  0  0
  5 20  1  0  0  0  0
  6 22  1  0  0  0  0
  7 12  2  0  0  0  0
  7 21  1  0  0  0  0
  8  9  2  0  0  0  0
  8 24  1  0  0  0  0
  9 25  1  0  0  0  0
 10 26  1  0  0  0  0
 11 26  2  0  0  0  0
 12 27  1  0  0  0  0
 13 14  2  0  0  0  0
 13 28  1  0  0  0  0
 14 30  1  0  0  0  0
 15 23  1  0  0  0  0
 15 27  2  0  0  0  0
 16 24  2  0  0  0  0
 16 29  1  0  0  0  0
 17 30  2  0  0  0  0
 17 31  1  0  0  0  0
 18 32  1  0  0  0  0
 19 32  1  0  0  0  0
 19 33  2  0  0  0  0
 19 37  1  0  0  0  0
 20 22  2  0  0  0  0
 20 42  1  0  0  0  0
 21 23  2  0  0  0  0
 21 43  1  0  0  0  0
 22 52  1  0  0  0  0
 23 44  1  0  0  0  0
 24 65  1  0  0  0  0
 25 29  2  0  0  0  0
 25 70  1  0  0  0  0
 26 81  1  0  0  0  0
 27 82  1  0  0  0  0
 28 31  2  0  0  0  0
 28 81  1  0  0  0  0
 29 80  1  0  0  0  0
 30 83  1  0  0  0  0
 31 84  1  0  0  0  0
 32 63  2  0  0  0  0
 33 64  1  0  0  0  0
 33 68  1  0  0  0  0
 34 35  1  0  0  0  0
 34 36  2  0  0  0  0
 34 45  1  0  0  0  0
 35 65  1  0  0  0  0
 35 74  2  0  0  0  0
 36 82  1  0  0  0  0
 37 69  1  0  0  0  0
 37 75  2  0  0  0  0
 38 53  1  0  0  0  0
 38 71  1  0  0  0  0
 38 76  2  0  0  0  0
 39 60  1  0  0  0  0
 39 66  1  0  0  0  0
 39 77  2  0  0  0  0
 40 61  1  0  0  0  0
 40 72  1  0  0  0  0
 40 78  2  0  0  0  0
 41 67  1  0  0  0  0
 41 70  1  0  0  0  0
 41 79  2  0  0  0  0
 42 46  1  0  0  0  0
 43 53  1  0  0  0  0
 44 66  1  0  0  0  0
 45 65  1  0  0  0  0
 46 48  1  0  0  0  0
 47 49  1  0  0  0  0
 47 50  1  0  0  0  0
 48 52  1  0  0  0  0
 49 54  1  0  0  0  0
 50 67  1  0  0  0  0
 51 54  1  0  0  0  0
 51 67  1  0  0  0  0
 52 71  1  0  0  0  0
 53 66  1  0  0  0  0
 54 64  1  0  0  0  0
 55 61  1  0  0  0  0
 56 62  1  0  0  0  0
 57 62  1  0  0  0  0
 58 62  1  0  0  0  0
 59 73  1  0  0  0  0
 60 62  1  0  0  0  0
 60 72  1  0  0  0  0
 61 73  1  0  0  0  0
 63 64  1  0  0  0  0
M  CHG  1  73   1
M  ISO  4  36 101  41 100  70 100  82 101
M  END
> <Batch ID>
0081

> <Smiles>
CNC(C)C(=O)NC(C(=O)N1Cc2cc([101O:1][101CH:1]=C3CN(c4ccc([100NH:0][100C:0](=O)N5CCCC(n6nc(-c7ccc(Oc8ccc(F)cc8F)cc7)c(C(N)=O)c6N)C5)c(O)c4)C3=O)ccc2CC1C(=O)NC1CCCc2ccccc21)C(C)(C)C

> <Shape>
0.291

> <Color>
0.084

> <Negative vol penalty>
0.000

$$$$

  -OEChem-04052300043D

 87 96  0     1  0  0  0  0  0999 V2000
  -18.3310  -34.1701   17.6356 C   0  0  0  0  0  0  0  0  0  0  0  0
  -19.6097  -33.8997   17.1591 C   0  0  0  0  0  0  0  0  0  0  0  0
  -23.5145   -9.2511   22.5691 C   0  0  0  0  0  0  0  0  0  0  0  0
  -22.7295  -10.0908   20.4441 C   0  0  0  0  0  0  0  0  0  0  0  0
  -29.3497  -19.7550   19.7971 C   0  0  0  0  0  0  0  0  0  0  0  0
  -29.6697  -20.6432   22.0210 C   0  0  0  0  0  0  0  0  0  0  0  0
  -18.1464  -34.5237   18.9715 C   0  0  0  0  0  0  0  0  0  0  0  0
  -20.7049  -33.9838   18.0182 C   0  0  0  0  0  0  0  0  0  0  0  0
  -24.9701  -28.2916   19.1575 C   0  0  0  0  0  0  0  0  0  0  0  0
  -29.7133  -20.9867   19.2529 C   0  0  0  0  0  0  0  0  0  0  0  0
  -30.0334  -21.8749   21.4768 C   0  0  0  0  0  0  0  0  0  0  0  0
  -23.6318   -7.9738   22.0212 C   0  0  0  0  0  0  0  0  0  0  0  0
  -22.8468   -8.8134   19.8961 C   0  0  0  0  0  0  0  0  0  0  0  0
  -25.9551  -27.3095   19.2645 C   0  0  0  0  0  0  0  0  0  0  0  0
  -21.5850   -5.3966   21.2513 C   0  0  0  0  0  0  0  0  0  0  0  0
  -21.0994   -4.3242   21.9994 C   0  0  0  0  0  0  0  0  0  0  0  0
  -27.1638  -28.6791   20.8491 C   0  0  0  0  0  0  0  0  0  0  0  0
  -23.3077   -3.3445   22.0282 C   0  0  0  0  0  0  0  0  0  0  0  0
  -23.0633  -10.3096   21.7806 C   0  0  0  0  0  0  0  0  0  0  0  0
  -29.3278  -19.5832   21.1812 C   0  0  0  0  0  0  0  0  0  0  0  0
  -22.1361  -12.0167   23.4341 C   0  0  0  0  0  0  0  0  0  0  0  0
  -19.2387  -34.6028   19.8497 C   0  0  0  0  0  0  0  0  0  0  0  0
  -25.0706  -29.4660   19.9086 C   0  0  0  0  0  0  0  0  0  0  0  0
  -20.5349  -34.3401   19.3668 C   0  0  0  0  0  0  0  0  0  0  0  0
  -26.1739  -29.6610   20.7556 C   0  0  0  0  0  0  0  0  0  0  0  0
  -30.0552  -22.0467   20.0927 C   0  0  0  0  0  0  0  0  0  0  0  0
  -23.2980   -7.7550   20.6846 C   0  0  0  0  0  0  0  0  0  0  0  0
  -27.0493  -27.5029   20.1080 C   0  0  0  0  0  0  0  0  0  0  0  0
  -22.9319   -5.4430   20.8916 C   0  0  0  0  0  0  0  0  0  0  0  0
  -21.9607   -3.2981   22.3879 C   0  0  0  0  0  0  0  0  0  0  0  0
  -23.7932   -4.4169   21.2801 C   0  0  0  0  0  0  0  0  0  0  0  0
  -22.9413  -11.6292   22.3463 C   0  0  0  0  0  0  0  0  0  0  0  0
  -22.3749  -13.3618   23.5759 C   0  0  0  0  0  0  0  0  0  0  0  0
  -30.0625  -25.6961   19.3621 C   0  0  0  0  0  0  0  0  0  0  0  0
  -31.1730  -25.8430   18.3829 C   0  0  0  0  0  0  0  0  0  0  0  0
  -29.0662  -26.5902   19.3516 C   0  0  0  0  0  0  0  0  0  1  0  0
  -28.9426  -18.2783   21.7581 C   0  0  0  0  0  0  0  0  0  0  0  0
  -21.2515  -11.2310   24.2439 C   0  0  0  0  0  0  0  0  0  0  0  0
  -23.5481  -32.7715   20.8205 C   0  0  0  0  0  0  0  0  0  0  0  0
  -24.6701  -31.5633   23.4073 C   0  0  0  0  0  0  0  0  0  0  0  0
  -25.6615  -29.7028   26.0893 C   0  0  0  0  0  0  0  0  0  0  0  0
  -27.1651  -16.5519   21.9507 C   0  0  0  0  0  0  0  0  0  0  0  0
  -18.9953  -35.0351   21.2740 C   0  0  0  0  0  0  0  0  0  0  0  0
  -24.0648  -30.5775   19.7785 C   0  0  0  0  0  0  0  0  0  0  0  0
  -26.2580  -30.9549   21.5182 C   0  0  0  0  0  0  0  0  0  0  0  0
  -30.1484  -24.5184   20.2881 C   0  0  0  0  0  0  0  0  0  0  0  0
  -31.9405  -24.5810   18.0789 C   0  0  0  0  0  0  0  0  0  0  0  0
  -20.1642  -34.7368   22.2093 C   0  0  0  0  0  0  0  0  0  0  0  0
  -23.6185  -17.2407   21.1114 C   0  0  0  0  0  0  0  0  0  0  0  0
  -21.4813  -35.1684   21.5723 C   0  0  0  0  0  0  0  0  0  0  0  0
  -22.9949  -15.8723   21.3631 C   0  0  0  0  0  0  0  0  0  0  0  0
  -31.0629  -23.3410   18.2298 C   0  0  0  0  0  0  0  0  0  0  0  0
  -25.0635  -17.1364   20.6253 C   0  0  0  0  0  0  0  0  0  0  0  0
  -25.3045  -14.9505   21.7826 C   0  0  0  0  0  0  0  0  0  0  0  0
  -21.7451  -34.3966   20.2738 C   0  0  1  0  0  0  0  0  0  0  0  0
  -23.8133  -31.3218   21.1021 C   0  0  1  0  0  0  0  0  0  0  0  0
  -23.8704  -15.0526   22.3216 C   0  0  2  0  0  0  0  0  0  0  0  0
  -25.8385  -29.7916   28.5909 C   0  0  0  0  0  0  0  0  0  0  0  0
  -27.1145  -33.3717   23.1664 C   0  0  0  0  0  0  0  0  0  0  0  0
  -27.7804  -32.6597   25.4725 C   0  0  0  0  0  0  0  0  0  0  0  0
  -25.6317  -33.8757   25.1162 C   0  0  0  0  0  0  0  0  0  0  0  0
  -23.8323  -27.3993   26.4165 C   0  0  0  0  0  0  0  0  0  0  0  0
  -25.8359  -31.4721   24.3591 C   0  0  1  0  0  0  0  0  0  0  0  0
  -24.9750  -29.3878   27.4061 C   0  0  2  0  0  0  0  0  0  0  0  0
  -26.5866  -32.8255   24.5080 C   0  0  0  0  0  0  0  0  0  0  0  0
  -23.6393  -12.6460   21.8334 N   0  0  0  0  0  0  0  0  0  0  0  0
  -23.2733  -13.6857   22.6022 N   0  0  0  0  0  0  0  0  0  0  0  0
  -30.4192  -23.2804   19.5474 N   0  0  3  0  0  0  0  0  0  0  0  0
  -24.9350  -31.3077   22.0564 N   0  0  0  0  0  0  0  0  0  0  0  0
  -25.8759  -16.2693   21.4897 N   0  0  0  0  0  0  0  0  0  0  0  0
  -21.9018  -14.2874   24.4373 N   0  0  0  0  0  0  0  0  0  0  0  0
  -21.1242   -9.8641   23.9616 N   0  0  0  0  0  0  0  0  0  0  0  0
  -27.7185  -17.8035   21.4802 N   0  0  0  0  0  0  0  0  0  0  0  0
  -22.2211  -33.0618   20.5670 N   0  0  0  0  0  0  0  0  0  0  0  0
  -25.3015  -30.9445   25.6099 N   0  0  0  0  0  0  0  0  0  0  0  0
  -29.8366  -17.6553   22.5256 N   0  3  0  0  0  0  0  0  0  0  0  0
  -24.6921  -27.9280   27.5066 N   0  3  0  0  0  0  0  0  0  0  0  0
  -31.4757  -26.9238   17.8857 O   0  0  0  0  0  0  0  0  0  0  0  0
  -20.5809  -11.7298   25.1794 O   0  0  0  0  0  0  0  0  0  0  0  0
  -24.4780  -33.5695   20.8336 O   0  0  0  0  0  0  0  0  0  0  0  0
  -23.5549  -31.8584   23.8461 O   0  0  0  0  0  0  0  0  0  0  0  0
  -26.4421  -28.9267   25.5427 O   0  0  0  0  0  0  0  0  0  0  0  0
  -27.8400  -15.8253   22.6722 O   0  0  0  0  0  0  0  0  0  0  0  0
  -23.4126   -6.5088   20.1495 O   0  0  0  0  0  0  0  0  0  0  0  0
  -28.0049  -26.5380   20.2111 O   0  0  0  0  0  0  0  0  0  1  0  0
  -21.4946   -2.2691   23.1076 F   0  0  0  0  0  0  0  0  0  0  0  0
  -25.0884   -4.4565   20.9385 F   0  0  0  0  0  0  0  0  0  0  0  0
  1  2  1  0  0  0  0
  1  7  2  0  0  0  0
  2  8  2  0  0  0  0
  3 12  2  0  0  0  0
  3 19  1  0  0  0  0
  4 13  1  0  0  0  0
  4 19  2  0  0  0  0
  5 10  2  0  0  0  0
  5 20  1  0  0  0  0
  6 11  1  0  0  0  0
  6 20  2  0  0  0  0
  7 22  1  0  0  0  0
  8 24  1  0  0  0  0
  9 14  2  0  0  0  0
  9 23  1  0  0  0  0
 10 26  1  0  0  0  0
 11 26  2  0  0  0  0
 12 27  1  0  0  0  0
 13 27  2  0  0  0  0
 14 28  1  0  0  0  0
 15 16  2  0  0  0  0
 15 29  1  0  0  0  0
 16 30  1  0  0  0  0
 17 25  1  0  0  0  0
 17 28  2  0  0  0  0
 18 30  2  0  0  0  0
 18 31  1  0  0  0  0
 19 32  1  0  0  0  0
 20 37  1  0  0  0  0
 21 32  1  0  0  0  0
 21 33  2  0  0  0  0
 21 38  1  0  0  0  0
 22 24  2  0  0  0  0
 22 43  1  0  0  0  0
 23 25  2  0  0  0  0
 23 44  1  0  0  0  0
 24 55  1  0  0  0  0
 25 45  1  0  0  0  0
 26 68  1  0  0  0  0
 27 84  1  0  0  0  0
 28 85  1  0  0  0  0
 29 31  2  0  0  0  0
 29 84  1  0  0  0  0
 30 86  1  0  0  0  0
 31 87  1  0  0  0  0
 32 66  2  0  0  0  0
 33 67  1  0  0  0  0
 33 71  1  0  0  0  0
 34 35  1  0  0  0  0
 34 36  2  0  0  0  0
 34 46  1  0  0  0  0
 35 47  1  0  0  0  0
 35 78  2  0  0  0  0
 36 85  1  0  0  0  0
 37 73  1  0  0  0  0
 37 76  2  0  0  0  0
 38 72  1  0  0  0  0
 38 79  2  0  0  0  0
 39 56  1  0  0  0  0
 39 74  1  0  0  0  0
 39 80  2  0  0  0  0
 40 63  1  0  0  0  0
 40 69  1  0  0  0  0
 40 81  2  0  0  0  0
 41 64  1  0  0  0  0
 41 75  1  0  0  0  0
 41 82  2  0  0  0  0
 42 70  1  0  0  0  0
 42 73  1  0  0  0  0
 42 83  2  0  0  0  0
 43 48  1  0  0  0  0
 44 56  1  0  0  0  0
 45 69  1  0  0  0  0
 46 68  1  0  0  0  0
 47 52  1  0  0  0  0
 48 50  1  0  0  0  0
 49 51  1  0  0  0  0
 49 53  1  0  0  0  0
 50 55  1  0  0  0  0
 51 57  1  0  0  0  0
 52 68  1  0  0  0  0
 53 70  1  0  0  0  0
 54 57  1  0  0  0  0
 54 70  1  0  0  0  0
 55 74  1  0  0  0  0
 56 69  1  0  0  0  0
 57 67  1  0  0  0  0
 58 64  1  0  0  0  0
 59 65  1  0  0  0  0
 60 65  1  0  0  0  0
 61 65  1  0  0  0  0
 62 77  1  0  0  0  0
 63 65  1  0  0  0  0
 63 75  1  0  0  0  0
 64 77  1  0  0  0  0
 66 67  1  0  0  0  0
M  CHG  2  76   1  77   1
M  ISO  4  36 101  42 100  73 100  85 101
M  END
> <Batch ID>
0081

> <Smiles>
CNC(C)C(=O)NC(C(=O)N1Cc2cc([101O:1][101CH:1]=C3CN(c4ccc(C(=N)[100NH:0][100C:0](=O)N5CCCC(n6nc(-c7ccc(Oc8ccc(F)cc8F)cc7)c(C(N)=O)c6N)C5)cc4)CCC3=O)ccc2CC1C(=O)NC1CCCc2ccccc21)C(C)(C)C

> <Shape>
0.273

> <Color>
0.083

> <Negative vol penalty>
0.000

$$$$

  -OEChem-04052300043D

 87 96  0     1  0  0  0  0  0999 V2000
  -31.6900  -34.1694   23.1738 C   0  0  0  0  0  0  0  0  0  0  0  0
  -31.6648  -32.8382   22.7705 C   0  0  0  0  0  0  0  0  0  0  0  0
  -23.0120   -9.8190   19.9924 C   0  0  0  0  0  0  0  0  0  0  0  0
  -23.7751   -9.8877   22.2837 C   0  0  0  0  0  0  0  0  0  0  0  0
  -29.2505  -16.9033   19.7255 C   0  0  0  0  0  0  0  0  0  0  0  0
  -30.5455  -34.7549   23.7135 C   0  0  0  0  0  0  0  0  0  0  0  0
  -30.4953  -32.0914   22.9076 C   0  0  0  0  0  0  0  0  0  0  0  0
  -28.4741  -27.6938   19.1550 C   0  0  0  0  0  0  0  0  0  0  0  0
  -28.5485  -18.0044   19.2353 C   0  0  0  0  0  0  0  0  0  0  0  0
  -22.2627   -8.6773   20.2761 C   0  0  0  0  0  0  0  0  0  0  0  0
  -23.0257   -8.7459   22.5675 C   0  0  0  0  0  0  0  0  0  0  0  0
  -28.5500  -26.3029   19.2132 C   0  0  0  0  0  0  0  0  0  0  0  0
  -23.2991   -5.4079   22.1049 C   0  0  0  0  0  0  0  0  0  0  0  0
  -23.9105   -4.4004   22.8511 C   0  0  0  0  0  0  0  0  0  0  0  0
  -28.8085  -17.6283   21.9873 C   0  0  0  0  0  0  0  0  0  0  0  0
  -26.3459  -26.2296   20.1907 C   0  0  0  0  0  0  0  0  0  0  0  0
  -22.2124   -4.6314   24.5541 C   0  0  0  0  0  0  0  0  0  0  0  0
  -23.7683  -10.4242   20.9961 C   0  0  0  0  0  0  0  0  0  0  0  0
  -29.3805  -16.7152   21.1015 C   0  0  0  0  0  0  0  0  0  0  0  0
  -24.1226  -12.9431   20.8036 C   0  0  0  0  0  0  0  0  0  0  0  0
  -29.3586  -34.0177   23.8483 C   0  0  0  0  0  0  0  0  0  0  0  0
  -27.3360  -28.3649   19.6250 C   0  0  0  0  0  0  0  0  0  0  0  0
  -29.3342  -32.6672   23.4508 C   0  0  0  0  0  0  0  0  0  0  0  0
  -26.2569  -27.6289   20.1350 C   0  0  0  0  0  0  0  0  0  0  0  0
  -27.9765  -18.9175   20.1211 C   0  0  0  0  0  0  0  0  0  0  0  0
  -28.1065  -18.7295   21.4971 C   0  0  0  0  0  0  0  0  0  0  0  0
  -22.2695   -8.1407   21.5637 C   0  0  0  0  0  0  0  0  0  0  0  0
  -27.4870  -25.5708   19.7338 C   0  0  0  0  0  0  0  0  0  0  0  0
  -22.1444   -6.0272   22.5833 C   0  0  0  0  0  0  0  0  0  0  0  0
  -23.3671   -4.0121   24.0757 C   0  0  0  0  0  0  0  0  0  0  0  0
  -21.6011   -5.6389   23.8079 C   0  0  0  0  0  0  0  0  0  0  0  0
  -24.5430  -11.6033   20.7035 C   0  0  0  0  0  0  0  0  0  0  0  0
  -25.2180  -13.6764   20.4176 C   0  0  0  0  0  0  0  0  0  0  0  0
  -26.5931  -22.1442   19.1001 C   0  0  0  0  0  0  0  0  0  0  0  0
  -25.6726  -21.2564   18.4351 C   0  0  0  0  0  0  0  0  0  0  0  0
  -27.6122  -21.3526   19.8442 C   0  0  0  0  0  0  0  0  0  0  0  0
  -24.6222  -21.5709   17.6695 C   0  0  0  0  0  0  0  0  0  0  0  0
  -26.6196  -23.4892   19.1130 C   0  0  0  0  0  0  0  0  0  1  0  0
  -30.1124  -15.5668   21.6121 C   0  0  0  0  0  0  0  0  0  0  0  0
  -22.8553  -13.4771   21.2092 C   0  0  0  0  0  0  0  0  0  0  0  0
  -30.7314  -14.5789   20.6988 C   0  0  0  0  0  0  0  0  0  0  0  0
  -26.7722  -30.4853   21.9249 C   0  0  0  0  0  0  0  0  0  0  0  0
  -23.7979  -30.5160   20.6308 C   0  0  0  0  0  0  0  0  0  0  0  0
  -21.4185  -28.8946   18.7988 C   0  0  0  0  0  0  0  0  0  0  0  0
  -28.1604  -34.6801   24.4810 C   0  0  0  0  0  0  0  0  0  0  0  0
  -27.2587  -29.8640   19.5305 C   0  0  0  0  0  0  0  0  0  0  0  0
  -25.0044  -28.3003   20.6338 C   0  0  0  0  0  0  0  0  0  0  0  0
  -26.1034  -19.8569   18.7551 C   0  0  0  0  0  0  0  0  0  0  0  0
  -26.8533  -33.9275   24.2458 C   0  0  0  0  0  0  0  0  0  0  0  0
  -29.5465  -12.2528   18.2407 C   0  0  0  0  0  0  0  0  0  0  0  0
  -27.0398  -32.4373   24.5133 C   0  0  0  0  0  0  0  0  0  0  0  0
  -28.1172  -11.9574   18.6942 C   0  0  0  0  0  0  0  0  0  0  0  0
  -30.4733  -12.4831   19.4301 C   0  0  0  0  0  0  0  0  0  0  0  0
  -28.5727  -13.2647   20.8177 C   0  0  0  0  0  0  0  0  0  0  0  0
  -28.0774  -31.8314   23.5605 C   0  0  1  0  0  0  0  0  0  0  0  0
  -26.2623  -30.4740   20.5116 C   0  0  1  0  0  0  0  0  0  0  0  0
  -27.6013  -13.0538   19.6432 C   0  0  2  0  0  0  0  0  0  0  0  0
  -19.0747  -29.1568   17.9412 C   0  0  0  0  0  0  0  0  0  0  0  0
  -22.7135  -29.9283   23.4216 C   0  0  0  0  0  0  0  0  0  0  0  0
  -20.5423  -29.2693   22.3633 C   0  0  0  0  0  0  0  0  0  0  0  0
  -21.3892  -31.6029   22.1192 C   0  0  0  0  0  0  0  0  0  0  0  0
  -22.3053  -28.7121   15.9812 C   0  0  0  0  0  0  0  0  0  0  0  0
  -22.5267  -29.7328   20.8539 C   0  0  1  0  0  0  0  0  0  0  0  0
  -20.5522  -29.3547   17.6402 C   0  0  2  0  0  0  0  0  0  0  0  0
  -21.8172  -30.1205   22.1820 C   0  0  0  0  0  0  0  0  0  0  0  0
  -25.8067  -11.4891   20.2865 N   0  0  0  0  0  0  0  0  0  0  0  0
  -30.2753  -15.3293   22.8856 N   0  0  0  0  0  0  0  0  0  0  0  0
  -26.1899  -12.7666   20.1211 N   0  0  0  0  0  0  0  0  0  0  0  0
  -27.2796  -20.0075   19.6095 N   0  0  0  0  0  0  0  0  0  0  0  0
  -29.9365  -13.5031   20.3287 N   0  0  0  0  0  0  0  0  0  0  0  0
  -24.9793  -29.7683   20.5261 N   0  0  0  0  0  0  0  0  0  0  0  0
  -27.5345  -19.6409   22.4129 N   0  0  0  0  0  0  0  0  0  0  0  0
  -25.4350  -15.0041   20.3063 N   0  0  0  0  0  0  0  0  0  0  0  0
  -21.8393  -12.5831   21.5736 N   0  0  0  0  0  0  0  0  0  0  0  0
  -27.4970  -31.6152   22.2526 N   0  0  0  0  0  0  0  0  0  0  0  0
  -21.7108  -29.9304   19.6608 N   0  0  0  0  0  0  0  0  0  0  0  0
  -20.8874  -28.5885   16.4067 N   0  3  0  0  0  0  0  0  0  0  0  0
  -28.5287  -21.8078   20.5077 O   0  0  0  0  0  0  0  0  0  0  0  0
  -22.6254  -14.7101   21.2316 O   0  0  0  0  0  0  0  0  0  0  0  0
  -31.8850  -14.8182   20.3667 O   0  0  0  0  0  0  0  0  0  0  0  0
  -26.5250  -29.5395   22.6640 O   0  0  0  0  0  0  0  0  0  0  0  0
  -23.7436  -31.7454   20.5452 O   0  0  0  0  0  0  0  0  0  0  0  0
  -21.7948  -27.7318   18.9284 O   0  0  0  0  0  0  0  0  0  0  0  0
  -21.5382   -7.0268   21.8410 O   0  0  0  0  0  0  0  0  0  0  0  0
  -27.5588  -24.2131   19.7925 O   0  0  0  0  0  0  0  0  0  1  0  0
  -23.9534   -3.0436   24.7914 F   0  0  0  0  0  0  0  0  0  0  0  0
  -20.4912   -6.2294   24.2721 F   0  0  0  0  0  0  0  0  0  0  0  0
  1  2  1  0  0  0  0
  1  6  2  0  0  0  0
  2  7  2  0  0  0  0
  3 10  2  0  0  0  0
  3 18  1  0  0  0  0
  4 11  1  0  0  0  0
  4 18  2  0  0  0  0
  5  9  2  0  0  0  0
  5 19  1  0  0  0  0
  6 21  1  0  0  0  0
  7 23  1  0  0  0  0
  8 12  2  0  0  0  0
  8 22  1  0  0  0  0
  9 25  1  0  0  0  0
 10 27  1  0  0  0  0
 11 27  2  0  0  0  0
 12 28  1  0  0  0  0
 13 14  2  0  0  0  0
 13 29  1  0  0  0  0
 14 30  1  0  0  0  0
 15 19  2  0  0  0  0
 15 26  1  0  0  0  0
 16 24  1  0  0  0  0
 16 28  2  0  0  0  0
 17 30  2  0  0  0  0
 17 31  1  0  0  0  0
 18 32  1  0  0  0  0
 19 39  1  0  0  0  0
 20 32  1  0  0  0  0
 20 33  2  0  0  0  0
 20 40  1  0  0  0  0
 21 23  2  0  0  0  0
 21 45  1  0  0  0  0
 22 24  2  0  0  0  0
 22 46  1  0  0  0  0
 23 55  1  0  0  0  0
 24 47  1  0  0  0  0
 25 26  2  0  0  0  0
 25 69  1  0  0  0  0
 26 72  1  0  0  0  0
 27 84  1  0  0  0  0
 28 85  1  0  0  0  0
 29 31  2  0  0  0  0
 29 84  1  0  0  0  0
 30 86  1  0  0  0  0
 31 87  1  0  0  0  0
 32 66  2  0  0  0  0
 33 68  1  0  0  0  0
 33 73  1  0  0  0  0
 34 35  1  0  0  0  0
 34 36  1  0  0  0  0
 34 38  2  0  0  0  0
 35 37  2  0  0  0  0
 35 48  1  0  0  0  0
 36 69  1  0  0  0  0
 36 78  2  0  0  0  0
 38 85  1  0  0  0  0
 39 41  1  0  0  0  0
 39 67  2  0  0  0  0
 40 74  1  0  0  0  0
 40 79  2  0  0  0  0
 41 70  1  0  0  0  0
 41 80  2  0  0  0  0
 42 56  1  0  0  0  0
 42 75  1  0  0  0  0
 42 81  2  0  0  0  0
 43 63  1  0  0  0  0
 43 71  1  0  0  0  0
 43 82  2  0  0  0  0
 44 64  1  0  0  0  0
 44 76  1  0  0  0  0
 44 83  2  0  0  0  0
 45 49  1  0  0  0  0
 46 56  1  0  0  0  0
 47 71  1  0  0  0  0
 48 69  1  0  0  0  0
 49 51  1  0  0  0  0
 50 52  1  0  0  0  0
 50 53  1  0  0  0  0
 51 55  1  0  0  0  0
 52 57  1  0  0  0  0
 53 70  1  0  0  0  0
 54 57  1  0  0  0  0
 54 70  1  0  0  0  0
 55 75  1  0  0  0  0
 56 71  1  0  0  0  0
 57 68  1  0  0  0  0
 58 64  1  0  0  0  0
 59 65  1  0  0  0  0
 60 65  1  0  0  0  0
 61 65  1  0  0  0  0
 62 77  1  0  0  0  0
 63 65  1  0  0  0  0
 63 76  1  0  0  0  0
 64 77  1  0  0  0  0
 66 68  1  0  0  0  0
M  CHG  1  77   1
M  ISO  4  38 101  39 100  41 100  85 101
M  END
> <Batch ID>
0081

> <Smiles>
C=C1CN(c2ccc([100C:0](=N)[100C:0](=O)N3CCCC(n4nc(-c5ccc(Oc6ccc(F)cc6F)cc5)c(C(N)=O)c4N)C3)cc2N)C(=O)C1=[101CH:1][101O:1]c1ccc2c(c1)CN(C(=O)C(NC(=O)C(C)NC)C(C)(C)C)C(C(=O)NC1CCCc3ccccc31)C2

> <Shape>
0.359

> <Color>
0.196

> <Negative vol penalty>
0.000

$$$$

  -OEChem-04052300043D

 84 93  0     1  0  0  0  0  0999 V2000
  -30.8419  -33.8364   25.7025 C   0  0  0  0  0  0  0  0  0  0  0  0
  -30.8966  -33.0949   24.5266 C   0  0  0  0  0  0  0  0  0  0  0  0
  -24.1647  -18.2842   16.2983 C   0  0  0  0  0  0  0  0  0  0  0  0
  -24.6852   -9.1379   21.9737 C   0  0  0  0  0  0  0  0  0  0  0  0
  -23.3495  -10.0290   20.1685 C   0  0  0  0  0  0  0  0  0  0  0  0
  -29.8814  -33.5393   26.6685 C   0  0  0  0  0  0  0  0  0  0  0  0
  -29.9915  -32.0551   24.3166 C   0  0  0  0  0  0  0  0  0  0  0  0
  -26.3964  -28.7571   19.0712 C   0  0  0  0  0  0  0  0  0  0  0  0
  -24.3094  -19.6032   16.7280 C   0  0  0  0  0  0  0  0  0  0  0  0
  -24.9580  -17.2792   16.8518 C   0  0  0  0  0  0  0  0  0  0  0  0
  -23.5394   -8.5922   22.5523 C   0  0  0  0  0  0  0  0  0  0  0  0
  -22.2036   -9.4833   20.7470 C   0  0  0  0  0  0  0  0  0  0  0  0
  -26.1652  -27.4801   18.5616 C   0  0  0  0  0  0  0  0  0  0  0  0
  -21.5576   -5.8925   22.0864 C   0  0  0  0  0  0  0  0  0  0  0  0
  -21.6290   -4.5797   22.5524 C   0  0  0  0  0  0  0  0  0  0  0  0
  -24.4986  -27.1084   20.2656 C   0  0  0  0  0  0  0  0  0  0  0  0
  -26.0410  -18.9125   18.2648 C   0  0  0  0  0  0  0  0  0  0  0  0
  -21.0877   -5.3412   24.7804 C   0  0  0  0  0  0  0  0  0  0  0  0
  -24.5903   -9.8563   20.7818 C   0  0  0  0  0  0  0  0  0  0  0  0
  -26.6285   -9.8077   19.2485 C   0  0  0  0  0  0  0  0  0  0  0  0
  -28.9579  -32.5016   26.4660 C   0  0  0  0  0  0  0  0  0  0  0  0
  -25.6870  -29.2160   20.1904 C   0  0  0  0  0  0  0  0  0  0  0  0
  -29.0187  -31.7430   25.2814 C   0  0  0  0  0  0  0  0  0  0  0  0
  -24.7209  -28.3926   20.7859 C   0  0  0  0  0  0  0  0  0  0  0  0
  -25.2476  -19.9174   17.7112 C   0  0  0  0  0  0  0  0  0  0  0  0
  -25.8962  -17.5934   17.8350 C   0  0  0  0  0  0  0  0  0  0  0  0
  -22.2985   -8.7649   21.9389 C   0  0  0  0  0  0  0  0  0  0  0  0
  -25.2182  -26.6545   19.1606 C   0  0  0  0  0  0  0  0  0  0  0  0
  -21.2514   -6.9297   22.9674 C   0  0  0  0  0  0  0  0  0  0  0  0
  -21.3940   -4.3041   23.8994 C   0  0  0  0  0  0  0  0  0  0  0  0
  -21.0164   -6.6540   24.3144 C   0  0  0  0  0  0  0  0  0  0  0  0
  -25.7736  -10.4207   20.1839 C   0  0  0  0  0  0  0  0  0  0  0  0
  -27.5952  -10.7505   18.9974 C   0  0  0  0  0  0  0  0  0  0  0  0
  -25.5948  -23.1006   18.7479 C   0  0  0  0  0  0  0  0  0  0  0  0
  -26.2015  -21.8100   19.0559 C   0  0  0  0  0  0  0  0  0  0  0  0
  -24.7687  -22.3801   17.7849 C   0  0  0  0  0  0  0  0  0  0  0  0
  -25.7335  -24.3730   19.1622 C   0  0  0  0  0  0  0  0  0  1  0  0
  -26.5553   -8.5027   18.6591 C   0  0  0  0  0  0  0  0  0  0  0  0
  -26.4819  -30.1386   23.1265 C   0  0  0  0  0  0  0  0  0  0  0  0
  -23.3349  -30.9012   23.3185 C   0  0  0  0  0  0  0  0  0  0  0  0
  -20.1549  -30.3853   22.1925 C   0  0  0  0  0  0  0  0  0  0  0  0
  -27.6797  -16.7130   19.3811 C   0  0  0  0  0  0  0  0  0  0  0  0
  -27.9682  -32.1869   27.5596 C   0  0  0  0  0  0  0  0  0  0  0  0
  -25.9291  -30.6060   20.7115 C   0  0  0  0  0  0  0  0  0  0  0  0
  -23.9181  -28.8456   21.9770 C   0  0  0  0  0  0  0  0  0  0  0  0
  -26.8061  -31.3122   27.0962 C   0  0  0  0  0  0  0  0  0  0  0  0
  -29.8510  -14.4405   21.0540 C   0  0  0  0  0  0  0  0  0  0  0  0
  -27.3188  -30.1370   26.2700 C   0  0  0  0  0  0  0  0  0  0  0  0
  -29.1326  -13.0949   20.9303 C   0  0  0  0  0  0  0  0  0  0  0  0
  -28.8676  -15.5923   21.2541 C   0  0  0  0  0  0  0  0  0  0  0  0
  -27.0763  -14.3277   20.1309 C   0  0  0  0  0  0  0  0  0  0  0  0
  -28.0384  -30.6235   25.0062 C   0  0  1  0  0  0  0  0  0  0  0  0
  -25.5155  -30.7778   22.1699 C   0  0  1  0  0  0  0  0  0  0  0  0
  -28.0216  -13.1452   19.8631 C   0  0  2  0  0  0  0  0  0  0  0  0
  -17.7875  -31.1284   22.5675 C   0  0  0  0  0  0  0  0  0  0  0  0
  -23.2081  -29.2092   25.8544 C   0  0  0  0  0  0  0  0  0  0  0  0
  -20.7134  -29.2048   25.6433 C   0  0  0  0  0  0  0  0  0  0  0  0
  -21.9320  -31.3570   25.9685 C   0  0  0  0  0  0  0  0  0  0  0  0
  -19.9155  -31.4096   19.4262 C   0  0  0  0  0  0  0  0  0  0  0  0
  -22.0820  -30.1722   23.7401 C   0  0  1  0  0  0  0  0  0  0  0  0
  -19.0647  -31.3553   21.7739 C   0  0  2  0  0  0  0  0  0  0  0  0
  -22.0002  -29.9762   25.2803 C   0  0  0  0  0  0  0  0  0  0  0  0
  -26.1630  -11.6573   20.5055 N   0  0  0  0  0  0  0  0  0  0  0  0
  -27.2733  -11.8288   19.7680 N   0  0  0  0  0  0  0  0  0  0  0  0
  -25.3894  -21.2176   18.1346 N   0  0  0  0  0  0  0  0  0  0  0  0
  -24.1956  -30.2106   22.4537 N   0  0  0  0  0  0  0  0  0  0  0  0
  -27.8468  -15.5791   20.2040 N   0  0  0  0  0  0  0  0  0  0  0  0
  -28.6808  -10.7540   18.1950 N   0  0  0  0  0  0  0  0  0  0  0  0
  -25.4968   -7.6614   19.0280 N   0  0  0  0  0  0  0  0  0  0  0  0
  -26.7018  -16.5721   18.3970 N   0  0  0  0  0  0  0  0  0  0  0  0
  -27.0780  -31.0267   24.0014 N   0  0  0  0  0  0  0  0  0  0  0  0
  -20.9646  -30.9191   23.1726 N   0  0  0  0  0  0  0  0  0  0  0  0
  -18.7536  -31.1913   20.3257 N   0  3  0  0  0  0  0  0  0  0  0  0
  -27.0655  -21.4174   19.8118 O   0  0  0  0  0  0  0  0  0  0  0  0
  -23.8944  -22.6793   16.9988 O   0  0  0  0  0  0  0  0  0  0  0  0
  -27.4126   -8.0887   17.8423 O   0  0  0  0  0  0  0  0  0  0  0  0
  -26.6716  -28.9290   23.0755 O   0  0  0  0  0  0  0  0  0  0  0  0
  -23.5387  -32.0442   23.7354 O   0  0  0  0  0  0  0  0  0  0  0  0
  -20.2737  -29.2647   21.7019 O   0  0  0  0  0  0  0  0  0  0  0  0
  -28.3732  -17.7237   19.5203 O   0  0  0  0  0  0  0  0  0  0  0  0
  -21.1802   -8.2323   22.5031 O   0  0  0  0  0  0  0  0  0  0  0  0
  -24.9911  -25.4074   18.6657 O   0  0  0  0  0  0  0  0  0  1  0  0
  -21.4610   -3.0432   24.3464 F   0  0  0  0  0  0  0  0  0  0  0  0
  -20.7207   -7.6461   25.1654 F   0  0  0  0  0  0  0  0  0  0  0  0
  1  2  1  0  0  0  0
  1  6  2  0  0  0  0
  2  7  2  0  0  0  0
  3  9  2  0  0  0  0
  3 10  1  0  0  0  0
  4 11  2  0  0  0  0
  4 19  1  0  0  0  0
  5 12  1  0  0  0  0
  5 19  2  0  0  0  0
  6 21  1  0  0  0  0
  7 23  1  0  0  0  0
  8 13  2  0  0  0  0
  8 22  1  0  0  0  0
  9 25  1  0  0  0  0
 10 26  2  0  0  0  0
 11 27  1  0  0  0  0
 12 27  2  0  0  0  0
 13 28  1  0  0  0  0
 14 15  2  0  0  0  0
 14 29  1  0  0  0  0
 15 30  1  0  0  0  0
 16 24  1  0  0  0  0
 16 28  2  0  0  0  0
 17 25  2  0  0  0  0
 17 26  1  0  0  0  0
 18 30  2  0  0  0  0
 18 31  1  0  0  0  0
 19 32  1  0  0  0  0
 20 32  1  0  0  0  0
 20 33  2  0  0  0  0
 20 38  1  0  0  0  0
 21 23  2  0  0  0  0
 21 43  1  0  0  0  0
 22 24  2  0  0  0  0
 22 44  1  0  0  0  0
 23 52  1  0  0  0  0
 24 45  1  0  0  0  0
 25 65  1  0  0  0  0
 26 70  1  0  0  0  0
 27 81  1  0  0  0  0
 28 82  1  0  0  0  0
 29 31  2  0  0  0  0
 29 81  1  0  0  0  0
 30 83  1  0  0  0  0
 31 84  1  0  0  0  0
 32 63  2  0  0  0  0
 33 64  1  0  0  0  0
 33 68  1  0  0  0  0
 34 35  1  0  0  0  0
 34 36  1  0  0  0  0
 34 37  2  0  0  0  0
 35 65  1  0  0  0  0
 35 74  2  0  0  0  0
 36 65  1  0  0  0  0
 36 75  2  0  0  0  0
 37 82  1  0  0  0  0
 38 69  1  0  0  0  0
 38 76  2  0  0  0  0
 39 53  1  0  0  0  0
 39 71  1  0  0  0  0
 39 77  2  0  0  0  0
 40 60  1  0  0  0  0
 40 66  1  0  0  0  0
 40 78  2  0  0  0  0
 41 61  1  0  0  0  0
 41 72  1  0  0  0  0
 41 79  2  0  0  0  0
 42 67  1  0  0  0  0
 42 70  1  0  0  0  0
 42 80  2  0  0  0  0
 43 46  1  0  0  0  0
 44 53  1  0  0  0  0
 45 66  1  0  0  0  0
 46 48  1  0  0  0  0
 47 49  1  0  0  0  0
 47 50  1  0  0  0  0
 48 52  1  0  0  0  0
 49 54  1  0  0  0  0
 50 67  1  0  0  0  0
 51 54  1  0  0  0  0
 51 67  1  0  0  0  0
 52 71  1  0  0  0  0
 53 66  1  0  0  0  0
 54 64  1  0  0  0  0
 55 61  1  0  0  0  0
 56 62  1  0  0  0  0
 57 62  1  0  0  0  0
 58 62  1  0  0  0  0
 59 73  1  0  0  0  0
 60 62  1  0  0  0  0
 60 72  1  0  0  0  0
 61 73  1  0  0  0  0
 63 64  1  0  0  0  0
M  CHG  1  73   1
M  ISO  4  37 101  42 100  70 100  82 101
M  END
> <Batch ID>
0081

> <Smiles>
CNC(C)C(=O)NC(C(=O)N1Cc2cc([101O:1][101CH:1]=C3C(=O)N(c4cccc([100NH:0][100C:0](=O)N5CCCC(n6nc(-c7ccc(Oc8ccc(F)cc8F)cc7)c(C(N)=O)c6N)C5)c4)C3=O)ccc2CC1C(=O)NC1CCCc2ccccc21)C(C)(C)C

> <Shape>
0.249

> <Color>
0.093

> <Negative vol penalty>
0.000

$$$$

  -OEChem-04052300043D

 86 95  0     1  0  0  0  0  0999 V2000
  -26.8110  -36.3970   21.4556 C   0  0  0  0  0  0  0  0  0  0  0  0
  -27.6348  -35.2764   21.4235 C   0  0  0  0  0  0  0  0  0  0  0  0
  -23.6322   -9.7797   21.9601 C   0  0  0  0  0  0  0  0  0  0  0  0
  -24.4986  -11.1086   23.7823 C   0  0  0  0  0  0  0  0  0  0  0  0
  -25.4739  -36.2674   21.8288 C   0  0  0  0  0  0  0  0  0  0  0  0
  -27.1221  -34.0256   21.7657 C   0  0  0  0  0  0  0  0  0  0  0  0
  -28.6806  -28.6204   19.3447 C   0  0  0  0  0  0  0  0  0  0  0  0
  -31.7715  -19.2844   19.5998 C   0  0  0  0  0  0  0  0  0  0  0  0
  -31.3114  -17.9865   19.3783 C   0  0  0  0  0  0  0  0  0  0  0  0
  -23.1339   -8.8513   22.8740 C   0  0  0  0  0  0  0  0  0  0  0  0
  -24.0003  -10.1802   24.6963 C   0  0  0  0  0  0  0  0  0  0  0  0
  -29.5478  -27.6161   19.7725 C   0  0  0  0  0  0  0  0  0  0  0  0
  -20.4711   -8.5707   24.9388 C   0  0  0  0  0  0  0  0  0  0  0  0
  -19.1724   -8.1009   24.7430 C   0  0  0  0  0  0  0  0  0  0  0  0
  -27.6870  -26.4352   20.7531 C   0  0  0  0  0  0  0  0  0  0  0  0
  -29.5029  -20.0244   19.9775 C   0  0  0  0  0  0  0  0  0  0  0  0
  -20.0175   -5.8460   24.5474 C   0  0  0  0  0  0  0  0  0  0  0  0
  -24.3146  -10.9084   22.4142 C   0  0  0  0  0  0  0  0  0  0  0  0
  -24.1665  -12.9996   20.9608 C   0  0  0  0  0  0  0  0  0  0  0  0
  -24.9421  -35.0128   22.1664 C   0  0  0  0  0  0  0  0  0  0  0  0
  -27.3092  -28.5449   19.6279 C   0  0  0  0  0  0  0  0  0  0  0  0
  -25.7770  -33.8793   22.1451 C   0  0  0  0  0  0  0  0  0  0  0  0
  -26.8040  -27.4385   20.3257 C   0  0  0  0  0  0  0  0  0  0  0  0
  -30.8673  -20.3034   19.8995 C   0  0  0  0  0  0  0  0  0  0  0  0
  -29.9469  -17.7074   19.4563 C   0  0  0  0  0  0  0  0  0  0  0  0
  -23.3180   -9.0515   24.2421 C   0  0  0  0  0  0  0  0  0  0  0  0
  -29.0516  -26.5247   20.4793 C   0  0  0  0  0  0  0  0  0  0  0  0
  -21.5430   -7.6781   24.9389 C   0  0  0  0  0  0  0  0  0  0  0  0
  -18.9456   -6.7386   24.5473 C   0  0  0  0  0  0  0  0  0  0  0  0
  -29.0427  -18.7264   19.7559 C   0  0  0  0  0  0  0  0  0  0  0  0
  -21.3162   -6.3158   24.7433 C   0  0  0  0  0  0  0  0  0  0  0  0
  -24.8300  -11.8675   21.4706 C   0  0  0  0  0  0  0  0  0  0  0  0
  -25.0764  -13.5762   20.1088 C   0  0  0  0  0  0  0  0  0  0  0  0
  -32.6252  -23.3917   20.6967 C   0  0  0  0  0  0  0  0  0  0  0  0
  -31.4753  -23.8827   20.2394 C   0  0  0  0  0  0  0  0  0  0  0  0
  -32.5603  -21.9243   20.6425 C   0  0  0  0  0  0  0  0  0  0  0  0
  -30.6141  -22.7499   19.8481 C   0  0  0  0  0  0  0  0  0  0  0  0
  -22.8457  -13.4865   21.2332 C   0  0  0  0  0  0  0  0  0  0  0  0
  -25.2589  -30.3243   21.2813 C   0  0  0  0  0  0  0  0  0  0  0  0
  -23.0787  -28.2606   20.0521 C   0  0  0  0  0  0  0  0  0  0  0  0
  -22.4246  -25.1781   18.7417 C   0  0  0  0  0  0  0  0  0  0  0  0
  -30.2482  -15.2640   18.9223 C   0  0  0  0  0  0  0  0  0  0  0  0
  -23.5028  -34.9298   22.6091 C   0  0  0  0  0  0  0  0  0  0  0  0
  -26.3830  -29.6232   19.1363 C   0  0  0  0  0  0  0  0  0  0  0  0
  -25.3371  -27.3000   20.6375 C   0  0  0  0  0  0  0  0  0  0  0  0
  -22.9423  -33.5099   22.5954 C   0  0  0  0  0  0  0  0  0  0  0  0
  -29.4846  -11.8372   18.3298 C   0  0  0  0  0  0  0  0  0  0  0  0
  -23.9231  -32.5425   23.2503 C   0  0  0  0  0  0  0  0  0  0  0  0
  -28.1510  -11.6327   19.0521 C   0  0  0  0  0  0  0  0  0  0  0  0
  -30.4030  -12.7897   19.0933 C   0  0  0  0  0  0  0  0  0  0  0  0
  -28.4702  -13.8801   20.1630 C   0  0  0  0  0  0  0  0  0  0  0  0
  -25.2515  -32.5016   22.4855 C   0  0  1  0  0  0  0  0  0  0  0  0
  -25.0805  -29.6983   19.9270 C   0  0  1  0  0  0  0  0  0  0  0  0
  -27.4860  -12.9791   19.3994 C   0  0  2  0  0  0  0  0  0  0  0  0
  -20.5418  -23.7692   17.8657 C   0  0  0  0  0  0  0  0  0  0  0  0
  -22.1270  -27.7611   22.9077 C   0  0  0  0  0  0  0  0  0  0  0  0
  -20.9532  -25.7091   22.0834 C   0  0  0  0  0  0  0  0  0  0  0  0
  -20.2951  -27.9535   21.2162 C   0  0  0  0  0  0  0  0  0  0  0  0
  -23.6754  -24.9632   16.0681 C   0  0  0  0  0  0  0  0  0  0  0  0
  -31.0558  -25.3010   20.1033 C   0  0  0  0  0  0  0  0  0  1  0  0
  -22.4933  -26.9391   20.4878 C   0  0  1  0  0  0  0  0  0  0  0  0
  -21.6467  -24.7517   17.5098 C   0  0  2  0  0  0  0  0  0  0  0  0
  -21.4951  -27.0940   21.6698 C   0  0  0  0  0  0  0  0  0  0  0  0
  -26.0660  -11.7312   20.9830 N   0  0  0  0  0  0  0  0  0  0  0  0
  -26.1863  -12.7851   20.1578 N   0  0  0  0  0  0  0  0  0  0  0  0
  -31.3257  -21.5974   20.1197 N   0  0  0  0  0  0  0  0  0  0  0  0
  -24.4726  -28.3834   20.1411 N   0  0  0  0  0  0  0  0  0  0  0  0
  -29.7071  -14.0453   19.3836 N   0  0  0  0  0  0  0  0  0  0  0  0
  -25.0274  -14.6777   19.3298 N   0  0  0  0  0  0  0  0  0  0  0  0
  -22.0432  -12.7731   22.1340 N   0  0  0  0  0  0  0  0  0  0  0  0
  -29.4824  -16.3880   19.2303 N   0  0  0  0  0  0  0  0  0  0  0  0
  -25.1209  -31.6992   21.2882 N   0  0  0  0  0  0  0  0  0  0  0  0
  -21.9149  -26.3349   19.2924 N   0  0  0  0  0  0  0  0  0  0  0  0
  -22.5547  -24.1008   16.5235 N   0  3  0  0  0  0  0  0  0  0  0  0
  -33.4661  -21.1922   21.0067 O   0  0  0  0  0  0  0  0  0  0  0  0
  -29.4927  -22.8683   19.3807 O   0  0  0  0  0  0  0  0  0  0  0  0
  -22.3847  -14.5143   20.6812 O   0  0  0  0  0  0  0  0  0  0  0  0
  -25.5022  -29.6124   22.2486 O   0  0  0  0  0  0  0  0  0  0  0  0
  -22.3277  -29.1486   19.6410 O   0  0  0  0  0  0  0  0  0  0  0  0
  -23.3857  -24.5461   19.1745 O   0  0  0  0  0  0  0  0  0  0  0  0
  -31.2984  -15.3045   18.2763 O   0  0  0  0  0  0  0  0  0  0  0  0
  -22.8317   -8.1459   25.1343 O   0  0  0  0  0  0  0  0  0  0  0  0
  -29.8960  -25.5434   20.8986 O   0  0  0  0  0  0  0  0  0  1  0  0
  -17.6982   -6.2875   24.3608 F   0  0  0  0  0  0  0  0  0  0  0  0
  -27.7288  -18.4701   19.8321 F   0  0  0  0  0  0  0  0  0  0  0  0
  -22.3418   -5.4533   24.7435 F   0  0  0  0  0  0  0  0  0  0  0  0
  1  2  1  0  0  0  0
  1  5  2  0  0  0  0
  2  6  2  0  0  0  0
  3 10  2  0  0  0  0
  3 18  1  0  0  0  0
  4 11  1  0  0  0  0
  4 18  2  0  0  0  0
  5 20  1  0  0  0  0
  6 22  1  0  0  0  0
  7 12  2  0  0  0  0
  7 21  1  0  0  0  0
  8  9  2  0  0  0  0
  8 24  1  0  0  0  0
  9 25  1  0  0  0  0
 10 26  1  0  0  0  0
 11 26  2  0  0  0  0
 12 27  1  0  0  0  0
 13 14  2  0  0  0  0
 13 28  1  0  0  0  0
 14 29  1  0  0  0  0
 15 23  1  0  0  0  0
 15 27  2  0  0  0  0
 16 24  2  0  0  0  0
 16 30  1  0  0  0  0
 17 29  2  0  0  0  0
 17 31  1  0  0  0  0
 18 32  1  0  0  0  0
 19 32  1  0  0  0  0
 19 33  2  0  0  0  0
 19 38  1  0  0  0  0
 20 22  2  0  0  0  0
 20 43  1  0  0  0  0
 21 23  2  0  0  0  0
 21 44  1  0  0  0  0
 22 52  1  0  0  0  0
 23 45  1  0  0  0  0
 24 66  1  0  0  0  0
 25 30  2  0  0  0  0
 25 71  1  0  0  0  0
 26 82  1  0  0  0  0
 27 83  1  0  0  0  0
 28 31  2  0  0  0  0
 28 82  1  0  0  0  0
 29 84  1  0  0  0  0
 30 85  1  0  0  0  0
 31 86  1  0  0  0  0
 32 64  2  0  0  0  0
 33 65  1  0  0  0  0
 33 69  1  0  0  0  0
 34 35  2  0  0  0  0
 34 36  1  0  0  0  0
 35 37  1  0  0  0  0
 35 60  1  0  0  0  0
 36 66  1  0  0  0  0
 36 75  2  0  0  0  0
 37 66  1  0  0  0  0
 37 76  2  0  0  0  0
 38 70  1  0  0  0  0
 38 77  2  0  0  0  0
 39 53  1  0  0  0  0
 39 72  1  0  0  0  0
 39 78  2  0  0  0  0
 40 61  1  0  0  0  0
 40 67  1  0  0  0  0
 40 79  2  0  0  0  0
 41 62  1  0  0  0  0
 41 73  1  0  0  0  0
 41 80  2  0  0  0  0
 42 68  1  0  0  0  0
 42 71  1  0  0  0  0
 42 81  2  0  0  0  0
 43 46  1  0  0  0  0
 44 53  1  0  0  0  0
 45 67  1  0  0  0  0
 46 48  1  0  0  0  0
 47 49  1  0  0  0  0
 47 50  1  0  0  0  0
 48 52  1  0  0  0  0
 49 54  1  0  0  0  0
 50 68  1  0  0  0  0
 51 54  1  0  0  0  0
 51 68  1  0  0  0  0
 52 72  1  0  0  0  0
 53 67  1  0  0  0  0
 54 65  1  0  0  0  0
 55 62  1  0  0  0  0
 56 63  1  0  0  0  0
 57 63  1  0  0  0  0
 58 63  1  0  0  0  0
 59 74  1  0  0  0  0
 60 83  1  0  0  0  0
 61 63  1  0  0  0  0
 61 73  1  0  0  0  0
 62 74  1  0  0  0  0
 64 65  1  0  0  0  0
M  CHG  1  74   1
M  ISO  4  42 100  60 101  71 100  83 101
M  END
> <Batch ID>
0081

> <Smiles>
CNC(C)C(=O)NC(C(=O)N1Cc2cc([101O:1][101CH2:1]C3=CC(=O)N(c4ccc([100NH:0][100C:0](=O)N5CCCC(n6nc(-c7ccc(Oc8ccc(F)cc8F)cc7)c(C(N)=O)c6N)C5)c(F)c4)C3=O)ccc2CC1C(=O)NC1CCCc2ccccc21)C(C)(C)C

> <Shape>
0.295

> <Color>
0.132

> <Negative vol penalty>
0.000

$$$$

  -OEChem-04052300043D

 82 90  0     1  0  0  0  0  0999 V2000
  -28.8031  -33.1014   25.4372 C   0  0  0  0  0  0  0  0  0  0  0  0
  -28.5515  -31.7382   25.5543 C   0  0  0  0  0  0  0  0  0  0  0  0
  -32.4390  -17.8822   23.1371 C   0  0  0  0  0  0  0  0  0  0  0  0
  -23.1362   -9.7226   20.1297 C   0  0  0  0  0  0  0  0  0  0  0  0
  -23.7687  -10.0356   22.4403 C   0  0  0  0  0  0  0  0  0  0  0  0
  -27.7928  -33.9612   25.0083 C   0  0  0  0  0  0  0  0  0  0  0  0
  -27.2890  -31.2341   25.2438 C   0  0  0  0  0  0  0  0  0  0  0  0
  -27.5143  -27.0229   22.4402 C   0  0  0  0  0  0  0  0  0  0  0  0
  -31.9094  -16.8805   22.3236 C   0  0  0  0  0  0  0  0  0  0  0  0
  -31.5937  -18.8247   23.7227 C   0  0  0  0  0  0  0  0  0  0  0  0
  -22.3894   -8.5997   20.4861 C   0  0  0  0  0  0  0  0  0  0  0  0
  -23.0218   -8.9127   22.7968 C   0  0  0  0  0  0  0  0  0  0  0  0
  -27.8186  -25.8336   23.1010 C   0  0  0  0  0  0  0  0  0  0  0  0
  -19.7722   -8.1492   23.3237 C   0  0  0  0  0  0  0  0  0  0  0  0
  -18.9523   -8.2482   24.4478 C   0  0  0  0  0  0  0  0  0  0  0  0
  -25.4775  -25.2524   23.1204 C   0  0  0  0  0  0  0  0  0  0  0  0
  -29.6893  -17.7639   22.6812 C   0  0  0  0  0  0  0  0  0  0  0  0
  -20.1675   -6.4407   25.4933 C   0  0  0  0  0  0  0  0  0  0  0  0
  -23.8259  -10.4405   21.1068 C   0  0  0  0  0  0  0  0  0  0  0  0
  -24.1526  -12.9343   20.6805 C   0  0  0  0  0  0  0  0  0  0  0  0
  -26.5201  -33.4661   24.6831 C   0  0  0  0  0  0  0  0  0  0  0  0
  -26.1859  -27.3415   22.1237 C   0  0  0  0  0  0  0  0  0  0  0  0
  -26.2603  -32.0883   24.8114 C   0  0  0  0  0  0  0  0  0  0  0  0
  -25.1592  -26.4452   22.4533 C   0  0  0  0  0  0  0  0  0  0  0  0
  -30.5346  -16.8214   22.0956 C   0  0  0  0  0  0  0  0  0  0  0  0
  -22.3322   -8.1948   21.8197 C   0  0  0  0  0  0  0  0  0  0  0  0
  -26.7999  -24.9495   23.4438 C   0  0  0  0  0  0  0  0  0  0  0  0
  -30.2189  -18.7656   23.4947 C   0  0  0  0  0  0  0  0  0  0  0  0
  -20.7897   -7.1959   23.2844 C   0  0  0  0  0  0  0  0  0  0  0  0
  -19.1500   -7.3940   25.5326 C   0  0  0  0  0  0  0  0  0  0  0  0
  -20.9874   -6.3417   24.3692 C   0  0  0  0  0  0  0  0  0  0  0  0
  -24.5980  -11.6001   20.7391 C   0  0  0  0  0  0  0  0  0  0  0  0
  -25.2568  -13.6477   20.2825 C   0  0  0  0  0  0  0  0  0  0  0  0
  -28.2777  -21.7357   24.0183 C   0  0  0  0  0  0  0  0  0  0  0  0
  -27.9284  -22.9009   23.4694 C   0  0  0  0  0  0  0  0  0  1  0  0
  -22.8567  -13.4800   20.9608 C   0  0  0  0  0  0  0  0  0  0  0  0
  -29.1852  -20.8277   23.2841 C   0  0  0  0  0  0  0  0  0  0  0  0
  -24.1874  -29.6793   22.9266 C   0  0  0  0  0  0  0  0  0  0  0  0
  -22.2629  -28.2588   20.7355 C   0  0  0  0  0  0  0  0  0  0  0  0
  -21.4241  -25.4335   19.0148 C   0  0  0  0  0  0  0  0  0  0  0  0
  -30.6961  -14.7911   20.6130 C   0  0  0  0  0  0  0  0  0  0  0  0
  -25.4461  -34.4407   24.2692 C   0  0  0  0  0  0  0  0  0  0  0  0
  -25.8770  -28.6160   21.3869 C   0  0  0  0  0  0  0  0  0  0  0  0
  -23.7190  -26.7309   22.1179 C   0  0  0  0  0  0  0  0  0  0  0  0
  -24.2453  -33.7761   23.6009 C   0  0  0  0  0  0  0  0  0  0  0  0
  -29.7340  -12.0764   18.5197 C   0  0  0  0  0  0  0  0  0  0  0  0
  -23.7991  -32.5545   24.3979 C   0  0  0  0  0  0  0  0  0  0  0  0
  -28.2754  -11.8202   18.9057 C   0  0  0  0  0  0  0  0  0  0  0  0
  -30.5797  -12.4716   19.7290 C   0  0  0  0  0  0  0  0  0  0  0  0
  -28.5936  -13.3379   20.9013 C   0  0  0  0  0  0  0  0  0  0  0  0
  -24.9110  -31.5002   24.4601 C   0  0  1  0  0  0  0  0  0  0  0  0
  -24.4351  -29.0786   21.5718 C   0  0  1  0  0  0  0  0  0  0  0  0
  -27.6885  -13.0000   19.7053 C   0  0  2  0  0  0  0  0  0  0  0  0
  -19.7837  -24.5718   17.3225 C   0  0  0  0  0  0  0  0  0  0  0  0
  -20.1038  -28.1477   22.8885 C   0  0  0  0  0  0  0  0  0  0  0  0
  -18.8848  -26.4737   21.4814 C   0  0  0  0  0  0  0  0  0  0  0  0
  -19.2776  -28.7794   20.6142 C   0  0  0  0  0  0  0  0  0  0  0  0
  -23.5755  -24.7823   17.0896 C   0  0  0  0  0  0  0  0  0  0  0  0
  -21.2195  -27.1686   20.7761 C   0  0  1  0  0  0  0  0  0  0  0  0
  -21.1536  -25.1952   17.5402 C   0  0  2  0  0  0  0  0  0  0  0  0
  -19.8982  -27.6376   21.4482 C   0  0  0  0  0  0  0  0  0  0  0  0
  -25.8847  -11.4709   20.4049 N   0  0  0  0  0  0  0  0  0  0  0  0
  -26.2573  -12.7330   20.1324 N   0  0  0  0  0  0  0  0  0  0  0  0
  -23.4671  -27.9929   21.4027 N   0  0  0  0  0  0  0  0  0  0  0  0
  -29.9646  -13.5978   20.4349 N   0  0  0  0  0  0  0  0  0  0  0  0
  -25.4597  -14.9618   20.0497 N   0  0  0  0  0  0  0  0  0  0  0  0
  -21.8355  -12.6062   21.3579 N   0  0  0  0  0  0  0  0  0  0  0  0
  -29.9970  -15.8034   21.2694 N   0  0  0  0  0  0  0  0  0  0  0  0
  -24.9857  -30.7703   23.2126 N   0  0  0  0  0  0  0  0  0  0  0  0
  -21.0592  -26.7056   19.4019 N   0  0  0  0  0  0  0  0  0  0  0  0
  -22.1821  -24.2822   16.9659 N   0  3  0  0  0  0  0  0  0  0  0  0
  -22.6074  -14.7040   20.8462 O   0  0  0  0  0  0  0  0  0  0  0  0
  -29.6651  -21.0470   22.1826 O   0  0  0  0  0  0  0  0  0  0  0  0
  -23.3342  -29.1902   23.6576 O   0  0  0  0  0  0  0  0  0  0  0  0
  -22.0214  -29.3048   20.1280 O   0  0  0  0  0  0  0  0  0  0  0  0
  -21.9069  -24.5756   19.7506 O   0  0  0  0  0  0  0  0  0  0  0  0
  -31.8478  -14.9158   20.1886 O   0  0  0  0  0  0  0  0  0  0  0  0
  -21.6033   -7.0993   22.1680 O   0  0  0  0  0  0  0  0  0  0  0  0
  -27.0941  -23.7882   24.0894 O   0  0  0  0  0  0  0  0  0  1  0  0
  -29.3722  -19.7098   24.0810 O   0  0  0  0  0  0  0  0  0  0  0  0
  -18.3636   -7.4903   26.6126 F   0  0  0  0  0  0  0  0  0  0  0  0
  -21.9640   -5.4246   24.3377 F   0  0  0  0  0  0  0  0  0  0  0  0
  1  2  1  0  0  0  0
  1  6  2  0  0  0  0
  2  7  2  0  0  0  0
  3  9  1  0  0  0  0
  3 10  2  0  0  0  0
  4 11  2  0  0  0  0
  4 19  1  0  0  0  0
  5 12  1  0  0  0  0
  5 19  2  0  0  0  0
  6 21  1  0  0  0  0
  7 23  1  0  0  0  0
  8 13  2  0  0  0  0
  8 22  1  0  0  0  0
  9 25  2  0  0  0  0
 10 28  1  0  0  0  0
 11 26  1  0  0  0  0
 12 26  2  0  0  0  0
 13 27  1  0  0  0  0
 14 15  2  0  0  0  0
 14 29  1  0  0  0  0
 15 30  1  0  0  0  0
 16 24  1  0  0  0  0
 16 27  2  0  0  0  0
 17 25  1  0  0  0  0
 17 28  2  0  0  0  0
 18 30  2  0  0  0  0
 18 31  1  0  0  0  0
 19 32  1  0  0  0  0
 20 32  1  0  0  0  0
 20 33  2  0  0  0  0
 20 36  1  0  0  0  0
 21 23  2  0  0  0  0
 21 42  1  0  0  0  0
 22 24  2  0  0  0  0
 22 43  1  0  0  0  0
 23 51  1  0  0  0  0
 24 44  1  0  0  0  0
 25 68  1  0  0  0  0
 26 78  1  0  0  0  0
 27 79  1  0  0  0  0
 28 80  1  0  0  0  0
 29 31  2  0  0  0  0
 29 78  1  0  0  0  0
 30 81  1  0  0  0  0
 31 82  1  0  0  0  0
 32 62  2  0  0  0  0
 33 63  1  0  0  0  0
 33 66  1  0  0  0  0
 34 35  2  0  0  0  0
 34 37  1  0  0  0  0
 35 79  1  0  0  0  0
 36 67  1  0  0  0  0
 36 72  2  0  0  0  0
 37 73  2  0  0  0  0
 37 80  1  0  0  0  0
 38 52  1  0  0  0  0
 38 69  1  0  0  0  0
 38 74  2  0  0  0  0
 39 59  1  0  0  0  0
 39 64  1  0  0  0  0
 39 75  2  0  0  0  0
 40 60  1  0  0  0  0
 40 70  1  0  0  0  0
 40 76  2  0  0  0  0
 41 65  1  0  0  0  0
 41 68  1  0  0  0  0
 41 77  2  0  0  0  0
 42 45  1  0  0  0  0
 43 52  1  0  0  0  0
 44 64  1  0  0  0  0
 45 47  1  0  0  0  0
 46 48  1  0  0  0  0
 46 49  1  0  0  0  0
 47 51  1  0  0  0  0
 48 53  1  0  0  0  0
 49 65  1  0  0  0  0
 50 53  1  0  0  0  0
 50 65  1  0  0  0  0
 51 69  1  0  0  0  0
 52 64  1  0  0  0  0
 53 63  1  0  0  0  0
 54 60  1  0  0  0  0
 55 61  1  0  0  0  0
 56 61  1  0  0  0  0
 57 61  1  0  0  0  0
 58 71  1  0  0  0  0
 59 61  1  0  0  0  0
 59 70  1  0  0  0  0
 60 71  1  0  0  0  0
 62 63  1  0  0  0  0
M  CHG  1  71   1
M  ISO  4  35 101  41 100  68 100  79 101
M  END
> <Batch ID>
0081

> <Smiles>
CNC(C)C(=O)NC(C(=O)N1Cc2cc([101O:1][101CH:1]=CC(=O)Oc3cccc([100NH:0][100C:0](=O)N4CCCC(n5nc(-c6ccc(Oc7ccc(F)cc7F)cc6)c(C(N)=O)c5N)C4)c3)ccc2CC1C(=O)NC1CCCc2ccccc21)C(C)(C)C

> <Shape>
0.304

> <Color>
0.201

> <Negative vol penalty>
0.000

$$$$
