
  -OEChem-04052300073D

 87 96  0     1  0  0  0  0  0999 V2000
  -27.3627  -33.1343   27.0973 C   0  0  0  0  0  0  0  0  0  0  0  0
  -27.6714  -32.0720   26.2538 C   0  0  0  0  0  0  0  0  0  0  0  0
  -24.3451  -13.9255   22.7275 C   0  0  0  0  0  0  0  0  0  0  0  0
  -26.7410  -13.7884   22.4484 C   0  0  0  0  0  0  0  0  0  0  0  0
  -26.0334  -33.4016   27.4220 C   0  0  0  0  0  0  0  0  0  0  0  0
  -26.6510  -31.2756   25.7353 C   0  0  0  0  0  0  0  0  0  0  0  0
  -27.2448  -30.3288   20.7961 C   0  0  0  0  0  0  0  0  0  0  0  0
  -24.1822  -12.8450   21.8607 C   0  0  0  0  0  0  0  0  0  0  0  0
  -26.5781  -12.7077   21.5815 C   0  0  0  0  0  0  0  0  0  0  0  0
  -28.1760  -29.3534   20.4422 C   0  0  0  0  0  0  0  0  0  0  0  0
  -24.4573   -9.4777   21.9982 C   0  0  0  0  0  0  0  0  0  0  0  0
  -23.5645   -8.4741   22.3740 C   0  0  0  0  0  0  0  0  0  0  0  0
  -26.3883  -27.7594   20.1551 C   0  0  0  0  0  0  0  0  0  0  0  0
  -32.6283  -21.9686   20.7442 C   0  0  0  0  0  0  0  0  0  0  0  0
  -30.3479  -22.4820   21.3550 C   0  0  0  0  0  0  0  0  0  0  0  0
  -31.3896  -20.4588   22.1666 C   0  0  0  0  0  0  0  0  0  0  0  0
  -22.2621   -8.8866   20.3813 C   0  0  0  0  0  0  0  0  0  0  0  0
  -25.6245  -14.3973   23.0213 C   0  0  0  0  0  0  0  0  0  0  0  0
  -25.9537  -15.4662   25.3141 C   0  0  0  0  0  0  0  0  0  0  0  0
  -24.9954  -32.6140   26.8995 C   0  0  0  0  0  0  0  0  0  0  0  0
  -25.8770  -30.0233   20.8428 C   0  0  0  0  0  0  0  0  0  0  0  0
  -25.3066  -31.5317   26.0544 C   0  0  0  0  0  0  0  0  0  0  0  0
  -25.4416  -28.7334   20.5073 C   0  0  0  0  0  0  0  0  0  0  0  0
  -31.5209  -22.8141   20.6772 C   0  0  0  0  0  0  0  0  0  0  0  0
  -32.5626  -20.7909   21.4888 C   0  0  0  0  0  0  0  0  0  0  0  0
  -30.2823  -21.3043   22.0998 C   0  0  0  0  0  0  0  0  0  0  0  0
  -25.2987  -12.2360   21.2877 C   0  0  0  0  0  0  0  0  0  0  0  0
  -27.7481  -28.0677   20.1244 C   0  0  0  0  0  0  0  0  0  0  0  0
  -24.2525  -10.1859   20.8140 C   0  0  0  0  0  0  0  0  0  0  0  0
  -22.4669   -8.1785   21.5655 C   0  0  0  0  0  0  0  0  0  0  0  0
  -23.1549   -9.8903   20.0055 C   0  0  0  0  0  0  0  0  0  0  0  0
  -25.7934  -15.5138   23.9163 C   0  0  0  0  0  0  0  0  0  0  0  0
  -26.0738  -16.7815   25.6909 C   0  0  0  0  0  0  0  0  0  0  0  0
  -31.6861  -26.3173   18.3396 C   0  0  0  0  0  0  0  0  0  0  0  0
  -32.4091  -24.0728   18.8051 C   0  0  0  0  0  0  0  0  0  0  0  0
  -30.8774  -26.3329   19.4077 C   0  0  0  0  0  0  0  0  0  0  0  0
  -32.4808  -25.1624   18.0350 C   0  0  0  0  0  0  0  0  0  0  0  0
  -30.8159  -25.1285   20.3146 C   0  0  0  0  0  0  0  0  0  0  0  0
  -25.9909  -14.3342   26.1932 C   0  0  0  0  0  0  0  0  0  0  0  0
  -23.6581  -30.0093   23.1188 C   0  0  0  0  0  0  0  0  0  0  0  0
  -21.6718  -29.3664   20.6361 C   0  0  0  0  0  0  0  0  0  0  0  0
  -21.2863  -28.1259   17.4803 C   0  0  0  0  0  0  0  0  0  0  0  0
  -27.9030  -21.6973   22.8284 C   0  0  0  0  0  0  0  0  0  0  0  0
  -23.5772  -32.9124   27.3168 C   0  0  0  0  0  0  0  0  0  0  0  0
  -24.8828  -31.0939   21.2005 C   0  0  0  0  0  0  0  0  0  0  0  0
  -23.9825  -28.3599   20.5225 C   0  0  0  0  0  0  0  0  0  0  0  0
  -22.5283  -32.2512   26.4262 C   0  0  0  0  0  0  0  0  0  0  0  0
  -24.7384  -21.1895   24.3792 C   0  0  0  0  0  0  0  0  0  0  0  0
  -22.8824  -30.7880   26.1805 C   0  0  0  0  0  0  0  0  0  0  0  0
  -24.6671  -19.6727   24.5692 C   0  0  0  0  0  0  0  0  0  0  0  0
  -25.4335  -21.5652   23.0717 C   0  0  0  0  0  0  0  0  0  0  0  0
  -26.6861  -19.4439   23.0665 C   0  0  0  0  0  0  0  0  0  0  0  0
  -24.2258  -30.6603   25.4522 C   0  0  1  0  0  0  0  0  0  0  0  0
  -23.5601  -30.5335   21.7140 C   0  0  1  0  0  0  0  0  0  0  0  0
  -26.0521  -19.0178   24.4007 C   0  0  2  0  0  0  0  0  0  0  0  0
  -19.5380  -27.6988   15.7315 C   0  0  0  0  0  0  0  0  0  0  0  0
  -20.6940  -26.9417   22.2092 C   0  0  0  0  0  0  0  0  0  0  0  0
  -19.7003  -26.0545   20.0894 C   0  0  0  0  0  0  0  0  0  0  0  0
  -18.8931  -28.2179   21.0334 C   0  0  0  0  0  0  0  0  0  0  0  0
  -22.6126  -29.9325   15.5474 C   0  0  0  0  0  0  0  0  0  0  0  0
  -30.0289  -27.4989   19.7634 C   0  0  0  0  0  0  0  0  0  1  0  0
  -21.1791  -28.1105   19.9587 C   0  0  1  0  0  0  0  0  0  0  0  0
  -20.5727  -28.6799   16.2604 C   0  0  2  0  0  0  0  0  0  0  0  0
  -20.1443  -27.3374   20.8242 C   0  0  0  0  0  0  0  0  0  0  0  0
  -25.8095  -16.7606   23.4376 N   0  0  0  0  0  0  0  0  0  0  0  0
  -25.9813  -17.5087   24.5407 N   0  0  0  0  0  0  0  0  0  0  0  0
  -31.5866  -24.0005   19.9287 N   0  0  0  0  0  0  0  0  0  0  0  0
  -23.0497  -29.4398   20.8848 N   0  0  0  0  0  0  0  0  0  0  0  0
  -26.7412  -20.9118   22.9836 N   0  0  0  0  0  0  0  0  0  0  0  0
  -33.6820  -19.9356   21.5569 N   0  0  0  0  0  0  0  0  0  0  0  0
  -26.2483  -17.3755   26.8906 N   0  0  0  0  0  0  0  0  0  0  0  0
  -25.8524  -13.0539   25.6402 N   0  0  0  0  0  0  0  0  0  0  0  0
  -29.0910  -20.9682   22.7895 N   0  0  0  0  0  0  0  0  0  0  0  0
  -24.0667  -30.9514   24.0435 N   0  0  0  0  0  0  0  0  0  0  0  0
  -20.6769  -28.5216   18.6521 N   0  0  0  0  0  0  0  0  0  0  0  0
  -21.5508  -28.9635   15.1724 N   0  3  0  0  0  0  0  0  0  0  0  0
  -30.1027  -25.1605   21.3192 O   0  0  0  0  0  0  0  0  0  0  0  0
  -26.1260  -14.4555   27.4344 O   0  0  0  0  0  0  0  0  0  0  0  0
  -23.3820  -28.8375   23.3470 O   0  0  0  0  0  0  0  0  0  0  0  0
  -20.8649  -30.2529   20.9272 O   0  0  0  0  0  0  0  0  0  0  0  0
  -22.2825  -27.4104   17.4014 O   0  0  0  0  0  0  0  0  0  0  0  0
  -27.8503  -22.9282   22.7640 O   0  0  0  0  0  0  0  0  0  0  0  0
  -33.2792  -25.2666   16.9222 O   0  0  0  0  0  0  0  0  0  0  0  0
  -25.1402  -11.1815   20.4419 O   0  0  0  0  0  0  0  0  0  0  0  0
  -28.6550  -27.1136   19.7793 O   0  0  0  0  0  0  0  0  0  1  0  0
  -21.6105   -7.2136   21.9257 F   0  0  0  0  0  0  0  0  0  0  0  0
  -22.9536  -10.5663   18.8662 F   0  0  0  0  0  0  0  0  0  0  0  0
  1  2  1  0  0  0  0
  1  5  2  0  0  0  0
  2  6  2  0  0  0  0
  3  8  2  0  0  0  0
  3 18  1  0  0  0  0
  4  9  1  0  0  0  0
  4 18  2  0  0  0  0
  5 20  1  0  0  0  0
  6 22  1  0  0  0  0
  7 10  2  0  0  0  0
  7 21  1  0  0  0  0
  8 27  1  0  0  0  0
  9 27  2  0  0  0  0
 10 28  1  0  0  0  0
 11 12  2  0  0  0  0
 11 29  1  0  0  0  0
 12 30  1  0  0  0  0
 13 23  1  0  0  0  0
 13 28  2  0  0  0  0
 14 24  1  0  0  0  0
 14 25  2  0  0  0  0
 15 24  2  0  0  0  0
 15 26  1  0  0  0  0
 16 25  1  0  0  0  0
 16 26  2  0  0  0  0
 17 30  2  0  0  0  0
 17 31  1  0  0  0  0
 18 32  1  0  0  0  0
 19 32  1  0  0  0  0
 19 33  2  0  0  0  0
 19 39  1  0  0  0  0
 20 22  2  0  0  0  0
 20 44  1  0  0  0  0
 21 23  2  0  0  0  0
 21 45  1  0  0  0  0
 22 53  1  0  0  0  0
 23 46  1  0  0  0  0
 24 67  1  0  0  0  0
 25 70  1  0  0  0  0
 26 73  1  0  0  0  0
 27 84  1  0  0  0  0
 28 85  1  0  0  0  0
 29 31  2  0  0  0  0
 29 84  1  0  0  0  0
 30 86  1  0  0  0  0
 31 87  1  0  0  0  0
 32 65  2  0  0  0  0
 33 66  1  0  0  0  0
 33 71  1  0  0  0  0
 34 36  2  0  0  0  0
 34 37  1  0  0  0  0
 35 37  2  0  0  0  0
 35 67  1  0  0  0  0
 36 38  1  0  0  0  0
 36 61  1  0  0  0  0
 37 83  1  0  0  0  0
 38 67  1  0  0  0  0
 38 77  2  0  0  0  0
 39 72  1  0  0  0  0
 39 78  2  0  0  0  0
 40 54  1  0  0  0  0
 40 74  1  0  0  0  0
 40 79  2  0  0  0  0
 41 62  1  0  0  0  0
 41 68  1  0  0  0  0
 41 80  2  0  0  0  0
 42 63  1  0  0  0  0
 42 75  1  0  0  0  0
 42 81  2  0  0  0  0
 43 69  1  0  0  0  0
 43 73  1  0  0  0  0
 43 82  2  0  0  0  0
 44 47  1  0  0  0  0
 45 54  1  0  0  0  0
 46 68  1  0  0  0  0
 47 49  1  0  0  0  0
 48 50  1  0  0  0  0
 48 51  1  0  0  0  0
 49 53  1  0  0  0  0
 50 55  1  0  0  0  0
 51 69  1  0  0  0  0
 52 55  1  0  0  0  0
 52 69  1  0  0  0  0
 53 74  1  0  0  0  0
 54 68  1  0  0  0  0
 55 66  1  0  0  0  0
 56 63  1  0  0  0  0
 57 64  1  0  0  0  0
 58 64  1  0  0  0  0
 59 64  1  0  0  0  0
 60 76  1  0  0  0  0
 61 85  1  0  0  0  0
 62 64  1  0  0  0  0
 62 75  1  0  0  0  0
 63 76  1  0  0  0  0
 65 66  1  0  0  0  0
M  CHG  1  76   1
M  ISO  4  43 100  61 101  73 100  85 101
M  END
> <Batch ID>
0082

> <Smiles>
CNC(C)C(=O)NC(C(=O)N1Cc2cc([101O:1][101CH2:1]C3=CC(=O)CN(c4cc(N)cc([100NH:0][100C:0](=O)N5CCCC(n6nc(-c7ccc(Oc8ccc(F)cc8F)cc7)c(C(N)=O)c6N)C5)c4)C3=O)ccc2CC1C(=O)NC1CCCc2ccccc21)C(C)(C)C

> <Shape>
0.232

> <Color>
0.077

> <Negative vol penalty>
0.000

$$$$

  -OEChem-04052300073D

 84 92  0     1  0  0  0  0  0999 V2000
  -22.0274  -28.6195   15.5061 C   0  0  0  0  0  0  0  0  0  0  0  0
  -22.6775  -27.8111   16.4332 C   0  0  0  0  0  0  0  0  0  0  0  0
  -23.1404   -9.7491   21.0629 C   0  0  0  0  0  0  0  0  0  0  0  0
  -23.8101  -10.5461   23.2431 C   0  0  0  0  0  0  0  0  0  0  0  0
  -22.0866  -30.0070   15.6301 C   0  0  0  0  0  0  0  0  0  0  0  0
  -23.3880  -28.3899   17.4842 C   0  0  0  0  0  0  0  0  0  0  0  0
  -22.4815  -26.1247   21.9218 C   0  0  0  0  0  0  0  0  0  0  0  0
  -22.4071   -8.7252   21.6624 C   0  0  0  0  0  0  0  0  0  0  0  0
  -23.0767   -9.5222   23.8426 C   0  0  0  0  0  0  0  0  0  0  0  0
  -23.1277  -24.9129   22.1618 C   0  0  0  0  0  0  0  0  0  0  0  0
  -19.4184   -8.3755   23.2046 C   0  0  0  0  0  0  0  0  0  0  0  0
  -18.1324   -8.1314   22.7227 C   0  0  0  0  0  0  0  0  0  0  0  0
  -31.6943  -19.2423   20.6181 C   0  0  0  0  0  0  0  0  0  0  0  0
  -31.6540  -17.8324   20.4161 C   0  0  0  0  0  0  0  0  0  0  0  0
  -24.7703  -26.0614   23.5041 C   0  0  0  0  0  0  0  0  0  0  0  0
  -18.7762   -5.8748   22.1479 C   0  0  0  0  0  0  0  0  0  0  0  0
  -23.8420  -10.6595   21.8532 C   0  0  0  0  0  0  0  0  0  0  0  0
  -24.1454  -13.0073   20.9028 C   0  0  0  0  0  0  0  0  0  0  0  0
  -22.7901  -30.6028   16.6887 C   0  0  0  0  0  0  0  0  0  0  0  0
  -22.9820  -27.3176   22.4631 C   0  0  0  0  0  0  0  0  0  0  0  0
  -23.4577  -29.7866   17.6217 C   0  0  0  0  0  0  0  0  0  0  0  0
  -24.1272  -27.2868   23.2716 C   0  0  0  0  0  0  0  0  0  0  0  0
  -22.3752   -8.6118   23.0522 C   0  0  0  0  0  0  0  0  0  0  0  0
  -24.2739  -24.8815   22.9507 C   0  0  0  0  0  0  0  0  0  0  0  0
  -20.3833   -7.3693   23.1581 C   0  0  0  0  0  0  0  0  0  0  0  0
  -17.8113   -6.8811   22.1944 C   0  0  0  0  0  0  0  0  0  0  0  0
  -20.0622   -6.1189   22.6298 C   0  0  0  0  0  0  0  0  0  0  0  0
  -24.6003  -11.7171   21.2345 C   0  0  0  0  0  0  0  0  0  0  0  0
  -30.5152  -19.7237   21.1431 C   0  0  0  0  0  0  0  0  0  0  0  0
  -25.2380  -13.6232   20.3430 C   0  0  0  0  0  0  0  0  0  0  0  0
  -30.4456  -17.2899   20.7946 C   0  0  0  0  0  0  0  0  0  0  0  0
  -26.2064  -23.5747   22.7819 C   0  0  0  0  0  0  0  0  0  1  0  0
  -22.8510  -13.5965   21.0845 C   0  0  0  0  0  0  0  0  0  0  0  0
  -30.1541  -21.1201   21.4973 C   0  0  0  0  0  0  0  0  0  0  0  0
  -26.9427  -22.4655   22.9534 C   0  0  0  0  0  0  0  0  0  0  0  0
  -28.3559  -22.5229   22.4359 C   0  0  0  0  0  0  0  0  0  0  0  0
  -24.1033  -30.0339   21.2514 C   0  0  0  0  0  0  0  0  0  0  0  0
  -24.1385  -30.9527   24.3622 C   0  0  0  0  0  0  0  0  0  0  0  0
  -24.2613  -30.0455   27.6499 C   0  0  0  0  0  0  0  0  0  0  0  0
  -30.6747  -14.8252   20.3261 C   0  0  0  0  0  0  0  0  0  0  0  0
  -22.8653  -32.1077   16.7543 C   0  0  0  0  0  0  0  0  0  0  0  0
  -22.2581  -28.6129   22.2168 C   0  0  0  0  0  0  0  0  0  0  0  0
  -24.6933  -28.5366   23.8927 C   0  0  0  0  0  0  0  0  0  0  0  0
  -23.3266  -32.6360   18.1102 C   0  0  0  0  0  0  0  0  0  0  0  0
  -29.6946  -11.7263   18.8725 C   0  0  0  0  0  0  0  0  0  0  0  0
  -24.5473  -31.8618   18.5975 C   0  0  0  0  0  0  0  0  0  0  0  0
  -28.2444  -11.5538   19.3301 C   0  0  0  0  0  0  0  0  0  0  0  0
  -30.5581  -12.3709   19.9553 C   0  0  0  0  0  0  0  0  0  0  0  0
  -28.5868  -13.4604   20.9532 C   0  0  0  0  0  0  0  0  0  0  0  0
  -24.2180  -30.3765   18.7897 C   0  0  1  0  0  0  0  0  0  0  0  0
  -23.1488  -29.8385   22.3953 C   0  0  1  0  0  0  0  0  0  0  0  0
  -27.6637  -12.8745   19.8724 C   0  0  2  0  0  0  0  0  0  0  0  0
  -26.4078  -21.2281   23.6112 C   0  0  0  0  0  0  0  0  0  0  0  0
  -24.3135  -31.0202   29.9617 C   0  0  0  0  0  0  0  0  0  0  0  0
  -27.0718  -31.6998   23.9784 C   0  0  0  0  0  0  0  0  0  0  0  0
  -27.3123  -31.7521   26.4699 C   0  0  0  0  0  0  0  0  0  0  0  0
  -25.7489  -33.3310   25.3362 C   0  0  0  0  0  0  0  0  0  0  0  0
  -21.7264  -28.7119   28.3948 C   0  0  0  0  0  0  0  0  0  0  0  0
  -25.1430  -30.8810   25.4868 C   0  0  1  0  0  0  0  0  0  0  0  0
  -23.4331  -30.4789   28.8460 C   0  0  2  0  0  0  0  0  0  0  0  0
  -26.3097  -31.8925   25.3047 C   0  0  0  0  0  0  0  0  0  0  0  0
  -25.8819  -11.5234   20.9122 N   0  0  0  0  0  0  0  0  0  0  0  0
  -26.2417  -12.7002   20.3720 N   0  0  0  0  0  0  0  0  0  0  0  0
  -23.9534  -29.7793   23.6174 N   0  0  0  0  0  0  0  0  0  0  0  0
  -29.9480  -13.6193   20.4178 N   0  0  0  0  0  0  0  0  0  0  0  0
  -25.4285  -14.8588   19.8336 N   0  0  0  0  0  0  0  0  0  0  0  0
  -21.8422  -12.8239   21.6759 N   0  0  0  0  0  0  0  0  0  0  0  0
  -29.9804  -15.9518   20.7658 N   0  0  0  0  0  0  0  0  0  0  0  0
  -28.8706  -21.2977   22.0152 N   0  0  0  0  0  0  0  0  0  0  0  0
  -23.4873  -30.1763   20.0227 N   0  0  0  0  0  0  0  0  0  0  0  0
  -24.3865  -31.0574   26.7217 N   0  0  0  0  0  0  0  0  0  0  0  0
  -22.6524  -29.3273   29.3801 N   0  3  0  0  0  0  0  0  0  0  0  0
  -22.5918  -14.7678   20.7178 O   0  0  0  0  0  0  0  0  0  0  0  0
  -30.9886  -22.0080   21.3459 O   0  0  0  0  0  0  0  0  0  0  0  0
  -28.9808  -23.5820   22.3953 O   0  0  0  0  0  0  0  0  0  0  0  0
  -25.3093  -30.0554   21.4678 O   0  0  0  0  0  0  0  0  0  0  0  0
  -23.5349  -32.0087   24.1568 O   0  0  0  0  0  0  0  0  0  0  0  0
  -24.7514  -28.9228   27.5507 O   0  0  0  0  0  0  0  0  0  0  0  0
  -31.8182  -14.8603   19.8642 O   0  0  0  0  0  0  0  0  0  0  0  0
  -21.6594   -7.6130   23.6376 O   0  0  0  0  0  0  0  0  0  0  0  0
  -24.9069  -23.7000   23.1860 O   0  0  0  0  0  0  0  0  0  1  0  0
  -16.5758   -6.6463   21.7332 F   0  0  0  0  0  0  0  0  0  0  0  0
  -20.9846   -5.1480   22.5835 F   0  0  0  0  0  0  0  0  0  0  0  0
  -29.3662  -18.4782   21.3904 S   0  0  0  0  0  0  0  0  0  0  0  0
  1  2  1  0  0  0  0
  1  5  2  0  0  0  0
  2  6  2  0  0  0  0
  3  8  2  0  0  0  0
  3 17  1  0  0  0  0
  4  9  1  0  0  0  0
  4 17  2  0  0  0  0
  5 19  1  0  0  0  0
  6 21  1  0  0  0  0
  7 10  2  0  0  0  0
  7 20  1  0  0  0  0
  8 23  1  0  0  0  0
  9 23  2  0  0  0  0
 10 24  1  0  0  0  0
 11 12  2  0  0  0  0
 11 25  1  0  0  0  0
 12 26  1  0  0  0  0
 13 14  1  0  0  0  0
 13 29  2  0  0  0  0
 14 31  2  0  0  0  0
 15 22  1  0  0  0  0
 15 24  2  0  0  0  0
 16 26  2  0  0  0  0
 16 27  1  0  0  0  0
 17 28  1  0  0  0  0
 18 28  1  0  0  0  0
 18 30  2  0  0  0  0
 18 33  1  0  0  0  0
 19 21  2  0  0  0  0
 19 41  1  0  0  0  0
 20 22  2  0  0  0  0
 20 42  1  0  0  0  0
 21 50  1  0  0  0  0
 22 43  1  0  0  0  0
 23 80  1  0  0  0  0
 24 81  1  0  0  0  0
 25 27  2  0  0  0  0
 25 80  1  0  0  0  0
 26 82  1  0  0  0  0
 27 83  1  0  0  0  0
 28 62  2  0  0  0  0
 29 34  1  0  0  0  0
 29 84  1  0  0  0  0
 30 63  1  0  0  0  0
 30 66  1  0  0  0  0
 31 68  1  0  0  0  0
 31 84  1  0  0  0  0
 32 35  2  0  0  0  0
 32 81  1  0  0  0  0
 33 67  1  0  0  0  0
 33 73  2  0  0  0  0
 34 69  1  0  0  0  0
 34 74  2  0  0  0  0
 35 36  1  0  0  0  0
 35 53  1  0  0  0  0
 36 69  1  0  0  0  0
 36 75  2  0  0  0  0
 37 51  1  0  0  0  0
 37 70  1  0  0  0  0
 37 76  2  0  0  0  0
 38 59  1  0  0  0  0
 38 64  1  0  0  0  0
 38 77  2  0  0  0  0
 39 60  1  0  0  0  0
 39 71  1  0  0  0  0
 39 78  2  0  0  0  0
 40 65  1  0  0  0  0
 40 68  1  0  0  0  0
 40 79  2  0  0  0  0
 41 44  1  0  0  0  0
 42 51  1  0  0  0  0
 43 64  1  0  0  0  0
 44 46  1  0  0  0  0
 45 47  1  0  0  0  0
 45 48  1  0  0  0  0
 46 50  1  0  0  0  0
 47 52  1  0  0  0  0
 48 65  1  0  0  0  0
 49 52  1  0  0  0  0
 49 65  1  0  0  0  0
 50 70  1  0  0  0  0
 51 64  1  0  0  0  0
 52 63  1  0  0  0  0
 54 60  1  0  0  0  0
 55 61  1  0  0  0  0
 56 61  1  0  0  0  0
 57 61  1  0  0  0  0
 58 72  1  0  0  0  0
 59 61  1  0  0  0  0
 59 71  1  0  0  0  0
 60 72  1  0  0  0  0
 62 63  1  0  0  0  0
M  CHG  1  72   1
M  ISO  4  32 101  40 100  68 100  81 101
M  END
> <Batch ID>
0082

> <Smiles>
CNC(C)C(=O)NC(C(=O)N1Cc2cc([101O:1][101CH:1]=C(C)C(=O)NC(=O)c3ccc([100NH:0][100C:0](=O)N4CCCC(n5nc(-c6ccc(Oc7ccc(F)cc7F)cc6)c(C(N)=O)c5N)C4)s3)ccc2CC1C(=O)NC1CCCc2ccccc21)C(C)(C)C

> <Shape>
0.261

> <Color>
0.168

> <Negative vol penalty>
0.000

$$$$

  -OEChem-04052300073D

 85 94  0     1  0  0  0  0  0999 V2000
  -28.6223  -34.4002   28.2469 C   0  0  0  0  0  0  0  0  0  0  0  0
  -28.3027  -33.1307   27.7761 C   0  0  0  0  0  0  0  0  0  0  0  0
  -31.7175  -19.3438   21.4488 C   0  0  0  0  0  0  0  0  0  0  0  0
  -23.3663   -9.7327   21.5935 C   0  0  0  0  0  0  0  0  0  0  0  0
  -23.8791  -10.9179   23.6355 C   0  0  0  0  0  0  0  0  0  0  0  0
  -27.8220  -35.4903   27.9074 C   0  0  0  0  0  0  0  0  0  0  0  0
  -27.1818  -32.9504   26.9664 C   0  0  0  0  0  0  0  0  0  0  0  0
  -28.1238  -29.9729   22.9799 C   0  0  0  0  0  0  0  0  0  0  0  0
  -31.3059  -18.0691   21.0510 C   0  0  0  0  0  0  0  0  0  0  0  0
  -22.7199   -8.7411   22.3314 C   0  0  0  0  0  0  0  0  0  0  0  0
  -23.2326   -9.9263   24.3734 C   0  0  0  0  0  0  0  0  0  0  0  0
  -28.1707  -28.5984   23.2087 C   0  0  0  0  0  0  0  0  0  0  0  0
  -23.5888   -6.0603   24.1976 C   0  0  0  0  0  0  0  0  0  0  0  0
  -23.8558   -4.7313   23.8692 C   0  0  0  0  0  0  0  0  0  0  0  0
  -25.9200  -28.3875   22.3664 C   0  0  0  0  0  0  0  0  0  0  0  0
  -28.9958  -18.7850   21.0671 C   0  0  0  0  0  0  0  0  0  0  0  0
  -21.5162   -4.3829   23.3771 C   0  0  0  0  0  0  0  0  0  0  0  0
  -30.7656  -20.3696   21.6642 C   0  0  0  0  0  0  0  0  0  0  0  0
  -23.9459  -10.8211   22.2456 C   0  0  0  0  0  0  0  0  0  0  0  0
  -24.0434  -13.0155   20.9484 C   0  0  0  0  0  0  0  0  0  0  0  0
  -26.6963  -35.3248   27.0853 C   0  0  0  0  0  0  0  0  0  0  0  0
  -26.9688  -30.5676   22.4519 C   0  0  0  0  0  0  0  0  0  0  0  0
  -26.3650  -34.0390   26.6167 C   0  0  0  0  0  0  0  0  0  0  0  0
  -25.8620  -29.7694   22.1294 C   0  0  0  0  0  0  0  0  0  0  0  0
  -30.9405  -21.7356   22.0687 C   0  0  0  0  0  0  0  0  0  0  0  0
  -29.9587  -17.7949   20.8627 C   0  0  0  0  0  0  0  0  0  0  0  0
  -22.6530   -8.8379   23.7213 C   0  0  0  0  0  0  0  0  0  0  0  0
  -27.0677  -27.8059   22.9047 C   0  0  0  0  0  0  0  0  0  0  0  0
  -22.2855   -6.5507   24.1159 C   0  0  0  0  0  0  0  0  0  0  0  0
  -22.8196   -3.8926   23.4588 C   0  0  0  0  0  0  0  0  0  0  0  0
  -21.2492   -5.7119   23.7056 C   0  0  0  0  0  0  0  0  0  0  0  0
  -29.4142  -20.0691   21.4681 C   0  0  0  0  0  0  0  0  0  0  0  0
  -24.6143  -11.8455   21.4839 C   0  0  0  0  0  0  0  0  0  0  0  0
  -25.0867  -13.6498   20.3193 C   0  0  0  0  0  0  0  0  0  0  0  0
  -29.7528  -22.4206   22.1675 C   0  0  0  0  0  0  0  0  0  0  0  0
  -22.6909  -13.4870   21.0138 C   0  0  0  0  0  0  0  0  0  0  0  0
  -24.8972  -32.7477   23.4813 C   0  0  0  0  0  0  0  0  0  0  0  0
  -23.6972  -32.4577   20.4816 C   0  0  0  0  0  0  0  0  0  0  0  0
  -28.2360  -24.3809   22.6041 C   0  0  0  0  0  0  0  0  0  0  0  0
  -23.3385  -30.5468   17.6769 C   0  0  0  0  0  0  0  0  0  0  0  0
  -30.3725  -15.3967   20.2119 C   0  0  0  0  0  0  0  0  0  0  0  0
  -25.8345  -36.5253   26.7841 C   0  0  0  0  0  0  0  0  0  0  0  0
  -26.9438  -32.0478   22.1860 C   0  0  0  0  0  0  0  0  0  0  0  0
  -24.6054  -30.3561   21.5418 C   0  0  0  0  0  0  0  0  0  0  0  0
  -24.8774  -36.3101   25.6145 C   0  0  0  0  0  0  0  0  0  0  0  0
  -29.7581  -12.0272   19.2391 C   0  0  0  0  0  0  0  0  0  0  0  0
  -24.1678  -34.9662   25.7458 C   0  0  0  0  0  0  0  0  0  0  0  0
  -28.3182  -11.7758   19.6923 C   0  0  0  0  0  0  0  0  0  0  0  0
  -30.5157  -12.9159   20.2240 C   0  0  0  0  0  0  0  0  0  0  0  0
  -28.4125  -13.9327   21.0061 C   0  0  0  0  0  0  0  0  0  0  0  0
  -25.1713  -33.8071   25.7158 C   0  0  1  0  0  0  0  0  0  0  0  0
  -25.5310  -32.6201   22.1249 C   0  0  1  0  0  0  0  0  0  0  0  0
  -27.5897  -13.0957   20.0131 C   0  0  2  0  0  0  0  0  0  0  0  0
  -32.2655  -22.3470   22.3511 C   0  0  0  0  0  0  0  0  0  0  0  0
  -22.2729  -30.5633   15.4049 C   0  0  0  0  0  0  0  0  0  0  0  0
  -20.9769  -31.9239   21.7563 C   0  0  0  0  0  0  0  0  0  0  0  0
  -20.1975  -31.0283   19.5521 C   0  0  0  0  0  0  0  0  0  0  0  0
  -20.9133  -33.4100   19.7459 C   0  0  0  0  0  0  0  0  0  0  0  0
  -25.9564  -30.2958   16.3194 C   0  0  0  0  0  0  0  0  0  0  0  0
  -28.3850  -25.8298   23.0294 C   0  0  0  0  0  0  0  0  0  1  0  0
  -22.6572  -31.5813   19.8263 C   0  0  1  0  0  0  0  0  0  0  0  0
  -23.5284  -30.8710   16.2060 C   0  0  2  0  0  0  0  0  0  0  0  0
  -21.2091  -31.9748   20.2330 C   0  0  0  0  0  0  0  0  0  0  0  0
  -25.9190  -11.7400   21.2181 N   0  0  0  0  0  0  0  0  0  0  0  0
  -26.1765  -12.8519   20.5086 N   0  0  0  0  0  0  0  0  0  0  0  0
  -24.6275  -31.8092   21.3061 N   0  0  0  0  0  0  0  0  0  0  0  0
  -29.7680  -14.1495   20.4766 N   0  0  0  0  0  0  0  0  0  0  0  0
  -25.1689  -14.8064   19.6281 N   0  0  0  0  0  0  0  0  0  0  0  0
  -21.7458  -12.7123   21.7000 N   0  0  0  0  0  0  0  0  0  0  0  0
  -29.5540  -16.4982   20.4595 N   0  0  0  0  0  0  0  0  0  0  0  0
  -29.4788  -23.7614   22.5278 N   0  0  0  0  0  0  0  0  0  0  0  0
  -25.6034  -33.5477   24.3592 N   0  0  0  0  0  0  0  0  0  0  0  0
  -22.9136  -31.6467   18.3916 N   0  0  0  0  0  0  0  0  0  0  0  0
  -24.6536  -30.0737   15.6410 N   0  3  0  0  0  0  0  0  0  0  0  0
  -22.3278  -14.5553   20.4656 O   0  0  0  0  0  0  0  0  0  0  0  0
  -23.8447  -32.1647   23.7136 O   0  0  0  0  0  0  0  0  0  0  0  0
  -23.6889  -33.6719   20.2641 O   0  0  0  0  0  0  0  0  0  0  0  0
  -27.1362  -23.8885   22.3745 O   0  0  0  0  0  0  0  0  0  0  0  0
  -23.5428  -29.4286   18.1443 O   0  0  0  0  0  0  0  0  0  0  0  0
  -31.5214  -15.4803   19.7704 O   0  0  0  0  0  0  0  0  0  0  0  0
  -22.0221   -7.8706   24.4416 O   0  0  0  0  0  0  0  0  0  0  0  0
  -27.1105  -26.4642   23.1277 O   0  0  0  0  0  0  0  0  0  1  0  0
  -23.0764   -2.6167   23.1419 F   0  0  0  0  0  0  0  0  0  0  0  0
  -19.9953   -6.1776   23.6240 F   0  0  0  0  0  0  0  0  0  0  0  0
  -28.4145  -21.4394   21.7782 S   0  0  0  0  0  0  0  0  0  0  0  0
  1  2  1  0  0  0  0
  1  6  2  0  0  0  0
  2  7  2  0  0  0  0
  3  9  2  0  0  0  0
  3 18  1  0  0  0  0
  4 10  2  0  0  0  0
  4 19  1  0  0  0  0
  5 11  1  0  0  0  0
  5 19  2  0  0  0  0
  6 21  1  0  0  0  0
  7 23  1  0  0  0  0
  8 12  2  0  0  0  0
  8 22  1  0  0  0  0
  9 26  1  0  0  0  0
 10 27  1  0  0  0  0
 11 27  2  0  0  0  0
 12 28  1  0  0  0  0
 13 14  2  0  0  0  0
 13 29  1  0  0  0  0
 14 30  1  0  0  0  0
 15 24  1  0  0  0  0
 15 28  2  0  0  0  0
 16 26  2  0  0  0  0
 16 32  1  0  0  0  0
 17 30  2  0  0  0  0
 17 31  1  0  0  0  0
 18 25  1  0  0  0  0
 18 32  2  0  0  0  0
 19 33  1  0  0  0  0
 20 33  1  0  0  0  0
 20 34  2  0  0  0  0
 20 36  1  0  0  0  0
 21 23  2  0  0  0  0
 21 42  1  0  0  0  0
 22 24  2  0  0  0  0
 22 43  1  0  0  0  0
 23 51  1  0  0  0  0
 24 44  1  0  0  0  0
 25 35  2  0  0  0  0
 25 54  1  0  0  0  0
 26 70  1  0  0  0  0
 27 81  1  0  0  0  0
 28 82  1  0  0  0  0
 29 31  2  0  0  0  0
 29 81  1  0  0  0  0
 30 83  1  0  0  0  0
 31 84  1  0  0  0  0
 32 85  1  0  0  0  0
 33 64  2  0  0  0  0
 34 65  1  0  0  0  0
 34 68  1  0  0  0  0
 35 71  1  0  0  0  0
 35 85  1  0  0  0  0
 36 69  1  0  0  0  0
 36 75  2  0  0  0  0
 37 52  1  0  0  0  0
 37 72  1  0  0  0  0
 37 76  2  0  0  0  0
 38 61  1  0  0  0  0
 38 66  1  0  0  0  0
 38 77  2  0  0  0  0
 39 60  1  0  0  0  0
 39 71  1  0  0  0  0
 39 78  2  0  0  0  0
 40 62  1  0  0  0  0
 40 73  1  0  0  0  0
 40 79  2  0  0  0  0
 41 67  1  0  0  0  0
 41 70  1  0  0  0  0
 41 80  2  0  0  0  0
 42 45  1  0  0  0  0
 43 52  1  0  0  0  0
 44 66  1  0  0  0  0
 45 47  1  0  0  0  0
 46 48  1  0  0  0  0
 46 49  1  0  0  0  0
 47 51  1  0  0  0  0
 48 53  1  0  0  0  0
 49 67  1  0  0  0  0
 50 53  1  0  0  0  0
 50 67  1  0  0  0  0
 51 72  1  0  0  0  0
 52 66  1  0  0  0  0
 53 65  1  0  0  0  0
 55 62  1  0  0  0  0
 56 63  1  0  0  0  0
 57 63  1  0  0  0  0
 58 63  1  0  0  0  0
 59 74  1  0  0  0  0
 60 82  1  0  0  0  0
 61 63  1  0  0  0  0
 61 73  1  0  0  0  0
 62 74  1  0  0  0  0
 64 65  1  0  0  0  0
M  CHG  1  74   1
M  ISO  4  41 100  60 101  70 100  82 101
M  END
> <Batch ID>
0082

> <Smiles>
CNC(C)C(=O)NC(C(=O)N1Cc2cc([101O:1][101CH2:1]C(=O)Nc3sc4cc([100NH:0][100C:0](=O)N5CCCC(n6nc(-c7ccc(Oc8ccc(F)cc8F)cc7)c(C(N)=O)c6N)C5)ccc4c3C)ccc2CC1C(=O)NC1CCCc2ccccc21)C(C)(C)C

> <Shape>
0.259

> <Color>
0.157

> <Negative vol penalty>
0.000

$$$$

  -OEChem-04052300073D

 86 95  0     1  0  0  0  0  0999 V2000
  -31.1526  -35.1851   21.1772 C   0  0  0  0  0  0  0  0  0  0  0  0
  -30.9327  -33.8986   20.6955 C   0  0  0  0  0  0  0  0  0  0  0  0
  -24.7545   -8.7803   21.5827 C   0  0  0  0  0  0  0  0  0  0  0  0
  -23.1972  -10.2481   20.4613 C   0  0  0  0  0  0  0  0  0  0  0  0
  -30.5607  -35.5914   22.3724 C   0  0  0  0  0  0  0  0  0  0  0  0
  -30.1215  -33.0173   21.4094 C   0  0  0  0  0  0  0  0  0  0  0  0
  -26.3809  -28.7581   19.0914 C   0  0  0  0  0  0  0  0  0  0  0  0
  -23.7346   -8.3443   22.4284 C   0  0  0  0  0  0  0  0  0  0  0  0
  -22.1773   -9.8120   21.3070 C   0  0  0  0  0  0  0  0  0  0  0  0
  -26.5263  -27.3844   18.9026 C   0  0  0  0  0  0  0  0  0  0  0  0
  -21.1238   -6.2006   22.2830 C   0  0  0  0  0  0  0  0  0  0  0  0
  -21.0164   -4.8296   22.5157 C   0  0  0  0  0  0  0  0  0  0  0  0
  -25.3914  -26.9830   20.9931 C   0  0  0  0  0  0  0  0  0  0  0  0
  -25.3423  -19.9902   18.2319 C   0  0  0  0  0  0  0  0  0  0  0  0
  -27.2321  -18.6962   19.0009 C   0  0  0  0  0  0  0  0  0  0  0  0
  -25.4268  -17.6116   17.8170 C   0  0  0  0  0  0  0  0  0  0  0  0
  -21.3510   -5.2045   24.8789 C   0  0  0  0  0  0  0  0  0  0  0  0
  -24.4858   -9.7322   20.5991 C   0  0  0  0  0  0  0  0  0  0  0  0
  -25.9104   -9.6303   18.4854 C   0  0  0  0  0  0  0  0  0  0  0  0
  -29.7341  -34.7177   23.0963 C   0  0  0  0  0  0  0  0  0  0  0  0
  -25.7482  -29.2557   20.2397 C   0  0  0  0  0  0  0  0  0  0  0  0
  -29.5191  -33.4118   22.6161 C   0  0  0  0  0  0  0  0  0  0  0  0
  -25.2369  -28.3634   21.1929 C   0  0  0  0  0  0  0  0  0  0  0  0
  -26.5740  -19.9204   18.8829 C   0  0  0  0  0  0  0  0  0  0  0  0
  -24.7687  -18.8358   17.6990 C   0  0  0  0  0  0  0  0  0  0  0  0
  -26.6585  -17.5418   18.4680 C   0  0  0  0  0  0  0  0  0  0  0  0
  -22.4460   -8.8601   22.2906 C   0  0  0  0  0  0  0  0  0  0  0  0
  -26.0341  -26.4967   19.8549 C   0  0  0  0  0  0  0  0  0  0  0  0
  -21.3449   -7.0737   23.3482 C   0  0  0  0  0  0  0  0  0  0  0  0
  -21.1300   -4.3315   23.8137 C   0  0  0  0  0  0  0  0  0  0  0  0
  -21.4585   -6.5756   24.6461 C   0  0  0  0  0  0  0  0  0  0  0  0
  -25.5391  -10.1834   19.7256 C   0  0  0  0  0  0  0  0  0  0  0  0
  -26.9548  -10.4138   18.0589 C   0  0  0  0  0  0  0  0  0  0  0  0
  -27.5418  -23.2491   20.0451 C   0  0  0  0  0  0  0  0  0  0  0  0
  -28.6723  -22.4845   20.5087 C   0  0  0  0  0  0  0  0  0  0  0  0
  -26.5747  -22.3535   19.3512 C   0  0  0  0  0  0  0  0  0  0  0  0
  -29.7496  -22.9153   21.1736 C   0  0  0  0  0  0  0  0  0  0  0  0
  -27.2999  -24.5545   20.1653 C   0  0  0  0  0  0  0  0  0  1  0  0
  -25.3605   -8.5086   17.7819 C   0  0  0  0  0  0  0  0  0  0  0  0
  -26.6402  -31.0962   22.6729 C   0  0  0  0  0  0  0  0  0  0  0  0
  -23.4993  -30.9059   23.4611 C   0  0  0  0  0  0  0  0  0  0  0  0
  -20.5564  -29.1917   23.2433 C   0  0  0  0  0  0  0  0  0  0  0  0
  -28.5566  -16.0562   19.2004 C   0  0  0  0  0  0  0  0  0  0  0  0
  -29.1542  -35.1863   24.4074 C   0  0  0  0  0  0  0  0  0  0  0  0
  -25.5756  -30.7395   20.4156 C   0  0  0  0  0  0  0  0  0  0  0  0
  -24.5317  -28.8461   22.4331 C   0  0  0  0  0  0  0  0  0  0  0  0
  -28.4342  -21.0604   20.1063 C   0  0  0  0  0  0  0  0  0  0  0  0
  -28.0062  -34.3156   24.9115 C   0  0  0  0  0  0  0  0  0  0  0  0
  -30.5218  -13.1354   19.7333 C   0  0  0  0  0  0  0  0  0  0  0  0
  -28.3709  -32.8382   24.8066 C   0  0  0  0  0  0  0  0  0  0  0  0
  -29.5018  -11.9961   19.6729 C   0  0  0  0  0  0  0  0  0  0  0  0
  -29.9425  -14.3803   20.4028 C   0  0  0  0  0  0  0  0  0  0  0  0
  -27.6542  -13.7174   19.7759 C   0  0  0  0  0  0  0  0  0  0  0  0
  -28.6255  -32.4349   23.3491 C   0  0  1  0  0  0  0  0  0  0  0  0
  -25.3707  -31.1488   21.8709 C   0  0  1  0  0  0  0  0  0  0  0  0
  -28.1709  -12.4635   19.0516 C   0  0  2  0  0  0  0  0  0  0  0  0
  -18.1725  -29.2635   24.0238 C   0  0  0  0  0  0  0  0  0  0  0  0
  -24.3792  -29.9653   26.2271 C   0  0  0  0  0  0  0  0  0  0  0  0
  -22.0411  -29.1612   26.6209 C   0  0  0  0  0  0  0  0  0  0  0  0
  -22.4754  -31.5869   26.2334 C   0  0  0  0  0  0  0  0  0  0  0  0
  -19.5319  -29.3500   20.4712 C   0  0  0  0  0  0  0  0  0  0  0  0
  -22.6622  -29.9699   24.2989 C   0  0  1  0  0  0  0  0  0  0  0  0
  -19.1455  -29.6496   22.9206 C   0  0  2  0  0  0  0  0  0  0  0  0
  -22.9044  -30.1615   25.8228 C   0  0  0  0  0  0  0  0  0  0  0  0
  -26.2869  -11.2368   20.0649 N   0  0  0  0  0  0  0  0  0  0  0  0
  -27.1386  -11.3519   19.0317 N   0  0  0  0  0  0  0  0  0  0  0  0
  -27.1473  -21.0716   19.4135 N   0  0  0  0  0  0  0  0  0  0  0  0
  -24.3933  -30.3060   22.5628 N   0  0  0  0  0  0  0  0  0  0  0  0
  -28.6852  -14.7669   19.7590 N   0  0  0  0  0  0  0  0  0  0  0  0
  -23.5233  -18.9057   17.0407 N   0  0  0  0  0  0  0  0  0  0  0  0
  -27.7247  -10.3849   16.9504 N   0  0  0  0  0  0  0  0  0  0  0  0
  -24.2898   -7.8152   18.3627 N   0  0  0  0  0  0  0  0  0  0  0  0
  -27.3281  -16.2987   18.5867 N   0  0  0  0  0  0  0  0  0  0  0  0
  -27.3724  -32.2678   22.6447 N   0  0  0  0  0  0  0  0  0  0  0  0
  -21.2791  -30.1763   23.8832 N   0  0  0  0  0  0  0  0  0  0  0  0
  -18.6796  -29.0335   21.6461 N   0  3  0  0  0  0  0  0  0  0  0  0
  -25.5178  -22.6938   18.8466 O   0  0  0  0  0  0  0  0  0  0  0  0
  -25.8159   -8.1222   16.6788 O   0  0  0  0  0  0  0  0  0  0  0  0
  -26.9330  -30.0693   23.2741 O   0  0  0  0  0  0  0  0  0  0  0  0
  -23.3600  -32.1244   23.5934 O   0  0  0  0  0  0  0  0  0  0  0  0
  -20.9743  -28.0713   22.9596 O   0  0  0  0  0  0  0  0  0  0  0  0
  -29.4789  -16.8747   19.2380 O   0  0  0  0  0  0  0  0  0  0  0  0
  -21.4505   -8.4347   23.1155 O   0  0  0  0  0  0  0  0  0  0  0  0
  -26.1753  -25.1554   19.6734 O   0  0  0  0  0  0  0  0  0  1  0  0
  -21.0253   -3.0150   24.0373 F   0  0  0  0  0  0  0  0  0  0  0  0
  -21.6697   -7.4096   25.6736 F   0  0  0  0  0  0  0  0  0  0  0  0
  1  2  1  0  0  0  0
  1  5  2  0  0  0  0
  2  6  2  0  0  0  0
  3  8  2  0  0  0  0
  3 18  1  0  0  0  0
  4  9  1  0  0  0  0
  4 18  2  0  0  0  0
  5 20  1  0  0  0  0
  6 22  1  0  0  0  0
  7 10  2  0  0  0  0
  7 21  1  0  0  0  0
  8 27  1  0  0  0  0
  9 27  2  0  0  0  0
 10 28  1  0  0  0  0
 11 12  2  0  0  0  0
 11 29  1  0  0  0  0
 12 30  1  0  0  0  0
 13 23  1  0  0  0  0
 13 28  2  0  0  0  0
 14 24  1  0  0  0  0
 14 25  2  0  0  0  0
 15 24  2  0  0  0  0
 15 26  1  0  0  0  0
 16 25  1  0  0  0  0
 16 26  2  0  0  0  0
 17 30  2  0  0  0  0
 17 31  1  0  0  0  0
 18 32  1  0  0  0  0
 19 32  1  0  0  0  0
 19 33  2  0  0  0  0
 19 39  1  0  0  0  0
 20 22  2  0  0  0  0
 20 44  1  0  0  0  0
 21 23  2  0  0  0  0
 21 45  1  0  0  0  0
 22 54  1  0  0  0  0
 23 46  1  0  0  0  0
 24 67  1  0  0  0  0
 25 70  1  0  0  0  0
 26 73  1  0  0  0  0
 27 83  1  0  0  0  0
 28 84  1  0  0  0  0
 29 31  2  0  0  0  0
 29 83  1  0  0  0  0
 30 85  1  0  0  0  0
 31 86  1  0  0  0  0
 32 65  2  0  0  0  0
 33 66  1  0  0  0  0
 33 71  1  0  0  0  0
 34 35  1  0  0  0  0
 34 36  1  0  0  0  0
 34 38  2  0  0  0  0
 35 37  2  0  0  0  0
 35 47  1  0  0  0  0
 36 67  1  0  0  0  0
 36 77  2  0  0  0  0
 38 84  1  0  0  0  0
 39 72  1  0  0  0  0
 39 78  2  0  0  0  0
 40 55  1  0  0  0  0
 40 74  1  0  0  0  0
 40 79  2  0  0  0  0
 41 62  1  0  0  0  0
 41 68  1  0  0  0  0
 41 80  2  0  0  0  0
 42 63  1  0  0  0  0
 42 75  1  0  0  0  0
 42 81  2  0  0  0  0
 43 69  1  0  0  0  0
 43 73  1  0  0  0  0
 43 82  2  0  0  0  0
 44 48  1  0  0  0  0
 45 55  1  0  0  0  0
 46 68  1  0  0  0  0
 47 67  1  0  0  0  0
 48 50  1  0  0  0  0
 49 51  1  0  0  0  0
 49 52  1  0  0  0  0
 50 54  1  0  0  0  0
 51 56  1  0  0  0  0
 52 69  1  0  0  0  0
 53 56  1  0  0  0  0
 53 69  1  0  0  0  0
 54 74  1  0  0  0  0
 55 68  1  0  0  0  0
 56 66  1  0  0  0  0
 57 63  1  0  0  0  0
 58 64  1  0  0  0  0
 59 64  1  0  0  0  0
 60 64  1  0  0  0  0
 61 76  1  0  0  0  0
 62 64  1  0  0  0  0
 62 75  1  0  0  0  0
 63 76  1  0  0  0  0
 65 66  1  0  0  0  0
M  CHG  1  76   1
M  ISO  4  38 101  43 100  73 100  84 101
M  END
> <Batch ID>
0082

> <Smiles>
C=C1CN(c2cc(N)cc([100NH:0][100C:0](=O)N3CCCC(n4nc(-c5ccc(Oc6ccc(F)cc6F)cc5)c(C(N)=O)c4N)C3)c2)C(=O)C1=[101CH:1][101O:1]c1ccc2c(c1)CN(C(=O)C(NC(=O)C(C)NC)C(C)(C)C)C(C(=O)NC1CCCc3ccccc31)C2

> <Shape>
0.274

> <Color>
0.101

> <Negative vol penalty>
0.000

$$$$

  -OEChem-04052300073D

 83 92  0     1  0  0  0  0  0999 V2000
  -29.8977  -36.3403   24.1198 C   0  0  0  0  0  0  0  0  0  0  0  0
  -30.0408  -35.4341   23.0740 C   0  0  0  0  0  0  0  0  0  0  0  0
  -24.1326   -8.8954   21.3435 C   0  0  0  0  0  0  0  0  0  0  0  0
  -22.9195  -10.8960   20.7412 C   0  0  0  0  0  0  0  0  0  0  0  0
  -29.1790  -35.9804   25.2590 C   0  0  0  0  0  0  0  0  0  0  0  0
  -29.4661  -34.1671   23.1672 C   0  0  0  0  0  0  0  0  0  0  0  0
  -26.4573  -29.0892   19.1078 C   0  0  0  0  0  0  0  0  0  0  0  0
  -28.5962  -19.5566   20.2946 C   0  0  0  0  0  0  0  0  0  0  0  0
  -26.4480  -19.2098   19.2449 C   0  0  0  0  0  0  0  0  0  0  0  0
  -28.9083  -18.2110   20.1006 C   0  0  0  0  0  0  0  0  0  0  0  0
  -26.7600  -17.8642   19.0508 C   0  0  0  0  0  0  0  0  0  0  0  0
  -23.1297   -8.5612   22.2535 C   0  0  0  0  0  0  0  0  0  0  0  0
  -21.9166  -10.5618   21.6512 C   0  0  0  0  0  0  0  0  0  0  0  0
  -26.5596  -27.7253   18.8374 C   0  0  0  0  0  0  0  0  0  0  0  0
  -20.0363   -7.1990   22.1623 C   0  0  0  0  0  0  0  0  0  0  0  0
  -19.5876   -5.8784   22.1764 C   0  0  0  0  0  0  0  0  0  0  0  0
  -25.2729  -27.2419   20.8198 C   0  0  0  0  0  0  0  0  0  0  0  0
  -20.2630   -5.6737   24.4870 C   0  0  0  0  0  0  0  0  0  0  0  0
  -24.0275  -10.0628   20.5874 C   0  0  0  0  0  0  0  0  0  0  0  0
  -25.1358  -10.0443   18.2898 C   0  0  0  0  0  0  0  0  0  0  0  0
  -28.5869  -34.7118   25.3622 C   0  0  0  0  0  0  0  0  0  0  0  0
  -25.7702  -29.5399   20.2441 C   0  0  0  0  0  0  0  0  0  0  0  0
  -28.7398  -33.7894   24.3094 C   0  0  0  0  0  0  0  0  0  0  0  0
  -25.1611  -28.6121   21.1010 C   0  0  0  0  0  0  0  0  0  0  0  0
  -27.3660  -20.0560   19.8669 C   0  0  0  0  0  0  0  0  0  0  0  0
  -27.9902  -17.3648   19.4787 C   0  0  0  0  0  0  0  0  0  0  0  0
  -22.0217   -9.3944   22.4074 C   0  0  0  0  0  0  0  0  0  0  0  0
  -25.9699  -26.8013   19.6949 C   0  0  0  0  0  0  0  0  0  0  0  0
  -20.5985   -7.7570   23.3105 C   0  0  0  0  0  0  0  0  0  0  0  0
  -19.7009   -5.1157   23.3388 C   0  0  0  0  0  0  0  0  0  0  0  0
  -20.7118   -6.9943   24.4729 C   0  0  0  0  0  0  0  0  0  0  0  0
  -25.0634  -10.4089   19.6476 C   0  0  0  0  0  0  0  0  0  0  0  0
  -26.3011  -10.6171   17.8421 C   0  0  0  0  0  0  0  0  0  0  0  0
  -26.8297  -23.3466   20.2128 C   0  0  0  0  0  0  0  0  0  0  0  0
  -27.4018  -22.2696   20.9768 C   0  0  0  0  0  0  0  0  0  0  0  0
  -28.0400  -22.2159   22.1501 C   0  0  0  0  0  0  0  0  0  0  0  0
  -26.6763  -24.6745   20.3647 C   0  0  0  0  0  0  0  0  0  1  0  0
  -24.2306   -9.2581   17.5035 C   0  0  0  0  0  0  0  0  0  0  0  0
  -26.5715  -31.1796   22.8466 C   0  0  0  0  0  0  0  0  0  0  0  0
  -23.3801  -31.0790   23.4184 C   0  0  0  0  0  0  0  0  0  0  0  0
  -20.3916  -29.5149   22.8995 C   0  0  0  0  0  0  0  0  0  0  0  0
  -29.4828  -15.3423   19.6460 C   0  0  0  0  0  0  0  0  0  0  0  0
  -27.8594  -34.3514   26.6332 C   0  0  0  0  0  0  0  0  0  0  0  0
  -25.6460  -31.0157   20.5072 C   0  0  0  0  0  0  0  0  0  0  0  0
  -24.3949  -29.0453   22.3231 C   0  0  0  0  0  0  0  0  0  0  0  0
  -26.4789  -22.3524   19.1628 C   0  0  0  0  0  0  0  0  0  0  0  0
  -26.9643  -33.1225   26.4952 C   0  0  0  0  0  0  0  0  0  0  0  0
  -30.6299  -11.9831   19.3686 C   0  0  0  0  0  0  0  0  0  0  0  0
  -27.7083  -31.9975   25.7827 C   0  0  0  0  0  0  0  0  0  0  0  0
  -29.3393  -11.1655   19.2790 C   0  0  0  0  0  0  0  0  0  0  0  0
  -30.4844  -13.1701   20.3192 C   0  0  0  0  0  0  0  0  0  0  0  0
  -28.0485  -13.2300   19.9564 C   0  0  0  0  0  0  0  0  0  0  0  0
  -28.1101  -32.4144   24.3628 C   0  0  1  0  0  0  0  0  0  0  0  0
  -25.3613  -31.3397   21.9706 C   0  0  1  0  0  0  0  0  0  0  0  0
  -28.1258  -12.0611   18.9608 C   0  0  2  0  0  0  0  0  0  0  0  0
  -17.9659  -29.6425   23.5294 C   0  0  0  0  0  0  0  0  0  0  0  0
  -24.0354  -29.9251   26.1660 C   0  0  0  0  0  0  0  0  0  0  0  0
  -21.6459  -29.2023   26.3553 C   0  0  0  0  0  0  0  0  0  0  0  0
  -22.2022  -31.6261   26.1591 C   0  0  0  0  0  0  0  0  0  0  0  0
  -19.5610  -29.8956   20.0845 C   0  0  0  0  0  0  0  0  0  0  0  0
  -22.4521  -30.1295   24.1369 C   0  0  1  0  0  0  0  0  0  0  0  0
  -19.0248  -30.0548   22.5188 C   0  0  2  0  0  0  0  0  0  0  0  0
  -22.5999  -30.2122   25.6824 C   0  0  0  0  0  0  0  0  0  0  0  0
  -26.1003  -11.1554   20.0370 N   0  0  0  0  0  0  0  0  0  0  0  0
  -26.8353  -11.2645   18.9172 N   0  0  0  0  0  0  0  0  0  0  0  0
  -27.0552  -21.3918   20.0612 N   0  0  0  0  0  0  0  0  0  0  0  0
  -24.3070  -30.4987   22.5410 N   0  0  0  0  0  0  0  0  0  0  0  0
  -29.3170  -13.9755   19.9541 N   0  0  0  0  0  0  0  0  0  0  0  0
  -26.9108  -10.6251   16.6377 N   0  0  0  0  0  0  0  0  0  0  0  0
  -23.0811   -8.7460   18.1205 N   0  0  0  0  0  0  0  0  0  0  0  0
  -28.3073  -15.9980   19.2815 N   0  0  0  0  0  0  0  0  0  0  0  0
  -26.9702  -32.3445   23.4739 N   0  0  0  0  0  0  0  0  0  0  0  0
  -21.1092  -30.4234   23.6484 N   0  0  0  0  0  0  0  0  0  0  0  0
  -18.6204  -29.5428   21.1790 N   0  3  0  0  0  0  0  0  0  0  0  0
  -24.4434   -9.0033   16.2938 O   0  0  0  0  0  0  0  0  0  0  0  0
  -27.1033  -30.0801   22.9472 O   0  0  0  0  0  0  0  0  0  0  0  0
  -23.2813  -32.2915   23.6227 O   0  0  0  0  0  0  0  0  0  0  0  0
  -20.7821  -28.3974   22.5688 O   0  0  0  0  0  0  0  0  0  0  0  0
  -30.5907  -15.8844   19.6751 O   0  0  0  0  0  0  0  0  0  0  0  0
  -21.0428   -9.0685   23.2951 O   0  0  0  0  0  0  0  0  0  0  0  0
  -26.0688  -25.4694   19.4337 O   0  0  0  0  0  0  0  0  0  1  0  0
  -19.2686   -3.8480   23.3526 F   0  0  0  0  0  0  0  0  0  0  0  0
  -21.2499   -7.5252   25.5794 F   0  0  0  0  0  0  0  0  0  0  0  0
  1  2  1  0  0  0  0
  1  5  2  0  0  0  0
  2  6  2  0  0  0  0
  3 12  2  0  0  0  0
  3 19  1  0  0  0  0
  4 13  1  0  0  0  0
  4 19  2  0  0  0  0
  5 21  1  0  0  0  0
  6 23  1  0  0  0  0
  7 14  2  0  0  0  0
  7 22  1  0  0  0  0
  8 10  2  0  0  0  0
  8 25  1  0  0  0  0
  9 11  1  0  0  0  0
  9 25  2  0  0  0  0
 10 26  1  0  0  0  0
 11 26  2  0  0  0  0
 12 27  1  0  0  0  0
 13 27  2  0  0  0  0
 14 28  1  0  0  0  0
 15 16  2  0  0  0  0
 15 29  1  0  0  0  0
 16 30  1  0  0  0  0
 17 24  1  0  0  0  0
 17 28  2  0  0  0  0
 18 30  2  0  0  0  0
 18 31  1  0  0  0  0
 19 32  1  0  0  0  0
 20 32  1  0  0  0  0
 20 33  2  0  0  0  0
 20 38  1  0  0  0  0
 21 23  2  0  0  0  0
 21 43  1  0  0  0  0
 22 24  2  0  0  0  0
 22 44  1  0  0  0  0
 23 53  1  0  0  0  0
 24 45  1  0  0  0  0
 25 66  1  0  0  0  0
 26 71  1  0  0  0  0
 27 80  1  0  0  0  0
 28 81  1  0  0  0  0
 29 31  2  0  0  0  0
 29 80  1  0  0  0  0
 30 82  1  0  0  0  0
 31 83  1  0  0  0  0
 32 64  2  0  0  0  0
 33 65  1  0  0  0  0
 33 69  1  0  0  0  0
 34 35  1  0  0  0  0
 34 37  2  0  0  0  0
 34 46  1  0  0  0  0
 35 36  2  0  0  0  0
 35 66  1  0  0  0  0
 37 81  1  0  0  0  0
 38 70  1  0  0  0  0
 38 75  2  0  0  0  0
 39 54  1  0  0  0  0
 39 72  1  0  0  0  0
 39 76  2  0  0  0  0
 40 61  1  0  0  0  0
 40 67  1  0  0  0  0
 40 77  2  0  0  0  0
 41 62  1  0  0  0  0
 41 73  1  0  0  0  0
 41 78  2  0  0  0  0
 42 68  1  0  0  0  0
 42 71  1  0  0  0  0
 42 79  2  0  0  0  0
 43 47  1  0  0  0  0
 44 54  1  0  0  0  0
 45 67  1  0  0  0  0
 46 66  1  0  0  0  0
 47 49  1  0  0  0  0
 48 50  1  0  0  0  0
 48 51  1  0  0  0  0
 49 53  1  0  0  0  0
 50 55  1  0  0  0  0
 51 68  1  0  0  0  0
 52 55  1  0  0  0  0
 52 68  1  0  0  0  0
 53 72  1  0  0  0  0
 54 67  1  0  0  0  0
 55 65  1  0  0  0  0
 56 62  1  0  0  0  0
 57 63  1  0  0  0  0
 58 63  1  0  0  0  0
 59 63  1  0  0  0  0
 60 74  1  0  0  0  0
 61 63  1  0  0  0  0
 61 73  1  0  0  0  0
 62 74  1  0  0  0  0
 64 65  1  0  0  0  0
M  CHG  1  74   1
M  ISO  4  37 101  42 100  71 100  81 101
M  END
> <Batch ID>
0082

> <Smiles>
C=C1C(=[101CH:1][101O:1]c2ccc3c(c2)CN(C(=O)C(NC(=O)C(C)NC)C(C)(C)C)C(C(=O)NC2CCCc4ccccc42)C3)CN1c1ccc([100NH:0][100C:0](=O)N2CCCC(n3nc(-c4ccc(Oc5ccc(F)cc5F)cc4)c(C(N)=O)c3N)C2)cc1

> <Shape>
0.273

> <Color>
0.097

> <Negative vol penalty>
0.000

$$$$

  -OEChem-04052300073D

 82 90  0     1  0  0  0  0  0999 V2000
  -29.9678  -32.2259   16.5192 C   0  0  0  0  0  0  0  0  0  0  0  0
  -29.6534  -31.0561   17.2032 C   0  0  0  0  0  0  0  0  0  0  0  0
  -24.5382   -8.7251   20.6921 C   0  0  0  0  0  0  0  0  0  0  0  0
  -23.0858  -10.6164   21.0801 C   0  0  0  0  0  0  0  0  0  0  0  0
  -29.7986  -33.4625   17.1408 C   0  0  0  0  0  0  0  0  0  0  0  0
  -29.1705  -31.1220   18.5097 C   0  0  0  0  0  0  0  0  0  0  0  0
  -25.2140  -28.0553   19.2755 C   0  0  0  0  0  0  0  0  0  0  0  0
  -28.4866  -18.6007   19.6954 C   0  0  0  0  0  0  0  0  0  0  0  0
  -29.4795  -19.0827   21.8445 C   0  0  0  0  0  0  0  0  0  0  0  0
  -23.4909   -7.8573   21.0012 C   0  0  0  0  0  0  0  0  0  0  0  0
  -22.0384   -9.7486   21.3892 C   0  0  0  0  0  0  0  0  0  0  0  0
  -25.4844  -26.6990   19.4516 C   0  0  0  0  0  0  0  0  0  0  0  0
  -21.9652   -6.6858   23.7804 C   0  0  0  0  0  0  0  0  0  0  0  0
  -22.2430   -5.6108   24.6247 C   0  0  0  0  0  0  0  0  0  0  0  0
  -28.4460  -19.9650   19.4081 C   0  0  0  0  0  0  0  0  0  0  0  0
  -29.4391  -20.4471   21.5572 C   0  0  0  0  0  0  0  0  0  0  0  0
  -25.2639  -26.9710   21.8384 C   0  0  0  0  0  0  0  0  0  0  0  0
  -21.5771   -4.0724   22.8849 C   0  0  0  0  0  0  0  0  0  0  0  0
  -24.3357  -10.1047   20.7316 C   0  0  0  0  0  0  0  0  0  0  0  0
  -25.7492  -11.5168   19.1455 C   0  0  0  0  0  0  0  0  0  0  0  0
  -29.3042  -33.5440   18.4521 C   0  0  0  0  0  0  0  0  0  0  0  0
  -24.9769  -28.8833   20.3822 C   0  0  0  0  0  0  0  0  0  0  0  0
  -28.9957  -32.3607   19.1499 C   0  0  0  0  0  0  0  0  0  0  0  0
  -24.9882  -28.3370   21.6735 C   0  0  0  0  0  0  0  0  0  0  0  0
  -29.0033  -18.1595   20.9137 C   0  0  0  0  0  0  0  0  0  0  0  0
  -22.2410   -8.3690   21.3497 C   0  0  0  0  0  0  0  0  0  0  0  0
  -25.5123  -26.1572   20.7333 C   0  0  0  0  0  0  0  0  0  0  0  0
  -21.4933   -6.4542   22.4884 C   0  0  0  0  0  0  0  0  0  0  0  0
  -22.0490   -4.3041   24.1769 C   0  0  0  0  0  0  0  0  0  0  0  0
  -21.2992   -5.1475   22.0406 C   0  0  0  0  0  0  0  0  0  0  0  0
  -28.9223  -20.8882   20.3390 C   0  0  0  0  0  0  0  0  0  0  0  0
  -25.4174  -11.0016   20.4129 C   0  0  0  0  0  0  0  0  0  0  0  0
  -26.8451  -12.3125   19.3745 C   0  0  0  0  0  0  0  0  0  0  0  0
  -26.9754  -24.3527   20.4617 C   0  0  0  0  0  0  0  0  0  1  0  0
  -27.3297  -23.0737   20.5849 C   0  0  0  0  0  0  0  0  0  0  0  0
  -25.1229  -11.2959   17.8749 C   0  0  0  0  0  0  0  0  0  0  0  0
  -26.4086  -31.4367   21.6208 C   0  0  0  0  0  0  0  0  0  0  0  0
  -23.8381  -31.4347   23.5995 C   0  0  0  0  0  0  0  0  0  0  0  0
  -21.3107  -29.6701   25.0641 C   0  0  0  0  0  0  0  0  0  0  0  0
  -29.5249  -16.1686   22.3665 C   0  0  0  0  0  0  0  0  0  0  0  0
  -29.1828  -34.9010   19.0990 C   0  0  0  0  0  0  0  0  0  0  0  0
  -24.6603  -30.3389   20.1737 C   0  0  0  0  0  0  0  0  0  0  0  0
  -24.7202  -29.1790   22.8932 C   0  0  0  0  0  0  0  0  0  0  0  0
  -28.3119  -34.9024   20.3527 C   0  0  0  0  0  0  0  0  0  0  0  0
  -29.7647  -12.7956   23.4811 C   0  0  0  0  0  0  0  0  0  0  0  0
  -28.6827  -33.7348   21.2616 C   0  0  0  0  0  0  0  0  0  0  0  0
  -28.6824  -12.0706   22.6780 C   0  0  0  0  0  0  0  0  0  0  0  0
  -29.3287  -14.2052   23.8769 C   0  0  0  0  0  0  0  0  0  0  0  0
  -27.7815  -14.3211   21.9633 C   0  0  0  0  0  0  0  0  0  0  0  0
  -28.4460  -32.3923   20.5595 C   0  0  1  0  0  0  0  0  0  0  0  0
  -24.9415  -31.1939   21.4054 C   0  0  1  0  0  0  0  0  0  0  0  0
  -28.2003  -12.9208   21.4862 C   0  0  2  0  0  0  0  0  0  0  0  0
  -19.3938  -29.9323   26.6623 C   0  0  0  0  0  0  0  0  0  0  0  0
  -25.7964  -31.4669   25.9392 C   0  0  0  0  0  0  0  0  0  0  0  0
  -23.9116  -30.7766   27.4357 C   0  0  0  0  0  0  0  0  0  0  0  0
  -23.8063  -32.9545   26.2239 C   0  0  0  0  0  0  0  0  0  0  0  0
  -19.3344  -28.8928   23.0028 C   0  0  0  0  0  0  0  0  0  0  0  0
  -23.5145  -30.8015   24.9311 C   0  0  1  0  0  0  0  0  0  0  0  0
  -19.8278  -29.9629   25.2051 C   0  0  2  0  0  0  0  0  0  0  0  0
  -24.2642  -31.4841   26.1098 C   0  0  0  0  0  0  0  0  0  0  0  0
  -26.2363  -11.4336   21.3757 N   0  0  0  0  0  0  0  0  0  0  0  0
  -27.0936  -12.2286   20.7129 N   0  0  0  0  0  0  0  0  0  0  0  0
  -24.4218  -30.5979   22.6378 N   0  0  0  0  0  0  0  0  0  0  0  0
  -28.8893  -14.9530   22.6969 N   0  0  0  0  0  0  0  0  0  0  0  0
  -27.6108  -13.0687   18.5595 N   0  0  0  0  0  0  0  0  0  0  0  0
  -24.0071  -10.4496   17.8182 N   0  0  0  0  0  0  0  0  0  0  0  0
  -29.0444  -16.7736   21.2055 N   0  0  0  0  0  0  0  0  0  0  0  0
  -27.0368  -32.0626   20.5611 N   0  0  0  0  0  0  0  0  0  0  0  0
  -22.0609  -30.8270   25.0527 N   0  0  0  0  0  0  0  0  0  0  0  0
  -19.0271  -28.9544   24.4549 N   0  3  0  0  0  0  0  0  0  0  0  0
  -25.5502  -11.8200   16.8184 O   0  0  0  0  0  0  0  0  0  0  0  0
  -26.9315  -31.0837   22.6714 O   0  0  0  0  0  0  0  0  0  0  0  0
  -23.5759  -32.6262   23.4168 O   0  0  0  0  0  0  0  0  0  0  0  0
  -21.7590  -28.5291   24.9768 O   0  0  0  0  0  0  0  0  0  0  0  0
  -30.4473  -16.6246   23.0471 O   0  0  0  0  0  0  0  0  0  0  0  0
  -29.9109  -23.2620   20.7621 O   0  0  0  0  0  0  0  0  0  0  0  0
  -28.8884  -22.7419   18.5253 O   0  0  0  0  0  0  0  0  0  0  0  0
  -21.2187   -7.5225   21.6512 O   0  0  0  0  0  0  0  0  0  0  0  0
  -25.7766  -24.8338   20.9080 O   0  0  0  0  0  0  0  0  0  1  0  0
  -22.3173   -3.2718   24.9872 F   0  0  0  0  0  0  0  0  0  0  0  0
  -20.8472   -4.9186   20.8000 F   0  0  0  0  0  0  0  0  0  0  0  0
  -28.8705  -22.6208   19.9742 S   0  0  0  0  0  0  0  0  0  0  0  0
  1  2  1  0  0  0  0
  1  5  2  0  0  0  0
  2  6  2  0  0  0  0
  3 10  2  0  0  0  0
  3 19  1  0  0  0  0
  4 11  1  0  0  0  0
  4 19  2  0  0  0  0
  5 21  1  0  0  0  0
  6 23  1  0  0  0  0
  7 12  2  0  0  0  0
  7 22  1  0  0  0  0
  8 15  2  0  0  0  0
  8 25  1  0  0  0  0
  9 16  1  0  0  0  0
  9 25  2  0  0  0  0
 10 26  1  0  0  0  0
 11 26  2  0  0  0  0
 12 27  1  0  0  0  0
 13 14  2  0  0  0  0
 13 28  1  0  0  0  0
 14 29  1  0  0  0  0
 15 31  1  0  0  0  0
 16 31  2  0  0  0  0
 17 24  1  0  0  0  0
 17 27  2  0  0  0  0
 18 29  2  0  0  0  0
 18 30  1  0  0  0  0
 19 32  1  0  0  0  0
 20 32  1  0  0  0  0
 20 33  2  0  0  0  0
 20 36  1  0  0  0  0
 21 23  2  0  0  0  0
 21 41  1  0  0  0  0
 22 24  2  0  0  0  0
 22 42  1  0  0  0  0
 23 50  1  0  0  0  0
 24 43  1  0  0  0  0
 25 67  1  0  0  0  0
 26 78  1  0  0  0  0
 27 79  1  0  0  0  0
 28 30  2  0  0  0  0
 28 78  1  0  0  0  0
 29 80  1  0  0  0  0
 30 81  1  0  0  0  0
 31 82  1  0  0  0  0
 32 61  2  0  0  0  0
 33 62  1  0  0  0  0
 33 65  1  0  0  0  0
 34 35  2  0  0  0  0
 34 79  1  0  0  0  0
 35 82  1  0  0  0  0
 36 66  1  0  0  0  0
 36 71  2  0  0  0  0
 37 51  1  0  0  0  0
 37 68  1  0  0  0  0
 37 72  2  0  0  0  0
 38 58  1  0  0  0  0
 38 63  1  0  0  0  0
 38 73  2  0  0  0  0
 39 59  1  0  0  0  0
 39 69  1  0  0  0  0
 39 74  2  0  0  0  0
 40 64  1  0  0  0  0
 40 67  1  0  0  0  0
 40 75  2  0  0  0  0
 41 44  1  0  0  0  0
 42 51  1  0  0  0  0
 43 63  1  0  0  0  0
 44 46  1  0  0  0  0
 45 47  1  0  0  0  0
 45 48  1  0  0  0  0
 46 50  1  0  0  0  0
 47 52  1  0  0  0  0
 48 64  1  0  0  0  0
 49 52  1  0  0  0  0
 49 64  1  0  0  0  0
 50 68  1  0  0  0  0
 51 63  1  0  0  0  0
 52 62  1  0  0  0  0
 53 59  1  0  0  0  0
 54 60  1  0  0  0  0
 55 60  1  0  0  0  0
 56 60  1  0  0  0  0
 57 70  1  0  0  0  0
 58 60  1  0  0  0  0
 58 69  1  0  0  0  0
 59 70  1  0  0  0  0
 61 62  1  0  0  0  0
 76 82  2  0  0  0  0
 77 82  2  0  0  0  0
M  CHG  1  70   1
M  ISO  4  34 101  40 100  67 100  79 101
M  END
> <Batch ID>
0082

> <Smiles>
CNC(C)C(=O)NC(C(=O)N1Cc2cc([101O:1][101CH:1]=CS(=O)(=O)c3ccc([100NH:0][100C:0](=O)N4CCCC(n5nc(-c6ccc(Oc7ccc(F)cc7F)cc6)c(C(N)=O)c5N)C4)cc3)ccc2CC1C(=O)NC1CCCc2ccccc21)C(C)(C)C

> <Shape>
0.289

> <Color>
0.107

> <Negative vol penalty>
0.000

$$$$

  -OEChem-04052300073D

 85 93  0     1  0  0  0  0  0999 V2000
  -29.4414  -37.7620   22.5936 C   0  0  0  0  0  0  0  0  0  0  0  0
  -29.2647  -36.4778   22.0886 C   0  0  0  0  0  0  0  0  0  0  0  0
  -24.4416   -9.3958   21.6099 C   0  0  0  0  0  0  0  0  0  0  0  0
  -24.6334  -10.6993   23.6351 C   0  0  0  0  0  0  0  0  0  0  0  0
  -29.9394  -20.8777   21.2939 C   0  0  0  0  0  0  0  0  0  0  0  0
  -28.8634  -38.1164   23.8119 C   0  0  0  0  0  0  0  0  0  0  0  0
  -28.5106  -35.5469   22.8022 C   0  0  0  0  0  0  0  0  0  0  0  0
  -24.8982  -31.1797   20.4818 C   0  0  0  0  0  0  0  0  0  0  0  0
  -29.8882  -19.5366   20.9142 C   0  0  0  0  0  0  0  0  0  0  0  0
  -24.0856   -8.2774   22.3635 C   0  0  0  0  0  0  0  0  0  0  0  0
  -24.2774   -9.5808   24.3887 C   0  0  0  0  0  0  0  0  0  0  0  0
  -25.0976  -29.8181   20.2586 C   0  0  0  0  0  0  0  0  0  0  0  0
  -21.3248   -7.0976   23.9189 C   0  0  0  0  0  0  0  0  0  0  0  0
  -20.2471   -6.3322   23.4736 C   0  0  0  0  0  0  0  0  0  0  0  0
  -27.5250  -20.9615   21.3237 C   0  0  0  0  0  0  0  0  0  0  0  0
  -24.0348  -29.3230   22.3669 C   0  0  0  0  0  0  0  0  0  0  0  0
  -21.6940   -4.4068   23.2817 C   0  0  0  0  0  0  0  0  0  0  0  0
  -24.7156  -10.6068   22.2457 C   0  0  0  0  0  0  0  0  0  0  0  0
  -28.7578  -21.5902   21.4987 C   0  0  0  0  0  0  0  0  0  0  0  0
  -24.2200  -12.7326   20.9255 C   0  0  0  0  0  0  0  0  0  0  0  0
  -28.0938  -37.1924   24.5361 C   0  0  0  0  0  0  0  0  0  0  0  0
  -24.2743  -31.6246   21.6563 C   0  0  0  0  0  0  0  0  0  0  0  0
  -27.9228  -35.8889   24.0320 C   0  0  0  0  0  0  0  0  0  0  0  0
  -23.8264  -30.6907   22.6014 C   0  0  0  0  0  0  0  0  0  0  0  0
  -28.6554  -18.9079   20.7391 C   0  0  0  0  0  0  0  0  0  0  0  0
  -24.0035   -8.3699   23.7529 C   0  0  0  0  0  0  0  0  0  0  0  0
  -24.6684  -28.8896   21.2025 C   0  0  0  0  0  0  0  0  0  0  0  0
  -22.5871   -6.5177   24.0456 C   0  0  0  0  0  0  0  0  0  0  0  0
  -20.4317   -4.9868   23.1550 C   0  0  0  0  0  0  0  0  0  0  0  0
  -27.4738  -19.6203   20.9439 C   0  0  0  0  0  0  0  0  0  0  0  0
  -22.7717   -5.1723   23.7270 C   0  0  0  0  0  0  0  0  0  0  0  0
  -25.0839  -11.7624   21.4679 C   0  0  0  0  0  0  0  0  0  0  0  0
  -25.0541  -13.6131   20.2808 C   0  0  0  0  0  0  0  0  0  0  0  0
  -26.3084  -25.7037   21.2764 C   0  0  0  0  0  0  0  0  0  0  0  0
  -26.0239  -26.9980   21.4378 C   0  0  0  0  0  0  0  0  0  1  0  0
  -28.8125  -23.0183   21.9029 C   0  0  0  0  0  0  0  0  0  0  0  0
  -22.7914  -12.8294   20.9980 C   0  0  0  0  0  0  0  0  0  0  0  0
  -27.5930  -25.1570   21.7913 C   0  0  0  0  0  0  0  0  0  0  0  0
  -25.1484  -33.4497   24.1076 C   0  0  0  0  0  0  0  0  0  0  0  0
  -22.0398  -33.1061   24.9684 C   0  0  0  0  0  0  0  0  0  0  0  0
  -19.1686  -31.2707   24.7846 C   0  0  0  0  0  0  0  0  0  0  0  0
  -29.6866  -16.6974   20.1092 C   0  0  0  0  0  0  0  0  0  0  0  0
  -27.5281  -37.6071   25.8712 C   0  0  0  0  0  0  0  0  0  0  0  0
  -24.0427  -33.0954   21.8697 C   0  0  0  0  0  0  0  0  0  0  0  0
  -23.1330  -31.1156   23.8692 C   0  0  0  0  0  0  0  0  0  0  0  0
  -26.4318  -36.6767   26.3838 C   0  0  0  0  0  0  0  0  0  0  0  0
  -29.9823  -13.2741   19.1761 C   0  0  0  0  0  0  0  0  0  0  0  0
  -26.8568  -35.2191   26.2366 C   0  0  0  0  0  0  0  0  0  0  0  0
  -28.6632  -12.6554   19.6446 C   0  0  0  0  0  0  0  0  0  0  0  0
  -30.4828  -14.3437   20.1452 C   0  0  0  0  0  0  0  0  0  0  0  0
  -28.1897  -14.7759   20.9354 C   0  0  0  0  0  0  0  0  0  0  0  0
  -27.0911  -34.8586   24.7647 C   0  0  1  0  0  0  0  0  0  0  0  0
  -23.8577  -33.4642   23.3385 C   0  0  1  0  0  0  0  0  0  0  0  0
  -27.6127  -13.7388   19.9582 C   0  0  2  0  0  0  0  0  0  0  0  0
  -16.8045  -31.2220   25.6250 C   0  0  0  0  0  0  0  0  0  0  0  0
  -23.0297  -32.1455   27.6900 C   0  0  0  0  0  0  0  0  0  0  0  0
  -20.7391  -31.2324   28.1231 C   0  0  0  0  0  0  0  0  0  0  0  0
  -21.0588  -33.6824   27.7798 C   0  0  0  0  0  0  0  0  0  0  0  0
  -18.0676  -31.4436   22.0429 C   0  0  0  0  0  0  0  0  0  0  0  0
  -21.2653  -32.1168   25.8053 C   0  0  1  0  0  0  0  0  0  0  0  0
  -17.7315  -31.6736   24.5072 C   0  0  2  0  0  0  0  0  0  0  0  0
  -21.5380  -32.2861   27.3267 C   0  0  0  0  0  0  0  0  0  0  0  0
  -26.3683  -12.0034   21.1917 N   0  0  0  0  0  0  0  0  0  0  0  0
  -26.3176  -13.1351   20.4686 N   0  0  0  0  0  0  0  0  0  0  0  0
  -22.9354  -32.5651   24.0351 N   0  0  0  0  0  0  0  0  0  0  0  0
  -29.4361  -15.3380   20.3918 N   0  0  0  0  0  0  0  0  0  0  0  0
  -24.8227  -14.7417   19.5771 N   0  0  0  0  0  0  0  0  0  0  0  0
  -22.0895  -11.8402   21.7003 N   0  0  0  0  0  0  0  0  0  0  0  0
  -28.6068  -17.5455   20.3527 N   0  0  0  0  0  0  0  0  0  0  0  0
  -27.7143  -23.7932   21.5319 N   0  0  0  0  0  0  0  0  0  0  0  0
  -25.8287  -34.6523   24.0877 N   0  0  0  0  0  0  0  0  0  0  0  0
  -19.8645  -32.2718   25.4285 N   0  0  0  0  0  0  0  0  0  0  0  0
  -17.2601  -31.0652   23.2310 N   0  3  0  0  0  0  0  0  0  0  0  0
  -29.8028  -23.4327   22.4991 O   0  0  0  0  0  0  0  0  0  0  0  0
  -22.1548  -13.7564   20.4422 O   0  0  0  0  0  0  0  0  0  0  0  0
  -28.4189  -25.8544   22.3712 O   0  0  0  0  0  0  0  0  0  0  0  0
  -25.5003  -32.4238   24.6781 O   0  0  0  0  0  0  0  0  0  0  0  0
  -21.8517  -34.3142   25.1315 O   0  0  0  0  0  0  0  0  0  0  0  0
  -19.6268  -30.1758   24.4655 O   0  0  0  0  0  0  0  0  0  0  0  0
  -30.7697  -17.0773   19.6568 O   0  0  0  0  0  0  0  0  0  0  0  0
  -23.6559   -7.2787   24.4885 O   0  0  0  0  0  0  0  0  0  0  0  0
  -24.8624  -27.5599   20.9874 O   0  0  0  0  0  0  0  0  0  1  0  0
  -19.3964   -4.2515   22.7289 F   0  0  0  0  0  0  0  0  0  0  0  0
  -26.2830  -19.0267   20.7781 F   0  0  0  0  0  0  0  0  0  0  0  0
  -23.9817   -4.6093   23.8478 F   0  0  0  0  0  0  0  0  0  0  0  0
  1  2  1  0  0  0  0
  1  6  2  0  0  0  0
  2  7  2  0  0  0  0
  3 10  2  0  0  0  0
  3 18  1  0  0  0  0
  4 11  1  0  0  0  0
  4 18  2  0  0  0  0
  5  9  2  0  0  0  0
  5 19  1  0  0  0  0
  6 21  1  0  0  0  0
  7 23  1  0  0  0  0
  8 12  2  0  0  0  0
  8 22  1  0  0  0  0
  9 25  1  0  0  0  0
 10 26  1  0  0  0  0
 11 26  2  0  0  0  0
 12 27  1  0  0  0  0
 13 14  2  0  0  0  0
 13 28  1  0  0  0  0
 14 29  1  0  0  0  0
 15 19  2  0  0  0  0
 15 30  1  0  0  0  0
 16 24  1  0  0  0  0
 16 27  2  0  0  0  0
 17 29  2  0  0  0  0
 17 31  1  0  0  0  0
 18 32  1  0  0  0  0
 19 36  1  0  0  0  0
 20 32  1  0  0  0  0
 20 33  2  0  0  0  0
 20 37  1  0  0  0  0
 21 23  2  0  0  0  0
 21 43  1  0  0  0  0
 22 24  2  0  0  0  0
 22 44  1  0  0  0  0
 23 52  1  0  0  0  0
 24 45  1  0  0  0  0
 25 30  2  0  0  0  0
 25 69  1  0  0  0  0
 26 81  1  0  0  0  0
 27 82  1  0  0  0  0
 28 31  2  0  0  0  0
 28 81  1  0  0  0  0
 29 83  1  0  0  0  0
 30 84  1  0  0  0  0
 31 85  1  0  0  0  0
 32 63  2  0  0  0  0
 33 64  1  0  0  0  0
 33 67  1  0  0  0  0
 34 35  2  0  0  0  0
 34 38  1  0  0  0  0
 35 82  1  0  0  0  0
 36 70  1  0  0  0  0
 36 74  2  0  0  0  0
 37 68  1  0  0  0  0
 37 75  2  0  0  0  0
 38 70  1  0  0  0  0
 38 76  2  0  0  0  0
 39 53  1  0  0  0  0
 39 71  1  0  0  0  0
 39 77  2  0  0  0  0
 40 60  1  0  0  0  0
 40 65  1  0  0  0  0
 40 78  2  0  0  0  0
 41 61  1  0  0  0  0
 41 72  1  0  0  0  0
 41 79  2  0  0  0  0
 42 66  1  0  0  0  0
 42 69  1  0  0  0  0
 42 80  2  0  0  0  0
 43 46  1  0  0  0  0
 44 53  1  0  0  0  0
 45 65  1  0  0  0  0
 46 48  1  0  0  0  0
 47 49  1  0  0  0  0
 47 50  1  0  0  0  0
 48 52  1  0  0  0  0
 49 54  1  0  0  0  0
 50 66  1  0  0  0  0
 51 54  1  0  0  0  0
 51 66  1  0  0  0  0
 52 71  1  0  0  0  0
 53 65  1  0  0  0  0
 54 64  1  0  0  0  0
 55 61  1  0  0  0  0
 56 62  1  0  0  0  0
 57 62  1  0  0  0  0
 58 62  1  0  0  0  0
 59 73  1  0  0  0  0
 60 62  1  0  0  0  0
 60 72  1  0  0  0  0
 61 73  1  0  0  0  0
 63 64  1  0  0  0  0
M  CHG  1  73   1
M  ISO  4  35 101  42 100  69 100  82 101
M  END
> <Batch ID>
0082

> <Smiles>
CNC(C)C(=O)NC(C(=O)N1Cc2cc([101O:1][101CH:1]=CC(=O)NC(=O)c3ccc([100NH:0][100C:0](=O)N4CCCC(n5nc(-c6ccc(Oc7ccc(F)cc7F)cc6)c(C(N)=O)c5N)C4)c(F)c3)ccc2CC1C(=O)NC1CCCc2ccccc21)C(C)(C)C

> <Shape>
0.292

> <Color>
0.108

> <Negative vol penalty>
0.000

$$$$

  -OEChem-04052300073D

 84 93  0     1  0  0  0  0  0999 V2000
  -27.4753  -30.7989   28.3941 C   0  0  0  0  0  0  0  0  0  0  0  0
  -27.5268  -29.8833   27.3479 C   0  0  0  0  0  0  0  0  0  0  0  0
  -23.9702   -9.5489   21.5860 C   0  0  0  0  0  0  0  0  0  0  0  0
  -24.6036  -10.7385   23.5912 C   0  0  0  0  0  0  0  0  0  0  0  0
  -26.3357  -31.5805   28.5794 C   0  0  0  0  0  0  0  0  0  0  0  0
  -26.4382  -29.7481   26.4870 C   0  0  0  0  0  0  0  0  0  0  0  0
  -27.8243  -29.5370   21.6209 C   0  0  0  0  0  0  0  0  0  0  0  0
  -28.5861  -20.5947   20.0690 C   0  0  0  0  0  0  0  0  0  0  0  0
  -30.7361  -20.2238   19.0312 C   0  0  0  0  0  0  0  0  0  0  0  0
  -28.4261  -19.2184   20.2296 C   0  0  0  0  0  0  0  0  0  0  0  0
  -30.5761  -18.8474   19.1918 C   0  0  0  0  0  0  0  0  0  0  0  0
  -23.5217   -8.4800   22.3617 C   0  0  0  0  0  0  0  0  0  0  0  0
  -24.1551   -9.6696   24.3670 C   0  0  0  0  0  0  0  0  0  0  0  0
  -28.3334  -28.3253   21.1558 C   0  0  0  0  0  0  0  0  0  0  0  0
  -20.7982   -7.7169   24.2145 C   0  0  0  0  0  0  0  0  0  0  0  0
  -19.5652   -7.1519   23.8888 C   0  0  0  0  0  0  0  0  0  0  0  0
  -26.1880  -27.8039   20.1839 C   0  0  0  0  0  0  0  0  0  0  0  0
  -30.5171  -24.4532   18.5090 C   0  0  0  0  0  0  0  0  0  0  0  0
  -20.6421   -5.0236   23.5043 C   0  0  0  0  0  0  0  0  0  0  0  0
  -29.3687  -23.4205   20.1475 C   0  0  0  0  0  0  0  0  0  0  0  0
  -24.5112  -10.6782   22.2007 C   0  0  0  0  0  0  0  0  0  0  0  0
  -24.2280  -12.8973   20.9747 C   0  0  0  0  0  0  0  0  0  0  0  0
  -25.2364  -31.4617   27.7145 C   0  0  0  0  0  0  0  0  0  0  0  0
  -26.4879  -29.8870   21.3799 C   0  0  0  0  0  0  0  0  0  0  0  0
  -25.2823  -30.5280   26.6617 C   0  0  0  0  0  0  0  0  0  0  0  0
  -25.6651  -29.0218   20.6448 C   0  0  0  0  0  0  0  0  0  0  0  0
  -29.7361  -24.6602   19.6728 C   0  0  0  0  0  0  0  0  0  0  0  0
  -29.7410  -21.0974   19.4698 C   0  0  0  0  0  0  0  0  0  0  0  0
  -29.4211  -18.3448   19.7910 C   0  0  0  0  0  0  0  0  0  0  0  0
  -23.6141   -8.5403   23.7522 C   0  0  0  0  0  0  0  0  0  0  0  0
  -27.5144  -27.4572   20.4397 C   0  0  0  0  0  0  0  0  0  0  0  0
  -21.9531   -6.9353   24.1851 C   0  0  0  0  0  0  0  0  0  0  0  0
  -19.4871   -5.8053   23.5337 C   0  0  0  0  0  0  0  0  0  0  0  0
  -21.8751   -5.5887   23.8300 C   0  0  0  0  0  0  0  0  0  0  0  0
  -24.9752  -11.7825   21.3998 C   0  0  0  0  0  0  0  0  0  0  0  0
  -25.1178  -13.6501   20.2481 C   0  0  0  0  0  0  0  0  0  0  0  0
  -30.6030  -23.0932   18.3079 C   0  0  0  0  0  0  0  0  0  0  0  0
  -22.8526  -13.2233   21.2153 C   0  0  0  0  0  0  0  0  0  0  0  0
  -23.9591  -30.4800   23.2121 C   0  0  0  0  0  0  0  0  0  0  0  0
  -22.5831  -31.2716   20.3832 C   0  0  0  0  0  0  0  0  0  0  0  0
  -22.5386  -30.9320   16.9877 C   0  0  0  0  0  0  0  0  0  0  0  0
  -30.1473  -15.9422   19.5746 C   0  0  0  0  0  0  0  0  0  0  0  0
  -24.0080  -32.2946   27.9831 C   0  0  0  0  0  0  0  0  0  0  0  0
  -25.9615  -31.2097   21.8653 C   0  0  0  0  0  0  0  0  0  0  0  0
  -24.2290  -29.3598   20.3418 C   0  0  0  0  0  0  0  0  0  0  0  0
  -23.0439  -32.3569   26.8012 C   0  0  0  0  0  0  0  0  0  0  0  0
  -29.7643  -12.5480   18.5698 C   0  0  0  0  0  0  0  0  0  0  0  0
  -22.8204  -30.9641   26.2206 C   0  0  0  0  0  0  0  0  0  0  0  0
  -28.4227  -12.1380   19.1815 C   0  0  0  0  0  0  0  0  0  0  0  0
  -30.5416  -13.4903   19.4872 C   0  0  0  0  0  0  0  0  0  0  0  0
  -28.4564  -14.2650   20.5459 C   0  0  0  0  0  0  0  0  0  0  0  0
  -24.1315  -30.3699   25.6918 C   0  0  1  0  0  0  0  0  0  0  0  0
  -24.4425  -31.2333   22.0052 C   0  0  1  0  0  0  0  0  0  0  0  0
  -27.6085  -13.3674   19.6298 C   0  0  2  0  0  0  0  0  0  0  0  0
  -21.2736  -31.6715   14.9505 C   0  0  0  0  0  0  0  0  0  0  0  0
  -20.3386  -29.3231   21.0727 C   0  0  0  0  0  0  0  0  0  0  0  0
  -19.6420  -29.3836   18.6687 C   0  0  0  0  0  0  0  0  0  0  0  0
  -19.5765  -31.4682   20.0372 C   0  0  0  0  0  0  0  0  0  0  0  0
  -24.9281  -32.2472   15.8390 C   0  0  0  0  0  0  0  0  0  0  0  0
  -29.3750  -25.9848   20.2781 C   0  0  0  0  0  0  0  0  0  1  0  0
  -21.8105  -30.5235   19.3238 C   0  0  1  0  0  0  0  0  0  0  0  0
  -22.4472  -31.9593   15.8738 C   0  0  2  0  0  0  0  0  0  0  0  0
  -20.3684  -30.1670   19.7828 C   0  0  0  0  0  0  0  0  0  0  0  0
  -26.2420  -11.8196   20.9782 N   0  0  0  0  0  0  0  0  0  0  0  0
  -29.9010  -22.4755   19.3098 N   0  0  0  0  0  0  0  0  0  0  0  0
  -26.2977  -12.9669   20.2806 N   0  0  0  0  0  0  0  0  0  0  0  0
  -23.7589  -30.6618   20.8432 N   0  0  0  0  0  0  0  0  0  0  0  0
  -29.7088  -14.6335   19.8673 N   0  0  0  0  0  0  0  0  0  0  0  0
  -24.9981  -14.8232   19.5908 N   0  0  0  0  0  0  0  0  0  0  0  0
  -22.0809  -12.3398   21.9822 N   0  0  0  0  0  0  0  0  0  0  0  0
  -29.2574  -16.9467   19.9537 N   0  0  0  0  0  0  0  0  0  0  0  0
  -24.4673  -30.9487   24.4086 N   0  0  0  0  0  0  0  0  0  0  0  0
  -21.8684  -31.3452   18.1197 N   0  0  0  0  0  0  0  0  0  0  0  0
  -23.6965  -31.9548   15.0613 N   0  3  0  0  0  0  0  0  0  0  0  0
  -22.3194  -14.2588   20.7497 O   0  0  0  0  0  0  0  0  0  0  0  0
  -23.1814  -29.5440   23.0686 O   0  0  0  0  0  0  0  0  0  0  0  0
  -22.1628  -32.3604   20.7827 O   0  0  0  0  0  0  0  0  0  0  0  0
  -23.1409  -29.8678   16.8646 O   0  0  0  0  0  0  0  0  0  0  0  0
  -31.2199  -16.1547   19.0033 O   0  0  0  0  0  0  0  0  0  0  0  0
  -31.2192  -22.3994   17.3585 O   0  0  0  0  0  0  0  0  0  0  0  0
  -23.1764   -7.4975   24.5096 O   0  0  0  0  0  0  0  0  0  0  0  0
  -28.0086  -26.2735   19.9852 O   0  0  0  0  0  0  0  0  0  1  0  0
  -18.3028   -5.2625   23.2224 F   0  0  0  0  0  0  0  0  0  0  0  0
  -22.9810   -4.8325   23.8011 F   0  0  0  0  0  0  0  0  0  0  0  0
  1  2  1  0  0  0  0
  1  5  2  0  0  0  0
  2  6  2  0  0  0  0
  3 12  2  0  0  0  0
  3 21  1  0  0  0  0
  4 13  1  0  0  0  0
  4 21  2  0  0  0  0
  5 23  1  0  0  0  0
  6 25  1  0  0  0  0
  7 14  2  0  0  0  0
  7 24  1  0  0  0  0
  8 10  2  0  0  0  0
  8 28  1  0  0  0  0
  9 11  1  0  0  0  0
  9 28  2  0  0  0  0
 10 29  1  0  0  0  0
 11 29  2  0  0  0  0
 12 30  1  0  0  0  0
 13 30  2  0  0  0  0
 14 31  1  0  0  0  0
 15 16  2  0  0  0  0
 15 32  1  0  0  0  0
 16 33  1  0  0  0  0
 17 26  1  0  0  0  0
 17 31  2  0  0  0  0
 18 27  1  0  0  0  0
 18 37  2  0  0  0  0
 19 33  2  0  0  0  0
 19 34  1  0  0  0  0
 20 27  2  0  0  0  0
 20 65  1  0  0  0  0
 21 35  1  0  0  0  0
 22 35  1  0  0  0  0
 22 36  2  0  0  0  0
 22 38  1  0  0  0  0
 23 25  2  0  0  0  0
 23 43  1  0  0  0  0
 24 26  2  0  0  0  0
 24 44  1  0  0  0  0
 25 52  1  0  0  0  0
 26 45  1  0  0  0  0
 27 60  1  0  0  0  0
 28 65  1  0  0  0  0
 29 71  1  0  0  0  0
 30 81  1  0  0  0  0
 31 82  1  0  0  0  0
 32 34  2  0  0  0  0
 32 81  1  0  0  0  0
 33 83  1  0  0  0  0
 34 84  1  0  0  0  0
 35 64  2  0  0  0  0
 36 66  1  0  0  0  0
 36 69  1  0  0  0  0
 37 65  1  0  0  0  0
 37 80  1  0  0  0  0
 38 70  1  0  0  0  0
 38 75  2  0  0  0  0
 39 53  1  0  0  0  0
 39 72  1  0  0  0  0
 39 76  2  0  0  0  0
 40 61  1  0  0  0  0
 40 67  1  0  0  0  0
 40 77  2  0  0  0  0
 41 62  1  0  0  0  0
 41 73  1  0  0  0  0
 41 78  2  0  0  0  0
 42 68  1  0  0  0  0
 42 71  1  0  0  0  0
 42 79  2  0  0  0  0
 43 46  1  0  0  0  0
 44 53  1  0  0  0  0
 45 67  1  0  0  0  0
 46 48  1  0  0  0  0
 47 49  1  0  0  0  0
 47 50  1  0  0  0  0
 48 52  1  0  0  0  0
 49 54  1  0  0  0  0
 50 68  1  0  0  0  0
 51 54  1  0  0  0  0
 51 68  1  0  0  0  0
 52 72  1  0  0  0  0
 53 67  1  0  0  0  0
 54 66  1  0  0  0  0
 55 62  1  0  0  0  0
 56 63  1  0  0  0  0
 57 63  1  0  0  0  0
 58 63  1  0  0  0  0
 59 74  1  0  0  0  0
 60 82  1  0  0  0  0
 61 63  1  0  0  0  0
 61 73  1  0  0  0  0
 62 74  1  0  0  0  0
 64 66  1  0  0  0  0
M  CHG  1  74   1
M  ISO  4  42 100  60 101  71 100  82 101
M  END
> <Batch ID>
0082

> <Smiles>
CNC(C)C(=O)NC(C(=O)N1Cc2cc([101O:1][101CH2:1]C3=CN(c4ccc([100NH:0][100C:0](=O)N5CCCC(n6nc(-c7ccc(Oc8ccc(F)cc8F)cc7)c(C(N)=O)c6N)C5)cc4)C(=O)C3)ccc2CC1C(=O)NC1CCCc2ccccc21)C(C)(C)C

> <Shape>
0.331

> <Color>
0.146

> <Negative vol penalty>
0.000

$$$$

  -OEChem-04052300073D

 84 93  0     1  0  0  0  0  0999 V2000
  -31.9667  -36.5933   17.3638 C   0  0  0  0  0  0  0  0  0  0  0  0
  -31.7918  -35.2248   17.1853 C   0  0  0  0  0  0  0  0  0  0  0  0
  -24.4348   -8.2687   21.3129 C   0  0  0  0  0  0  0  0  0  0  0  0
  -24.0937  -10.0301   22.9310 C   0  0  0  0  0  0  0  0  0  0  0  0
  -31.6957  -37.1739   18.6021 C   0  0  0  0  0  0  0  0  0  0  0  0
  -31.3468  -34.4358   18.2455 C   0  0  0  0  0  0  0  0  0  0  0  0
  -27.7032  -29.5253   17.9038 C   0  0  0  0  0  0  0  0  0  0  0  0
  -26.5013  -19.7385   18.5856 C   0  0  0  0  0  0  0  0  0  0  0  0
  -28.8679  -19.9819   19.0064 C   0  0  0  0  0  0  0  0  0  0  0  0
  -26.6477  -18.3516   18.5641 C   0  0  0  0  0  0  0  0  0  0  0  0
  -29.0143  -18.5949   18.9849 C   0  0  0  0  0  0  0  0  0  0  0  0
  -24.0291   -7.3241   22.2555 C   0  0  0  0  0  0  0  0  0  0  0  0
  -23.6879   -9.0854   23.8737 C   0  0  0  0  0  0  0  0  0  0  0  0
  -27.9708  -28.1570   17.9015 C   0  0  0  0  0  0  0  0  0  0  0  0
  -21.1195   -6.1867   23.5491 C   0  0  0  0  0  0  0  0  0  0  0  0
  -20.2261   -5.1991   23.1341 C   0  0  0  0  0  0  0  0  0  0  0  0
  -27.5515  -28.0771   20.2757 C   0  0  0  0  0  0  0  0  0  0  0  0
  -21.8415   -3.4967   23.7081 C   0  0  0  0  0  0  0  0  0  0  0  0
  -24.4672   -9.6217   21.6506 C   0  0  0  0  0  0  0  0  0  0  0  0
  -24.0727  -11.2857   19.7577 C   0  0  0  0  0  0  0  0  0  0  0  0
  -31.2379  -36.3932   19.6752 C   0  0  0  0  0  0  0  0  0  0  0  0
  -27.3677  -30.1829   19.0961 C   0  0  0  0  0  0  0  0  0  0  0  0
  -31.0707  -35.0063   19.4997 C   0  0  0  0  0  0  0  0  0  0  0  0
  -27.2775  -29.4533   20.2901 C   0  0  0  0  0  0  0  0  0  0  0  0
  -27.6114  -20.5537   18.8067 C   0  0  0  0  0  0  0  0  0  0  0  0
  -27.9042  -17.7797   18.7638 C   0  0  0  0  0  0  0  0  0  0  0  0
  -23.6556   -7.7324   23.5359 C   0  0  0  0  0  0  0  0  0  0  0  0
  -27.8978  -27.4333   19.0881 C   0  0  0  0  0  0  0  0  0  0  0  0
  -22.3739   -5.8293   24.0435 C   0  0  0  0  0  0  0  0  0  0  0  0
  -20.5871   -3.8541   23.2136 C   0  0  0  0  0  0  0  0  0  0  0  0
  -22.7349   -4.4843   24.1231 C   0  0  0  0  0  0  0  0  0  0  0  0
  -24.8868  -10.5980   20.6775 C   0  0  0  0  0  0  0  0  0  0  0  0
  -24.9426  -12.0918   19.0649 C   0  0  0  0  0  0  0  0  0  0  0  0
  -27.2587  -23.9004   18.8578 C   0  0  0  0  0  0  0  0  0  0  0  0
  -26.3914  -22.7428   18.6676 C   0  0  0  0  0  0  0  0  0  0  0  0
  -28.3490  -22.9437   19.0157 C   0  0  0  0  0  0  0  0  0  0  0  0
  -27.1178  -25.2382   18.8782 C   0  0  0  0  0  0  0  0  0  1  0  0
  -22.6567  -11.2033   19.5482 C   0  0  0  0  0  0  0  0  0  0  0  0
  -28.6682  -32.5232   20.8094 C   0  0  0  0  0  0  0  0  0  0  0  0
  -25.9432  -32.2387   22.5460 C   0  0  0  0  0  0  0  0  0  0  0  0
  -23.3201  -30.2857   23.5217 C   0  0  0  0  0  0  0  0  0  0  0  0
  -29.2290  -15.6428   18.9223 C   0  0  0  0  0  0  0  0  0  0  0  0
  -31.0033  -37.0581   21.0085 C   0  0  0  0  0  0  0  0  0  0  0  0
  -27.0558  -31.6542   19.0770 C   0  0  0  0  0  0  0  0  0  0  0  0
  -26.9018  -30.1083   21.5932 C   0  0  0  0  0  0  0  0  0  0  0  0
  -30.1771  -36.2122   21.9739 C   0  0  0  0  0  0  0  0  0  0  0  0
  -30.0031  -12.1680   18.9775 C   0  0  0  0  0  0  0  0  0  0  0  0
  -30.6907  -34.7761   21.9994 C   0  0  0  0  0  0  0  0  0  0  0  0
  -28.6741  -11.5063   19.3490 C   0  0  0  0  0  0  0  0  0  0  0  0
  -30.2000  -13.4948   19.7085 C   0  0  0  0  0  0  0  0  0  0  0  0
  -27.7650  -13.7891   19.9402 C   0  0  0  0  0  0  0  0  0  0  0  0
  -30.5659  -34.1211   20.6185 C   0  0  1  0  0  0  0  0  0  0  0  0
  -27.2263  -32.3188   20.4396 C   0  0  1  0  0  0  0  0  0  0  0  0
  -27.4924  -12.4812   19.1794 C   0  0  2  0  0  0  0  0  0  0  0  0
  -21.2754  -30.3164   24.9763 C   0  0  0  0  0  0  0  0  0  0  0  0
  -27.7012  -31.9222   25.0198 C   0  0  0  0  0  0  0  0  0  0  0  0
  -25.7058  -31.0255   26.2374 C   0  0  0  0  0  0  0  0  0  0  0  0
  -25.6805  -33.3577   25.3527 C   0  0  0  0  0  0  0  0  0  0  0  0
  -21.5282  -29.8244   21.2120 C   0  0  0  0  0  0  0  0  0  0  0  0
  -25.5167  -31.4181   23.7392 C   0  0  1  0  0  0  0  0  0  0  0  0
  -21.8280  -30.5589   23.5804 C   0  0  2  0  0  0  0  0  0  0  0  0
  -26.1600  -31.9186   25.0632 C   0  0  0  0  0  0  0  0  0  0  0  0
  -26.1750  -10.9374   20.5803 N   0  0  0  0  0  0  0  0  0  0  0  0
  -26.1769  -11.8472   19.5912 N   0  0  0  0  0  0  0  0  0  0  0  0
  -27.4674  -21.9207   18.8276 N   0  0  0  0  0  0  0  0  0  0  0  0
  -26.6122  -31.5501   21.5242 N   0  0  0  0  0  0  0  0  0  0  0  0
  -29.0435  -14.3686   19.4991 N   0  0  0  0  0  0  0  0  0  0  0  0
  -24.7646  -12.9788   18.0630 N   0  0  0  0  0  0  0  0  0  0  0  0
  -21.9132  -10.3241   20.3473 N   0  0  0  0  0  0  0  0  0  0  0  0
  -28.0533  -16.3708   18.7420 N   0  0  0  0  0  0  0  0  0  0  0  0
  -29.1971  -33.7219   20.3703 N   0  0  0  0  0  0  0  0  0  0  0  0
  -24.0578  -31.4296   23.7421 N   0  0  0  0  0  0  0  0  0  0  0  0
  -21.1015  -29.6734   22.6269 N   0  3  0  0  0  0  0  0  0  0  0  0
  -25.2091  -22.5718   18.4556 O   0  0  0  0  0  0  0  0  0  0  0  0
  -29.5415  -23.0166   19.2260 O   0  0  0  0  0  0  0  0  0  0  0  0
  -22.0706  -11.8769   18.6672 O   0  0  0  0  0  0  0  0  0  0  0  0
  -29.2569  -31.6581   21.4472 O   0  0  0  0  0  0  0  0  0  0  0  0
  -25.6858  -33.4448   22.5184 O   0  0  0  0  0  0  0  0  0  0  0  0
  -23.7848  -29.1685   23.3061 O   0  0  0  0  0  0  0  0  0  0  0  0
  -30.3451  -16.0468   18.5861 O   0  0  0  0  0  0  0  0  0  0  0  0
  -23.2594   -6.8109   24.4559 O   0  0  0  0  0  0  0  0  0  0  0  0
  -28.1592  -26.0978   19.0887 O   0  0  0  0  0  0  0  0  0  1  0  0
  -19.7286   -2.9058   22.8165 F   0  0  0  0  0  0  0  0  0  0  0  0
  -23.9381   -4.1348   24.5983 F   0  0  0  0  0  0  0  0  0  0  0  0
  1  2  1  0  0  0  0
  1  5  2  0  0  0  0
  2  6  2  0  0  0  0
  3 12  2  0  0  0  0
  3 19  1  0  0  0  0
  4 13  1  0  0  0  0
  4 19  2  0  0  0  0
  5 21  1  0  0  0  0
  6 23  1  0  0  0  0
  7 14  2  0  0  0  0
  7 22  1  0  0  0  0
  8 10  2  0  0  0  0
  8 25  1  0  0  0  0
  9 11  1  0  0  0  0
  9 25  2  0  0  0  0
 10 26  1  0  0  0  0
 11 26  2  0  0  0  0
 12 27  1  0  0  0  0
 13 27  2  0  0  0  0
 14 28  1  0  0  0  0
 15 16  2  0  0  0  0
 15 29  1  0  0  0  0
 16 30  1  0  0  0  0
 17 24  1  0  0  0  0
 17 28  2  0  0  0  0
 18 30  2  0  0  0  0
 18 31  1  0  0  0  0
 19 32  1  0  0  0  0
 20 32  1  0  0  0  0
 20 33  2  0  0  0  0
 20 38  1  0  0  0  0
 21 23  2  0  0  0  0
 21 43  1  0  0  0  0
 22 24  2  0  0  0  0
 22 44  1  0  0  0  0
 23 52  1  0  0  0  0
 24 45  1  0  0  0  0
 25 65  1  0  0  0  0
 26 70  1  0  0  0  0
 27 81  1  0  0  0  0
 28 82  1  0  0  0  0
 29 31  2  0  0  0  0
 29 81  1  0  0  0  0
 30 83  1  0  0  0  0
 31 84  1  0  0  0  0
 32 63  2  0  0  0  0
 33 64  1  0  0  0  0
 33 68  1  0  0  0  0
 34 35  1  0  0  0  0
 34 36  1  0  0  0  0
 34 37  2  0  0  0  0
 35 65  1  0  0  0  0
 35 74  2  0  0  0  0
 36 65  1  0  0  0  0
 36 75  2  0  0  0  0
 37 82  1  0  0  0  0
 38 69  1  0  0  0  0
 38 76  2  0  0  0  0
 39 53  1  0  0  0  0
 39 71  1  0  0  0  0
 39 77  2  0  0  0  0
 40 60  1  0  0  0  0
 40 66  1  0  0  0  0
 40 78  2  0  0  0  0
 41 61  1  0  0  0  0
 41 72  1  0  0  0  0
 41 79  2  0  0  0  0
 42 67  1  0  0  0  0
 42 70  1  0  0  0  0
 42 80  2  0  0  0  0
 43 46  1  0  0  0  0
 44 53  1  0  0  0  0
 45 66  1  0  0  0  0
 46 48  1  0  0  0  0
 47 49  1  0  0  0  0
 47 50  1  0  0  0  0
 48 52  1  0  0  0  0
 49 54  1  0  0  0  0
 50 67  1  0  0  0  0
 51 54  1  0  0  0  0
 51 67  1  0  0  0  0
 52 71  1  0  0  0  0
 53 66  1  0  0  0  0
 54 64  1  0  0  0  0
 55 61  1  0  0  0  0
 56 62  1  0  0  0  0
 57 62  1  0  0  0  0
 58 62  1  0  0  0  0
 59 73  1  0  0  0  0
 60 62  1  0  0  0  0
 60 72  1  0  0  0  0
 61 73  1  0  0  0  0
 63 64  1  0  0  0  0
M  CHG  1  73   1
M  ISO  4  37 101  42 100  70 100  82 101
M  END
> <Batch ID>
0082

> <Smiles>
CNC(C)C(=O)NC(C(=O)N1Cc2cc([101O:1][101CH:1]=C3C(=O)N(c4ccc([100NH:0][100C:0](=O)N5CCCC(n6nc(-c7ccc(Oc8ccc(F)cc8F)cc7)c(C(N)=O)c6N)C5)cc4)C3=O)ccc2CC1C(=O)NC1CCCc2ccccc21)C(C)(C)C

> <Shape>
0.262

> <Color>
0.109

> <Negative vol penalty>
0.000

$$$$

  -OEChem-04052300073D

 84 92  0     1  0  0  0  0  0999 V2000
  -24.6709  -37.1973   18.7994 C   0  0  0  0  0  0  0  0  0  0  0  0
  -25.3806  -36.0335   18.5212 C   0  0  0  0  0  0  0  0  0  0  0  0
  -23.8285   -8.9561   19.9868 C   0  0  0  0  0  0  0  0  0  0  0  0
  -23.1828  -10.7346   21.4891 C   0  0  0  0  0  0  0  0  0  0  0  0
  -24.1792  -37.4222   20.0846 C   0  0  0  0  0  0  0  0  0  0  0  0
  -25.6000  -35.0944   19.5284 C   0  0  0  0  0  0  0  0  0  0  0  0
  -25.8242  -29.0066   18.9003 C   0  0  0  0  0  0  0  0  0  0  0  0
  -30.4756  -19.8151   20.2272 C   0  0  0  0  0  0  0  0  0  0  0  0
  -30.4110  -18.4231   20.1651 C   0  0  0  0  0  0  0  0  0  0  0  0
  -22.9717   -8.0810   20.6544 C   0  0  0  0  0  0  0  0  0  0  0  0
  -22.3259   -9.8595   22.1567 C   0  0  0  0  0  0  0  0  0  0  0  0
  -26.8891  -28.1139   18.7871 C   0  0  0  0  0  0  0  0  0  0  0  0
  -19.6571   -7.4178   20.7353 C   0  0  0  0  0  0  0  0  0  0  0  0
  -18.8424   -6.5916   19.9611 C   0  0  0  0  0  0  0  0  0  0  0  0
  -26.7718  -27.6828   21.1577 C   0  0  0  0  0  0  0  0  0  0  0  0
  -28.4193  -19.9667   18.9679 C   0  0  0  0  0  0  0  0  0  0  0  0
  -19.8661   -4.6451   20.9612 C   0  0  0  0  0  0  0  0  0  0  0  0
  -23.9341  -10.2828   20.4042 C   0  0  0  0  0  0  0  0  0  0  0  0
  -24.5091  -12.0058   18.6130 C   0  0  0  0  0  0  0  0  0  0  0  0
  -24.3844  -36.4809   21.1056 C   0  0  0  0  0  0  0  0  0  0  0  0
  -25.2312  -29.2528   20.1470 C   0  0  0  0  0  0  0  0  0  0  0  0
  -25.1118  -35.3076   20.8288 C   0  0  0  0  0  0  0  0  0  0  0  0
  -25.6978  -28.5772   21.2836 C   0  0  0  0  0  0  0  0  0  0  0  0
  -29.4797  -20.5869   19.6286 C   0  0  0  0  0  0  0  0  0  0  0  0
  -29.3506  -17.8029   19.5044 C   0  0  0  0  0  0  0  0  0  0  0  0
  -22.2203   -8.5327   21.7393 C   0  0  0  0  0  0  0  0  0  0  0  0
  -27.3650  -27.4541   19.9164 C   0  0  0  0  0  0  0  0  0  0  0  0
  -20.5764   -6.8576   21.6224 C   0  0  0  0  0  0  0  0  0  0  0  0
  -18.9469   -5.2053   20.0741 C   0  0  0  0  0  0  0  0  0  0  0  0
  -28.3547  -18.5747   18.9058 C   0  0  0  0  0  0  0  0  0  0  0  0
  -20.6809   -5.4713   21.7353 C   0  0  0  0  0  0  0  0  0  0  0  0
  -24.8195  -11.1871   19.7154 C   0  0  0  0  0  0  0  0  0  0  0  0
  -25.6807  -12.6668   18.3355 C   0  0  0  0  0  0  0  0  0  0  0  0
  -28.1204  -25.2696   19.5583 C   0  0  0  0  0  0  0  0  0  1  0  0
  -23.2723  -12.1556   17.9034 C   0  0  0  0  0  0  0  0  0  0  0  0
  -29.0635  -24.3280   19.4334 C   0  0  0  0  0  0  0  0  0  0  0  0
  -28.6476  -22.9141   19.1573 C   0  0  0  0  0  0  0  0  0  0  0  0
  -24.8891  -31.8110   22.0023 C   0  0  0  0  0  0  0  0  0  0  0  0
  -23.0670  -29.7978   23.7770 C   0  0  0  0  0  0  0  0  0  0  0  0
  -22.3186  -26.5883   24.6634 C   0  0  0  0  0  0  0  0  0  0  0  0
  -30.1952  -15.4785   19.9839 C   0  0  0  0  0  0  0  0  0  0  0  0
  -23.8746  -36.7899   22.4910 C   0  0  0  0  0  0  0  0  0  0  0  0
  -24.0659  -30.1985   20.2479 C   0  0  0  0  0  0  0  0  0  0  0  0
  -25.0826  -28.7910   22.6416 C   0  0  0  0  0  0  0  0  0  0  0  0
  -23.8273  -35.5709   23.4086 C   0  0  0  0  0  0  0  0  0  0  0  0
  -30.3744  -11.9237   20.0789 C   0  0  0  0  0  0  0  0  0  0  0  0
  -25.1275  -34.7792   23.3120 C   0  0  0  0  0  0  0  0  0  0  0  0
  -28.9196  -11.4826   19.9021 C   0  0  0  0  0  0  0  0  0  0  0  0
  -30.4834  -13.1946   20.9197 C   0  0  0  0  0  0  0  0  0  0  0  0
  -28.2044  -13.8769   20.2796 C   0  0  0  0  0  0  0  0  0  0  0  0
  -25.3489  -34.2536   21.8885 C   0  0  1  0  0  0  0  0  0  0  0  0
  -23.8727  -30.7610   21.6527 C   0  0  1  0  0  0  0  0  0  0  0  0
  -28.0394  -12.6374   19.3852 C   0  0  2  0  0  0  0  0  0  0  0  0
  -20.8086  -25.2604   26.1647 C   0  0  0  0  0  0  0  0  0  0  0  0
  -24.7954  -30.5496   26.1765 C   0  0  0  0  0  0  0  0  0  0  0  0
  -23.8889  -28.5439   27.3697 C   0  0  0  0  0  0  0  0  0  0  0  0
  -22.3491  -30.3762   26.6664 C   0  0  0  0  0  0  0  0  0  0  0  0
  -21.0621  -25.2045   22.3688 C   0  0  0  0  0  0  0  0  0  0  0  0
  -23.3294  -28.8400   24.9140 C   0  0  1  0  0  0  0  0  0  0  0  0
  -20.9927  -25.8582   24.7785 C   0  0  2  0  0  0  0  0  0  0  0  0
  -23.6038  -29.5746   26.2565 C   0  0  0  0  0  0  0  0  0  0  0  0
  -26.0888  -11.3145   20.1110 N   0  0  0  0  0  0  0  0  0  0  0  0
  -26.5864  -12.2209   19.2526 N   0  0  0  0  0  0  0  0  0  0  0  0
  -23.9498  -29.7301   22.6899 N   0  0  0  0  0  0  0  0  0  0  0  0
  -29.6260  -14.2459   20.3679 N   0  0  0  0  0  0  0  0  0  0  0  0
  -26.0142  -13.5800   17.3989 N   0  0  0  0  0  0  0  0  0  0  0  0
  -22.1672  -11.4011   18.3203 N   0  0  0  0  0  0  0  0  0  0  0  0
  -29.5455  -21.9998   19.6910 N   0  0  0  0  0  0  0  0  0  0  0  0
  -29.2880  -16.3887   19.4425 N   0  0  0  0  0  0  0  0  0  0  0  0
  -24.5195  -33.0932   21.6435 N   0  0  0  0  0  0  0  0  0  0  0  0
  -22.1895  -27.9303   24.9527 N   0  0  0  0  0  0  0  0  0  0  0  0
  -20.9196  -24.7562   23.7780 N   0  3  0  0  0  0  0  0  0  0  0  0
  -23.1552  -12.9231   16.9182 O   0  0  0  0  0  0  0  0  0  0  0  0
  -27.6235  -22.6700   18.5285 O   0  0  0  0  0  0  0  0  0  0  0  0
  -25.9307  -31.4824   22.5579 O   0  0  0  0  0  0  0  0  0  0  0  0
  -22.1097  -30.5725   23.8477 O   0  0  0  0  0  0  0  0  0  0  0  0
  -23.3650  -26.0238   24.3520 O   0  0  0  0  0  0  0  0  0  0  0  0
  -31.4034  -15.6995   20.0996 O   0  0  0  0  0  0  0  0  0  0  0  0
  -30.4103  -24.6067   19.5476 O   0  0  0  0  0  0  0  0  0  0  0  0
  -21.3839   -7.6792   22.3908 O   0  0  0  0  0  0  0  0  0  0  0  0
  -28.4047  -26.5827   19.8088 O   0  0  0  0  0  0  0  0  0  1  0  0
  -18.1634   -4.4120   19.3317 F   0  0  0  0  0  0  0  0  0  0  0  0
  -27.3316  -17.9895   18.2667 F   0  0  0  0  0  0  0  0  0  0  0  0
  -21.5613   -4.9273   22.5866 F   0  0  0  0  0  0  0  0  0  0  0  0
  1  2  1  0  0  0  0
  1  5  2  0  0  0  0
  2  6  2  0  0  0  0
  3 10  2  0  0  0  0
  3 18  1  0  0  0  0
  4 11  1  0  0  0  0
  4 18  2  0  0  0  0
  5 20  1  0  0  0  0
  6 22  1  0  0  0  0
  7 12  2  0  0  0  0
  7 21  1  0  0  0  0
  8  9  2  0  0  0  0
  8 24  1  0  0  0  0
  9 25  1  0  0  0  0
 10 26  1  0  0  0  0
 11 26  2  0  0  0  0
 12 27  1  0  0  0  0
 13 14  2  0  0  0  0
 13 28  1  0  0  0  0
 14 29  1  0  0  0  0
 15 23  1  0  0  0  0
 15 27  2  0  0  0  0
 16 24  2  0  0  0  0
 16 30  1  0  0  0  0
 17 29  2  0  0  0  0
 17 31  1  0  0  0  0
 18 32  1  0  0  0  0
 19 32  1  0  0  0  0
 19 33  2  0  0  0  0
 19 35  1  0  0  0  0
 20 22  2  0  0  0  0
 20 42  1  0  0  0  0
 21 23  2  0  0  0  0
 21 43  1  0  0  0  0
 22 51  1  0  0  0  0
 23 44  1  0  0  0  0
 24 68  1  0  0  0  0
 25 30  2  0  0  0  0
 25 69  1  0  0  0  0
 26 80  1  0  0  0  0
 27 81  1  0  0  0  0
 28 31  2  0  0  0  0
 28 80  1  0  0  0  0
 29 82  1  0  0  0  0
 30 83  1  0  0  0  0
 31 84  1  0  0  0  0
 32 62  2  0  0  0  0
 33 63  1  0  0  0  0
 33 66  1  0  0  0  0
 34 36  2  0  0  0  0
 34 81  1  0  0  0  0
 35 67  1  0  0  0  0
 35 73  2  0  0  0  0
 36 37  1  0  0  0  0
 36 79  1  0  0  0  0
 37 68  1  0  0  0  0
 37 74  2  0  0  0  0
 38 52  1  0  0  0  0
 38 70  1  0  0  0  0
 38 75  2  0  0  0  0
 39 59  1  0  0  0  0
 39 64  1  0  0  0  0
 39 76  2  0  0  0  0
 40 60  1  0  0  0  0
 40 71  1  0  0  0  0
 40 77  2  0  0  0  0
 41 65  1  0  0  0  0
 41 69  1  0  0  0  0
 41 78  2  0  0  0  0
 42 45  1  0  0  0  0
 43 52  1  0  0  0  0
 44 64  1  0  0  0  0
 45 47  1  0  0  0  0
 46 48  1  0  0  0  0
 46 49  1  0  0  0  0
 47 51  1  0  0  0  0
 48 53  1  0  0  0  0
 49 65  1  0  0  0  0
 50 53  1  0  0  0  0
 50 65  1  0  0  0  0
 51 70  1  0  0  0  0
 52 64  1  0  0  0  0
 53 63  1  0  0  0  0
 54 60  1  0  0  0  0
 55 61  1  0  0  0  0
 56 61  1  0  0  0  0
 57 61  1  0  0  0  0
 58 72  1  0  0  0  0
 59 61  1  0  0  0  0
 59 71  1  0  0  0  0
 60 72  1  0  0  0  0
 62 63  1  0  0  0  0
M  CHG  1  72   1
M  ISO  4  34 101  41 100  69 100  81 101
M  END
> <Batch ID>
0082

> <Smiles>
CNC(C)C(=O)NC(C(=O)N1Cc2cc([101O:1][101CH2:1]C(=O)C(=O)Nc3ccc([100NH:0][100C:0](=O)N4CCCC(n5nc(-c6ccc(Oc7ccc(F)cc7F)cc6)c(C(N)=O)c5N)C4)c(F)c3)ccc2CC1C(=O)NC1CCCc2ccccc21)C(C)(C)C

> <Shape>
0.275

> <Color>
0.106

> <Negative vol penalty>
0.000

$$$$

  -OEChem-04052300073D

 88 97  0     1  0  0  0  0  0999 V2000
  -27.0617  -26.4555   12.5131 C   0  0  0  0  0  0  0  0  0  0  0  0
  -26.3558  -26.1239   13.6652 C   0  0  0  0  0  0  0  0  0  0  0  0
  -22.9339  -10.1260   20.6059 C   0  0  0  0  0  0  0  0  0  0  0  0
  -24.4406   -9.1077   22.1965 C   0  0  0  0  0  0  0  0  0  0  0  0
  -24.2333  -19.7410   20.3186 C   0  0  0  0  0  0  0  0  0  0  0  0
  -25.4599  -21.6225   19.4284 C   0  0  0  0  0  0  0  0  0  0  0  0
  -25.2129  -18.8736   19.8352 C   0  0  0  0  0  0  0  0  0  0  0  0
  -26.4395  -20.7551   18.9450 C   0  0  0  0  0  0  0  0  0  0  0  0
  -28.3573  -26.9610   12.6121 C   0  0  0  0  0  0  0  0  0  0  0  0
  -26.9455  -26.2967   14.9169 C   0  0  0  0  0  0  0  0  0  0  0  0
  -23.8091  -28.4454   18.2622 C   0  0  0  0  0  0  0  0  0  0  0  0
  -22.2274   -8.9273   20.5077 C   0  0  0  0  0  0  0  0  0  0  0  0
  -23.7341   -7.9090   22.0984 C   0  0  0  0  0  0  0  0  0  0  0  0
  -22.8383  -27.6287   18.8404 C   0  0  0  0  0  0  0  0  0  0  0  0
  -20.8605   -6.6069   23.3098 C   0  0  0  0  0  0  0  0  0  0  0  0
  -20.5569   -5.9365   24.4947 C   0  0  0  0  0  0  0  0  0  0  0  0
  -24.2045  -27.4141   20.8169 C   0  0  0  0  0  0  0  0  0  0  0  0
  -21.8063   -4.0159   23.7281 C   0  0  0  0  0  0  0  0  0  0  0  0
  -24.0405  -10.2162   21.4503 C   0  0  0  0  0  0  0  0  0  0  0  0
  -24.3568  -21.1155   20.1152 C   0  0  0  0  0  0  0  0  0  0  0  0
  -26.3160  -19.3807   19.1484 C   0  0  0  0  0  0  0  0  0  0  0  0
  -24.5340  -12.5096   22.4524 C   0  0  0  0  0  0  0  0  0  0  0  0
  -28.9596  -27.1492   13.8660 C   0  0  0  0  0  0  0  0  0  0  0  0
  -24.9918  -28.7442   18.9538 C   0  0  0  0  0  0  0  0  0  0  0  0
  -28.2509  -26.8040   15.0326 C   0  0  0  0  0  0  0  0  0  0  0  0
  -25.1877  -28.2369   20.2463 C   0  0  0  0  0  0  0  0  0  0  0  0
  -22.6275   -7.8188   21.2540 C   0  0  0  0  0  0  0  0  0  0  0  0
  -23.0372  -27.1106   20.1167 C   0  0  0  0  0  0  0  0  0  0  0  0
  -21.6370   -5.9818   22.3340 C   0  0  0  0  0  0  0  0  0  0  0  0
  -21.0298   -4.6410   24.7038 C   0  0  0  0  0  0  0  0  0  0  0  0
  -22.1099   -4.6863   22.5432 C   0  0  0  0  0  0  0  0  0  0  0  0
  -24.7711  -11.4540   21.5517 C   0  0  0  0  0  0  0  0  0  0  0  0
  -25.4918  -13.4448   22.1450 C   0  0  0  0  0  0  0  0  0  0  0  0
  -23.0436  -22.0939   21.9445 C   0  0  0  0  0  0  0  0  0  0  0  0
  -23.3153  -22.0384   20.6288 C   0  0  0  0  0  0  0  0  0  0  0  0
  -27.3515  -18.4640   18.6392 C   0  0  0  0  0  0  0  0  0  0  0  0
  -23.5372  -12.6338   23.4754 C   0  0  0  0  0  0  0  0  0  0  0  0
  -28.0836  -28.2089   18.4460 C   0  0  0  0  0  0  0  0  0  0  0  0
  -20.3371  -24.0278   19.4301 C   0  0  0  0  0  0  0  0  0  0  0  0
  -28.4392  -30.0710   21.0782 C   0  0  0  0  0  0  0  0  0  0  0  0
  -27.0852  -31.3085   23.9561 C   0  0  0  0  0  0  0  0  0  0  0  0
  -28.2814  -16.3863   18.3085 C   0  0  0  0  0  0  0  0  0  0  0  0
  -30.3797  -27.6542   13.9208 C   0  0  0  0  0  0  0  0  0  0  0  0
  -26.0174  -29.6484   18.3269 C   0  0  0  0  0  0  0  0  0  0  0  0
  -26.4310  -28.5443   21.0388 C   0  0  0  0  0  0  0  0  0  0  0  0
  -22.0092  -23.0082   22.5213 C   0  0  0  0  0  0  0  0  0  0  0  0
  -22.5907  -22.8911   19.6157 C   0  0  0  0  0  0  0  0  0  0  0  0
  -30.7938  -28.1592   15.3006 C   0  0  0  0  0  0  0  0  0  0  0  0
  -29.5811  -13.1414   19.1955 C   0  0  0  0  0  0  0  0  0  0  0  0
  -30.3713  -27.1683   16.3806 C   0  0  0  0  0  0  0  0  0  0  0  0
  -28.4113  -12.4883   19.9313 C   0  0  0  0  0  0  0  0  0  0  0  0
  -29.0977  -14.0417   18.0627 C   0  0  0  0  0  0  0  0  0  0  0  0
  -26.9484  -14.4363   19.2347 C   0  0  0  0  0  0  0  0  0  0  0  0
  -28.8473  -27.0005   16.4095 C   0  0  1  0  0  0  0  0  0  0  0  0
  -27.4128  -29.4684   18.9165 C   0  0  1  0  0  0  0  0  0  0  0  0
  -27.3971  -13.5446   20.4051 C   0  0  1  0  0  0  0  0  0  0  0  0
  -21.5834  -24.1271   21.5645 C   0  0  1  0  0  0  0  0  0  0  0  0
  -20.3616  -23.6823   17.9613 C   0  0  0  0  0  0  0  0  0  0  0  0
  -27.6306  -32.7749   25.9181 C   0  0  0  0  0  0  0  0  0  0  0  0
  -30.1196  -27.8280   22.2844 C   0  0  0  0  0  0  0  0  0  0  0  0
  -29.8315  -28.9106   24.5234 C   0  0  0  0  0  0  0  0  0  0  0  0
  -31.0063  -30.1306   22.6920 C   0  0  0  0  0  0  0  0  0  0  0  0
  -24.9213  -33.2119   23.2828 C   0  0  0  0  0  0  0  0  0  0  0  0
  -22.5450  -25.3204   21.6030 C   0  0  0  0  0  0  0  0  0  1  0  0
  -28.5005  -29.8194   22.5655 C   0  0  1  0  0  0  0  0  0  0  0  0
  -27.0334  -32.7166   24.5207 C   0  0  2  0  0  0  0  0  0  0  0  0
  -29.8418  -29.1646   23.0009 C   0  0  0  0  0  0  0  0  0  0  0  0
  -25.7988  -11.6953   20.7335 N   0  0  0  0  0  0  0  0  0  0  0  0
  -27.2729  -17.1853   18.8123 N   0  0  0  0  0  0  0  0  0  0  0  0
  -26.2159  -12.9133   21.1187 N   0  0  0  0  0  0  0  0  0  0  0  0
  -27.4071  -29.4280   20.3802 N   0  0  0  0  0  0  0  0  0  0  0  0
  -21.4423  -23.6183   20.1882 N   0  0  0  0  0  0  0  0  0  0  0  0
  -28.1113  -15.0097   18.5444 N   0  0  0  0  0  0  0  0  0  0  0  0
  -25.7768  -14.6617   22.6552 N   0  0  0  0  0  0  0  0  0  0  0  0
  -22.6316  -11.5796   23.6573 N   0  0  0  0  0  0  0  0  0  0  0  0
  -28.2273  -28.1267   17.0741 N   0  0  0  0  0  0  0  0  0  0  0  0
  -28.2244  -31.0998   23.2078 N   0  0  0  0  0  0  0  0  0  0  0  0
  -25.6237  -33.1947   24.5918 N   0  3  0  0  0  0  0  0  0  0  0  0
  -23.4417  -13.6563   24.1957 O   0  0  0  0  0  0  0  0  0  0  0  0
  -28.4454  -27.3741   19.2670 O   0  0  0  0  0  0  0  0  0  0  0  0
  -19.3674  -24.6366   19.8896 O   0  0  0  0  0  0  0  0  0  0  0  0
  -29.2718  -30.8165   20.5562 O   0  0  0  0  0  0  0  0  0  0  0  0
  -26.2050  -30.4756   24.1616 O   0  0  0  0  0  0  0  0  0  0  0  0
  -29.2589  -16.8190   17.6934 O   0  0  0  0  0  0  0  0  0  0  0  0
  -21.9382   -6.6490   21.1586 O   0  0  0  0  0  0  0  0  0  0  0  0
  -22.0915  -26.3126   20.6831 O   0  0  0  0  0  0  0  0  0  1  0  0
  -20.7394   -3.9979   25.8424 F   0  0  0  0  0  0  0  0  0  0  0  0
  -22.8572   -4.0811   21.6100 F   0  0  0  0  0  0  0  0  0  0  0  0
  1  2  1  0  0  0  0
  1  9  2  0  0  0  0
  2 10  2  0  0  0  0
  3 12  2  0  0  0  0
  3 19  1  0  0  0  0
  4 13  1  0  0  0  0
  4 19  2  0  0  0  0
  5  7  2  0  0  0  0
  5 20  1  0  0  0  0
  6  8  1  0  0  0  0
  6 20  2  0  0  0  0
  7 21  1  0  0  0  0
  8 21  2  0  0  0  0
  9 23  1  0  0  0  0
 10 25  1  0  0  0  0
 11 14  2  0  0  0  0
 11 24  1  0  0  0  0
 12 27  1  0  0  0  0
 13 27  2  0  0  0  0
 14 28  1  0  0  0  0
 15 16  2  0  0  0  0
 15 29  1  0  0  0  0
 16 30  1  0  0  0  0
 17 26  1  0  0  0  0
 17 28  2  0  0  0  0
 18 30  2  0  0  0  0
 18 31  1  0  0  0  0
 19 32  1  0  0  0  0
 20 35  1  0  0  0  0
 21 36  1  0  0  0  0
 22 32  1  0  0  0  0
 22 33  2  0  0  0  0
 22 37  1  0  0  0  0
 23 25  2  0  0  0  0
 23 43  1  0  0  0  0
 24 26  2  0  0  0  0
 24 44  1  0  0  0  0
 25 54  1  0  0  0  0
 26 45  1  0  0  0  0
 27 85  1  0  0  0  0
 28 86  1  0  0  0  0
 29 31  2  0  0  0  0
 29 85  1  0  0  0  0
 30 87  1  0  0  0  0
 31 88  1  0  0  0  0
 32 68  2  0  0  0  0
 33 70  1  0  0  0  0
 33 74  1  0  0  0  0
 34 35  2  0  0  0  0
 34 46  1  0  0  0  0
 35 47  1  0  0  0  0
 36 69  2  0  0  0  0
 37 75  1  0  0  0  0
 37 79  2  0  0  0  0
 38 55  1  0  0  0  0
 38 76  1  0  0  0  0
 38 80  2  0  0  0  0
 39 58  1  0  0  0  0
 39 72  1  0  0  0  0
 39 81  2  0  0  0  0
 40 65  1  0  0  0  0
 40 71  1  0  0  0  0
 40 82  2  0  0  0  0
 41 66  1  0  0  0  0
 41 77  1  0  0  0  0
 41 83  2  0  0  0  0
 42 69  1  0  0  0  0
 42 73  1  0  0  0  0
 42 84  2  0  0  0  0
 43 48  1  0  0  0  0
 44 55  1  0  0  0  0
 45 71  1  0  0  0  0
 46 57  1  0  0  0  0
 47 72  1  0  0  0  0
 48 50  1  0  0  0  0
 49 51  1  0  0  0  0
 49 52  1  0  0  0  0
 50 54  1  0  0  0  0
 51 56  1  0  0  0  0
 52 73  1  0  0  0  0
 53 56  1  0  0  0  0
 53 73  1  0  0  0  0
 54 76  1  0  0  0  0
 55 71  1  0  0  0  0
 56 70  1  0  0  0  0
 57 64  1  0  0  0  0
 57 72  1  0  0  0  0
 59 66  1  0  0  0  0
 60 67  1  0  0  0  0
 61 67  1  0  0  0  0
 62 67  1  0  0  0  0
 63 78  1  0  0  0  0
 64 86  1  0  0  0  0
 65 67  1  0  0  0  0
 65 77  1  0  0  0  0
 66 78  1  0  0  0  0
 68 70  1  0  0  0  0
M  CHG  1  78   1
M  ISO  4  42 100  64 101  69 100  86 101
M  END
> <Batch ID>
0082

> <Smiles>
CNC(C)C(=O)NC(C(=O)N1Cc2cc([101O:1][101CH2:1]C3CC=C(c4ccc(C=[100N:0][100C:0](=O)N5CCCC(n6nc(-c7ccc(Oc8ccc(F)cc8F)cc7)c(C(N)=O)c6N)C5)cc4)CN3C(C)=O)ccc2CC1C(=O)NC1CCCc2ccccc21)C(C)(C)C

> <Shape>
0.224

> <Color>
0.107

> <Negative vol penalty>
0.000

$$$$

  -OEChem-04052300073D

 86 94  0     1  0  0  0  0  0999 V2000
  -29.5464  -37.6682   22.6544 C   0  0  0  0  0  0  0  0  0  0  0  0
  -29.3430  -36.3935   22.1356 C   0  0  0  0  0  0  0  0  0  0  0  0
  -24.4444   -9.3569   21.5977 C   0  0  0  0  0  0  0  0  0  0  0  0
  -24.6092  -10.6700   23.6190 C   0  0  0  0  0  0  0  0  0  0  0  0
  -29.8514  -20.8818   21.2795 C   0  0  0  0  0  0  0  0  0  0  0  0
  -28.9750  -38.0217   23.8760 C   0  0  0  0  0  0  0  0  0  0  0  0
  -28.5691  -35.4711   22.8389 C   0  0  0  0  0  0  0  0  0  0  0  0
  -24.8673  -31.2059   20.4702 C   0  0  0  0  0  0  0  0  0  0  0  0
  -29.8142  -19.5388   20.9049 C   0  0  0  0  0  0  0  0  0  0  0  0
  -24.0914   -8.2387   22.3529 C   0  0  0  0  0  0  0  0  0  0  0  0
  -24.2561   -9.5517   24.3743 C   0  0  0  0  0  0  0  0  0  0  0  0
  -25.0381  -29.8428   20.2325 C   0  0  0  0  0  0  0  0  0  0  0  0
  -21.3277   -7.0427   23.8906 C   0  0  0  0  0  0  0  0  0  0  0  0
  -20.2599   -6.2667   23.4397 C   0  0  0  0  0  0  0  0  0  0  0  0
  -27.4363  -20.9461   21.2894 C   0  0  0  0  0  0  0  0  0  0  0  0
  -23.9637  -29.3477   22.3348 C   0  0  0  0  0  0  0  0  0  0  0  0
  -21.7238   -4.3525   23.2675 C   0  0  0  0  0  0  0  0  0  0  0  0
  -24.7034  -10.5727   22.2308 C   0  0  0  0  0  0  0  0  0  0  0  0
  -28.6625  -21.5855   21.4718 C   0  0  0  0  0  0  0  0  0  0  0  0
  -24.2015  -12.6890   20.8979 C   0  0  0  0  0  0  0  0  0  0  0  0
  -28.1857  -37.1064   24.5900 C   0  0  0  0  0  0  0  0  0  0  0  0
  -24.2521  -31.6513   21.6490 C   0  0  0  0  0  0  0  0  0  0  0  0
  -27.9877  -35.8123   24.0719 C   0  0  0  0  0  0  0  0  0  0  0  0
  -23.7839  -30.7169   22.5838 C   0  0  0  0  0  0  0  0  0  0  0  0
  -28.5880  -18.8994   20.7224 C   0  0  0  0  0  0  0  0  0  0  0  0
  -23.9972   -8.3360   23.7412 C   0  0  0  0  0  0  0  0  0  0  0  0
  -24.5889  -28.9135   21.1662 C   0  0  0  0  0  0  0  0  0  0  0  0
  -22.5936   -6.4736   24.0299 C   0  0  0  0  0  0  0  0  0  0  0  0
  -20.4580   -4.9216   23.1282 C   0  0  0  0  0  0  0  0  0  0  0  0
  -27.3991  -19.6030   20.9146 C   0  0  0  0  0  0  0  0  0  0  0  0
  -22.7916   -5.1285   23.7183 C   0  0  0  0  0  0  0  0  0  0  0  0
  -25.0687  -11.7281   21.4512 C   0  0  0  0  0  0  0  0  0  0  0  0
  -25.0336  -13.5736   20.2564 C   0  0  0  0  0  0  0  0  0  0  0  0
  -25.9042  -26.9915   21.3819 C   0  0  0  0  0  0  0  0  0  1  0  0
  -28.7023  -23.0156   21.8706 C   0  0  0  0  0  0  0  0  0  0  0  0
  -22.7715  -12.7745   20.9584 C   0  0  0  0  0  0  0  0  0  0  0  0
  -26.1713  -25.6912   21.2114 C   0  0  0  0  0  0  0  0  0  0  0  0
  -27.4594  -25.1433   21.7367 C   0  0  0  0  0  0  0  0  0  0  0  0
  -25.1626  -33.4313   24.1200 C   0  0  0  0  0  0  0  0  0  0  0  0
  -22.0468  -33.1440   24.9756 C   0  0  0  0  0  0  0  0  0  0  0  0
  -19.1377  -31.3714   24.7708 C   0  0  0  0  0  0  0  0  0  0  0  0
  -29.6422  -16.6949   20.1098 C   0  0  0  0  0  0  0  0  0  0  0  0
  -27.6279  -37.5187   25.9292 C   0  0  0  0  0  0  0  0  0  0  0  0
  -24.0513  -33.1242   21.8780 C   0  0  0  0  0  0  0  0  0  0  0  0
  -23.0987  -31.1428   23.8557 C   0  0  0  0  0  0  0  0  0  0  0  0
  -26.5119  -36.6061   26.4312 C   0  0  0  0  0  0  0  0  0  0  0  0
  -29.9732  -13.2704   19.1932 C   0  0  0  0  0  0  0  0  0  0  0  0
  -26.9062  -35.1415   26.2687 C   0  0  0  0  0  0  0  0  0  0  0  0
  -28.6554  -12.6429   19.6534 C   0  0  0  0  0  0  0  0  0  0  0  0
  -30.4571  -14.3479   20.1619 C   0  0  0  0  0  0  0  0  0  0  0  0
  -28.1543  -14.7646   20.9317 C   0  0  0  0  0  0  0  0  0  0  0  0
  -27.1339  -34.7920   24.7931 C   0  0  1  0  0  0  0  0  0  0  0  0
  -23.8730  -33.4811   23.3505 C   0  0  1  0  0  0  0  0  0  0  0  0
  -27.5936  -13.7189   19.9541 C   0  0  2  0  0  0  0  0  0  0  0  0
  -16.7726  -31.3635   25.6095 C   0  0  0  0  0  0  0  0  0  0  0  0
  -23.0143  -32.1338   27.6873 C   0  0  0  0  0  0  0  0  0  0  0  0
  -20.7047  -31.2645   28.1094 C   0  0  0  0  0  0  0  0  0  0  0  0
  -21.0761  -33.7108   27.7925 C   0  0  0  0  0  0  0  0  0  0  0  0
  -18.0426  -31.5967   22.0305 C   0  0  0  0  0  0  0  0  0  0  0  0
  -21.2511  -32.1623   25.8015 C   0  0  1  0  0  0  0  0  0  0  0  0
  -17.7097  -31.8074   24.4970 C   0  0  2  0  0  0  0  0  0  0  0  0
  -21.5262  -32.3096   27.3247 C   0  0  0  0  0  0  0  0  0  0  0  0
  -26.3533  -11.9784   21.1845 N   0  0  0  0  0  0  0  0  0  0  0  0
  -26.2994  -13.1067   20.4564 N   0  0  0  0  0  0  0  0  0  0  0  0
  -22.9315  -32.5942   24.0370 N   0  0  0  0  0  0  0  0  0  0  0  0
  -29.4004  -15.3346   20.3960 N   0  0  0  0  0  0  0  0  0  0  0  0
  -24.7988  -14.6975   19.5463 N   0  0  0  0  0  0  0  0  0  0  0  0
  -22.0720  -11.7825   21.6590 N   0  0  0  0  0  0  0  0  0  0  0  0
  -28.5536  -17.5351   20.3411 N   0  0  0  0  0  0  0  0  0  0  0  0
  -27.6008  -23.7796   21.4874 N   0  0  0  0  0  0  0  0  0  0  0  0
  -25.8680  -34.6195   24.1134 N   0  0  0  0  0  0  0  0  0  0  0  0
  -19.8541  -32.3508   25.4257 N   0  0  0  0  0  0  0  0  0  0  0  0
  -17.2265  -31.2228   23.2142 N   0  3  0  0  0  0  0  0  0  0  0  0
  -29.6840  -23.4412   22.4732 O   0  0  0  0  0  0  0  0  0  0  0  0
  -22.1319  -13.6940   20.3937 O   0  0  0  0  0  0  0  0  0  0  0  0
  -28.2777  -25.8473   22.3214 O   0  0  0  0  0  0  0  0  0  0  0  0
  -25.4924  -32.3922   24.6797 O   0  0  0  0  0  0  0  0  0  0  0  0
  -21.8840  -34.3540   25.1516 O   0  0  0  0  0  0  0  0  0  0  0  0
  -19.5731  -30.2706   24.4403 O   0  0  0  0  0  0  0  0  0  0  0  0
  -30.7258  -17.0817   19.6647 O   0  0  0  0  0  0  0  0  0  0  0  0
  -25.3052  -24.8308   20.5689 O   0  0  0  0  0  0  0  0  0  0  0  0
  -23.6525   -7.2451   24.4784 O   0  0  0  0  0  0  0  0  0  0  0  0
  -24.7550  -27.5825   20.9370 O   0  0  0  0  0  0  0  0  0  1  0  0
  -19.4321   -4.1762   22.6966 F   0  0  0  0  0  0  0  0  0  0  0  0
  -26.2145  -18.9990   20.7416 F   0  0  0  0  0  0  0  0  0  0  0  0
  -24.0052   -4.5758   23.8512 F   0  0  0  0  0  0  0  0  0  0  0  0
  1  2  1  0  0  0  0
  1  6  2  0  0  0  0
  2  7  2  0  0  0  0
  3 10  2  0  0  0  0
  3 18  1  0  0  0  0
  4 11  1  0  0  0  0
  4 18  2  0  0  0  0
  5  9  2  0  0  0  0
  5 19  1  0  0  0  0
  6 21  1  0  0  0  0
  7 23  1  0  0  0  0
  8 12  2  0  0  0  0
  8 22  1  0  0  0  0
  9 25  1  0  0  0  0
 10 26  1  0  0  0  0
 11 26  2  0  0  0  0
 12 27  1  0  0  0  0
 13 14  2  0  0  0  0
 13 28  1  0  0  0  0
 14 29  1  0  0  0  0
 15 19  2  0  0  0  0
 15 30  1  0  0  0  0
 16 24  1  0  0  0  0
 16 27  2  0  0  0  0
 17 29  2  0  0  0  0
 17 31  1  0  0  0  0
 18 32  1  0  0  0  0
 19 35  1  0  0  0  0
 20 32  1  0  0  0  0
 20 33  2  0  0  0  0
 20 36  1  0  0  0  0
 21 23  2  0  0  0  0
 21 43  1  0  0  0  0
 22 24  2  0  0  0  0
 22 44  1  0  0  0  0
 23 52  1  0  0  0  0
 24 45  1  0  0  0  0
 25 30  2  0  0  0  0
 25 69  1  0  0  0  0
 26 82  1  0  0  0  0
 27 83  1  0  0  0  0
 28 31  2  0  0  0  0
 28 82  1  0  0  0  0
 29 84  1  0  0  0  0
 30 85  1  0  0  0  0
 31 86  1  0  0  0  0
 32 63  2  0  0  0  0
 33 64  1  0  0  0  0
 33 67  1  0  0  0  0
 34 37  2  0  0  0  0
 34 83  1  0  0  0  0
 35 70  1  0  0  0  0
 35 74  2  0  0  0  0
 36 68  1  0  0  0  0
 36 75  2  0  0  0  0
 37 38  1  0  0  0  0
 37 81  1  0  0  0  0
 38 70  1  0  0  0  0
 38 76  2  0  0  0  0
 39 53  1  0  0  0  0
 39 71  1  0  0  0  0
 39 77  2  0  0  0  0
 40 60  1  0  0  0  0
 40 65  1  0  0  0  0
 40 78  2  0  0  0  0
 41 61  1  0  0  0  0
 41 72  1  0  0  0  0
 41 79  2  0  0  0  0
 42 66  1  0  0  0  0
 42 69  1  0  0  0  0
 42 80  2  0  0  0  0
 43 46  1  0  0  0  0
 44 53  1  0  0  0  0
 45 65  1  0  0  0  0
 46 48  1  0  0  0  0
 47 49  1  0  0  0  0
 47 50  1  0  0  0  0
 48 52  1  0  0  0  0
 49 54  1  0  0  0  0
 50 66  1  0  0  0  0
 51 54  1  0  0  0  0
 51 66  1  0  0  0  0
 52 71  1  0  0  0  0
 53 65  1  0  0  0  0
 54 64  1  0  0  0  0
 55 61  1  0  0  0  0
 56 62  1  0  0  0  0
 57 62  1  0  0  0  0
 58 62  1  0  0  0  0
 59 73  1  0  0  0  0
 60 62  1  0  0  0  0
 60 72  1  0  0  0  0
 61 73  1  0  0  0  0
 63 64  1  0  0  0  0
M  CHG  1  73   1
M  ISO  4  34 101  42 100  69 100  83 101
M  END
> <Batch ID>
0082

> <Smiles>
CNC(C)C(=O)NC(C(=O)N1Cc2cc([101O:1][101CH2:1]C(=O)C(=O)NC(=O)c3ccc([100NH:0][100C:0](=O)N4CCCC(n5nc(-c6ccc(Oc7ccc(F)cc7F)cc6)c(C(N)=O)c5N)C4)c(F)c3)ccc2CC1C(=O)NC1CCCc2ccccc21)C(C)(C)C

> <Shape>
0.289

> <Color>
0.105

> <Negative vol penalty>
0.000

$$$$

  -OEChem-04052300073D

 85 93  0     1  0  0  0  0  0999 V2000
  -16.6332  -29.3497   23.8695 C   0  0  0  0  0  0  0  0  0  0  0  0
  -16.9712  -29.1745   22.5315 C   0  0  0  0  0  0  0  0  0  0  0  0
  -26.5128  -12.7421   21.6920 C   0  0  0  0  0  0  0  0  0  0  0  0
  -25.9750  -13.8994   19.6405 C   0  0  0  0  0  0  0  0  0  0  0  0
  -17.6223  -29.6579   24.8026 C   0  0  0  0  0  0  0  0  0  0  0  0
  -18.2985  -29.3084   22.1255 C   0  0  0  0  0  0  0  0  0  0  0  0
  -21.7522  -23.8786   18.8881 C   0  0  0  0  0  0  0  0  0  0  0  0
  -25.2519  -12.1458   21.6861 C   0  0  0  0  0  0  0  0  0  0  0  0
  -24.7141  -13.3030   19.6346 C   0  0  0  0  0  0  0  0  0  0  0  0
  -22.4156  -22.9600   18.0744 C   0  0  0  0  0  0  0  0  0  0  0  0
  -23.7188   -9.5765   20.1110 C   0  0  0  0  0  0  0  0  0  0  0  0
  -23.6462   -8.2110   20.3864 C   0  0  0  0  0  0  0  0  0  0  0  0
  -28.9665  -21.4910   18.0685 C   0  0  0  0  0  0  0  0  0  0  0  0
  -29.4983  -23.7931   17.5642 C   0  0  0  0  0  0  0  0  0  0  0  0
  -24.3831  -24.3660   18.0731 C   0  0  0  0  0  0  0  0  0  0  0  0
  -30.0463  -22.8732   19.7300 C   0  0  0  0  0  0  0  0  0  0  0  0
  -22.2353   -8.6707   22.2930 C   0  0  0  0  0  0  0  0  0  0  0  0
  -26.8744  -13.6190   20.6692 C   0  0  0  0  0  0  0  0  0  0  0  0
  -28.9610  -22.5649   17.1785 C   0  0  0  0  0  0  0  0  0  0  0  0
  -29.3549  -13.7394   20.0859 C   0  0  0  0  0  0  0  0  0  0  0  0
  -18.9638  -29.7862   24.4094 C   0  0  0  0  0  0  0  0  0  0  0  0
  -22.4078  -25.0384   19.3106 C   0  0  0  0  0  0  0  0  0  0  0  0
  -19.3062  -29.6200   23.0539 C   0  0  0  0  0  0  0  0  0  0  0  0
  -23.7279  -25.2837   18.8985 C   0  0  0  0  0  0  0  0  0  0  0  0
  -29.5091  -21.6451   19.3443 C   0  0  0  0  0  0  0  0  0  0  0  0
  -24.3525  -12.4262   20.6575 C   0  0  0  0  0  0  0  0  0  0  0  0
  -23.7277  -23.2033   17.6677 C   0  0  0  0  0  0  0  0  0  0  0  0
  -23.0497  -10.4891   20.9266 C   0  0  0  0  0  0  0  0  0  0  0  0
  -22.9044   -7.7581   21.4774 C   0  0  0  0  0  0  0  0  0  0  0  0
  -30.0409  -23.9472   18.8400 C   0  0  0  0  0  0  0  0  0  0  0  0
  -22.3080  -10.0362   22.0176 C   0  0  0  0  0  0  0  0  0  0  0  0
  -28.1766  -14.2357   20.6749 C   0  0  0  0  0  0  0  0  0  0  0  0
  -30.3068  -14.6878   20.3703 C   0  0  0  0  0  0  0  0  0  0  0  0
  -28.3856  -22.4028   15.8283 C   0  0  0  0  0  0  0  0  0  0  0  0
  -29.5697  -12.5294   19.3474 C   0  0  0  0  0  0  0  0  0  0  0  0
  -22.2392  -28.2149   21.2998 C   0  0  0  0  0  0  0  0  0  0  0  0
  -24.2382  -22.4792   15.4910 C   0  0  0  0  0  0  0  0  0  1  0  0
  -25.0256  -27.0192   21.7649 C   0  0  0  0  0  0  0  0  0  0  0  0
  -27.8272  -25.1620   22.3473 C   0  0  0  0  0  0  0  0  0  0  0  0
  -30.0154  -20.5384   21.5500 C   0  0  0  0  0  0  0  0  0  0  0  0
  -19.9909  -30.1670   25.4462 C   0  0  0  0  0  0  0  0  0  0  0  0
  -21.7113  -26.0851   20.1371 C   0  0  0  0  0  0  0  0  0  0  0  0
  -24.3818  -26.5614   19.3490 C   0  0  0  0  0  0  0  0  0  0  0  0
  -21.4292  -29.9223   24.9972 C   0  0  0  0  0  0  0  0  0  0  0  0
  -31.4218  -18.0141   23.6302 C   0  0  0  0  0  0  0  0  0  0  0  0
  -21.6450  -30.4538   23.5838 C   0  0  0  0  0  0  0  0  0  0  0  0
  -30.8613  -16.7132   23.0511 C   0  0  0  0  0  0  0  0  0  0  0  0
  -30.3990  -19.1474   23.5731 C   0  0  0  0  0  0  0  0  0  0  0  0
  -29.2502  -18.0857   21.6699 C   0  0  0  0  0  0  0  0  0  0  0  0
  -20.7386  -29.7326   22.5788 C   0  0  1  0  0  0  0  0  0  0  0  0
  -22.6457  -26.7790   21.1443 C   0  0  1  0  0  0  0  0  0  0  0  0
  -30.2661  -16.9320   21.6462 C   0  0  2  0  0  0  0  0  0  0  0  0
  -29.9855  -25.2011   23.6269 C   0  0  0  0  0  0  0  0  0  0  0  0
  -26.1842  -28.9877   19.7433 C   0  0  0  0  0  0  0  0  0  0  0  0
  -28.4724  -28.2642   20.4569 C   0  0  0  0  0  0  0  0  0  0  0  0
  -26.9393  -29.3467   22.1003 C   0  0  0  0  0  0  0  0  0  0  0  0
  -27.0971  -22.7376   23.8796 C   0  0  0  0  0  0  0  0  0  0  0  0
  -24.9802  -21.4381   14.6966 C   0  0  0  0  0  0  0  0  0  0  0  0
  -26.4136  -21.8691   14.4416 C   0  0  0  0  0  0  0  0  0  0  0  0
  -26.4723  -26.9806   21.3417 C   0  0  1  0  0  0  0  0  0  0  0  0
  -28.5268  -24.7711   23.6366 C   0  0  2  0  0  0  0  0  0  0  0  0
  -26.9982  -28.3758   20.9009 C   0  0  0  0  0  0  0  0  0  0  0  0
  -28.3607  -15.4083   21.2876 N   0  0  0  0  0  0  0  0  0  0  0  0
  -23.5701  -23.4470   14.9554 N   0  0  0  0  0  0  0  0  0  0  0  0
  -29.6658  -15.6566   21.0850 N   0  0  0  0  0  0  0  0  0  0  0  0
  -24.0681  -26.8144   20.7640 N   0  0  0  0  0  0  0  0  0  0  0  0
  -29.8819  -19.2992   22.2113 N   0  0  0  0  0  0  0  0  0  0  0  0
  -31.6212  -14.7792   20.0765 N   0  0  0  0  0  0  0  0  0  0  0  0
  -29.1810  -22.6057   14.7780 N   0  0  0  0  0  0  0  0  0  0  0  0
  -28.4831  -11.6672   19.1468 N   0  0  0  0  0  0  0  0  0  0  0  0
  -29.5160  -20.5538   20.2481 N   0  0  0  0  0  0  0  0  0  0  0  0
  -21.2725  -28.4247   22.2647 N   0  0  0  0  0  0  0  0  0  0  0  0
  -27.2074  -26.3891   22.4543 N   0  0  0  0  0  0  0  0  0  0  0  0
  -27.0951  -22.0628   15.7232 N   0  3  0  0  0  0  0  0  0  0  0  0
  -28.4735  -23.2941   23.8276 N   0  3  0  0  0  0  0  0  0  0  0  0
  -30.6958  -12.2139   18.8935 O   0  0  0  0  0  0  0  0  0  0  0  0
  -22.7642  -29.0710   20.5975 O   0  0  0  0  0  0  0  0  0  0  0  0
  -24.7490  -27.2307   22.9490 O   0  0  0  0  0  0  0  0  0  0  0  0
  -27.8332  -24.4517   21.3444 O   0  0  0  0  0  0  0  0  0  0  0  0
  -30.5590  -21.5061   22.0885 O   0  0  0  0  0  0  0  0  0  0  0  0
  -23.1221  -11.8443   20.6513 O   0  0  0  0  0  0  0  0  0  0  0  0
  -24.3710  -22.3002   16.8769 O   0  0  0  0  0  0  0  0  0  1  0  0
  -22.8335   -6.4468   21.7409 F   0  0  0  0  0  0  0  0  0  0  0  0
  -30.5567  -25.1266   19.2103 F   0  0  0  0  0  0  0  0  0  0  0  0
  -21.6621  -10.9080   22.8040 F   0  0  0  0  0  0  0  0  0  0  0  0
  1  2  1  0  0  0  0
  1  5  2  0  0  0  0
  2  6  2  0  0  0  0
  3  8  2  0  0  0  0
  3 18  1  0  0  0  0
  4  9  1  0  0  0  0
  4 18  2  0  0  0  0
  5 21  1  0  0  0  0
  6 23  1  0  0  0  0
  7 10  2  0  0  0  0
  7 22  1  0  0  0  0
  8 26  1  0  0  0  0
  9 26  2  0  0  0  0
 10 27  1  0  0  0  0
 11 12  2  0  0  0  0
 11 28  1  0  0  0  0
 12 29  1  0  0  0  0
 13 19  2  0  0  0  0
 13 25  1  0  0  0  0
 14 19  1  0  0  0  0
 14 30  2  0  0  0  0
 15 24  1  0  0  0  0
 15 27  2  0  0  0  0
 16 25  2  0  0  0  0
 16 30  1  0  0  0  0
 17 29  2  0  0  0  0
 17 31  1  0  0  0  0
 18 32  1  0  0  0  0
 19 34  1  0  0  0  0
 20 32  1  0  0  0  0
 20 33  2  0  0  0  0
 20 35  1  0  0  0  0
 21 23  2  0  0  0  0
 21 41  1  0  0  0  0
 22 24  2  0  0  0  0
 22 42  1  0  0  0  0
 23 50  1  0  0  0  0
 24 43  1  0  0  0  0
 25 71  1  0  0  0  0
 26 81  1  0  0  0  0
 27 82  1  0  0  0  0
 28 31  2  0  0  0  0
 28 81  1  0  0  0  0
 29 83  1  0  0  0  0
 30 84  1  0  0  0  0
 31 85  1  0  0  0  0
 32 63  2  0  0  0  0
 33 65  1  0  0  0  0
 33 68  1  0  0  0  0
 34 69  1  0  0  0  0
 34 74  2  0  0  0  0
 35 70  1  0  0  0  0
 35 76  2  0  0  0  0
 36 51  1  0  0  0  0
 36 72  1  0  0  0  0
 36 77  2  0  0  0  0
 37 58  1  0  0  0  0
 37 64  2  0  0  0  0
 37 82  1  0  0  0  0
 38 60  1  0  0  0  0
 38 66  1  0  0  0  0
 38 78  2  0  0  0  0
 39 61  1  0  0  0  0
 39 73  1  0  0  0  0
 39 79  2  0  0  0  0
 40 67  1  0  0  0  0
 40 71  1  0  0  0  0
 40 80  2  0  0  0  0
 41 44  1  0  0  0  0
 42 51  1  0  0  0  0
 43 66  1  0  0  0  0
 44 46  1  0  0  0  0
 45 47  1  0  0  0  0
 45 48  1  0  0  0  0
 46 50  1  0  0  0  0
 47 52  1  0  0  0  0
 48 67  1  0  0  0  0
 49 52  1  0  0  0  0
 49 67  1  0  0  0  0
 50 72  1  0  0  0  0
 51 66  1  0  0  0  0
 52 65  1  0  0  0  0
 53 61  1  0  0  0  0
 54 62  1  0  0  0  0
 55 62  1  0  0  0  0
 56 62  1  0  0  0  0
 57 75  1  0  0  0  0
 58 59  1  0  0  0  0
 59 74  1  0  0  0  0
 60 62  1  0  0  0  0
 60 73  1  0  0  0  0
 61 75  1  0  0  0  0
 63 65  1  0  0  0  0
M  CHG  2  74   1  75   1
M  ISO  4  37 101  40 100  71 100  82 101
M  END
> <Batch ID>
0082

> <Smiles>
CNC(C)C(=O)NC(C(=O)N1Cc2cc([101O:1][101C:1](=N)CCNC(=N)c3cc(F)cc([100NH:0][100C:0](=O)N4CCCC(n5nc(-c6ccc(Oc7ccc(F)cc7F)cc6)c(C(N)=O)c5N)C4)c3)ccc2CC1C(=O)NC1CCCc2ccccc21)C(C)(C)C

> <Shape>
0.272

> <Color>
0.077

> <Negative vol penalty>
0.000

$$$$

  -OEChem-04052300073D

 92102  0     1  0  0  0  0  0999 V2000
  -28.7910  -16.8573   26.1572 C   0  0  0  0  0  0  0  0  0  0  0  0
  -27.8596  -16.3936   25.2336 C   0  0  0  0  0  0  0  0  0  0  0  0
  -26.5342  -29.0895   19.1772 C   0  0  0  0  0  0  0  0  0  0  0  0
  -26.4726  -28.4079   21.4942 C   0  0  0  0  0  0  0  0  0  0  0  0
  -22.7783  -14.8667   23.9974 C   0  0  0  0  0  0  0  0  0  0  0  0
  -30.0576  -17.2530   25.7295 C   0  0  0  0  0  0  0  0  0  0  0  0
  -28.1941  -16.3263   23.8816 C   0  0  0  0  0  0  0  0  0  0  0  0
  -26.7387  -11.9771   21.7342 C   0  0  0  0  0  0  0  0  0  0  0  0
  -23.2761  -15.7443   24.9642 C   0  0  0  0  0  0  0  0  0  0  0  0
  -26.0337  -19.8621   24.6989 C   0  0  0  0  0  0  0  0  0  0  0  0
  -26.5951  -20.5661   23.6303 C   0  0  0  0  0  0  0  0  0  0  0  0
  -25.6592  -30.1377   19.4622 C   0  0  0  0  0  0  0  0  0  0  0  0
  -25.5976  -29.4562   21.7793 C   0  0  0  0  0  0  0  0  0  0  0  0
  -25.3910  -11.8519   21.3997 C   0  0  0  0  0  0  0  0  0  0  0  0
  -25.7925  -32.7895   22.3003 C   0  0  0  0  0  0  0  0  0  0  0  0
  -26.0455  -33.5506   23.4415 C   0  0  0  0  0  0  0  0  0  0  0  0
  -23.7978  -16.1637   22.2173 C   0  0  0  0  0  0  0  0  0  0  0  0
  -25.6834  -18.9796   22.0360 C   0  0  0  0  0  0  0  0  0  0  0  0
  -25.9178  -12.3794   19.1054 C   0  0  0  0  0  0  0  0  0  0  0  0
  -23.8866  -32.9322   24.3324 C   0  0  0  0  0  0  0  0  0  0  0  0
  -24.3112  -17.0642   23.1742 C   0  0  0  0  0  0  0  0  0  0  0  0
  -25.1064  -18.2516   23.0977 C   0  0  0  0  0  0  0  0  0  0  0  0
  -26.9409  -28.2246   20.1931 C   0  0  0  0  0  0  0  0  0  0  0  0
  -23.0341  -15.0712   22.6437 C   0  0  0  0  0  0  0  0  0  0  0  0
  -29.2510  -27.1711   19.9455 C   0  0  0  0  0  0  0  0  0  0  0  0
  -30.4110  -17.1815   24.3728 C   0  0  0  0  0  0  0  0  0  0  0  0
  -27.6861  -12.3157   20.7573 C   0  0  0  0  0  0  0  0  0  0  0  0
  -29.4662  -16.7228   23.4351 C   0  0  0  0  0  0  0  0  0  0  0  0
  -27.2772  -12.5058   19.4296 C   0  0  0  0  0  0  0  0  0  0  0  0
  -24.0379  -16.8322   24.5224 C   0  0  0  0  0  0  0  0  0  0  0  0
  -25.2958  -18.7106   24.4014 C   0  0  0  0  0  0  0  0  0  0  0  0
  -26.4239  -20.1332   22.3176 C   0  0  0  0  0  0  0  0  0  0  0  0
  -25.1909  -30.3211   20.7633 C   0  0  0  0  0  0  0  0  0  0  0  0
  -24.9800  -12.0559   20.0857 C   0  0  0  0  0  0  0  0  0  0  0  0
  -24.5866  -32.0998   22.1751 C   0  0  0  0  0  0  0  0  0  0  0  0
  -25.0925  -33.6219   24.4576 C   0  0  0  0  0  0  0  0  0  0  0  0
  -23.6336  -32.1711   23.1912 C   0  0  0  0  0  0  0  0  0  0  0  0
  -27.8443  -27.1413   19.8992 C   0  0  0  0  0  0  0  0  0  0  0  0
  -29.6334  -25.9026   19.5834 C   0  0  0  0  0  0  0  0  0  0  0  0
  -22.4901  -14.1211   21.6395 C   0  0  0  0  0  0  0  0  0  0  0  0
  -30.1331  -28.2490   20.2856 C   0  0  0  0  0  0  0  0  0  0  0  0
  -29.6892  -14.7450   20.3220 C   0  0  0  0  0  0  0  0  0  0  0  0
  -22.3656   -9.9050   19.6183 C   0  0  0  0  0  0  0  0  0  0  0  0
  -30.7290  -12.9347   17.8393 C   0  0  0  0  0  0  0  0  0  0  0  0
  -30.0616  -10.4798   15.5644 C   0  0  0  0  0  0  0  0  0  0  0  0
  -26.9338  -20.5807   19.8915 C   0  0  0  0  0  0  0  0  0  0  0  0
  -31.7762  -17.6650   23.9518 C   0  0  0  0  0  0  0  0  0  0  0  0
  -29.1397  -12.4207   21.1292 C   0  0  0  0  0  0  0  0  0  0  0  0
  -28.2576  -12.8510   18.3396 C   0  0  0  0  0  0  0  0  0  0  0  0
  -32.1785  -17.2097   22.5514 C   0  0  0  0  0  0  0  0  0  0  0  0
  -28.1943  -22.1626   16.9613 C   0  0  0  0  0  0  0  0  0  0  0  0
  -31.0336  -17.4323   21.5682 C   0  0  0  0  0  0  0  0  0  0  0  0
  -28.3813  -23.6203   17.3882 C   0  0  0  0  0  0  0  0  0  0  0  0
  -26.9538  -21.5395   17.5991 C   0  0  0  0  0  0  0  0  0  0  0  0
  -27.0675  -23.1174   19.4877 C   0  0  0  0  0  0  0  0  0  0  0  0
  -29.7999  -16.6118   21.9632 C   0  0  1  0  0  0  0  0  0  0  0  0
  -29.9456  -13.2740   20.1546 C   0  0  1  0  0  0  0  0  0  0  0  0
  -28.3403  -23.7681   18.9218 C   0  0  2  0  0  0  0  0  0  0  0  0
  -21.5788   -8.7984   20.2729 C   0  0  0  0  0  0  0  0  0  0  0  0
  -31.0940   -9.2445   13.6394 C   0  0  0  0  0  0  0  0  0  0  0  0
  -30.2826  -15.3620   16.0452 C   0  0  0  0  0  0  0  0  0  0  0  0
  -30.4039  -13.8340   14.0656 C   0  0  0  0  0  0  0  0  0  0  0  0
  -32.3789  -14.0841   15.5688 C   0  0  0  0  0  0  0  0  0  0  0  0
  -29.8396   -7.8809   16.9625 C   0  0  0  0  0  0  0  0  0  0  0  0
  -21.7702  -11.7834   21.2237 C   0  0  0  0  0  0  0  0  0  0  0  0
  -22.8856  -11.0172   20.5225 C   0  0  2  0  0  0  0  0  0  1  0  0
  -30.3565  -12.8033   16.3822 C   0  0  1  0  0  0  0  0  0  0  0  0
  -30.8542   -9.2563   15.1411 C   0  0  2  0  0  0  0  0  0  0  0  0
  -30.8365  -14.0163   15.5362 C   0  0  0  0  0  0  0  0  0  0  0  0
  -27.3655  -25.9484   19.5361 N   0  0  0  0  0  0  0  0  0  0  0  0
  -24.6423  -17.8379   25.2392 N   0  0  0  0  0  0  0  0  0  0  0  0
  -28.4776  -25.2169   19.3509 N   0  0  0  0  0  0  0  0  0  0  0  0
  -29.6668  -12.9486   18.7544 N   0  0  0  0  0  0  0  0  0  0  0  0
  -26.9858  -21.7141   19.0528 N   0  0  0  0  0  0  0  0  0  0  0  0
  -30.8422  -25.3180   19.4443 N   0  0  0  0  0  0  0  0  0  0  0  0
  -29.5734  -29.4859   20.6338 N   0  0  0  0  0  0  0  0  0  0  0  0
  -27.0042  -20.8681   21.2543 N   0  0  0  0  0  0  0  0  0  0  0  0
  -22.2706  -12.8237   22.0839 N   0  0  0  0  0  0  0  0  0  0  0  0
  -29.9730  -15.2253   21.5862 N   0  0  0  0  0  0  0  0  0  0  0  0
  -30.8873  -11.5185   15.9395 N   0  0  0  0  0  0  0  0  0  0  0  0
  -30.1220   -8.0118   15.5099 N   0  3  0  0  0  0  0  0  0  0  0  0
  -22.2860  -14.5115   20.4930 O   0  0  0  0  0  0  0  0  0  0  0  0
  -31.3810  -28.1239   20.2649 O   0  0  0  0  0  0  0  0  0  0  0  0
  -29.2666  -15.3964   19.3739 O   0  0  0  0  0  0  0  0  0  0  0  0
  -22.5802   -9.8949   18.4059 O   0  0  0  0  0  0  0  0  0  0  0  0
  -31.9189  -13.0146   18.1544 O   0  0  0  0  0  0  0  0  0  0  0  0
  -28.8330  -10.5123   15.5590 O   0  0  0  0  0  0  0  0  0  0  0  0
  -26.8616  -19.4374   19.4337 O   0  0  0  0  0  0  0  0  0  0  0  0
  -24.3373  -31.3439   21.0419 O   0  0  0  0  0  0  0  0  0  0  0  0
  -23.6651  -11.9349   19.7566 O   0  0  0  0  0  0  0  0  0  1  0  0
  -25.3362  -34.3516   25.5541 F   0  0  0  0  0  0  0  0  0  0  0  0
  -22.4737  -31.5097   23.0771 F   0  0  0  0  0  0  0  0  0  0  0  0
  1  2  1  0  0  0  0
  1  6  2  0  0  0  0
  2  7  2  0  0  0  0
  3 12  2  0  0  0  0
  3 23  1  0  0  0  0
  4 13  1  0  0  0  0
  4 23  2  0  0  0  0
  5  9  2  0  0  0  0
  5 24  1  0  0  0  0
  6 26  1  0  0  0  0
  7 28  1  0  0  0  0
  8 14  2  0  0  0  0
  8 27  1  0  0  0  0
  9 30  1  0  0  0  0
 10 11  2  0  0  0  0
 10 31  1  0  0  0  0
 11 32  1  0  0  0  0
 12 33  1  0  0  0  0
 13 33  2  0  0  0  0
 14 34  1  0  0  0  0
 15 16  2  0  0  0  0
 15 35  1  0  0  0  0
 16 36  1  0  0  0  0
 17 21  1  0  0  0  0
 17 24  2  0  0  0  0
 18 22  1  0  0  0  0
 18 32  2  0  0  0  0
 19 29  1  0  0  0  0
 19 34  2  0  0  0  0
 20 36  2  0  0  0  0
 20 37  1  0  0  0  0
 21 22  1  0  0  0  0
 21 30  2  0  0  0  0
 22 31  2  0  0  0  0
 23 38  1  0  0  0  0
 24 40  1  0  0  0  0
 25 38  1  0  0  0  0
 25 39  2  0  0  0  0
 25 41  1  0  0  0  0
 26 28  2  0  0  0  0
 26 47  1  0  0  0  0
 27 29  2  0  0  0  0
 27 48  1  0  0  0  0
 28 56  1  0  0  0  0
 29 49  1  0  0  0  0
 30 71  1  0  0  0  0
 31 71  1  0  0  0  0
 32 77  1  0  0  0  0
 33 89  1  0  0  0  0
 34 90  1  0  0  0  0
 35 37  2  0  0  0  0
 35 89  1  0  0  0  0
 36 91  1  0  0  0  0
 37 92  1  0  0  0  0
 38 70  2  0  0  0  0
 39 72  1  0  0  0  0
 39 75  1  0  0  0  0
 40 78  1  0  0  0  0
 40 82  2  0  0  0  0
 41 76  1  0  0  0  0
 41 83  2  0  0  0  0
 42 57  1  0  0  0  0
 42 79  1  0  0  0  0
 42 84  2  0  0  0  0
 43 59  1  0  0  0  0
 43 66  1  0  0  0  0
 43 85  2  0  0  0  0
 44 67  1  0  0  0  0
 44 73  1  0  0  0  0
 44 86  2  0  0  0  0
 45 68  1  0  0  0  0
 45 80  1  0  0  0  0
 45 87  2  0  0  0  0
 46 74  1  0  0  0  0
 46 77  1  0  0  0  0
 46 88  2  0  0  0  0
 47 50  1  0  0  0  0
 48 57  1  0  0  0  0
 49 73  1  0  0  0  0
 50 52  1  0  0  0  0
 51 53  1  0  0  0  0
 51 54  1  0  0  0  0
 52 56  1  0  0  0  0
 53 58  1  0  0  0  0
 54 74  1  0  0  0  0
 55 58  1  0  0  0  0
 55 74  1  0  0  0  0
 56 79  1  0  0  0  0
 57 73  1  0  0  0  0
 58 72  1  0  0  0  0
 60 68  1  0  0  0  0
 61 69  1  0  0  0  0
 62 69  1  0  0  0  0
 63 69  1  0  0  0  0
 64 81  1  0  0  0  0
 65 66  1  0  0  0  0
 65 78  1  0  0  0  0
 66 90  1  0  0  0  0
 67 69  1  0  0  0  0
 67 80  1  0  0  0  0
 68 81  1  0  0  0  0
 70 72  1  0  0  0  0
M  CHG  1  81   1
M  ISO  4  46 100  66 101  77 100  90 101
M  END
> <Batch ID>
0082

> <Smiles>
CNC(C)C(=O)NC(C(=O)N1Cc2cc([101O:1][101CH:1](CNC(=O)c3ccc4[nH]c5ccc([100NH:0][100C:0](=O)N6CCCC(n7nc(-c8ccc(Oc9ccc(F)cc9F)cc8)c(C(N)=O)c7N)C6)cc5c4c3)C(C)=O)ccc2CC1C(=O)NC1CCCc2ccccc21)C(C)(C)C

> <Shape>
0.257

> <Color>
0.081

> <Negative vol penalty>
0.000

$$$$

  -OEChem-04052300073D

 86 95  0     1  0  0  0  0  0999 V2000
  -25.9644  -33.1085   28.6359 C   0  0  0  0  0  0  0  0  0  0  0  0
  -26.5692  -32.2432   27.7298 C   0  0  0  0  0  0  0  0  0  0  0  0
  -26.2574  -19.5623   19.4928 C   0  0  0  0  0  0  0  0  0  0  0  0
  -23.0442  -10.4993   19.4044 C   0  0  0  0  0  0  0  0  0  0  0  0
  -23.2894   -9.4876   21.5846 C   0  0  0  0  0  0  0  0  0  0  0  0
  -24.5793  -33.2674   28.6281 C   0  0  0  0  0  0  0  0  0  0  0  0
  -25.7890  -31.5356   26.8161 C   0  0  0  0  0  0  0  0  0  0  0  0
  -27.2992  -30.0288   21.0754 C   0  0  0  0  0  0  0  0  0  0  0  0
  -25.9025  -20.9135   19.4630 C   0  0  0  0  0  0  0  0  0  0  0  0
  -22.0690   -9.5574   19.0769 C   0  0  0  0  0  0  0  0  0  0  0  0
  -22.3141   -8.5456   21.2571 C   0  0  0  0  0  0  0  0  0  0  0  0
  -27.7954  -28.8531   20.5139 C   0  0  0  0  0  0  0  0  0  0  0  0
  -18.9419   -8.4122   21.0806 C   0  0  0  0  0  0  0  0  0  0  0  0
  -17.9595   -8.1409   22.0328 C   0  0  0  0  0  0  0  0  0  0  0  0
  -28.2241  -17.8783   19.5643 C   0  0  0  0  0  0  0  0  0  0  0  0
  -25.5536  -28.2070   19.9005 C   0  0  0  0  0  0  0  0  0  0  0  0
  -28.2352  -21.5508   19.5051 C   0  0  0  0  0  0  0  0  0  0  0  0
  -18.6470   -5.8252   22.0820 C   0  0  0  0  0  0  0  0  0  0  0  0
  -27.6202  -19.1800   19.5296 C   0  0  0  0  0  0  0  0  0  0  0  0
  -23.6544  -10.4644   20.6582 C   0  0  0  0  0  0  0  0  0  0  0  0
  -24.4630  -12.6922   21.6021 C   0  0  0  0  0  0  0  0  0  0  0  0
  -23.7826  -32.5687   27.7074 C   0  0  0  0  0  0  0  0  0  0  0  0
  -25.9230  -30.2978   21.0634 C   0  0  0  0  0  0  0  0  0  0  0  0
  -24.3918  -31.6843   26.7968 C   0  0  0  0  0  0  0  0  0  0  0  0
  -25.0427  -29.3880   20.4603 C   0  0  0  0  0  0  0  0  0  0  0  0
  -26.8828  -21.8957   19.4690 C   0  0  0  0  0  0  0  0  0  0  0  0
  -21.7039   -8.5805   20.0032 C   0  0  0  0  0  0  0  0  0  0  0  0
  -26.9223  -27.9407   19.9289 C   0  0  0  0  0  0  0  0  0  0  0  0
  -19.7768   -7.3901   20.6289 C   0  0  0  0  0  0  0  0  0  0  0  0
  -17.8121   -6.8474   22.5336 C   0  0  0  0  0  0  0  0  0  0  0  0
  -19.6293   -6.0966   21.1297 C   0  0  0  0  0  0  0  0  0  0  0  0
  -28.5896  -20.1877   19.5351 C   0  0  0  0  0  0  0  0  0  0  0  0
  -24.6623  -11.4368   20.9969 C   0  0  0  0  0  0  0  0  0  0  0  0
  -29.5975  -17.9263   19.5943 C   0  0  0  0  0  0  0  0  0  0  0  0
  -25.7240  -13.2259   21.7089 C   0  0  0  0  0  0  0  0  0  0  0  0
  -23.2468  -13.3197   22.0296 C   0  0  0  0  0  0  0  0  0  0  0  0
  -30.5665  -16.8010   19.6343 C   0  0  0  0  0  0  0  0  0  0  0  0
  -23.7012  -30.7246   23.2961 C   0  0  0  0  0  0  0  0  0  0  0  0
  -21.8319  -31.4466   20.7453 C   0  0  0  0  0  0  0  0  0  0  0  0
  -27.3511  -24.3683   19.4387 C   0  0  0  0  0  0  0  0  0  0  0  0
  -21.2468  -31.1244   17.3986 C   0  0  0  0  0  0  0  0  0  0  0  0
  -30.7405  -14.3325   19.6330 C   0  0  0  0  0  0  0  0  0  0  0  0
  -22.2851  -32.7372   27.7684 C   0  0  0  0  0  0  0  0  0  0  0  0
  -25.4064  -31.5830   21.6496 C   0  0  0  0  0  0  0  0  0  0  0  0
  -23.5588  -29.6393   20.4033 C   0  0  0  0  0  0  0  0  0  0  0  0
  -21.5642  -32.2348   26.5202 C   0  0  0  0  0  0  0  0  0  0  0  0
  -30.2710  -11.1085   21.0050 C   0  0  0  0  0  0  0  0  0  0  0  0
  -22.0885  -30.8599   26.1180 C   0  0  0  0  0  0  0  0  0  0  0  0
  -28.7536  -11.0096   21.1838 C   0  0  0  0  0  0  0  0  0  0  0  0
  -30.6440  -11.8570   19.7261 C   0  0  0  0  0  0  0  0  0  0  0  0
  -28.5045  -13.0736   19.7478 C   0  0  0  0  0  0  0  0  0  0  0  0
  -23.5817  -30.9179   25.7739 C   0  0  1  0  0  0  0  0  0  0  0  0
  -23.9328  -31.5128   22.0381 C   0  0  1  0  0  0  0  0  0  0  0  0
  -28.0779  -12.3897   21.0568 C   0  0  1  0  0  0  0  0  0  0  0  0
  -19.6207  -31.7967   15.6094 C   0  0  0  0  0  0  0  0  0  0  0  0
  -19.8520  -29.3606   21.7643 C   0  0  0  0  0  0  0  0  0  0  0  0
  -18.7651  -29.3920   19.5091 C   0  0  0  0  0  0  0  0  0  0  0  0
  -18.8031  -31.4609   20.9023 C   0  0  0  0  0  0  0  0  0  0  0  0
  -23.3311  -32.5897   15.8928 C   0  0  0  0  0  0  0  0  0  0  0  0
  -26.5446  -25.6530   19.4000 C   0  0  0  0  0  0  0  0  0  1  0  0
  -20.9405  -30.6587   19.8160 C   0  0  1  0  0  0  0  0  0  0  0  0
  -20.9117  -32.1504   16.3312 C   0  0  2  0  0  0  0  0  0  0  0  0
  -19.6179  -30.2121   20.5005 C   0  0  0  0  0  0  0  0  0  0  0  0
  -25.9486  -11.1879   20.7373 N   0  0  0  0  0  0  0  0  0  0  0  0
  -26.5690  -12.2942   21.1814 N   0  0  0  0  0  0  0  0  0  0  0  0
  -23.1016  -30.9073   20.9957 N   0  0  0  0  0  0  0  0  0  0  0  0
  -29.9715  -13.1568   19.6870 N   0  0  0  0  0  0  0  0  0  0  0  0
  -26.1814  -14.3966   22.2015 N   0  0  0  0  0  0  0  0  0  0  0  0
  -22.0395  -12.6319   21.8453 N   0  0  0  0  0  0  0  0  0  0  0  0
  -26.5103  -23.2605   19.4385 N   0  0  0  0  0  0  0  0  0  0  0  0
  -30.0059  -15.5235   19.6423 N   0  0  0  0  0  0  0  0  0  0  0  0
  -23.7746  -31.4768   24.4530 N   0  0  0  0  0  0  0  0  0  0  0  0
  -20.7496  -31.4893   18.6318 N   0  0  0  0  0  0  0  0  0  0  0  0
  -22.0075  -32.2270   15.3241 N   0  3  0  0  0  0  0  0  0  0  0  0
  -23.2293  -14.4635   22.5443 O   0  0  0  0  0  0  0  0  0  0  0  0
  -31.7695  -17.0468   19.6181 O   0  0  0  0  0  0  0  0  0  0  0  0
  -23.4713  -29.5231   23.2226 O   0  0  0  0  0  0  0  0  0  0  0  0
  -21.4195  -32.5053   21.2256 O   0  0  0  0  0  0  0  0  0  0  0  0
  -28.5774  -24.3801   19.4656 O   0  0  0  0  0  0  0  0  0  0  0  0
  -21.8826  -30.0997   17.1613 O   0  0  0  0  0  0  0  0  0  0  0  0
  -31.9754  -14.3240   19.6165 O   0  0  0  0  0  0  0  0  0  0  0  0
  -20.7522   -7.6613   19.6841 O   0  0  0  0  0  0  0  0  0  0  0  0
  -27.4039  -26.7921   19.3806 O   0  0  0  0  0  0  0  0  0  1  0  0
  -16.8696   -6.5872   23.4492 F   0  0  0  0  0  0  0  0  0  0  0  0
  -20.4292   -5.1108   20.7006 F   0  0  0  0  0  0  0  0  0  0  0  0
  -30.1818  -19.5274   19.5818 S   0  0  0  0  0  0  0  0  0  0  0  0
  1  2  1  0  0  0  0
  1  6  2  0  0  0  0
  2  7  2  0  0  0  0
  3  9  2  0  0  0  0
  3 19  1  0  0  0  0
  4 10  2  0  0  0  0
  4 20  1  0  0  0  0
  5 11  1  0  0  0  0
  5 20  2  0  0  0  0
  6 22  1  0  0  0  0
  7 24  1  0  0  0  0
  8 12  2  0  0  0  0
  8 23  1  0  0  0  0
  9 26  1  0  0  0  0
 10 27  1  0  0  0  0
 11 27  2  0  0  0  0
 12 28  1  0  0  0  0
 13 14  2  0  0  0  0
 13 29  1  0  0  0  0
 14 30  1  0  0  0  0
 15 19  1  0  0  0  0
 15 34  2  0  0  0  0
 16 25  1  0  0  0  0
 16 28  2  0  0  0  0
 17 26  2  0  0  0  0
 17 32  1  0  0  0  0
 18 30  2  0  0  0  0
 18 31  1  0  0  0  0
 19 32  2  0  0  0  0
 20 33  1  0  0  0  0
 21 33  1  0  0  0  0
 21 35  2  0  0  0  0
 21 36  1  0  0  0  0
 22 24  2  0  0  0  0
 22 43  1  0  0  0  0
 23 25  2  0  0  0  0
 23 44  1  0  0  0  0
 24 52  1  0  0  0  0
 25 45  1  0  0  0  0
 26 70  1  0  0  0  0
 27 82  1  0  0  0  0
 28 83  1  0  0  0  0
 29 31  2  0  0  0  0
 29 82  1  0  0  0  0
 30 84  1  0  0  0  0
 31 85  1  0  0  0  0
 32 86  1  0  0  0  0
 33 64  2  0  0  0  0
 34 37  1  0  0  0  0
 34 86  1  0  0  0  0
 35 65  1  0  0  0  0
 35 68  1  0  0  0  0
 36 69  1  0  0  0  0
 36 75  2  0  0  0  0
 37 71  1  0  0  0  0
 37 76  2  0  0  0  0
 38 53  1  0  0  0  0
 38 72  1  0  0  0  0
 38 77  2  0  0  0  0
 39 61  1  0  0  0  0
 39 66  1  0  0  0  0
 39 78  2  0  0  0  0
 40 60  1  0  0  0  0
 40 70  1  0  0  0  0
 40 79  2  0  0  0  0
 41 62  1  0  0  0  0
 41 73  1  0  0  0  0
 41 80  2  0  0  0  0
 42 67  1  0  0  0  0
 42 71  1  0  0  0  0
 42 81  2  0  0  0  0
 43 46  1  0  0  0  0
 44 53  1  0  0  0  0
 45 66  1  0  0  0  0
 46 48  1  0  0  0  0
 47 49  1  0  0  0  0
 47 50  1  0  0  0  0
 48 52  1  0  0  0  0
 49 54  1  0  0  0  0
 50 67  1  0  0  0  0
 51 54  1  0  0  0  0
 51 67  1  0  0  0  0
 52 72  1  0  0  0  0
 53 66  1  0  0  0  0
 54 65  1  0  0  0  0
 55 62  1  0  0  0  0
 56 63  1  0  0  0  0
 57 63  1  0  0  0  0
 58 63  1  0  0  0  0
 59 74  1  0  0  0  0
 60 83  1  0  0  0  0
 61 63  1  0  0  0  0
 61 73  1  0  0  0  0
 62 74  1  0  0  0  0
 64 65  1  0  0  0  0
M  CHG  1  74   1
M  ISO  4  42 100  60 101  71 100  83 101
M  END
> <Batch ID>
0082

> <Smiles>
CNC(C)C(=O)NC(C(=O)N1Cc2cc([101O:1][101CH2:1]C(=O)Nc3ccc4cc(C(=O)[100NH:0][100C:0](=O)N5CCCC(n6nc(-c7ccc(Oc8ccc(F)cc8F)cc7)c(C(N)=O)c6N)C5)sc4c3)ccc2CC1C(=O)NC1CCCc2ccccc21)C(C)(C)C

> <Shape>
0.267

> <Color>
0.112

> <Negative vol penalty>
0.000

$$$$

  -OEChem-04052300073D

 83 92  0     1  0  0  0  0  0999 V2000
  -37.7223  -28.4284   19.6075 C   0  0  0  0  0  0  0  0  0  0  0  0
  -37.2138  -27.5708   20.5777 C   0  0  0  0  0  0  0  0  0  0  0  0
  -23.0527   -9.8722   19.9190 C   0  0  0  0  0  0  0  0  0  0  0  0
  -23.8357   -9.8223   22.2040 C   0  0  0  0  0  0  0  0  0  0  0  0
  -36.9185  -29.4390   19.0815 C   0  0  0  0  0  0  0  0  0  0  0  0
  -35.9014  -27.7240   21.0233 C   0  0  0  0  0  0  0  0  0  0  0  0
  -33.4340  -23.3138   21.3517 C   0  0  0  0  0  0  0  0  0  0  0  0
  -30.4900  -18.2233   24.1497 C   0  0  0  0  0  0  0  0  0  0  0  0
  -29.9163  -17.3507   23.2212 C   0  0  0  0  0  0  0  0  0  0  0  0
  -22.3043   -8.7181   20.1502 C   0  0  0  0  0  0  0  0  0  0  0  0
  -23.0873   -8.6682   22.4353 C   0  0  0  0  0  0  0  0  0  0  0  0
  -33.7085  -22.5115   22.4583 C   0  0  0  0  0  0  0  0  0  0  0  0
  -19.8605   -7.8760   23.0525 C   0  0  0  0  0  0  0  0  0  0  0  0
  -19.1152   -7.8139   24.2298 C   0  0  0  0  0  0  0  0  0  0  0  0
  -31.6901  -23.2968   23.5207 C   0  0  0  0  0  0  0  0  0  0  0  0
  -32.1106  -16.4932   22.5833 C   0  0  0  0  0  0  0  0  0  0  0  0
  -20.3520   -5.8528   24.9092 C   0  0  0  0  0  0  0  0  0  0  0  0
  -23.8185  -10.4243   20.9459 C   0  0  0  0  0  0  0  0  0  0  0  0
  -24.1747  -12.9495   20.8799 C   0  0  0  0  0  0  0  0  0  0  0  0
  -35.5926  -29.5985   19.5139 C   0  0  0  0  0  0  0  0  0  0  0  0
  -32.2892  -24.1233   21.3258 C   0  0  0  0  0  0  0  0  0  0  0  0
  -35.0795  -28.7385   20.5036 C   0  0  0  0  0  0  0  0  0  0  0  0
  -31.4020  -24.1065   22.4115 C   0  0  0  0  0  0  0  0  0  0  0  0
  -31.8643  -18.2013   24.2645 C   0  0  0  0  0  0  0  0  0  0  0  0
  -30.7198  -16.4928   22.4443 C   0  0  0  0  0  0  0  0  0  0  0  0
  -32.6544  -17.3624   23.5054 C   0  0  0  0  0  0  0  0  0  0  0  0
  -22.3215   -8.1161   21.4084 C   0  0  0  0  0  0  0  0  0  0  0  0
  -32.8380  -22.5051   23.5443 C   0  0  0  0  0  0  0  0  0  0  0  0
  -20.8515   -6.9265   22.8034 C   0  0  0  0  0  0  0  0  0  0  0  0
  -19.3609   -6.8023   25.1582 C   0  0  0  0  0  0  0  0  0  0  0  0
  -21.0973   -5.9149   23.7318 C   0  0  0  0  0  0  0  0  0  0  0  0
  -24.5923  -11.6162   20.7075 C   0  0  0  0  0  0  0  0  0  0  0  0
  -25.2677  -13.7006   20.5227 C   0  0  0  0  0  0  0  0  0  0  0  0
  -34.0182  -18.5003   24.7773 C   0  0  0  0  0  0  0  0  0  0  0  0
  -22.9117  -13.4631   21.3235 C   0  0  0  0  0  0  0  0  0  0  0  0
  -31.7578  -27.2518   21.1431 C   0  0  0  0  0  0  0  0  0  0  0  0
  -28.6590  -26.3182   20.9240 C   0  0  0  0  0  0  0  0  0  0  0  0
  -26.2984  -23.9375   21.5618 C   0  0  0  0  0  0  0  0  0  0  0  0
  -30.7418  -14.7094   20.6652 C   0  0  0  0  0  0  0  0  0  0  0  0
  -34.7770  -30.7352   18.9504 C   0  0  0  0  0  0  0  0  0  0  0  0
  -31.9935  -24.9628   20.1133 C   0  0  0  0  0  0  0  0  0  0  0  0
  -30.1489  -24.9419   22.4245 C   0  0  0  0  0  0  0  0  0  0  0  0
  -33.2785  -30.5944   19.2050 C   0  0  0  0  0  0  0  0  0  0  0  0
  -29.5886  -12.3569   18.2541 C   0  0  0  0  0  0  0  0  0  0  0  0
  -33.0176  -30.2116   20.6584 C   0  0  0  0  0  0  0  0  0  0  0  0
  -28.1516  -12.0642   18.6916 C   0  0  0  0  0  0  0  0  0  0  0  0
  -30.5172  -12.5528   19.4512 C   0  0  0  0  0  0  0  0  0  0  0  0
  -28.6288  -13.2568   20.8681 C   0  0  0  0  0  0  0  0  0  0  0  0
  -33.6530  -28.8571   20.9947 C   0  0  1  0  0  0  0  0  0  0  0  0
  -31.0660  -26.1368   20.4112 C   0  0  1  0  0  0  0  0  0  0  0  0
  -27.6431  -13.1163   19.6966 C   0  0  2  0  0  0  0  0  0  0  0  0
  -23.8459  -23.4752   21.2994 C   0  0  0  0  0  0  0  0  0  0  0  0
  -28.0579  -28.2005   23.2490 C   0  0  0  0  0  0  0  0  0  0  0  0
  -25.8745  -27.0140   23.5540 C   0  0  0  0  0  0  0  0  0  0  0  0
  -26.3496  -28.2199   21.4226 C   0  0  0  0  0  0  0  0  0  0  0  0
  -26.8083  -21.5700   19.8607 C   0  0  0  0  0  0  0  0  0  0  0  0
  -32.3563  -19.9203   26.0297 C   0  0  0  0  0  0  0  0  0  0  0  0
  -31.9852  -21.2333   25.3639 C   0  0  0  0  0  0  0  0  0  1  0  0
  -27.5507  -26.0500   21.9133 C   0  0  1  0  0  0  0  0  0  0  0  0
  -25.2267  -23.3203   20.6814 C   0  0  2  0  0  0  0  0  0  0  0  0
  -26.9827  -27.3567   22.5356 C   0  0  0  0  0  0  0  0  0  0  0  0
  -25.8522  -11.5224   20.2742 N   0  0  0  0  0  0  0  0  0  0  0  0
  -26.2357  -12.8063   20.1713 N   0  0  0  0  0  0  0  0  0  0  0  0
  -32.7278  -18.9182   25.0662 N   0  0  0  0  0  0  0  0  0  0  0  0
  -29.9068  -25.7507   21.2184 N   0  0  0  0  0  0  0  0  0  0  0  0
  -29.9735  -13.5666   20.3575 N   0  0  0  0  0  0  0  0  0  0  0  0
  -25.4856  -15.0321   20.4779 N   0  0  0  0  0  0  0  0  0  0  0  0
  -21.8976  -12.5525   21.6503 N   0  0  0  0  0  0  0  0  0  0  0  0
  -30.1084  -15.6193   21.5111 N   0  0  0  0  0  0  0  0  0  0  0  0
  -32.8455  -27.7761   20.4713 N   0  0  0  0  0  0  0  0  0  0  0  0
  -26.5600  -25.2443   21.2079 N   0  0  0  0  0  0  0  0  0  0  0  0
  -25.4926  -21.8674   20.4831 N   0  3  0  0  0  0  0  0  0  0  0  0
  -35.0573  -18.9046   25.2848 O   0  0  0  0  0  0  0  0  0  0  0  0
  -22.6836  -14.6935   21.4112 O   0  0  0  0  0  0  0  0  0  0  0  0
  -31.3351  -27.6110   22.2359 O   0  0  0  0  0  0  0  0  0  0  0  0
  -28.4243  -27.0000   19.9231 O   0  0  0  0  0  0  0  0  0  0  0  0
  -26.8458  -23.3231   22.4747 O   0  0  0  0  0  0  0  0  0  0  0  0
  -31.8671  -14.8820   20.1900 O   0  0  0  0  0  0  0  0  0  0  0  0
  -34.0059  -17.5051   23.7824 O   0  0  0  0  0  0  0  0  0  0  0  0
  -21.5912   -6.9901   21.6344 O   0  0  0  0  0  0  0  0  0  0  0  0
  -33.1039  -21.7234   24.6260 O   0  0  0  0  0  0  0  0  0  1  0  0
  -18.6462   -6.7436   26.2895 F   0  0  0  0  0  0  0  0  0  0  0  0
  -22.0488   -5.0006   23.4986 F   0  0  0  0  0  0  0  0  0  0  0  0
  1  2  1  0  0  0  0
  1  5  2  0  0  0  0
  2  6  2  0  0  0  0
  3 10  2  0  0  0  0
  3 18  1  0  0  0  0
  4 11  1  0  0  0  0
  4 18  2  0  0  0  0
  5 20  1  0  0  0  0
  6 22  1  0  0  0  0
  7 12  2  0  0  0  0
  7 21  1  0  0  0  0
  8  9  2  0  0  0  0
  8 24  1  0  0  0  0
  9 25  1  0  0  0  0
 10 27  1  0  0  0  0
 11 27  2  0  0  0  0
 12 28  1  0  0  0  0
 13 14  2  0  0  0  0
 13 29  1  0  0  0  0
 14 30  1  0  0  0  0
 15 23  1  0  0  0  0
 15 28  2  0  0  0  0
 16 25  2  0  0  0  0
 16 26  1  0  0  0  0
 17 30  2  0  0  0  0
 17 31  1  0  0  0  0
 18 32  1  0  0  0  0
 19 32  1  0  0  0  0
 19 33  2  0  0  0  0
 19 35  1  0  0  0  0
 20 22  2  0  0  0  0
 20 40  1  0  0  0  0
 21 23  2  0  0  0  0
 21 41  1  0  0  0  0
 22 49  1  0  0  0  0
 23 42  1  0  0  0  0
 24 26  2  0  0  0  0
 24 64  1  0  0  0  0
 25 69  1  0  0  0  0
 26 79  1  0  0  0  0
 27 80  1  0  0  0  0
 28 81  1  0  0  0  0
 29 31  2  0  0  0  0
 29 80  1  0  0  0  0
 30 82  1  0  0  0  0
 31 83  1  0  0  0  0
 32 62  2  0  0  0  0
 33 63  1  0  0  0  0
 33 67  1  0  0  0  0
 34 64  1  0  0  0  0
 34 73  2  0  0  0  0
 34 79  1  0  0  0  0
 35 68  1  0  0  0  0
 35 74  2  0  0  0  0
 36 50  1  0  0  0  0
 36 70  1  0  0  0  0
 36 75  2  0  0  0  0
 37 59  1  0  0  0  0
 37 65  1  0  0  0  0
 37 76  2  0  0  0  0
 38 60  1  0  0  0  0
 38 71  1  0  0  0  0
 38 77  2  0  0  0  0
 39 66  1  0  0  0  0
 39 69  1  0  0  0  0
 39 78  2  0  0  0  0
 40 43  1  0  0  0  0
 41 50  1  0  0  0  0
 42 65  1  0  0  0  0
 43 45  1  0  0  0  0
 44 46  1  0  0  0  0
 44 47  1  0  0  0  0
 45 49  1  0  0  0  0
 46 51  1  0  0  0  0
 47 66  1  0  0  0  0
 48 51  1  0  0  0  0
 48 66  1  0  0  0  0
 49 70  1  0  0  0  0
 50 65  1  0  0  0  0
 51 63  1  0  0  0  0
 52 60  1  0  0  0  0
 53 61  1  0  0  0  0
 54 61  1  0  0  0  0
 55 61  1  0  0  0  0
 56 72  1  0  0  0  0
 57 58  1  0  0  0  0
 57 64  1  0  0  0  0
 58 81  1  0  0  0  0
 59 61  1  0  0  0  0
 59 71  1  0  0  0  0
 60 72  1  0  0  0  0
 62 63  1  0  0  0  0
M  CHG  1  72   1
M  ISO  4  39 100  58 101  69 100  81 101
M  END
> <Batch ID>
0082

> <Smiles>
CNC(C)C(=O)NC(C(=O)N1Cc2cc([101O:1][101CH2:1]Cn3c(=O)oc4cc([100NH:0][100C:0](=O)N5CCCC(n6nc(-c7ccc(Oc8ccc(F)cc8F)cc7)c(C(N)=O)c6N)C5)ccc43)ccc2CC1C(=O)NC1CCCc2ccccc21)C(C)(C)C

> <Shape>
0.210

> <Color>
0.215

> <Negative vol penalty>
0.000

$$$$

  -OEChem-04052300073D

 79 87  0     1  0  0  0  0  0999 V2000
  -18.6061  -21.9218   24.3768 C   0  0  0  0  0  0  0  0  0  0  0  0
  -19.9584  -21.6503   24.1947 C   0  0  0  0  0  0  0  0  0  0  0  0
  -24.3415  -13.5937   19.7346 C   0  0  0  0  0  0  0  0  0  0  0  0
  -25.4921  -14.1605   21.7821 C   0  0  0  0  0  0  0  0  0  0  0  0
  -18.0428  -23.0633   23.8081 C   0  0  0  0  0  0  0  0  0  0  0  0
  -20.7478  -22.5196   23.4427 C   0  0  0  0  0  0  0  0  0  0  0  0
  -26.6388  -23.8975   24.3934 C   0  0  0  0  0  0  0  0  0  0  0  0
  -24.5832  -12.2409   19.9732 C   0  0  0  0  0  0  0  0  0  0  0  0
  -25.7338  -12.8076   22.0207 C   0  0  0  0  0  0  0  0  0  0  0  0
  -27.8171  -23.4285   23.8143 C   0  0  0  0  0  0  0  0  0  0  0  0
  -24.5830   -8.6145   20.2263 C   0  0  0  0  0  0  0  0  0  0  0  0
  -23.5272   -7.7234   20.0346 C   0  0  0  0  0  0  0  0  0  0  0  0
  -27.8113  -25.3044   22.2977 C   0  0  0  0  0  0  0  0  0  0  0  0
  -22.2379   -8.8902   21.7119 C   0  0  0  0  0  0  0  0  0  0  0  0
  -24.7960  -14.5536   20.6390 C   0  0  0  0  0  0  0  0  0  0  0  0
  -23.4327  -16.7029   20.8113 C   0  0  0  0  0  0  0  0  0  0  0  0
  -18.8278  -23.9521   23.0568 C   0  0  0  0  0  0  0  0  0  0  0  0
  -26.0310  -25.0697   23.9210 C   0  0  0  0  0  0  0  0  0  0  0  0
  -20.1941  -23.6733   22.8622 C   0  0  0  0  0  0  0  0  0  0  0  0
  -26.6267  -25.7876   22.8743 C   0  0  0  0  0  0  0  0  0  0  0  0
  -25.2793  -11.8478   21.1162 C   0  0  0  0  0  0  0  0  0  0  0  0
  -28.4020  -24.1304   22.7644 C   0  0  0  0  0  0  0  0  0  0  0  0
  -24.4664   -9.6434   21.1609 C   0  0  0  0  0  0  0  0  0  0  0  0
  -22.3547   -7.8612   20.7774 C   0  0  0  0  0  0  0  0  0  0  0  0
  -23.2938   -9.7813   21.9036 C   0  0  0  0  0  0  0  0  0  0  0  0
  -24.5471  -15.9512   20.3928 C   0  0  0  0  0  0  0  0  0  0  0  0
  -23.6703  -17.9667   20.3289 C   0  0  0  0  0  0  0  0  0  0  0  0
  -29.8104  -23.6736   17.8969 C   0  0  0  0  0  0  0  0  0  0  0  0
  -28.6618  -22.7879   17.7342 C   0  0  0  0  0  0  0  0  0  0  0  0
  -30.0878  -24.9047   17.4799 C   0  0  0  0  0  0  0  0  0  0  0  0
  -29.5253  -23.3707   20.8586 C   0  0  0  0  0  0  0  0  0  1  0  0
  -22.2855  -16.2951   21.5684 C   0  0  0  0  0  0  0  0  0  0  0  0
  -30.5724  -22.9129   20.1587 C   0  0  0  0  0  0  0  0  0  0  0  0
  -23.2285  -25.7643   22.5916 C   0  0  0  0  0  0  0  0  0  0  0  0
  -24.2908  -28.8161   22.8753 C   0  0  0  0  0  0  0  0  0  0  0  0
  -26.9423  -30.9475   23.1460 C   0  0  0  0  0  0  0  0  0  0  0  0
  -28.9573  -20.5145   18.8688 C   0  0  0  0  0  0  0  0  0  0  0  0
  -18.1640  -25.1483   22.4219 C   0  0  0  0  0  0  0  0  0  0  0  0
  -24.7746  -25.5768   24.5742 C   0  0  0  0  0  0  0  0  0  0  0  0
  -26.0250  -27.0624   22.3439 C   0  0  0  0  0  0  0  0  0  0  0  0
  -19.1505  -26.2146   21.9526 C   0  0  0  0  0  0  0  0  0  0  0  0
  -25.8824  -20.2815   16.7887 C   0  0  0  0  0  0  0  0  0  0  0  0
  -20.3021  -25.5750   21.1836 C   0  0  0  0  0  0  0  0  0  0  0  0
  -25.1273  -19.1583   17.4979 C   0  0  0  0  0  0  0  0  0  0  0  0
  -27.3901  -20.0990   16.9171 C   0  0  0  0  0  0  0  0  0  0  0  0
  -27.1152  -18.8743   19.0486 C   0  0  0  0  0  0  0  0  0  0  0  0
  -21.0886  -24.6052   22.0738 C   0  0  1  0  0  0  0  0  0  0  0  0
  -30.4914  -22.6017   18.7178 C   0  0  1  0  0  0  0  0  0  0  0  0
  -23.9648  -26.5037   23.6728 C   0  0  1  0  0  0  0  0  0  0  0  0
  -25.5869  -19.0248   18.9597 C   0  0  2  0  0  0  0  0  0  0  0  0
  -31.8752  -22.7049   20.8424 C   0  0  0  0  0  0  0  0  0  0  0  0
  -27.4976  -33.3884   23.3223 C   0  0  0  0  0  0  0  0  0  0  0  0
  -23.7246  -29.1576   19.8966 C   0  0  0  0  0  0  0  0  0  0  0  0
  -25.1481  -31.2169   19.9332 C   0  0  0  0  0  0  0  0  0  0  0  0
  -23.0726  -31.1127   21.3132 C   0  0  0  0  0  0  0  0  0  0  0  0
  -28.2283  -30.5830   25.7865 C   0  0  0  0  0  0  0  0  0  0  0  0
  -25.0903  -29.7551   22.0047 C   0  0  1  0  0  0  0  0  0  0  0  0
  -27.2108  -32.1066   24.0888 C   0  0  2  0  0  0  0  0  0  0  0  0
  -24.2694  -30.2855   20.7954 C   0  0  0  0  0  0  0  0  0  0  0  0
  -25.4271  -16.6770   19.6980 N   0  0  0  0  0  0  0  0  0  0  0  0
  -24.8658  -17.8979   19.6760 N   0  0  0  0  0  0  0  0  0  0  0  0
  -29.3504  -21.7525   18.3393 N   0  0  0  0  0  0  0  0  0  0  0  0
  -24.7929  -27.5141   23.0113 N   0  0  0  0  0  0  0  0  0  0  0  0
  -27.7961  -19.9477   18.3197 N   0  0  0  0  0  0  0  0  0  0  0  0
  -22.9711  -19.1191   20.4037 N   0  0  0  0  0  0  0  0  0  0  0  0
  -22.2001  -14.9596   21.9851 N   0  0  0  0  0  0  0  0  0  0  0  0
  -21.9684  -25.3346   22.9617 N   0  0  0  0  0  0  0  0  0  0  0  0
  -25.5958  -30.8002   22.8882 N   0  0  0  0  0  0  0  0  0  0  0  0
  -28.3835  -31.8063   24.9580 N   0  3  0  0  0  0  0  0  0  0  0  0
  -27.5560  -22.9107   17.2501 O   0  0  0  0  0  0  0  0  0  0  0  0
  -21.3554  -17.0875   21.8524 O   0  0  0  0  0  0  0  0  0  0  0  0
  -23.7634  -25.5974   21.5018 O   0  0  0  0  0  0  0  0  0  0  0  0
  -23.2626  -29.2249   23.4206 O   0  0  0  0  0  0  0  0  0  0  0  0
  -27.8378  -30.2455   22.6815 O   0  0  0  0  0  0  0  0  0  0  0  0
  -29.5721  -19.9957   19.8070 O   0  0  0  0  0  0  0  0  0  0  0  0
  -25.5152  -10.5277   21.3495 O   0  0  0  0  0  0  0  0  0  0  0  0
  -29.5603  -23.6710   22.1927 O   0  0  0  0  0  0  0  0  0  1  0  0
  -21.3402   -7.0064   20.5920 F   0  0  0  0  0  0  0  0  0  0  0  0
  -23.1754  -10.7685   22.8021 F   0  0  0  0  0  0  0  0  0  0  0  0
  1  2  1  0  0  0  0
  1  5  2  0  0  0  0
  2  6  2  0  0  0  0
  3  8  2  0  0  0  0
  3 15  1  0  0  0  0
  4  9  1  0  0  0  0
  4 15  2  0  0  0  0
  5 17  1  0  0  0  0
  6 19  1  0  0  0  0
  7 10  2  0  0  0  0
  7 18  1  0  0  0  0
  8 21  1  0  0  0  0
  9 21  2  0  0  0  0
 10 22  1  0  0  0  0
 11 12  2  0  0  0  0
 11 23  1  0  0  0  0
 12 24  1  0  0  0  0
 13 20  1  0  0  0  0
 13 22  2  0  0  0  0
 14 24  2  0  0  0  0
 14 25  1  0  0  0  0
 15 26  1  0  0  0  0
 16 26  1  0  0  0  0
 16 27  2  0  0  0  0
 16 32  1  0  0  0  0
 17 19  2  0  0  0  0
 17 38  1  0  0  0  0
 18 20  2  0  0  0  0
 18 39  1  0  0  0  0
 19 47  1  0  0  0  0
 20 40  1  0  0  0  0
 21 76  1  0  0  0  0
 22 77  1  0  0  0  0
 23 25  2  0  0  0  0
 23 76  1  0  0  0  0
 24 78  1  0  0  0  0
 25 79  1  0  0  0  0
 26 60  2  0  0  0  0
 27 61  1  0  0  0  0
 27 65  1  0  0  0  0
 28 29  1  0  0  0  0
 28 30  2  0  0  0  0
 28 48  1  0  0  0  0
 29 62  1  0  0  0  0
 29 70  2  0  0  0  0
 31 33  2  0  0  0  0
 31 77  1  0  0  0  0
 32 66  1  0  0  0  0
 32 71  2  0  0  0  0
 33 48  1  0  0  0  0
 33 51  1  0  0  0  0
 34 49  1  0  0  0  0
 34 67  1  0  0  0  0
 34 72  2  0  0  0  0
 35 57  1  0  0  0  0
 35 63  1  0  0  0  0
 35 73  2  0  0  0  0
 36 58  1  0  0  0  0
 36 68  1  0  0  0  0
 36 74  2  0  0  0  0
 37 62  1  0  0  0  0
 37 64  1  0  0  0  0
 37 75  2  0  0  0  0
 38 41  1  0  0  0  0
 39 49  1  0  0  0  0
 40 63  1  0  0  0  0
 41 43  1  0  0  0  0
 42 44  1  0  0  0  0
 42 45  1  0  0  0  0
 43 47  1  0  0  0  0
 44 50  1  0  0  0  0
 45 64  1  0  0  0  0
 46 50  1  0  0  0  0
 46 64  1  0  0  0  0
 47 67  1  0  0  0  0
 48 62  1  0  0  0  0
 49 63  1  0  0  0  0
 50 61  1  0  0  0  0
 52 58  1  0  0  0  0
 53 59  1  0  0  0  0
 54 59  1  0  0  0  0
 55 59  1  0  0  0  0
 56 69  1  0  0  0  0
 57 59  1  0  0  0  0
 57 68  1  0  0  0  0
 58 69  1  0  0  0  0
 60 61  1  0  0  0  0
M  CHG  1  69   1
M  ISO  4  31 101  37 100  62 100  77 101
M  END
> <Batch ID>
0082

> <Smiles>
C=C1C(=O)[100N:0]([100C:0](=O)N2CCCC(n3nc(-c4ccc(Oc5ccc(F)cc5F)cc4)c(C(N)=O)c3N)C2)C1C(C)=[101CH:1][101O:1]c1ccc2c(c1)CN(C(=O)C(NC(=O)C(C)NC)C(C)(C)C)C(C(=O)NC1CCCc3ccccc31)C2

> <Shape>
0.210

> <Color>
0.062

> <Negative vol penalty>
0.000

$$$$

  -OEChem-04052300073D

 87 96  0     1  0  0  0  0  0999 V2000
  -27.1741  -40.2247   18.8473 C   0  0  0  0  0  0  0  0  0  0  0  0
  -27.9278  -39.1234   18.4544 C   0  0  0  0  0  0  0  0  0  0  0  0
  -23.3931   -9.1489   20.6682 C   0  0  0  0  0  0  0  0  0  0  0  0
  -23.4143  -10.6053   22.5957 C   0  0  0  0  0  0  0  0  0  0  0  0
  -30.7408  -19.5424   20.6914 C   0  0  0  0  0  0  0  0  0  0  0  0
  -26.5358  -40.2247   20.0869 C   0  0  0  0  0  0  0  0  0  0  0  0
  -28.0446  -38.0218   19.3014 C   0  0  0  0  0  0  0  0  0  0  0  0
  -28.7003  -30.8905   19.1273 C   0  0  0  0  0  0  0  0  0  0  0  0
  -30.5076  -18.1995   20.3953 C   0  0  0  0  0  0  0  0  0  0  0  0
  -22.7183   -8.1785   21.4087 C   0  0  0  0  0  0  0  0  0  0  0  0
  -22.7394   -9.6349   23.3364 C   0  0  0  0  0  0  0  0  0  0  0  0
  -29.5065  -29.8704   19.6305 C   0  0  0  0  0  0  0  0  0  0  0  0
  -23.4788   -5.8396   23.7273 C   0  0  0  0  0  0  0  0  0  0  0  0
  -23.9232   -4.5215   23.6242 C   0  0  0  0  0  0  0  0  0  0  0  0
  -28.4219  -20.0454   20.2370 C   0  0  0  0  0  0  0  0  0  0  0  0
  -28.2949  -29.9494   21.7150 C   0  0  0  0  0  0  0  0  0  0  0  0
  -21.7545   -3.8553   22.7934 C   0  0  0  0  0  0  0  0  0  0  0  0
  -23.7411  -10.3623   21.2617 C   0  0  0  0  0  0  0  0  0  0  0  0
  -29.6979  -20.4654   20.6123 C   0  0  0  0  0  0  0  0  0  0  0  0
  -23.8685  -12.3950   19.7256 C   0  0  0  0  0  0  0  0  0  0  0  0
  -26.6369  -39.1187   20.9454 C   0  0  0  0  0  0  0  0  0  0  0  0
  -27.6908  -31.4562   19.9193 C   0  0  0  0  0  0  0  0  0  0  0  0
  -27.4082  -38.0076   20.5541 C   0  0  0  0  0  0  0  0  0  0  0  0
  -27.4756  -30.9748   21.2185 C   0  0  0  0  0  0  0  0  0  0  0  0
  -29.2315  -17.7795   20.0200 C   0  0  0  0  0  0  0  0  0  0  0  0
  -22.3914   -8.4214   22.7428 C   0  0  0  0  0  0  0  0  0  0  0  0
  -29.3058  -29.4017   20.9256 C   0  0  0  0  0  0  0  0  0  0  0  0
  -22.1722   -6.1656   23.3635 C   0  0  0  0  0  0  0  0  0  0  0  0
  -23.0611   -3.5293   23.1572 C   0  0  0  0  0  0  0  0  0  0  0  0
  -21.3101   -5.1734   22.8966 C   0  0  0  0  0  0  0  0  0  0  0  0
  -28.1886  -18.7024   19.9409 C   0  0  0  0  0  0  0  0  0  0  0  0
  -24.4387  -11.3650   20.4973 C   0  0  0  0  0  0  0  0  0  0  0  0
  -24.9452  -13.0701   19.2047 C   0  0  0  0  0  0  0  0  0  0  0  0
  -30.3925  -22.2757   22.1386 C   0  0  0  0  0  0  0  0  0  0  0  0
  -29.9471  -21.8930   20.9269 C   0  0  0  0  0  0  0  0  0  0  0  0
  -22.4888  -12.7132   19.4998 C   0  0  0  0  0  0  0  0  0  0  0  0
  -27.1042  -34.3612   21.0683 C   0  0  0  0  0  0  0  0  0  0  0  0
  -24.3319  -32.9899   22.0460 C   0  0  0  0  0  0  0  0  0  0  0  0
  -22.6465  -30.1444   22.8883 C   0  0  0  0  0  0  0  0  0  0  0  0
  -29.5978  -27.1100   21.1844 C   0  0  0  0  0  0  0  0  0  1  0  0
  -29.9773  -15.3867   19.7657 C   0  0  0  0  0  0  0  0  0  0  0  0
  -25.9679  -39.1841   22.2955 C   0  0  0  0  0  0  0  0  0  0  0  0
  -26.8123  -32.5375   19.3523 C   0  0  0  0  0  0  0  0  0  0  0  0
  -26.3920  -31.5346   22.1023 C   0  0  0  0  0  0  0  0  0  0  0  0
  -30.6377  -23.7084   22.4996 C   0  0  0  0  0  0  0  0  0  0  0  0
  -29.6688  -22.9155   19.8471 C   0  0  0  0  0  0  0  0  0  0  0  0
  -25.8341  -37.8240   22.9755 C   0  0  0  0  0  0  0  0  0  0  0  0
  -29.8652  -11.8817   19.1494 C   0  0  0  0  0  0  0  0  0  0  0  0
  -27.1483  -37.0541   22.8927 C   0  0  0  0  0  0  0  0  0  0  0  0
  -28.3966  -11.5196   19.3816 C   0  0  0  0  0  0  0  0  0  0  0  0
  -30.3456  -12.9554   20.1241 C   0  0  0  0  0  0  0  0  0  0  0  0
  -28.0502  -13.8061   20.4009 C   0  0  0  0  0  0  0  0  0  0  0  0
  -30.3514  -24.2622   20.0879 C   0  0  0  0  0  0  0  0  0  0  0  0
  -27.5383  -36.7837   21.4346 C   0  0  1  0  0  0  0  0  0  0  0  0
  -26.1499  -33.3939   20.4270 C   0  0  1  0  0  0  0  0  0  0  0  0
  -27.5027  -12.7751   19.4004 C   0  0  2  0  0  0  0  0  0  0  0  0
  -20.4042  -29.3449   23.6822 C   0  0  0  0  0  0  0  0  0  0  0  0
  -24.9691  -33.9988   24.8543 C   0  0  0  0  0  0  0  0  0  0  0  0
  -23.2544  -32.4044   25.7407 C   0  0  0  0  0  0  0  0  0  0  0  0
  -22.5712  -34.2285   24.1824 C   0  0  0  0  0  0  0  0  0  0  0  0
  -22.2522  -28.4854   20.4693 C   0  0  0  0  0  0  0  0  0  0  0  0
  -30.5450  -26.1013   21.7722 C   0  0  0  0  0  0  0  0  0  0  0  0
  -23.8802  -32.2593   23.2875 C   0  0  1  0  0  0  0  0  0  0  0  0
  -21.2838  -29.6203   22.4726 C   0  0  2  0  0  0  0  0  0  0  0  0
  -23.6905  -33.2133   24.5005 C   0  0  0  0  0  0  0  0  0  0  0  0
  -25.7740  -11.3803   20.4717 N   0  0  0  0  0  0  0  0  0  0  0  0
  -26.0519  -12.4282   19.6775 N   0  0  0  0  0  0  0  0  0  0  0  0
  -25.5634  -32.5947   21.5048 N   0  0  0  0  0  0  0  0  0  0  0  0
  -29.4532  -14.1160   20.0843 N   0  0  0  0  0  0  0  0  0  0  0  0
  -25.0439  -14.1443   18.3930 N   0  0  0  0  0  0  0  0  0  0  0  0
  -21.5108  -11.9170   20.1112 N   0  0  0  0  0  0  0  0  0  0  0  0
  -29.0289  -16.4082   19.7262 N   0  0  0  0  0  0  0  0  0  0  0  0
  -26.7593  -35.6884   20.8978 N   0  0  0  0  0  0  0  0  0  0  0  0
  -22.6780  -31.5226   22.9130 N   0  0  0  0  0  0  0  0  0  0  0  0
  -30.0760  -24.7005   21.5032 N   0  3  2  0  0  0  0  0  0  0  0  0
  -21.4294  -28.3547   21.6993 N   0  3  0  0  0  0  0  0  0  0  0  0
  -22.1337  -13.6651   18.7640 O   0  0  0  0  0  0  0  0  0  0  0  0
  -28.0804  -33.9350   21.6742 O   0  0  0  0  0  0  0  0  0  0  0  0
  -23.6150  -33.8736   21.5698 O   0  0  0  0  0  0  0  0  0  0  0  0
  -23.5878  -29.4049   23.1672 O   0  0  0  0  0  0  0  0  0  0  0  0
  -28.5594  -26.8451   20.5936 O   0  0  0  0  0  0  0  0  0  0  0  0
  -31.1746  -15.5512   19.5176 O   0  0  0  0  0  0  0  0  0  0  0  0
  -21.7328   -7.4748   23.4657 O   0  0  0  0  0  0  0  0  0  0  0  0
  -30.0917  -28.4066   21.4195 O   0  0  0  0  0  0  0  0  0  1  0  0
  -23.4884   -2.2638   23.0568 F   0  0  0  0  0  0  0  0  0  0  0  0
  -20.0541   -5.4808   22.5445 F   0  0  0  0  0  0  0  0  0  0  0  0
  -26.5932  -18.2244   19.4808 Cl  0  0  0  0  0  0  0  0  0  0  0  0
  1  2  1  0  0  0  0
  1  6  2  0  0  0  0
  2  7  2  0  0  0  0
  3 10  2  0  0  0  0
  3 18  1  0  0  0  0
  4 11  1  0  0  0  0
  4 18  2  0  0  0  0
  5  9  2  0  0  0  0
  5 19  1  0  0  0  0
  6 21  1  0  0  0  0
  7 23  1  0  0  0  0
  8 12  2  0  0  0  0
  8 22  1  0  0  0  0
  9 25  1  0  0  0  0
 10 26  1  0  0  0  0
 11 26  2  0  0  0  0
 12 27  1  0  0  0  0
 13 14  2  0  0  0  0
 13 28  1  0  0  0  0
 14 29  1  0  0  0  0
 15 19  2  0  0  0  0
 15 31  1  0  0  0  0
 16 24  1  0  0  0  0
 16 27  2  0  0  0  0
 17 29  2  0  0  0  0
 17 30  1  0  0  0  0
 18 32  1  0  0  0  0
 19 35  1  0  0  0  0
 20 32  1  0  0  0  0
 20 33  2  0  0  0  0
 20 36  1  0  0  0  0
 21 23  2  0  0  0  0
 21 42  1  0  0  0  0
 22 24  2  0  0  0  0
 22 43  1  0  0  0  0
 23 54  1  0  0  0  0
 24 44  1  0  0  0  0
 25 31  2  0  0  0  0
 25 72  1  0  0  0  0
 26 83  1  0  0  0  0
 27 84  1  0  0  0  0
 28 30  2  0  0  0  0
 28 83  1  0  0  0  0
 29 85  1  0  0  0  0
 30 86  1  0  0  0  0
 31 87  1  0  0  0  0
 32 66  2  0  0  0  0
 33 67  1  0  0  0  0
 33 70  1  0  0  0  0
 34 35  2  0  0  0  0
 34 45  1  0  0  0  0
 35 46  1  0  0  0  0
 36 71  1  0  0  0  0
 36 77  2  0  0  0  0
 37 55  1  0  0  0  0
 37 73  1  0  0  0  0
 37 78  2  0  0  0  0
 38 63  1  0  0  0  0
 38 68  1  0  0  0  0
 38 79  2  0  0  0  0
 39 64  1  0  0  0  0
 39 74  1  0  0  0  0
 39 80  2  0  0  0  0
 40 62  1  0  0  0  0
 40 81  2  0  0  0  0
 40 84  1  0  0  0  0
 41 69  1  0  0  0  0
 41 72  1  0  0  0  0
 41 82  2  0  0  0  0
 42 47  1  0  0  0  0
 43 55  1  0  0  0  0
 44 68  1  0  0  0  0
 45 75  1  0  0  0  0
 46 53  1  0  0  0  0
 47 49  1  0  0  0  0
 48 50  1  0  0  0  0
 48 51  1  0  0  0  0
 49 54  1  0  0  0  0
 50 56  1  0  0  0  0
 51 69  1  0  0  0  0
 52 56  1  0  0  0  0
 52 69  1  0  0  0  0
 53 75  1  0  0  0  0
 54 73  1  0  0  0  0
 55 68  1  0  0  0  0
 56 67  1  0  0  0  0
 57 64  1  0  0  0  0
 58 65  1  0  0  0  0
 59 65  1  0  0  0  0
 60 65  1  0  0  0  0
 61 76  1  0  0  0  0
 62 75  1  0  0  0  0
 63 65  1  0  0  0  0
 63 74  1  0  0  0  0
 64 76  1  0  0  0  0
 66 67  1  0  0  0  0
M  CHG  2  75   1  76   1
M  ISO  4  40 101  41 100  72 100  84 101
M  END
> <Batch ID>
0082

> <Smiles>
CNC(C)C(=O)NC(C(=O)N1Cc2cc([101O:1][101C:1](=O)CN3CC=C(c4ccc([100NH:0][100C:0](=O)N5CCCC(n6nc(-c7ccc(Oc8ccc(F)cc8F)cc7)c(C(N)=O)c6N)C5)c(Cl)c4)CC3)ccc2CC1C(=O)NC1CCCc2ccccc21)C(C)(C)C

> <Shape>
0.292

> <Color>
0.096

> <Negative vol penalty>
0.000

$$$$

  -OEChem-04052300073D

 85 93  0     1  0  0  0  0  0999 V2000
  -24.5486  -22.8635   17.1355 C   0  0  0  0  0  0  0  0  0  0  0  0
  -24.9293  -21.5327   17.0054 C   0  0  0  0  0  0  0  0  0  0  0  0
  -28.7417  -18.9142   23.2061 C   0  0  0  0  0  0  0  0  0  0  0  0
  -26.5041  -28.7730   18.9605 C   0  0  0  0  0  0  0  0  0  0  0  0
  -26.1193  -27.6827   21.0819 C   0  0  0  0  0  0  0  0  0  0  0  0
  -29.5689  -17.8498   22.8479 C   0  0  0  0  0  0  0  0  0  0  0  0
  -23.8922  -23.2871   18.2891 C   0  0  0  0  0  0  0  0  0  0  0  0
  -24.6432  -20.6226   18.0236 C   0  0  0  0  0  0  0  0  0  0  0  0
  -25.6103  -15.8838   17.1224 C   0  0  0  0  0  0  0  0  0  0  0  0
  -28.2708  -19.7911   22.2287 C   0  0  0  0  0  0  0  0  0  0  0  0
  -25.4027  -29.5988   19.1851 C   0  0  0  0  0  0  0  0  0  0  0  0
  -25.0179  -28.5086   21.3065 C   0  0  0  0  0  0  0  0  0  0  0  0
  -26.9080  -15.3776   17.0624 C   0  0  0  0  0  0  0  0  0  0  0  0
  -21.8901  -30.0857   22.2758 C   0  0  0  0  0  0  0  0  0  0  0  0
  -20.7222  -29.4927   22.7553 C   0  0  0  0  0  0  0  0  0  0  0  0
  -29.4543  -18.5390   20.5351 C   0  0  0  0  0  0  0  0  0  0  0  0
  -26.6291  -14.4193   19.2586 C   0  0  0  0  0  0  0  0  0  0  0  0
  -20.6239  -28.0948   20.7873 C   0  0  0  0  0  0  0  0  0  0  0  0
  -26.8624  -27.8149   19.9089 C   0  0  0  0  0  0  0  0  0  0  0  0
  -29.9253  -17.6622   21.5124 C   0  0  0  0  0  0  0  0  0  0  0  0
  -29.3360  -27.2065   20.0460 C   0  0  0  0  0  0  0  0  0  0  0  0
  -23.6093  -22.3837   19.3269 C   0  0  0  0  0  0  0  0  0  0  0  0
  -24.8148  -15.6705   18.2574 C   0  0  0  0  0  0  0  0  0  0  0  0
  -23.9602  -21.0257   19.1853 C   0  0  0  0  0  0  0  0  0  0  0  0
  -25.3208  -14.9217   19.3294 C   0  0  0  0  0  0  0  0  0  0  0  0
  -28.6271  -19.6035   20.8933 C   0  0  0  0  0  0  0  0  0  0  0  0
  -24.6596  -29.4666   20.3581 C   0  0  0  0  0  0  0  0  0  0  0  0
  -27.4186  -14.6477   18.1318 C   0  0  0  0  0  0  0  0  0  0  0  0
  -22.4249  -29.6833   21.0520 C   0  0  0  0  0  0  0  0  0  0  0  0
  -20.0891  -28.4972   22.0111 C   0  0  0  0  0  0  0  0  0  0  0  0
  -21.7918  -28.6878   20.3077 C   0  0  0  0  0  0  0  0  0  0  0  0
  -27.9997  -26.9611   19.6772 C   0  0  0  0  0  0  0  0  0  0  0  0
  -30.0225  -26.1021   19.6039 C   0  0  0  0  0  0  0  0  0  0  0  0
  -31.9880  -14.1319   17.1070 C   0  0  0  0  0  0  0  0  0  0  0  0
  -30.8060  -16.5284   21.1325 C   0  0  0  0  0  0  0  0  0  0  0  0
  -29.9058  -28.3321   20.7273 C   0  0  0  0  0  0  0  0  0  0  0  0
  -31.0133  -14.6648   17.8612 C   0  0  0  0  0  0  0  0  0  0  0  0
  -31.3569  -14.9815   19.2916 C   0  0  0  0  0  0  0  0  0  0  0  0
  -23.4464  -17.5520   20.4233 C   0  0  0  0  0  0  0  0  0  0  0  0
  -22.1415  -14.7653   21.4498 C   0  0  0  0  0  0  0  0  0  0  0  0
  -22.3381  -11.3623   21.6167 C   0  0  0  0  0  0  0  0  0  0  0  0
  -28.4065  -20.4503   18.5310 C   0  0  0  0  0  0  0  0  0  0  0  0
  -22.8897  -22.8943   20.5502 C   0  0  0  0  0  0  0  0  0  0  0  0
  -23.4077  -16.2005   18.2954 C   0  0  0  0  0  0  0  0  0  0  0  0
  -24.5003  -14.6475   20.5623 C   0  0  0  0  0  0  0  0  0  0  0  0
  -23.0264  -21.9647   21.7517 C   0  0  0  0  0  0  0  0  0  0  0  0
  -29.8888  -22.7166   16.2193 C   0  0  0  0  0  0  0  0  0  0  0  0
  -22.6945  -20.5369   21.3445 C   0  0  0  0  0  0  0  0  0  0  0  0
  -29.6996  -24.0840   16.8802 C   0  0  0  0  0  0  0  0  0  0  0  0
  -28.6925  -21.7985   16.4632 C   0  0  0  0  0  0  0  0  0  0  0  0
  -28.1200  -23.0064   18.5326 C   0  0  0  0  0  0  0  0  0  0  0  0
  -23.6867  -20.0243   20.2929 C   0  0  1  0  0  0  0  0  0  0  0  0
  -22.8677  -16.3610   19.7132 C   0  0  1  0  0  0  0  0  0  0  0  0
  -29.3277  -23.9436   18.3693 C   0  0  2  0  0  0  0  0  0  0  0  0
  -21.1451   -9.3639   22.5551 C   0  0  0  0  0  0  0  0  0  0  0  0
  -23.2202  -15.4279   24.2260 C   0  0  0  0  0  0  0  0  0  0  0  0
  -22.8483  -13.0360   24.8651 C   0  0  0  0  0  0  0  0  0  0  0  0
  -20.9124  -14.4644   24.2061 C   0  0  0  0  0  0  0  0  0  0  0  0
  -21.8892  -10.2205   18.9234 C   0  0  0  0  0  0  0  0  0  0  0  0
  -29.6363  -14.8880   17.3072 C   0  0  0  0  0  0  0  0  0  1  0  0
  -22.5447  -13.6951   22.4352 C   0  0  1  0  0  0  0  0  0  0  0  0
  -21.3076  -10.2796   21.3518 C   0  0  2  0  0  0  0  0  0  0  0  0
  -22.3978  -14.1625   23.9108 C   0  0  0  0  0  0  0  0  0  0  0  0
  -27.8444  -25.7926   19.0491 N   0  0  0  0  0  0  0  0  0  0  0  0
  -29.0920  -25.2940   19.0197 N   0  0  0  0  0  0  0  0  0  0  0  0
  -23.1325  -15.1921   20.5545 N   0  0  0  0  0  0  0  0  0  0  0  0
  -28.4014  -21.7102   17.8958 N   0  0  0  0  0  0  0  0  0  0  0  0
  -31.3253  -25.7531   19.6617 N   0  0  0  0  0  0  0  0  0  0  0  0
  -29.0579  -29.3800   21.1111 N   0  0  0  0  0  0  0  0  0  0  0  0
  -28.1483  -20.4941   19.9007 N   0  0  0  0  0  0  0  0  0  0  0  0
  -30.6514  -16.0564   19.8290 N   0  0  0  0  0  0  0  0  0  0  0  0
  -23.2189  -18.7547   19.7819 N   0  0  0  0  0  0  0  0  0  0  0  0
  -21.7555  -12.5143   22.1011 N   0  0  0  0  0  0  0  0  0  0  0  0
  -21.7158   -9.4510   20.1823 N   0  3  0  0  0  0  0  0  0  0  0  0
  -31.5756  -16.0643   21.9693 O   0  0  0  0  0  0  0  0  0  0  0  0
  -31.1331  -28.4138   20.9733 O   0  0  0  0  0  0  0  0  0  0  0  0
  -32.1963  -14.3286   19.9098 O   0  0  0  0  0  0  0  0  0  0  0  0
  -24.0530  -17.3919   21.4759 O   0  0  0  0  0  0  0  0  0  0  0  0
  -20.9877  -15.2013   21.4689 O   0  0  0  0  0  0  0  0  0  0  0  0
  -23.5401  -11.2008   21.4177 O   0  0  0  0  0  0  0  0  0  0  0  0
  -28.6508  -19.4120   17.9111 O   0  0  0  0  0  0  0  0  0  0  0  0
  -23.5849  -30.2725   20.5776 O   0  0  0  0  0  0  0  0  0  0  0  0
  -28.6851  -14.1530   18.0762 O   0  0  0  0  0  0  0  0  0  1  0  0
  -18.9684  -27.9268   22.4724 F   0  0  0  0  0  0  0  0  0  0  0  0
  -22.3016  -28.2962   19.1319 F   0  0  0  0  0  0  0  0  0  0  0  0
  1  2  1  0  0  0  0
  1  7  2  0  0  0  0
  2  8  2  0  0  0  0
  3  6  2  0  0  0  0
  3 10  1  0  0  0  0
  4 11  2  0  0  0  0
  4 19  1  0  0  0  0
  5 12  1  0  0  0  0
  5 19  2  0  0  0  0
  6 20  1  0  0  0  0
  7 22  1  0  0  0  0
  8 24  1  0  0  0  0
  9 13  2  0  0  0  0
  9 23  1  0  0  0  0
 10 26  2  0  0  0  0
 11 27  1  0  0  0  0
 12 27  2  0  0  0  0
 13 28  1  0  0  0  0
 14 15  2  0  0  0  0
 14 29  1  0  0  0  0
 15 30  1  0  0  0  0
 16 20  2  0  0  0  0
 16 26  1  0  0  0  0
 17 25  1  0  0  0  0
 17 28  2  0  0  0  0
 18 30  2  0  0  0  0
 18 31  1  0  0  0  0
 19 32  1  0  0  0  0
 20 35  1  0  0  0  0
 21 32  1  0  0  0  0
 21 33  2  0  0  0  0
 21 36  1  0  0  0  0
 22 24  2  0  0  0  0
 22 43  1  0  0  0  0
 23 25  2  0  0  0  0
 23 44  1  0  0  0  0
 24 52  1  0  0  0  0
 25 45  1  0  0  0  0
 26 70  1  0  0  0  0
 27 82  1  0  0  0  0
 28 83  1  0  0  0  0
 29 31  2  0  0  0  0
 29 82  1  0  0  0  0
 30 84  1  0  0  0  0
 31 85  1  0  0  0  0
 32 64  2  0  0  0  0
 33 65  1  0  0  0  0
 33 68  1  0  0  0  0
 34 37  2  0  0  0  0
 35 71  1  0  0  0  0
 35 75  2  0  0  0  0
 36 69  1  0  0  0  0
 36 76  2  0  0  0  0
 37 38  1  0  0  0  0
 37 60  1  0  0  0  0
 38 71  1  0  0  0  0
 38 77  2  0  0  0  0
 39 53  1  0  0  0  0
 39 72  1  0  0  0  0
 39 78  2  0  0  0  0
 40 61  1  0  0  0  0
 40 66  1  0  0  0  0
 40 79  2  0  0  0  0
 41 62  1  0  0  0  0
 41 73  1  0  0  0  0
 41 80  2  0  0  0  0
 42 67  1  0  0  0  0
 42 70  1  0  0  0  0
 42 81  2  0  0  0  0
 43 46  1  0  0  0  0
 44 53  1  0  0  0  0
 45 66  1  0  0  0  0
 46 48  1  0  0  0  0
 47 49  1  0  0  0  0
 47 50  1  0  0  0  0
 48 52  1  0  0  0  0
 49 54  1  0  0  0  0
 50 67  1  0  0  0  0
 51 54  1  0  0  0  0
 51 67  1  0  0  0  0
 52 72  1  0  0  0  0
 53 66  1  0  0  0  0
 54 65  1  0  0  0  0
 55 62  1  0  0  0  0
 56 63  1  0  0  0  0
 57 63  1  0  0  0  0
 58 63  1  0  0  0  0
 59 74  1  0  0  0  0
 60 83  1  0  0  0  0
 61 63  1  0  0  0  0
 61 73  1  0  0  0  0
 62 74  1  0  0  0  0
 64 65  1  0  0  0  0
M  CHG  1  74   1
M  ISO  4  42 100  60 101  70 100  83 101
M  END
> <Batch ID>
0082

> <Smiles>
C=C(C(=O)NC(=O)c1cccc([100NH:0][100C:0](=O)N2CCCC(n3nc(-c4ccc(Oc5ccc(F)cc5F)cc4)c(C(N)=O)c3N)C2)c1)[101CH2:1][101O:1]c1ccc2c(c1)CN(C(=O)C(NC(=O)C(C)NC)C(C)(C)C)C(C(=O)NC1CCCc3ccccc31)C2

> <Shape>
0.249

> <Color>
0.057

> <Negative vol penalty>
0.000

$$$$

  -OEChem-04052300073D

 88 97  0     1  0  0  0  0  0999 V2000
  -36.3074  -10.2873   21.7240 C   0  0  0  0  0  0  0  0  0  0  0  0
  -36.1540  -11.6027   22.1503 C   0  0  0  0  0  0  0  0  0  0  0  0
  -23.5464  -22.9590   20.2292 C   0  0  0  0  0  0  0  0  0  0  0  0
  -22.0962  -23.5841   18.4008 C   0  0  0  0  0  0  0  0  0  0  0  0
  -35.5453   -9.8074   20.6597 C   0  0  0  0  0  0  0  0  0  0  0  0
  -35.2391  -12.4392   21.5118 C   0  0  0  0  0  0  0  0  0  0  0  0
  -30.7814  -17.8864   22.8432 C   0  0  0  0  0  0  0  0  0  0  0  0
  -26.9428  -26.1326   23.4735 C   0  0  0  0  0  0  0  0  0  0  0  0
  -26.2702  -26.8159   21.2559 C   0  0  0  0  0  0  0  0  0  0  0  0
  -26.3270  -27.2638   24.0089 C   0  0  0  0  0  0  0  0  0  0  0  0
  -25.6543  -27.9471   21.7913 C   0  0  0  0  0  0  0  0  0  0  0  0
  -22.7834  -21.8110   20.4420 C   0  0  0  0  0  0  0  0  0  0  0  0
  -21.3331  -22.4360   18.6136 C   0  0  0  0  0  0  0  0  0  0  0  0
  -30.4766  -19.1662   22.3816 C   0  0  0  0  0  0  0  0  0  0  0  0
  -21.0040  -18.8984   21.6969 C   0  0  0  0  0  0  0  0  0  0  0  0
  -20.6640  -18.5782   23.0112 C   0  0  0  0  0  0  0  0  0  0  0  0
  -29.1575  -18.2049   20.6054 C   0  0  0  0  0  0  0  0  0  0  0  0
  -19.5046  -20.6871   23.2250 C   0  0  0  0  0  0  0  0  0  0  0  0
  -23.2028  -23.8456   19.2087 C   0  0  0  0  0  0  0  0  0  0  0  0
  -25.1100  -25.1650   18.1458 C   0  0  0  0  0  0  0  0  0  0  0  0
  -34.6137  -10.6355   20.0140 C   0  0  0  0  0  0  0  0  0  0  0  0
  -30.2846  -16.7542   22.1817 C   0  0  0  0  0  0  0  0  0  0  0  0
  -34.4648  -11.9702   20.4370 C   0  0  0  0  0  0  0  0  0  0  0  0
  -29.4554  -16.9119   21.0620 C   0  0  0  0  0  0  0  0  0  0  0  0
  -26.9145  -25.9086   22.0970 C   0  0  0  0  0  0  0  0  0  0  0  0
  -25.6827  -28.1711   23.1678 C   0  0  0  0  0  0  0  0  0  0  0  0
  -21.6767  -21.5494   19.6342 C   0  0  0  0  0  0  0  0  0  0  0  0
  -29.6669  -19.3256   21.2609 C   0  0  0  0  0  0  0  0  0  0  0  0
  -20.5944  -20.1130   21.1466 C   0  0  0  0  0  0  0  0  0  0  0  0
  -19.9143  -19.4725   23.7753 C   0  0  0  0  0  0  0  0  0  0  0  0
  -19.8447  -21.0073   21.9107 C   0  0  0  0  0  0  0  0  0  0  0  0
  -23.9904  -25.0320   18.9887 C   0  0  0  0  0  0  0  0  0  0  0  0
  -25.4936  -26.4761   18.2887 C   0  0  0  0  0  0  0  0  0  0  0  0
  -28.3690  -22.6675   21.3140 C   0  0  0  0  0  0  0  0  0  0  0  0
  -27.6575  -23.5760   22.2391 C   0  0  0  0  0  0  0  0  0  0  0  0
  -28.0866  -24.7300   20.2863 C   0  0  0  0  0  0  0  0  0  0  0  0
  -26.8508  -31.5795   25.6690 C   0  0  0  0  0  0  0  0  0  0  0  0
  -28.7111  -21.4242   21.6518 C   0  0  0  0  0  0  0  0  0  1  0  0
  -26.6609  -30.3427   25.1958 C   0  0  0  0  0  0  0  0  0  0  0  0
  -25.7464  -24.1905   17.3085 C   0  0  0  0  0  0  0  0  0  0  0  0
  -31.5951  -14.2865   20.6661 C   0  0  0  0  0  0  0  0  0  0  0  0
  -28.5279  -13.2393   20.5333 C   0  0  0  0  0  0  0  0  0  0  0  0
  -25.2017  -14.0014   20.5796 C   0  0  0  0  0  0  0  0  0  0  0  0
  -24.3770  -30.3002   22.9367 C   0  0  0  0  0  0  0  0  0  0  0  0
  -33.8466  -10.0859   18.8376 C   0  0  0  0  0  0  0  0  0  0  0  0
  -30.6007  -15.3810   22.7080 C   0  0  0  0  0  0  0  0  0  0  0  0
  -28.8801  -15.7291   20.3282 C   0  0  0  0  0  0  0  0  0  0  0  0
  -28.6236  -23.3459   20.0214 C   0  0  0  0  0  0  0  0  0  0  0  0
  -32.6302  -10.9263   18.4573 C   0  0  0  0  0  0  0  0  0  0  0  0
  -23.7733  -30.8143   19.3222 C   0  0  0  0  0  0  0  0  0  0  0  0
  -32.9969  -12.4062   18.4119 C   0  0  0  0  0  0  0  0  0  0  0  0
  -23.7727  -29.3892   18.7723 C   0  0  0  0  0  0  0  0  0  0  0  0
  -23.3114  -30.8607   20.7756 C   0  0  0  0  0  0  0  0  0  0  0  0
  -24.0952  -28.5364   21.1282 C   0  0  0  0  0  0  0  0  0  0  0  0
  -33.4649  -12.9010   19.7858 C   0  0  1  0  0  0  0  0  0  0  0  0
  -30.4608  -14.2894   21.6515 C   0  0  1  0  0  0  0  0  0  0  0  0
  -24.5953  -28.4579   19.6780 C   0  0  1  0  0  0  0  0  0  0  0  0
  -22.9346  -12.9383   20.4130 C   0  0  0  0  0  0  0  0  0  0  0  0
  -28.8923  -12.9404   17.5187 C   0  0  0  0  0  0  0  0  0  0  0  0
  -26.4016  -12.8080   17.3010 C   0  0  0  0  0  0  0  0  0  0  0  0
  -27.6316  -11.0748   18.6071 C   0  0  0  0  0  0  0  0  0  0  0  0
  -24.4435  -14.9205   23.2887 C   0  0  0  0  0  0  0  0  0  0  0  0
  -25.3265  -29.6787   25.1148 C   0  0  0  0  0  0  0  0  0  0  0  0
  -27.3836  -13.4025   19.5623 C   0  0  1  0  0  0  0  0  0  0  0  0
  -24.0407  -13.3984   21.3498 C   0  0  2  0  0  0  0  0  0  0  0  0
  -27.5895  -12.5789   18.2597 C   0  0  0  0  0  0  0  0  0  0  0  0
  -23.6827  -26.1679   19.6204 N   0  0  0  0  0  0  0  0  0  0  0  0
  -24.6148  -27.0271   19.1743 N   0  0  0  0  0  0  0  0  0  0  0  0
  -27.5297  -24.7792   21.5622 N   0  0  0  0  0  0  0  0  0  0  0  0
  -29.2233  -14.4070   20.8777 N   0  0  0  0  0  0  0  0  0  0  0  0
  -24.0629  -29.9255   21.6142 N   0  0  0  0  0  0  0  0  0  0  0  0
  -26.4935  -27.1997   17.7421 N   0  0  0  0  0  0  0  0  0  0  0  0
  -25.2234  -22.8905   17.2799 N   0  0  0  0  0  0  0  0  0  0  0  0
  -32.3308  -13.1168   20.6585 N   0  0  0  0  0  0  0  0  0  0  0  0
  -26.1713  -13.0621   20.2991 N   0  0  0  0  0  0  0  0  0  0  0  0
  -25.0457  -29.3411   23.7211 N   0  0  0  0  0  0  0  0  0  0  0  0
  -23.4701  -14.3997   22.2946 N   0  3  0  0  0  0  0  0  0  0  0  0
  -27.2831  -23.2868   23.3639 O   0  0  0  0  0  0  0  0  0  0  0  0
  -28.1441  -25.6413   19.4689 O   0  0  0  0  0  0  0  0  0  0  0  0
  -26.7590  -24.4602   16.6191 O   0  0  0  0  0  0  0  0  0  0  0  0
  -31.7876  -15.2719   19.9636 O   0  0  0  0  0  0  0  0  0  0  0  0
  -28.7904  -12.1181   20.9756 O   0  0  0  0  0  0  0  0  0  0  0  0
  -25.2424  -15.1863   20.2558 O   0  0  0  0  0  0  0  0  0  0  0  0
  -24.0363  -31.3931   23.4056 O   0  0  0  0  0  0  0  0  0  0  0  0
  -20.9320  -20.4291   19.8414 O   0  0  0  0  0  0  0  0  0  0  0  0
  -29.3684  -20.5736   20.8079 O   0  0  0  0  0  0  0  0  0  1  0  0
  -19.5865  -19.1642   25.0369 F   0  0  0  0  0  0  0  0  0  0  0  0
  -19.4473  -22.1752   21.3872 F   0  0  0  0  0  0  0  0  0  0  0  0
  1  2  1  0  0  0  0
  1  5  2  0  0  0  0
  2  6  2  0  0  0  0
  3 12  2  0  0  0  0
  3 19  1  0  0  0  0
  4 13  1  0  0  0  0
  4 19  2  0  0  0  0
  5 21  1  0  0  0  0
  6 23  1  0  0  0  0
  7 14  2  0  0  0  0
  7 22  1  0  0  0  0
  8 10  2  0  0  0  0
  8 25  1  0  0  0  0
  9 11  1  0  0  0  0
  9 25  2  0  0  0  0
 10 26  1  0  0  0  0
 11 26  2  0  0  0  0
 12 27  1  0  0  0  0
 13 27  2  0  0  0  0
 14 28  1  0  0  0  0
 15 16  2  0  0  0  0
 15 29  1  0  0  0  0
 16 30  1  0  0  0  0
 17 24  1  0  0  0  0
 17 28  2  0  0  0  0
 18 30  2  0  0  0  0
 18 31  1  0  0  0  0
 19 32  1  0  0  0  0
 20 32  1  0  0  0  0
 20 33  2  0  0  0  0
 20 40  1  0  0  0  0
 21 23  2  0  0  0  0
 21 45  1  0  0  0  0
 22 24  2  0  0  0  0
 22 46  1  0  0  0  0
 23 55  1  0  0  0  0
 24 47  1  0  0  0  0
 25 69  1  0  0  0  0
 26 76  1  0  0  0  0
 27 85  1  0  0  0  0
 28 86  1  0  0  0  0
 29 31  2  0  0  0  0
 29 85  1  0  0  0  0
 30 87  1  0  0  0  0
 31 88  1  0  0  0  0
 32 67  2  0  0  0  0
 33 68  1  0  0  0  0
 33 72  1  0  0  0  0
 34 35  1  0  0  0  0
 34 38  2  0  0  0  0
 34 48  1  0  0  0  0
 35 69  1  0  0  0  0
 35 78  2  0  0  0  0
 36 48  1  0  0  0  0
 36 69  1  0  0  0  0
 36 79  2  0  0  0  0
 37 39  2  0  0  0  0
 38 86  1  0  0  0  0
 39 63  1  0  0  0  0
 40 73  1  0  0  0  0
 40 80  2  0  0  0  0
 41 56  1  0  0  0  0
 41 74  1  0  0  0  0
 41 81  2  0  0  0  0
 42 64  1  0  0  0  0
 42 70  1  0  0  0  0
 42 82  2  0  0  0  0
 43 65  1  0  0  0  0
 43 75  1  0  0  0  0
 43 83  2  0  0  0  0
 44 71  1  0  0  0  0
 44 76  1  0  0  0  0
 44 84  2  0  0  0  0
 45 49  1  0  0  0  0
 46 56  1  0  0  0  0
 47 70  1  0  0  0  0
 49 51  1  0  0  0  0
 50 52  1  0  0  0  0
 50 53  1  0  0  0  0
 51 55  1  0  0  0  0
 52 57  1  0  0  0  0
 53 71  1  0  0  0  0
 54 57  1  0  0  0  0
 54 71  1  0  0  0  0
 55 74  1  0  0  0  0
 56 70  1  0  0  0  0
 57 68  1  0  0  0  0
 58 65  1  0  0  0  0
 59 66  1  0  0  0  0
 60 66  1  0  0  0  0
 61 66  1  0  0  0  0
 62 77  1  0  0  0  0
 63 76  1  0  0  0  0
 64 66  1  0  0  0  0
 64 75  1  0  0  0  0
 65 77  1  0  0  0  0
 67 68  1  0  0  0  0
M  CHG  1  77   1
M  ISO  4  38 101  44 100  76 100  86 101
M  END
> <Batch ID>
0082

> <Smiles>
C=CC[100N:0](c1ccc(N2C(=O)CC(=[101CH:1][101O:1]c3ccc4c(c3)CN(C(=O)C(NC(=O)C(C)NC)C(C)(C)C)C(C(=O)NC3CCCc5ccccc53)C4)C2=O)cc1)[100C:0](=O)N1CCCC(n2nc(-c3ccc(Oc4ccc(F)cc4F)cc3)c(C(N)=O)c2N)C1

> <Shape>
0.222

> <Color>
0.072

> <Negative vol penalty>
0.000

$$$$

  -OEChem-04052300073D

 84 93  0     1  0  0  0  0  0999 V2000
  -34.9170   -7.5969   18.0041 C   0  0  0  0  0  0  0  0  0  0  0  0
  -34.8226   -8.9381   18.3617 C   0  0  0  0  0  0  0  0  0  0  0  0
  -26.8348  -37.3371   20.9028 C   0  0  0  0  0  0  0  0  0  0  0  0
  -24.7777  -37.3272   22.1698 C   0  0  0  0  0  0  0  0  0  0  0  0
  -27.8692  -25.1614   21.2398 C   0  0  0  0  0  0  0  0  0  0  0  0
  -30.0496  -25.3143   20.2105 C   0  0  0  0  0  0  0  0  0  0  0  0
  -33.9180   -7.0118   17.2272 C   0  0  0  0  0  0  0  0  0  0  0  0
  -33.7296   -9.6952   17.9415 C   0  0  0  0  0  0  0  0  0  0  0  0
  -30.9735  -14.2097   21.0285 C   0  0  0  0  0  0  0  0  0  0  0  0
  -27.9307  -23.7701   21.1634 C   0  0  0  0  0  0  0  0  0  0  0  0
  -30.1111  -23.9229   20.1342 C   0  0  0  0  0  0  0  0  0  0  0  0
  -26.3454  -38.3799   20.1163 C   0  0  0  0  0  0  0  0  0  0  0  0
  -24.2883  -38.3701   21.3834 C   0  0  0  0  0  0  0  0  0  0  0  0
  -31.0851  -15.5977   20.9592 C   0  0  0  0  0  0  0  0  0  0  0  0
  -24.2178  -38.7517   17.5165 C   0  0  0  0  0  0  0  0  0  0  0  0
  -24.3931  -38.6585   16.1358 C   0  0  0  0  0  0  0  0  0  0  0  0
  -29.1680  -15.6728   19.4970 C   0  0  0  0  0  0  0  0  0  0  0  0
  -25.6703  -40.7092   16.1597 C   0  0  0  0  0  0  0  0  0  0  0  0
  -26.0510  -36.8107   21.9296 C   0  0  0  0  0  0  0  0  0  0  0  0
  -28.9286  -25.9336   20.7633 C   0  0  0  0  0  0  0  0  0  0  0  0
  -27.2912  -35.8421   23.9373 C   0  0  0  0  0  0  0  0  0  0  0  0
  -32.8074   -7.7596   16.8054 C   0  0  0  0  0  0  0  0  0  0  0  0
  -29.9632  -13.5407   20.3226 C   0  0  0  0  0  0  0  0  0  0  0  0
  -32.7155   -9.1199   17.1571 C   0  0  0  0  0  0  0  0  0  0  0  0
  -29.0441  -14.2765   19.5610 C   0  0  0  0  0  0  0  0  0  0  0  0
  -29.0516  -23.1508   20.6106 C   0  0  0  0  0  0  0  0  0  0  0  0
  -25.0722  -38.8965   20.3566 C   0  0  0  0  0  0  0  0  0  0  0  0
  -30.1841  -16.3292   20.1910 C   0  0  0  0  0  0  0  0  0  0  0  0
  -24.7687  -39.8236   18.2187 C   0  0  0  0  0  0  0  0  0  0  0  0
  -25.1194  -39.6373   15.4574 C   0  0  0  0  0  0  0  0  0  0  0  0
  -25.4950  -40.8023   17.5403 C   0  0  0  0  0  0  0  0  0  0  0  0
  -26.5557  -35.7330   22.7420 C   0  0  0  0  0  0  0  0  0  0  0  0
  -27.5286  -34.5428   24.3142 C   0  0  0  0  0  0  0  0  0  0  0  0
  -29.2279  -19.7811   20.5262 C   0  0  0  0  0  0  0  0  0  0  0  0
  -28.2529  -20.8009   20.9145 C   0  0  0  0  0  0  0  0  0  0  0  0
  -28.8658  -27.3845   20.8434 C   0  0  0  0  0  0  0  0  0  0  0  0
  -29.2332  -18.4360   20.5490 C   0  0  0  0  0  0  0  0  0  1  0  0
  -27.7382  -28.1129   20.9876 C   0  0  0  0  0  0  0  0  0  0  0  0
  -27.7214  -37.0131   24.6439 C   0  0  0  0  0  0  0  0  0  0  0  0
  -27.8400  -29.5841   21.0634 C   0  0  0  0  0  0  0  0  0  0  0  0
  -29.9089  -11.3701   18.0012 C   0  0  0  0  0  0  0  0  0  0  0  0
  -26.7160  -11.4075   18.5725 C   0  0  0  0  0  0  0  0  0  0  0  0
  -24.0065  -13.1029   19.7688 C   0  0  0  0  0  0  0  0  0  0  0  0
  -31.7764   -7.0959   15.9273 C   0  0  0  0  0  0  0  0  0  0  0  0
  -29.8399  -12.0455   20.4292 C   0  0  0  0  0  0  0  0  0  0  0  0
  -27.9291  -13.6079   18.8006 C   0  0  0  0  0  0  0  0  0  0  0  0
  -30.1756  -20.8837   20.1128 C   0  0  0  0  0  0  0  0  0  0  0  0
  -30.4637   -7.8698   15.8374 C   0  0  0  0  0  0  0  0  0  0  0  0
  -25.7057  -30.1466   23.9892 C   0  0  0  0  0  0  0  0  0  0  0  0
  -30.7330   -9.3504   15.5879 C   0  0  0  0  0  0  0  0  0  0  0  0
  -25.7182  -31.6706   24.0732 C   0  0  0  0  0  0  0  0  0  0  0  0
  -25.7619  -29.6531   22.5443 C   0  0  0  0  0  0  0  0  0  0  0  0
  -26.9230  -31.7305   21.8539 C   0  0  0  0  0  0  0  0  0  0  0  0
  -31.5328   -9.9677   16.7415 C   0  0  1  0  0  0  0  0  0  0  0  0
  -29.0866  -11.4230   19.2577 C   0  0  1  0  0  0  0  0  0  0  0  0
  -26.9146  -32.2485   23.3006 C   0  0  1  0  0  0  0  0  0  0  0  0
  -21.5238  -12.8905   20.0665 C   0  0  0  0  0  0  0  0  0  0  0  0
  -26.3160  -11.9378   15.5945 C   0  0  0  0  0  0  0  0  0  0  0  0
  -23.9709  -12.6492   16.1073 C   0  0  0  0  0  0  0  0  0  0  0  0
  -24.6976  -10.3125   16.5913 C   0  0  0  0  0  0  0  0  0  0  0  0
  -24.2216  -13.3456   22.7105 C   0  0  0  0  0  0  0  0  0  0  0  0
  -25.5446  -12.2000   18.0445 C   0  0  1  0  0  0  0  0  0  0  0  0
  -22.8881  -12.6825   20.7053 C   0  0  2  0  0  0  0  0  0  0  0  0
  -25.1544  -11.7876   16.5970 C   0  0  0  0  0  0  0  0  0  0  0  0
  -26.3402  -34.4647   22.3831 N   0  0  0  0  0  0  0  0  0  0  0  0
  -26.9439  -33.7648   23.3586 N   0  0  0  0  0  0  0  0  0  0  0  0
  -29.1135  -21.7786   20.5370 N   0  0  0  0  0  0  0  0  0  0  0  0
  -26.8795  -30.2647   21.8097 N   0  0  0  0  0  0  0  0  0  0  0  0
  -27.8542  -12.1434   18.9314 N   0  0  0  0  0  0  0  0  0  0  0  0
  -28.1784  -34.0013   25.3663 N   0  0  0  0  0  0  0  0  0  0  0  0
  -27.3921  -38.2697   24.1176 N   0  0  0  0  0  0  0  0  0  0  0  0
  -30.6698  -10.2236   17.8748 N   0  0  0  0  0  0  0  0  0  0  0  0
  -24.4718  -12.0424   19.0205 N   0  0  0  0  0  0  0  0  0  0  0  0
  -22.9426  -13.4754   21.9659 N   0  3  0  0  0  0  0  0  0  0  0  0
  -27.1373  -20.7865   21.3917 O   0  0  0  0  0  0  0  0  0  0  0  0
  -28.3924  -36.9473   25.7017 O   0  0  0  0  0  0  0  0  0  0  0  0
  -28.7679  -30.1220   20.4564 O   0  0  0  0  0  0  0  0  0  0  0  0
  -29.8556  -12.2998   17.2047 O   0  0  0  0  0  0  0  0  0  0  0  0
  -26.6219  -10.1814   18.6699 O   0  0  0  0  0  0  0  0  0  0  0  0
  -24.4229  -14.2575   19.7046 O   0  0  0  0  0  0  0  0  0  0  0  0
  -24.5944  -39.9142   19.5895 O   0  0  0  0  0  0  0  0  0  0  0  0
  -30.2912  -17.6840   20.1211 O   0  0  0  0  0  0  0  0  0  1  0  0
  -25.2889  -39.5469   14.1318 F   0  0  0  0  0  0  0  0  0  0  0  0
  -26.0276  -41.8338   18.2098 F   0  0  0  0  0  0  0  0  0  0  0  0
  1  2  1  0  0  0  0
  1  7  2  0  0  0  0
  2  8  2  0  0  0  0
  3 12  2  0  0  0  0
  3 19  1  0  0  0  0
  4 13  1  0  0  0  0
  4 19  2  0  0  0  0
  5 10  2  0  0  0  0
  5 20  1  0  0  0  0
  6 11  1  0  0  0  0
  6 20  2  0  0  0  0
  7 22  1  0  0  0  0
  8 24  1  0  0  0  0
  9 14  2  0  0  0  0
  9 23  1  0  0  0  0
 10 26  1  0  0  0  0
 11 26  2  0  0  0  0
 12 27  1  0  0  0  0
 13 27  2  0  0  0  0
 14 28  1  0  0  0  0
 15 16  2  0  0  0  0
 15 29  1  0  0  0  0
 16 30  1  0  0  0  0
 17 25  1  0  0  0  0
 17 28  2  0  0  0  0
 18 30  2  0  0  0  0
 18 31  1  0  0  0  0
 19 32  1  0  0  0  0
 20 36  1  0  0  0  0
 21 32  1  0  0  0  0
 21 33  2  0  0  0  0
 21 39  1  0  0  0  0
 22 24  2  0  0  0  0
 22 44  1  0  0  0  0
 23 25  2  0  0  0  0
 23 45  1  0  0  0  0
 24 54  1  0  0  0  0
 25 46  1  0  0  0  0
 26 67  1  0  0  0  0
 27 81  1  0  0  0  0
 28 82  1  0  0  0  0
 29 31  2  0  0  0  0
 29 81  1  0  0  0  0
 30 83  1  0  0  0  0
 31 84  1  0  0  0  0
 32 65  2  0  0  0  0
 33 66  1  0  0  0  0
 33 70  1  0  0  0  0
 34 35  1  0  0  0  0
 34 37  2  0  0  0  0
 34 47  1  0  0  0  0
 35 67  1  0  0  0  0
 35 75  2  0  0  0  0
 36 38  2  0  0  0  0
 37 82  1  0  0  0  0
 38 40  1  0  0  0  0
 39 71  1  0  0  0  0
 39 76  2  0  0  0  0
 40 68  1  0  0  0  0
 40 77  2  0  0  0  0
 41 55  1  0  0  0  0
 41 72  1  0  0  0  0
 41 78  2  0  0  0  0
 42 62  1  0  0  0  0
 42 69  1  0  0  0  0
 42 79  2  0  0  0  0
 43 63  1  0  0  0  0
 43 73  1  0  0  0  0
 43 80  2  0  0  0  0
 44 48  1  0  0  0  0
 45 55  1  0  0  0  0
 46 69  1  0  0  0  0
 47 67  1  0  0  0  0
 48 50  1  0  0  0  0
 49 51  1  0  0  0  0
 49 52  1  0  0  0  0
 50 54  1  0  0  0  0
 51 56  1  0  0  0  0
 52 68  1  0  0  0  0
 53 56  1  0  0  0  0
 53 68  1  0  0  0  0
 54 72  1  0  0  0  0
 55 69  1  0  0  0  0
 56 66  1  0  0  0  0
 57 63  1  0  0  0  0
 58 64  1  0  0  0  0
 59 64  1  0  0  0  0
 60 64  1  0  0  0  0
 61 74  1  0  0  0  0
 62 64  1  0  0  0  0
 62 73  1  0  0  0  0
 63 74  1  0  0  0  0
 65 66  1  0  0  0  0
M  CHG  1  74   1
M  ISO  4  37 101  38 100  40 100  82 101
M  END
> <Batch ID>
0082

> <Smiles>
CNC(C)C(=O)NC(C(=O)N1Cc2cc([101O:1][101CH:1]=C3CN(c4ccc(C=[100CH:0][100C:0](=O)N5CCCC(n6nc(-c7ccc(Oc8ccc(F)cc8F)cc7)c(C(N)=O)c6N)C5)cc4)C3=O)ccc2CC1C(=O)NC1CCCc2ccccc21)C(C)(C)C

> <Shape>
0.246

> <Color>
0.064

> <Negative vol penalty>
0.000

$$$$

  -OEChem-04052300073D

 81 89  0     1  0  0  0  0  0999 V2000
  -30.3326  -25.8632   19.7995 C   0  0  0  0  0  0  0  0  0  0  0  0
  -25.7776  -37.3209   21.6520 C   0  0  0  0  0  0  0  0  0  0  0  0
  -26.4442  -36.1910   21.1890 C   0  0  0  0  0  0  0  0  0  0  0  0
  -25.7171   -9.7728   21.4234 C   0  0  0  0  0  0  0  0  0  0  0  0
  -23.6474  -10.4578   22.4647 C   0  0  0  0  0  0  0  0  0  0  0  0
  -29.8032  -21.6756   20.4552 C   0  0  0  0  0  0  0  0  0  0  0  0
  -29.8394  -21.9932   18.0604 C   0  0  0  0  0  0  0  0  0  0  0  0
  -24.9122  -37.2212   22.7406 C   0  0  0  0  0  0  0  0  0  0  0  0
  -26.2466  -34.9608   21.8151 C   0  0  0  0  0  0  0  0  0  0  0  0
  -26.1782  -29.4450   19.1548 C   0  0  0  0  0  0  0  0  0  0  0  0
  -30.3383  -22.9514   20.6326 C   0  0  0  0  0  0  0  0  0  0  0  0
  -30.3745  -23.2691   18.2378 C   0  0  0  0  0  0  0  0  0  0  0  0
  -25.6469   -8.5490   22.0889 C   0  0  0  0  0  0  0  0  0  0  0  0
  -23.5772   -9.2340   23.1302 C   0  0  0  0  0  0  0  0  0  0  0  0
  -27.1469  -28.4495   19.0346 C   0  0  0  0  0  0  0  0  0  0  0  0
  -22.6827   -6.0559   22.4087 C   0  0  0  0  0  0  0  0  0  0  0  0
  -21.4530   -5.3978   22.4238 C   0  0  0  0  0  0  0  0  0  0  0  0
  -26.2267  -27.3298   20.9630 C   0  0  0  0  0  0  0  0  0  0  0  0
  -21.4330   -5.4903   24.8379 C   0  0  0  0  0  0  0  0  0  0  0  0
  -24.7174  -10.7273   21.6113 C   0  0  0  0  0  0  0  0  0  0  0  0
  -29.5537  -21.1965   19.1691 C   0  0  0  0  0  0  0  0  0  0  0  0
  -24.2563  -12.3040   19.6597 C   0  0  0  0  0  0  0  0  0  0  0  0
  -24.6965  -35.9873   23.3743 C   0  0  0  0  0  0  0  0  0  0  0  0
  -25.2316  -29.3960   20.1883 C   0  0  0  0  0  0  0  0  0  0  0  0
  -25.3785  -34.8447   22.9140 C   0  0  0  0  0  0  0  0  0  0  0  0
  -25.2455  -28.3245   21.0926 C   0  0  0  0  0  0  0  0  0  0  0  0
  -30.6240  -23.7482   19.5239 C   0  0  0  0  0  0  0  0  0  0  0  0
  -24.5770   -8.2795   22.9423 C   0  0  0  0  0  0  0  0  0  0  0  0
  -27.1731  -27.3932   19.9405 C   0  0  0  0  0  0  0  0  0  0  0  0
  -23.2876   -6.4313   23.6083 C   0  0  0  0  0  0  0  0  0  0  0  0
  -20.8281   -5.1150   23.6383 C   0  0  0  0  0  0  0  0  0  0  0  0
  -22.6627   -6.1485   24.8229 C   0  0  0  0  0  0  0  0  0  0  0  0
  -24.7896  -11.9919   20.9246 C   0  0  0  0  0  0  0  0  0  0  0  0
  -24.5914  -13.6212   19.4613 C   0  0  0  0  0  0  0  0  0  0  0  0
  -29.4319  -26.7871   19.9084 C   0  0  0  0  0  0  0  0  0  1  0  0
  -28.9954  -19.8663   18.9838 C   0  0  0  0  0  0  0  0  0  0  0  0
  -29.0261  -18.8700   19.8944 C   0  0  0  0  0  0  0  0  0  0  0  0
  -23.5234  -11.4773   18.7458 C   0  0  0  0  0  0  0  0  0  0  0  0
  -28.4041  -17.5733   19.5594 C   0  0  0  0  0  0  0  0  0  0  0  0
  -24.5065  -31.2634   22.6562 C   0  0  0  0  0  0  0  0  0  0  0  0
  -22.0499  -29.1754   23.0142 C   0  0  0  0  0  0  0  0  0  0  0  0
  -20.7997  -26.0495   22.4553 C   0  0  0  0  0  0  0  0  0  0  0  0
  -23.7880  -35.9379   24.5771 C   0  0  0  0  0  0  0  0  0  0  0  0
  -24.1767  -30.4635   20.2883 C   0  0  0  0  0  0  0  0  0  0  0  0
  -24.2391  -28.2148   22.2077 C   0  0  0  0  0  0  0  0  0  0  0  0
  -23.3462  -34.5249   24.9493 C   0  0  0  0  0  0  0  0  0  0  0  0
  -26.4658  -17.0686   22.6287 C   0  0  0  0  0  0  0  0  0  0  0  0
  -24.5391  -33.5743   24.9455 C   0  0  0  0  0  0  0  0  0  0  0  0
  -25.8508  -15.6967   22.3653 C   0  0  0  0  0  0  0  0  0  0  0  0
  -27.8640  -17.1937   22.0253 C   0  0  0  0  0  0  0  0  0  0  0  0
  -27.3005  -15.5003   20.3062 C   0  0  0  0  0  0  0  0  0  0  0  0
  -25.1713  -33.4878   23.5511 C   0  0  1  0  0  0  0  0  0  0  0  0
  -23.5801  -30.5849   21.6871 C   0  0  1  0  0  0  0  0  0  0  0  0
  -25.8747  -15.3685   20.8640 C   0  0  1  0  0  0  0  0  0  0  0  0
  -18.7809  -24.6267   22.9001 C   0  0  0  0  0  0  0  0  0  0  0  0
  -22.9525  -28.8028   25.9050 C   0  0  0  0  0  0  0  0  0  0  0  0
  -21.5489  -26.7319   26.0030 C   0  0  0  0  0  0  0  0  0  0  0  0
  -20.4750  -28.9463   25.5960 C   0  0  0  0  0  0  0  0  0  0  0  0
  -20.2568  -25.7125   19.5655 C   0  0  0  0  0  0  0  0  0  0  0  0
  -21.8489  -27.8791   23.7614 C   0  0  1  0  0  0  0  0  0  0  0  0
  -19.4553  -25.5819   21.9276 C   0  0  2  0  0  0  0  0  0  0  0  0
  -21.7266  -28.0928   25.2966 C   0  0  0  0  0  0  0  0  0  0  0  0
  -25.4161  -13.0273   21.4898 N   0  0  0  0  0  0  0  0  0  0  0  0
  -31.1642  -25.0378   19.7029 N   0  0  0  0  0  0  0  0  0  0  0  0
  -25.2786  -14.0029   20.5758 N   0  0  0  0  0  0  0  0  0  0  0  0
  -27.8721  -16.8184   20.6034 N   0  0  0  0  0  0  0  0  0  0  0  0
  -23.2314  -29.2865   22.2674 N   0  0  0  0  0  0  0  0  0  0  0  0
  -24.3624  -14.4784   18.4439 N   0  0  0  0  0  0  0  0  0  0  0  0
  -23.2658  -10.1478   19.1069 N   0  0  0  0  0  0  0  0  0  0  0  0
  -24.3780  -32.6389   22.6883 N   0  0  0  0  0  0  0  0  0  0  0  0
  -20.6904  -27.2333   23.1539 N   0  0  0  0  0  0  0  0  0  0  0  0
  -19.6260  -24.8815   20.6232 N   0  3  0  0  0  0  0  0  0  0  0  0
  -23.1233  -11.9003   17.6347 O   0  0  0  0  0  0  0  0  0  0  0  0
  -28.3978  -17.2348   18.3745 O   0  0  0  0  0  0  0  0  0  0  0  0
  -25.2794  -30.5888   23.3264 O   0  0  0  0  0  0  0  0  0  0  0  0
  -21.1871  -30.0541   23.0847 O   0  0  0  0  0  0  0  0  0  0  0  0
  -21.8419  -25.4251   22.2697 O   0  0  0  0  0  0  0  0  0  0  0  0
  -24.5081   -7.0854   23.5917 O   0  0  0  0  0  0  0  0  0  0  0  0
  -28.1179  -26.4206   19.8259 O   0  0  0  0  0  0  0  0  0  1  0  0
  -19.6465   -4.4843   23.6526 F   0  0  0  0  0  0  0  0  0  0  0  0
  -23.2384   -6.5076   25.9785 F   0  0  0  0  0  0  0  0  0  0  0  0
  1 35  2  0  0  0  0
  1 64  2  0  0  0  0
  2  3  1  0  0  0  0
  2  8  2  0  0  0  0
  3  9  2  0  0  0  0
  4 13  2  0  0  0  0
  4 20  1  0  0  0  0
  5 14  1  0  0  0  0
  5 20  2  0  0  0  0
  6 11  2  0  0  0  0
  6 21  1  0  0  0  0
  7 12  1  0  0  0  0
  7 21  2  0  0  0  0
  8 23  1  0  0  0  0
  9 25  1  0  0  0  0
 10 15  2  0  0  0  0
 10 24  1  0  0  0  0
 11 27  1  0  0  0  0
 12 27  2  0  0  0  0
 13 28  1  0  0  0  0
 14 28  2  0  0  0  0
 15 29  1  0  0  0  0
 16 17  2  0  0  0  0
 16 30  1  0  0  0  0
 17 31  1  0  0  0  0
 18 26  1  0  0  0  0
 18 29  2  0  0  0  0
 19 31  2  0  0  0  0
 19 32  1  0  0  0  0
 20 33  1  0  0  0  0
 21 36  1  0  0  0  0
 22 33  1  0  0  0  0
 22 34  2  0  0  0  0
 22 38  1  0  0  0  0
 23 25  2  0  0  0  0
 23 43  1  0  0  0  0
 24 26  2  0  0  0  0
 24 44  1  0  0  0  0
 25 52  1  0  0  0  0
 26 45  1  0  0  0  0
 27 64  1  0  0  0  0
 28 78  1  0  0  0  0
 29 79  1  0  0  0  0
 30 32  2  0  0  0  0
 30 78  1  0  0  0  0
 31 80  1  0  0  0  0
 32 81  1  0  0  0  0
 33 63  2  0  0  0  0
 34 65  1  0  0  0  0
 34 68  1  0  0  0  0
 35 79  1  0  0  0  0
 36 37  2  0  0  0  0
 37 39  1  0  0  0  0
 38 69  1  0  0  0  0
 38 73  2  0  0  0  0
 39 66  1  0  0  0  0
 39 74  2  0  0  0  0
 40 53  1  0  0  0  0
 40 70  1  0  0  0  0
 40 75  2  0  0  0  0
 41 60  1  0  0  0  0
 41 67  1  0  0  0  0
 41 76  2  0  0  0  0
 42 61  1  0  0  0  0
 42 71  1  0  0  0  0
 42 77  2  0  0  0  0
 43 46  1  0  0  0  0
 44 53  1  0  0  0  0
 45 67  1  0  0  0  0
 46 48  1  0  0  0  0
 47 49  1  0  0  0  0
 47 50  1  0  0  0  0
 48 52  1  0  0  0  0
 49 54  1  0  0  0  0
 50 66  1  0  0  0  0
 51 54  1  0  0  0  0
 51 66  1  0  0  0  0
 52 70  1  0  0  0  0
 53 67  1  0  0  0  0
 54 65  1  0  0  0  0
 55 61  1  0  0  0  0
 56 62  1  0  0  0  0
 57 62  1  0  0  0  0
 58 62  1  0  0  0  0
 59 72  1  0  0  0  0
 60 62  1  0  0  0  0
 60 71  1  0  0  0  0
 61 72  1  0  0  0  0
 63 65  1  0  0  0  0
M  CHG  1  72   1
M  ISO  4  35 101  37 100  39 100  79 101
M  END
> <Batch ID>
0082

> <Smiles>
CNC(C)C(=O)NC(C(=O)N1Cc2cc([101O:1][101CH:1]=C=Nc3ccc(C=[100CH:0][100C:0](=O)N4CCCC(n5nc(-c6ccc(Oc7ccc(F)cc7F)cc6)c(C(N)=O)c5N)C4)cc3)ccc2CC1C(=O)NC1CCCc2ccccc21)C(C)(C)C

> <Shape>
0.329

> <Color>
0.088

> <Negative vol penalty>
0.000

$$$$

  -OEChem-04052300073D

 87 96  0     1  0  0  0  0  0999 V2000
  -28.6332  -30.3371   27.5747 C   0  0  0  0  0  0  0  0  0  0  0  0
  -28.6088  -29.5960   26.3976 C   0  0  0  0  0  0  0  0  0  0  0  0
  -26.4893  -11.3122   21.0410 C   0  0  0  0  0  0  0  0  0  0  0  0
  -25.6638  -13.3792   20.1012 C   0  0  0  0  0  0  0  0  0  0  0  0
  -27.4387  -30.7664   28.1516 C   0  0  0  0  0  0  0  0  0  0  0  0
  -27.3898  -29.2830   25.7972 C   0  0  0  0  0  0  0  0  0  0  0  0
  -27.4477  -30.0136   20.7865 C   0  0  0  0  0  0  0  0  0  0  0  0
  -29.6943  -22.3856   18.1818 C   0  0  0  0  0  0  0  0  0  0  0  0
  -30.2017  -21.2134   18.7423 C   0  0  0  0  0  0  0  0  0  0  0  0
  -25.1958  -10.9778   21.4419 C   0  0  0  0  0  0  0  0  0  0  0  0
  -24.3703  -13.0448   20.5021 C   0  0  0  0  0  0  0  0  0  0  0  0
  -28.0728  -29.0402   20.0082 C   0  0  0  0  0  0  0  0  0  0  0  0
  -22.3905   -9.7351   20.0211 C   0  0  0  0  0  0  0  0  0  0  0  0
  -21.9538   -8.4324   19.7808 C   0  0  0  0  0  0  0  0  0  0  0  0
  -25.9193  -28.0940   19.4730 C   0  0  0  0  0  0  0  0  0  0  0  0
  -29.0114  -19.9096   17.0928 C   0  0  0  0  0  0  0  0  0  0  0  0
  -21.6174   -8.1080   22.1512 C   0  0  0  0  0  0  0  0  0  0  0  0
  -26.7233  -12.5129   20.3707 C   0  0  0  0  0  0  0  0  0  0  0  0
  -28.8916  -12.1374   19.0803 C   0  0  0  0  0  0  0  0  0  0  0  0
  -26.2049  -30.4668   27.5528 C   0  0  0  0  0  0  0  0  0  0  0  0
  -26.0522  -30.0280   20.9228 C   0  0  0  0  0  0  0  0  0  0  0  0
  -26.1777  -29.7076   26.3674 C   0  0  0  0  0  0  0  0  0  0  0  0
  -25.2788  -29.0702   20.2515 C   0  0  0  0  0  0  0  0  0  0  0  0
  -28.8455  -22.3199   17.0769 C   0  0  0  0  0  0  0  0  0  0  0  0
  -29.8602  -19.9754   18.1978 C   0  0  0  0  0  0  0  0  0  0  0  0
  -24.1363  -11.8441   21.1724 C   0  0  0  0  0  0  0  0  0  0  0  0
  -27.3087  -28.0785   19.3537 C   0  0  0  0  0  0  0  0  0  0  0  0
  -22.4408  -10.2243   21.3264 C   0  0  0  0  0  0  0  0  0  0  0  0
  -21.5672   -7.6188   20.8458 C   0  0  0  0  0  0  0  0  0  0  0  0
  -28.5040  -21.0819   16.5324 C   0  0  0  0  0  0  0  0  0  0  0  0
  -22.0543   -9.4107   22.3915 C   0  0  0  0  0  0  0  0  0  0  0  0
  -28.0593  -12.8591   19.9568 C   0  0  0  0  0  0  0  0  0  0  0  0
  -30.0459  -12.8788   19.0145 C   0  0  0  0  0  0  0  0  0  0  0  0
  -27.6232  -25.9201   16.5578 C   0  0  0  0  0  0  0  0  0  0  0  0
  -27.2824  -25.8583   15.1461 C   0  0  0  0  0  0  0  0  0  0  0  0
  -28.0952  -24.6823   17.2891 C   0  0  0  0  0  0  0  0  0  0  0  0
  -26.3355  -26.6071   14.5582 C   0  0  0  0  0  0  0  0  0  0  0  0
  -27.5969  -27.0624   17.2668 C   0  0  0  0  0  0  0  0  0  1  0  0
  -28.6434  -10.9069   18.3875 C   0  0  0  0  0  0  0  0  0  0  0  0
  -24.0331  -29.7205   23.3585 C   0  0  0  0  0  0  0  0  0  0  0  0
  -21.8160  -30.4511   21.1061 C   0  0  0  0  0  0  0  0  0  0  0  0
  -20.9504  -30.5123   17.8056 C   0  0  0  0  0  0  0  0  0  0  0  0
  -31.2295  -18.6738   19.8643 C   0  0  0  0  0  0  0  0  0  0  0  0
  -24.9378  -30.9122   28.2389 C   0  0  0  0  0  0  0  0  0  0  0  0
  -25.3914  -31.1008   21.7443 C   0  0  0  0  0  0  0  0  0  0  0  0
  -23.7759  -29.0543   20.3491 C   0  0  0  0  0  0  0  0  0  0  0  0
  -28.0490  -24.8244   14.3856 C   0  0  0  0  0  0  0  0  0  0  0  0
  -23.7064  -30.8586   27.3384 C   0  0  0  0  0  0  0  0  0  0  0  0
  -32.6916  -15.9260   21.5931 C   0  0  0  0  0  0  0  0  0  0  0  0
  -23.6540  -29.5339   26.5839 C   0  0  0  0  0  0  0  0  0  0  0  0
  -31.7487  -14.7606   21.2850 C   0  0  0  0  0  0  0  0  0  0  0  0
  -27.9015  -23.4851   15.0869 C   0  0  0  0  0  0  0  0  0  0  0  0
  -31.9315  -17.2395   21.7682 C   0  0  0  0  0  0  0  0  0  0  0  0
  -30.0872  -16.4220   20.3542 C   0  0  0  0  0  0  0  0  0  0  0  0
  -24.8764  -29.3692   25.6728 C   0  0  1  0  0  0  0  0  0  0  0  0
  -23.9985  -30.7100   22.2283 C   0  0  1  0  0  0  0  0  0  0  0  0
  -30.8129  -15.0897   20.1053 C   0  0  2  0  0  0  0  0  0  0  0  0
  -19.0587  -31.1292   16.2763 C   0  0  0  0  0  0  0  0  0  0  0  0
  -20.3286  -27.9168   21.9277 C   0  0  0  0  0  0  0  0  0  0  0  0
  -19.0246  -28.0747   19.7963 C   0  0  0  0  0  0  0  0  0  0  0  0
  -18.8601  -29.8943   21.4947 C   0  0  0  0  0  0  0  0  0  0  0  0
  -22.5935  -32.5315   16.3978 C   0  0  0  0  0  0  0  0  0  0  0  0
  -20.9777  -29.6567   20.1340 C   0  0  1  0  0  0  0  0  0  0  0  0
  -20.3400  -31.6033   16.9444 C   0  0  2  0  0  0  0  0  0  0  0  0
  -19.8262  -28.8845   20.8377 C   0  0  0  0  0  0  0  0  0  0  0  0
  -28.6359  -13.9733   20.4151 N   0  0  0  0  0  0  0  0  0  0  0  0
  -29.8429  -13.9573   19.8243 N   0  0  0  0  0  0  0  0  0  0  0  0
  -28.3209  -23.5369   16.4979 N   0  0  0  0  0  0  0  0  0  0  0  0
  -23.1770  -30.1201   21.1693 N   0  0  0  0  0  0  0  0  0  0  0  0
  -31.0689  -17.4874   20.6109 N   0  0  0  0  0  0  0  0  0  0  0  0
  -31.2046  -12.7069   18.3435 N   0  0  0  0  0  0  0  0  0  0  0  0
  -28.0689  -10.9634   17.1103 N   0  0  0  0  0  0  0  0  0  0  0  0
  -30.3757  -18.7848   18.7673 N   0  0  0  0  0  0  0  0  0  0  0  0
  -24.7221  -30.1620   24.4719 N   0  0  0  0  0  0  0  0  0  0  0  0
  -20.5293  -30.6003   19.1156 N   0  0  0  0  0  0  0  0  0  0  0  0
  -21.2976  -32.0208   15.8815 N   0  3  0  0  0  0  0  0  0  0  0  0
  -28.2264  -24.7251   18.5139 O   0  0  0  0  0  0  0  0  0  0  0  0
  -28.9077   -9.7897   18.8929 O   0  0  0  0  0  0  0  0  0  0  0  0
  -23.4747  -28.6372   23.2304 O   0  0  0  0  0  0  0  0  0  0  0  0
  -21.2843  -31.3375   21.7793 O   0  0  0  0  0  0  0  0  0  0  0  0
  -21.7205  -29.6645   17.3598 O   0  0  0  0  0  0  0  0  0  0  0  0
  -32.0816  -19.5158   20.1592 O   0  0  0  0  0  0  0  0  0  0  0  0
  -22.8740  -11.5181   21.5633 O   0  0  0  0  0  0  0  0  0  0  0  0
  -27.9163  -27.1269   18.5940 O   0  0  0  0  0  0  0  0  0  1  0  0
  -21.1463   -6.3684   20.6148 F   0  0  0  0  0  0  0  0  0  0  0  0
  -27.6884  -21.0066   15.4708 F   0  0  0  0  0  0  0  0  0  0  0  0
  -22.0993   -9.8754   23.6476 F   0  0  0  0  0  0  0  0  0  0  0  0
  1  2  1  0  0  0  0
  1  5  2  0  0  0  0
  2  6  2  0  0  0  0
  3 10  2  0  0  0  0
  3 18  1  0  0  0  0
  4 11  1  0  0  0  0
  4 18  2  0  0  0  0
  5 20  1  0  0  0  0
  6 22  1  0  0  0  0
  7 12  2  0  0  0  0
  7 21  1  0  0  0  0
  8  9  2  0  0  0  0
  8 24  1  0  0  0  0
  9 25  1  0  0  0  0
 10 26  1  0  0  0  0
 11 26  2  0  0  0  0
 12 27  1  0  0  0  0
 13 14  2  0  0  0  0
 13 28  1  0  0  0  0
 14 29  1  0  0  0  0
 15 23  1  0  0  0  0
 15 27  2  0  0  0  0
 16 25  2  0  0  0  0
 16 30  1  0  0  0  0
 17 29  2  0  0  0  0
 17 31  1  0  0  0  0
 18 32  1  0  0  0  0
 19 32  1  0  0  0  0
 19 33  2  0  0  0  0
 19 39  1  0  0  0  0
 20 22  2  0  0  0  0
 20 44  1  0  0  0  0
 21 23  2  0  0  0  0
 21 45  1  0  0  0  0
 22 55  1  0  0  0  0
 23 46  1  0  0  0  0
 24 30  2  0  0  0  0
 24 68  1  0  0  0  0
 25 73  1  0  0  0  0
 26 83  1  0  0  0  0
 27 84  1  0  0  0  0
 28 31  2  0  0  0  0
 28 83  1  0  0  0  0
 29 85  1  0  0  0  0
 30 86  1  0  0  0  0
 31 87  1  0  0  0  0
 32 66  2  0  0  0  0
 33 67  1  0  0  0  0
 33 71  1  0  0  0  0
 34 35  1  0  0  0  0
 34 36  1  0  0  0  0
 34 38  2  0  0  0  0
 35 37  2  0  0  0  0
 35 47  1  0  0  0  0
 36 68  1  0  0  0  0
 36 77  2  0  0  0  0
 38 84  1  0  0  0  0
 39 72  1  0  0  0  0
 39 78  2  0  0  0  0
 40 56  1  0  0  0  0
 40 74  1  0  0  0  0
 40 79  2  0  0  0  0
 41 63  1  0  0  0  0
 41 69  1  0  0  0  0
 41 80  2  0  0  0  0
 42 64  1  0  0  0  0
 42 75  1  0  0  0  0
 42 81  2  0  0  0  0
 43 70  1  0  0  0  0
 43 73  1  0  0  0  0
 43 82  2  0  0  0  0
 44 48  1  0  0  0  0
 45 56  1  0  0  0  0
 46 69  1  0  0  0  0
 47 52  1  0  0  0  0
 48 50  1  0  0  0  0
 49 51  1  0  0  0  0
 49 53  1  0  0  0  0
 50 55  1  0  0  0  0
 51 57  1  0  0  0  0
 52 68  1  0  0  0  0
 53 70  1  0  0  0  0
 54 57  1  0  0  0  0
 54 70  1  0  0  0  0
 55 74  1  0  0  0  0
 56 69  1  0  0  0  0
 57 67  1  0  0  0  0
 58 64  1  0  0  0  0
 59 65  1  0  0  0  0
 60 65  1  0  0  0  0
 61 65  1  0  0  0  0
 62 76  1  0  0  0  0
 63 65  1  0  0  0  0
 63 75  1  0  0  0  0
 64 76  1  0  0  0  0
 66 67  1  0  0  0  0
M  CHG  1  76   1
M  ISO  4  38 101  43 100  73 100  84 101
M  END
> <Batch ID>
0082

> <Smiles>
C=C1CCN(c2ccc([100NH:0][100C:0](=O)N3CCCC(n4nc(-c5ccc(Oc6ccc(F)cc6F)cc5)c(C(N)=O)c4N)C3)cc2F)C(=O)C1=[101CH:1][101O:1]c1ccc2c(c1)CN(C(=O)C(NC(=O)C(C)NC)C(C)(C)C)C(C(=O)NC1CCCc3ccccc31)C2

> <Shape>
0.269

> <Color>
0.082

> <Negative vol penalty>
0.000

$$$$

  -OEChem-04052300073D

 84 93  0     1  0  0  0  0  0999 V2000
  -28.7829  -36.5098   18.4007 C   0  0  0  0  0  0  0  0  0  0  0  0
  -28.7569  -35.1520   18.0985 C   0  0  0  0  0  0  0  0  0  0  0  0
  -25.4268  -18.8269   17.2833 C   0  0  0  0  0  0  0  0  0  0  0  0
  -24.4527   -9.0706   21.7565 C   0  0  0  0  0  0  0  0  0  0  0  0
  -23.2459  -10.4108   20.1488 C   0  0  0  0  0  0  0  0  0  0  0  0
  -28.5871  -36.9342   19.7142 C   0  0  0  0  0  0  0  0  0  0  0  0
  -28.5363  -34.2179   19.1099 C   0  0  0  0  0  0  0  0  0  0  0  0
  -25.5039  -28.9188   18.6297 C   0  0  0  0  0  0  0  0  0  0  0  0
  -25.8223  -20.0324   17.8629 C   0  0  0  0  0  0  0  0  0  0  0  0
  -26.0408  -17.6344   17.6663 C   0  0  0  0  0  0  0  0  0  0  0  0
  -23.2452   -8.6645   22.3244 C   0  0  0  0  0  0  0  0  0  0  0  0
  -22.0383  -10.0047   20.7167 C   0  0  0  0  0  0  0  0  0  0  0  0
  -25.9344  -27.6041   18.4564 C   0  0  0  0  0  0  0  0  0  0  0  0
  -20.7929   -6.4401   21.6377 C   0  0  0  0  0  0  0  0  0  0  0  0
  -20.6392   -5.0859   21.9344 C   0  0  0  0  0  0  0  0  0  0  0  0
  -25.8036  -27.2536   20.8395 C   0  0  0  0  0  0  0  0  0  0  0  0
  -28.4549  -22.8337   20.3675 C   0  0  0  0  0  0  0  0  0  0  0  0
  -27.4457  -18.8529   19.2084 C   0  0  0  0  0  0  0  0  0  0  0  0
  -20.3140   -5.6335   24.2649 C   0  0  0  0  0  0  0  0  0  0  0  0
  -26.4024  -22.3316   19.5895 C   0  0  0  0  0  0  0  0  0  0  0  0
  -24.4531   -9.9438   20.6687 C   0  0  0  0  0  0  0  0  0  0  0  0
  -26.4003   -9.7376   19.0338 C   0  0  0  0  0  0  0  0  0  0  0  0
  -28.3544  -36.0053   20.7407 C   0  0  0  0  0  0  0  0  0  0  0  0
  -25.2300  -29.4149   19.9123 C   0  0  0  0  0  0  0  0  0  0  0  0
  -28.3386  -34.6302   20.4387 C   0  0  0  0  0  0  0  0  0  0  0  0
  -25.3673  -28.5742   21.0261 C   0  0  0  0  0  0  0  0  0  0  0  0
  -27.1405  -23.3301   20.1859 C   0  0  0  0  0  0  0  0  0  0  0  0
  -26.8318  -20.0454   18.8254 C   0  0  0  0  0  0  0  0  0  0  0  0
  -27.0502  -17.6474   18.6288 C   0  0  0  0  0  0  0  0  0  0  0  0
  -22.0380   -9.1315   21.8045 C   0  0  0  0  0  0  0  0  0  0  0  0
  -26.0871  -26.7722   19.5617 C   0  0  0  0  0  0  0  0  0  0  0  0
  -20.7074   -7.3911   22.6546 C   0  0  0  0  0  0  0  0  0  0  0  0
  -20.3997   -4.6826   23.2480 C   0  0  0  0  0  0  0  0  0  0  0  0
  -20.4679   -6.9877   23.9682 C   0  0  0  0  0  0  0  0  0  0  0  0
  -25.7001  -10.3642   20.0820 C   0  0  0  0  0  0  0  0  0  0  0  0
  -27.5139  -10.5200   18.8488 C   0  0  0  0  0  0  0  0  0  0  0  0
  -28.4801  -21.5470   19.8764 C   0  0  0  0  0  0  0  0  0  0  0  0
  -26.0734   -8.5541   18.2933 C   0  0  0  0  0  0  0  0  0  0  0  0
  -26.4235  -31.7415   21.7196 C   0  0  0  0  0  0  0  0  0  0  0  0
  -23.9714  -30.9411   23.6865 C   0  0  0  0  0  0  0  0  0  0  0  0
  -21.7357  -28.5767   24.7152 C   0  0  0  0  0  0  0  0  0  0  0  0
  -28.6910  -16.2725   19.9569 C   0  0  0  0  0  0  0  0  0  0  0  0
  -28.1953  -36.5091   22.1533 C   0  0  0  0  0  0  0  0  0  0  0  0
  -24.7408  -30.8274   20.0798 C   0  0  0  0  0  0  0  0  0  0  0  0
  -25.0668  -29.0523   22.4224 C   0  0  0  0  0  0  0  0  0  0  0  0
  -27.5949  -35.4768   23.1042 C   0  0  0  0  0  0  0  0  0  0  0  0
  -30.4643  -13.4547   21.2188 C   0  0  0  0  0  0  0  0  0  0  0  0
  -28.2793  -34.1253   22.9261 C   0  0  0  0  0  0  0  0  0  0  0  0
  -29.5101  -12.2845   20.9696 C   0  0  0  0  0  0  0  0  0  0  0  0
  -29.7129  -14.7255   21.6114 C   0  0  0  0  0  0  0  0  0  0  0  0
  -27.6881  -13.9537   20.4394 C   0  0  0  0  0  0  0  0  0  0  0  0
  -28.0775  -33.5878   21.5042 C   0  0  1  0  0  0  0  0  0  0  0  0
  -24.9844  -31.3820   21.4800 C   0  0  1  0  0  0  0  0  0  0  0  0
  -28.3944  -12.6685   19.9779 C   0  0  2  0  0  0  0  0  0  0  0  0
  -19.8834  -28.2033   26.3665 C   0  0  0  0  0  0  0  0  0  0  0  0
  -26.0274  -30.6371   25.9204 C   0  0  0  0  0  0  0  0  0  0  0  0
  -24.3096  -29.3765   27.2351 C   0  0  0  0  0  0  0  0  0  0  0  0
  -23.8984  -31.7554   26.6071 C   0  0  0  0  0  0  0  0  0  0  0  0
  -19.7600  -28.0935   22.5654 C   0  0  0  0  0  0  0  0  0  0  0  0
  -26.6424  -24.6919   20.5716 C   0  0  0  0  0  0  0  0  0  1  0  0
  -23.7881  -29.9661   24.8244 C   0  0  1  0  0  0  0  0  0  0  0  0
  -20.2382  -28.6429   24.9546 C   0  0  2  0  0  0  0  0  0  0  0  0
  -24.5135  -30.4250   26.1207 C   0  0  0  0  0  0  0  0  0  0  0  0
  -26.3172  -11.4601   20.5316 N   0  0  0  0  0  0  0  0  0  0  0  0
  -27.2271  -21.2526   19.4058 N   0  0  0  0  0  0  0  0  0  0  0  0
  -27.4170  -11.5282   19.7622 N   0  0  0  0  0  0  0  0  0  0  0  0
  -24.5974  -30.4432   22.5350 N   0  0  0  0  0  0  0  0  0  0  0  0
  -28.6748  -15.0294   20.6241 N   0  0  0  0  0  0  0  0  0  0  0  0
  -28.5569  -10.4370   17.9957 N   0  0  0  0  0  0  0  0  0  0  0  0
  -24.8916   -7.8715   18.6125 N   0  0  0  0  0  0  0  0  0  0  0  0
  -27.6739  -16.4358   19.0169 N   0  0  0  0  0  0  0  0  0  0  0  0
  -26.7483  -33.0347   21.3569 N   0  0  0  0  0  0  0  0  0  0  0  0
  -22.3488  -29.7835   24.9777 N   0  0  0  0  0  0  0  0  0  0  0  0
  -19.5203  -27.7593   23.9929 N   0  3  0  0  0  0  0  0  0  0  0  0
  -26.8156   -8.1058   17.3869 O   0  0  0  0  0  0  0  0  0  0  0  0
  -27.1827  -30.9078   22.1995 O   0  0  0  0  0  0  0  0  0  0  0  0
  -23.5673  -32.0998   23.8120 O   0  0  0  0  0  0  0  0  0  0  0  0
  -22.3053  -27.5553   24.3371 O   0  0  0  0  0  0  0  0  0  0  0  0
  -29.5605  -17.1184   20.1817 O   0  0  0  0  0  0  0  0  0  0  0  0
  -29.4719  -20.6665   19.8161 O   0  0  0  0  0  0  0  0  0  0  0  0
  -20.8595   -8.7352   22.3583 O   0  0  0  0  0  0  0  0  0  0  0  0
  -26.5078  -25.4887   19.3955 O   0  0  0  0  0  0  0  0  0  1  0  0
  -20.2505   -3.3822   23.5325 F   0  0  0  0  0  0  0  0  0  0  0  0
  -20.3834   -7.8967   24.9493 F   0  0  0  0  0  0  0  0  0  0  0  0
  1  2  1  0  0  0  0
  1  6  2  0  0  0  0
  2  7  2  0  0  0  0
  3  9  2  0  0  0  0
  3 10  1  0  0  0  0
  4 11  2  0  0  0  0
  4 21  1  0  0  0  0
  5 12  1  0  0  0  0
  5 21  2  0  0  0  0
  6 23  1  0  0  0  0
  7 25  1  0  0  0  0
  8 13  2  0  0  0  0
  8 24  1  0  0  0  0
  9 28  1  0  0  0  0
 10 29  2  0  0  0  0
 11 30  1  0  0  0  0
 12 30  2  0  0  0  0
 13 31  1  0  0  0  0
 14 15  2  0  0  0  0
 14 32  1  0  0  0  0
 15 33  1  0  0  0  0
 16 26  1  0  0  0  0
 16 31  2  0  0  0  0
 17 27  1  0  0  0  0
 17 37  2  0  0  0  0
 18 28  2  0  0  0  0
 18 29  1  0  0  0  0
 19 33  2  0  0  0  0
 19 34  1  0  0  0  0
 20 27  2  0  0  0  0
 20 65  1  0  0  0  0
 21 35  1  0  0  0  0
 22 35  1  0  0  0  0
 22 36  2  0  0  0  0
 22 38  1  0  0  0  0
 23 25  2  0  0  0  0
 23 43  1  0  0  0  0
 24 26  2  0  0  0  0
 24 44  1  0  0  0  0
 25 52  1  0  0  0  0
 26 45  1  0  0  0  0
 27 60  1  0  0  0  0
 28 65  1  0  0  0  0
 29 71  1  0  0  0  0
 30 81  1  0  0  0  0
 31 82  1  0  0  0  0
 32 34  2  0  0  0  0
 32 81  1  0  0  0  0
 33 83  1  0  0  0  0
 34 84  1  0  0  0  0
 35 64  2  0  0  0  0
 36 66  1  0  0  0  0
 36 69  1  0  0  0  0
 37 65  1  0  0  0  0
 37 80  1  0  0  0  0
 38 70  1  0  0  0  0
 38 75  2  0  0  0  0
 39 53  1  0  0  0  0
 39 72  1  0  0  0  0
 39 76  2  0  0  0  0
 40 61  1  0  0  0  0
 40 67  1  0  0  0  0
 40 77  2  0  0  0  0
 41 62  1  0  0  0  0
 41 73  1  0  0  0  0
 41 78  2  0  0  0  0
 42 68  1  0  0  0  0
 42 71  1  0  0  0  0
 42 79  2  0  0  0  0
 43 46  1  0  0  0  0
 44 53  1  0  0  0  0
 45 67  1  0  0  0  0
 46 48  1  0  0  0  0
 47 49  1  0  0  0  0
 47 50  1  0  0  0  0
 48 52  1  0  0  0  0
 49 54  1  0  0  0  0
 50 68  1  0  0  0  0
 51 54  1  0  0  0  0
 51 68  1  0  0  0  0
 52 72  1  0  0  0  0
 53 67  1  0  0  0  0
 54 66  1  0  0  0  0
 55 62  1  0  0  0  0
 56 63  1  0  0  0  0
 57 63  1  0  0  0  0
 58 63  1  0  0  0  0
 59 74  1  0  0  0  0
 60 82  1  0  0  0  0
 61 63  1  0  0  0  0
 61 73  1  0  0  0  0
 62 74  1  0  0  0  0
 64 66  1  0  0  0  0
M  CHG  1  74   1
M  ISO  4  42 100  60 101  71 100  82 101
M  END
> <Batch ID>
0082

> <Smiles>
CNC(C)C(=O)NC(C(=O)N1Cc2cc([101O:1][101CH2:1]C3=CN(c4cccc([100NH:0][100C:0](=O)N5CCCC(n6nc(-c7ccc(Oc8ccc(F)cc8F)cc7)c(C(N)=O)c6N)C5)c4)C(=O)C3)ccc2CC1C(=O)NC1CCCc2ccccc21)C(C)(C)C

> <Shape>
0.256

> <Color>
0.114

> <Negative vol penalty>
0.000

$$$$

  -OEChem-04052300073D

 86 95  0     1  0  0  0  0  0999 V2000
  -31.8905  -32.9533   16.3721 C   0  0  0  0  0  0  0  0  0  0  0  0
  -31.8909  -31.6687   16.9063 C   0  0  0  0  0  0  0  0  0  0  0  0
  -22.9227  -10.6218   19.3142 C   0  0  0  0  0  0  0  0  0  0  0  0
  -23.4778   -9.4428   21.3486 C   0  0  0  0  0  0  0  0  0  0  0  0
  -28.7792  -19.9866   20.4446 C   0  0  0  0  0  0  0  0  0  0  0  0
  -27.2624  -18.4853   19.3121 C   0  0  0  0  0  0  0  0  0  0  0  0
  -31.1448  -33.9607   16.9827 C   0  0  0  0  0  0  0  0  0  0  0  0
  -31.1462  -31.3912   18.0521 C   0  0  0  0  0  0  0  0  0  0  0  0
  -26.0039  -26.3469   18.0012 C   0  0  0  0  0  0  0  0  0  0  0  0
  -27.7502  -20.9171   20.5893 C   0  0  0  0  0  0  0  0  0  0  0  0
  -26.2333  -19.4158   19.4569 C   0  0  0  0  0  0  0  0  0  0  0  0
  -22.0418   -9.5994   18.9620 C   0  0  0  0  0  0  0  0  0  0  0  0
  -22.5968   -8.4204   20.9964 C   0  0  0  0  0  0  0  0  0  0  0  0
  -25.1483  -25.2525   18.1295 C   0  0  0  0  0  0  0  0  0  0  0  0
  -19.2622   -7.8755   21.0613 C   0  0  0  0  0  0  0  0  0  0  0  0
  -18.4069   -7.3899   22.0502 C   0  0  0  0  0  0  0  0  0  0  0  0
  -24.6758  -25.8766   20.4175 C   0  0  0  0  0  0  0  0  0  0  0  0
  -19.3671   -5.1871   21.7989 C   0  0  0  0  0  0  0  0  0  0  0  0
  -23.6408  -10.5435   20.5074 C   0  0  0  0  0  0  0  0  0  0  0  0
  -28.5353  -18.7707   19.8059 C   0  0  0  0  0  0  0  0  0  0  0  0
  -24.2581  -12.7541   21.6211 C   0  0  0  0  0  0  0  0  0  0  0  0
  -30.3830  -33.6931   18.1310 C   0  0  0  0  0  0  0  0  0  0  0  0
  -26.1869  -27.2201   19.0770 C   0  0  0  0  0  0  0  0  0  0  0  0
  -30.3907  -32.3963   18.6794 C   0  0  0  0  0  0  0  0  0  0  0  0
  -25.5218  -26.9816   20.2909 C   0  0  0  0  0  0  0  0  0  0  0  0
  -26.4773  -20.6317   20.0955 C   0  0  0  0  0  0  0  0  0  0  0  0
  -21.8788   -8.4987   19.8031 C   0  0  0  0  0  0  0  0  0  0  0  0
  -24.4862  -25.0178   19.3348 C   0  0  0  0  0  0  0  0  0  0  0  0
  -20.1700   -7.0170   20.4410 C   0  0  0  0  0  0  0  0  0  0  0  0
  -18.4593   -6.0457   22.4191 C   0  0  0  0  0  0  0  0  0  0  0  0
  -20.2224   -5.6728   20.8099 C   0  0  0  0  0  0  0  0  0  0  0  0
  -24.5515  -11.5991   20.8715 C   0  0  0  0  0  0  0  0  0  0  0  0
  -25.4510  -13.4314   21.6892 C   0  0  0  0  0  0  0  0  0  0  0  0
  -24.1471  -21.5343   19.8592 C   0  0  0  0  0  0  0  0  0  0  0  0
  -25.4213  -22.7986   20.8007 C   0  0  0  0  0  0  0  0  0  0  0  0
  -29.6312  -17.7798   19.6516 C   0  0  0  0  0  0  0  0  0  0  0  0
  -23.0181  -13.1767   22.2039 C   0  0  0  0  0  0  0  0  0  0  0  0
  -27.8588  -30.3140   20.3842 C   0  0  0  0  0  0  0  0  0  0  0  0
  -24.9798  -30.3418   21.4431 C   0  0  0  0  0  0  0  0  0  0  0  0
  -21.6261  -30.2110   22.0537 C   0  0  0  0  0  0  0  0  0  0  0  0
  -30.0973  -15.3656   19.3721 C   0  0  0  0  0  0  0  0  0  0  0  0
  -29.6304  -34.8257   18.7832 C   0  0  0  0  0  0  0  0  0  0  0  0
  -27.1463  -28.3768   19.0035 C   0  0  0  0  0  0  0  0  0  0  0  0
  -25.7758  -27.9279   21.4324 C   0  0  0  0  0  0  0  0  0  0  0  0
  -28.5706  -34.3597   19.7782 C   0  0  0  0  0  0  0  0  0  0  0  0
  -30.1381  -11.9900   20.4214 C   0  0  0  0  0  0  0  0  0  0  0  0
  -29.1401  -33.2871   20.7014 C   0  0  0  0  0  0  0  0  0  0  0  0
  -28.6650  -11.6814   20.7024 C   0  0  0  0  0  0  0  0  0  0  0  0
  -30.3051  -12.9008   19.2059 C   0  0  0  0  0  0  0  0  0  0  0  0
  -28.0462  -13.8265   19.5193 C   0  0  0  0  0  0  0  0  0  0  0  0
  -29.5760  -32.0501   19.9068 C   0  0  1  0  0  0  0  0  0  0  0  0
  -26.6721  -29.6058   19.7996 C   0  0  1  0  0  0  0  0  0  0  0  0
  -27.8211  -12.9698   20.7757 C   0  0  1  0  0  0  0  0  0  0  0  0
  -23.9283  -22.9400   20.4493 C   0  0  0  0  0  0  0  0  0  1  0  0
  -22.9649  -23.0352   21.6130 C   0  0  0  0  0  0  0  0  0  0  0  0
  -19.7845  -31.4623   23.2114 C   0  0  0  0  0  0  0  0  0  0  0  0
  -25.9833  -29.3198   24.1362 C   0  0  0  0  0  0  0  0  0  0  0  0
  -23.7005  -29.7501   25.0700 C   0  0  0  0  0  0  0  0  0  0  0  0
  -25.0594  -31.6433   24.1802 C   0  0  0  0  0  0  0  0  0  0  0  0
  -20.1504  -30.6145   19.5203 C   0  0  0  0  0  0  0  0  0  0  0  0
  -24.0423  -29.9825   22.5680 C   0  0  1  0  0  0  0  0  0  0  0  0
  -20.5334  -31.2541   21.9042 C   0  0  2  0  0  0  0  0  0  0  0  0
  -24.6998  -30.1569   23.9661 C   0  0  0  0  0  0  0  0  0  0  0  0
  -25.8304  -11.5428   20.4905 N   0  0  0  0  0  0  0  0  0  0  0  0
  -26.3512  -12.6709   21.0027 N   0  0  0  0  0  0  0  0  0  0  0  0
  -25.4637  -21.5494   20.2388 N   0  0  0  0  0  0  0  0  0  0  0  0
  -25.7888  -29.3149   20.9417 N   0  0  0  0  0  0  0  0  0  0  0  0
  -29.4817  -14.1018   19.3574 N   0  0  0  0  0  0  0  0  0  0  0  0
  -25.8072  -14.5975   22.2686 N   0  0  0  0  0  0  0  0  0  0  0  0
  -21.8900  -12.3617   22.0385 N   0  0  0  0  0  0  0  0  0  0  0  0
  -29.2297  -16.4465   19.5646 N   0  0  0  0  0  0  0  0  0  0  0  0
  -28.4250  -31.2521   19.5423 N   0  0  0  0  0  0  0  0  0  0  0  0
  -22.8398  -30.7844   22.3690 N   0  0  0  0  0  0  0  0  0  0  0  0
  -19.5538  -30.8325   20.8633 N   0  3  0  0  0  0  0  0  0  0  0  0
  -23.4674  -20.7148   19.2834 O   0  0  0  0  0  0  0  0  0  0  0  0
  -26.2570  -23.4826   21.3472 O   0  0  0  0  0  0  0  0  0  0  0  0
  -30.7902  -18.1775   19.5713 O   0  0  0  0  0  0  0  0  0  0  0  0
  -22.9099  -14.2536   22.8381 O   0  0  0  0  0  0  0  0  0  0  0  0
  -28.2333  -30.0320   21.5164 O   0  0  0  0  0  0  0  0  0  0  0  0
  -25.0005  -31.5019   21.0224 O   0  0  0  0  0  0  0  0  0  0  0  0
  -21.4225  -29.0076   21.9092 O   0  0  0  0  0  0  0  0  0  0  0  0
  -31.3181  -15.5164   19.2618 O   0  0  0  0  0  0  0  0  0  0  0  0
  -21.0190   -7.5009   19.4599 O   0  0  0  0  0  0  0  0  0  0  0  0
  -23.6489  -23.9501   19.4518 O   0  0  0  0  0  0  0  0  0  1  0  0
  -17.6390   -5.5798   23.3699 F   0  0  0  0  0  0  0  0  0  0  0  0
  -21.0932   -4.8435   20.2184 F   0  0  0  0  0  0  0  0  0  0  0  0
  1  2  1  0  0  0  0
  1  7  2  0  0  0  0
  2  8  2  0  0  0  0
  3 12  2  0  0  0  0
  3 19  1  0  0  0  0
  4 13  1  0  0  0  0
  4 19  2  0  0  0  0
  5 10  2  0  0  0  0
  5 20  1  0  0  0  0
  6 11  1  0  0  0  0
  6 20  2  0  0  0  0
  7 22  1  0  0  0  0
  8 24  1  0  0  0  0
  9 14  2  0  0  0  0
  9 23  1  0  0  0  0
 10 26  1  0  0  0  0
 11 26  2  0  0  0  0
 12 27  1  0  0  0  0
 13 27  2  0  0  0  0
 14 28  1  0  0  0  0
 15 16  2  0  0  0  0
 15 29  1  0  0  0  0
 16 30  1  0  0  0  0
 17 25  1  0  0  0  0
 17 28  2  0  0  0  0
 18 30  2  0  0  0  0
 18 31  1  0  0  0  0
 19 32  1  0  0  0  0
 20 36  1  0  0  0  0
 21 32  1  0  0  0  0
 21 33  2  0  0  0  0
 21 37  1  0  0  0  0
 22 24  2  0  0  0  0
 22 42  1  0  0  0  0
 23 25  2  0  0  0  0
 23 43  1  0  0  0  0
 24 51  1  0  0  0  0
 25 44  1  0  0  0  0
 26 66  1  0  0  0  0
 27 83  1  0  0  0  0
 28 84  1  0  0  0  0
 29 31  2  0  0  0  0
 29 83  1  0  0  0  0
 30 85  1  0  0  0  0
 31 86  1  0  0  0  0
 32 64  2  0  0  0  0
 33 65  1  0  0  0  0
 33 69  1  0  0  0  0
 34 54  1  0  0  0  0
 34 66  1  0  0  0  0
 34 75  2  0  0  0  0
 35 54  1  0  0  0  0
 35 66  1  0  0  0  0
 35 76  2  0  0  0  0
 36 71  1  0  0  0  0
 36 77  2  0  0  0  0
 37 70  1  0  0  0  0
 37 78  2  0  0  0  0
 38 52  1  0  0  0  0
 38 72  1  0  0  0  0
 38 79  2  0  0  0  0
 39 61  1  0  0  0  0
 39 67  1  0  0  0  0
 39 80  2  0  0  0  0
 40 62  1  0  0  0  0
 40 73  1  0  0  0  0
 40 81  2  0  0  0  0
 41 68  1  0  0  0  0
 41 71  1  0  0  0  0
 41 82  2  0  0  0  0
 42 45  1  0  0  0  0
 43 52  1  0  0  0  0
 44 67  1  0  0  0  0
 45 47  1  0  0  0  0
 46 48  1  0  0  0  0
 46 49  1  0  0  0  0
 47 51  1  0  0  0  0
 48 53  1  0  0  0  0
 49 68  1  0  0  0  0
 50 53  1  0  0  0  0
 50 68  1  0  0  0  0
 51 72  1  0  0  0  0
 52 67  1  0  0  0  0
 53 65  1  0  0  0  0
 54 55  1  0  0  0  0
 54 84  1  0  0  0  0
 56 62  1  0  0  0  0
 57 63  1  0  0  0  0
 58 63  1  0  0  0  0
 59 63  1  0  0  0  0
 60 74  1  0  0  0  0
 61 63  1  0  0  0  0
 61 73  1  0  0  0  0
 62 74  1  0  0  0  0
 64 65  1  0  0  0  0
M  CHG  1  74   1
M  ISO  4  41 100  54 101  71 100  84 101
M  END
> <Batch ID>
0082

> <Smiles>
CNC(C)C(=O)NC(C(=O)N1Cc2cc([101O:1][101C:1]3(C)C(=O)N(c4ccc(C(=O)[100NH:0][100C:0](=O)N5CCCC(n6nc(-c7ccc(Oc8ccc(F)cc8F)cc7)c(C(N)=O)c6N)C5)cc4)C3=O)ccc2CC1C(=O)NC1CCCc2ccccc21)C(C)(C)C

> <Shape>
0.238

> <Color>
0.104

> <Negative vol penalty>
0.000

$$$$

  -OEChem-04052300073D

 85 94  0     1  0  0  0  0  0999 V2000
  -33.9698  -34.5564   20.0267 C   0  0  0  0  0  0  0  0  0  0  0  0
  -33.4783  -33.2637   20.1774 C   0  0  0  0  0  0  0  0  0  0  0  0
  -24.3865   -8.6463   21.3933 C   0  0  0  0  0  0  0  0  0  0  0  0
  -24.4523  -10.2171   23.2278 C   0  0  0  0  0  0  0  0  0  0  0  0
  -33.5282  -35.5721   20.8737 C   0  0  0  0  0  0  0  0  0  0  0  0
  -32.5455  -32.9857   21.1760 C   0  0  0  0  0  0  0  0  0  0  0  0
  -28.7270  -30.1016   19.5189 C   0  0  0  0  0  0  0  0  0  0  0  0
  -24.0901   -7.6162   22.2859 C   0  0  0  0  0  0  0  0  0  0  0  0
  -24.1559   -9.1871   24.1204 C   0  0  0  0  0  0  0  0  0  0  0  0
  -28.9740  -28.7365   19.3797 C   0  0  0  0  0  0  0  0  0  0  0  0
  -21.3829   -6.4689   23.9555 C   0  0  0  0  0  0  0  0  0  0  0  0
  -20.3669   -5.5798   23.6051 C   0  0  0  0  0  0  0  0  0  0  0  0
  -27.8777  -28.3290   21.4894 C   0  0  0  0  0  0  0  0  0  0  0  0
  -26.7335  -20.2698   19.5966 C   0  0  0  0  0  0  0  0  0  0  0  0
  -29.1760  -18.9357   19.4031 C   0  0  0  0  0  0  0  0  0  0  0  0
  -21.9408   -3.7486   23.6881 C   0  0  0  0  0  0  0  0  0  0  0  0
  -24.5677   -9.9467   21.8642 C   0  0  0  0  0  0  0  0  0  0  0  0
  -23.9594  -11.8398   20.2661 C   0  0  0  0  0  0  0  0  0  0  0  0
  -32.5823  -35.3084   21.8769 C   0  0  0  0  0  0  0  0  0  0  0  0
  -28.0619  -30.5926   20.6516 C   0  0  0  0  0  0  0  0  0  0  0  0
  -32.0918  -33.9985   22.0380 C   0  0  0  0  0  0  0  0  0  0  0  0
  -27.6212  -29.7004   21.6395 C   0  0  0  0  0  0  0  0  0  0  0  0
  -26.7604  -18.8892   19.3994 C   0  0  0  0  0  0  0  0  0  0  0  0
  -27.9279  -20.9834   19.6969 C   0  0  0  0  0  0  0  0  0  0  0  0
  -27.9816  -18.2222   19.3027 C   0  0  0  0  0  0  0  0  0  0  0  0
  -23.9748   -7.8866   23.6494 C   0  0  0  0  0  0  0  0  0  0  0  0
  -28.5519  -27.8503   20.3664 C   0  0  0  0  0  0  0  0  0  0  0  0
  -22.6779   -5.9979   24.1721 C   0  0  0  0  0  0  0  0  0  0  0  0
  -20.6458   -4.2196   23.4714 C   0  0  0  0  0  0  0  0  0  0  0  0
  -29.1491  -20.3163   19.6002 C   0  0  0  0  0  0  0  0  0  0  0  0
  -22.9568   -4.6378   24.0385 C   0  0  0  0  0  0  0  0  0  0  0  0
  -24.8744  -11.0111   20.9427 C   0  0  0  0  0  0  0  0  0  0  0  0
  -24.7463  -12.6814   19.5184 C   0  0  0  0  0  0  0  0  0  0  0  0
  -27.8388  -24.3361   20.0765 C   0  0  0  0  0  0  0  0  0  0  0  0
  -26.8810  -23.2312   20.0186 C   0  0  0  0  0  0  0  0  0  0  0  0
  -27.7205  -25.6702   20.2042 C   0  0  0  0  0  0  0  0  0  1  0  0
  -22.5263  -11.8482   20.3097 C   0  0  0  0  0  0  0  0  0  0  0  0
  -28.8204  -32.5829   23.0111 C   0  0  0  0  0  0  0  0  0  0  0  0
  -25.7046  -32.1883   23.8225 C   0  0  0  0  0  0  0  0  0  0  0  0
  -22.8972  -30.2529   23.6832 C   0  0  0  0  0  0  0  0  0  0  0  0
  -29.1683  -16.0228   18.9853 C   0  0  0  0  0  0  0  0  0  0  0  0
  -32.1703  -36.4287   22.7987 C   0  0  0  0  0  0  0  0  0  0  0  0
  -27.7795  -32.0649   20.7741 C   0  0  0  0  0  0  0  0  0  0  0  0
  -26.8851  -30.1747   22.8650 C   0  0  0  0  0  0  0  0  0  0  0  0
  -28.9615  -23.3346   19.9311 C   0  0  0  0  0  0  0  0  0  0  0  0
  -30.8996  -36.1302   23.5901 C   0  0  0  0  0  0  0  0  0  0  0  0
  -29.7069  -12.5339   18.5220 C   0  0  0  0  0  0  0  0  0  0  0  0
  -30.9614  -34.7293   24.1906 C   0  0  0  0  0  0  0  0  0  0  0  0
  -28.4224  -11.8948   19.0548 C   0  0  0  0  0  0  0  0  0  0  0  0
  -30.1167  -13.7542   19.3446 C   0  0  0  0  0  0  0  0  0  0  0  0
  -27.7851  -14.1309   20.0452 C   0  0  0  0  0  0  0  0  0  0  0  0
  -31.0605  -33.6627   23.0934 C   0  0  1  0  0  0  0  0  0  0  0  0
  -27.5484  -32.5112   22.2145 C   0  0  1  0  0  0  0  0  0  0  0  0
  -27.2969  -12.9364   19.2094 C   0  0  2  0  0  0  0  0  0  0  0  0
  -25.4657  -18.1502   19.2953 C   0  0  0  0  0  0  0  0  0  0  0  0
  -20.5166  -30.1756   24.4732 C   0  0  0  0  0  0  0  0  0  0  0  0
  -26.6594  -31.4184   26.6163 C   0  0  0  0  0  0  0  0  0  0  0  0
  -24.3888  -30.4575   27.0517 C   0  0  0  0  0  0  0  0  0  0  0  0
  -24.6398  -32.8929   26.5735 C   0  0  0  0  0  0  0  0  0  0  0  0
  -21.8565  -30.2322   20.9127 C   0  0  0  0  0  0  0  0  0  0  0  0
  -24.9418  -31.2241   24.6984 C   0  0  1  0  0  0  0  0  0  0  0  0
  -21.4552  -30.5922   23.3515 C   0  0  2  0  0  0  0  0  0  0  0  0
  -25.1730  -31.4892   26.2129 C   0  0  0  0  0  0  0  0  0  0  0  0
  -26.1453  -11.2998   20.6505 N   0  0  0  0  0  0  0  0  0  0  0  0
  -26.0346  -12.3194   19.7820 N   0  0  0  0  0  0  0  0  0  0  0  0
  -27.8994  -22.3449   19.8911 N   0  0  0  0  0  0  0  0  0  0  0  0
  -26.6385  -31.6241   22.9420 N   0  0  0  0  0  0  0  0  0  0  0  0
  -29.0022  -14.6991   19.4447 N   0  0  0  0  0  0  0  0  0  0  0  0
  -24.4550  -13.6882   18.6676 N   0  0  0  0  0  0  0  0  0  0  0  0
  -21.8774  -10.9157   21.1305 N   0  0  0  0  0  0  0  0  0  0  0  0
  -28.0304  -16.8204   19.1016 N   0  0  0  0  0  0  0  0  0  0  0  0
  -29.7662  -33.4419   22.4847 N   0  0  0  0  0  0  0  0  0  0  0  0
  -23.5461  -31.3115   24.2828 N   0  0  0  0  0  0  0  0  0  0  0  0
  -21.0333  -29.8966   22.1029 N   0  3  0  0  0  0  0  0  0  0  0  0
  -25.6716  -23.1387   20.0548 O   0  0  0  0  0  0  0  0  0  0  0  0
  -21.8412  -12.6478   19.6281 O   0  0  0  0  0  0  0  0  0  0  0  0
  -28.9347  -31.9100   24.0288 O   0  0  0  0  0  0  0  0  0  0  0  0
  -25.4750  -33.3971   23.9110 O   0  0  0  0  0  0  0  0  0  0  0  0
  -23.3968  -29.1570   23.4384 O   0  0  0  0  0  0  0  0  0  0  0  0
  -30.2327  -16.4118   18.4978 O   0  0  0  0  0  0  0  0  0  0  0  0
  -23.6853   -6.8818   24.5207 O   0  0  0  0  0  0  0  0  0  0  0  0
  -28.7923  -26.5175   20.2333 O   0  0  0  0  0  0  0  0  0  1  0  0
  -19.6698   -3.3657   23.1364 F   0  0  0  0  0  0  0  0  0  0  0  0
  -30.3027  -20.9927   19.6961 F   0  0  0  0  0  0  0  0  0  0  0  0
  -24.1987   -4.1792   24.2465 F   0  0  0  0  0  0  0  0  0  0  0  0
  1  2  1  0  0  0  0
  1  5  2  0  0  0  0
  2  6  2  0  0  0  0
  3  8  2  0  0  0  0
  3 17  1  0  0  0  0
  4  9  1  0  0  0  0
  4 17  2  0  0  0  0
  5 19  1  0  0  0  0
  6 21  1  0  0  0  0
  7 10  2  0  0  0  0
  7 20  1  0  0  0  0
  8 26  1  0  0  0  0
  9 26  2  0  0  0  0
 10 27  1  0  0  0  0
 11 12  2  0  0  0  0
 11 28  1  0  0  0  0
 12 29  1  0  0  0  0
 13 22  1  0  0  0  0
 13 27  2  0  0  0  0
 14 23  2  0  0  0  0
 14 24  1  0  0  0  0
 15 25  2  0  0  0  0
 15 30  1  0  0  0  0
 16 29  2  0  0  0  0
 16 31  1  0  0  0  0
 17 32  1  0  0  0  0
 18 32  1  0  0  0  0
 18 33  2  0  0  0  0
 18 37  1  0  0  0  0
 19 21  2  0  0  0  0
 19 42  1  0  0  0  0
 20 22  2  0  0  0  0
 20 43  1  0  0  0  0
 21 52  1  0  0  0  0
 22 44  1  0  0  0  0
 23 25  1  0  0  0  0
 23 55  1  0  0  0  0
 24 30  2  0  0  0  0
 24 66  1  0  0  0  0
 25 71  1  0  0  0  0
 26 81  1  0  0  0  0
 27 82  1  0  0  0  0
 28 31  2  0  0  0  0
 28 81  1  0  0  0  0
 29 83  1  0  0  0  0
 30 84  1  0  0  0  0
 31 85  1  0  0  0  0
 32 64  2  0  0  0  0
 33 65  1  0  0  0  0
 33 69  1  0  0  0  0
 34 35  1  0  0  0  0
 34 36  2  0  0  0  0
 34 45  1  0  0  0  0
 35 66  1  0  0  0  0
 35 75  2  0  0  0  0
 36 82  1  0  0  0  0
 37 70  1  0  0  0  0
 37 76  2  0  0  0  0
 38 53  1  0  0  0  0
 38 72  1  0  0  0  0
 38 77  2  0  0  0  0
 39 61  1  0  0  0  0
 39 67  1  0  0  0  0
 39 78  2  0  0  0  0
 40 62  1  0  0  0  0
 40 73  1  0  0  0  0
 40 79  2  0  0  0  0
 41 68  1  0  0  0  0
 41 71  1  0  0  0  0
 41 80  2  0  0  0  0
 42 46  1  0  0  0  0
 43 53  1  0  0  0  0
 44 67  1  0  0  0  0
 45 66  1  0  0  0  0
 46 48  1  0  0  0  0
 47 49  1  0  0  0  0
 47 50  1  0  0  0  0
 48 52  1  0  0  0  0
 49 54  1  0  0  0  0
 50 68  1  0  0  0  0
 51 54  1  0  0  0  0
 51 68  1  0  0  0  0
 52 72  1  0  0  0  0
 53 67  1  0  0  0  0
 54 65  1  0  0  0  0
 56 62  1  0  0  0  0
 57 63  1  0  0  0  0
 58 63  1  0  0  0  0
 59 63  1  0  0  0  0
 60 74  1  0  0  0  0
 61 63  1  0  0  0  0
 61 73  1  0  0  0  0
 62 74  1  0  0  0  0
 64 65  1  0  0  0  0
M  CHG  1  74   1
M  ISO  4  36 101  41 100  71 100  82 101
M  END
> <Batch ID>
0082

> <Smiles>
CNC(C)C(=O)NC(C(=O)N1Cc2cc([101O:1][101CH:1]=C3CN(c4cc(C)c([100NH:0][100C:0](=O)N5CCCC(n6nc(-c7ccc(Oc8ccc(F)cc8F)cc7)c(C(N)=O)c6N)C5)cc4F)C3=O)ccc2CC1C(=O)NC1CCCc2ccccc21)C(C)(C)C

> <Shape>
0.285

> <Color>
0.101

> <Negative vol penalty>
0.000

$$$$

  -OEChem-04052300073D

 87 96  0     1  0  0  0  0  0999 V2000
  -16.5527  -32.9350   29.1615 C   0  0  0  0  0  0  0  0  0  0  0  0
  -16.5290  -31.5840   28.8305 C   0  0  0  0  0  0  0  0  0  0  0  0
  -23.1951  -10.8467   23.0165 C   0  0  0  0  0  0  0  0  0  0  0  0
  -23.4362   -9.6291   20.9438 C   0  0  0  0  0  0  0  0  0  0  0  0
  -29.5511  -19.2584   20.7549 C   0  0  0  0  0  0  0  0  0  0  0  0
  -28.3880  -17.6971   22.1855 C   0  0  0  0  0  0  0  0  0  0  0  0
  -17.1517  -33.8523   28.2992 C   0  0  0  0  0  0  0  0  0  0  0  0
  -17.1033  -31.1496   27.6364 C   0  0  0  0  0  0  0  0  0  0  0  0
  -22.4145  -26.2831   27.6308 C   0  0  0  0  0  0  0  0  0  0  0  0
  -28.9385  -20.3219   21.4176 C   0  0  0  0  0  0  0  0  0  0  0  0
  -27.7754  -18.7607   22.8483 C   0  0  0  0  0  0  0  0  0  0  0  0
  -22.4152   -9.8123   23.5335 C   0  0  0  0  0  0  0  0  0  0  0  0
  -22.6563   -8.5946   21.4608 C   0  0  0  0  0  0  0  0  0  0  0  0
  -23.2888  -25.2003   27.5342 C   0  0  0  0  0  0  0  0  0  0  0  0
  -23.0652   -5.9807   23.5634 C   0  0  0  0  0  0  0  0  0  0  0  0
  -23.5107   -4.6739   23.3651 C   0  0  0  0  0  0  0  0  0  0  0  0
  -23.3814  -25.4757   25.1334 C   0  0  0  0  0  0  0  0  0  0  0  0
  -21.4768   -4.1627   22.1654 C   0  0  0  0  0  0  0  0  0  0  0  0
  -23.7056  -10.7551   21.7216 C   0  0  0  0  0  0  0  0  0  0  0  0
  -29.2758  -17.9459   21.1389 C   0  0  0  0  0  0  0  0  0  0  0  0
  -24.1299  -13.1669   21.0067 C   0  0  0  0  0  0  0  0  0  0  0  0
  -17.7422  -33.4278   27.0985 C   0  0  0  0  0  0  0  0  0  0  0  0
  -22.0320  -26.9768   26.4793 C   0  0  0  0  0  0  0  0  0  0  0  0
  -17.7096  -32.0623   26.7566 C   0  0  0  0  0  0  0  0  0  0  0  0
  -22.5158  -26.5689   25.2254 C   0  0  0  0  0  0  0  0  0  0  0  0
  -28.0507  -20.0731   22.4643 C   0  0  0  0  0  0  0  0  0  0  0  0
  -22.1458   -8.6863   22.7557 C   0  0  0  0  0  0  0  0  0  0  0  0
  -23.7708  -24.7975   26.2885 C   0  0  0  0  0  0  0  0  0  0  0  0
  -21.8255   -6.3786   23.0629 C   0  0  0  0  0  0  0  0  0  0  0  0
  -22.7165   -3.7649   22.6660 C   0  0  0  0  0  0  0  0  0  0  0  0
  -21.0313   -5.4696   22.3638 C   0  0  0  0  0  0  0  0  0  0  0  0
  -24.5108  -11.8236   21.1868 C   0  0  0  0  0  0  0  0  0  0  0  0
  -25.2421  -13.7704   20.4725 C   0  0  0  0  0  0  0  0  0  0  0  0
  -26.2513  -23.2971   24.5680 C   0  0  0  0  0  0  0  0  0  0  0  0
  -29.9289  -16.8118   20.4322 C   0  0  0  0  0  0  0  0  0  0  0  0
  -22.8824  -13.8114   21.2964 C   0  0  0  0  0  0  0  0  0  0  0  0
  -25.8654  -23.9622   25.6656 C   0  0  0  0  0  0  0  0  0  1  0  0
  -20.0450  -29.7971   25.0051 C   0  0  0  0  0  0  0  0  0  0  0  0
  -22.7265  -29.7230   23.5169 C   0  0  0  0  0  0  0  0  0  0  0  0
  -25.9516  -29.5712   22.4158 C   0  0  0  0  0  0  0  0  0  0  0  0
  -30.7091  -14.6420   20.4388 C   0  0  0  0  0  0  0  0  0  0  0  0
  -18.3361  -34.4626   26.1759 C   0  0  0  0  0  0  0  0  0  0  0  0
  -21.0440  -28.1104   26.5295 C   0  0  0  0  0  0  0  0  0  0  0  0
  -22.0499  -27.3231   24.0100 C   0  0  0  0  0  0  0  0  0  0  0  0
  -25.3770  -22.2935   23.8715 C   0  0  0  0  0  0  0  0  0  0  0  0
  -27.6049  -23.4724   23.9400 C   0  0  0  0  0  0  0  0  0  0  0  0
  -19.2529  -33.8719   25.1078 C   0  0  0  0  0  0  0  0  0  0  0  0
  -29.5200  -11.7968   18.6357 C   0  0  0  0  0  0  0  0  0  0  0  0
  -18.5988  -32.6585   24.4545 C   0  0  0  0  0  0  0  0  0  0  0  0
  -28.0831  -11.6444   19.1389 C   0  0  0  0  0  0  0  0  0  0  0  0
  -26.0991  -20.9533   23.7120 C   0  0  0  0  0  0  0  0  0  0  0  0
  -28.3122  -22.1245   23.7876 C   0  0  0  0  0  0  0  0  0  0  0  0
  -30.4588  -12.2610   19.7463 C   0  0  0  0  0  0  0  0  0  0  0  0
  -28.5839  -13.3521   20.9387 C   0  0  0  0  0  0  0  0  0  0  0  0
  -18.3439  -31.5492   25.4821 C   0  0  1  0  0  0  0  0  0  0  0  0
  -21.3369  -29.2124   25.4955 C   0  0  1  0  0  0  0  0  0  0  0  0
  -27.5984  -12.9289   19.8368 C   0  0  2  0  0  0  0  0  0  0  0  0
  -30.2923  -16.9965   18.9716 C   0  0  0  0  0  0  0  0  0  0  0  0
  -26.7223  -24.9636   26.3708 C   0  0  0  0  0  0  0  0  0  0  0  0
  -27.5392  -30.6687   20.8119 C   0  0  0  0  0  0  0  0  0  0  0  0
  -21.3738  -28.2787   21.1957 C   0  0  0  0  0  0  0  0  0  0  0  0
  -23.4675  -28.6089   19.8631 C   0  0  0  0  0  0  0  0  0  0  0  0
  -22.1757  -30.5871   20.6635 C   0  0  0  0  0  0  0  0  0  0  0  0
  -27.7742  -30.3901   24.5991 C   0  0  0  0  0  0  0  0  0  0  0  0
  -23.4982  -29.2153   22.3252 C   0  0  1  0  0  0  0  0  0  0  0  0
  -27.0067  -30.6478   22.2362 C   0  0  2  0  0  0  0  0  0  0  0  0
  -22.6295  -29.1590   21.0369 C   0  0  0  0  0  0  0  0  0  0  0  0
  -25.7667  -11.5872   20.7984 N   0  0  0  0  0  0  0  0  0  0  0  0
  -30.1342  -15.7095   21.0924 N   0  0  0  0  0  0  0  0  0  0  0  0
  -26.1846  -12.7901   20.3688 N   0  0  0  0  0  0  0  0  0  0  0  0
  -27.4357  -21.1411   23.1296 N   0  0  0  0  0  0  0  0  0  0  0  0
  -22.0493  -28.7684   24.2854 N   0  0  0  0  0  0  0  0  0  0  0  0
  -29.9404  -13.4675   20.3899 N   0  0  0  0  0  0  0  0  0  0  0  0
  -25.4959  -15.0387   20.0860 N   0  0  0  0  0  0  0  0  0  0  0  0
  -21.8449  -13.0438   21.8428 N   0  0  0  0  0  0  0  0  0  0  0  0
  -19.5713  -30.8412   25.7765 N   0  0  0  0  0  0  0  0  0  0  0  0
  -24.6798  -30.0635   22.2126 N   0  0  0  0  0  0  0  0  0  0  0  0
  -28.1504  -30.4119   23.1621 N   0  3  0  0  0  0  0  0  0  0  0  0
  -22.6881  -15.0283   21.0620 O   0  0  0  0  0  0  0  0  0  0  0  0
  -19.5165  -29.3368   23.9999 O   0  0  0  0  0  0  0  0  0  0  0  0
  -22.7179  -30.9333   23.7589 O   0  0  0  0  0  0  0  0  0  0  0  0
  -26.2283  -28.4088   22.7037 O   0  0  0  0  0  0  0  0  0  0  0  0
  -31.8380  -14.7138   19.9509 O   0  0  0  0  0  0  0  0  0  0  0  0
  -21.3850   -7.6766   23.2600 O   0  0  0  0  0  0  0  0  0  0  0  0
  -24.6276  -23.7425   26.2018 O   0  0  0  0  0  0  0  0  0  1  0  0
  -23.1451   -2.5105   22.4743 F   0  0  0  0  0  0  0  0  0  0  0  0
  -19.8399   -5.8463   21.8795 F   0  0  0  0  0  0  0  0  0  0  0  0
  1  2  1  0  0  0  0
  1  7  2  0  0  0  0
  2  8  2  0  0  0  0
  3 12  2  0  0  0  0
  3 19  1  0  0  0  0
  4 13  1  0  0  0  0
  4 19  2  0  0  0  0
  5 10  2  0  0  0  0
  5 20  1  0  0  0  0
  6 11  1  0  0  0  0
  6 20  2  0  0  0  0
  7 22  1  0  0  0  0
  8 24  1  0  0  0  0
  9 14  2  0  0  0  0
  9 23  1  0  0  0  0
 10 26  1  0  0  0  0
 11 26  2  0  0  0  0
 12 27  1  0  0  0  0
 13 27  2  0  0  0  0
 14 28  1  0  0  0  0
 15 16  2  0  0  0  0
 15 29  1  0  0  0  0
 16 30  1  0  0  0  0
 17 25  1  0  0  0  0
 17 28  2  0  0  0  0
 18 30  2  0  0  0  0
 18 31  1  0  0  0  0
 19 32  1  0  0  0  0
 20 35  1  0  0  0  0
 21 32  1  0  0  0  0
 21 33  2  0  0  0  0
 21 36  1  0  0  0  0
 22 24  2  0  0  0  0
 22 42  1  0  0  0  0
 23 25  2  0  0  0  0
 23 43  1  0  0  0  0
 24 55  1  0  0  0  0
 25 44  1  0  0  0  0
 26 71  1  0  0  0  0
 27 84  1  0  0  0  0
 28 85  1  0  0  0  0
 29 31  2  0  0  0  0
 29 84  1  0  0  0  0
 30 86  1  0  0  0  0
 31 87  1  0  0  0  0
 32 68  2  0  0  0  0
 33 70  1  0  0  0  0
 33 74  1  0  0  0  0
 34 37  2  0  0  0  0
 34 45  1  0  0  0  0
 34 46  1  0  0  0  0
 35 58  1  0  0  0  0
 35 69  2  0  0  0  0
 36 75  1  0  0  0  0
 36 79  2  0  0  0  0
 37 59  1  0  0  0  0
 37 85  1  0  0  0  0
 38 56  1  0  0  0  0
 38 76  1  0  0  0  0
 38 80  2  0  0  0  0
 39 65  1  0  0  0  0
 39 72  1  0  0  0  0
 39 81  2  0  0  0  0
 40 66  1  0  0  0  0
 40 77  1  0  0  0  0
 40 82  2  0  0  0  0
 41 69  1  0  0  0  0
 41 73  1  0  0  0  0
 41 83  2  0  0  0  0
 42 47  1  0  0  0  0
 43 56  1  0  0  0  0
 44 72  1  0  0  0  0
 45 51  1  0  0  0  0
 46 52  1  0  0  0  0
 47 49  1  0  0  0  0
 48 50  1  0  0  0  0
 48 53  1  0  0  0  0
 49 55  1  0  0  0  0
 50 57  1  0  0  0  0
 51 71  1  0  0  0  0
 52 71  1  0  0  0  0
 53 73  1  0  0  0  0
 54 57  1  0  0  0  0
 54 73  1  0  0  0  0
 55 76  1  0  0  0  0
 56 72  1  0  0  0  0
 57 70  1  0  0  0  0
 60 66  1  0  0  0  0
 61 67  1  0  0  0  0
 62 67  1  0  0  0  0
 63 67  1  0  0  0  0
 64 78  1  0  0  0  0
 65 67  1  0  0  0  0
 65 77  1  0  0  0  0
 66 78  1  0  0  0  0
 68 70  1  0  0  0  0
M  CHG  1  78   1
M  ISO  4  37 101  41 100  69 100  85 101
M  END
> <Batch ID>
0082

> <Smiles>
C=C([100NH:0][100C:0](=O)N1CCCC(n2nc(-c3ccc(Oc4ccc(F)cc4F)cc3)c(C(N)=O)c2N)C1)c1ccc(N2CCC(=[101C:1](C)[101O:1]c3ccc4c(c3)CN(C(=O)C(NC(=O)C(C)NC)C(C)(C)C)C(C(=O)NC3CCCc5ccccc53)C4)CC2)cc1

> <Shape>
0.267

> <Color>
0.163

> <Negative vol penalty>
0.000

$$$$

  -OEChem-04052300073D

 86 95  0     1  0  0  0  0  0999 V2000
  -16.5711  -29.2312   23.8619 C   0  0  0  0  0  0  0  0  0  0  0  0
  -17.4003  -28.1142   23.8513 C   0  0  0  0  0  0  0  0  0  0  0  0
  -32.5117  -20.4480   16.6479 C   0  0  0  0  0  0  0  0  0  0  0  0
  -24.6001  -15.7864   21.4713 C   0  0  0  0  0  0  0  0  0  0  0  0
  -25.1240  -14.5274   19.4769 C   0  0  0  0  0  0  0  0  0  0  0  0
  -31.4721  -20.1294   15.7744 C   0  0  0  0  0  0  0  0  0  0  0  0
  -16.9358  -30.3755   23.1537 C   0  0  0  0  0  0  0  0  0  0  0  0
  -18.5942  -28.1404   23.1314 C   0  0  0  0  0  0  0  0  0  0  0  0
  -25.2762  -25.5642   23.3061 C   0  0  0  0  0  0  0  0  0  0  0  0
  -32.3479  -21.4690   17.5842 C   0  0  0  0  0  0  0  0  0  0  0  0
  -23.7272  -14.7777   21.8788 C   0  0  0  0  0  0  0  0  0  0  0  0
  -24.2511  -13.5186   19.8845 C   0  0  0  0  0  0  0  0  0  0  0  0
  -26.1858  -24.8744   22.5058 C   0  0  0  0  0  0  0  0  0  0  0  0
  -24.2765  -10.9347   22.0623 C   0  0  0  0  0  0  0  0  0  0  0  0
  -24.7165   -9.6156   21.9527 C   0  0  0  0  0  0  0  0  0  0  0  0
  -30.1047  -21.8528   16.7730 C   0  0  0  0  0  0  0  0  0  0  0  0
  -26.7516  -26.9337   21.3841 C   0  0  0  0  0  0  0  0  0  0  0  0
  -22.8765   -9.1253   20.4657 C   0  0  0  0  0  0  0  0  0  0  0  0
  -25.2985  -15.6613   20.2703 C   0  0  0  0  0  0  0  0  0  0  0  0
  -30.2686  -20.8318   15.8369 C   0  0  0  0  0  0  0  0  0  0  0  0
  -27.5726  -16.8099   20.1416 C   0  0  0  0  0  0  0  0  0  0  0  0
  -18.1395  -30.4191   22.4326 C   0  0  0  0  0  0  0  0  0  0  0  0
  -25.0892  -26.9445   23.1437 C   0  0  0  0  0  0  0  0  0  0  0  0
  -18.9747  -29.2858   22.4118 C   0  0  0  0  0  0  0  0  0  0  0  0
  -25.8408  -27.6392   22.1853 C   0  0  0  0  0  0  0  0  0  0  0  0
  -31.1444  -22.1714   17.6467 C   0  0  0  0  0  0  0  0  0  0  0  0
  -23.5527  -13.6438   21.0854 C   0  0  0  0  0  0  0  0  0  0  0  0
  -26.9216  -25.5586   21.5427 C   0  0  0  0  0  0  0  0  0  0  0  0
  -23.1363  -11.3491   21.3737 C   0  0  0  0  0  0  0  0  0  0  0  0
  -24.0165   -8.7109   21.1544 C   0  0  0  0  0  0  0  0  0  0  0  0
  -22.4364  -10.4444   20.5754 C   0  0  0  0  0  0  0  0  0  0  0  0
  -26.1999  -16.7033   19.8485 C   0  0  0  0  0  0  0  0  0  0  0  0
  -27.9688  -17.9660   19.5148 C   0  0  0  0  0  0  0  0  0  0  0  0
  -30.0773  -24.6759   20.0872 C   0  0  0  0  0  0  0  0  0  0  0  0
  -31.4892  -24.9618   20.0374 C   0  0  0  0  0  0  0  0  0  0  0  0
  -29.7552  -23.5521   19.1642 C   0  0  0  0  0  0  0  0  0  0  0  0
  -32.1724  -25.8920   20.7131 C   0  0  0  0  0  0  0  0  0  0  0  0
  -29.1229  -25.2625   20.8097 C   0  0  0  0  0  0  0  0  0  1  0  0
  -29.1855  -20.4985   14.9255 C   0  0  0  0  0  0  0  0  0  0  0  0
  -28.4145  -15.9414   20.9115 C   0  0  0  0  0  0  0  0  0  0  0  0
  -27.8985  -21.2296   14.9722 C   0  0  0  0  0  0  0  0  0  0  0  0
  -22.6361  -28.7954   22.3312 C   0  0  0  0  0  0  0  0  0  0  0  0
  -24.7055  -31.1873   23.0515 C   0  0  0  0  0  0  0  0  0  0  0  0
  -27.9426  -32.2151   23.3859 C   0  0  0  0  0  0  0  0  0  0  0  0
  -18.4685  -31.6617   21.6438 C   0  0  0  0  0  0  0  0  0  0  0  0
  -24.1236  -27.6786   24.0331 C   0  0  0  0  0  0  0  0  0  0  0  0
  -25.6920  -29.1245   21.9851 C   0  0  0  0  0  0  0  0  0  0  0  0
  -32.0974  -24.0024   19.0596 C   0  0  0  0  0  0  0  0  0  0  0  0
  -19.9306  -31.7397   21.2119 C   0  0  0  0  0  0  0  0  0  0  0  0
  -25.2669  -21.6542   17.3704 C   0  0  0  0  0  0  0  0  0  0  0  0
  -20.3853  -30.4078   20.6236 C   0  0  0  0  0  0  0  0  0  0  0  0
  -25.3641  -20.3930   18.2282 C   0  0  0  0  0  0  0  0  0  0  0  0
  -25.6273  -21.3693   15.9160 C   0  0  0  0  0  0  0  0  0  0  0  0
  -27.0746  -19.4750   16.5982 C   0  0  0  0  0  0  0  0  0  0  0  0
  -20.2898  -29.2844   21.6630 C   0  0  1  0  0  0  0  0  0  0  0  0
  -23.6395  -28.9945   23.4318 C   0  0  1  0  0  0  0  0  0  0  0  0
  -26.7446  -19.7291   18.0794 C   0  0  2  0  0  0  0  0  0  0  0  0
  -29.3195  -34.2359   23.9496 C   0  0  0  0  0  0  0  0  0  0  0  0
  -24.1363  -32.3436   20.2858 C   0  0  0  0  0  0  0  0  0  0  0  0
  -26.1860  -33.7598   20.5325 C   0  0  0  0  0  0  0  0  0  0  0  0
  -24.2798  -34.0410   22.1168 C   0  0  0  0  0  0  0  0  0  0  0  0
  -29.1599  -30.8761   25.7277 C   0  0  0  0  0  0  0  0  0  0  0  0
  -25.7341  -31.9794   22.2809 C   0  0  1  0  0  0  0  0  0  0  0  0
  -28.6465  -32.9837   24.4897 C   0  0  2  0  0  0  0  0  0  0  0  0
  -25.0857  -33.0026   21.3062 C   0  0  0  0  0  0  0  0  0  0  0  0
  -25.7538  -17.7114   19.0943 N   0  0  0  0  0  0  0  0  0  0  0  0
  -26.8526  -18.4625   18.9083 N   0  0  0  0  0  0  0  0  0  0  0  0
  -30.9811  -23.1895   18.5807 N   0  0  0  0  0  0  0  0  0  0  0  0
  -26.9260  -20.7069   15.8132 N   0  0  0  0  0  0  0  0  0  0  0  0
  -24.7307  -29.7967   22.8748 N   0  0  0  0  0  0  0  0  0  0  0  0
  -29.1595  -18.5962   19.4289 N   0  0  0  0  0  0  0  0  0  0  0  0
  -27.8459  -14.7964   21.4859 N   0  0  0  0  0  0  0  0  0  0  0  0
  -21.3999  -29.3566   22.5887 N   0  0  0  0  0  0  0  0  0  0  0  0
  -26.6171  -32.5786   23.2757 N   0  0  0  0  0  0  0  0  0  0  0  0
  -29.6862  -32.1314   25.1326 N   0  3  0  0  0  0  0  0  0  0  0  0
  -28.6495  -23.0722   18.9780 O   0  0  0  0  0  0  0  0  0  0  0  0
  -29.2417  -19.6134   14.0668 O   0  0  0  0  0  0  0  0  0  0  0  0
  -29.6312  -16.1825   21.0987 O   0  0  0  0  0  0  0  0  0  0  0  0
  -27.8297  -22.2224   14.2594 O   0  0  0  0  0  0  0  0  0  0  0  0
  -22.9600  -28.1797   21.3224 O   0  0  0  0  0  0  0  0  0  0  0  0
  -23.9138  -31.7801   23.7886 O   0  0  0  0  0  0  0  0  0  0  0  0
  -28.5126  -31.3788   22.6887 O   0  0  0  0  0  0  0  0  0  0  0  0
  -22.7012  -12.6592   21.4829 O   0  0  0  0  0  0  0  0  0  0  0  0
  -27.8097  -24.8876   20.7598 O   0  0  0  0  0  0  0  0  0  1  0  0
  -24.4401   -7.4447   21.0480 F   0  0  0  0  0  0  0  0  0  0  0  0
  -21.3411  -10.8370   19.9105 F   0  0  0  0  0  0  0  0  0  0  0  0
  1  2  1  0  0  0  0
  1  7  2  0  0  0  0
  2  8  2  0  0  0  0
  3  6  1  0  0  0  0
  3 10  2  0  0  0  0
  4 11  2  0  0  0  0
  4 19  1  0  0  0  0
  5 12  1  0  0  0  0
  5 19  2  0  0  0  0
  6 20  2  0  0  0  0
  7 22  1  0  0  0  0
  8 24  1  0  0  0  0
  9 13  2  0  0  0  0
  9 23  1  0  0  0  0
 10 26  1  0  0  0  0
 11 27  1  0  0  0  0
 12 27  2  0  0  0  0
 13 28  1  0  0  0  0
 14 15  2  0  0  0  0
 14 29  1  0  0  0  0
 15 30  1  0  0  0  0
 16 20  1  0  0  0  0
 16 26  2  0  0  0  0
 17 25  1  0  0  0  0
 17 28  2  0  0  0  0
 18 30  2  0  0  0  0
 18 31  1  0  0  0  0
 19 32  1  0  0  0  0
 20 39  1  0  0  0  0
 21 32  1  0  0  0  0
 21 33  2  0  0  0  0
 21 40  1  0  0  0  0
 22 24  2  0  0  0  0
 22 45  1  0  0  0  0
 23 25  2  0  0  0  0
 23 46  1  0  0  0  0
 24 55  1  0  0  0  0
 25 47  1  0  0  0  0
 26 68  1  0  0  0  0
 27 83  1  0  0  0  0
 28 84  1  0  0  0  0
 29 31  2  0  0  0  0
 29 83  1  0  0  0  0
 30 85  1  0  0  0  0
 31 86  1  0  0  0  0
 32 66  2  0  0  0  0
 33 67  1  0  0  0  0
 33 71  1  0  0  0  0
 34 35  1  0  0  0  0
 34 36  1  0  0  0  0
 34 38  2  0  0  0  0
 35 37  2  0  0  0  0
 35 48  1  0  0  0  0
 36 68  1  0  0  0  0
 36 76  2  0  0  0  0
 38 84  1  0  0  0  0
 39 41  1  0  0  0  0
 39 77  2  0  0  0  0
 40 72  1  0  0  0  0
 40 78  2  0  0  0  0
 41 69  1  0  0  0  0
 41 79  2  0  0  0  0
 42 56  1  0  0  0  0
 42 73  1  0  0  0  0
 42 80  2  0  0  0  0
 43 63  1  0  0  0  0
 43 70  1  0  0  0  0
 43 81  2  0  0  0  0
 44 64  1  0  0  0  0
 44 74  1  0  0  0  0
 44 82  2  0  0  0  0
 45 49  1  0  0  0  0
 46 56  1  0  0  0  0
 47 70  1  0  0  0  0
 48 68  1  0  0  0  0
 49 51  1  0  0  0  0
 50 52  1  0  0  0  0
 50 53  1  0  0  0  0
 51 55  1  0  0  0  0
 52 57  1  0  0  0  0
 53 69  1  0  0  0  0
 54 57  1  0  0  0  0
 54 69  1  0  0  0  0
 55 73  1  0  0  0  0
 56 70  1  0  0  0  0
 57 67  1  0  0  0  0
 58 64  1  0  0  0  0
 59 65  1  0  0  0  0
 60 65  1  0  0  0  0
 61 65  1  0  0  0  0
 62 75  1  0  0  0  0
 63 65  1  0  0  0  0
 63 74  1  0  0  0  0
 64 75  1  0  0  0  0
 66 67  1  0  0  0  0
M  CHG  1  75   1
M  ISO  4  38 101  39 100  41 100  84 101
M  END
> <Batch ID>
0082

> <Smiles>
C=C1CN(c2cccc([100C:0](=O)[100C:0](=O)N3CCCC(n4nc(-c5ccc(Oc6ccc(F)cc6F)cc5)c(C(N)=O)c4N)C3)c2)C(=O)C1=[101CH:1][101O:1]c1ccc2c(c1)CN(C(=O)C(NC(=O)C(C)NC)C(C)(C)C)C(C(=O)NC1CCCc3ccccc31)C2

> <Shape>
0.237

> <Color>
0.079

> <Negative vol penalty>
0.000

$$$$

  -OEChem-04052300073D

 76 83  0     1  0  0  0  0  0999 V2000
  -16.5123  -30.5829   23.4347 C   0  0  0  0  0  0  0  0  0  0  0  0
  -17.6738  -31.1208   22.8897 C   0  0  0  0  0  0  0  0  0  0  0  0
  -25.7932  -15.9225   21.8343 C   0  0  0  0  0  0  0  0  0  0  0  0
  -25.6305  -16.4033   19.4722 C   0  0  0  0  0  0  0  0  0  0  0  0
  -16.5664  -29.3821   24.1412 C   0  0  0  0  0  0  0  0  0  0  0  0
  -18.8903  -30.4588   23.0518 C   0  0  0  0  0  0  0  0  0  0  0  0
  -25.0986  -29.2814   19.6774 C   0  0  0  0  0  0  0  0  0  0  0  0
  -24.4946  -15.4136   21.8202 C   0  0  0  0  0  0  0  0  0  0  0  0
  -24.3319  -15.8942   19.4580 C   0  0  0  0  0  0  0  0  0  0  0  0
  -26.4736  -29.3760   19.8876 C   0  0  0  0  0  0  0  0  0  0  0  0
  -21.3534  -13.6562   22.3297 C   0  0  0  0  0  0  0  0  0  0  0  0
  -21.1214  -12.4524   22.9950 C   0  0  0  0  0  0  0  0  0  0  0  0
  -26.4335  -27.2678   21.0594 C   0  0  0  0  0  0  0  0  0  0  0  0
  -22.7169  -11.3491   21.5548 C   0  0  0  0  0  0  0  0  0  0  0  0
  -26.3611  -16.4174   20.6603 C   0  0  0  0  0  0  0  0  0  0  0  0
  -28.8966  -16.2340   20.4473 C   0  0  0  0  0  0  0  0  0  0  0  0
  -17.7826  -28.7001   24.3038 C   0  0  0  0  0  0  0  0  0  0  0  0
  -24.3777  -28.1827   20.1669 C   0  0  0  0  0  0  0  0  0  0  0  0
  -18.9609  -29.2484   23.7623 C   0  0  0  0  0  0  0  0  0  0  0  0
  -25.0498  -27.1603   20.8518 C   0  0  0  0  0  0  0  0  0  0  0  0
  -23.7639  -15.3994   20.6321 C   0  0  0  0  0  0  0  0  0  0  0  0
  -27.1408  -28.3706   20.5812 C   0  0  0  0  0  0  0  0  0  0  0  0
  -22.2671  -13.7065   21.2769 C   0  0  0  0  0  0  0  0  0  0  0  0
  -21.8032  -11.2988   22.6075 C   0  0  0  0  0  0  0  0  0  0  0  0
  -22.9489  -12.5529   20.8895 C   0  0  0  0  0  0  0  0  0  0  0  0
  -27.7023  -16.9439   20.6743 C   0  0  0  0  0  0  0  0  0  0  0  0
  -29.8861  -17.1785   20.5705 C   0  0  0  0  0  0  0  0  0  0  0  0
  -30.6047  -27.4413   20.4146 C   0  0  0  0  0  0  0  0  0  0  0  0
  -29.2749  -27.4631   20.2764 C   0  0  0  0  0  0  0  0  0  1  0  0
  -29.0939  -14.8450   20.1515 C   0  0  0  0  0  0  0  0  0  0  0  0
  -22.0068  -27.8034   22.2498 C   0  0  0  0  0  0  0  0  0  0  0  0
  -22.1242  -24.7261   21.2306 C   0  0  0  0  0  0  0  0  0  0  0  0
  -30.8640  -25.2236   19.2213 C   0  0  0  0  0  0  0  0  0  0  0  0
  -23.9449  -22.2103   19.8156 C   0  0  0  0  0  0  0  0  0  0  0  0
  -29.8676  -23.0289   19.7852 C   0  0  0  0  0  0  0  0  0  0  0  0
  -17.7992  -27.4293   25.1159 C   0  0  0  0  0  0  0  0  0  0  0  0
  -22.8993  -28.0824   19.9085 C   0  0  0  0  0  0  0  0  0  0  0  0
  -24.3253  -25.9502   21.3800 C   0  0  0  0  0  0  0  0  0  0  0  0
  -19.0655  -26.5991   24.9219 C   0  0  0  0  0  0  0  0  0  0  0  0
  -30.8711  -21.3015   22.7967 C   0  0  0  0  0  0  0  0  0  0  0  0
  -20.3034  -27.4866   25.0030 C   0  0  0  0  0  0  0  0  0  0  0  0
  -30.2826  -19.9089   22.5601 C   0  0  0  0  0  0  0  0  0  0  0  0
  -29.9393  -22.3889   22.2712 C   0  0  0  0  0  0  0  0  0  0  0  0
  -28.9853  -20.8573   20.5938 C   0  0  0  0  0  0  0  0  0  0  0  0
  -20.2953  -28.5473   23.8956 C   0  0  1  0  0  0  0  0  0  0  0  0
  -22.1803  -27.1707   20.8981 C   0  0  1  0  0  0  0  0  0  0  0  0
  -29.8858  -19.7088   21.0848 C   0  0  2  0  0  0  0  0  0  0  0  0
  -23.7824  -19.7974   19.1456 C   0  0  0  0  0  0  0  0  0  0  0  0
  -22.3869  -23.8988   24.1558 C   0  0  0  0  0  0  0  0  0  0  0  0
  -23.1626  -21.6492   23.3774 C   0  0  0  0  0  0  0  0  0  0  0  0
  -20.8727  -22.4478   22.7932 C   0  0  0  0  0  0  0  0  0  0  0  0
  -24.4504  -22.8462   16.9697 C   0  0  0  0  0  0  0  0  0  0  0  0
  -31.5513  -26.4046   19.8885 C   0  0  0  0  0  0  0  0  0  0  0  0
  -22.8762  -23.4876   21.6543 C   0  0  1  0  0  0  0  0  0  0  0  0
  -23.6208  -21.2404   18.6936 C   0  0  2  0  0  0  0  0  0  0  0  0
  -22.3382  -22.8945   22.9870 C   0  0  0  0  0  0  0  0  0  0  0  0
  -27.9118  -18.2393   20.9230 N   0  0  0  0  0  0  0  0  0  0  0  0
  -29.2493  -18.3509   20.8531 N   0  0  0  0  0  0  0  0  0  0  0  0
  -22.8793  -25.9011   21.1075 N   0  0  0  0  0  0  0  0  0  0  0  0
  -29.6249  -22.1504   20.8557 N   0  0  0  0  0  0  0  0  0  0  0  0
  -31.2302  -17.1121   20.4637 N   0  0  0  0  0  0  0  0  0  0  0  0
  -27.9683  -14.0148   20.0609 N   0  0  0  0  0  0  0  0  0  0  0  0
  -20.6882  -27.9615   22.6319 N   0  0  0  0  0  0  0  0  0  0  0  0
  -30.5012  -24.2275   20.1288 N   0  0  0  0  0  0  0  0  0  0  0  0
  -22.8170  -22.5674   20.5237 N   0  0  0  0  0  0  0  0  0  0  0  0
  -24.5238  -21.4727   17.5311 N   0  3  0  0  0  0  0  0  0  0  0  0
  -30.2355  -14.3513   19.9891 O   0  0  0  0  0  0  0  0  0  0  0  0
  -22.9959  -28.1232   22.8987 O   0  0  0  0  0  0  0  0  0  0  0  0
  -20.9128  -24.6522   21.0099 O   0  0  0  0  0  0  0  0  0  0  0  0
  -30.6797  -25.1880   18.0062 O   0  0  0  0  0  0  0  0  0  0  0  0
  -25.0852  -22.6082   20.0435 O   0  0  0  0  0  0  0  0  0  0  0  0
  -29.5737  -22.7561   18.6169 O   0  0  0  0  0  0  0  0  0  0  0  0
  -22.4968  -14.9026   20.6179 O   0  0  0  0  0  0  0  0  0  0  0  0
  -28.4925  -28.4615   20.7899 O   0  0  0  0  0  0  0  0  0  1  0  0
  -21.5815  -10.1432   23.2475 F   0  0  0  0  0  0  0  0  0  0  0  0
  -23.8287  -12.5953   19.8795 F   0  0  0  0  0  0  0  0  0  0  0  0
  1  2  1  0  0  0  0
  1  5  2  0  0  0  0
  2  6  2  0  0  0  0
  3  8  2  0  0  0  0
  3 15  1  0  0  0  0
  4  9  1  0  0  0  0
  4 15  2  0  0  0  0
  5 17  1  0  0  0  0
  6 19  1  0  0  0  0
  7 10  2  0  0  0  0
  7 18  1  0  0  0  0
  8 21  1  0  0  0  0
  9 21  2  0  0  0  0
 10 22  1  0  0  0  0
 11 12  2  0  0  0  0
 11 23  1  0  0  0  0
 12 24  1  0  0  0  0
 13 20  1  0  0  0  0
 13 22  2  0  0  0  0
 14 24  2  0  0  0  0
 14 25  1  0  0  0  0
 15 26  1  0  0  0  0
 16 26  1  0  0  0  0
 16 27  2  0  0  0  0
 16 30  1  0  0  0  0
 17 19  2  0  0  0  0
 17 36  1  0  0  0  0
 18 20  2  0  0  0  0
 18 37  1  0  0  0  0
 19 45  1  0  0  0  0
 20 38  1  0  0  0  0
 21 73  1  0  0  0  0
 22 74  1  0  0  0  0
 23 25  2  0  0  0  0
 23 73  1  0  0  0  0
 24 75  1  0  0  0  0
 25 76  1  0  0  0  0
 26 57  2  0  0  0  0
 27 58  1  0  0  0  0
 27 61  1  0  0  0  0
 28 29  2  0  0  0  0
 28 53  1  0  0  0  0
 29 74  1  0  0  0  0
 30 62  1  0  0  0  0
 30 67  2  0  0  0  0
 31 46  1  0  0  0  0
 31 63  1  0  0  0  0
 31 68  2  0  0  0  0
 32 54  1  0  0  0  0
 32 59  1  0  0  0  0
 32 69  2  0  0  0  0
 33 53  1  0  0  0  0
 33 64  1  0  0  0  0
 33 70  2  0  0  0  0
 34 55  1  0  0  0  0
 34 65  1  0  0  0  0
 34 71  2  0  0  0  0
 35 60  1  0  0  0  0
 35 64  1  0  0  0  0
 35 72  2  0  0  0  0
 36 39  1  0  0  0  0
 37 46  1  0  0  0  0
 38 59  1  0  0  0  0
 39 41  1  0  0  0  0
 40 42  1  0  0  0  0
 40 43  1  0  0  0  0
 41 45  1  0  0  0  0
 42 47  1  0  0  0  0
 43 60  1  0  0  0  0
 44 47  1  0  0  0  0
 44 60  1  0  0  0  0
 45 63  1  0  0  0  0
 46 59  1  0  0  0  0
 47 58  1  0  0  0  0
 48 55  1  0  0  0  0
 49 56  1  0  0  0  0
 50 56  1  0  0  0  0
 51 56  1  0  0  0  0
 52 66  1  0  0  0  0
 54 56  1  0  0  0  0
 54 65  1  0  0  0  0
 55 66  1  0  0  0  0
 57 58  1  0  0  0  0
M  CHG  1  66   1
M  ISO  4  29 101  35 100  64 100  74 101
M  END
> <Batch ID>
0082

> <Smiles>
CNC(C)C(=O)NC(C(=O)N1Cc2cc([101O:1][101CH:1]=CCC(=O)[100NH:0][100C:0](=O)N3CCCC(n4nc(-c5ccc(Oc6ccc(F)cc6F)cc5)c(C(N)=O)c4N)C3)ccc2CC1C(=O)NC1CCCc2ccccc21)C(C)(C)C

> <Shape>
0.256

> <Color>
0.084

> <Negative vol penalty>
0.000

$$$$

  -OEChem-04052300073D

 88 97  0     1  0  0  0  0  0999 V2000
  -29.2476  -37.4668   25.2514 C   0  0  0  0  0  0  0  0  0  0  0  0
  -29.5652  -36.2245   24.7117 C   0  0  0  0  0  0  0  0  0  0  0  0
  -24.1102   -9.6167   22.1054 C   0  0  0  0  0  0  0  0  0  0  0  0
  -24.5738  -11.2294   23.8436 C   0  0  0  0  0  0  0  0  0  0  0  0
  -28.1090  -20.5994   19.5271 C   0  0  0  0  0  0  0  0  0  0  0  0
  -30.4983  -20.2846   19.3562 C   0  0  0  0  0  0  0  0  0  0  0  0
  -27.9997  -37.6721   25.8384 C   0  0  0  0  0  0  0  0  0  0  0  0
  -28.6354  -35.1865   24.7597 C   0  0  0  0  0  0  0  0  0  0  0  0
  -27.7703  -30.8217   20.5517 C   0  0  0  0  0  0  0  0  0  0  0  0
  -27.9186  -19.2234   19.4003 C   0  0  0  0  0  0  0  0  0  0  0  0
  -30.3079  -18.9086   19.2295 C   0  0  0  0  0  0  0  0  0  0  0  0
  -23.7245   -8.6868   23.0709 C   0  0  0  0  0  0  0  0  0  0  0  0
  -24.1880  -10.2995   24.8092 C   0  0  0  0  0  0  0  0  0  0  0  0
  -28.2097  -29.5014   20.4658 C   0  0  0  0  0  0  0  0  0  0  0  0
  -21.0103   -8.0693   24.9904 C   0  0  0  0  0  0  0  0  0  0  0  0
  -19.8400   -7.3455   24.7623 C   0  0  0  0  0  0  0  0  0  0  0  0
  -26.1205  -28.7511   21.4100 C   0  0  0  0  0  0  0  0  0  0  0  0
  -21.1008   -5.2857   24.8294 C   0  0  0  0  0  0  0  0  0  0  0  0
  -24.5349  -10.8879   22.4918 C   0  0  0  0  0  0  0  0  0  0  0  0
  -29.3988  -21.1300   19.5050 C   0  0  0  0  0  0  0  0  0  0  0  0
  -24.1129  -12.7880   20.8427 C   0  0  0  0  0  0  0  0  0  0  0  0
  -27.0506  -36.6389   25.8849 C   0  0  0  0  0  0  0  0  0  0  0  0
  -26.5049  -31.1179   21.0784 C   0  0  0  0  0  0  0  0  0  0  0  0
  -27.3741  -35.3778   25.3490 C   0  0  0  0  0  0  0  0  0  0  0  0
  -25.6664  -30.0758   21.4991 C   0  0  0  0  0  0  0  0  0  0  0  0
  -29.0181  -18.3780   19.2515 C   0  0  0  0  0  0  0  0  0  0  0  0
  -23.7634   -9.0283   24.4228 C   0  0  0  0  0  0  0  0  0  0  0  0
  -27.3859  -28.4660   20.8976 C   0  0  0  0  0  0  0  0  0  0  0  0
  -22.2259   -7.4013   25.1380 C   0  0  0  0  0  0  0  0  0  0  0  0
  -19.8852   -5.9537   24.6818 C   0  0  0  0  0  0  0  0  0  0  0  0
  -22.2712   -6.0095   25.0575 C   0  0  0  0  0  0  0  0  0  0  0  0
  -24.9340  -11.8487   21.4949 C   0  0  0  0  0  0  0  0  0  0  0  0
  -24.9625  -13.4575   19.9962 C   0  0  0  0  0  0  0  0  0  0  0  0
  -28.3102  -25.1734   22.0096 C   0  0  0  0  0  0  0  0  0  0  0  0
  -28.4100  -24.3910   23.2327 C   0  0  0  0  0  0  0  0  0  0  0  0
  -28.7449  -24.5971   20.6981 C   0  0  0  0  0  0  0  0  0  0  0  0
  -27.6418  -24.5731   24.3195 C   0  0  0  0  0  0  0  0  0  0  0  0
  -27.9016  -26.4533   21.9718 C   0  0  0  0  0  0  0  0  0  1  0  0
  -29.6001  -22.5839   19.6389 C   0  0  0  0  0  0  0  0  0  0  0  0
  -22.7079  -13.0335   20.9891 C   0  0  0  0  0  0  0  0  0  0  0  0
  -25.4469  -32.7676   23.5810 C   0  0  0  0  0  0  0  0  0  0  0  0
  -22.5454  -32.1480   22.2697 C   0  0  0  0  0  0  0  0  0  0  0  0
  -20.6415  -30.1550   20.2571 C   0  0  0  0  0  0  0  0  0  0  0  0
  -29.8068  -16.0024   18.9675 C   0  0  0  0  0  0  0  0  0  0  0  0
  -25.7324  -36.8944   26.5719 C   0  0  0  0  0  0  0  0  0  0  0  0
  -26.0351  -32.5455   21.1395 C   0  0  0  0  0  0  0  0  0  0  0  0
  -24.2910  -30.3393   22.0535 C   0  0  0  0  0  0  0  0  0  0  0  0
  -29.4281  -23.2915   23.1777 C   0  0  0  0  0  0  0  0  0  0  0  0
  -24.6646  -35.8528   26.2477 C   0  0  0  0  0  0  0  0  0  0  0  0
  -29.7393  -12.4564   18.6538 C   0  0  0  0  0  0  0  0  0  0  0  0
  -25.2406  -34.4449   26.3606 C   0  0  0  0  0  0  0  0  0  0  0  0
  -28.4156  -12.0595   19.3114 C   0  0  0  0  0  0  0  0  0  0  0  0
  -29.1235  -22.4091   21.9848 C   0  0  0  0  0  0  0  0  0  0  0  0
  -30.4042  -13.6256   19.3782 C   0  0  0  0  0  0  0  0  0  0  0  0
  -28.2269  -14.4086   20.2241 C   0  0  0  0  0  0  0  0  0  0  0  0
  -26.3830  -34.2342   25.3596 C   0  0  1  0  0  0  0  0  0  0  0  0
  -24.9318  -32.7679   22.1695 C   0  0  1  0  0  0  0  0  0  0  0  0
  -27.4880  -13.2772   19.4908 C   0  0  2  0  0  0  0  0  0  0  0  0
  -18.2957  -29.8784   19.4098 C   0  0  0  0  0  0  0  0  0  0  0  0
  -21.7050  -31.0124   24.9741 C   0  0  0  0  0  0  0  0  0  0  0  0
  -19.7637  -29.9180   23.8330 C   0  0  0  0  0  0  0  0  0  0  0  0
  -19.9638  -32.4045   23.8406 C   0  0  0  0  0  0  0  0  0  0  0  0
  -21.4930  -30.5025   17.4441 C   0  0  0  0  0  0  0  0  0  0  0  0
  -21.5287  -31.0395   22.3984 C   0  0  1  0  0  0  0  0  0  0  0  0
  -19.6637  -30.4877   19.1447 C   0  0  2  0  0  0  0  0  0  0  0  0
  -20.7669  -31.0884   23.7529 C   0  0  0  0  0  0  0  0  0  0  0  0
  -26.2074  -11.9126   21.0968 N   0  0  0  0  0  0  0  0  0  0  0  0
  -26.1928  -12.9000   20.1852 N   0  0  0  0  0  0  0  0  0  0  0  0
  -29.1737  -23.2055   20.7383 N   0  0  0  0  0  0  0  0  0  0  0  0
  -23.8795  -31.7521   22.0988 N   0  0  0  0  0  0  0  0  0  0  0  0
  -29.4676  -14.7440   19.5078 N   0  0  0  0  0  0  0  0  0  0  0  0
  -24.7696  -14.4627   19.1160 N   0  0  0  0  0  0  0  0  0  0  0  0
  -21.9853  -12.2547   21.9032 N   0  0  0  0  0  0  0  0  0  0  0  0
  -28.8248  -16.9803   19.1227 N   0  0  0  0  0  0  0  0  0  0  0  0
  -25.8556  -34.0086   24.0310 N   0  0  0  0  0  0  0  0  0  0  0  0
  -20.6676  -31.1370   21.2247 N   0  0  0  0  0  0  0  0  0  0  0  0
  -30.2056  -23.2524   18.6617 N   0  3  0  0  0  0  0  0  0  0  0  0
  -20.1653  -29.9674   17.8413 N   0  3  0  0  0  0  0  0  0  0  0  0
  -28.7585  -25.2182   19.6435 O   0  0  0  0  0  0  0  0  0  0  0  0
  -22.1078  -13.9061   20.3168 O   0  0  0  0  0  0  0  0  0  0  0  0
  -25.4703  -31.7195   24.2154 O   0  0  0  0  0  0  0  0  0  0  0  0
  -22.1687  -33.3219   22.3118 O   0  0  0  0  0  0  0  0  0  0  0  0
  -21.3122  -29.1252   20.2686 O   0  0  0  0  0  0  0  0  0  0  0  0
  -30.8775  -16.1910   18.3843 O   0  0  0  0  0  0  0  0  0  0  0  0
  -23.3868   -8.1213   25.3652 O   0  0  0  0  0  0  0  0  0  0  0  0
  -27.8126  -27.1764   20.8155 O   0  0  0  0  0  0  0  0  0  1  0  0
  -18.7610   -5.2587   24.4643 F   0  0  0  0  0  0  0  0  0  0  0  0
  -23.4359   -5.3621   25.1996 F   0  0  0  0  0  0  0  0  0  0  0  0
  1  2  1  0  0  0  0
  1  7  2  0  0  0  0
  2  8  2  0  0  0  0
  3 12  2  0  0  0  0
  3 19  1  0  0  0  0
  4 13  1  0  0  0  0
  4 19  2  0  0  0  0
  5 10  2  0  0  0  0
  5 20  1  0  0  0  0
  6 11  1  0  0  0  0
  6 20  2  0  0  0  0
  7 22  1  0  0  0  0
  8 24  1  0  0  0  0
  9 14  2  0  0  0  0
  9 23  1  0  0  0  0
 10 26  1  0  0  0  0
 11 26  2  0  0  0  0
 12 27  1  0  0  0  0
 13 27  2  0  0  0  0
 14 28  1  0  0  0  0
 15 16  2  0  0  0  0
 15 29  1  0  0  0  0
 16 30  1  0  0  0  0
 17 25  1  0  0  0  0
 17 28  2  0  0  0  0
 18 30  2  0  0  0  0
 18 31  1  0  0  0  0
 19 32  1  0  0  0  0
 20 39  1  0  0  0  0
 21 32  1  0  0  0  0
 21 33  2  0  0  0  0
 21 40  1  0  0  0  0
 22 24  2  0  0  0  0
 22 45  1  0  0  0  0
 23 25  2  0  0  0  0
 23 46  1  0  0  0  0
 24 56  1  0  0  0  0
 25 47  1  0  0  0  0
 26 74  1  0  0  0  0
 27 85  1  0  0  0  0
 28 86  1  0  0  0  0
 29 31  2  0  0  0  0
 29 85  1  0  0  0  0
 30 87  1  0  0  0  0
 31 88  1  0  0  0  0
 32 67  2  0  0  0  0
 33 68  1  0  0  0  0
 33 72  1  0  0  0  0
 34 35  1  0  0  0  0
 34 36  1  0  0  0  0
 34 38  2  0  0  0  0
 35 37  2  0  0  0  0
 35 48  1  0  0  0  0
 36 69  1  0  0  0  0
 36 79  2  0  0  0  0
 38 86  1  0  0  0  0
 39 69  1  0  0  0  0
 39 77  2  0  0  0  0
 40 73  1  0  0  0  0
 40 80  2  0  0  0  0
 41 57  1  0  0  0  0
 41 75  1  0  0  0  0
 41 81  2  0  0  0  0
 42 64  1  0  0  0  0
 42 70  1  0  0  0  0
 42 82  2  0  0  0  0
 43 65  1  0  0  0  0
 43 76  1  0  0  0  0
 43 83  2  0  0  0  0
 44 71  1  0  0  0  0
 44 74  1  0  0  0  0
 44 84  2  0  0  0  0
 45 49  1  0  0  0  0
 46 57  1  0  0  0  0
 47 70  1  0  0  0  0
 48 53  1  0  0  0  0
 49 51  1  0  0  0  0
 50 52  1  0  0  0  0
 50 54  1  0  0  0  0
 51 56  1  0  0  0  0
 52 58  1  0  0  0  0
 53 69  1  0  0  0  0
 54 71  1  0  0  0  0
 55 58  1  0  0  0  0
 55 71  1  0  0  0  0
 56 75  1  0  0  0  0
 57 70  1  0  0  0  0
 58 68  1  0  0  0  0
 59 65  1  0  0  0  0
 60 66  1  0  0  0  0
 61 66  1  0  0  0  0
 62 66  1  0  0  0  0
 63 78  1  0  0  0  0
 64 66  1  0  0  0  0
 64 76  1  0  0  0  0
 65 78  1  0  0  0  0
 67 68  1  0  0  0  0
M  CHG  2  77   1  78   1
M  ISO  4  38 101  44 100  74 100  86 101
M  END
> <Batch ID>
0082

> <Smiles>
C=C1CCN(C(=N)c2ccc([100NH:0][100C:0](=O)N3CCCC(n4nc(-c5ccc(Oc6ccc(F)cc6F)cc5)c(C(N)=O)c4N)C3)cc2)C(=O)C1=[101CH:1][101O:1]c1ccc2c(c1)CN(C(=O)C(NC(=O)C(C)NC)C(C)(C)C)C(C(=O)NC1CCCc3ccccc31)C2

> <Shape>
0.310

> <Color>
0.099

> <Negative vol penalty>
0.000

$$$$

  -OEChem-04052300073D

 88 96  0     1  0  0  0  0  0999 V2000
  -28.8608  -37.2013   20.6866 C   0  0  0  0  0  0  0  0  0  0  0  0
  -29.1826  -35.8517   20.5846 C   0  0  0  0  0  0  0  0  0  0  0  0
  -23.6247   -8.7427   20.2127 C   0  0  0  0  0  0  0  0  0  0  0  0
  -23.0164  -10.6540   21.5596 C   0  0  0  0  0  0  0  0  0  0  0  0
  -30.5223  -19.4286   19.5841 C   0  0  0  0  0  0  0  0  0  0  0  0
  -27.7979  -37.6042   21.4939 C   0  0  0  0  0  0  0  0  0  0  0  0
  -28.4422  -34.9042   21.2908 C   0  0  0  0  0  0  0  0  0  0  0  0
  -27.0666  -29.2159   19.4864 C   0  0  0  0  0  0  0  0  0  0  0  0
  -30.4253  -18.0382   19.6372 C   0  0  0  0  0  0  0  0  0  0  0  0
  -22.7460   -7.9459   20.9465 C   0  0  0  0  0  0  0  0  0  0  0  0
  -22.1376   -9.8572   22.2934 C   0  0  0  0  0  0  0  0  0  0  0  0
  -27.6354  -27.9765   19.7765 C   0  0  0  0  0  0  0  0  0  0  0  0
  -22.7109   -6.3862   23.9449 C   0  0  0  0  0  0  0  0  0  0  0  0
  -23.1652   -5.1346   24.3604 C   0  0  0  0  0  0  0  0  0  0  0  0
  -28.4736  -19.5229   18.3070 C   0  0  0  0  0  0  0  0  0  0  0  0
  -25.9880  -27.6317   21.5046 C   0  0  0  0  0  0  0  0  0  0  0  0
  -21.3855   -4.0757   23.1160 C   0  0  0  0  0  0  0  0  0  0  0  0
  -23.7600  -10.0968   20.5193 C   0  0  0  0  0  0  0  0  0  0  0  0
  -29.5464  -20.1710   18.9191 C   0  0  0  0  0  0  0  0  0  0  0  0
  -24.3798  -11.6517   18.5943 C   0  0  0  0  0  0  0  0  0  0  0  0
  -27.0381  -36.6604   22.2028 C   0  0  0  0  0  0  0  0  0  0  0  0
  -25.9591  -29.6780   20.2118 C   0  0  0  0  0  0  0  0  0  0  0  0
  -27.3690  -35.2951   22.1094 C   0  0  0  0  0  0  0  0  0  0  0  0
  -25.4054  -28.8762   21.2201 C   0  0  0  0  0  0  0  0  0  0  0  0
  -29.3525  -17.3900   19.0251 C   0  0  0  0  0  0  0  0  0  0  0  0
  -22.0023   -8.5031   21.9868 C   0  0  0  0  0  0  0  0  0  0  0  0
  -27.0979  -27.1854   20.7876 C   0  0  0  0  0  0  0  0  0  0  0  0
  -21.5938   -6.4826   23.1151 C   0  0  0  0  0  0  0  0  0  0  0  0
  -22.5025   -3.9793   23.9459 C   0  0  0  0  0  0  0  0  0  0  0  0
  -28.3766  -18.1324   18.3600 C   0  0  0  0  0  0  0  0  0  0  0  0
  -20.9312   -5.3273   22.7006 C   0  0  0  0  0  0  0  0  0  0  0  0
  -24.6681  -10.9203   19.7621 C   0  0  0  0  0  0  0  0  0  0  0  0
  -25.5673  -12.2603   18.2685 C   0  0  0  0  0  0  0  0  0  0  0  0
  -29.6500  -21.6519   18.8625 C   0  0  0  0  0  0  0  0  0  0  0  0
  -23.1488  -11.7705   17.8690 C   0  0  0  0  0  0  0  0  0  0  0  0
  -25.3982  -32.1695   22.1043 C   0  0  0  0  0  0  0  0  0  0  0  0
  -31.8142  -24.0685   20.6691 C   0  0  0  0  0  0  0  0  0  0  0  0
  -29.2856  -24.2195   20.7399 C   0  0  0  0  0  0  0  0  0  0  0  0
  -22.3589  -31.0377   22.0416 C   0  0  0  0  0  0  0  0  0  0  0  0
  -20.2652  -28.3819   21.5833 C   0  0  0  0  0  0  0  0  0  0  0  0
  -30.1414  -15.0945   19.6994 C   0  0  0  0  0  0  0  0  0  0  0  0
  -25.9281  -37.1481   23.0999 C   0  0  0  0  0  0  0  0  0  0  0  0
  -25.3407  -31.0056   19.8688 C   0  0  0  0  0  0  0  0  0  0  0  0
  -24.2045  -29.3176   22.0146 C   0  0  0  0  0  0  0  0  0  0  0  0
  -24.9575  -36.0477   23.5212 C   0  0  0  0  0  0  0  0  0  0  0  0
  -30.2376  -11.5568   20.0892 C   0  0  0  0  0  0  0  0  0  0  0  0
  -25.7209  -34.8088   23.9784 C   0  0  0  0  0  0  0  0  0  0  0  0
  -28.7735  -11.1360   19.9428 C   0  0  0  0  0  0  0  0  0  0  0  0
  -30.3739  -12.8901   20.8224 C   0  0  0  0  0  0  0  0  0  0  0  0
  -28.1131  -13.5692   20.1174 C   0  0  0  0  0  0  0  0  0  0  0  0
  -26.5739  -34.2351   22.8405 C   0  0  1  0  0  0  0  0  0  0  0  0
  -24.5313  -31.6021   21.0161 C   0  0  1  0  0  0  0  0  0  0  0  0
  -27.9217  -12.2638   19.3280 C   0  0  2  0  0  0  0  0  0  0  0  0
  -32.5180  -25.3282   20.2320 C   0  0  0  0  0  0  0  0  0  0  0  0
  -17.8354  -27.7571   21.6354 C   0  0  0  0  0  0  0  0  0  0  0  0
  -22.4221  -31.0562   25.0921 C   0  0  0  0  0  0  0  0  0  0  0  0
  -20.4071  -29.5703   25.0734 C   0  0  0  0  0  0  0  0  0  0  0  0
  -20.2766  -31.8583   24.0882 C   0  0  0  0  0  0  0  0  0  0  0  0
  -20.2864  -27.5971   18.7297 C   0  0  0  0  0  0  0  0  0  0  0  0
  -28.7816  -25.5790   20.2973 C   0  0  0  0  0  0  0  0  0  1  0  0
  -30.5015  -23.6823   20.0064 C   0  0  2  0  0  0  0  0  0  0  0  0
  -21.5662  -30.0564   22.8709 C   0  0  1  0  0  0  0  0  0  0  0  0
  -18.9924  -28.2313   20.7698 C   0  0  2  0  0  0  0  0  0  0  0  0
  -21.1918  -30.6276   24.2677 C   0  0  0  0  0  0  0  0  0  0  0  0
  -25.9390  -11.0508   20.1518 N   0  0  0  0  0  0  0  0  0  0  0  0
  -26.4599  -11.8713   19.2236 N   0  0  0  0  0  0  0  0  0  0  0  0
  -23.6395  -30.6262   21.6459 N   0  0  0  0  0  0  0  0  0  0  0  0
  -29.5426  -13.9114   20.1815 N   0  0  0  0  0  0  0  0  0  0  0  0
  -25.9245  -13.0848   17.2611 N   0  0  0  0  0  0  0  0  0  0  0  0
  -22.0253  -11.0787   18.3418 N   0  0  0  0  0  0  0  0  0  0  0  0
  -29.2571  -15.9774   19.0803 N   0  0  0  0  0  0  0  0  0  0  0  0
  -30.3379  -22.2588   19.9077 N   0  0  0  0  0  0  0  0  0  0  0  0
  -25.7466  -33.4930   21.9135 N   0  0  0  0  0  0  0  0  0  0  0  0
  -20.4193  -29.6675   22.0574 N   0  0  0  0  0  0  0  0  0  0  0  0
  -19.1932  -27.2441   19.6717 N   0  3  0  0  0  0  0  0  0  0  0  0
  -29.1206  -22.2553   17.9329 O   0  0  0  0  0  0  0  0  0  0  0  0
  -23.0523  -12.4562   16.8231 O   0  0  0  0  0  0  0  0  0  0  0  0
  -25.7255  -31.4596   23.0481 O   0  0  0  0  0  0  0  0  0  0  0  0
  -32.2784  -23.3833   21.5840 O   0  0  0  0  0  0  0  0  0  0  0  0
  -28.7585  -23.6012   21.6650 O   0  0  0  0  0  0  0  0  0  0  0  0
  -21.8575  -32.1262   21.7495 O   0  0  0  0  0  0  0  0  0  0  0  0
  -21.0430  -27.4512   21.7816 O   0  0  0  0  0  0  0  0  0  0  0  0
  -31.3541  -15.2966   19.8020 O   0  0  0  0  0  0  0  0  0  0  0  0
  -21.1445   -7.7260   22.7028 O   0  0  0  0  0  0  0  0  0  0  0  0
  -27.6515  -25.9755   21.0732 O   0  0  0  0  0  0  0  0  0  1  0  0
  -22.9398   -2.7773   24.3437 F   0  0  0  0  0  0  0  0  0  0  0  0
  -27.3411  -17.5203   17.7675 F   0  0  0  0  0  0  0  0  0  0  0  0
  -19.8582   -5.4135   21.9024 F   0  0  0  0  0  0  0  0  0  0  0  0
  1  2  1  0  0  0  0
  1  6  2  0  0  0  0
  2  7  2  0  0  0  0
  3 10  2  0  0  0  0
  3 18  1  0  0  0  0
  4 11  1  0  0  0  0
  4 18  2  0  0  0  0
  5  9  2  0  0  0  0
  5 19  1  0  0  0  0
  6 21  1  0  0  0  0
  7 23  1  0  0  0  0
  8 12  2  0  0  0  0
  8 22  1  0  0  0  0
  9 25  1  0  0  0  0
 10 26  1  0  0  0  0
 11 26  2  0  0  0  0
 12 27  1  0  0  0  0
 13 14  2  0  0  0  0
 13 28  1  0  0  0  0
 14 29  1  0  0  0  0
 15 19  2  0  0  0  0
 15 30  1  0  0  0  0
 16 24  1  0  0  0  0
 16 27  2  0  0  0  0
 17 29  2  0  0  0  0
 17 31  1  0  0  0  0
 18 32  1  0  0  0  0
 19 34  1  0  0  0  0
 20 32  1  0  0  0  0
 20 33  2  0  0  0  0
 20 35  1  0  0  0  0
 21 23  2  0  0  0  0
 21 42  1  0  0  0  0
 22 24  2  0  0  0  0
 22 43  1  0  0  0  0
 23 51  1  0  0  0  0
 24 44  1  0  0  0  0
 25 30  2  0  0  0  0
 25 71  1  0  0  0  0
 26 84  1  0  0  0  0
 27 85  1  0  0  0  0
 28 31  2  0  0  0  0
 28 84  1  0  0  0  0
 29 86  1  0  0  0  0
 30 87  1  0  0  0  0
 31 88  1  0  0  0  0
 32 65  2  0  0  0  0
 33 66  1  0  0  0  0
 33 69  1  0  0  0  0
 34 72  1  0  0  0  0
 34 76  2  0  0  0  0
 35 70  1  0  0  0  0
 35 77  2  0  0  0  0
 36 52  1  0  0  0  0
 36 73  1  0  0  0  0
 36 78  2  0  0  0  0
 37 54  1  0  0  0  0
 37 61  1  0  0  0  0
 37 79  2  0  0  0  0
 38 60  1  0  0  0  0
 38 61  1  0  0  0  0
 38 80  2  0  0  0  0
 39 62  1  0  0  0  0
 39 67  1  0  0  0  0
 39 81  2  0  0  0  0
 40 63  1  0  0  0  0
 40 74  1  0  0  0  0
 40 82  2  0  0  0  0
 41 68  1  0  0  0  0
 41 71  1  0  0  0  0
 41 83  2  0  0  0  0
 42 45  1  0  0  0  0
 43 52  1  0  0  0  0
 44 67  1  0  0  0  0
 45 47  1  0  0  0  0
 46 48  1  0  0  0  0
 46 49  1  0  0  0  0
 47 51  1  0  0  0  0
 48 53  1  0  0  0  0
 49 68  1  0  0  0  0
 50 53  1  0  0  0  0
 50 68  1  0  0  0  0
 51 73  1  0  0  0  0
 52 67  1  0  0  0  0
 53 66  1  0  0  0  0
 55 63  1  0  0  0  0
 56 64  1  0  0  0  0
 57 64  1  0  0  0  0
 58 64  1  0  0  0  0
 59 75  1  0  0  0  0
 60 85  1  0  0  0  0
 61 72  1  0  0  0  0
 62 64  1  0  0  0  0
 62 74  1  0  0  0  0
 63 75  1  0  0  0  0
 65 66  1  0  0  0  0
M  CHG  1  75   1
M  ISO  4  41 100  60 101  71 100  85 101
M  END
> <Batch ID>
0082

> <Smiles>
CNC(C)C(=O)NC(C(=O)N1Cc2cc([101O:1][101CH2:1]C(=O)C(NC(=O)c3ccc([100NH:0][100C:0](=O)N4CCCC(n5nc(-c6ccc(Oc7ccc(F)cc7F)cc6)c(C(N)=O)c5N)C4)c(F)c3)C(C)=O)ccc2CC1C(=O)NC1CCCc2ccccc21)C(C)(C)C

> <Shape>
0.325

> <Color>
0.113

> <Negative vol penalty>
0.000

$$$$

  -OEChem-04052300073D

 82 91  0     1  0  0  0  0  0999 V2000
  -17.1170  -29.7404   24.5658 C   0  0  0  0  0  0  0  0  0  0  0  0
  -18.2187  -29.0881   25.1101 C   0  0  0  0  0  0  0  0  0  0  0  0
  -24.3725   -9.8670   21.5149 C   0  0  0  0  0  0  0  0  0  0  0  0
  -24.7081  -10.9587   23.6439 C   0  0  0  0  0  0  0  0  0  0  0  0
  -16.9704  -29.8222   23.1817 C   0  0  0  0  0  0  0  0  0  0  0  0
  -19.1739  -28.5163   24.2705 C   0  0  0  0  0  0  0  0  0  0  0  0
  -26.2021  -27.1790   23.9056 C   0  0  0  0  0  0  0  0  0  0  0  0
  -27.9395  -21.2590   22.1922 C   0  0  0  0  0  0  0  0  0  0  0  0
  -27.8435  -19.9602   21.6860 C   0  0  0  0  0  0  0  0  0  0  0  0
  -23.9937   -8.6976   22.1742 C   0  0  0  0  0  0  0  0  0  0  0  0
  -24.3292   -9.7893   24.3032 C   0  0  0  0  0  0  0  0  0  0  0  0
  -27.0877  -26.1282   23.6708 C   0  0  0  0  0  0  0  0  0  0  0  0
  -22.5913   -5.5363   23.2942 C   0  0  0  0  0  0  0  0  0  0  0  0
  -21.4632   -4.8635   22.8248 C   0  0  0  0  0  0  0  0  0  0  0  0
  -26.7713  -26.4004   21.2948 C   0  0  0  0  0  0  0  0  0  0  0  0
  -30.2730  -19.7744   21.5403 C   0  0  0  0  0  0  0  0  0  0  0  0
  -20.1148   -6.8203   23.2607 C   0  0  0  0  0  0  0  0  0  0  0  0
  -24.7298  -10.9975   22.2498 C   0  0  0  0  0  0  0  0  0  0  0  0
  -24.2844  -13.2608   21.1604 C   0  0  0  0  0  0  0  0  0  0  0  0
  -17.9293  -29.2595   22.3247 C   0  0  0  0  0  0  0  0  0  0  0  0
  -25.5849  -27.8424   22.8353 C   0  0  0  0  0  0  0  0  0  0  0  0
  -19.0394  -28.5895   22.8736 C   0  0  0  0  0  0  0  0  0  0  0  0
  -25.8802  -27.4610   21.5187 C   0  0  0  0  0  0  0  0  0  0  0  0
  -29.2080  -21.7753   22.3568 C   0  0  0  0  0  0  0  0  0  0  0  0
  -29.0005  -19.2239   21.3626 C   0  0  0  0  0  0  0  0  0  0  0  0
  -30.3434  -21.0571   22.0413 C   0  0  0  0  0  0  0  0  0  0  0  0
  -23.9720   -8.6588   23.5683 C   0  0  0  0  0  0  0  0  0  0  0  0
  -27.3703  -25.7368   22.3654 C   0  0  0  0  0  0  0  0  0  0  0  0
  -22.4812   -6.8511   23.7470 C   0  0  0  0  0  0  0  0  0  0  0  0
  -20.2250   -5.5055   22.8080 C   0  0  0  0  0  0  0  0  0  0  0  0
  -21.2430   -7.4931   23.7302 C   0  0  0  0  0  0  0  0  0  0  0  0
  -25.1217  -12.2056   21.5693 C   0  0  0  0  0  0  0  0  0  0  0  0
  -25.1333  -14.1619   20.5655 C   0  0  0  0  0  0  0  0  0  0  0  0
  -31.0323  -22.9934   22.7817 C   0  0  0  0  0  0  0  0  0  0  0  0
  -22.8661  -13.4129   21.3054 C   0  0  0  0  0  0  0  0  0  0  0  0
  -22.5808  -28.2442   21.8776 C   0  0  0  0  0  0  0  0  0  0  0  0
  -23.9509  -30.2141   19.6949 C   0  0  0  0  0  0  0  0  0  0  0  0
  -26.7333  -31.0832   17.9201 C   0  0  0  0  0  0  0  0  0  0  0  0
  -29.8981  -17.0415   20.4806 C   0  0  0  0  0  0  0  0  0  0  0  0
  -17.7035  -29.3322   20.8353 C   0  0  0  0  0  0  0  0  0  0  0  0
  -24.6525  -28.9915   23.1046 C   0  0  0  0  0  0  0  0  0  0  0  0
  -25.2596  -28.1541   20.3342 C   0  0  0  0  0  0  0  0  0  0  0  0
  -18.9534  -29.0258   20.0141 C   0  0  0  0  0  0  0  0  0  0  0  0
  -29.9911  -13.7148   19.2150 C   0  0  0  0  0  0  0  0  0  0  0  0
  -19.6493  -27.7774   20.5468 C   0  0  0  0  0  0  0  0  0  0  0  0
  -28.6637  -13.1124   19.6810 C   0  0  0  0  0  0  0  0  0  0  0  0
  -30.5809  -14.6626   20.2578 C   0  0  0  0  0  0  0  0  0  0  0  0
  -28.3450  -15.1169   21.1869 C   0  0  0  0  0  0  0  0  0  0  0  0
  -20.1097  -27.9782   21.9957 C   0  0  1  0  0  0  0  0  0  0  0  0
  -23.6862  -29.2589   21.9547 C   0  0  1  0  0  0  0  0  0  0  0  0
  -27.6799  -14.2055   20.1425 C   0  0  2  0  0  0  0  0  0  0  0  0
  -27.5353  -32.7105   16.1864 C   0  0  0  0  0  0  0  0  0  0  0  0
  -22.5018  -28.6214   17.5331 C   0  0  0  0  0  0  0  0  0  0  0  0
  -24.0441  -29.6418   15.8454 C   0  0  0  0  0  0  0  0  0  0  0  0
  -22.5138  -31.0964   17.1740 C   0  0  0  0  0  0  0  0  0  0  0  0
  -28.7524  -32.2248   19.7583 C   0  0  0  0  0  0  0  0  0  0  0  0
  -28.8136  -24.0812   23.2732 C   0  0  0  0  0  0  0  0  0  1  0  0
  -24.5144  -30.0425   18.3049 C   0  0  1  0  0  0  0  0  0  0  0  0
  -27.3914  -32.4288   17.6739 C   0  0  2  0  0  0  0  0  0  0  0  0
  -23.4039  -29.8360   17.2365 C   0  0  0  0  0  0  0  0  0  0  0  0
  -26.4041  -12.4154   21.2602 N   0  0  0  0  0  0  0  0  0  0  0  0
  -26.3789  -13.6129   20.6506 N   0  0  0  0  0  0  0  0  0  0  0  0
  -29.6442  -22.9993   22.8244 N   0  0  0  0  0  0  0  0  0  0  0  0
  -24.3496  -29.2677   20.6493 N   0  0  0  0  0  0  0  0  0  0  0  0
  -29.5941  -15.6735   20.6440 N   0  0  0  0  0  0  0  0  0  0  0  0
  -24.9283  -15.3624   19.9830 N   0  0  0  0  0  0  0  0  0  0  0  0
  -22.1463  -12.3923   21.9413 N   0  0  0  0  0  0  0  0  0  0  0  0
  -28.8710  -17.9087   20.8513 N   0  0  0  0  0  0  0  0  0  0  0  0
  -21.3158  -28.7771   22.0367 N   0  0  0  0  0  0  0  0  0  0  0  0
  -25.3671  -31.2016   18.0642 N   0  0  0  0  0  0  0  0  0  0  0  0
  -28.7470  -32.4632   18.2920 N   0  3  0  0  0  0  0  0  0  0  0  0
  -31.7838  -23.9012   23.1163 O   0  0  0  0  0  0  0  0  0  0  0  0
  -22.2530  -14.4165   20.8689 O   0  0  0  0  0  0  0  0  0  0  0  0
  -22.8551  -27.0652   21.6864 O   0  0  0  0  0  0  0  0  0  0  0  0
  -23.1907  -31.1575   19.9270 O   0  0  0  0  0  0  0  0  0  0  0  0
  -27.3673  -30.0317   17.9752 O   0  0  0  0  0  0  0  0  0  0  0  0
  -30.9791  -17.4153   20.0184 O   0  0  0  0  0  0  0  0  0  0  0  0
  -31.5100  -21.7665   22.2851 O   0  0  0  0  0  0  0  0  0  0  0  0
  -23.6022   -7.5179   24.2120 O   0  0  0  0  0  0  0  0  0  0  0  0
  -28.2339  -24.7110   22.1334 O   0  0  0  0  0  0  0  0  0  1  0  0
  -19.1421   -4.8598   22.3558 F   0  0  0  0  0  0  0  0  0  0  0  0
  -21.1311   -8.7565   24.1628 F   0  0  0  0  0  0  0  0  0  0  0  0
  1  2  1  0  0  0  0
  1  5  2  0  0  0  0
  2  6  2  0  0  0  0
  3 10  2  0  0  0  0
  3 18  1  0  0  0  0
  4 11  1  0  0  0  0
  4 18  2  0  0  0  0
  5 20  1  0  0  0  0
  6 22  1  0  0  0  0
  7 12  2  0  0  0  0
  7 21  1  0  0  0  0
  8  9  2  0  0  0  0
  8 24  1  0  0  0  0
  9 25  1  0  0  0  0
 10 27  1  0  0  0  0
 11 27  2  0  0  0  0
 12 28  1  0  0  0  0
 13 14  2  0  0  0  0
 13 29  1  0  0  0  0
 14 30  1  0  0  0  0
 15 23  1  0  0  0  0
 15 28  2  0  0  0  0
 16 25  2  0  0  0  0
 16 26  1  0  0  0  0
 17 30  2  0  0  0  0
 17 31  1  0  0  0  0
 18 32  1  0  0  0  0
 19 32  1  0  0  0  0
 19 33  2  0  0  0  0
 19 35  1  0  0  0  0
 20 22  2  0  0  0  0
 20 40  1  0  0  0  0
 21 23  2  0  0  0  0
 21 41  1  0  0  0  0
 22 49  1  0  0  0  0
 23 42  1  0  0  0  0
 24 26  2  0  0  0  0
 24 63  1  0  0  0  0
 25 68  1  0  0  0  0
 26 78  1  0  0  0  0
 27 79  1  0  0  0  0
 28 80  1  0  0  0  0
 29 31  2  0  0  0  0
 29 79  1  0  0  0  0
 30 81  1  0  0  0  0
 31 82  1  0  0  0  0
 32 61  2  0  0  0  0
 33 62  1  0  0  0  0
 33 66  1  0  0  0  0
 34 63  1  0  0  0  0
 34 72  2  0  0  0  0
 34 78  1  0  0  0  0
 35 67  1  0  0  0  0
 35 73  2  0  0  0  0
 36 50  1  0  0  0  0
 36 69  1  0  0  0  0
 36 74  2  0  0  0  0
 37 58  1  0  0  0  0
 37 64  1  0  0  0  0
 37 75  2  0  0  0  0
 38 59  1  0  0  0  0
 38 70  1  0  0  0  0
 38 76  2  0  0  0  0
 39 65  1  0  0  0  0
 39 68  1  0  0  0  0
 39 77  2  0  0  0  0
 40 43  1  0  0  0  0
 41 50  1  0  0  0  0
 42 64  1  0  0  0  0
 43 45  1  0  0  0  0
 44 46  1  0  0  0  0
 44 47  1  0  0  0  0
 45 49  1  0  0  0  0
 46 51  1  0  0  0  0
 47 65  1  0  0  0  0
 48 51  1  0  0  0  0
 48 65  1  0  0  0  0
 49 69  1  0  0  0  0
 50 64  1  0  0  0  0
 51 62  1  0  0  0  0
 52 59  1  0  0  0  0
 53 60  1  0  0  0  0
 54 60  1  0  0  0  0
 55 60  1  0  0  0  0
 56 71  1  0  0  0  0
 57 63  1  0  0  0  0
 57 80  1  0  0  0  0
 58 60  1  0  0  0  0
 58 70  1  0  0  0  0
 59 71  1  0  0  0  0
 61 62  1  0  0  0  0
M  CHG  1  71   1
M  ISO  4  39 100  57 101  68 100  80 101
M  END
> <Batch ID>
0082

> <Smiles>
CNC(C)C(=O)NC(C(=O)N1Cc2cc([101O:1][101CH2:1]n3c(=O)oc4cc([100NH:0][100C:0](=O)N5CCCC(n6nc(-c7ccc(Oc8ccc(F)cc8F)cc7)c(C(N)=O)c6N)C5)ccc43)ccc2CC1C(=O)NC1CCCc2ccccc21)C(C)(C)C

> <Shape>
0.246

> <Color>
0.133

> <Negative vol penalty>
0.000

$$$$

  -OEChem-04052300073D

 87 96  0     1  0  0  0  0  0999 V2000
  -30.7455  -35.5089   19.8413 C   0  0  0  0  0  0  0  0  0  0  0  0
  -30.4826  -34.2009   19.4469 C   0  0  0  0  0  0  0  0  0  0  0  0
  -28.1179  -16.2147   20.2170 C   0  0  0  0  0  0  0  0  0  0  0  0
  -30.1350  -14.9562   20.6464 C   0  0  0  0  0  0  0  0  0  0  0  0
  -30.3569  -35.9455   21.1071 C   0  0  0  0  0  0  0  0  0  0  0  0
  -29.8319  -33.3284   20.3185 C   0  0  0  0  0  0  0  0  0  0  0  0
  -25.8708  -28.9039   18.8222 C   0  0  0  0  0  0  0  0  0  0  0  0
  -27.9220  -23.1553   19.3697 C   0  0  0  0  0  0  0  0  0  0  0  0
  -29.2716  -23.5065   19.3403 C   0  0  0  0  0  0  0  0  0  0  0  0
  -27.4572  -15.0368   19.8681 C   0  0  0  0  0  0  0  0  0  0  0  0
  -29.4744  -13.7783   20.2975 C   0  0  0  0  0  0  0  0  0  0  0  0
  -26.0205  -27.5278   18.6557 C   0  0  0  0  0  0  0  0  0  0  0  0
  -26.0229  -12.4204   21.4586 C   0  0  0  0  0  0  0  0  0  0  0  0
  -24.7427  -12.2180   21.9741 C   0  0  0  0  0  0  0  0  0  0  0  0
  -25.2744  -27.1784   20.9229 C   0  0  0  0  0  0  0  0  0  0  0  0
  -28.0330  -22.9303   21.7727 C   0  0  0  0  0  0  0  0  0  0  0  0
  -23.8554  -12.1124   19.7294 C   0  0  0  0  0  0  0  0  0  0  0  0
  -29.4568  -16.1744   20.6061 C   0  0  0  0  0  0  0  0  0  0  0  0
  -30.2284  -17.9691   22.2465 C   0  0  0  0  0  0  0  0  0  0  0  0
  -29.6924  -35.0808   21.9911 C   0  0  0  0  0  0  0  0  0  0  0  0
  -25.4314  -29.4291   20.0459 C   0  0  0  0  0  0  0  0  0  0  0  0
  -29.4352  -33.7535   21.5979 C   0  0  0  0  0  0  0  0  0  0  0  0
  -25.1174  -28.5613   21.1016 C   0  0  0  0  0  0  0  0  0  0  0  0
  -27.3026  -22.8673   20.5860 C   0  0  0  0  0  0  0  0  0  0  0  0
  -30.0019  -23.5695   20.5270 C   0  0  0  0  0  0  0  0  0  0  0  0
  -28.1354  -13.8186   19.9083 C   0  0  0  0  0  0  0  0  0  0  0  0
  -25.7251  -26.6650   19.7070 C   0  0  0  0  0  0  0  0  0  0  0  0
  -26.2193  -12.4688   20.0784 C   0  0  0  0  0  0  0  0  0  0  0  0
  -23.6590  -12.0640   21.1096 C   0  0  0  0  0  0  0  0  0  0  0  0
  -29.3826  -23.2814   21.7432 C   0  0  0  0  0  0  0  0  0  0  0  0
  -25.1356  -12.3148   19.2139 C   0  0  0  0  0  0  0  0  0  0  0  0
  -30.1400  -17.3909   20.9661 C   0  0  0  0  0  0  0  0  0  0  0  0
  -30.9779  -19.1048   22.0594 C   0  0  0  0  0  0  0  0  0  0  0  0
  -25.4626  -21.2885   21.1098 C   0  0  0  0  0  0  0  0  0  0  0  0
  -24.1360  -21.1586   20.9646 C   0  0  0  0  0  0  0  0  0  0  0  0
  -23.6470  -22.3784   20.3324 C   0  0  0  0  0  0  0  0  0  0  0  0
  -24.8275  -23.2656   20.1485 C   0  0  0  0  0  0  0  0  0  0  0  0
  -22.3800  -22.6323   19.9772 C   0  0  0  0  0  0  0  0  0  0  0  0
  -24.7675  -24.5311   19.7059 C   0  0  0  0  0  0  0  0  0  1  0  0
  -29.6821  -17.5198   23.4937 C   0  0  0  0  0  0  0  0  0  0  0  0
  -26.6762  -31.3776   22.2271 C   0  0  0  0  0  0  0  0  0  0  0  0
  -23.7247  -31.1460   23.5527 C   0  0  0  0  0  0  0  0  0  0  0  0
  -20.8381  -29.3594   23.9031 C   0  0  0  0  0  0  0  0  0  0  0  0
  -32.2065  -23.6323   19.3749 C   0  0  0  0  0  0  0  0  0  0  0  0
  -29.3339  -35.5842   23.3668 C   0  0  0  0  0  0  0  0  0  0  0  0
  -25.2494  -30.9142   20.2009 C   0  0  0  0  0  0  0  0  0  0  0  0
  -24.6228  -29.0734   22.4288 C   0  0  0  0  0  0  0  0  0  0  0  0
  -28.3151  -34.7071   24.0900 C   0  0  0  0  0  0  0  0  0  0  0  0
  -33.6755  -20.6626   18.0844 C   0  0  0  0  0  0  0  0  0  0  0  0
  -28.6981  -33.2353   23.9714 C   0  0  0  0  0  0  0  0  0  0  0  0
  -32.8804  -19.5856   18.8216 C   0  0  0  0  0  0  0  0  0  0  0  0
  -32.7934  -21.8388   17.6646 C   0  0  0  0  0  0  0  0  0  0  0  0
  -31.2210  -21.3571   19.5139 C   0  0  0  0  0  0  0  0  0  0  0  0
  -28.7094  -32.7845   22.5058 C   0  0  1  0  0  0  0  0  0  0  0  0
  -25.2866  -31.3721   21.6556 C   0  0  1  0  0  0  0  0  0  0  0  0
  -32.0934  -20.1886   19.9986 C   0  0  1  0  0  0  0  0  0  0  0  0
  -18.6232  -29.4064   25.0817 C   0  0  0  0  0  0  0  0  0  0  0  0
  -25.0940  -30.3279   26.1537 C   0  0  0  0  0  0  0  0  0  0  0  0
  -22.8825  -29.4867   26.9720 C   0  0  0  0  0  0  0  0  0  0  0  0
  -23.1744  -31.9056   26.4369 C   0  0  0  0  0  0  0  0  0  0  0  0
  -31.9133  -24.8335   21.5305 C   0  0  0  0  0  0  0  0  0  0  0  0
  -19.3476  -29.3924   21.3466 C   0  0  0  0  0  0  0  0  0  0  0  0
  -23.0713  -30.2230   24.5527 C   0  0  1  0  0  0  0  0  0  0  0  0
  -19.3803  -29.7734   23.8149 C   0  0  2  0  0  0  0  0  0  0  0  0
  -23.5667  -30.4759   26.0046 C   0  0  0  0  0  0  0  0  0  0  0  0
  -30.7817  -18.1007   20.0343 N   0  0  0  0  0  0  0  0  0  0  0  0
  -31.2806  -19.1367   20.7299 N   0  0  0  0  0  0  0  0  0  0  0  0
  -25.9263  -22.5098   20.6159 N   0  0  0  0  0  0  0  0  0  0  0  0
  -24.4673  -30.5337   22.5332 N   0  0  0  0  0  0  0  0  0  0  0  0
  -32.0320  -22.3544   18.8112 N   0  0  0  0  0  0  0  0  0  0  0  0
  -31.4007  -20.0694   22.9039 N   0  0  0  0  0  0  0  0  0  0  0  0
  -28.9375  -16.3326   23.5079 N   0  0  0  0  0  0  0  0  0  0  0  0
  -27.3589  -32.5635   22.0346 N   0  0  0  0  0  0  0  0  0  0  0  0
  -21.6319  -30.3829   24.3761 N   0  0  0  0  0  0  0  0  0  0  0  0
  -31.3991  -23.9329   20.4930 N   0  0  0  0  0  0  0  0  0  0  0  0
  -18.7197  -29.1004   22.6609 N   0  3  0  0  0  0  0  0  0  0  0  0
  -29.8355  -18.1611   24.5608 O   0  0  0  0  0  0  0  0  0  0  0  0
  -27.0972  -30.3804   22.8014 O   0  0  0  0  0  0  0  0  0  0  0  0
  -23.5755  -32.3651   23.6676 O   0  0  0  0  0  0  0  0  0  0  0  0
  -21.2327  -28.2389   23.5879 O   0  0  0  0  0  0  0  0  0  0  0  0
  -33.0377  -24.4332   18.9305 O   0  0  0  0  0  0  0  0  0  0  0  0
  -23.3673  -20.0946   21.3184 O   0  0  0  0  0  0  0  0  0  0  0  0
  -27.4910  -12.6690   19.5682 O   0  0  0  0  0  0  0  0  0  0  0  0
  -25.8711  -25.3215   19.5474 O   0  0  0  0  0  0  0  0  0  1  0  0
  -22.4299  -11.8682   21.6048 F   0  0  0  0  0  0  0  0  0  0  0  0
  -30.0751  -23.3385   22.8898 F   0  0  0  0  0  0  0  0  0  0  0  0
  -25.3183  -12.3593   17.8871 F   0  0  0  0  0  0  0  0  0  0  0  0
  1  2  1  0  0  0  0
  1  5  2  0  0  0  0
  2  6  2  0  0  0  0
  3 10  2  0  0  0  0
  3 18  1  0  0  0  0
  4 11  1  0  0  0  0
  4 18  2  0  0  0  0
  5 20  1  0  0  0  0
  6 22  1  0  0  0  0
  7 12  2  0  0  0  0
  7 21  1  0  0  0  0
  8  9  2  0  0  0  0
  8 24  1  0  0  0  0
  9 25  1  0  0  0  0
 10 26  1  0  0  0  0
 11 26  2  0  0  0  0
 12 27  1  0  0  0  0
 13 14  2  0  0  0  0
 13 28  1  0  0  0  0
 14 29  1  0  0  0  0
 15 23  1  0  0  0  0
 15 27  2  0  0  0  0
 16 24  2  0  0  0  0
 16 30  1  0  0  0  0
 17 29  2  0  0  0  0
 17 31  1  0  0  0  0
 18 32  1  0  0  0  0
 19 32  1  0  0  0  0
 19 33  2  0  0  0  0
 19 40  1  0  0  0  0
 20 22  2  0  0  0  0
 20 45  1  0  0  0  0
 21 23  2  0  0  0  0
 21 46  1  0  0  0  0
 22 54  1  0  0  0  0
 23 47  1  0  0  0  0
 24 68  1  0  0  0  0
 25 30  2  0  0  0  0
 25 75  1  0  0  0  0
 26 83  1  0  0  0  0
 27 84  1  0  0  0  0
 28 31  2  0  0  0  0
 28 83  1  0  0  0  0
 29 85  1  0  0  0  0
 30 86  1  0  0  0  0
 31 87  1  0  0  0  0
 32 66  2  0  0  0  0
 33 67  1  0  0  0  0
 33 71  1  0  0  0  0
 34 35  2  0  0  0  0
 34 68  1  0  0  0  0
 35 36  1  0  0  0  0
 35 82  1  0  0  0  0
 36 37  1  0  0  0  0
 36 38  2  0  0  0  0
 37 39  2  0  0  0  0
 37 68  1  0  0  0  0
 39 84  1  0  0  0  0
 40 72  1  0  0  0  0
 40 77  2  0  0  0  0
 41 55  1  0  0  0  0
 41 73  1  0  0  0  0
 41 78  2  0  0  0  0
 42 63  1  0  0  0  0
 42 69  1  0  0  0  0
 42 79  2  0  0  0  0
 43 64  1  0  0  0  0
 43 74  1  0  0  0  0
 43 80  2  0  0  0  0
 44 70  1  0  0  0  0
 44 75  1  0  0  0  0
 44 81  2  0  0  0  0
 45 48  1  0  0  0  0
 46 55  1  0  0  0  0
 47 69  1  0  0  0  0
 48 50  1  0  0  0  0
 49 51  1  0  0  0  0
 49 52  1  0  0  0  0
 50 54  1  0  0  0  0
 51 56  1  0  0  0  0
 52 70  1  0  0  0  0
 53 56  1  0  0  0  0
 53 70  1  0  0  0  0
 54 73  1  0  0  0  0
 55 69  1  0  0  0  0
 56 67  1  0  0  0  0
 57 64  1  0  0  0  0
 58 65  1  0  0  0  0
 59 65  1  0  0  0  0
 60 65  1  0  0  0  0
 61 75  1  0  0  0  0
 62 76  1  0  0  0  0
 63 65  1  0  0  0  0
 63 74  1  0  0  0  0
 64 76  1  0  0  0  0
 66 67  1  0  0  0  0
M  CHG  1  76   1
M  ISO  4  39 101  44 100  75 100  84 101
M  END
> <Batch ID>
0082

> <Smiles>
C=C1C(=O)CN(c2ccc([100N:0](C)[100C:0](=O)N3CCCC(n4nc(-c5ccc(Oc6ccc(F)cc6F)cc5)c(C(N)=O)c4N)C3)c(F)c2)C1=[101CH:1][101O:1]c1ccc2c(c1)CN(C(=O)C(NC(=O)C(C)NC)C(C)(C)C)C(C(=O)NC1CCCc3ccccc31)C2

> <Shape>
0.229

> <Color>
0.076

> <Negative vol penalty>
0.000

$$$$

  -OEChem-04052300073D

 85 94  0     1  0  0  0  0  0999 V2000
  -26.8522  -36.3739   21.5521 C   0  0  0  0  0  0  0  0  0  0  0  0
  -27.6733  -35.2510   21.5322 C   0  0  0  0  0  0  0  0  0  0  0  0
  -23.5756   -9.7808   21.9248 C   0  0  0  0  0  0  0  0  0  0  0  0
  -24.4152  -11.1015   23.7654 C   0  0  0  0  0  0  0  0  0  0  0  0
  -25.5077  -36.2468   21.8990 C   0  0  0  0  0  0  0  0  0  0  0  0
  -27.1507  -34.0006   21.8603 C   0  0  0  0  0  0  0  0  0  0  0  0
  -28.7406  -28.5989   19.4519 C   0  0  0  0  0  0  0  0  0  0  0  0
  -31.8003  -19.2535   19.7356 C   0  0  0  0  0  0  0  0  0  0  0  0
  -29.5269  -19.9983   20.0729 C   0  0  0  0  0  0  0  0  0  0  0  0
  -31.3410  -17.9573   19.5020 C   0  0  0  0  0  0  0  0  0  0  0  0
  -29.0676  -18.7021   19.8392 C   0  0  0  0  0  0  0  0  0  0  0  0
  -23.0561   -8.8530   22.8274 C   0  0  0  0  0  0  0  0  0  0  0  0
  -23.8957  -10.1737   24.6681 C   0  0  0  0  0  0  0  0  0  0  0  0
  -29.5967  -27.5908   19.8930 C   0  0  0  0  0  0  0  0  0  0  0  0
  -24.2124   -6.3006   24.7176 C   0  0  0  0  0  0  0  0  0  0  0  0
  -24.4203   -4.9480   24.4474 C   0  0  0  0  0  0  0  0  0  0  0  0
  -27.7140  -26.4119   20.8337 C   0  0  0  0  0  0  0  0  0  0  0  0
  -22.0313   -4.5968   24.3672 C   0  0  0  0  0  0  0  0  0  0  0  0
  -24.2552  -10.9050   22.3937 C   0  0  0  0  0  0  0  0  0  0  0  0
  -24.1442  -13.0000   20.9423 C   0  0  0  0  0  0  0  0  0  0  0  0
  -24.9661  -34.9926   22.2222 C   0  0  0  0  0  0  0  0  0  0  0  0
  -27.3639  -28.5263   19.7084 C   0  0  0  0  0  0  0  0  0  0  0  0
  -25.7981  -33.8568   22.2132 C   0  0  0  0  0  0  0  0  0  0  0  0
  -26.8423  -27.4191   20.3926 C   0  0  0  0  0  0  0  0  0  0  0  0
  -30.8932  -20.2740   20.0212 C   0  0  0  0  0  0  0  0  0  0  0  0
  -29.9747  -17.6816   19.5537 C   0  0  0  0  0  0  0  0  0  0  0  0
  -23.2161   -9.0494   24.1991 C   0  0  0  0  0  0  0  0  0  0  0  0
  -29.0839  -26.4985   20.5865 C   0  0  0  0  0  0  0  0  0  0  0  0
  -22.9139   -6.8012   24.8127 C   0  0  0  0  0  0  0  0  0  0  0  0
  -23.3298   -4.0961   24.2721 C   0  0  0  0  0  0  0  0  0  0  0  0
  -21.8234   -5.9493   24.6375 C   0  0  0  0  0  0  0  0  0  0  0  0
  -24.7926  -11.8635   21.4617 C   0  0  0  0  0  0  0  0  0  0  0  0
  -25.0724  -13.5737   20.1083 C   0  0  0  0  0  0  0  0  0  0  0  0
  -32.6440  -23.3547   20.8624 C   0  0  0  0  0  0  0  0  0  0  0  0
  -31.5044  -23.8504   20.3846 C   0  0  0  0  0  0  0  0  0  0  0  0
  -32.5760  -21.8877   20.8021 C   0  0  0  0  0  0  0  0  0  0  0  0
  -30.6478  -22.7213   19.9730 C   0  0  0  0  0  0  0  0  0  0  0  0
  -22.8211  -13.4929   21.1916 C   0  0  0  0  0  0  0  0  0  0  0  0
  -25.2869  -30.3061   21.3277 C   0  0  0  0  0  0  0  0  0  0  0  0
  -23.1252  -28.2526   20.0499 C   0  0  0  0  0  0  0  0  0  0  0  0
  -22.4879  -25.1763   18.7170 C   0  0  0  0  0  0  0  0  0  0  0  0
  -30.2733  -15.2378   19.0201 C   0  0  0  0  0  0  0  0  0  0  0  0
  -23.5183  -34.9122   22.6367 C   0  0  0  0  0  0  0  0  0  0  0  0
  -26.4503  -29.6089   19.2026 C   0  0  0  0  0  0  0  0  0  0  0  0
  -25.3692  -27.2838   20.6756 C   0  0  0  0  0  0  0  0  0  0  0  0
  -22.9542  -33.4940   22.6075 C   0  0  0  0  0  0  0  0  0  0  0  0
  -29.5036  -11.8161   18.4063 C   0  0  0  0  0  0  0  0  0  0  0  0
  -23.9195  -32.5217   23.2780 C   0  0  0  0  0  0  0  0  0  0  0  0
  -28.1560  -11.6169   19.1038 C   0  0  0  0  0  0  0  0  0  0  0  0
  -30.4126  -12.7625   19.1885 C   0  0  0  0  0  0  0  0  0  0  0  0
  -28.4661  -13.8604   20.2251 C   0  0  0  0  0  0  0  0  0  0  0  0
  -25.2624  -32.4795   22.5388 C   0  0  1  0  0  0  0  0  0  0  0  0
  -25.1330  -29.6851   19.9682 C   0  0  1  0  0  0  0  0  0  0  0  0
  -27.4915  -12.9659   19.4417 C   0  0  2  0  0  0  0  0  0  0  0  0
  -20.6185  -23.7755   17.8001 C   0  0  0  0  0  0  0  0  0  0  0  0
  -22.1172  -27.7465   22.8850 C   0  0  0  0  0  0  0  0  0  0  0  0
  -20.9538  -25.7005   22.0314 C   0  0  0  0  0  0  0  0  0  0  0  0
  -20.3188  -27.9496   21.1591 C   0  0  0  0  0  0  0  0  0  0  0  0
  -23.7895  -24.9666   16.0673 C   0  0  0  0  0  0  0  0  0  0  0  0
  -31.0916  -25.2703   20.2452 C   0  0  0  0  0  0  0  0  0  1  0  0
  -22.5279  -26.9314   20.4699 C   0  0  1  0  0  0  0  0  0  0  0  0
  -21.7328  -24.7561   17.4689 C   0  0  2  0  0  0  0  0  0  0  0  0
  -21.5075  -27.0852   21.6329 C   0  0  0  0  0  0  0  0  0  0  0  0
  -26.0366  -11.7220   20.9964 N   0  0  0  0  0  0  0  0  0  0  0  0
  -26.1772  -12.7769   20.1759 N   0  0  0  0  0  0  0  0  0  0  0  0
  -31.3509  -21.5659   20.2545 N   0  0  0  0  0  0  0  0  0  0  0  0
  -24.5174  -28.3712   20.1662 N   0  0  0  0  0  0  0  0  0  0  0  0
  -29.7179  -14.0209   19.4688 N   0  0  0  0  0  0  0  0  0  0  0  0
  -25.0431  -14.6770   19.3309 N   0  0  0  0  0  0  0  0  0  0  0  0
  -21.9987  -12.7818   22.0760 N   0  0  0  0  0  0  0  0  0  0  0  0
  -29.5078  -16.3650   19.3164 N   0  0  0  0  0  0  0  0  0  0  0  0
  -25.1526  -31.6814   21.3365 N   0  0  0  0  0  0  0  0  0  0  0  0
  -21.9709  -26.3328   19.2616 N   0  0  0  0  0  0  0  0  0  0  0  0
  -22.6579  -24.1058   16.4982 N   0  3  0  0  0  0  0  0  0  0  0  0
  -33.4726  -21.1518   21.1813 O   0  0  0  0  0  0  0  0  0  0  0  0
  -29.5360  -22.8444   19.4845 O   0  0  0  0  0  0  0  0  0  0  0  0
  -22.3754  -14.5242   20.6335 O   0  0  0  0  0  0  0  0  0  0  0  0
  -25.5095  -29.5904   22.2972 O   0  0  0  0  0  0  0  0  0  0  0  0
  -22.3847  -29.1441   19.6274 O   0  0  0  0  0  0  0  0  0  0  0  0
  -23.4388  -24.5401   19.1661 O   0  0  0  0  0  0  0  0  0  0  0  0
  -31.3354  -15.2744   18.3934 O   0  0  0  0  0  0  0  0  0  0  0  0
  -22.7091   -8.1444   25.0802 O   0  0  0  0  0  0  0  0  0  0  0  0
  -29.9173  -25.5134   21.0187 O   0  0  0  0  0  0  0  0  0  1  0  0
  -23.5297   -2.7976   24.0111 F   0  0  0  0  0  0  0  0  0  0  0  0
  -20.5736   -6.4247   24.7265 F   0  0  0  0  0  0  0  0  0  0  0  0
  1  2  1  0  0  0  0
  1  5  2  0  0  0  0
  2  6  2  0  0  0  0
  3 12  2  0  0  0  0
  3 19  1  0  0  0  0
  4 13  1  0  0  0  0
  4 19  2  0  0  0  0
  5 21  1  0  0  0  0
  6 23  1  0  0  0  0
  7 14  2  0  0  0  0
  7 22  1  0  0  0  0
  8 10  2  0  0  0  0
  8 25  1  0  0  0  0
  9 11  1  0  0  0  0
  9 25  2  0  0  0  0
 10 26  1  0  0  0  0
 11 26  2  0  0  0  0
 12 27  1  0  0  0  0
 13 27  2  0  0  0  0
 14 28  1  0  0  0  0
 15 16  2  0  0  0  0
 15 29  1  0  0  0  0
 16 30  1  0  0  0  0
 17 24  1  0  0  0  0
 17 28  2  0  0  0  0
 18 30  2  0  0  0  0
 18 31  1  0  0  0  0
 19 32  1  0  0  0  0
 20 32  1  0  0  0  0
 20 33  2  0  0  0  0
 20 38  1  0  0  0  0
 21 23  2  0  0  0  0
 21 43  1  0  0  0  0
 22 24  2  0  0  0  0
 22 44  1  0  0  0  0
 23 52  1  0  0  0  0
 24 45  1  0  0  0  0
 25 66  1  0  0  0  0
 26 71  1  0  0  0  0
 27 82  1  0  0  0  0
 28 83  1  0  0  0  0
 29 31  2  0  0  0  0
 29 82  1  0  0  0  0
 30 84  1  0  0  0  0
 31 85  1  0  0  0  0
 32 64  2  0  0  0  0
 33 65  1  0  0  0  0
 33 69  1  0  0  0  0
 34 35  2  0  0  0  0
 34 36  1  0  0  0  0
 35 37  1  0  0  0  0
 35 60  1  0  0  0  0
 36 66  1  0  0  0  0
 36 75  2  0  0  0  0
 37 66  1  0  0  0  0
 37 76  2  0  0  0  0
 38 70  1  0  0  0  0
 38 77  2  0  0  0  0
 39 53  1  0  0  0  0
 39 72  1  0  0  0  0
 39 78  2  0  0  0  0
 40 61  1  0  0  0  0
 40 67  1  0  0  0  0
 40 79  2  0  0  0  0
 41 62  1  0  0  0  0
 41 73  1  0  0  0  0
 41 80  2  0  0  0  0
 42 68  1  0  0  0  0
 42 71  1  0  0  0  0
 42 81  2  0  0  0  0
 43 46  1  0  0  0  0
 44 53  1  0  0  0  0
 45 67  1  0  0  0  0
 46 48  1  0  0  0  0
 47 49  1  0  0  0  0
 47 50  1  0  0  0  0
 48 52  1  0  0  0  0
 49 54  1  0  0  0  0
 50 68  1  0  0  0  0
 51 54  1  0  0  0  0
 51 68  1  0  0  0  0
 52 72  1  0  0  0  0
 53 67  1  0  0  0  0
 54 65  1  0  0  0  0
 55 62  1  0  0  0  0
 56 63  1  0  0  0  0
 57 63  1  0  0  0  0
 58 63  1  0  0  0  0
 59 74  1  0  0  0  0
 60 83  1  0  0  0  0
 61 63  1  0  0  0  0
 61 73  1  0  0  0  0
 62 74  1  0  0  0  0
 64 65  1  0  0  0  0
M  CHG  1  74   1
M  ISO  4  42 100  60 101  71 100  83 101
M  END
> <Batch ID>
0082

> <Smiles>
CNC(C)C(=O)NC(C(=O)N1Cc2cc([101O:1][101CH2:1]C3=CC(=O)N(c4ccc([100NH:0][100C:0](=O)N5CCCC(n6nc(-c7ccc(Oc8ccc(F)cc8F)cc7)c(C(N)=O)c6N)C5)cc4)C3=O)ccc2CC1C(=O)NC1CCCc2ccccc21)C(C)(C)C

> <Shape>
0.296

> <Color>
0.133

> <Negative vol penalty>
0.000

$$$$

  -OEChem-04052300073D

 88 97  0     1  0  0  0  0  0999 V2000
  -21.9527  -11.0083   19.7377 C   0  0  0  0  0  0  0  0  0  0  0  0
  -21.6087  -12.2004   20.3671 C   0  0  0  0  0  0  0  0  0  0  0  0
  -23.1256  -28.4518   26.4553 C   0  0  0  0  0  0  0  0  0  0  0  0
  -28.5489  -27.0725   20.9750 C   0  0  0  0  0  0  0  0  0  0  0  0
  -28.3541  -27.3977   18.5890 C   0  0  0  0  0  0  0  0  0  0  0  0
  -23.2942  -10.6509   19.6095 C   0  0  0  0  0  0  0  0  0  0  0  0
  -22.6061  -13.0352   20.8696 C   0  0  0  0  0  0  0  0  0  0  0  0
  -22.5479  -19.1571   21.0301 C   0  0  0  0  0  0  0  0  0  0  0  0
  -22.8516  -27.0937   26.6166 C   0  0  0  0  0  0  0  0  0  0  0  0
  -22.4474  -29.1897   25.4850 C   0  0  0  0  0  0  0  0  0  0  0  0
  -29.7231  -26.3453   20.7801 C   0  0  0  0  0  0  0  0  0  0  0  0
  -29.5284  -26.6705   18.3940 C   0  0  0  0  0  0  0  0  0  0  0  0
  -22.2382  -20.0660   22.0409 C   0  0  0  0  0  0  0  0  0  0  0  0
  -32.9806  -26.9963   20.1493 C   0  0  0  0  0  0  0  0  0  0  0  0
  -34.0635  -27.2781   20.9820 C   0  0  0  0  0  0  0  0  0  0  0  0
  -24.5818  -20.2553   22.5803 C   0  0  0  0  0  0  0  0  0  0  0  0
  -34.0520  -24.9943   21.7700 C   0  0  0  0  0  0  0  0  0  0  0  0
  -27.8644  -27.5987   19.8794 C   0  0  0  0  0  0  0  0  0  0  0  0
  -26.5338  -29.7382   20.2788 C   0  0  0  0  0  0  0  0  0  0  0  0
  -24.3090  -11.4865   20.1022 C   0  0  0  0  0  0  0  0  0  0  0  0
  -23.8781  -18.7815   20.7935 C   0  0  0  0  0  0  0  0  0  0  0  0
  -23.9624  -12.6880   20.7491 C   0  0  0  0  0  0  0  0  0  0  0  0
  -24.9060  -19.3434   21.5641 C   0  0  0  0  0  0  0  0  0  0  0  0
  -21.8996  -26.4734   25.8075 C   0  0  0  0  0  0  0  0  0  0  0  0
  -21.4954  -28.5694   24.6760 C   0  0  0  0  0  0  0  0  0  0  0  0
  -30.2129  -26.1443   19.4896 C   0  0  0  0  0  0  0  0  0  0  0  0
  -23.2550  -20.6131   22.8181 C   0  0  0  0  0  0  0  0  0  0  0  0
  -32.4333  -25.7134   20.1269 C   0  0  0  0  0  0  0  0  0  0  0  0
  -34.5992  -26.2772   21.7924 C   0  0  0  0  0  0  0  0  0  0  0  0
  -32.9690  -24.7124   20.9373 C   0  0  0  0  0  0  0  0  0  0  0  0
  -21.2215  -27.2113   24.8372 C   0  0  0  0  0  0  0  0  0  0  0  0
  -26.6511  -28.3495   20.0801 C   0  0  0  0  0  0  0  0  0  0  0  0
  -25.1842  -29.9525   20.4173 C   0  0  0  0  0  0  0  0  0  0  0  0
  -20.9733  -22.3952   26.3316 C   0  0  0  0  0  0  0  0  0  0  0  0
  -21.1540  -24.6308   27.1957 C   0  0  0  0  0  0  0  0  0  0  0  0
  -21.4298  -22.7685   25.1285 C   0  0  0  0  0  0  0  0  0  0  0  0
  -20.8414  -23.3473   27.3965 C   0  0  0  0  0  0  0  0  0  0  0  0
  -21.8300  -24.2046   24.8950 C   0  0  0  0  0  0  0  0  0  0  0  0
  -27.5536  -30.7446   20.3331 C   0  0  0  0  0  0  0  0  0  0  0  0
  -25.4932  -16.0467   20.9199 C   0  0  0  0  0  0  0  0  0  0  0  0
  -27.8875  -17.8549   19.6871 C   0  0  0  0  0  0  0  0  0  0  0  0
  -29.2580  -20.9523   19.2686 C   0  0  0  0  0  0  0  0  0  0  0  0
  -20.3383  -28.7367   22.4795 C   0  0  0  0  0  0  0  0  0  0  0  0
  -25.7431  -11.0351   19.9822 C   0  0  0  0  0  0  0  0  0  0  0  0
  -24.1980  -17.8202   19.6818 C   0  0  0  0  0  0  0  0  0  0  0  0
  -26.3520  -18.9886   21.3371 C   0  0  0  0  0  0  0  0  0  0  0  0
  -26.7551  -12.1552   20.2091 C   0  0  0  0  0  0  0  0  0  0  0  0
  -21.2526  -26.8959   19.5780 C   0  0  0  0  0  0  0  0  0  0  0  0
  -26.3873  -12.9640   21.4489 C   0  0  0  0  0  0  0  0  0  0  0  0
  -22.7428  -27.2176   19.4717 C   0  0  0  0  0  0  0  0  0  0  0  0
  -20.8118  -26.6977   21.0287 C   0  0  0  0  0  0  0  0  0  0  0  0
  -22.6576  -28.1452   21.8176 C   0  0  0  0  0  0  0  0  0  0  0  0
  -25.0167  -13.6321   21.2852 C   0  0  1  0  0  0  0  0  0  0  0  0
  -25.5394  -17.1175   19.8669 C   0  0  1  0  0  0  0  0  0  0  0  0
  -23.1170  -28.4062   20.3747 C   0  0  1  0  0  0  0  0  0  0  0  0
  -31.2376  -22.1090   18.2487 C   0  0  0  0  0  0  0  0  0  0  0  0
  -29.6390  -16.8808   21.9878 C   0  0  0  0  0  0  0  0  0  0  0  0
  -31.2267  -18.7482   21.4777 C   0  0  0  0  0  0  0  0  0  0  0  0
  -30.7909  -16.9825   19.7703 C   0  0  0  0  0  0  0  0  0  0  0  0
  -20.3502  -30.6923   24.0127 C   0  0  0  0  0  0  0  0  0  0  0  0
  -27.5411  -22.5488   17.4624 C   0  0  0  0  0  0  0  0  0  0  0  0
  -21.5784  -21.8252   23.9909 C   0  0  0  0  0  0  0  0  0  1  0  0
  -28.9992  -18.6958   20.2666 C   0  0  1  0  0  0  0  0  0  0  0  0
  -29.8015  -21.6554   18.0379 C   0  0  2  0  0  0  0  0  0  0  0  0
  -30.1366  -17.8322   20.8814 C   0  0  0  0  0  0  0  0  0  0  0  0
  -25.4702  -27.7255   20.0910 N   0  0  0  0  0  0  0  0  0  0  0  0
  -24.5980  -28.7268   20.2982 N   0  0  0  0  0  0  0  0  0  0  0  0
  -21.6262  -25.1059   25.9728 N   0  0  0  0  0  0  0  0  0  0  0  0
  -26.6133  -18.0395   20.2424 N   0  0  0  0  0  0  0  0  0  0  0  0
  -21.2260  -27.8373   21.8594 N   0  0  0  0  0  0  0  0  0  0  0  0
  -24.4536  -31.0679   20.6282 N   0  0  0  0  0  0  0  0  0  0  0  0
  -28.8892  -30.3518   20.1713 N   0  0  0  0  0  0  0  0  0  0  0  0
  -25.1231  -14.8039   20.4426 N   0  0  0  0  0  0  0  0  0  0  0  0
  -29.4368  -19.5869   19.1975 N   0  0  0  0  0  0  0  0  0  0  0  0
  -20.7955  -29.3366   23.6726 N   0  0  0  0  0  0  0  0  0  0  0  0
  -28.9730  -22.8518   17.7167 N   0  3  0  0  0  0  0  0  0  0  0  0
  -22.2883  -24.5370   23.8004 O   0  0  0  0  0  0  0  0  0  0  0  0
  -27.2896  -31.9540   20.5360 O   0  0  0  0  0  0  0  0  0  0  0  0
  -25.7740  -16.3269   22.0794 O   0  0  0  0  0  0  0  0  0  0  0  0
  -28.1388  -17.0687   18.7704 O   0  0  0  0  0  0  0  0  0  0  0  0
  -28.7311  -21.5544   20.2015 O   0  0  0  0  0  0  0  0  0  0  0  0
  -19.2335  -29.0034   21.9916 O   0  0  0  0  0  0  0  0  0  0  0  0
  -20.3738  -22.8468   28.5871 O   0  0  0  0  0  0  0  0  0  0  0  0
  -31.3587  -25.4349   19.2990 O   0  0  0  0  0  0  0  0  0  0  0  0
  -22.9554  -21.4999   23.8058 O   0  0  0  0  0  0  0  0  0  1  0  0
  -35.6401  -26.5476   22.5909 F   0  0  0  0  0  0  0  0  0  0  0  0
  -32.4483  -23.4778   20.9192 F   0  0  0  0  0  0  0  0  0  0  0  0
  -20.3062  -26.6141   24.0583 F   0  0  0  0  0  0  0  0  0  0  0  0
  1  2  1  0  0  0  0
  1  6  2  0  0  0  0
  2  7  2  0  0  0  0
  3  9  2  0  0  0  0
  3 10  1  0  0  0  0
  4 11  2  0  0  0  0
  4 18  1  0  0  0  0
  5 12  1  0  0  0  0
  5 18  2  0  0  0  0
  6 20  1  0  0  0  0
  7 22  1  0  0  0  0
  8 13  2  0  0  0  0
  8 21  1  0  0  0  0
  9 24  1  0  0  0  0
 10 25  2  0  0  0  0
 11 26  1  0  0  0  0
 12 26  2  0  0  0  0
 13 27  1  0  0  0  0
 14 15  2  0  0  0  0
 14 28  1  0  0  0  0
 15 29  1  0  0  0  0
 16 23  1  0  0  0  0
 16 27  2  0  0  0  0
 17 29  2  0  0  0  0
 17 30  1  0  0  0  0
 18 32  1  0  0  0  0
 19 32  1  0  0  0  0
 19 33  2  0  0  0  0
 19 39  1  0  0  0  0
 20 22  2  0  0  0  0
 20 44  1  0  0  0  0
 21 23  2  0  0  0  0
 21 45  1  0  0  0  0
 22 53  1  0  0  0  0
 23 46  1  0  0  0  0
 24 31  2  0  0  0  0
 24 68  1  0  0  0  0
 25 31  1  0  0  0  0
 25 75  1  0  0  0  0
 26 84  1  0  0  0  0
 27 85  1  0  0  0  0
 28 30  2  0  0  0  0
 28 84  1  0  0  0  0
 29 86  1  0  0  0  0
 30 87  1  0  0  0  0
 31 88  1  0  0  0  0
 32 66  2  0  0  0  0
 33 67  1  0  0  0  0
 33 71  1  0  0  0  0
 34 36  2  0  0  0  0
 34 37  1  0  0  0  0
 35 37  2  0  0  0  0
 35 68  1  0  0  0  0
 36 38  1  0  0  0  0
 36 62  1  0  0  0  0
 37 83  1  0  0  0  0
 38 68  1  0  0  0  0
 38 77  2  0  0  0  0
 39 72  1  0  0  0  0
 39 78  2  0  0  0  0
 40 54  1  0  0  0  0
 40 73  1  0  0  0  0
 40 79  2  0  0  0  0
 41 63  1  0  0  0  0
 41 69  1  0  0  0  0
 41 80  2  0  0  0  0
 42 64  1  0  0  0  0
 42 74  1  0  0  0  0
 42 81  2  0  0  0  0
 43 70  1  0  0  0  0
 43 75  1  0  0  0  0
 43 82  2  0  0  0  0
 44 47  1  0  0  0  0
 45 54  1  0  0  0  0
 46 69  1  0  0  0  0
 47 49  1  0  0  0  0
 48 50  1  0  0  0  0
 48 51  1  0  0  0  0
 49 53  1  0  0  0  0
 50 55  1  0  0  0  0
 51 70  1  0  0  0  0
 52 55  1  0  0  0  0
 52 70  1  0  0  0  0
 53 73  1  0  0  0  0
 54 69  1  0  0  0  0
 55 67  1  0  0  0  0
 56 64  1  0  0  0  0
 57 65  1  0  0  0  0
 58 65  1  0  0  0  0
 59 65  1  0  0  0  0
 60 75  1  0  0  0  0
 61 76  1  0  0  0  0
 62 85  1  0  0  0  0
 63 65  1  0  0  0  0
 63 74  1  0  0  0  0
 64 76  1  0  0  0  0
 66 67  1  0  0  0  0
M  CHG  1  76   1
M  ISO  4  43 100  62 101  75 100  85 101
M  END
> <Batch ID>
0082

> <Smiles>
CNC(C)C(=O)NC(C(=O)N1Cc2cc([101O:1][101CH:1]=C3CC(=O)CN(c4cccc([100N:0](C)[100C:0](=O)N5CCCC(n6nc(-c7ccc(Oc8ccc(F)cc8F)cc7)c(C(N)=O)c6N)C5)c4F)C3=O)ccc2CC1C(=O)NC1CCCc2ccccc21)C(C)(C)C

> <Shape>
0.244

> <Color>
0.060

> <Negative vol penalty>
0.000

$$$$

  -OEChem-04052300073D

 85 94  0     1  0  0  0  0  0999 V2000
  -16.2584  -30.5802   23.0832 C   0  0  0  0  0  0  0  0  0  0  0  0
  -16.9306  -29.3900   22.8243 C   0  0  0  0  0  0  0  0  0  0  0  0
  -28.7579  -19.9569   16.8095 C   0  0  0  0  0  0  0  0  0  0  0  0
  -23.1553  -10.2256   20.7779 C   0  0  0  0  0  0  0  0  0  0  0  0
  -24.6760   -8.9137   22.1208 C   0  0  0  0  0  0  0  0  0  0  0  0
  -16.9796  -31.7501   23.3173 C   0  0  0  0  0  0  0  0  0  0  0  0
  -18.3247  -29.3694   22.7984 C   0  0  0  0  0  0  0  0  0  0  0  0
  -21.9736  -24.8009   24.6205 C   0  0  0  0  0  0  0  0  0  0  0  0
  -28.0104  -20.7943   17.6374 C   0  0  0  0  0  0  0  0  0  0  0  0
  -28.9830  -18.6308   17.1791 C   0  0  0  0  0  0  0  0  0  0  0  0
  -22.2703   -9.1487   20.7279 C   0  0  0  0  0  0  0  0  0  0  0  0
  -23.7910   -7.8367   22.0709 C   0  0  0  0  0  0  0  0  0  0  0  0
  -22.6328  -23.7910   23.9210 C   0  0  0  0  0  0  0  0  0  0  0  0
  -21.7688   -4.8620   22.5998 C   0  0  0  0  0  0  0  0  0  0  0  0
  -21.5156   -4.1741   23.7865 C   0  0  0  0  0  0  0  0  0  0  0  0
  -24.6366  -25.1336   23.8832 C   0  0  0  0  0  0  0  0  0  0  0  0
  -20.6713   -6.2061   24.7842 C   0  0  0  0  0  0  0  0  0  0  0  0
  -24.3582  -10.1081   21.4743 C   0  0  0  0  0  0  0  0  0  0  0  0
  -25.3097  -12.2470   22.4880 C   0  0  0  0  0  0  0  0  0  0  0  0
  -18.3833  -31.7419   23.3038 C   0  0  0  0  0  0  0  0  0  0  0  0
  -22.6388  -25.9912   24.9477 C   0  0  0  0  0  0  0  0  0  0  0  0
  -19.0654  -30.5406   23.0313 C   0  0  0  0  0  0  0  0  0  0  0  0
  -23.9843  -26.1560   24.5892 C   0  0  0  0  0  0  0  0  0  0  0  0
  -27.4881  -20.3058   18.8350 C   0  0  0  0  0  0  0  0  0  0  0  0
  -28.4607  -18.1423   18.3766 C   0  0  0  0  0  0  0  0  0  0  0  0
  -22.5881   -7.9542   21.3744 C   0  0  0  0  0  0  0  0  0  0  0  0
  -23.9637  -23.9585   23.5497 C   0  0  0  0  0  0  0  0  0  0  0  0
  -21.4734   -6.2219   22.5052 C   0  0  0  0  0  0  0  0  0  0  0  0
  -20.9668   -4.8461   24.8787 C   0  0  0  0  0  0  0  0  0  0  0  0
  -20.9246   -6.8940   23.5974 C   0  0  0  0  0  0  0  0  0  0  0  0
  -27.7132  -18.9798   19.2046 C   0  0  0  0  0  0  0  0  0  0  0  0
  -25.2731  -11.2201   21.5258 C   0  0  0  0  0  0  0  0  0  0  0  0
  -26.3519  -13.0500   22.0938 C   0  0  0  0  0  0  0  0  0  0  0  0
  -25.7647  -22.3794   20.8655 C   0  0  0  0  0  0  0  0  0  0  0  0
  -26.3848  -22.4356   19.5412 C   0  0  0  0  0  0  0  0  0  0  0  0
  -25.1095  -23.2719   21.6297 C   0  0  0  0  0  0  0  0  0  1  0  0
  -24.4761  -12.4563   23.6356 C   0  0  0  0  0  0  0  0  0  0  0  0
  -22.2339  -29.0594   24.2225 C   0  0  0  0  0  0  0  0  0  0  0  0
  -24.6316  -29.4803   26.3663 C   0  0  0  0  0  0  0  0  0  0  0  0
  -27.3272  -28.1641   27.9937 C   0  0  0  0  0  0  0  0  0  0  0  0
  -28.8602  -15.7580   17.7845 C   0  0  0  0  0  0  0  0  0  0  0  0
  -19.1190  -33.0413   23.5158 C   0  0  0  0  0  0  0  0  0  0  0  0
  -21.9215  -27.0599   25.7259 C   0  0  0  0  0  0  0  0  0  0  0  0
  -24.7495  -27.4066   24.9341 C   0  0  0  0  0  0  0  0  0  0  0  0
  -26.1833  -20.9307   20.9699 C   0  0  0  0  0  0  0  0  0  0  0  0
  -20.5990  -32.8572   23.8412 C   0  0  0  0  0  0  0  0  0  0  0  0
  -29.9519  -12.3360   18.6262 C   0  0  0  0  0  0  0  0  0  0  0  0
  -21.2346  -31.8518   22.8862 C   0  0  0  0  0  0  0  0  0  0  0  0
  -28.7985  -11.8108   19.4794 C   0  0  0  0  0  0  0  0  0  0  0  0
  -29.4782  -13.3658   17.6048 C   0  0  0  0  0  0  0  0  0  0  0  0
  -27.5701  -13.9786   19.0587 C   0  0  0  0  0  0  0  0  0  0  0  0
  -20.5771  -30.4729   23.0192 C   0  0  1  0  0  0  0  0  0  0  0  0
  -22.5444  -28.4422   25.5568 C   0  0  1  0  0  0  0  0  0  0  0  0
  -28.0221  -12.9709   20.1263 C   0  0  1  0  0  0  0  0  0  0  0  0
  -29.1085  -28.7613   29.6573 C   0  0  0  0  0  0  0  0  0  0  0  0
  -26.1139  -31.0516   24.2114 C   0  0  0  0  0  0  0  0  0  0  0  0
  -28.2058  -30.7974   25.5633 C   0  0  0  0  0  0  0  0  0  0  0  0
  -26.2570  -32.0371   26.5055 C   0  0  0  0  0  0  0  0  0  0  0  0
  -29.0058  -16.4737   20.1585 C   0  0  0  0  0  0  0  0  0  0  0  0
  -26.4085  -26.0912   29.8959 C   0  0  0  0  0  0  0  0  0  0  0  0
  -26.1388  -29.5208   26.2903 C   0  0  1  0  0  0  0  0  0  0  0  0
  -27.7209  -28.1712   29.4598 C   0  0  2  0  0  0  0  0  0  0  0  0
  -26.6642  -30.8289   25.6343 C   0  0  0  0  0  0  0  0  0  0  0  0
  -26.2170  -11.3559   20.5906 N   0  0  0  0  0  0  0  0  0  0  0  0
  -26.8564  -12.4777   20.9632 N   0  0  0  0  0  0  0  0  0  0  0  0
  -26.7513  -21.1345   19.6490 N   0  0  0  0  0  0  0  0  0  0  0  0
  -24.0025  -28.4252   25.6904 N   0  0  0  0  0  0  0  0  0  0  0  0
  -28.7043  -14.4333   18.2397 N   0  0  0  0  0  0  0  0  0  0  0  0
  -26.8768  -14.1828   22.6073 N   0  0  0  0  0  0  0  0  0  0  0  0
  -23.4518  -11.5353   23.8944 N   0  0  0  0  0  0  0  0  0  0  0  0
  -21.0632  -29.7931   24.2007 N   0  0  0  0  0  0  0  0  0  0  0  0
  -26.6222  -29.2977   27.6487 N   0  0  0  0  0  0  0  0  0  0  0  0
  -28.6959  -16.7691   18.7558 N   0  0  0  0  0  0  0  0  0  0  0  0
  -27.7185  -26.7837   30.0035 N   0  3  0  0  0  0  0  0  0  0  0  0
  -26.5286  -23.2931   18.6947 O   0  0  0  0  0  0  0  0  0  0  0  0
  -24.6244  -13.4402   24.3995 O   0  0  0  0  0  0  0  0  0  0  0  0
  -23.0006  -28.8842   23.2827 O   0  0  0  0  0  0  0  0  0  0  0  0
  -24.0349  -30.3486   27.0079 O   0  0  0  0  0  0  0  0  0  0  0  0
  -27.6194  -27.2465   27.2300 O   0  0  0  0  0  0  0  0  0  0  0  0
  -29.1523  -16.0142   16.6103 O   0  0  0  0  0  0  0  0  0  0  0  0
  -21.7246   -6.9032   21.3261 O   0  0  0  0  0  0  0  0  0  0  0  0
  -24.6093  -22.9746   22.8663 O   0  0  0  0  0  0  0  0  0  1  0  0
  -20.7223   -4.1851   26.0177 F   0  0  0  0  0  0  0  0  0  0  0  0
  -20.6375   -8.2002   23.5122 F   0  0  0  0  0  0  0  0  0  0  0  0
  -27.2115  -18.5102   20.3572 F   0  0  0  0  0  0  0  0  0  0  0  0
  1  2  1  0  0  0  0
  1  6  2  0  0  0  0
  2  7  2  0  0  0  0
  3  9  2  0  0  0  0
  3 10  1  0  0  0  0
  4 11  2  0  0  0  0
  4 18  1  0  0  0  0
  5 12  1  0  0  0  0
  5 18  2  0  0  0  0
  6 20  1  0  0  0  0
  7 22  1  0  0  0  0
  8 13  2  0  0  0  0
  8 21  1  0  0  0  0
  9 24  1  0  0  0  0
 10 25  2  0  0  0  0
 11 26  1  0  0  0  0
 12 26  2  0  0  0  0
 13 27  1  0  0  0  0
 14 15  2  0  0  0  0
 14 28  1  0  0  0  0
 15 29  1  0  0  0  0
 16 23  1  0  0  0  0
 16 27  2  0  0  0  0
 17 29  2  0  0  0  0
 17 30  1  0  0  0  0
 18 32  1  0  0  0  0
 19 32  1  0  0  0  0
 19 33  2  0  0  0  0
 19 37  1  0  0  0  0
 20 22  2  0  0  0  0
 20 42  1  0  0  0  0
 21 23  2  0  0  0  0
 21 43  1  0  0  0  0
 22 52  1  0  0  0  0
 23 44  1  0  0  0  0
 24 31  2  0  0  0  0
 24 66  1  0  0  0  0
 25 31  1  0  0  0  0
 25 73  1  0  0  0  0
 26 81  1  0  0  0  0
 27 82  1  0  0  0  0
 28 30  2  0  0  0  0
 28 81  1  0  0  0  0
 29 83  1  0  0  0  0
 30 84  1  0  0  0  0
 31 85  1  0  0  0  0
 32 64  2  0  0  0  0
 33 65  1  0  0  0  0
 33 69  1  0  0  0  0
 34 35  1  0  0  0  0
 34 36  2  0  0  0  0
 34 45  1  0  0  0  0
 35 66  1  0  0  0  0
 35 75  2  0  0  0  0
 36 82  1  0  0  0  0
 37 70  1  0  0  0  0
 37 76  2  0  0  0  0
 38 53  1  0  0  0  0
 38 71  1  0  0  0  0
 38 77  2  0  0  0  0
 39 61  1  0  0  0  0
 39 67  1  0  0  0  0
 39 78  2  0  0  0  0
 40 62  1  0  0  0  0
 40 72  1  0  0  0  0
 40 79  2  0  0  0  0
 41 68  1  0  0  0  0
 41 73  1  0  0  0  0
 41 80  2  0  0  0  0
 42 46  1  0  0  0  0
 43 53  1  0  0  0  0
 44 67  1  0  0  0  0
 45 66  1  0  0  0  0
 46 48  1  0  0  0  0
 47 49  1  0  0  0  0
 47 50  1  0  0  0  0
 48 52  1  0  0  0  0
 49 54  1  0  0  0  0
 50 68  1  0  0  0  0
 51 54  1  0  0  0  0
 51 68  1  0  0  0  0
 52 71  1  0  0  0  0
 53 67  1  0  0  0  0
 54 65  1  0  0  0  0
 55 62  1  0  0  0  0
 56 63  1  0  0  0  0
 57 63  1  0  0  0  0
 58 63  1  0  0  0  0
 59 73  1  0  0  0  0
 60 74  1  0  0  0  0
 61 63  1  0  0  0  0
 61 72  1  0  0  0  0
 62 74  1  0  0  0  0
 64 65  1  0  0  0  0
M  CHG  1  74   1
M  ISO  4  36 101  41 100  73 100  82 101
M  END
> <Batch ID>
0082

> <Smiles>
CNC(C)C(=O)NC(C(=O)N1Cc2cc([101O:1][101CH:1]=C3CN(c4cccc([100N:0](C)[100C:0](=O)N5CCCC(n6nc(-c7ccc(Oc8ccc(F)cc8F)cc7)c(C(N)=O)c6N)C5)c4F)C3=O)ccc2CC1C(=O)NC1CCCc2ccccc21)C(C)(C)C

> <Shape>
0.233

> <Color>
0.123

> <Negative vol penalty>
0.000

$$$$

  -OEChem-04052300073D

 84 93  0     1  0  0  0  0  0999 V2000
  -27.3783  -37.7506   23.8460 C   0  0  0  0  0  0  0  0  0  0  0  0
  -27.9648  -36.8071   23.0086 C   0  0  0  0  0  0  0  0  0  0  0  0
  -24.1859   -9.2995   22.2135 C   0  0  0  0  0  0  0  0  0  0  0  0
  -22.9231  -11.2834   21.6598 C   0  0  0  0  0  0  0  0  0  0  0  0
  -26.4957  -37.3416   24.8447 C   0  0  0  0  0  0  0  0  0  0  0  0
  -27.6698  -35.4538   23.1702 C   0  0  0  0  0  0  0  0  0  0  0  0
  -26.9110  -29.4153   19.3918 C   0  0  0  0  0  0  0  0  0  0  0  0
  -26.2998  -19.4060   19.1256 C   0  0  0  0  0  0  0  0  0  0  0  0
  -26.5644  -18.0444   18.9786 C   0  0  0  0  0  0  0  0  0  0  0  0
  -23.3208   -9.0459   23.2778 C   0  0  0  0  0  0  0  0  0  0  0  0
  -22.0579  -11.0298   22.7241 C   0  0  0  0  0  0  0  0  0  0  0  0
  -27.3662  -28.0978   19.3639 C   0  0  0  0  0  0  0  0  0  0  0  0
  -20.2302   -7.7480   23.7209 C   0  0  0  0  0  0  0  0  0  0  0  0
  -19.7721   -6.4410   23.8866 C   0  0  0  0  0  0  0  0  0  0  0  0
  -25.7657  -27.5151   21.0721 C   0  0  0  0  0  0  0  0  0  0  0  0
  -28.8456  -18.4116   19.6847 C   0  0  0  0  0  0  0  0  0  0  0  0
  -20.7712   -6.3696   26.0852 C   0  0  0  0  0  0  0  0  0  0  0  0
  -23.9871  -10.4183   21.4045 C   0  0  0  0  0  0  0  0  0  0  0  0
  -24.7521  -10.2291   18.9782 C   0  0  0  0  0  0  0  0  0  0  0  0
  -26.1822  -35.9836   25.0125 C   0  0  0  0  0  0  0  0  0  0  0  0
  -25.8855  -29.7956   20.2693 C   0  0  0  0  0  0  0  0  0  0  0  0
  -26.7831  -35.0262   24.1730 C   0  0  0  0  0  0  0  0  0  0  0  0
  -25.2975  -28.8374   21.1073 C   0  0  0  0  0  0  0  0  0  0  0  0
  -27.3081  -20.2704   19.5521 C   0  0  0  0  0  0  0  0  0  0  0  0
  -27.8373  -17.5472   19.2582 C   0  0  0  0  0  0  0  0  0  0  0  0
  -22.2568   -9.9110   23.5331 C   0  0  0  0  0  0  0  0  0  0  0  0
  -26.7956  -27.1481   20.2062 C   0  0  0  0  0  0  0  0  0  0  0  0
  -20.9588   -8.3658   24.7373 C   0  0  0  0  0  0  0  0  0  0  0  0
  -20.0426   -5.7518   25.0688 C   0  0  0  0  0  0  0  0  0  0  0  0
  -28.5810  -19.7732   19.8317 C   0  0  0  0  0  0  0  0  0  0  0  0
  -21.2293   -7.6766   25.9194 C   0  0  0  0  0  0  0  0  0  0  0  0
  -24.8808  -10.6812   20.3052 C   0  0  0  0  0  0  0  0  0  0  0  0
  -25.8475  -10.7468   18.3314 C   0  0  0  0  0  0  0  0  0  0  0  0
  -26.6694  -23.5750   19.8071 C   0  0  0  0  0  0  0  0  0  0  0  0
  -25.9252  -22.3530   19.4998 C   0  0  0  0  0  0  0  0  0  0  0  0
  -26.3437  -24.8791   19.8622 C   0  0  0  0  0  0  0  0  0  1  0  0
  -23.7334   -9.4141   18.3835 C   0  0  0  0  0  0  0  0  0  0  0  0
  -25.6518  -31.8329   22.6980 C   0  0  0  0  0  0  0  0  0  0  0  0
  -22.5157  -31.0131   22.5759 C   0  0  0  0  0  0  0  0  0  0  0  0
  -20.1531  -28.7222   21.6721 C   0  0  0  0  0  0  0  0  0  0  0  0
  -29.3136  -15.5077   19.3439 C   0  0  0  0  0  0  0  0  0  0  0  0
  -25.2589  -35.5851   26.1365 C   0  0  0  0  0  0  0  0  0  0  0  0
  -25.3875  -31.2149   20.2681 C   0  0  0  0  0  0  0  0  0  0  0  0
  -24.1798  -29.1901   22.0533 C   0  0  0  0  0  0  0  0  0  0  0  0
  -27.9078  -22.7348   20.0196 C   0  0  0  0  0  0  0  0  0  0  0  0
  -24.7098  -34.1674   26.0001 C   0  0  0  0  0  0  0  0  0  0  0  0
  -30.3676  -12.1136   19.1285 C   0  0  0  0  0  0  0  0  0  0  0  0
  -25.8291  -33.1929   25.6477 C   0  0  0  0  0  0  0  0  0  0  0  0
  -29.0676  -11.3201   19.2790 C   0  0  0  0  0  0  0  0  0  0  0  0
  -30.3753  -13.3618   20.0093 C   0  0  0  0  0  0  0  0  0  0  0  0
  -27.9134  -13.4510   19.9957 C   0  0  0  0  0  0  0  0  0  0  0  0
  -26.4690  -33.5514   24.3010 C   0  0  1  0  0  0  0  0  0  0  0  0
  -24.6890  -31.6041   21.5674 C   0  0  1  0  0  0  0  0  0  0  0  0
  -27.8320  -12.2195   19.0791 C   0  0  2  0  0  0  0  0  0  0  0  0
  -17.6776  -28.3154   21.7361 C   0  0  0  0  0  0  0  0  0  0  0  0
  -22.7064  -30.3347   25.5446 C   0  0  0  0  0  0  0  0  0  0  0  0
  -20.5556  -29.0725   25.3230 C   0  0  0  0  0  0  0  0  0  0  0  0
  -20.6109  -31.5266   24.8793 C   0  0  0  0  0  0  0  0  0  0  0  0
  -19.9788  -28.6052   18.7200 C   0  0  0  0  0  0  0  0  0  0  0  0
  -21.6650  -29.9422   23.2149 C   0  0  1  0  0  0  0  0  0  0  0  0
  -18.8391  -28.8709   20.9266 C   0  0  2  0  0  0  0  0  0  0  0  0
  -21.4068  -30.2125   24.7241 C   0  0  0  0  0  0  0  0  0  0  0  0
  -25.9720  -11.4284   20.4918 N   0  0  0  0  0  0  0  0  0  0  0  0
  -26.5390  -11.4499   19.2736 N   0  0  0  0  0  0  0  0  0  0  0  0
  -27.0443  -21.6128   19.6962 N   0  0  0  0  0  0  0  0  0  0  0  0
  -23.7320  -30.5922   22.0197 N   0  0  0  0  0  0  0  0  0  0  0  0
  -29.1773  -14.1672   19.7625 N   0  0  0  0  0  0  0  0  0  0  0  0
  -26.2771  -10.6647   17.0542 N   0  0  0  0  0  0  0  0  0  0  0  0
  -22.6788   -8.9674   19.1913 N   0  0  0  0  0  0  0  0  0  0  0  0
  -28.1059  -16.1640   19.1087 N   0  0  0  0  0  0  0  0  0  0  0  0
  -25.6250  -33.1165   23.2088 N   0  0  0  0  0  0  0  0  0  0  0  0
  -20.4527  -29.8487   22.4087 N   0  0  0  0  0  0  0  0  0  0  0  0
  -18.8959  -28.1444   19.6267 N   0  3  0  0  0  0  0  0  0  0  0  0
  -24.7813  -22.0992   19.1844 O   0  0  0  0  0  0  0  0  0  0  0  0
  -23.7663   -9.0780   17.1754 O   0  0  0  0  0  0  0  0  0  0  0  0
  -26.3652  -30.9125   23.0797 O   0  0  0  0  0  0  0  0  0  0  0  0
  -22.1125  -32.1788   22.5641 O   0  0  0  0  0  0  0  0  0  0  0  0
  -20.8427  -27.7068   21.6104 O   0  0  0  0  0  0  0  0  0  0  0  0
  -30.4206  -16.0264   19.1781 O   0  0  0  0  0  0  0  0  0  0  0  0
  -21.4123   -9.6637   24.5715 O   0  0  0  0  0  0  0  0  0  0  0  0
  -27.2384  -25.8616   20.1816 O   0  0  0  0  0  0  0  0  0  1  0  0
  -19.6013   -4.4972   25.2284 F   0  0  0  0  0  0  0  0  0  0  0  0
  -29.5580  -20.5949   20.2417 F   0  0  0  0  0  0  0  0  0  0  0  0
  -21.9278   -8.2654   26.8999 F   0  0  0  0  0  0  0  0  0  0  0  0
  1  2  1  0  0  0  0
  1  5  2  0  0  0  0
  2  6  2  0  0  0  0
  3 10  2  0  0  0  0
  3 18  1  0  0  0  0
  4 11  1  0  0  0  0
  4 18  2  0  0  0  0
  5 20  1  0  0  0  0
  6 22  1  0  0  0  0
  7 12  2  0  0  0  0
  7 21  1  0  0  0  0
  8  9  2  0  0  0  0
  8 24  1  0  0  0  0
  9 25  1  0  0  0  0
 10 26  1  0  0  0  0
 11 26  2  0  0  0  0
 12 27  1  0  0  0  0
 13 14  2  0  0  0  0
 13 28  1  0  0  0  0
 14 29  1  0  0  0  0
 15 23  1  0  0  0  0
 15 27  2  0  0  0  0
 16 25  2  0  0  0  0
 16 30  1  0  0  0  0
 17 29  2  0  0  0  0
 17 31  1  0  0  0  0
 18 32  1  0  0  0  0
 19 32  1  0  0  0  0
 19 33  2  0  0  0  0
 19 37  1  0  0  0  0
 20 22  2  0  0  0  0
 20 42  1  0  0  0  0
 21 23  2  0  0  0  0
 21 43  1  0  0  0  0
 22 52  1  0  0  0  0
 23 44  1  0  0  0  0
 24 30  2  0  0  0  0
 24 65  1  0  0  0  0
 25 70  1  0  0  0  0
 26 80  1  0  0  0  0
 27 81  1  0  0  0  0
 28 31  2  0  0  0  0
 28 80  1  0  0  0  0
 29 82  1  0  0  0  0
 30 83  1  0  0  0  0
 31 84  1  0  0  0  0
 32 63  2  0  0  0  0
 33 64  1  0  0  0  0
 33 68  1  0  0  0  0
 34 35  1  0  0  0  0
 34 36  2  0  0  0  0
 34 45  1  0  0  0  0
 35 65  1  0  0  0  0
 35 74  2  0  0  0  0
 36 81  1  0  0  0  0
 37 69  1  0  0  0  0
 37 75  2  0  0  0  0
 38 53  1  0  0  0  0
 38 71  1  0  0  0  0
 38 76  2  0  0  0  0
 39 60  1  0  0  0  0
 39 66  1  0  0  0  0
 39 77  2  0  0  0  0
 40 61  1  0  0  0  0
 40 72  1  0  0  0  0
 40 78  2  0  0  0  0
 41 67  1  0  0  0  0
 41 70  1  0  0  0  0
 41 79  2  0  0  0  0
 42 46  1  0  0  0  0
 43 53  1  0  0  0  0
 44 66  1  0  0  0  0
 45 65  1  0  0  0  0
 46 48  1  0  0  0  0
 47 49  1  0  0  0  0
 47 50  1  0  0  0  0
 48 52  1  0  0  0  0
 49 54  1  0  0  0  0
 50 67  1  0  0  0  0
 51 54  1  0  0  0  0
 51 67  1  0  0  0  0
 52 71  1  0  0  0  0
 53 66  1  0  0  0  0
 54 64  1  0  0  0  0
 55 61  1  0  0  0  0
 56 62  1  0  0  0  0
 57 62  1  0  0  0  0
 58 62  1  0  0  0  0
 59 73  1  0  0  0  0
 60 62  1  0  0  0  0
 60 72  1  0  0  0  0
 61 73  1  0  0  0  0
 63 64  1  0  0  0  0
M  CHG  1  73   1
M  ISO  4  36 101  41 100  70 100  81 101
M  END
> <Batch ID>
0082

> <Smiles>
CNC(C)C(=O)NC(C(=O)N1Cc2cc([101O:1][101CH:1]=C3CN(c4ccc([100NH:0][100C:0](=O)N5CCCC(n6nc(-c7ccc(Oc8ccc(F)cc8F)cc7)c(C(N)=O)c6N)C5)cc4F)C3=O)ccc2CC1C(=O)NC1CCCc2ccccc21)C(C)(C)C

> <Shape>
0.297

> <Color>
0.088

> <Negative vol penalty>
0.000

$$$$

  -OEChem-04052300073D

 85 94  0     1  0  0  0  0  0999 V2000
  -29.3991  -31.3526   20.8942 C   0  0  0  0  0  0  0  0  0  0  0  0
  -29.1088  -29.9989   21.0311 C   0  0  0  0  0  0  0  0  0  0  0  0
  -29.2950  -17.5203   24.1129 C   0  0  0  0  0  0  0  0  0  0  0  0
  -22.9130  -10.1740   20.5174 C   0  0  0  0  0  0  0  0  0  0  0  0
  -24.4207   -9.1659   22.1135 C   0  0  0  0  0  0  0  0  0  0  0  0
  -29.9777  -16.3662   23.7286 C   0  0  0  0  0  0  0  0  0  0  0  0
  -28.4939  -32.3084   21.3535 C   0  0  0  0  0  0  0  0  0  0  0  0
  -27.9135  -29.6003   21.6284 C   0  0  0  0  0  0  0  0  0  0  0  0
  -25.6134  -25.8792   19.0773 C   0  0  0  0  0  0  0  0  0  0  0  0
  -28.7232  -18.3470   23.1458 C   0  0  0  0  0  0  0  0  0  0  0  0
  -22.1698   -8.9944   20.4744 C   0  0  0  0  0  0  0  0  0  0  0  0
  -23.6774   -7.9863   22.0706 C   0  0  0  0  0  0  0  0  0  0  0  0
  -26.1168  -24.5894   19.2408 C   0  0  0  0  0  0  0  0  0  0  0  0
  -21.9690   -4.8306   22.6547 C   0  0  0  0  0  0  0  0  0  0  0  0
  -21.6699   -4.2072   23.8661 C   0  0  0  0  0  0  0  0  0  0  0  0
  -29.5168  -16.8656   21.4102 C   0  0  0  0  0  0  0  0  0  0  0  0
  -24.3495  -24.1049   20.8096 C   0  0  0  0  0  0  0  0  0  0  0  0
  -27.2968  -19.5601   18.9571 C   0  0  0  0  0  0  0  0  0  0  0  0
  -20.4919   -6.1870   24.5941 C   0  0  0  0  0  0  0  0  0  0  0  0
  -28.1012  -20.2017   20.9599 C   0  0  0  0  0  0  0  0  0  0  0  0
  -24.0385  -10.2597   21.3369 C   0  0  0  0  0  0  0  0  0  0  0  0
  -30.0887  -16.0389   22.3773 C   0  0  0  0  0  0  0  0  0  0  0  0
  -24.6192  -12.5702   22.2490 C   0  0  0  0  0  0  0  0  0  0  0  0
  -27.2825  -31.9213   21.9480 C   0  0  0  0  0  0  0  0  0  0  0  0
  -24.4787  -26.2958   19.7882 C   0  0  0  0  0  0  0  0  0  0  0  0
  -26.9918  -30.5518   22.0973 C   0  0  0  0  0  0  0  0  0  0  0  0
  -23.8322  -25.3996   20.6514 C   0  0  0  0  0  0  0  0  0  0  0  0
  -27.5034  -20.6713   19.8113 C   0  0  0  0  0  0  0  0  0  0  0  0
  -28.8341  -18.0197   21.7945 C   0  0  0  0  0  0  0  0  0  0  0  0
  -22.5519   -7.9006   21.2510 C   0  0  0  0  0  0  0  0  0  0  0  0
  -25.4866  -23.7030   20.1092 C   0  0  0  0  0  0  0  0  0  0  0  0
  -21.5297   -6.1323   22.4130 C   0  0  0  0  0  0  0  0  0  0  0  0
  -20.9314   -4.8854   24.8358 C   0  0  0  0  0  0  0  0  0  0  0  0
  -20.7911   -6.8104   23.3827 C   0  0  0  0  0  0  0  0  0  0  0  0
  -24.8070  -11.4777   21.3813 C   0  0  0  0  0  0  0  0  0  0  0  0
  -25.5978  -13.4651   21.8912 C   0  0  0  0  0  0  0  0  0  0  0  0
  -27.7745  -18.4451   19.6099 C   0  0  0  0  0  0  0  0  0  0  0  0
  -30.8007  -14.8353   21.9779 C   0  0  0  0  0  0  0  0  0  0  0  0
  -23.6472  -12.7592   23.2859 C   0  0  0  0  0  0  0  0  0  0  0  0
  -30.9376  -14.4576   20.5525 C   0  0  0  0  0  0  0  0  0  0  0  0
  -23.8871  -28.5541   21.9454 C   0  0  0  0  0  0  0  0  0  0  0  0
  -20.8192  -27.5743   21.5579 C   0  0  0  0  0  0  0  0  0  0  0  0
  -18.6647  -25.0914   20.6413 C   0  0  0  0  0  0  0  0  0  0  0  0
  -26.3568  -32.9905   22.4719 C   0  0  0  0  0  0  0  0  0  0  0  0
  -23.9324  -27.6817   19.5805 C   0  0  0  0  0  0  0  0  0  0  0  0
  -22.5991  -25.7912   21.4225 C   0  0  0  0  0  0  0  0  0  0  0  0
  -24.9435  -32.4875   22.7544 C   0  0  0  0  0  0  0  0  0  0  0  0
  -28.6957  -13.5538   17.9042 C   0  0  0  0  0  0  0  0  0  0  0  0
  -24.9890  -31.1738   23.5282 C   0  0  0  0  0  0  0  0  0  0  0  0
  -27.4850  -12.9867   18.6446 C   0  0  0  0  0  0  0  0  0  0  0  0
  -29.9965  -13.2331   18.6332 C   0  0  0  0  0  0  0  0  0  0  0  0
  -28.8046  -13.1204   20.8047 C   0  0  0  0  0  0  0  0  0  0  0  0
  -25.6945  -30.0800   22.7173 C   0  0  1  0  0  0  0  0  0  0  0  0
  -23.0726  -28.1656   20.7441 C   0  0  1  0  0  0  0  0  0  0  0  0
  -27.4699  -13.4480   20.1129 C   0  0  2  0  0  0  0  0  0  0  0  0
  -16.2155  -24.5729   20.4683 C   0  0  0  0  0  0  0  0  0  0  0  0
  -20.6853  -27.2094   24.5842 C   0  0  0  0  0  0  0  0  0  0  0  0
  -18.6232  -25.8279   24.2564 C   0  0  0  0  0  0  0  0  0  0  0  0
  -18.6398  -28.2245   23.5643 C   0  0  0  0  0  0  0  0  0  0  0  0
  -18.8422  -24.6684   17.7175 C   0  0  0  0  0  0  0  0  0  0  0  0
  -27.1392  -22.0974   19.5199 C   0  0  0  0  0  0  0  0  0  1  0  0
  -19.9394  -26.5332   22.2068 C   0  0  1  0  0  0  0  0  0  0  0  0
  -17.4426  -25.0998   19.7408 C   0  0  2  0  0  0  0  0  0  0  0  0
  -19.4963  -26.9417   23.6400 C   0  0  0  0  0  0  0  0  0  0  0  0
  -25.8248  -11.6598   20.5357 N   0  0  0  0  0  0  0  0  0  0  0  0
  -31.3609  -14.0185   22.8288 N   0  0  0  0  0  0  0  0  0  0  0  0
  -28.2608  -18.8471   20.8265 N   0  0  0  0  0  0  0  0  0  0  0  0
  -26.2852  -12.8772   20.8704 N   0  0  0  0  0  0  0  0  0  0  0  0
  -29.9351  -13.6510   20.0324 N   0  0  0  0  0  0  0  0  0  0  0  0
  -22.1070  -27.1592   21.1902 N   0  0  0  0  0  0  0  0  0  0  0  0
  -25.9286  -14.6896   22.3532 N   0  0  0  0  0  0  0  0  0  0  0  0
  -22.7148  -11.7396   23.5216 N   0  0  0  0  0  0  0  0  0  0  0  0
  -24.8090  -29.5540   21.7007 N   0  0  0  0  0  0  0  0  0  0  0  0
  -18.8342  -26.2998   21.2834 N   0  0  0  0  0  0  0  0  0  0  0  0
  -17.6782  -24.2493   18.5399 N   0  3  0  0  0  0  0  0  0  0  0  0
  -23.5963  -13.8082   23.9718 O   0  0  0  0  0  0  0  0  0  0  0  0
  -31.9266  -14.8996   19.9825 O   0  0  0  0  0  0  0  0  0  0  0  0
  -23.6926  -27.9896   23.0155 O   0  0  0  0  0  0  0  0  0  0  0  0
  -20.3776  -28.7118   21.3772 O   0  0  0  0  0  0  0  0  0  0  0  0
  -19.3937  -24.1098   20.7657 O   0  0  0  0  0  0  0  0  0  0  0  0
  -27.8084  -17.1731   19.2315 O   0  0  0  0  0  0  0  0  0  0  0  0
  -21.8268   -6.7495   21.2095 O   0  0  0  0  0  0  0  0  0  0  0  0
  -25.9763  -22.4437   20.2711 O   0  0  0  0  0  0  0  0  0  1  0  0
  -20.6429   -4.2860   25.9984 F   0  0  0  0  0  0  0  0  0  0  0  0
  -20.3653   -8.0606   23.1557 F   0  0  0  0  0  0  0  0  0  0  0  0
  1  2  1  0  0  0  0
  1  7  2  0  0  0  0
  2  8  2  0  0  0  0
  3  6  1  0  0  0  0
  3 10  2  0  0  0  0
  4 11  2  0  0  0  0
  4 21  1  0  0  0  0
  5 12  1  0  0  0  0
  5 21  2  0  0  0  0
  6 22  2  0  0  0  0
  7 24  1  0  0  0  0
  8 26  1  0  0  0  0
  9 13  2  0  0  0  0
  9 25  1  0  0  0  0
 10 29  1  0  0  0  0
 11 30  1  0  0  0  0
 12 30  2  0  0  0  0
 13 31  1  0  0  0  0
 14 15  2  0  0  0  0
 14 32  1  0  0  0  0
 15 33  1  0  0  0  0
 16 22  1  0  0  0  0
 16 29  2  0  0  0  0
 17 27  1  0  0  0  0
 17 31  2  0  0  0  0
 18 28  1  0  0  0  0
 18 37  2  0  0  0  0
 19 33  2  0  0  0  0
 19 34  1  0  0  0  0
 20 28  2  0  0  0  0
 20 67  1  0  0  0  0
 21 35  1  0  0  0  0
 22 38  1  0  0  0  0
 23 35  1  0  0  0  0
 23 36  2  0  0  0  0
 23 39  1  0  0  0  0
 24 26  2  0  0  0  0
 24 44  1  0  0  0  0
 25 27  2  0  0  0  0
 25 45  1  0  0  0  0
 26 53  1  0  0  0  0
 27 46  1  0  0  0  0
 28 61  1  0  0  0  0
 29 67  1  0  0  0  0
 30 82  1  0  0  0  0
 31 83  1  0  0  0  0
 32 34  2  0  0  0  0
 32 82  1  0  0  0  0
 33 84  1  0  0  0  0
 34 85  1  0  0  0  0
 35 65  2  0  0  0  0
 36 68  1  0  0  0  0
 36 71  1  0  0  0  0
 37 67  1  0  0  0  0
 37 81  1  0  0  0  0
 38 40  1  0  0  0  0
 38 66  2  0  0  0  0
 39 72  1  0  0  0  0
 39 76  2  0  0  0  0
 40 69  1  0  0  0  0
 40 77  2  0  0  0  0
 41 54  1  0  0  0  0
 41 73  1  0  0  0  0
 41 78  2  0  0  0  0
 42 62  1  0  0  0  0
 42 70  1  0  0  0  0
 42 79  2  0  0  0  0
 43 63  1  0  0  0  0
 43 74  1  0  0  0  0
 43 80  2  0  0  0  0
 44 47  1  0  0  0  0
 45 54  1  0  0  0  0
 46 70  1  0  0  0  0
 47 49  1  0  0  0  0
 48 50  1  0  0  0  0
 48 51  1  0  0  0  0
 49 53  1  0  0  0  0
 50 55  1  0  0  0  0
 51 69  1  0  0  0  0
 52 55  1  0  0  0  0
 52 69  1  0  0  0  0
 53 73  1  0  0  0  0
 54 70  1  0  0  0  0
 55 68  1  0  0  0  0
 56 63  1  0  0  0  0
 57 64  1  0  0  0  0
 58 64  1  0  0  0  0
 59 64  1  0  0  0  0
 60 75  1  0  0  0  0
 61 83  1  0  0  0  0
 62 64  1  0  0  0  0
 62 74  1  0  0  0  0
 63 75  1  0  0  0  0
 65 68  1  0  0  0  0
M  CHG  1  75   1
M  ISO  4  38 100  40 100  61 101  83 101
M  END
> <Batch ID>
0082

> <Smiles>
CNC(C)C(=O)NC(C(=O)N1Cc2cc([101O:1][101CH2:1]C3=CN(c4cccc([100C:0](=N)[100C:0](=O)N5CCCC(n6nc(-c7ccc(Oc8ccc(F)cc8F)cc7)c(C(N)=O)c6N)C5)c4)C(=O)C3)ccc2CC1C(=O)NC1CCCc2ccccc21)C(C)(C)C

> <Shape>
0.325

> <Color>
0.119

> <Negative vol penalty>
0.000

$$$$

  -OEChem-04052300073D

 89 98  0     1  0  0  0  0  0999 V2000
  -26.9819  -10.5384   18.3855 C   0  0  0  0  0  0  0  0  0  0  0  0
  -27.3458  -11.7828   17.8812 C   0  0  0  0  0  0  0  0  0  0  0  0
  -29.6595  -29.3588   20.2626 C   0  0  0  0  0  0  0  0  0  0  0  0
  -28.4995  -29.9367   20.7792 C   0  0  0  0  0  0  0  0  0  0  0  0
  -25.9578  -27.3828   19.8864 C   0  0  0  0  0  0  0  0  0  0  0  0
  -19.8567  -20.8231   22.7891 C   0  0  0  0  0  0  0  0  0  0  0  0
  -18.0279  -20.9322   21.2142 C   0  0  0  0  0  0  0  0  0  0  0  0
  -24.7979  -27.9608   20.4031 C   0  0  0  0  0  0  0  0  0  0  0  0
  -26.0940  -10.4543   19.4572 C   0  0  0  0  0  0  0  0  0  0  0  0
  -26.8210  -12.9439   18.4475 C   0  0  0  0  0  0  0  0  0  0  0  0
  -29.6555  -18.3351   19.0853 C   0  0  0  0  0  0  0  0  0  0  0  0
  -29.5971  -28.1257   19.6203 C   0  0  0  0  0  0  0  0  0  0  0  0
  -19.3770  -19.6016   23.2616 C   0  0  0  0  0  0  0  0  0  0  0  0
  -17.5481  -19.7106   21.6867 C   0  0  0  0  0  0  0  0  0  0  0  0
  -29.6178  -19.5092   18.3345 C   0  0  0  0  0  0  0  0  0  0  0  0
  -19.4268  -16.3626   22.2922 C   0  0  0  0  0  0  0  0  0  0  0  0
  -20.3498  -15.3351   22.4865 C   0  0  0  0  0  0  0  0  0  0  0  0
  -26.0829  -29.8537   21.1735 C   0  0  0  0  0  0  0  0  0  0  0  0
  -27.9590  -20.4095   19.8369 C   0  0  0  0  0  0  0  0  0  0  0  0
  -19.7611  -15.2492   24.8282 C   0  0  0  0  0  0  0  0  0  0  0  0
  -27.2604  -29.2867   20.6594 C   0  0  0  0  0  0  0  0  0  0  0  0
  -27.1970  -28.0328   20.0062 C   0  0  0  0  0  0  0  0  0  0  0  0
  -19.1821  -21.4885   21.7654 C   0  0  0  0  0  0  0  0  0  0  0  0
  -24.8603  -29.1939   21.0454 C   0  0  0  0  0  0  0  0  0  0  0  0
  -20.5925  -22.9563   20.2280 C   0  0  0  0  0  0  0  0  0  0  0  0
  -25.5656  -11.6153   20.0432 C   0  0  0  0  0  0  0  0  0  0  0  0
  -28.8359  -18.1848   20.2131 C   0  0  0  0  0  0  0  0  0  0  0  0
  -25.9241  -12.8753   19.5271 C   0  0  0  0  0  0  0  0  0  0  0  0
  -27.9900  -19.2334   20.6017 C   0  0  0  0  0  0  0  0  0  0  0  0
  -28.3746  -27.4659   19.4922 C   0  0  0  0  0  0  0  0  0  0  0  0
  -18.2227  -19.0453   22.7104 C   0  0  0  0  0  0  0  0  0  0  0  0
  -28.7674  -20.5455   18.7086 C   0  0  0  0  0  0  0  0  0  0  0  0
  -18.6710  -16.8336   23.3658 C   0  0  0  0  0  0  0  0  0  0  0  0
  -20.5170  -14.7784   23.7545 C   0  0  0  0  0  0  0  0  0  0  0  0
  -18.8381  -16.2768   24.6338 C   0  0  0  0  0  0  0  0  0  0  0  0
  -19.6769  -22.7506   21.2773 C   0  0  0  0  0  0  0  0  0  0  0  0
  -20.7333  -24.3208   20.1577 C   0  0  0  0  0  0  0  0  0  0  0  0
  -29.0501  -22.8649   18.6012 C   0  0  0  0  0  0  0  0  0  1  0  0
  -23.6242  -29.8082   21.5945 C   0  0  0  0  0  0  0  0  0  0  0  0
  -21.2564  -21.9996   19.3915 C   0  0  0  0  0  0  0  0  0  0  0  0
  -29.0499  -24.0592   17.9936 C   0  0  0  0  0  0  0  0  0  0  0  0
  -29.3938  -25.2772   18.7959 C   0  0  0  0  0  0  0  0  0  0  0  0
  -26.4923  -16.2006   21.0345 C   0  0  0  0  0  0  0  0  0  0  0  0
  -26.7172  -17.7362   23.8830 C   0  0  0  0  0  0  0  0  0  0  0  0
  -27.6383  -20.5388   25.5988 C   0  0  0  0  0  0  0  0  0  0  0  0
  -21.3965  -29.2815   22.5344 C   0  0  0  0  0  0  0  0  0  0  0  0
  -24.5725  -11.4726   21.1693 C   0  0  0  0  0  0  0  0  0  0  0  0
  -28.9079  -16.9224   21.0278 C   0  0  0  0  0  0  0  0  0  0  0  0
  -27.1049  -19.1299   21.8159 C   0  0  0  0  0  0  0  0  0  0  0  0
  -24.3525  -12.7631   21.9546 C   0  0  0  0  0  0  0  0  0  0  0  0
  -18.0950  -28.0267   22.3846 C   0  0  0  0  0  0  0  0  0  0  0  0
  -24.1540  -13.9393   21.0038 C   0  0  0  0  0  0  0  0  0  0  0  0
  -18.2838  -26.5597   21.9889 C   0  0  0  0  0  0  0  0  0  0  0  0
  -19.1867  -28.5010   23.3428 C   0  0  0  0  0  0  0  0  0  0  0  0
  -20.7476  -26.7965   22.4965 C   0  0  0  0  0  0  0  0  0  0  0  0
  -25.3954  -14.1584   20.1306 C   0  0  1  0  0  0  0  0  0  0  0  0
  -27.6536  -16.6764   21.8607 C   0  0  1  0  0  0  0  0  0  0  0  0
  -19.7135  -26.2914   21.4774 C   0  0  1  0  0  0  0  0  0  0  0  0
  -28.6688  -24.2928   16.5647 C   0  0  0  0  0  0  0  0  0  0  0  0
  -27.6642  -21.5134   27.9111 C   0  0  0  0  0  0  0  0  0  0  0  0
  -23.7211  -18.2783   23.6854 C   0  0  0  0  0  0  0  0  0  0  0  0
  -23.9883  -20.0149   25.4688 C   0  0  0  0  0  0  0  0  0  0  0  0
  -24.5153  -17.6279   25.9659 C   0  0  0  0  0  0  0  0  0  0  0  0
  -30.5892  -20.7653   25.5957 C   0  0  0  0  0  0  0  0  0  0  0  0
  -26.0772  -18.9609   24.4908 C   0  0  1  0  0  0  0  0  0  0  0  0
  -28.4431  -20.7207   26.8730 C   0  0  2  0  0  0  0  0  0  0  0  0
  -24.5906  -18.7220   24.8787 C   0  0  0  0  0  0  0  0  0  0  0  0
  -19.2652  -23.8929   21.8337 N   0  0  0  0  0  0  0  0  0  0  0  0
  -19.9252  -24.8295   21.1315 N   0  0  0  0  0  0  0  0  0  0  0  0
  -27.2066  -17.8733   22.5763 N   0  0  0  0  0  0  0  0  0  0  0  0
  -20.5091  -28.2195   22.7813 N   0  0  0  0  0  0  0  0  0  0  0  0
  -21.4684  -25.1230   19.3586 N   0  0  0  0  0  0  0  0  0  0  0  0
  -20.9978  -20.6378   19.5987 N   0  0  0  0  0  0  0  0  0  0  0  0
  -28.3718  -26.2151   18.8279 N   0  0  0  0  0  0  0  0  0  0  0  0
  -22.6172  -28.9136   21.9578 N   0  0  0  0  0  0  0  0  0  0  0  0
  -26.4326  -14.8281   20.8857 N   0  0  0  0  0  0  0  0  0  0  0  0
  -26.9299  -19.3558   25.6067 N   0  0  0  0  0  0  0  0  0  0  0  0
  -29.7132  -21.4451   26.5844 N   0  3  0  0  0  0  0  0  0  0  0  0
  -23.5725  -31.0274   21.7320 O   0  0  0  0  0  0  0  0  0  0  0  0
  -22.0678  -22.3414   18.4980 O   0  0  0  0  0  0  0  0  0  0  0  0
  -30.4742  -25.3230   19.3760 O   0  0  0  0  0  0  0  0  0  0  0  0
  -25.7076  -17.0181   20.5679 O   0  0  0  0  0  0  0  0  0  0  0  0
  -26.7870  -16.6982   24.5459 O   0  0  0  0  0  0  0  0  0  0  0  0
  -27.6352  -21.3652   24.6891 O   0  0  0  0  0  0  0  0  0  0  0  0
  -21.1121  -30.4598   22.7714 O   0  0  0  0  0  0  0  0  0  0  0  0
  -17.7544  -17.8532   23.1711 O   0  0  0  0  0  0  0  0  0  0  0  0
  -28.7282  -21.6924   17.9772 O   0  0  0  0  0  0  0  0  0  1  0  0
  -21.4023  -13.7906   23.9407 F   0  0  0  0  0  0  0  0  0  0  0  0
  -18.1140  -16.7242   25.6688 F   0  0  0  0  0  0  0  0  0  0  0  0
  1  2  1  0  0  0  0
  1  9  2  0  0  0  0
  2 10  2  0  0  0  0
  3  4  1  0  0  0  0
  3 12  2  0  0  0  0
  4 21  2  0  0  0  0
  5  8  2  0  0  0  0
  5 22  1  0  0  0  0
  6 13  2  0  0  0  0
  6 23  1  0  0  0  0
  7 14  1  0  0  0  0
  7 23  2  0  0  0  0
  8 24  1  0  0  0  0
  9 26  1  0  0  0  0
 10 28  1  0  0  0  0
 11 15  2  0  0  0  0
 11 27  1  0  0  0  0
 12 30  1  0  0  0  0
 13 31  1  0  0  0  0
 14 31  2  0  0  0  0
 15 32  1  0  0  0  0
 16 17  2  0  0  0  0
 16 33  1  0  0  0  0
 17 34  1  0  0  0  0
 18 21  1  0  0  0  0
 18 24  2  0  0  0  0
 19 29  1  0  0  0  0
 19 32  2  0  0  0  0
 20 34  2  0  0  0  0
 20 35  1  0  0  0  0
 21 22  1  0  0  0  0
 22 30  2  0  0  0  0
 23 36  1  0  0  0  0
 24 39  1  0  0  0  0
 25 36  1  0  0  0  0
 25 37  2  0  0  0  0
 25 40  1  0  0  0  0
 26 28  2  0  0  0  0
 26 47  1  0  0  0  0
 27 29  2  0  0  0  0
 27 48  1  0  0  0  0
 28 56  1  0  0  0  0
 29 49  1  0  0  0  0
 30 74  1  0  0  0  0
 31 86  1  0  0  0  0
 32 87  1  0  0  0  0
 33 35  2  0  0  0  0
 33 86  1  0  0  0  0
 34 88  1  0  0  0  0
 35 89  1  0  0  0  0
 36 68  2  0  0  0  0
 37 69  1  0  0  0  0
 37 72  1  0  0  0  0
 38 41  2  0  0  0  0
 38 87  1  0  0  0  0
 39 75  1  0  0  0  0
 39 79  2  0  0  0  0
 40 73  1  0  0  0  0
 40 80  2  0  0  0  0
 41 42  1  0  0  0  0
 41 59  1  0  0  0  0
 42 74  1  0  0  0  0
 42 81  2  0  0  0  0
 43 57  1  0  0  0  0
 43 76  1  0  0  0  0
 43 82  2  0  0  0  0
 44 65  1  0  0  0  0
 44 70  1  0  0  0  0
 44 83  2  0  0  0  0
 45 66  1  0  0  0  0
 45 77  1  0  0  0  0
 45 84  2  0  0  0  0
 46 71  1  0  0  0  0
 46 75  1  0  0  0  0
 46 85  2  0  0  0  0
 47 50  1  0  0  0  0
 48 57  1  0  0  0  0
 49 70  1  0  0  0  0
 50 52  1  0  0  0  0
 51 53  1  0  0  0  0
 51 54  1  0  0  0  0
 52 56  1  0  0  0  0
 53 58  1  0  0  0  0
 54 71  1  0  0  0  0
 55 58  1  0  0  0  0
 55 71  1  0  0  0  0
 56 76  1  0  0  0  0
 57 70  1  0  0  0  0
 58 69  1  0  0  0  0
 60 66  1  0  0  0  0
 61 67  1  0  0  0  0
 62 67  1  0  0  0  0
 63 67  1  0  0  0  0
 64 78  1  0  0  0  0
 65 67  1  0  0  0  0
 65 77  1  0  0  0  0
 66 78  1  0  0  0  0
 68 69  1  0  0  0  0
M  CHG  1  78   1
M  ISO  4  38 101  46 100  75 100  87 101
M  END
> <Batch ID>
0082

> <Smiles>
CNC(C)C(=O)NC(C(=O)N1Cc2cc([101O:1][101CH:1]=C(C)C(=O)Nc3cccc4cc(C(=O)[100NH:0][100C:0](=O)N5CCCC(n6nc(-c7ccc(Oc8ccc(F)cc8F)cc7)c(C(N)=O)c6N)C5)ccc34)ccc2CC1C(=O)NC1CCCc2ccccc21)C(C)(C)C

> <Shape>
0.234

> <Color>
0.073

> <Negative vol penalty>
0.000

$$$$

  -OEChem-04052300073D

 85 94  0     1  0  0  0  0  0999 V2000
  -29.1681  -34.0728   24.6231 C   0  0  0  0  0  0  0  0  0  0  0  0
  -29.4757  -32.7399   24.3701 C   0  0  0  0  0  0  0  0  0  0  0  0
  -22.7323  -11.8562   18.8047 C   0  0  0  0  0  0  0  0  0  0  0  0
  -22.9360  -10.0401   20.3850 C   0  0  0  0  0  0  0  0  0  0  0  0
  -29.4191  -15.9501   21.6500 C   0  0  0  0  0  0  0  0  0  0  0  0
  -27.8414  -34.4998   24.5875 C   0  0  0  0  0  0  0  0  0  0  0  0
  -28.4564  -31.8328   24.0826 C   0  0  0  0  0  0  0  0  0  0  0  0
  -28.7464  -27.0606   20.2554 C   0  0  0  0  0  0  0  0  0  0  0  0
  -28.8385  -17.1160   22.1493 C   0  0  0  0  0  0  0  0  0  0  0  0
  -21.6670  -11.2001   18.1880 C   0  0  0  0  0  0  0  0  0  0  0  0
  -21.8706   -9.3840   19.7684 C   0  0  0  0  0  0  0  0  0  0  0  0
  -28.9582  -25.6991   20.4681 C   0  0  0  0  0  0  0  0  0  0  0  0
  -18.4972   -9.5847   19.7524 C   0  0  0  0  0  0  0  0  0  0  0  0
  -17.5173   -9.0286   20.5746 C   0  0  0  0  0  0  0  0  0  0  0  0
  -26.5739  -25.3324   20.4548 C   0  0  0  0  0  0  0  0  0  0  0  0
  -29.6617  -18.3442   20.2387 C   0  0  0  0  0  0  0  0  0  0  0  0
  -17.9898   -6.8431   19.6594 C   0  0  0  0  0  0  0  0  0  0  0  0
  -23.3669  -11.2761   19.9031 C   0  0  0  0  0  0  0  0  0  0  0  0
  -30.1210  -15.9812   20.4451 C   0  0  0  0  0  0  0  0  0  0  0  0
  -24.3995  -12.8716   21.6048 C   0  0  0  0  0  0  0  0  0  0  0  0
  -26.8062  -33.5996   24.2899 C   0  0  0  0  0  0  0  0  0  0  0  0
  -27.4444  -27.5707   20.1514 C   0  0  0  0  0  0  0  0  0  0  0  0
  -27.1143  -32.2479   24.0444 C   0  0  0  0  0  0  0  0  0  0  0  0
  -26.3484  -26.7003   20.2382 C   0  0  0  0  0  0  0  0  0  0  0  0
  -28.9599  -18.3130   21.4436 C   0  0  0  0  0  0  0  0  0  0  0  0
  -30.2424  -17.1783   19.7394 C   0  0  0  0  0  0  0  0  0  0  0  0
  -21.2361   -9.9641   18.6699 C   0  0  0  0  0  0  0  0  0  0  0  0
  -27.8718  -24.8352   20.5708 C   0  0  0  0  0  0  0  0  0  0  0  0
  -19.2234   -8.7701   18.8836 C   0  0  0  0  0  0  0  0  0  0  0  0
  -17.2636   -7.6578   20.5281 C   0  0  0  0  0  0  0  0  0  0  0  0
  -18.9697   -7.3993   18.8371 C   0  0  0  0  0  0  0  0  0  0  0  0
  -24.4678  -11.9531   20.5402 C   0  0  0  0  0  0  0  0  0  0  0  0
  -25.7065  -13.2220   21.8404 C   0  0  0  0  0  0  0  0  0  0  0  0
  -27.6859  -21.6528   22.2122 C   0  0  0  0  0  0  0  0  0  0  0  0
  -27.1902  -20.9276   23.3549 C   0  0  0  0  0  0  0  0  0  0  0  0
  -28.4400  -20.7323   21.3162 C   0  0  0  0  0  0  0  0  0  0  0  0
  -26.4701  -21.3894   24.3829 C   0  0  0  0  0  0  0  0  0  0  0  0
  -27.5484  -22.9432   21.9075 C   0  0  0  0  0  0  0  0  0  1  0  0
  -30.7195  -14.7362   19.9465 C   0  0  0  0  0  0  0  0  0  0  0  0
  -23.2568  -13.3640   22.3172 C   0  0  0  0  0  0  0  0  0  0  0  0
  -25.7148  -29.6600   21.8090 C   0  0  0  0  0  0  0  0  0  0  0  0
  -23.5799  -29.2057   19.4094 C   0  0  0  0  0  0  0  0  0  0  0  0
  -22.4055  -27.1886   16.9196 C   0  0  0  0  0  0  0  0  0  0  0  0
  -25.3828  -34.0978   24.3096 C   0  0  0  0  0  0  0  0  0  0  0  0
  -27.2335  -29.0378   19.8952 C   0  0  0  0  0  0  0  0  0  0  0  0
  -24.9312  -27.1948   20.1133 C   0  0  0  0  0  0  0  0  0  0  0  0
  -27.6328  -19.5043   23.1977 C   0  0  0  0  0  0  0  0  0  0  0  0
  -24.3970  -33.1521   23.6284 C   0  0  0  0  0  0  0  0  0  0  0  0
  -30.0247  -11.2387   20.1093 C   0  0  0  0  0  0  0  0  0  0  0  0
  -24.6322  -31.7159   24.0856 C   0  0  0  0  0  0  0  0  0  0  0  0
  -28.5084  -11.1844   20.3039 C   0  0  0  0  0  0  0  0  0  0  0  0
  -30.4355  -12.3962   19.2026 C   0  0  0  0  0  0  0  0  0  0  0  0
  -28.4092  -13.6664   19.8235 C   0  0  0  0  0  0  0  0  0  0  0  0
  -26.0388  -31.2390   23.7044 C   0  0  1  0  0  0  0  0  0  0  0  0
  -25.8515  -29.5257   20.3187 C   0  0  1  0  0  0  0  0  0  0  0  0
  -27.9571  -12.5442   20.7724 C   0  0  1  0  0  0  0  0  0  0  0  0
  -20.6264  -27.0712   15.1537 C   0  0  0  0  0  0  0  0  0  0  0  0
  -21.5029  -28.5575   21.5485 C   0  0  0  0  0  0  0  0  0  0  0  0
  -20.0745  -27.5485   19.7569 C   0  0  0  0  0  0  0  0  0  0  0  0
  -20.6570  -29.9725   19.6679 C   0  0  0  0  0  0  0  0  0  0  0  0
  -24.4092  -27.0452   14.7461 C   0  0  0  0  0  0  0  0  0  0  0  0
  -22.4375  -28.2505   19.1614 C   0  0  1  0  0  0  0  0  0  0  0  0
  -22.0578  -27.4759   15.4701 C   0  0  2  0  0  0  0  0  0  0  0  0
  -21.1945  -28.5729   20.0380 C   0  0  0  0  0  0  0  0  0  0  0  0
  -25.7191  -11.7339   20.1278 N   0  0  0  0  0  0  0  0  0  0  0  0
  -26.4492  -12.5197   20.9374 N   0  0  0  0  0  0  0  0  0  0  0  0
  -28.3803  -19.4755   21.9421 N   0  0  0  0  0  0  0  0  0  0  0  0
  -29.8724  -13.6566   19.6853 N   0  0  0  0  0  0  0  0  0  0  0  0
  -24.7767  -28.6384   19.8695 N   0  0  0  0  0  0  0  0  0  0  0  0
  -30.9479  -17.2308   18.5166 N   0  0  0  0  0  0  0  0  0  0  0  0
  -26.2813  -14.0594   22.7296 N   0  0  0  0  0  0  0  0  0  0  0  0
  -21.9873  -12.9000   21.9465 N   0  0  0  0  0  0  0  0  0  0  0  0
  -26.0926  -30.8953   22.2996 N   0  0  0  0  0  0  0  0  0  0  0  0
  -22.1812  -28.2846   17.7256 N   0  0  0  0  0  0  0  0  0  0  0  0
  -22.9700  -26.7270   14.5603 N   0  3  0  0  0  0  0  0  0  0  0  0
  -28.9826  -21.0379   20.2675 O   0  0  0  0  0  0  0  0  0  0  0  0
  -31.9417  -14.7385   19.8072 O   0  0  0  0  0  0  0  0  0  0  0  0
  -23.3571  -14.2034   23.2440 O   0  0  0  0  0  0  0  0  0  0  0  0
  -25.2962  -28.7134   22.4650 O   0  0  0  0  0  0  0  0  0  0  0  0
  -23.4186  -30.4098   19.1956 O   0  0  0  0  0  0  0  0  0  0  0  0
  -22.8300  -26.0995   17.2995 O   0  0  0  0  0  0  0  0  0  0  0  0
  -20.1965   -9.3237   18.0685 O   0  0  0  0  0  0  0  0  0  0  0  0
  -28.0756  -23.5059   20.7791 O   0  0  0  0  0  0  0  0  0  1  0  0
  -16.3236   -7.1236   21.3188 F   0  0  0  0  0  0  0  0  0  0  0  0
  -19.6649   -6.6115   18.0054 F   0  0  0  0  0  0  0  0  0  0  0  0
  1  2  1  0  0  0  0
  1  6  2  0  0  0  0
  2  7  2  0  0  0  0
  3 10  2  0  0  0  0
  3 18  1  0  0  0  0
  4 11  1  0  0  0  0
  4 18  2  0  0  0  0
  5  9  2  0  0  0  0
  5 19  1  0  0  0  0
  6 21  1  0  0  0  0
  7 23  1  0  0  0  0
  8 12  2  0  0  0  0
  8 22  1  0  0  0  0
  9 25  1  0  0  0  0
 10 27  1  0  0  0  0
 11 27  2  0  0  0  0
 12 28  1  0  0  0  0
 13 14  2  0  0  0  0
 13 29  1  0  0  0  0
 14 30  1  0  0  0  0
 15 24  1  0  0  0  0
 15 28  2  0  0  0  0
 16 25  2  0  0  0  0
 16 26  1  0  0  0  0
 17 30  2  0  0  0  0
 17 31  1  0  0  0  0
 18 32  1  0  0  0  0
 19 26  2  0  0  0  0
 19 39  1  0  0  0  0
 20 32  1  0  0  0  0
 20 33  2  0  0  0  0
 20 40  1  0  0  0  0
 21 23  2  0  0  0  0
 21 44  1  0  0  0  0
 22 24  2  0  0  0  0
 22 45  1  0  0  0  0
 23 54  1  0  0  0  0
 24 46  1  0  0  0  0
 25 67  1  0  0  0  0
 26 70  1  0  0  0  0
 27 82  1  0  0  0  0
 28 83  1  0  0  0  0
 29 31  2  0  0  0  0
 29 82  1  0  0  0  0
 30 84  1  0  0  0  0
 31 85  1  0  0  0  0
 32 65  2  0  0  0  0
 33 66  1  0  0  0  0
 33 71  1  0  0  0  0
 34 35  1  0  0  0  0
 34 36  1  0  0  0  0
 34 38  2  0  0  0  0
 35 37  2  0  0  0  0
 35 47  1  0  0  0  0
 36 67  1  0  0  0  0
 36 76  2  0  0  0  0
 38 83  1  0  0  0  0
 39 68  1  0  0  0  0
 39 77  2  0  0  0  0
 40 72  1  0  0  0  0
 40 78  2  0  0  0  0
 41 55  1  0  0  0  0
 41 73  1  0  0  0  0
 41 79  2  0  0  0  0
 42 62  1  0  0  0  0
 42 69  1  0  0  0  0
 42 80  2  0  0  0  0
 43 63  1  0  0  0  0
 43 74  1  0  0  0  0
 43 81  2  0  0  0  0
 44 48  1  0  0  0  0
 45 55  1  0  0  0  0
 46 69  1  0  0  0  0
 47 67  1  0  0  0  0
 48 50  1  0  0  0  0
 49 51  1  0  0  0  0
 49 52  1  0  0  0  0
 50 54  1  0  0  0  0
 51 56  1  0  0  0  0
 52 68  1  0  0  0  0
 53 56  1  0  0  0  0
 53 68  1  0  0  0  0
 54 73  1  0  0  0  0
 55 69  1  0  0  0  0
 56 66  1  0  0  0  0
 57 63  1  0  0  0  0
 58 64  1  0  0  0  0
 59 64  1  0  0  0  0
 60 64  1  0  0  0  0
 61 75  1  0  0  0  0
 62 64  1  0  0  0  0
 62 74  1  0  0  0  0
 63 75  1  0  0  0  0
 65 66  1  0  0  0  0
M  CHG  1  75   1
M  ISO  4  19 100  38 101  39 100  83 101
M  END
> <Batch ID>
0082

> <Smiles>
C=C1CN(c2cc[100c:0]([100C:0](=O)N3CCCC(n4nc(-c5ccc(Oc6ccc(F)cc6F)cc5)c(C(N)=O)c4N)C3)c(N)c2)C(=O)C1=[101CH:1][101O:1]c1ccc2c(c1)CN(C(=O)C(NC(=O)C(C)NC)C(C)(C)C)C(C(=O)NC1CCCc3ccccc31)C2

> <Shape>
0.278

> <Color>
0.115

> <Negative vol penalty>
0.000

$$$$

  -OEChem-04052300073D

 86 95  0     1  0  0  0  0  0999 V2000
  -22.4081   -8.4758   20.7304 C   0  0  0  0  0  0  0  0  0  0  0  0
  -21.8128   -9.7323   20.7773 C   0  0  0  0  0  0  0  0  0  0  0  0
  -18.0392  -27.7961   22.0346 C   0  0  0  0  0  0  0  0  0  0  0  0
  -29.9858  -28.4441   20.6715 C   0  0  0  0  0  0  0  0  0  0  0  0
  -28.5956  -27.3070   22.2874 C   0  0  0  0  0  0  0  0  0  0  0  0
  -18.1746  -26.4310   22.2870 C   0  0  0  0  0  0  0  0  0  0  0  0
  -23.7133   -8.3064   21.1905 C   0  0  0  0  0  0  0  0  0  0  0  0
  -22.5219  -10.8200   21.2856 C   0  0  0  0  0  0  0  0  0  0  0  0
  -22.1897  -16.6372   19.4002 C   0  0  0  0  0  0  0  0  0  0  0  0
  -19.1433  -28.6402   22.1533 C   0  0  0  0  0  0  0  0  0  0  0  0
  -31.1233  -28.0695   21.3865 C   0  0  0  0  0  0  0  0  0  0  0  0
  -29.7331  -26.9323   23.0024 C   0  0  0  0  0  0  0  0  0  0  0  0
  -21.4948  -17.7431   19.8879 C   0  0  0  0  0  0  0  0  0  0  0  0
  -32.1576  -24.5893   22.7731 C   0  0  0  0  0  0  0  0  0  0  0  0
  -32.2363  -23.2695   23.2177 C   0  0  0  0  0  0  0  0  0  0  0  0
  -20.5182  -26.7541   22.7770 C   0  0  0  0  0  0  0  0  0  0  0  0
  -23.4625  -18.4383   21.0979 C   0  0  0  0  0  0  0  0  0  0  0  0
  -32.3711  -24.0468   25.5013 C   0  0  0  0  0  0  0  0  0  0  0  0
  -28.7219  -28.0630   21.1220 C   0  0  0  0  0  0  0  0  0  0  0  0
  -19.4141  -25.9100   22.6583 C   0  0  0  0  0  0  0  0  0  0  0  0
  -27.2351  -28.1263   19.0500 C   0  0  0  0  0  0  0  0  0  0  0  0
  -24.4422   -9.3945   21.6958 C   0  0  0  0  0  0  0  0  0  0  0  0
  -23.5252  -16.4173   19.7669 C   0  0  0  0  0  0  0  0  0  0  0  0
  -23.8376  -10.6647   21.7542 C   0  0  0  0  0  0  0  0  0  0  0  0
  -24.1729  -17.3303   20.6113 C   0  0  0  0  0  0  0  0  0  0  0  0
  -20.3828  -28.1193   22.5245 C   0  0  0  0  0  0  0  0  0  0  0  0
  -30.9970  -27.3135   22.5519 C   0  0  0  0  0  0  0  0  0  0  0  0
  -22.1303  -18.6423   20.7392 C   0  0  0  0  0  0  0  0  0  0  0  0
  -32.1858  -25.6378   23.6926 C   0  0  0  0  0  0  0  0  0  0  0  0
  -32.3430  -22.9983   24.5818 C   0  0  0  0  0  0  0  0  0  0  0  0
  -32.2925  -25.3666   25.0567 C   0  0  0  0  0  0  0  0  0  0  0  0
  -27.5464  -28.4502   20.3842 C   0  0  0  0  0  0  0  0  0  0  0  0
  -26.0208  -28.7274   18.8251 C   0  0  0  0  0  0  0  0  0  0  0  0
  -20.4107  -22.7048   19.7749 C   0  0  0  0  0  0  0  0  0  0  0  0
  -20.2676  -21.7153   20.6600 C   0  0  0  0  0  0  0  0  0  0  0  0
  -20.1546  -23.9696   20.4889 C   0  0  0  0  0  0  0  0  0  0  0  0
  -19.5554  -24.4709   22.9240 C   0  0  0  0  0  0  0  0  0  0  0  0
  -27.9773  -27.3514   18.0990 C   0  0  0  0  0  0  0  0  0  0  0  0
  -25.0746  -14.1198   21.3239 C   0  0  0  0  0  0  0  0  0  0  0  0
  -27.6892  -15.8335   20.4582 C   0  0  0  0  0  0  0  0  0  0  0  0
  -29.0056  -18.8452   19.5397 C   0  0  0  0  0  0  0  0  0  0  0  0
  -21.5414  -30.3542   22.4298 C   0  0  0  0  0  0  0  0  0  0  0  0
  -25.8335   -9.1530   22.2254 C   0  0  0  0  0  0  0  0  0  0  0  0
  -24.2690  -15.2341   19.2108 C   0  0  0  0  0  0  0  0  0  0  0  0
  -25.6116  -17.1505   21.0190 C   0  0  0  0  0  0  0  0  0  0  0  0
  -19.9149  -22.2038   22.0194 C   0  0  0  0  0  0  0  0  0  0  0  0
  -26.6484  -10.4317   22.4022 C   0  0  0  0  0  0  0  0  0  0  0  0
  -23.3760  -32.4657   20.2268 C   0  0  0  0  0  0  0  0  0  0  0  0
  -25.8181  -11.5011   23.1048 C   0  0  0  0  0  0  0  0  0  0  0  0
  -24.6224  -31.6436   19.8909 C   0  0  0  0  0  0  0  0  0  0  0  0
  -22.9388  -32.2661   21.6769 C   0  0  0  0  0  0  0  0  0  0  0  0
  -24.0019  -30.0449   21.7473 C   0  0  0  0  0  0  0  0  0  0  0  0
  -24.5832  -11.8740   22.2756 C   0  0  1  0  0  0  0  0  0  0  0  0
  -25.4700  -14.8303   20.0604 C   0  0  1  0  0  0  0  0  0  0  0  0
  -24.4423  -30.1629   20.2790 C   0  0  2  0  0  0  0  0  0  0  0  0
  -31.1797  -19.9425   18.9343 C   0  0  0  0  0  0  0  0  0  0  0  0
  -28.4955  -15.8541   23.4009 C   0  0  0  0  0  0  0  0  0  0  0  0
  -30.0913  -17.7112   22.8787 C   0  0  0  0  0  0  0  0  0  0  0  0
  -30.3836  -15.4789   21.8045 C   0  0  0  0  0  0  0  0  0  0  0  0
  -28.0257  -19.5619   16.8406 C   0  0  0  0  0  0  0  0  0  0  0  0
  -20.4244  -20.2621   20.3899 C   0  0  0  0  0  0  0  0  0  1  0  0
  -28.4757  -16.9669   21.0712 C   0  0  1  0  0  0  0  0  0  0  0  0
  -29.9415  -19.2327   18.4091 C   0  0  2  0  0  0  0  0  0  0  0  0
  -29.3338  -16.5054   22.2829 C   0  0  0  0  0  0  0  0  0  0  0  0
  -26.6057  -29.1989   20.9660 N   0  0  0  0  0  0  0  0  0  0  0  0
  -25.6915  -29.3507   19.9927 N   0  0  0  0  0  0  0  0  0  0  0  0
  -19.8957  -23.6412   21.8408 N   0  0  0  0  0  0  0  0  0  0  0  0
  -26.2943  -15.9748   20.4541 N   0  0  0  0  0  0  0  0  0  0  0  0
  -22.7842  -30.8398   21.9710 N   0  0  0  0  0  0  0  0  0  0  0  0
  -25.2132  -28.7783   17.7445 N   0  0  0  0  0  0  0  0  0  0  0  0
  -27.7474  -25.9702   18.0377 N   0  0  0  0  0  0  0  0  0  0  0  0
  -21.5043  -28.9769   22.6448 N   0  0  0  0  0  0  0  0  0  0  0  0
  -24.9528  -12.7504   21.1849 N   0  0  0  0  0  0  0  0  0  0  0  0
  -29.2467  -17.5629   19.9855 N   0  0  0  0  0  0  0  0  0  0  0  0
  -29.2492  -20.1415   17.4520 N   0  3  0  0  0  0  0  0  0  0  0  0
  -20.1717  -25.0572   19.9360 O   0  0  0  0  0  0  0  0  0  0  0  0
  -19.3489  -24.0820   24.0719 O   0  0  0  0  0  0  0  0  0  0  0  0
  -28.8312  -27.8661   17.3377 O   0  0  0  0  0  0  0  0  0  0  0  0
  -24.8949  -14.7660   22.3495 O   0  0  0  0  0  0  0  0  0  0  0  0
  -28.2907  -14.8620   19.9934 O   0  0  0  0  0  0  0  0  0  0  0  0
  -28.1489  -19.6054   19.9855 O   0  0  0  0  0  0  0  0  0  0  0  0
  -20.5728  -31.1009   22.5922 O   0  0  0  0  0  0  0  0  0  0  0  0
  -32.1068  -26.9475   23.2497 O   0  0  0  0  0  0  0  0  0  0  0  0
  -21.4541  -19.7222   21.2172 O   0  0  0  0  0  0  0  0  0  1  0  0
  -32.4169  -21.7308   25.0087 F   0  0  0  0  0  0  0  0  0  0  0  0
  -32.3188  -26.3697   25.9449 F   0  0  0  0  0  0  0  0  0  0  0  0
  1  2  1  0  0  0  0
  1  7  2  0  0  0  0
  2  8  2  0  0  0  0
  3  6  2  0  0  0  0
  3 10  1  0  0  0  0
  4 11  2  0  0  0  0
  4 19  1  0  0  0  0
  5 12  1  0  0  0  0
  5 19  2  0  0  0  0
  6 20  1  0  0  0  0
  7 22  1  0  0  0  0
  8 24  1  0  0  0  0
  9 13  2  0  0  0  0
  9 23  1  0  0  0  0
 10 26  2  0  0  0  0
 11 27  1  0  0  0  0
 12 27  2  0  0  0  0
 13 28  1  0  0  0  0
 14 15  2  0  0  0  0
 14 29  1  0  0  0  0
 15 30  1  0  0  0  0
 16 20  2  0  0  0  0
 16 26  1  0  0  0  0
 17 25  1  0  0  0  0
 17 28  2  0  0  0  0
 18 30  2  0  0  0  0
 18 31  1  0  0  0  0
 19 32  1  0  0  0  0
 20 37  1  0  0  0  0
 21 32  1  0  0  0  0
 21 33  2  0  0  0  0
 21 38  1  0  0  0  0
 22 24  2  0  0  0  0
 22 43  1  0  0  0  0
 23 25  2  0  0  0  0
 23 44  1  0  0  0  0
 24 53  1  0  0  0  0
 25 45  1  0  0  0  0
 26 72  1  0  0  0  0
 27 83  1  0  0  0  0
 28 84  1  0  0  0  0
 29 31  2  0  0  0  0
 29 83  1  0  0  0  0
 30 85  1  0  0  0  0
 31 86  1  0  0  0  0
 32 65  2  0  0  0  0
 33 66  1  0  0  0  0
 33 70  1  0  0  0  0
 34 35  2  0  0  0  0
 34 36  1  0  0  0  0
 35 46  1  0  0  0  0
 35 61  1  0  0  0  0
 36 67  1  0  0  0  0
 36 76  2  0  0  0  0
 37 67  1  0  0  0  0
 37 77  2  0  0  0  0
 38 71  1  0  0  0  0
 38 78  2  0  0  0  0
 39 54  1  0  0  0  0
 39 73  1  0  0  0  0
 39 79  2  0  0  0  0
 40 62  1  0  0  0  0
 40 68  1  0  0  0  0
 40 80  2  0  0  0  0
 41 63  1  0  0  0  0
 41 74  1  0  0  0  0
 41 81  2  0  0  0  0
 42 69  1  0  0  0  0
 42 72  1  0  0  0  0
 42 82  2  0  0  0  0
 43 47  1  0  0  0  0
 44 54  1  0  0  0  0
 45 68  1  0  0  0  0
 46 67  1  0  0  0  0
 47 49  1  0  0  0  0
 48 50  1  0  0  0  0
 48 51  1  0  0  0  0
 49 53  1  0  0  0  0
 50 55  1  0  0  0  0
 51 69  1  0  0  0  0
 52 55  1  0  0  0  0
 52 69  1  0  0  0  0
 53 73  1  0  0  0  0
 54 68  1  0  0  0  0
 55 66  1  0  0  0  0
 56 63  1  0  0  0  0
 57 64  1  0  0  0  0
 58 64  1  0  0  0  0
 59 64  1  0  0  0  0
 60 75  1  0  0  0  0
 61 84  1  0  0  0  0
 62 64  1  0  0  0  0
 62 74  1  0  0  0  0
 63 75  1  0  0  0  0
 65 66  1  0  0  0  0
M  CHG  1  75   1
M  ISO  4  42 100  61 101  72 100  84 101
M  END
> <Batch ID>
0082

> <Smiles>
CNC(C)C(=O)NC(C(=O)N1Cc2cc([101O:1][101CH2:1]C3=CC(=O)N(C(=O)c4cccc([100NH:0][100C:0](=O)N5CCCC(n6nc(-c7ccc(Oc8ccc(F)cc8F)cc7)c(C(N)=O)c6N)C5)c4)C3)ccc2CC1C(=O)NC1CCCc2ccccc21)C(C)(C)C

> <Shape>
0.238

> <Color>
0.061

> <Negative vol penalty>
0.000

$$$$

  -OEChem-04052300073D

 85 94  0     1  0  0  0  0  0999 V2000
  -26.1038  -35.1197   21.7685 C   0  0  0  0  0  0  0  0  0  0  0  0
  -26.5760  -33.8127   21.7040 C   0  0  0  0  0  0  0  0  0  0  0  0
  -22.8926  -10.1565   19.9341 C   0  0  0  0  0  0  0  0  0  0  0  0
  -23.9356   -9.7182   22.0688 C   0  0  0  0  0  0  0  0  0  0  0  0
  -29.5498  -16.8481   20.2271 C   0  0  0  0  0  0  0  0  0  0  0  0
  -24.8443  -35.3788   22.3074 C   0  0  0  0  0  0  0  0  0  0  0  0
  -25.7894  -32.7641   22.1795 C   0  0  0  0  0  0  0  0  0  0  0  0
  -25.4669  -27.0832   19.9146 C   0  0  0  0  0  0  0  0  0  0  0  0
  -28.8750  -18.0579   20.0641 C   0  0  0  0  0  0  0  0  0  0  0  0
  -22.1028   -9.0169   20.0860 C   0  0  0  0  0  0  0  0  0  0  0  0
  -23.1459   -8.5785   22.2207 C   0  0  0  0  0  0  0  0  0  0  0  0
  -26.0735  -25.8865   20.2936 C   0  0  0  0  0  0  0  0  0  0  0  0
  -21.1487   -5.7529   23.3368 C   0  0  0  0  0  0  0  0  0  0  0  0
  -20.5460   -5.5412   24.5767 C   0  0  0  0  0  0  0  0  0  0  0  0
  -29.4451  -17.1129   22.6263 C   0  0  0  0  0  0  0  0  0  0  0  0
  -24.1067  -25.2978   21.5603 C   0  0  0  0  0  0  0  0  0  0  0  0
  -19.3660   -7.6385   24.3612 C   0  0  0  0  0  0  0  0  0  0  0  0
  -23.8090  -10.5072   20.9256 C   0  0  0  0  0  0  0  0  0  0  0  0
  -29.8348  -16.3755   21.5082 C   0  0  0  0  0  0  0  0  0  0  0  0
  -24.3195  -12.9928   21.1875 C   0  0  0  0  0  0  0  0  0  0  0  0
  -24.0378  -34.3319   22.7808 C   0  0  0  0  0  0  0  0  0  0  0  0
  -24.1778  -27.4018   20.3652 C   0  0  0  0  0  0  0  0  0  0  0  0
  -24.5185  -33.0096   22.7265 C   0  0  0  0  0  0  0  0  0  0  0  0
  -23.4850  -26.4981   21.1835 C   0  0  0  0  0  0  0  0  0  0  0  0
  -28.4854  -18.7953   21.1822 C   0  0  0  0  0  0  0  0  0  0  0  0
  -22.2294   -8.2279   21.2292 C   0  0  0  0  0  0  0  0  0  0  0  0
  -25.3945  -24.9949   21.1190 C   0  0  0  0  0  0  0  0  0  0  0  0
  -20.8602   -6.9075   22.6091 C   0  0  0  0  0  0  0  0  0  0  0  0
  -19.6546   -6.4839   25.0889 C   0  0  0  0  0  0  0  0  0  0  0  0
  -28.7704  -18.3228   22.4633 C   0  0  0  0  0  0  0  0  0  0  0  0
  -19.9688   -7.8502   23.1213 C   0  0  0  0  0  0  0  0  0  0  0  0
  -24.6255  -11.6840   20.7690 C   0  0  0  0  0  0  0  0  0  0  0  0
  -25.4094  -13.7380   20.8090 C   0  0  0  0  0  0  0  0  0  0  0  0
  -26.9411  -21.7667   20.7595 C   0  0  0  0  0  0  0  0  0  0  0  0
  -27.4225  -20.6716   19.9166 C   0  0  0  0  0  0  0  0  0  0  0  0
  -26.3514  -22.9497   20.5089 C   0  0  0  0  0  0  0  0  0  1  0  0
  -30.5384  -15.1142   21.6780 C   0  0  0  0  0  0  0  0  0  0  0  0
  -23.1543  -13.4905   21.8586 C   0  0  0  0  0  0  0  0  0  0  0  0
  -30.9663  -14.3069   20.5124 C   0  0  0  0  0  0  0  0  0  0  0  0
  -22.9334  -29.7229   22.1449 C   0  0  0  0  0  0  0  0  0  0  0  0
  -20.1271  -28.3246   21.3130 C   0  0  0  0  0  0  0  0  0  0  0  0
  -18.4832  -25.5190   20.2772 C   0  0  0  0  0  0  0  0  0  0  0  0
  -22.7029  -34.6660   23.3981 C   0  0  0  0  0  0  0  0  0  0  0  0
  -23.5270  -28.6846   19.9256 C   0  0  0  0  0  0  0  0  0  0  0  0
  -22.0913  -26.7837   21.6778 C   0  0  0  0  0  0  0  0  0  0  0  0
  -27.3933  -20.9925   21.9764 C   0  0  0  0  0  0  0  0  0  0  0  0
  -21.7771  -33.4602   23.5368 C   0  0  0  0  0  0  0  0  0  0  0  0
  -29.3208  -12.5922   17.8275 C   0  0  0  0  0  0  0  0  0  0  0  0
  -22.5319  -32.2724   24.1251 C   0  0  0  0  0  0  0  0  0  0  0  0
  -27.9407  -12.2766   18.4034 C   0  0  0  0  0  0  0  0  0  0  0  0
  -30.4016  -12.5303   18.9020 C   0  0  0  0  0  0  0  0  0  0  0  0
  -28.7488  -13.0979   20.6613 C   0  0  0  0  0  0  0  0  0  0  0  0
  -23.6844  -31.8428   23.2093 C   0  0  1  0  0  0  0  0  0  0  0  0
  -22.4120  -29.1403   20.8618 C   0  0  1  0  0  0  0  0  0  0  0  0
  -27.6271  -13.1777   19.6110 C   0  0  2  0  0  0  0  0  0  0  0  0
  -16.1869  -24.6739   19.7203 C   0  0  0  0  0  0  0  0  0  0  0  0
  -19.4619  -28.1793   24.2873 C   0  0  0  0  0  0  0  0  0  0  0  0
  -17.6708  -26.5197   23.7344 C   0  0  0  0  0  0  0  0  0  0  0  0
  -17.5461  -28.8375   22.8208 C   0  0  0  0  0  0  0  0  0  0  0  0
  -19.2610  -24.8992   17.4898 C   0  0  0  0  0  0  0  0  0  0  0  0
  -19.2641  -27.2308   21.8941 C   0  0  1  0  0  0  0  0  0  0  0  0
  -17.4620  -25.2987   19.1758 C   0  0  2  0  0  0  0  0  0  0  0  0
  -18.5127  -27.6870   23.1766 C   0  0  0  0  0  0  0  0  0  0  0  0
  -25.8165  -11.5993   20.1703 N   0  0  0  0  0  0  0  0  0  0  0  0
  -30.8396  -14.6130   22.8455 N   0  0  0  0  0  0  0  0  0  0  0  0
  -26.2684  -12.8644   20.2098 N   0  0  0  0  0  0  0  0  0  0  0  0
  -27.8206  -19.9884   21.0182 N   0  0  0  0  0  0  0  0  0  0  0  0
  -30.0555  -13.3681   20.0486 N   0  0  0  0  0  0  0  0  0  0  0  0
  -21.5001  -28.0539   21.2256 N   0  0  0  0  0  0  0  0  0  0  0  0
  -25.7071  -15.0489   20.9335 N   0  0  0  0  0  0  0  0  0  0  0  0
  -22.1286  -12.5888   22.1737 N   0  0  0  0  0  0  0  0  0  0  0  0
  -23.1808  -31.0812   22.0865 N   0  0  0  0  0  0  0  0  0  0  0  0
  -18.3888  -26.7850   20.8155 N   0  0  0  0  0  0  0  0  0  0  0  0
  -18.0171  -24.3964   18.1276 N   0  3  0  0  0  0  0  0  0  0  0  0
  -27.4647  -20.4602   18.7224 O   0  0  0  0  0  0  0  0  0  0  0  0
  -23.0193  -14.7019   22.1548 O   0  0  0  0  0  0  0  0  0  0  0  0
  -32.0844  -14.5555   20.0807 O   0  0  0  0  0  0  0  0  0  0  0  0
  -23.0976  -28.9944   23.1165 O   0  0  0  0  0  0  0  0  0  0  0  0
  -19.6015  -29.3776   20.9434 O   0  0  0  0  0  0  0  0  0  0  0  0
  -19.2821  -24.6533   20.6277 O   0  0  0  0  0  0  0  0  0  0  0  0
  -21.4588   -7.1159   21.3778 O   0  0  0  0  0  0  0  0  0  0  0  0
  -25.9845  -23.8264   21.4910 O   0  0  0  0  0  0  0  0  0  1  0  0
  -19.0747   -6.2797   26.2789 F   0  0  0  0  0  0  0  0  0  0  0  0
  -28.4013  -19.0232   23.5454 F   0  0  0  0  0  0  0  0  0  0  0  0
  -19.6868   -8.9607   22.4263 F   0  0  0  0  0  0  0  0  0  0  0  0
  1  2  1  0  0  0  0
  1  6  2  0  0  0  0
  2  7  2  0  0  0  0
  3 10  2  0  0  0  0
  3 18  1  0  0  0  0
  4 11  1  0  0  0  0
  4 18  2  0  0  0  0
  5  9  2  0  0  0  0
  5 19  1  0  0  0  0
  6 21  1  0  0  0  0
  7 23  1  0  0  0  0
  8 12  2  0  0  0  0
  8 22  1  0  0  0  0
  9 25  1  0  0  0  0
 10 26  1  0  0  0  0
 11 26  2  0  0  0  0
 12 27  1  0  0  0  0
 13 14  2  0  0  0  0
 13 28  1  0  0  0  0
 14 29  1  0  0  0  0
 15 19  2  0  0  0  0
 15 30  1  0  0  0  0
 16 24  1  0  0  0  0
 16 27  2  0  0  0  0
 17 29  2  0  0  0  0
 17 31  1  0  0  0  0
 18 32  1  0  0  0  0
 19 37  1  0  0  0  0
 20 32  1  0  0  0  0
 20 33  2  0  0  0  0
 20 38  1  0  0  0  0
 21 23  2  0  0  0  0
 21 43  1  0  0  0  0
 22 24  2  0  0  0  0
 22 44  1  0  0  0  0
 23 53  1  0  0  0  0
 24 45  1  0  0  0  0
 25 30  2  0  0  0  0
 25 67  1  0  0  0  0
 26 81  1  0  0  0  0
 27 82  1  0  0  0  0
 28 31  2  0  0  0  0
 28 81  1  0  0  0  0
 29 83  1  0  0  0  0
 30 84  1  0  0  0  0
 31 85  1  0  0  0  0
 32 64  2  0  0  0  0
 33 66  1  0  0  0  0
 33 70  1  0  0  0  0
 34 35  1  0  0  0  0
 34 36  2  0  0  0  0
 34 46  1  0  0  0  0
 35 67  1  0  0  0  0
 35 75  2  0  0  0  0
 36 82  1  0  0  0  0
 37 39  1  0  0  0  0
 37 65  2  0  0  0  0
 38 71  1  0  0  0  0
 38 76  2  0  0  0  0
 39 68  1  0  0  0  0
 39 77  2  0  0  0  0
 40 54  1  0  0  0  0
 40 72  1  0  0  0  0
 40 78  2  0  0  0  0
 41 61  1  0  0  0  0
 41 69  1  0  0  0  0
 41 79  2  0  0  0  0
 42 62  1  0  0  0  0
 42 73  1  0  0  0  0
 42 80  2  0  0  0  0
 43 47  1  0  0  0  0
 44 54  1  0  0  0  0
 45 69  1  0  0  0  0
 46 67  1  0  0  0  0
 47 49  1  0  0  0  0
 48 50  1  0  0  0  0
 48 51  1  0  0  0  0
 49 53  1  0  0  0  0
 50 55  1  0  0  0  0
 51 68  1  0  0  0  0
 52 55  1  0  0  0  0
 52 68  1  0  0  0  0
 53 72  1  0  0  0  0
 54 69  1  0  0  0  0
 55 66  1  0  0  0  0
 56 62  1  0  0  0  0
 57 63  1  0  0  0  0
 58 63  1  0  0  0  0
 59 63  1  0  0  0  0
 60 74  1  0  0  0  0
 61 63  1  0  0  0  0
 61 73  1  0  0  0  0
 62 74  1  0  0  0  0
 64 66  1  0  0  0  0
M  CHG  1  74   1
M  ISO  4  36 101  37 100  39 100  82 101
M  END
> <Batch ID>
0082

> <Smiles>
CNC(C)C(=O)NC(C(=O)N1Cc2cc([101O:1][101CH:1]=C3CN(c4ccc([100C:0](=N)[100C:0](=O)N5CCCC(n6nc(-c7ccc(Oc8ccc(F)cc8F)cc7)c(C(N)=O)c6N)C5)cc4F)C3=O)ccc2CC1C(=O)NC1CCCc2ccccc21)C(C)(C)C

> <Shape>
0.342

> <Color>
0.180

> <Negative vol penalty>
0.000

$$$$

  -OEChem-04052300073D

 86 95  0     1  0  0  0  0  0999 V2000
  -28.1836  -10.9148   20.9269 C   0  0  0  0  0  0  0  0  0  0  0  0
  -28.7512  -12.1177   20.5193 C   0  0  0  0  0  0  0  0  0  0  0  0
  -20.5493  -26.9657   22.0866 C   0  0  0  0  0  0  0  0  0  0  0  0
  -19.8107  -29.0361   23.0890 C   0  0  0  0  0  0  0  0  0  0  0  0
  -30.5497  -26.2263   19.7554 C   0  0  0  0  0  0  0  0  0  0  0  0
  -28.3356  -25.5371   20.4335 C   0  0  0  0  0  0  0  0  0  0  0  0
  -26.7967  -10.7829   20.9817 C   0  0  0  0  0  0  0  0  0  0  0  0
  -27.9321  -13.1892   20.1653 C   0  0  0  0  0  0  0  0  0  0  0  0
  -29.0514  -19.1396   21.0851 C   0  0  0  0  0  0  0  0  0  0  0  0
  -30.3567  -25.6235   18.5124 C   0  0  0  0  0  0  0  0  0  0  0  0
  -28.1425  -24.9343   19.1905 C   0  0  0  0  0  0  0  0  0  0  0  0
  -19.2894  -26.4093   22.3071 C   0  0  0  0  0  0  0  0  0  0  0  0
  -18.5507  -28.4798   23.3095 C   0  0  0  0  0  0  0  0  0  0  0  0
  -29.5505  -20.1399   20.2520 C   0  0  0  0  0  0  0  0  0  0  0  0
  -17.5778  -25.0672   24.8943 C   0  0  0  0  0  0  0  0  0  0  0  0
  -17.5232  -23.7755   25.4179 C   0  0  0  0  0  0  0  0  0  0  0  0
  -27.2964  -20.8295   19.7396 C   0  0  0  0  0  0  0  0  0  0  0  0
  -16.3222  -23.0318   23.4579 C   0  0  0  0  0  0  0  0  0  0  0  0
  -20.8100  -28.2790   22.4776 C   0  0  0  0  0  0  0  0  0  0  0  0
  -29.5391  -26.1830   20.7160 C   0  0  0  0  0  0  0  0  0  0  0  0
  -22.5421  -29.5596   21.1111 C   0  0  0  0  0  0  0  0  0  0  0  0
  -25.9603  -11.8564   20.6374 C   0  0  0  0  0  0  0  0  0  0  0  0
  -27.6685  -18.9695   21.2435 C   0  0  0  0  0  0  0  0  0  0  0  0
  -26.5327  -13.0712   20.2143 C   0  0  0  0  0  0  0  0  0  0  0  0
  -26.7823  -19.8280   20.5773 C   0  0  0  0  0  0  0  0  0  0  0  0
  -29.1531  -24.9775   18.2300 C   0  0  0  0  0  0  0  0  0  0  0  0
  -18.2901  -27.1664   22.9186 C   0  0  0  0  0  0  0  0  0  0  0  0
  -28.6729  -20.9832   19.5768 C   0  0  0  0  0  0  0  0  0  0  0  0
  -17.0046  -25.3412   23.6525 C   0  0  0  0  0  0  0  0  0  0  0  0
  -16.8954  -22.7578   24.6997 C   0  0  0  0  0  0  0  0  0  0  0  0
  -16.3768  -24.3235   22.9343 C   0  0  0  0  0  0  0  0  0  0  0  0
  -22.1115  -28.8541   22.2506 C   0  0  0  0  0  0  0  0  0  0  0  0
  -23.8460  -29.8928   21.3859 C   0  0  0  0  0  0  0  0  0  0  0  0
  -28.4315  -24.3211   14.7034 C   0  0  0  0  0  0  0  0  0  0  0  0
  -28.6931  -23.0321   16.6867 C   0  0  0  0  0  0  0  0  0  0  0  0
  -28.0874  -24.7123   13.4720 C   0  0  0  0  0  0  0  0  0  0  0  0
  -28.8059  -21.9300   17.4422 C   0  0  0  0  0  0  0  0  0  1  0  0
  -29.7447  -26.8250   22.0398 C   0  0  0  0  0  0  0  0  0  0  0  0
  -21.8274  -29.8850   19.9115 C   0  0  0  0  0  0  0  0  0  0  0  0
  -25.6117  -16.6256   20.6276 C   0  0  0  0  0  0  0  0  0  0  0  0
  -23.5211  -18.5881   22.1444 C   0  0  0  0  0  0  0  0  0  0  0  0
  -22.6909  -21.7595   23.0927 C   0  0  0  0  0  0  0  0  0  0  0  0
  -28.5555  -27.8406   23.9576 C   0  0  0  0  0  0  0  0  0  0  0  0
  -24.4664  -11.6512   20.6671 C   0  0  0  0  0  0  0  0  0  0  0  0
  -27.1465  -17.9029   22.1667 C   0  0  0  0  0  0  0  0  0  0  0  0
  -25.2893  -19.7000   20.7293 C   0  0  0  0  0  0  0  0  0  0  0  0
  -28.2995  -22.9215   15.2314 C   0  0  0  0  0  0  0  0  0  0  0  0
  -28.9629  -25.2289   15.7793 C   0  0  0  0  0  0  0  0  0  0  0  0
  -23.6718  -12.9543   20.6345 C   0  0  0  0  0  0  0  0  0  0  0  0
  -26.5455  -30.2946   25.5180 C   0  0  0  0  0  0  0  0  0  0  0  0
  -24.2195  -13.8867   19.5587 C   0  0  0  0  0  0  0  0  0  0  0  0
  -25.2395  -30.2525   24.7199 C   0  0  0  0  0  0  0  0  0  0  0  0
  -27.1451  -28.9008   25.6990 C   0  0  0  0  0  0  0  0  0  0  0  0
  -26.0156  -28.0904   23.6678 C   0  0  0  0  0  0  0  0  0  0  0  0
  -25.6777  -14.2643   19.8461 C   0  0  1  0  0  0  0  0  0  0  0  0
  -25.7118  -17.4903   21.8523 C   0  0  1  0  0  0  0  0  0  0  0  0
  -25.4090  -29.4769   23.3981 C   0  0  1  0  0  0  0  0  0  0  0  0
  -20.9040  -23.0541   24.2879 C   0  0  0  0  0  0  0  0  0  0  0  0
  -21.7145  -18.3489   19.6972 C   0  0  0  0  0  0  0  0  0  0  0  0
  -20.4549  -20.3509   20.5179 C   0  0  0  0  0  0  0  0  0  0  0  0
  -20.5158  -18.2689   21.8906 C   0  0  0  0  0  0  0  0  0  0  0  0
  -24.5892  -22.6931   25.1625 C   0  0  0  0  0  0  0  0  0  0  0  0
  -22.5934  -19.6988   21.7149 C   0  0  1  0  0  0  0  0  0  0  0  0
  -22.2315  -22.3249   24.4246 C   0  0  2  0  0  0  0  0  0  0  0  0
  -21.3477  -19.1683   20.9506 C   0  0  0  0  0  0  0  0  0  0  0  0
  -23.0645  -28.7447   23.1800 N   0  0  0  0  0  0  0  0  0  0  0  0
  -24.1070  -29.3859   22.6249 N   0  0  0  0  0  0  0  0  0  0  0  0
  -28.9580  -24.3680   16.9732 N   0  0  0  0  0  0  0  0  0  0  0  0
  -24.8277  -18.6378   21.6382 N   0  0  0  0  0  0  0  0  0  0  0  0
  -27.2818  -28.2371   24.4012 N   0  0  0  0  0  0  0  0  0  0  0  0
  -24.7832  -30.5668   20.6861 N   0  0  0  0  0  0  0  0  0  0  0  0
  -20.4952  -29.4661   19.7931 N   0  0  0  0  0  0  0  0  0  0  0  0
  -28.5860  -27.2542   22.6874 N   0  0  0  0  0  0  0  0  0  0  0  0
  -25.7439  -15.2737   20.8811 N   0  0  0  0  0  0  0  0  0  0  0  0
  -22.2767  -20.4555   22.9213 N   0  0  0  0  0  0  0  0  0  0  0  0
  -23.2414  -23.2831   24.9565 N   0  3  0  0  0  0  0  0  0  0  0  0
  -30.8822  -26.9047   22.4956 O   0  0  0  0  0  0  0  0  0  0  0  0
  -22.3597  -30.5138   18.9655 O   0  0  0  0  0  0  0  0  0  0  0  0
  -25.4266  -17.1463   19.5338 O   0  0  0  0  0  0  0  0  0  0  0  0
  -23.1040  -17.7126   22.9067 O   0  0  0  0  0  0  0  0  0  0  0  0
  -23.3480  -22.4107   22.2837 O   0  0  0  0  0  0  0  0  0  0  0  0
  -29.5821  -28.0269   24.6184 O   0  0  0  0  0  0  0  0  0  0  0  0
  -17.0604  -26.6239   23.1337 O   0  0  0  0  0  0  0  0  0  0  0  0
  -29.1574  -21.9599   18.7625 O   0  0  0  0  0  0  0  0  0  1  0  0
  -16.8443  -21.5171   25.2020 F   0  0  0  0  0  0  0  0  0  0  0  0
  -15.8254  -24.5805   21.7403 F   0  0  0  0  0  0  0  0  0  0  0  0
  1  2  1  0  0  0  0
  1  7  2  0  0  0  0
  2  8  2  0  0  0  0
  3 12  2  0  0  0  0
  3 19  1  0  0  0  0
  4 13  1  0  0  0  0
  4 19  2  0  0  0  0
  5 10  2  0  0  0  0
  5 20  1  0  0  0  0
  6 11  1  0  0  0  0
  6 20  2  0  0  0  0
  7 22  1  0  0  0  0
  8 24  1  0  0  0  0
  9 14  2  0  0  0  0
  9 23  1  0  0  0  0
 10 26  1  0  0  0  0
 11 26  2  0  0  0  0
 12 27  1  0  0  0  0
 13 27  2  0  0  0  0
 14 28  1  0  0  0  0
 15 16  2  0  0  0  0
 15 29  1  0  0  0  0
 16 30  1  0  0  0  0
 17 25  1  0  0  0  0
 17 28  2  0  0  0  0
 18 30  2  0  0  0  0
 18 31  1  0  0  0  0
 19 32  1  0  0  0  0
 20 38  1  0  0  0  0
 21 32  1  0  0  0  0
 21 33  2  0  0  0  0
 21 39  1  0  0  0  0
 22 24  2  0  0  0  0
 22 44  1  0  0  0  0
 23 25  2  0  0  0  0
 23 45  1  0  0  0  0
 24 55  1  0  0  0  0
 25 46  1  0  0  0  0
 26 68  1  0  0  0  0
 27 83  1  0  0  0  0
 28 84  1  0  0  0  0
 29 31  2  0  0  0  0
 29 83  1  0  0  0  0
 30 85  1  0  0  0  0
 31 86  1  0  0  0  0
 32 66  2  0  0  0  0
 33 67  1  0  0  0  0
 33 71  1  0  0  0  0
 34 36  2  0  0  0  0
 34 47  1  0  0  0  0
 34 48  1  0  0  0  0
 35 37  2  0  0  0  0
 35 47  1  0  0  0  0
 35 68  1  0  0  0  0
 37 84  1  0  0  0  0
 38 73  1  0  0  0  0
 38 77  2  0  0  0  0
 39 72  1  0  0  0  0
 39 78  2  0  0  0  0
 40 56  1  0  0  0  0
 40 74  1  0  0  0  0
 40 79  2  0  0  0  0
 41 63  1  0  0  0  0
 41 69  1  0  0  0  0
 41 80  2  0  0  0  0
 42 64  1  0  0  0  0
 42 75  1  0  0  0  0
 42 81  2  0  0  0  0
 43 70  1  0  0  0  0
 43 73  1  0  0  0  0
 43 82  2  0  0  0  0
 44 49  1  0  0  0  0
 45 56  1  0  0  0  0
 46 69  1  0  0  0  0
 48 68  1  0  0  0  0
 49 51  1  0  0  0  0
 50 52  1  0  0  0  0
 50 53  1  0  0  0  0
 51 55  1  0  0  0  0
 52 57  1  0  0  0  0
 53 70  1  0  0  0  0
 54 57  1  0  0  0  0
 54 70  1  0  0  0  0
 55 74  1  0  0  0  0
 56 69  1  0  0  0  0
 57 67  1  0  0  0  0
 58 64  1  0  0  0  0
 59 65  1  0  0  0  0
 60 65  1  0  0  0  0
 61 65  1  0  0  0  0
 62 76  1  0  0  0  0
 63 65  1  0  0  0  0
 63 75  1  0  0  0  0
 64 76  1  0  0  0  0
 66 67  1  0  0  0  0
M  CHG  1  76   1
M  ISO  4  37 101  43 100  73 100  84 101
M  END
> <Batch ID>
0082

> <Smiles>
C=C1CC(=[101CH:1][101O:1]c2ccc3c(c2)CN(C(=O)C(NC(=O)C(C)NC)C(C)(C)C)C(C(=O)NC2CCCc4ccccc42)C3)N(c2ccc(C(=O)[100NH:0][100C:0](=O)N3CCCC(n4nc(-c5ccc(Oc6ccc(F)cc6F)cc5)c(C(N)=O)c4N)C3)cc2)C1

> <Shape>
0.233

> <Color>
0.070

> <Negative vol penalty>
0.000

$$$$

  -OEChem-04052300073D

 83 92  0     1  0  0  0  0  0999 V2000
  -27.3675  -37.7450   23.8656 C   0  0  0  0  0  0  0  0  0  0  0  0
  -27.9570  -36.8019   23.0298 C   0  0  0  0  0  0  0  0  0  0  0  0
  -24.1813   -9.2922   22.1889 C   0  0  0  0  0  0  0  0  0  0  0  0
  -22.9180  -11.2744   21.6302 C   0  0  0  0  0  0  0  0  0  0  0  0
  -26.4797  -37.3357   24.8597 C   0  0  0  0  0  0  0  0  0  0  0  0
  -27.6598  -35.4488   23.1884 C   0  0  0  0  0  0  0  0  0  0  0  0
  -26.9126  -29.4156   19.3992 C   0  0  0  0  0  0  0  0  0  0  0  0
  -26.2945  -19.4048   19.1182 C   0  0  0  0  0  0  0  0  0  0  0  0
  -28.5717  -19.7743   19.8357 C   0  0  0  0  0  0  0  0  0  0  0  0
  -26.5615  -18.0437   18.9714 C   0  0  0  0  0  0  0  0  0  0  0  0
  -28.8387  -18.4131   19.6889 C   0  0  0  0  0  0  0  0  0  0  0  0
  -23.3114   -9.0365   23.2488 C   0  0  0  0  0  0  0  0  0  0  0  0
  -22.0480  -11.0187   22.6901 C   0  0  0  0  0  0  0  0  0  0  0  0
  -27.3666  -28.0976   19.3719 C   0  0  0  0  0  0  0  0  0  0  0  0
  -20.2207   -7.7332   23.6758 C   0  0  0  0  0  0  0  0  0  0  0  0
  -19.7640   -6.4253   23.8385 C   0  0  0  0  0  0  0  0  0  0  0  0
  -25.7575  -27.5145   21.0718 C   0  0  0  0  0  0  0  0  0  0  0  0
  -20.7524   -6.3542   26.0419 C   0  0  0  0  0  0  0  0  0  0  0  0
  -23.9846  -10.4112   21.3796 C   0  0  0  0  0  0  0  0  0  0  0  0
  -24.7619  -10.2248   18.9571 C   0  0  0  0  0  0  0  0  0  0  0  0
  -26.1641  -35.9778   25.0243 C   0  0  0  0  0  0  0  0  0  0  0  0
  -25.8833  -29.7959   20.2723 C   0  0  0  0  0  0  0  0  0  0  0  0
  -26.7680  -35.0208   24.1865 C   0  0  0  0  0  0  0  0  0  0  0  0
  -25.2905  -28.8373   21.1065 C   0  0  0  0  0  0  0  0  0  0  0  0
  -27.2996  -20.2701   19.5503 C   0  0  0  0  0  0  0  0  0  0  0  0
  -27.8336  -17.5478   19.2568 C   0  0  0  0  0  0  0  0  0  0  0  0
  -22.2447   -9.8997   23.4994 C   0  0  0  0  0  0  0  0  0  0  0  0
  -26.7910  -27.1475   20.2103 C   0  0  0  0  0  0  0  0  0  0  0  0
  -20.9434   -8.3516   24.6961 C   0  0  0  0  0  0  0  0  0  0  0  0
  -20.0298   -5.7359   25.0215 C   0  0  0  0  0  0  0  0  0  0  0  0
  -21.2091   -7.6621   25.8792 C   0  0  0  0  0  0  0  0  0  0  0  0
  -24.8833  -10.6762   20.2849 C   0  0  0  0  0  0  0  0  0  0  0  0
  -25.8596  -10.7447   18.3159 C   0  0  0  0  0  0  0  0  0  0  0  0
  -26.6631  -23.5750   19.8063 C   0  0  0  0  0  0  0  0  0  0  0  0
  -25.9191  -22.3542   19.4940 C   0  0  0  0  0  0  0  0  0  0  0  0
  -26.3384  -24.8794   19.8614 C   0  0  0  0  0  0  0  0  0  1  0  0
  -23.7475   -9.4085   18.3568 C   0  0  0  0  0  0  0  0  0  0  0  0
  -25.6404  -31.8305   22.7024 C   0  0  0  0  0  0  0  0  0  0  0  0
  -22.5040  -31.0140   22.5646 C   0  0  0  0  0  0  0  0  0  0  0  0
  -20.1433  -28.7267   21.6470 C   0  0  0  0  0  0  0  0  0  0  0  0
  -29.3128  -15.5107   19.3485 C   0  0  0  0  0  0  0  0  0  0  0  0
  -25.2352  -35.5790   26.1436 C   0  0  0  0  0  0  0  0  0  0  0  0
  -25.3867  -31.2157   20.2705 C   0  0  0  0  0  0  0  0  0  0  0  0
  -24.1687  -29.1900   22.0476 C   0  0  0  0  0  0  0  0  0  0  0  0
  -27.8996  -22.7333   20.0236 C   0  0  0  0  0  0  0  0  0  0  0  0
  -24.6852  -34.1619   26.0029 C   0  0  0  0  0  0  0  0  0  0  0  0
  -30.3734  -12.1185   19.1363 C   0  0  0  0  0  0  0  0  0  0  0  0
  -25.8053  -33.1867   25.6545 C   0  0  0  0  0  0  0  0  0  0  0  0
  -29.0741  -11.3227   19.2798 C   0  0  0  0  0  0  0  0  0  0  0  0
  -30.3747  -13.3661   20.0178 C   0  0  0  0  0  0  0  0  0  0  0  0
  -27.9128  -13.4513   19.9922 C   0  0  0  0  0  0  0  0  0  0  0  0
  -26.4518  -33.5462   24.3113 C   0  0  1  0  0  0  0  0  0  0  0  0
  -24.6826  -31.6040   21.5670 C   0  0  1  0  0  0  0  0  0  0  0  0
  -27.8380  -12.2202   19.0743 C   0  0  2  0  0  0  0  0  0  0  0  0
  -17.6672  -28.3223   21.6989 C   0  0  0  0  0  0  0  0  0  0  0  0
  -22.6801  -30.3319   25.5334 C   0  0  0  0  0  0  0  0  0  0  0  0
  -20.5291  -29.0722   25.3002 C   0  0  0  0  0  0  0  0  0  0  0  0
  -20.5889  -31.5268   24.8597 C   0  0  0  0  0  0  0  0  0  0  0  0
  -19.9827  -28.6134   18.6940 C   0  0  0  0  0  0  0  0  0  0  0  0
  -21.6492  -29.9432   23.1984 C   0  0  1  0  0  0  0  0  0  0  0  0
  -18.8330  -28.8776   20.8956 C   0  0  2  0  0  0  0  0  0  0  0  0
  -21.3843  -30.2120   24.7067 C   0  0  0  0  0  0  0  0  0  0  0  0
  -25.9723  -11.4252   20.4774 N   0  0  0  0  0  0  0  0  0  0  0  0
  -26.5453  -11.4483   19.2620 N   0  0  0  0  0  0  0  0  0  0  0  0
  -27.0365  -21.6126   19.6947 N   0  0  0  0  0  0  0  0  0  0  0  0
  -23.7225  -30.5926   22.0136 N   0  0  0  0  0  0  0  0  0  0  0  0
  -29.1767  -14.1697   19.7656 N   0  0  0  0  0  0  0  0  0  0  0  0
  -26.2957  -10.6641   17.0409 N   0  0  0  0  0  0  0  0  0  0  0  0
  -22.6896   -8.9596   19.1591 N   0  0  0  0  0  0  0  0  0  0  0  0
  -28.1052  -16.1651   19.1078 N   0  0  0  0  0  0  0  0  0  0  0  0
  -25.6125  -33.1135   23.2146 N   0  0  0  0  0  0  0  0  0  0  0  0
  -20.4406  -29.8519   22.3864 N   0  0  0  0  0  0  0  0  0  0  0  0
  -18.8952  -28.1526   19.5950 N   0  3  0  0  0  0  0  0  0  0  0  0
  -24.7764  -22.1020   19.1729 O   0  0  0  0  0  0  0  0  0  0  0  0
  -23.7869   -9.0732   17.1487 O   0  0  0  0  0  0  0  0  0  0  0  0
  -26.3510  -30.9089   23.0863 O   0  0  0  0  0  0  0  0  0  0  0  0
  -22.1021  -32.1802   22.5523 O   0  0  0  0  0  0  0  0  0  0  0  0
  -20.8322  -27.7106   21.5873 O   0  0  0  0  0  0  0  0  0  0  0  0
  -30.4198  -16.0313   19.1885 O   0  0  0  0  0  0  0  0  0  0  0  0
  -21.3955   -9.6504   24.5334 O   0  0  0  0  0  0  0  0  0  0  0  0
  -27.2327  -25.8606   20.1862 O   0  0  0  0  0  0  0  0  0  1  0  0
  -19.5898   -4.4805   25.1782 F   0  0  0  0  0  0  0  0  0  0  0  0
  -21.9018   -8.2514   26.8635 F   0  0  0  0  0  0  0  0  0  0  0  0
  1  2  1  0  0  0  0
  1  5  2  0  0  0  0
  2  6  2  0  0  0  0
  3 12  2  0  0  0  0
  3 19  1  0  0  0  0
  4 13  1  0  0  0  0
  4 19  2  0  0  0  0
  5 21  1  0  0  0  0
  6 23  1  0  0  0  0
  7 14  2  0  0  0  0
  7 22  1  0  0  0  0
  8 10  2  0  0  0  0
  8 25  1  0  0  0  0
  9 11  1  0  0  0  0
  9 25  2  0  0  0  0
 10 26  1  0  0  0  0
 11 26  2  0  0  0  0
 12 27  1  0  0  0  0
 13 27  2  0  0  0  0
 14 28  1  0  0  0  0
 15 16  2  0  0  0  0
 15 29  1  0  0  0  0
 16 30  1  0  0  0  0
 17 24  1  0  0  0  0
 17 28  2  0  0  0  0
 18 30  2  0  0  0  0
 18 31  1  0  0  0  0
 19 32  1  0  0  0  0
 20 32  1  0  0  0  0
 20 33  2  0  0  0  0
 20 37  1  0  0  0  0
 21 23  2  0  0  0  0
 21 42  1  0  0  0  0
 22 24  2  0  0  0  0
 22 43  1  0  0  0  0
 23 52  1  0  0  0  0
 24 44  1  0  0  0  0
 25 65  1  0  0  0  0
 26 70  1  0  0  0  0
 27 80  1  0  0  0  0
 28 81  1  0  0  0  0
 29 31  2  0  0  0  0
 29 80  1  0  0  0  0
 30 82  1  0  0  0  0
 31 83  1  0  0  0  0
 32 63  2  0  0  0  0
 33 64  1  0  0  0  0
 33 68  1  0  0  0  0
 34 35  1  0  0  0  0
 34 36  2  0  0  0  0
 34 45  1  0  0  0  0
 35 65  1  0  0  0  0
 35 74  2  0  0  0  0
 36 81  1  0  0  0  0
 37 69  1  0  0  0  0
 37 75  2  0  0  0  0
 38 53  1  0  0  0  0
 38 71  1  0  0  0  0
 38 76  2  0  0  0  0
 39 60  1  0  0  0  0
 39 66  1  0  0  0  0
 39 77  2  0  0  0  0
 40 61  1  0  0  0  0
 40 72  1  0  0  0  0
 40 78  2  0  0  0  0
 41 67  1  0  0  0  0
 41 70  1  0  0  0  0
 41 79  2  0  0  0  0
 42 46  1  0  0  0  0
 43 53  1  0  0  0  0
 44 66  1  0  0  0  0
 45 65  1  0  0  0  0
 46 48  1  0  0  0  0
 47 49  1  0  0  0  0
 47 50  1  0  0  0  0
 48 52  1  0  0  0  0
 49 54  1  0  0  0  0
 50 67  1  0  0  0  0
 51 54  1  0  0  0  0
 51 67  1  0  0  0  0
 52 71  1  0  0  0  0
 53 66  1  0  0  0  0
 54 64  1  0  0  0  0
 55 61  1  0  0  0  0
 56 62  1  0  0  0  0
 57 62  1  0  0  0  0
 58 62  1  0  0  0  0
 59 73  1  0  0  0  0
 60 62  1  0  0  0  0
 60 72  1  0  0  0  0
 61 73  1  0  0  0  0
 63 64  1  0  0  0  0
M  CHG  1  73   1
M  ISO  4  36 101  41 100  70 100  81 101
M  END
> <Batch ID>
0082

> <Smiles>
CNC(C)C(=O)NC(C(=O)N1Cc2cc([101O:1][101CH:1]=C3CN(c4ccc([100NH:0][100C:0](=O)N5CCCC(n6nc(-c7ccc(Oc8ccc(F)cc8F)cc7)c(C(N)=O)c6N)C5)cc4)C3=O)ccc2CC1C(=O)NC1CCCc2ccccc21)C(C)(C)C

> <Shape>
0.292

> <Color>
0.088

> <Negative vol penalty>
0.000

$$$$

  -OEChem-04052300073D

 83 91  0     1  0  0  0  0  0999 V2000
  -20.7281  -33.9245   15.3945 C   0  0  0  0  0  0  0  0  0  0  0  0
  -21.4704  -32.7503   15.4707 C   0  0  0  0  0  0  0  0  0  0  0  0
  -32.3601  -18.8173   19.7917 C   0  0  0  0  0  0  0  0  0  0  0  0
  -24.3870  -11.4623   23.9166 C   0  0  0  0  0  0  0  0  0  0  0  0
  -24.2319  -13.8733   23.9047 C   0  0  0  0  0  0  0  0  0  0  0  0
  -21.0609  -35.0118   16.2012 C   0  0  0  0  0  0  0  0  0  0  0  0
  -22.5466  -32.6632   16.3531 C   0  0  0  0  0  0  0  0  0  0  0  0
  -24.3801  -27.7050   19.4451 C   0  0  0  0  0  0  0  0  0  0  0  0
  -31.8087  -17.5559   19.5673 C   0  0  0  0  0  0  0  0  0  0  0  0
  -31.5280  -19.9055   20.0547 C   0  0  0  0  0  0  0  0  0  0  0  0
  -23.9659  -11.4417   25.2461 C   0  0  0  0  0  0  0  0  0  0  0  0
  -23.8107  -13.8527   25.2343 C   0  0  0  0  0  0  0  0  0  0  0  0
  -25.3887  -26.7719   19.2086 C   0  0  0  0  0  0  0  0  0  0  0  0
  -21.0523  -11.7115   26.9407 C   0  0  0  0  0  0  0  0  0  0  0  0
  -20.0805  -10.7771   27.2984 C   0  0  0  0  0  0  0  0  0  0  0  0
  -26.8622  -28.0035   20.6684 C   0  0  0  0  0  0  0  0  0  0  0  0
  -29.5931  -18.4708   19.8690 C   0  0  0  0  0  0  0  0  0  0  0  0
  -21.6097   -9.7964   28.8911 C   0  0  0  0  0  0  0  0  0  0  0  0
  -24.5201  -12.6781   23.2458 C   0  0  0  0  0  0  0  0  0  0  0  0
  -24.1454  -12.6425   20.7227 C   0  0  0  0  0  0  0  0  0  0  0  0
  -22.1357  -34.9347   17.1009 C   0  0  0  0  0  0  0  0  0  0  0  0
  -24.6089  -28.8022   20.2879 C   0  0  0  0  0  0  0  0  0  0  0  0
  -22.8949  -33.7510   17.1717 C   0  0  0  0  0  0  0  0  0  0  0  0
  -25.8541  -28.9477   20.9160 C   0  0  0  0  0  0  0  0  0  0  0  0
  -30.4252  -17.3826   19.6060 C   0  0  0  0  0  0  0  0  0  0  0  0
  -23.6777  -12.6369   25.9050 C   0  0  0  0  0  0  0  0  0  0  0  0
  -26.6308  -26.9226   19.8180 C   0  0  0  0  0  0  0  0  0  0  0  0
  -30.1445  -19.7322   20.0934 C   0  0  0  0  0  0  0  0  0  0  0  0
  -22.3030  -11.6883   27.5581 C   0  0  0  0  0  0  0  0  0  0  0  0
  -20.3592   -9.8196   28.2736 C   0  0  0  0  0  0  0  0  0  0  0  0
  -22.5816  -10.7308   28.5333 C   0  0  0  0  0  0  0  0  0  0  0  0
  -24.9556  -12.7001   21.8726 C   0  0  0  0  0  0  0  0  0  0  0  0
  -25.0320  -12.6953   19.6750 C   0  0  0  0  0  0  0  0  0  0  0  0
  -28.8463  -23.0200   20.8793 C   0  0  0  0  0  0  0  0  0  0  0  0
  -22.7190  -12.5497   20.6117 C   0  0  0  0  0  0  0  0  0  0  0  0
  -24.6071  -31.9585   19.9118 C   0  0  0  0  0  0  0  0  0  0  0  0
  -25.0140  -31.9512   23.1300 C   0  0  0  0  0  0  0  0  0  0  0  0
  -26.0753  -30.2842   25.9123 C   0  0  0  0  0  0  0  0  0  0  0  0
  -27.6474  -24.9224   20.4825 C   0  0  0  0  0  0  0  0  0  1  0  0
  -30.5495  -14.9170   19.1042 C   0  0  0  0  0  0  0  0  0  0  0  0
  -22.4869  -36.1524   17.9185 C   0  0  0  0  0  0  0  0  0  0  0  0
  -23.5021  -29.7853   20.5538 C   0  0  0  0  0  0  0  0  0  0  0  0
  -26.1440  -30.0969   21.8454 C   0  0  0  0  0  0  0  0  0  0  0  0
  -23.4092  -35.8498   19.0966 C   0  0  0  0  0  0  0  0  0  0  0  0
  -29.5374  -11.5536   18.5208 C   0  0  0  0  0  0  0  0  0  0  0  0
  -24.5653  -34.9583   18.6543 C   0  0  0  0  0  0  0  0  0  0  0  0
  -28.1711  -11.4624   19.2043 C   0  0  0  0  0  0  0  0  0  0  0  0
  -30.5047  -12.4404   19.3029 C   0  0  0  0  0  0  0  0  0  0  0  0
  -28.6326  -13.6909   20.3033 C   0  0  0  0  0  0  0  0  0  0  0  0
  -24.0540  -33.6093   18.1343 C   0  0  1  0  0  0  0  0  0  0  0  0
  -24.0105  -31.1444   21.0249 C   0  0  1  0  0  0  0  0  0  0  0  0
  -27.6038  -12.8606   19.5186 C   0  0  2  0  0  0  0  0  0  0  0  0
  -26.3163  -30.5501   28.3960 C   0  0  0  0  0  0  0  0  0  0  0  0
  -27.4527  -33.7338   22.7001 C   0  0  0  0  0  0  0  0  0  0  0  0
  -28.1774  -33.1862   25.0331 C   0  0  0  0  0  0  0  0  0  0  0  0
  -26.0201  -34.3774   24.6463 C   0  0  0  0  0  0  0  0  0  0  0  0
  -24.2554  -28.0129   26.4489 C   0  0  0  0  0  0  0  0  0  0  0  0
  -29.9489  -22.0539   20.5704 C   0  0  0  0  0  0  0  0  0  0  0  0
  -26.2052  -31.9258   24.0569 C   0  0  1  0  0  0  0  0  0  0  0  0
  -25.4227  -30.0646   27.2652 C   0  0  2  0  0  0  0  0  0  0  0  0
  -26.9593  -33.2851   24.0901 C   0  0  0  0  0  0  0  0  0  0  0  0
  -26.2569  -12.7829   21.5828 N   0  0  0  0  0  0  0  0  0  0  0  0
  -28.6802  -24.0749   20.1536 N   0  0  0  0  0  0  0  0  0  0  0  0
  -26.2711  -12.7777   20.2390 N   0  0  0  0  0  0  0  0  0  0  0  0
  -25.0316  -31.0351   22.0687 N   0  0  0  0  0  0  0  0  0  0  0  0
  -29.9012  -13.7498   19.5603 N   0  0  0  0  0  0  0  0  0  0  0  0
  -24.8647  -12.6786   18.3356 N   0  0  0  0  0  0  0  0  0  0  0  0
  -21.9587  -12.5058   21.7882 N   0  0  0  0  0  0  0  0  0  0  0  0
  -29.8655  -16.1010   19.3783 N   0  0  0  0  0  0  0  0  0  0  0  0
  -23.6930  -32.7461   19.2383 N   0  0  0  0  0  0  0  0  0  0  0  0
  -25.7030  -31.4893   25.3552 N   0  0  0  0  0  0  0  0  0  0  0  0
  -25.1428  -28.6162   27.4763 N   0  3  0  0  0  0  0  0  0  0  0  0
  -22.1370  -12.4905   19.5021 O   0  0  0  0  0  0  0  0  0  0  0  0
  -25.8082  -31.8791   19.6820 O   0  0  0  0  0  0  0  0  0  0  0  0
  -24.0981  -32.7494   23.3439 O   0  0  0  0  0  0  0  0  0  0  0  0
  -26.8418  -29.4699   25.4025 O   0  0  0  0  0  0  0  0  0  0  0  0
  -26.8477  -24.7912   21.4046 O   0  0  0  0  0  0  0  0  0  0  0  0
  -31.6183  -14.8679   18.4901 O   0  0  0  0  0  0  0  0  0  0  0  0
  -23.2665  -12.6172   27.2023 O   0  0  0  0  0  0  0  0  0  0  0  0
  -27.6172  -26.0136   19.5883 O   0  0  0  0  0  0  0  0  0  1  0  0
  -29.3248  -20.8040   20.3523 O   0  0  0  0  0  0  0  0  0  0  0  0
  -19.4253   -8.9233   28.6182 F   0  0  0  0  0  0  0  0  0  0  0  0
  -23.7808  -10.7043   29.1308 F   0  0  0  0  0  0  0  0  0  0  0  0
  1  2  1  0  0  0  0
  1  6  2  0  0  0  0
  2  7  2  0  0  0  0
  3  9  1  0  0  0  0
  3 10  2  0  0  0  0
  4 11  2  0  0  0  0
  4 19  1  0  0  0  0
  5 12  1  0  0  0  0
  5 19  2  0  0  0  0
  6 21  1  0  0  0  0
  7 23  1  0  0  0  0
  8 13  2  0  0  0  0
  8 22  1  0  0  0  0
  9 25  2  0  0  0  0
 10 28  1  0  0  0  0
 11 26  1  0  0  0  0
 12 26  2  0  0  0  0
 13 27  1  0  0  0  0
 14 15  2  0  0  0  0
 14 29  1  0  0  0  0
 15 30  1  0  0  0  0
 16 24  1  0  0  0  0
 16 27  2  0  0  0  0
 17 25  1  0  0  0  0
 17 28  2  0  0  0  0
 18 30  2  0  0  0  0
 18 31  1  0  0  0  0
 19 32  1  0  0  0  0
 20 32  1  0  0  0  0
 20 33  2  0  0  0  0
 20 35  1  0  0  0  0
 21 23  2  0  0  0  0
 21 41  1  0  0  0  0
 22 24  2  0  0  0  0
 22 42  1  0  0  0  0
 23 50  1  0  0  0  0
 24 43  1  0  0  0  0
 25 69  1  0  0  0  0
 26 79  1  0  0  0  0
 27 80  1  0  0  0  0
 28 81  1  0  0  0  0
 29 31  2  0  0  0  0
 29 79  1  0  0  0  0
 30 82  1  0  0  0  0
 31 83  1  0  0  0  0
 32 62  2  0  0  0  0
 33 64  1  0  0  0  0
 33 67  1  0  0  0  0
 34 58  1  0  0  0  0
 34 63  2  0  0  0  0
 35 68  1  0  0  0  0
 35 73  2  0  0  0  0
 36 51  1  0  0  0  0
 36 70  1  0  0  0  0
 36 74  2  0  0  0  0
 37 59  1  0  0  0  0
 37 65  1  0  0  0  0
 37 75  2  0  0  0  0
 38 60  1  0  0  0  0
 38 71  1  0  0  0  0
 38 76  2  0  0  0  0
 39 63  1  0  0  0  0
 39 77  2  0  0  0  0
 39 80  1  0  0  0  0
 40 66  1  0  0  0  0
 40 69  1  0  0  0  0
 40 78  2  0  0  0  0
 41 44  1  0  0  0  0
 42 51  1  0  0  0  0
 43 65  1  0  0  0  0
 44 46  1  0  0  0  0
 45 47  1  0  0  0  0
 45 48  1  0  0  0  0
 46 50  1  0  0  0  0
 47 52  1  0  0  0  0
 48 66  1  0  0  0  0
 49 52  1  0  0  0  0
 49 66  1  0  0  0  0
 50 70  1  0  0  0  0
 51 65  1  0  0  0  0
 52 64  1  0  0  0  0
 53 60  1  0  0  0  0
 54 61  1  0  0  0  0
 55 61  1  0  0  0  0
 56 61  1  0  0  0  0
 57 72  1  0  0  0  0
 58 81  1  0  0  0  0
 59 61  1  0  0  0  0
 59 71  1  0  0  0  0
 60 72  1  0  0  0  0
 62 64  1  0  0  0  0
M  CHG  1  72   1
M  ISO  4  39 101  40 100  69 100  80 101
M  END
> <Batch ID>
0082

> <Smiles>
CNC(C)C(=O)NC(C(=O)N1Cc2cc([101O:1][101C:1](=O)N=CCOc3cccc([100NH:0][100C:0](=O)N4CCCC(n5nc(-c6ccc(Oc7ccc(F)cc7F)cc6)c(C(N)=O)c5N)C4)c3)ccc2CC1C(=O)NC1CCCc2ccccc21)C(C)(C)C

> <Shape>
0.249

> <Color>
0.114

> <Negative vol penalty>
0.000

$$$$

  -OEChem-04052300073D

 84 93  0     1  0  0  0  0  0999 V2000
  -28.3711  -38.0462   19.7555 C   0  0  0  0  0  0  0  0  0  0  0  0
  -28.7795  -36.7311   19.5582 C   0  0  0  0  0  0  0  0  0  0  0  0
  -24.1427   -8.3321   20.2733 C   0  0  0  0  0  0  0  0  0  0  0  0
  -22.9514  -10.2200   21.1972 C   0  0  0  0  0  0  0  0  0  0  0  0
  -28.1151  -19.5310   18.8406 C   0  0  0  0  0  0  0  0  0  0  0  0
  -29.6822  -19.7909   20.6609 C   0  0  0  0  0  0  0  0  0  0  0  0
  -27.4641  -38.3485   20.7703 C   0  0  0  0  0  0  0  0  0  0  0  0
  -28.2819  -35.7175   20.3764 C   0  0  0  0  0  0  0  0  0  0  0  0
  -27.0592  -29.9409   18.7512 C   0  0  0  0  0  0  0  0  0  0  0  0
  -28.1645  -18.1457   18.9957 C   0  0  0  0  0  0  0  0  0  0  0  0
  -29.7316  -18.4055   20.8161 C   0  0  0  0  0  0  0  0  0  0  0  0
  -23.1777   -7.4691   20.7925 C   0  0  0  0  0  0  0  0  0  0  0  0
  -21.9863   -9.3570   21.7164 C   0  0  0  0  0  0  0  0  0  0  0  0
  -27.7788  -28.7549   18.8905 C   0  0  0  0  0  0  0  0  0  0  0  0
  -22.4167   -6.0956   23.7856 C   0  0  0  0  0  0  0  0  0  0  0  0
  -22.8605   -4.9421   24.4322 C   0  0  0  0  0  0  0  0  0  0  0  0
  -26.5530  -28.2550   20.9071 C   0  0  0  0  0  0  0  0  0  0  0  0
  -21.6643   -3.5845   22.8312 C   0  0  0  0  0  0  0  0  0  0  0  0
  -24.0296   -9.7076   20.4757 C   0  0  0  0  0  0  0  0  0  0  0  0
  -28.8740  -20.3536   19.6731 C   0  0  0  0  0  0  0  0  0  0  0  0
  -25.0230  -11.2168   18.6749 C   0  0  0  0  0  0  0  0  0  0  0  0
  -26.9478  -37.3368   21.5952 C   0  0  0  0  0  0  0  0  0  0  0  0
  -26.0870  -30.2987   19.6963 C   0  0  0  0  0  0  0  0  0  0  0  0
  -27.3683  -36.0067   21.4042 C   0  0  0  0  0  0  0  0  0  0  0  0
  -25.8206  -29.4448   20.7761 C   0  0  0  0  0  0  0  0  0  0  0  0
  -28.9728  -17.5830   19.9835 C   0  0  0  0  0  0  0  0  0  0  0  0
  -22.0995   -7.9815   21.5140 C   0  0  0  0  0  0  0  0  0  0  0  0
  -27.5278  -27.9132   19.9701 C   0  0  0  0  0  0  0  0  0  0  0  0
  -21.5966   -5.9936   22.6619 C   0  0  0  0  0  0  0  0  0  0  0  0
  -22.4843   -3.6866   23.9550 C   0  0  0  0  0  0  0  0  0  0  0  0
  -21.2205   -4.7380   22.1846 C   0  0  0  0  0  0  0  0  0  0  0  0
  -25.0264  -10.5995   19.9401 C   0  0  0  0  0  0  0  0  0  0  0  0
  -26.1788  -11.9585   18.6517 C   0  0  0  0  0  0  0  0  0  0  0  0
  -27.6580  -22.4578   19.6521 C   0  0  0  0  0  0  0  0  0  0  0  0
  -29.9565  -24.0019   18.9956 C   0  0  0  0  0  0  0  0  0  0  0  0
  -28.8224  -21.7965   19.5129 C   0  0  0  0  0  0  0  0  0  0  0  0
  -28.7909  -24.6571   19.1247 C   0  0  0  0  0  0  0  0  0  0  0  0
  -24.0611  -11.1278   17.6154 C   0  0  0  0  0  0  0  0  0  0  0  0
  -25.7121  -32.7191   21.7224 C   0  0  0  0  0  0  0  0  0  0  0  0
  -22.8316  -31.3230   22.2480 C   0  0  0  0  0  0  0  0  0  0  0  0
  -20.9232  -28.4951   22.1586 C   0  0  0  0  0  0  0  0  0  0  0  0
  -29.7711  -15.4565   21.0730 C   0  0  0  0  0  0  0  0  0  0  0  0
  -26.0060  -37.7187   22.7096 C   0  0  0  0  0  0  0  0  0  0  0  0
  -25.3007  -31.5684   19.5173 C   0  0  0  0  0  0  0  0  0  0  0  0
  -24.7731  -29.7733   21.8073 C   0  0  0  0  0  0  0  0  0  0  0  0
  -30.1127  -22.5231   19.2099 C   0  0  0  0  0  0  0  0  0  0  0  0
  -27.5164  -23.9450   19.4958 C   0  0  0  0  0  0  0  0  0  0  0  0
  -25.2391  -36.5342   23.2918 C   0  0  0  0  0  0  0  0  0  0  0  0
  -30.1353  -11.9919   21.8087 C   0  0  0  0  0  0  0  0  0  0  0  0
  -26.1825  -35.3650   23.5554 C   0  0  0  0  0  0  0  0  0  0  0  0
  -28.8383  -11.3716   21.2841 C   0  0  0  0  0  0  0  0  0  0  0  0
  -29.8974  -13.3718   22.4195 C   0  0  0  0  0  0  0  0  0  0  0  0
  -27.8920  -13.7008   21.0271 C   0  0  0  0  0  0  0  0  0  0  0  0
  -26.8320  -34.8761   22.2552 C   0  0  1  0  0  0  0  0  0  0  0  0
  -24.6937  -32.0838   20.8185 C   0  0  1  0  0  0  0  0  0  0  0  0
  -28.0914  -12.3380   20.3440 C   0  0  2  0  0  0  0  0  0  0  0  0
  -18.6171  -27.6574   22.6856 C   0  0  0  0  0  0  0  0  0  0  0  0
  -23.5121  -31.3282   25.2223 C   0  0  0  0  0  0  0  0  0  0  0  0
  -21.6699  -29.6700   25.5755 C   0  0  0  0  0  0  0  0  0  0  0  0
  -21.1467  -31.9435   24.6923 C   0  0  0  0  0  0  0  0  0  0  0  0
  -20.4305  -27.7329   19.3416 C   0  0  0  0  0  0  0  0  0  0  0  0
  -28.6822  -26.1231   18.9124 C   0  0  0  0  0  0  0  0  0  1  0  0
  -22.3109  -30.2703   23.1965 C   0  0  1  0  0  0  0  0  0  0  0  0
  -19.5291  -28.2375   21.6158 C   0  0  2  0  0  0  0  0  0  0  0  0
  -22.1811  -30.7975   24.6535 C   0  0  0  0  0  0  0  0  0  0  0  0
  -26.0993  -10.9210   20.6678 N   0  0  0  0  0  0  0  0  0  0  0  0
  -26.7809  -11.7483   19.8573 N   0  0  0  0  0  0  0  0  0  0  0  0
  -24.0353  -31.0290   21.5919 N   0  0  0  0  0  0  0  0  0  0  0  0
  -29.1895  -14.2341   21.4707 N   0  0  0  0  0  0  0  0  0  0  0  0
  -26.7287  -12.7634   17.7178 N   0  0  0  0  0  0  0  0  0  0  0  0
  -22.9310  -10.3209   17.8051 N   0  0  0  0  0  0  0  0  0  0  0  0
  -29.0216  -16.1759   20.1427 N   0  0  0  0  0  0  0  0  0  0  0  0
  -25.9000  -34.0694   21.4969 N   0  0  0  0  0  0  0  0  0  0  0  0
  -21.0600  -29.7864   22.6225 N   0  0  0  0  0  0  0  0  0  0  0  0
  -19.5859  -27.2787   20.4763 N   0  3  0  0  0  0  0  0  0  0  0  0
  -24.2079  -11.7325   16.5262 O   0  0  0  0  0  0  0  0  0  0  0  0
  -26.2839  -32.0351   22.5632 O   0  0  0  0  0  0  0  0  0  0  0  0
  -22.1901  -32.3647   22.0894 O   0  0  0  0  0  0  0  0  0  0  0  0
  -21.8016  -27.6357   22.1732 O   0  0  0  0  0  0  0  0  0  0  0  0
  -30.8671  -15.8243   21.5038 O   0  0  0  0  0  0  0  0  0  0  0  0
  -21.1575   -7.1397   22.0206 O   0  0  0  0  0  0  0  0  0  0  0  0
  -28.2293  -26.7554   20.1088 O   0  0  0  0  0  0  0  0  0  1  0  0
  -22.9119   -2.5789   24.5751 F   0  0  0  0  0  0  0  0  0  0  0  0
  -20.4339   -4.6336   21.1048 F   0  0  0  0  0  0  0  0  0  0  0  0
  1  2  1  0  0  0  0
  1  7  2  0  0  0  0
  2  8  2  0  0  0  0
  3 12  2  0  0  0  0
  3 19  1  0  0  0  0
  4 13  1  0  0  0  0
  4 19  2  0  0  0  0
  5 10  2  0  0  0  0
  5 20  1  0  0  0  0
  6 11  1  0  0  0  0
  6 20  2  0  0  0  0
  7 22  1  0  0  0  0
  8 24  1  0  0  0  0
  9 14  2  0  0  0  0
  9 23  1  0  0  0  0
 10 26  1  0  0  0  0
 11 26  2  0  0  0  0
 12 27  1  0  0  0  0
 13 27  2  0  0  0  0
 14 28  1  0  0  0  0
 15 16  2  0  0  0  0
 15 29  1  0  0  0  0
 16 30  1  0  0  0  0
 17 25  1  0  0  0  0
 17 28  2  0  0  0  0
 18 30  2  0  0  0  0
 18 31  1  0  0  0  0
 19 32  1  0  0  0  0
 20 36  1  0  0  0  0
 21 32  1  0  0  0  0
 21 33  2  0  0  0  0
 21 38  1  0  0  0  0
 22 24  2  0  0  0  0
 22 43  1  0  0  0  0
 23 25  2  0  0  0  0
 23 44  1  0  0  0  0
 24 54  1  0  0  0  0
 25 45  1  0  0  0  0
 26 72  1  0  0  0  0
 27 81  1  0  0  0  0
 28 82  1  0  0  0  0
 29 31  2  0  0  0  0
 29 81  1  0  0  0  0
 30 83  1  0  0  0  0
 31 84  1  0  0  0  0
 32 66  2  0  0  0  0
 33 67  1  0  0  0  0
 33 70  1  0  0  0  0
 34 36  2  0  0  0  0
 34 47  1  0  0  0  0
 35 37  2  0  0  0  0
 35 46  1  0  0  0  0
 36 46  1  0  0  0  0
 37 47  1  0  0  0  0
 37 62  1  0  0  0  0
 38 71  1  0  0  0  0
 38 76  2  0  0  0  0
 39 55  1  0  0  0  0
 39 73  1  0  0  0  0
 39 77  2  0  0  0  0
 40 63  1  0  0  0  0
 40 68  1  0  0  0  0
 40 78  2  0  0  0  0
 41 64  1  0  0  0  0
 41 74  1  0  0  0  0
 41 79  2  0  0  0  0
 42 69  1  0  0  0  0
 42 72  1  0  0  0  0
 42 80  2  0  0  0  0
 43 48  1  0  0  0  0
 44 55  1  0  0  0  0
 45 68  1  0  0  0  0
 48 50  1  0  0  0  0
 49 51  1  0  0  0  0
 49 52  1  0  0  0  0
 50 54  1  0  0  0  0
 51 56  1  0  0  0  0
 52 69  1  0  0  0  0
 53 56  1  0  0  0  0
 53 69  1  0  0  0  0
 54 73  1  0  0  0  0
 55 68  1  0  0  0  0
 56 67  1  0  0  0  0
 57 64  1  0  0  0  0
 58 65  1  0  0  0  0
 59 65  1  0  0  0  0
 60 65  1  0  0  0  0
 61 75  1  0  0  0  0
 62 82  1  0  0  0  0
 63 65  1  0  0  0  0
 63 74  1  0  0  0  0
 64 75  1  0  0  0  0
 66 67  1  0  0  0  0
M  CHG  1  75   1
M  ISO  4  42 100  62 101  72 100  82 101
M  END
> <Batch ID>
0082

> <Smiles>
CNC(C)C(=O)NC(C(=O)N1Cc2cc([101O:1][101CH2:1]C3=CCC(c4ccc([100NH:0][100C:0](=O)N5CCCC(n6nc(-c7ccc(Oc8ccc(F)cc8F)cc7)c(C(N)=O)c6N)C5)cc4)=CC3)ccc2CC1C(=O)NC1CCCc2ccccc21)C(C)(C)C

> <Shape>
0.332

> <Color>
0.103

> <Negative vol penalty>
0.000

$$$$

  -OEChem-04052300073D

 84 93  0     1  0  0  0  0  0999 V2000
  -27.3760  -37.7449   23.8602 C   0  0  0  0  0  0  0  0  0  0  0  0
  -27.9646  -36.8012   23.0246 C   0  0  0  0  0  0  0  0  0  0  0  0
  -24.1838   -9.2870   22.1900 C   0  0  0  0  0  0  0  0  0  0  0  0
  -22.9184  -11.2676   21.6306 C   0  0  0  0  0  0  0  0  0  0  0  0
  -26.4881  -37.3366   24.8546 C   0  0  0  0  0  0  0  0  0  0  0  0
  -27.6666  -35.4483   23.1837 C   0  0  0  0  0  0  0  0  0  0  0  0
  -26.9147  -29.4144   19.3965 C   0  0  0  0  0  0  0  0  0  0  0  0
  -28.5675  -19.7717   19.8358 C   0  0  0  0  0  0  0  0  0  0  0  0
  -28.8333  -18.4103   19.6890 C   0  0  0  0  0  0  0  0  0  0  0  0
  -23.3139   -9.0306   23.2498 C   0  0  0  0  0  0  0  0  0  0  0  0
  -22.0485  -11.0112   22.6904 C   0  0  0  0  0  0  0  0  0  0  0  0
  -27.3679  -28.0962   19.3695 C   0  0  0  0  0  0  0  0  0  0  0  0
  -20.2247   -7.7239   23.6765 C   0  0  0  0  0  0  0  0  0  0  0  0
  -19.7694   -6.4156   23.8394 C   0  0  0  0  0  0  0  0  0  0  0  0
  -25.7587  -27.5146   21.0700 C   0  0  0  0  0  0  0  0  0  0  0  0
  -26.2900  -19.4044   19.1180 C   0  0  0  0  0  0  0  0  0  0  0  0
  -20.7574   -6.3460   26.0430 C   0  0  0  0  0  0  0  0  0  0  0  0
  -23.9860  -10.4056   21.3804 C   0  0  0  0  0  0  0  0  0  0  0  0
  -24.7639  -10.2195   18.9581 C   0  0  0  0  0  0  0  0  0  0  0  0
  -26.1716  -35.9789   25.0197 C   0  0  0  0  0  0  0  0  0  0  0  0
  -25.8859  -29.7956   20.2697 C   0  0  0  0  0  0  0  0  0  0  0  0
  -26.7747  -35.0213   24.1821 C   0  0  0  0  0  0  0  0  0  0  0  0
  -25.2926  -28.8377   21.1043 C   0  0  0  0  0  0  0  0  0  0  0  0
  -27.2958  -20.2688   19.5503 C   0  0  0  0  0  0  0  0  0  0  0  0
  -27.8275  -17.5460   19.2567 C   0  0  0  0  0  0  0  0  0  0  0  0
  -22.2463   -9.8926   23.5000 C   0  0  0  0  0  0  0  0  0  0  0  0
  -26.7918  -27.1467   20.2083 C   0  0  0  0  0  0  0  0  0  0  0  0
  -20.9465   -8.3433   24.6969 C   0  0  0  0  0  0  0  0  0  0  0  0
  -20.0357   -5.7266   25.0226 C   0  0  0  0  0  0  0  0  0  0  0  0
  -26.5558  -18.0430   18.9712 C   0  0  0  0  0  0  0  0  0  0  0  0
  -21.2128   -7.6544   25.8801 C   0  0  0  0  0  0  0  0  0  0  0  0
  -24.8846  -10.6713   20.2859 C   0  0  0  0  0  0  0  0  0  0  0  0
  -25.8612  -10.7405   18.3170 C   0  0  0  0  0  0  0  0  0  0  0  0
  -26.6615  -23.5741   19.8055 C   0  0  0  0  0  0  0  0  0  0  0  0
  -25.9167  -22.3537   19.4937 C   0  0  0  0  0  0  0  0  0  0  0  0
  -26.3377  -24.8788   19.8603 C   0  0  0  0  0  0  0  0  0  1  0  0
  -23.7505   -9.4020   18.3578 C   0  0  0  0  0  0  0  0  0  0  0  0
  -25.6448  -31.8311   22.6991 C   0  0  0  0  0  0  0  0  0  0  0  0
  -22.5079  -31.0167   22.5622 C   0  0  0  0  0  0  0  0  0  0  0  0
  -20.1455  -28.7306   21.6459 C   0  0  0  0  0  0  0  0  0  0  0  0
  -29.3089  -15.5105   19.3492 C   0  0  0  0  0  0  0  0  0  0  0  0
  -25.2427  -35.5810   26.1393 C   0  0  0  0  0  0  0  0  0  0  0  0
  -25.3902  -31.2158   20.2676 C   0  0  0  0  0  0  0  0  0  0  0  0
  -24.1713  -29.1915   22.0455 C   0  0  0  0  0  0  0  0  0  0  0  0
  -27.8975  -22.7317   20.0228 C   0  0  0  0  0  0  0  0  0  0  0  0
  -24.6918  -34.1643   25.9992 C   0  0  0  0  0  0  0  0  0  0  0  0
  -30.3733  -12.1194   19.1378 C   0  0  0  0  0  0  0  0  0  0  0  0
  -25.8111  -33.1882   25.6509 C   0  0  0  0  0  0  0  0  0  0  0  0
  -29.0748  -11.3223   19.2813 C   0  0  0  0  0  0  0  0  0  0  0  0
  -30.3731  -13.3672   20.0192 C   0  0  0  0  0  0  0  0  0  0  0  0
  -27.9110  -13.4497   19.9930 C   0  0  0  0  0  0  0  0  0  0  0  0
  -26.4576  -33.5469   24.3074 C   0  0  1  0  0  0  0  0  0  0  0  0
  -24.6866  -31.6050   21.5640 C   0  0  1  0  0  0  0  0  0  0  0  0
  -27.8378  -12.2183   19.0754 C   0  0  2  0  0  0  0  0  0  0  0  0
  -17.6691  -28.3279   21.6984 C   0  0  0  0  0  0  0  0  0  0  0  0
  -22.6841  -30.3354   25.5312 C   0  0  0  0  0  0  0  0  0  0  0  0
  -20.5322  -29.0770   25.2988 C   0  0  0  0  0  0  0  0  0  0  0  0
  -20.5935  -31.5314   24.8576 C   0  0  0  0  0  0  0  0  0  0  0  0
  -19.9842  -28.6165   18.6929 C   0  0  0  0  0  0  0  0  0  0  0  0
  -21.6525  -29.9466   23.1965 C   0  0  1  0  0  0  0  0  0  0  0  0
  -18.8351  -28.8822   20.8946 C   0  0  2  0  0  0  0  0  0  0  0  0
  -21.3880  -30.2160   24.7048 C   0  0  0  0  0  0  0  0  0  0  0  0
  -25.9728  -11.4216   20.4784 N   0  0  0  0  0  0  0  0  0  0  0  0
  -26.5459  -11.4450   19.2630 N   0  0  0  0  0  0  0  0  0  0  0  0
  -27.0337  -21.6114   19.6944 N   0  0  0  0  0  0  0  0  0  0  0  0
  -23.7259  -30.5943   22.0111 N   0  0  0  0  0  0  0  0  0  0  0  0
  -29.1742  -14.1695   19.7665 N   0  0  0  0  0  0  0  0  0  0  0  0
  -26.2976  -10.6601   17.0420 N   0  0  0  0  0  0  0  0  0  0  0  0
  -22.6930   -8.9520   19.1600 N   0  0  0  0  0  0  0  0  0  0  0  0
  -28.1006  -16.1636   19.1081 N   0  0  0  0  0  0  0  0  0  0  0  0
  -25.6178  -33.1144   23.2110 N   0  0  0  0  0  0  0  0  0  0  0  0
  -20.4436  -29.8559   22.3848 N   0  0  0  0  0  0  0  0  0  0  0  0
  -18.8966  -28.1567   19.5943 N   0  3  0  0  0  0  0  0  0  0  0  0
  -24.7738  -22.1021   19.1729 O   0  0  0  0  0  0  0  0  0  0  0  0
  -23.7905   -9.0664   17.1497 O   0  0  0  0  0  0  0  0  0  0  0  0
  -26.3549  -30.9092   23.0832 O   0  0  0  0  0  0  0  0  0  0  0  0
  -22.1067  -32.1831   22.5497 O   0  0  0  0  0  0  0  0  0  0  0  0
  -20.8337  -27.7141   21.5863 O   0  0  0  0  0  0  0  0  0  0  0  0
  -30.4153  -16.0323   19.1893 O   0  0  0  0  0  0  0  0  0  0  0  0
  -21.3971   -9.6425   24.5339 O   0  0  0  0  0  0  0  0  0  0  0  0
  -27.2326  -25.8594   20.1845 O   0  0  0  0  0  0  0  0  0  1  0  0
  -19.5971   -4.4708   25.1795 F   0  0  0  0  0  0  0  0  0  0  0  0
  -25.5817  -17.2218   18.5536 F   0  0  0  0  0  0  0  0  0  0  0  0
  -21.9047   -8.2446   26.8644 F   0  0  0  0  0  0  0  0  0  0  0  0
  1  2  1  0  0  0  0
  1  5  2  0  0  0  0
  2  6  2  0  0  0  0
  3 10  2  0  0  0  0
  3 18  1  0  0  0  0
  4 11  1  0  0  0  0
  4 18  2  0  0  0  0
  5 20  1  0  0  0  0
  6 22  1  0  0  0  0
  7 12  2  0  0  0  0
  7 21  1  0  0  0  0
  8  9  2  0  0  0  0
  8 24  1  0  0  0  0
  9 25  1  0  0  0  0
 10 26  1  0  0  0  0
 11 26  2  0  0  0  0
 12 27  1  0  0  0  0
 13 14  2  0  0  0  0
 13 28  1  0  0  0  0
 14 29  1  0  0  0  0
 15 23  1  0  0  0  0
 15 27  2  0  0  0  0
 16 24  2  0  0  0  0
 16 30  1  0  0  0  0
 17 29  2  0  0  0  0
 17 31  1  0  0  0  0
 18 32  1  0  0  0  0
 19 32  1  0  0  0  0
 19 33  2  0  0  0  0
 19 37  1  0  0  0  0
 20 22  2  0  0  0  0
 20 42  1  0  0  0  0
 21 23  2  0  0  0  0
 21 43  1  0  0  0  0
 22 52  1  0  0  0  0
 23 44  1  0  0  0  0
 24 65  1  0  0  0  0
 25 30  2  0  0  0  0
 25 70  1  0  0  0  0
 26 80  1  0  0  0  0
 27 81  1  0  0  0  0
 28 31  2  0  0  0  0
 28 80  1  0  0  0  0
 29 82  1  0  0  0  0
 30 83  1  0  0  0  0
 31 84  1  0  0  0  0
 32 63  2  0  0  0  0
 33 64  1  0  0  0  0
 33 68  1  0  0  0  0
 34 35  1  0  0  0  0
 34 36  2  0  0  0  0
 34 45  1  0  0  0  0
 35 65  1  0  0  0  0
 35 74  2  0  0  0  0
 36 81  1  0  0  0  0
 37 69  1  0  0  0  0
 37 75  2  0  0  0  0
 38 53  1  0  0  0  0
 38 71  1  0  0  0  0
 38 76  2  0  0  0  0
 39 60  1  0  0  0  0
 39 66  1  0  0  0  0
 39 77  2  0  0  0  0
 40 61  1  0  0  0  0
 40 72  1  0  0  0  0
 40 78  2  0  0  0  0
 41 67  1  0  0  0  0
 41 70  1  0  0  0  0
 41 79  2  0  0  0  0
 42 46  1  0  0  0  0
 43 53  1  0  0  0  0
 44 66  1  0  0  0  0
 45 65  1  0  0  0  0
 46 48  1  0  0  0  0
 47 49  1  0  0  0  0
 47 50  1  0  0  0  0
 48 52  1  0  0  0  0
 49 54  1  0  0  0  0
 50 67  1  0  0  0  0
 51 54  1  0  0  0  0
 51 67  1  0  0  0  0
 52 71  1  0  0  0  0
 53 66  1  0  0  0  0
 54 64  1  0  0  0  0
 55 61  1  0  0  0  0
 56 62  1  0  0  0  0
 57 62  1  0  0  0  0
 58 62  1  0  0  0  0
 59 73  1  0  0  0  0
 60 62  1  0  0  0  0
 60 72  1  0  0  0  0
 61 73  1  0  0  0  0
 63 64  1  0  0  0  0
M  CHG  1  73   1
M  ISO  4  36 101  41 100  70 100  81 101
M  END
> <Batch ID>
0082

> <Smiles>
CNC(C)C(=O)NC(C(=O)N1Cc2cc([101O:1][101CH:1]=C3CN(c4ccc([100NH:0][100C:0](=O)N5CCCC(n6nc(-c7ccc(Oc8ccc(F)cc8F)cc7)c(C(N)=O)c6N)C5)c(F)c4)C3=O)ccc2CC1C(=O)NC1CCCc2ccccc21)C(C)(C)C

> <Shape>
0.291

> <Color>
0.088

> <Negative vol penalty>
0.000

$$$$

  -OEChem-04052300073D

 85 94  0     1  0  0  0  0  0999 V2000
  -31.1459  -35.1943   21.1747 C   0  0  0  0  0  0  0  0  0  0  0  0
  -30.9269  -33.9079   20.6924 C   0  0  0  0  0  0  0  0  0  0  0  0
  -24.7792  -18.8288   17.6931 C   0  0  0  0  0  0  0  0  0  0  0  0
  -24.7520   -8.7783   21.5821 C   0  0  0  0  0  0  0  0  0  0  0  0
  -23.1971  -10.2477   20.4595 C   0  0  0  0  0  0  0  0  0  0  0  0
  -30.5544  -35.5993   22.3706 C   0  0  0  0  0  0  0  0  0  0  0  0
  -30.1172  -33.0253   21.4064 C   0  0  0  0  0  0  0  0  0  0  0  0
  -26.3793  -28.7635   19.0888 C   0  0  0  0  0  0  0  0  0  0  0  0
  -25.3535  -19.9833   18.2250 C   0  0  0  0  0  0  0  0  0  0  0  0
  -25.4371  -17.6044   17.8111 C   0  0  0  0  0  0  0  0  0  0  0  0
  -23.7314   -8.3445   22.4281 C   0  0  0  0  0  0  0  0  0  0  0  0
  -22.1764   -9.8138   21.3055 C   0  0  0  0  0  0  0  0  0  0  0  0
  -26.5260  -27.3901   18.8991 C   0  0  0  0  0  0  0  0  0  0  0  0
  -21.1174   -6.2047   22.2841 C   0  0  0  0  0  0  0  0  0  0  0  0
  -21.0079   -4.8340   22.5178 C   0  0  0  0  0  0  0  0  0  0  0  0
  -25.3931  -26.9863   20.9902 C   0  0  0  0  0  0  0  0  0  0  0  0
  -27.2437  -18.6892   18.9928 C   0  0  0  0  0  0  0  0  0  0  0  0
  -21.3430   -5.2102   24.8807 C   0  0  0  0  0  0  0  0  0  0  0  0
  -24.4849   -9.7300   20.5978 C   0  0  0  0  0  0  0  0  0  0  0  0
  -25.9094   -9.6243   18.4842 C   0  0  0  0  0  0  0  0  0  0  0  0
  -29.7293  -34.7243   23.0946 C   0  0  0  0  0  0  0  0  0  0  0  0
  -25.7470  -29.2598   20.2379 C   0  0  0  0  0  0  0  0  0  0  0  0
  -29.5152  -33.4184   22.6138 C   0  0  0  0  0  0  0  0  0  0  0  0
  -25.2373  -28.3664   21.1909 C   0  0  0  0  0  0  0  0  0  0  0  0
  -26.5858  -19.9135   18.8748 C   0  0  0  0  0  0  0  0  0  0  0  0
  -26.6694  -17.5347   18.4610 C   0  0  0  0  0  0  0  0  0  0  0  0
  -22.4436   -8.8622   22.2898 C   0  0  0  0  0  0  0  0  0  0  0  0
  -26.0354  -26.5013   19.8512 C   0  0  0  0  0  0  0  0  0  0  0  0
  -21.3397   -7.0782   23.3486 C   0  0  0  0  0  0  0  0  0  0  0  0
  -21.1207   -4.3367   23.8162 C   0  0  0  0  0  0  0  0  0  0  0  0
  -21.4525   -6.5810   24.6469 C   0  0  0  0  0  0  0  0  0  0  0  0
  -25.5389  -10.1790   19.7240 C   0  0  0  0  0  0  0  0  0  0  0  0
  -26.9550  -10.4060   18.0572 C   0  0  0  0  0  0  0  0  0  0  0  0
  -27.5495  -23.2432   20.0376 C   0  0  0  0  0  0  0  0  0  0  0  0
  -28.6814  -22.4801   20.5001 C   0  0  0  0  0  0  0  0  0  0  0  0
  -26.5833  -22.3464   19.3440 C   0  0  0  0  0  0  0  0  0  0  0  0
  -29.7586  -22.9123   21.1645 C   0  0  0  0  0  0  0  0  0  0  0  0
  -27.3035  -24.5602   20.1595 C   0  0  0  0  0  0  0  0  0  1  0  0
  -25.3578   -8.5029   17.7815 C   0  0  0  0  0  0  0  0  0  0  0  0
  -26.6388  -31.0999   22.6714 C   0  0  0  0  0  0  0  0  0  0  0  0
  -23.4988  -30.9058   23.4619 C   0  0  0  0  0  0  0  0  0  0  0  0
  -20.5575  -29.1886   23.2453 C   0  0  0  0  0  0  0  0  0  0  0  0
  -28.5652  -16.0468   19.1946 C   0  0  0  0  0  0  0  0  0  0  0  0
  -29.1499  -35.1916   24.4064 C   0  0  0  0  0  0  0  0  0  0  0  0
  -25.5729  -30.7433   20.4148 C   0  0  0  0  0  0  0  0  0  0  0  0
  -24.5326  -28.8476   22.4319 C   0  0  0  0  0  0  0  0  0  0  0  0
  -28.4452  -21.0558   20.0974 C   0  0  0  0  0  0  0  0  0  0  0  0
  -28.0032  -34.3193   24.9109 C   0  0  0  0  0  0  0  0  0  0  0  0
  -30.5260  -13.1234   19.7298 C   0  0  0  0  0  0  0  0  0  0  0  0
  -28.3693  -32.8423   24.8048 C   0  0  0  0  0  0  0  0  0  0  0  0
  -29.5043  -11.9856   19.6701 C   0  0  0  0  0  0  0  0  0  0  0  0
  -29.9486  -14.3697   20.3983 C   0  0  0  0  0  0  0  0  0  0  0  0
  -27.6592  -13.7097   19.7718 C   0  0  0  0  0  0  0  0  0  0  0  0
  -28.6232  -32.4402   23.3470 C   0  0  1  0  0  0  0  0  0  0  0  0
  -25.3687  -31.1516   21.8704 C   0  0  1  0  0  0  0  0  0  0  0  0
  -28.1742  -12.4546   19.0485 C   0  0  2  0  0  0  0  0  0  0  0  0
  -18.1741  -29.2575   24.0277 C   0  0  0  0  0  0  0  0  0  0  0  0
  -24.3817  -29.9644   26.2267 C   0  0  0  0  0  0  0  0  0  0  0  0
  -22.0448  -29.1577   26.6218 C   0  0  0  0  0  0  0  0  0  0  0  0
  -22.4762  -31.5841   26.2354 C   0  0  0  0  0  0  0  0  0  0  0  0
  -19.5307  -29.3474   20.4741 C   0  0  0  0  0  0  0  0  0  0  0  0
  -22.6633  -29.9684   24.2998 C   0  0  1  0  0  0  0  0  0  0  0  0
  -19.1458  -29.6453   22.9240 C   0  0  2  0  0  0  0  0  0  0  0  0
  -22.9064  -30.1593   25.8236 C   0  0  0  0  0  0  0  0  0  0  0  0
  -26.2882  -11.2315   20.0626 N   0  0  0  0  0  0  0  0  0  0  0  0
  -27.1401  -11.3445   19.0294 N   0  0  0  0  0  0  0  0  0  0  0  0
  -27.1578  -21.0654   19.4055 N   0  0  0  0  0  0  0  0  0  0  0  0
  -24.3927  -30.3074   22.5626 N   0  0  0  0  0  0  0  0  0  0  0  0
  -28.6918  -14.7577   19.7542 N   0  0  0  0  0  0  0  0  0  0  0  0
  -27.7249  -10.3751   16.9487 N   0  0  0  0  0  0  0  0  0  0  0  0
  -24.2861   -7.8116   18.3628 N   0  0  0  0  0  0  0  0  0  0  0  0
  -27.3372  -16.2907   18.5806 N   0  0  0  0  0  0  0  0  0  0  0  0
  -27.3698  -32.2722   22.6434 N   0  0  0  0  0  0  0  0  0  0  0  0
  -21.2797  -30.1736   23.8852 N   0  0  0  0  0  0  0  0  0  0  0  0
  -18.6796  -29.0294   21.6495 N   0  3  0  0  0  0  0  0  0  0  0  0
  -25.5255  -22.6853   18.8402 O   0  0  0  0  0  0  0  0  0  0  0  0
  -25.8128   -8.1151   16.6787 O   0  0  0  0  0  0  0  0  0  0  0  0
  -26.9332  -30.0729   23.2718 O   0  0  0  0  0  0  0  0  0  0  0  0
  -23.3582  -32.1240   23.5951 O   0  0  0  0  0  0  0  0  0  0  0  0
  -20.9763  -28.0688   22.9606 O   0  0  0  0  0  0  0  0  0  0  0  0
  -29.4887  -16.8639   19.2317 O   0  0  0  0  0  0  0  0  0  0  0  0
  -21.4474   -8.4389   23.1150 O   0  0  0  0  0  0  0  0  0  0  0  0
  -26.1779  -25.1603   19.6688 O   0  0  0  0  0  0  0  0  0  1  0  0
  -21.0140   -3.0205   24.0407 F   0  0  0  0  0  0  0  0  0  0  0  0
  -21.6649   -7.4154   25.6738 F   0  0  0  0  0  0  0  0  0  0  0  0
  1  2  1  0  0  0  0
  1  6  2  0  0  0  0
  2  7  2  0  0  0  0
  3  9  2  0  0  0  0
  3 10  1  0  0  0  0
  4 11  2  0  0  0  0
  4 19  1  0  0  0  0
  5 12  1  0  0  0  0
  5 19  2  0  0  0  0
  6 21  1  0  0  0  0
  7 23  1  0  0  0  0
  8 13  2  0  0  0  0
  8 22  1  0  0  0  0
  9 25  1  0  0  0  0
 10 26  2  0  0  0  0
 11 27  1  0  0  0  0
 12 27  2  0  0  0  0
 13 28  1  0  0  0  0
 14 15  2  0  0  0  0
 14 29  1  0  0  0  0
 15 30  1  0  0  0  0
 16 24  1  0  0  0  0
 16 28  2  0  0  0  0
 17 25  2  0  0  0  0
 17 26  1  0  0  0  0
 18 30  2  0  0  0  0
 18 31  1  0  0  0  0
 19 32  1  0  0  0  0
 20 32  1  0  0  0  0
 20 33  2  0  0  0  0
 20 39  1  0  0  0  0
 21 23  2  0  0  0  0
 21 44  1  0  0  0  0
 22 24  2  0  0  0  0
 22 45  1  0  0  0  0
 23 54  1  0  0  0  0
 24 46  1  0  0  0  0
 25 67  1  0  0  0  0
 26 72  1  0  0  0  0
 27 82  1  0  0  0  0
 28 83  1  0  0  0  0
 29 31  2  0  0  0  0
 29 82  1  0  0  0  0
 30 84  1  0  0  0  0
 31 85  1  0  0  0  0
 32 65  2  0  0  0  0
 33 66  1  0  0  0  0
 33 70  1  0  0  0  0
 34 35  1  0  0  0  0
 34 36  1  0  0  0  0
 34 38  2  0  0  0  0
 35 37  2  0  0  0  0
 35 47  1  0  0  0  0
 36 67  1  0  0  0  0
 36 76  2  0  0  0  0
 38 83  1  0  0  0  0
 39 71  1  0  0  0  0
 39 77  2  0  0  0  0
 40 55  1  0  0  0  0
 40 73  1  0  0  0  0
 40 78  2  0  0  0  0
 41 62  1  0  0  0  0
 41 68  1  0  0  0  0
 41 79  2  0  0  0  0
 42 63  1  0  0  0  0
 42 74  1  0  0  0  0
 42 80  2  0  0  0  0
 43 69  1  0  0  0  0
 43 72  1  0  0  0  0
 43 81  2  0  0  0  0
 44 48  1  0  0  0  0
 45 55  1  0  0  0  0
 46 68  1  0  0  0  0
 47 67  1  0  0  0  0
 48 50  1  0  0  0  0
 49 51  1  0  0  0  0
 49 52  1  0  0  0  0
 50 54  1  0  0  0  0
 51 56  1  0  0  0  0
 52 69  1  0  0  0  0
 53 56  1  0  0  0  0
 53 69  1  0  0  0  0
 54 73  1  0  0  0  0
 55 68  1  0  0  0  0
 56 66  1  0  0  0  0
 57 63  1  0  0  0  0
 58 64  1  0  0  0  0
 59 64  1  0  0  0  0
 60 64  1  0  0  0  0
 61 75  1  0  0  0  0
 62 64  1  0  0  0  0
 62 74  1  0  0  0  0
 63 75  1  0  0  0  0
 65 66  1  0  0  0  0
M  CHG  1  75   1
M  ISO  4  38 101  43 100  72 100  83 101
M  END
> <Batch ID>
0082

> <Smiles>
C=C1CN(c2cccc([100NH:0][100C:0](=O)N3CCCC(n4nc(-c5ccc(Oc6ccc(F)cc6F)cc5)c(C(N)=O)c4N)C3)c2)C(=O)C1=[101CH:1][101O:1]c1ccc2c(c1)CN(C(=O)C(NC(=O)C(C)NC)C(C)(C)C)C(C(=O)NC1CCCc3ccccc31)C2

> <Shape>
0.275

> <Color>
0.105

> <Negative vol penalty>
0.000

$$$$

  -OEChem-04052300073D

 76 83  0     1  0  0  0  0  0999 V2000
  -17.1056  -25.0062   24.3526 C   0  0  0  0  0  0  0  0  0  0  0  0
  -18.1504  -24.2112   23.8925 C   0  0  0  0  0  0  0  0  0  0  0  0
  -26.2837  -12.7466   21.4998 C   0  0  0  0  0  0  0  0  0  0  0  0
  -25.9951  -13.3642   19.1820 C   0  0  0  0  0  0  0  0  0  0  0  0
  -17.0926  -26.3712   24.0688 C   0  0  0  0  0  0  0  0  0  0  0  0
  -19.1824  -24.7806   23.1474 C   0  0  0  0  0  0  0  0  0  0  0  0
  -25.0923  -23.1762   23.2167 C   0  0  0  0  0  0  0  0  0  0  0  0
  -25.0635  -12.0714   21.4718 C   0  0  0  0  0  0  0  0  0  0  0  0
  -24.7749  -12.6888   19.1539 C   0  0  0  0  0  0  0  0  0  0  0  0
  -25.8555  -22.3707   22.3727 C   0  0  0  0  0  0  0  0  0  0  0  0
  -23.8839   -9.1036   20.3610 C   0  0  0  0  0  0  0  0  0  0  0  0
  -23.8318   -7.8349   20.9382 C   0  0  0  0  0  0  0  0  0  0  0  0
  -26.5897  -24.3318   21.1750 C   0  0  0  0  0  0  0  0  0  0  0  0
  -22.1443   -8.6078   22.4848 C   0  0  0  0  0  0  0  0  0  0  0  0
  -26.7495  -13.3931   20.3549 C   0  0  0  0  0  0  0  0  0  0  0  0
  -29.2803  -13.5644   20.0845 C   0  0  0  0  0  0  0  0  0  0  0  0
  -18.1299  -26.9594   23.3280 C   0  0  0  0  0  0  0  0  0  0  0  0
  -25.0634  -24.5669   23.0391 C   0  0  0  0  0  0  0  0  0  0  0  0
  -19.1826  -26.1545   22.8522 C   0  0  0  0  0  0  0  0  0  0  0  0
  -25.8273  -25.1529   22.0198 C   0  0  0  0  0  0  0  0  0  0  0  0
  -24.3091  -12.0424   20.2989 C   0  0  0  0  0  0  0  0  0  0  0  0
  -26.6021  -22.9482   21.3498 C   0  0  0  0  0  0  0  0  0  0  0  0
  -23.0662  -10.1245   20.8458 C   0  0  0  0  0  0  0  0  0  0  0  0
  -22.9620   -7.5869   22.0001 C   0  0  0  0  0  0  0  0  0  0  0  0
  -22.1964   -9.8766   21.9077 C   0  0  0  0  0  0  0  0  0  0  0  0
  -28.0095  -14.0913   20.3833 C   0  0  0  0  0  0  0  0  0  0  0  0
  -30.1399  -14.6215   20.2583 C   0  0  0  0  0  0  0  0  0  0  0  0
  -30.3195  -20.7761   17.0563 C   0  0  0  0  0  0  0  0  0  0  0  0
  -29.0463  -20.6887   17.4476 C   0  0  0  0  0  0  0  0  0  0  0  0
  -26.7028  -21.2108   19.7871 C   0  0  0  0  0  0  0  0  0  1  0  0
  -29.6506  -12.2380   19.6855 C   0  0  0  0  0  0  0  0  0  0  0  0
  -27.3163  -20.3758   18.9387 C   0  0  0  0  0  0  0  0  0  0  0  0
  -22.8036  -26.6940   22.3519 C   0  0  0  0  0  0  0  0  0  0  0  0
  -25.1914  -28.8234   22.8867 C   0  0  0  0  0  0  0  0  0  0  0  0
  -28.5443  -29.4516   22.9876 C   0  0  0  0  0  0  0  0  0  0  0  0
  -29.5576  -20.3598   19.8427 C   0  0  0  0  0  0  0  0  0  0  0  0
  -18.0481  -28.4305   23.0060 C   0  0  0  0  0  0  0  0  0  0  0  0
  -24.2561  -25.4243   23.9749 C   0  0  0  0  0  0  0  0  0  0  0  0
  -25.8464  -26.6428   21.7998 C   0  0  0  0  0  0  0  0  0  0  0  0
  -19.3713  -29.0242   22.5294 C   0  0  0  0  0  0  0  0  0  0  0  0
  -30.6543  -18.6738   22.7350 C   0  0  0  0  0  0  0  0  0  0  0  0
  -20.0139  -28.1224   21.4803 C   0  0  0  0  0  0  0  0  0  0  0  0
  -30.2171  -17.2413   22.4329 C   0  0  0  0  0  0  0  0  0  0  0  0
  -29.6078  -19.6996   22.2952 C   0  0  0  0  0  0  0  0  0  0  0  0
  -28.7601  -18.1333   20.5778 C   0  0  0  0  0  0  0  0  0  0  0  0
  -20.3328  -26.7398   22.0620 C   0  0  1  0  0  0  0  0  0  0  0  0
  -23.8956  -26.7821   23.3802 C   0  0  1  0  0  0  0  0  0  0  0  0
  -29.8202  -17.0871   20.9543 C   0  0  2  0  0  0  0  0  0  0  0  0
  -26.5756  -19.3435   18.1472 C   0  0  0  0  0  0  0  0  0  0  0  0
  -30.1909  -31.2956   23.4189 C   0  0  0  0  0  0  0  0  0  0  0  0
  -24.5812  -30.0072   20.1415 C   0  0  0  0  0  0  0  0  0  0  0  0
  -26.7994  -31.1651   20.2248 C   0  0  0  0  0  0  0  0  0  0  0  0
  -25.0526  -31.6963   21.9245 C   0  0  0  0  0  0  0  0  0  0  0  0
  -29.7456  -28.0021   25.2711 C   0  0  0  0  0  0  0  0  0  0  0  0
  -26.2540  -29.4744   22.0346 C   0  0  1  0  0  0  0  0  0  0  0  0
  -29.4090  -30.1417   24.0271 C   0  0  2  0  0  0  0  0  0  0  0  0
  -25.6701  -30.5575   21.0840 C   0  0  0  0  0  0  0  0  0  0  0  0
  -28.0533  -15.3827   20.7214 N   0  0  0  0  0  0  0  0  0  0  0  0
  -29.3620  -15.6762   20.6362 N   0  0  0  0  0  0  0  0  0  0  0  0
  -25.0359  -27.4381   22.7369 N   0  0  0  0  0  0  0  0  0  0  0  0
  -29.2241  -19.4868   20.8919 N   0  0  0  0  0  0  0  0  0  0  0  0
  -31.4776  -14.7424   20.1232 N   0  0  0  0  0  0  0  0  0  0  0  0
  -28.6422  -11.2735   19.5549 N   0  0  0  0  0  0  0  0  0  0  0  0
  -21.5287  -26.7971   22.8750 N   0  0  0  0  0  0  0  0  0  0  0  0
  -27.2682  -29.9731   22.9571 N   0  0  0  0  0  0  0  0  0  0  0  0
  -28.6788  -20.4235   18.7466 N   0  0  0  0  0  0  0  0  0  0  0  0
  -30.3788  -29.1764   24.6176 N   0  3  0  0  0  0  0  0  0  0  0  0
  -30.8426  -11.9134   19.4677 O   0  0  0  0  0  0  0  0  0  0  0  0
  -23.0960  -26.5450   21.1712 O   0  0  0  0  0  0  0  0  0  0  0  0
  -24.5289  -29.5173   23.6620 O   0  0  0  0  0  0  0  0  0  0  0  0
  -28.9605  -28.5436   22.2715 O   0  0  0  0  0  0  0  0  0  0  0  0
  -30.5967  -21.0335   19.8800 O   0  0  0  0  0  0  0  0  0  0  0  0
  -23.1186  -11.3834   20.2712 O   0  0  0  0  0  0  0  0  0  0  0  0
  -27.3474  -22.1642   20.5241 O   0  0  0  0  0  0  0  0  0  1  0  0
  -22.9109   -6.3681   22.5532 F   0  0  0  0  0  0  0  0  0  0  0  0
  -21.4076  -10.8530   22.3769 F   0  0  0  0  0  0  0  0  0  0  0  0
  1  2  1  0  0  0  0
  1  5  2  0  0  0  0
  2  6  2  0  0  0  0
  3  8  2  0  0  0  0
  3 15  1  0  0  0  0
  4  9  1  0  0  0  0
  4 15  2  0  0  0  0
  5 17  1  0  0  0  0
  6 19  1  0  0  0  0
  7 10  2  0  0  0  0
  7 18  1  0  0  0  0
  8 21  1  0  0  0  0
  9 21  2  0  0  0  0
 10 22  1  0  0  0  0
 11 12  2  0  0  0  0
 11 23  1  0  0  0  0
 12 24  1  0  0  0  0
 13 20  1  0  0  0  0
 13 22  2  0  0  0  0
 14 24  2  0  0  0  0
 14 25  1  0  0  0  0
 15 26  1  0  0  0  0
 16 26  1  0  0  0  0
 16 27  2  0  0  0  0
 16 31  1  0  0  0  0
 17 19  2  0  0  0  0
 17 37  1  0  0  0  0
 18 20  2  0  0  0  0
 18 38  1  0  0  0  0
 19 46  1  0  0  0  0
 20 39  1  0  0  0  0
 21 73  1  0  0  0  0
 22 74  1  0  0  0  0
 23 25  2  0  0  0  0
 23 73  1  0  0  0  0
 24 75  1  0  0  0  0
 25 76  1  0  0  0  0
 26 58  2  0  0  0  0
 27 59  1  0  0  0  0
 27 62  1  0  0  0  0
 28 29  2  0  0  0  0
 29 66  1  0  0  0  0
 30 32  2  0  0  0  0
 30 74  1  0  0  0  0
 31 63  1  0  0  0  0
 31 68  2  0  0  0  0
 32 49  1  0  0  0  0
 32 66  1  0  0  0  0
 33 47  1  0  0  0  0
 33 64  1  0  0  0  0
 33 69  2  0  0  0  0
 34 55  1  0  0  0  0
 34 60  1  0  0  0  0
 34 70  2  0  0  0  0
 35 56  1  0  0  0  0
 35 65  1  0  0  0  0
 35 71  2  0  0  0  0
 36 61  1  0  0  0  0
 36 66  1  0  0  0  0
 36 72  2  0  0  0  0
 37 40  1  0  0  0  0
 38 47  1  0  0  0  0
 39 60  1  0  0  0  0
 40 42  1  0  0  0  0
 41 43  1  0  0  0  0
 41 44  1  0  0  0  0
 42 46  1  0  0  0  0
 43 48  1  0  0  0  0
 44 61  1  0  0  0  0
 45 48  1  0  0  0  0
 45 61  1  0  0  0  0
 46 64  1  0  0  0  0
 47 60  1  0  0  0  0
 48 59  1  0  0  0  0
 50 56  1  0  0  0  0
 51 57  1  0  0  0  0
 52 57  1  0  0  0  0
 53 57  1  0  0  0  0
 54 67  1  0  0  0  0
 55 57  1  0  0  0  0
 55 65  1  0  0  0  0
 56 67  1  0  0  0  0
 58 59  1  0  0  0  0
M  CHG  1  67   1
M  ISO  4  30 101  36 100  66 100  74 101
M  END
> <Batch ID>
0082

> <Smiles>
C=C[100N:0](C(C)=[101CH:1][101O:1]c1ccc2c(c1)CN(C(=O)C(NC(=O)C(C)NC)C(C)(C)C)C(C(=O)NC1CCCc3ccccc31)C2)[100C:0](=O)N1CCCC(n2nc(-c3ccc(Oc4ccc(F)cc4F)cc3)c(C(N)=O)c2N)C1

> <Shape>
0.262

> <Color>
0.079

> <Negative vol penalty>
0.000

$$$$

  -OEChem-04052300073D

 82 90  0     1  0  0  0  0  0999 V2000
  -21.8499  -12.3695   19.6227 C   0  0  0  0  0  0  0  0  0  0  0  0
  -21.7181  -13.7322   19.8698 C   0  0  0  0  0  0  0  0  0  0  0  0
  -18.0947  -27.9704   22.9773 C   0  0  0  0  0  0  0  0  0  0  0  0
  -29.3967  -28.7564   25.4943 C   0  0  0  0  0  0  0  0  0  0  0  0
  -28.1979  -26.7348   24.9348 C   0  0  0  0  0  0  0  0  0  0  0  0
  -18.2248  -26.6085   22.7051 C   0  0  0  0  0  0  0  0  0  0  0  0
  -23.0570  -11.7266   19.8941 C   0  0  0  0  0  0  0  0  0  0  0  0
  -22.7929  -14.4526   20.3895 C   0  0  0  0  0  0  0  0  0  0  0  0
  -23.4888  -18.8781   18.0283 C   0  0  0  0  0  0  0  0  0  0  0  0
  -19.1946  -28.8172   22.8400 C   0  0  0  0  0  0  0  0  0  0  0  0
  -29.9987  -28.1020   26.5690 C   0  0  0  0  0  0  0  0  0  0  0  0
  -28.7999  -26.0804   26.0095 C   0  0  0  0  0  0  0  0  0  0  0  0
  -22.6322  -19.9237   18.3700 C   0  0  0  0  0  0  0  0  0  0  0  0
  -28.4083  -25.9186   29.3638 C   0  0  0  0  0  0  0  0  0  0  0  0
  -27.5963  -25.1318   30.1806 C   0  0  0  0  0  0  0  0  0  0  0  0
  -20.5547  -26.9403   22.1586 C   0  0  0  0  0  0  0  0  0  0  0  0
  -24.3377  -20.8436   19.8066 C   0  0  0  0  0  0  0  0  0  0  0  0
  -28.9319  -23.1924   29.6400 C   0  0  0  0  0  0  0  0  0  0  0  0
  -28.4963  -28.0728   24.6772 C   0  0  0  0  0  0  0  0  0  0  0  0
  -19.4547  -26.0935   22.2958 C   0  0  0  0  0  0  0  0  0  0  0  0
  -28.3516  -28.8304   22.2456 C   0  0  0  0  0  0  0  0  0  0  0  0
  -24.1502  -12.4414   20.4084 C   0  0  0  0  0  0  0  0  0  0  0  0
  -24.7746  -18.8014   18.5826 C   0  0  0  0  0  0  0  0  0  0  0  0
  -24.0153  -13.8184   20.6693 C   0  0  0  0  0  0  0  0  0  0  0  0
  -25.2097  -19.7975   19.4684 C   0  0  0  0  0  0  0  0  0  0  0  0
  -20.4246  -28.3021   22.4307 C   0  0  0  0  0  0  0  0  0  0  0  0
  -29.7003  -26.7640   26.8266 C   0  0  0  0  0  0  0  0  0  0  0  0
  -23.0555  -20.9051   19.2615 C   0  0  0  0  0  0  0  0  0  0  0  0
  -29.4820  -25.3424   28.6850 C   0  0  0  0  0  0  0  0  0  0  0  0
  -27.8582  -23.7687   30.3187 C   0  0  0  0  0  0  0  0  0  0  0  0
  -29.7439  -23.9793   28.8232 C   0  0  0  0  0  0  0  0  0  0  0  0
  -27.8737  -28.7483   23.5672 C   0  0  0  0  0  0  0  0  0  0  0  0
  -27.4052  -29.5738   21.5838 C   0  0  0  0  0  0  0  0  0  0  0  0
  -21.0295  -22.9841   21.3427 C   0  0  0  0  0  0  0  0  0  0  0  0
  -19.5923  -24.6368   22.0050 C   0  0  0  0  0  0  0  0  0  0  0  0
  -29.5444  -28.2835   21.6679 C   0  0  0  0  0  0  0  0  0  0  0  0
  -26.2993  -16.7131   20.4314 C   0  0  0  0  0  0  0  0  0  0  0  0
  -28.8373  -18.6504   19.8590 C   0  0  0  0  0  0  0  0  0  0  0  0
  -29.9815  -21.7496   19.0031 C   0  0  0  0  0  0  0  0  0  0  0  0
  -21.5829  -30.5374   22.5207 C   0  0  0  0  0  0  0  0  0  0  0  0
  -25.4198  -11.6936   20.7303 C   0  0  0  0  0  0  0  0  0  0  0  0
  -25.6962  -17.6818   18.1833 C   0  0  0  0  0  0  0  0  0  0  0  0
  -26.5877  -19.7719   20.0756 C   0  0  0  0  0  0  0  0  0  0  0  0
  -26.6292  -12.6038   20.9284 C   0  0  0  0  0  0  0  0  0  0  0  0
  -24.1449  -33.0023   22.3258 C   0  0  0  0  0  0  0  0  0  0  0  0
  -26.2710  -13.7780   21.8338 C   0  0  0  0  0  0  0  0  0  0  0  0
  -25.4356  -32.1978   22.4957 C   0  0  0  0  0  0  0  0  0  0  0  0
  -23.0154  -32.4526   23.1953 C   0  0  0  0  0  0  0  0  0  0  0  0
  -24.0411  -30.2127   23.2042 C   0  0  0  0  0  0  0  0  0  0  0  0
  -25.1663  -14.6391   21.2095 C   0  0  1  0  0  0  0  0  0  0  0  0
  -26.7992  -17.4226   19.2048 C   0  0  1  0  0  0  0  0  0  0  0  0
  -25.1893  -30.6890   22.2994 C   0  0  2  0  0  0  0  0  0  0  0  0
  -32.1066  -23.0379   18.6542 C   0  0  0  0  0  0  0  0  0  0  0  0
  -29.2190  -18.8345   22.8807 C   0  0  0  0  0  0  0  0  0  0  0  0
  -30.6913  -20.8240   22.5035 C   0  0  0  0  0  0  0  0  0  0  0  0
  -31.3384  -18.6015   21.5738 C   0  0  0  0  0  0  0  0  0  0  0  0
  -29.3257  -22.2889   16.1679 C   0  0  0  0  0  0  0  0  0  0  0  0
  -22.3746  -22.4892   20.8995 C   0  0  0  0  0  0  0  0  0  1  0  0
  -29.4209  -19.8728   20.5255 C   0  0  1  0  0  0  0  0  0  0  0  0
  -31.0258  -22.1950   17.9953 C   0  0  2  0  0  0  0  0  0  0  0  0
  -30.1407  -19.5329   21.8611 C   0  0  0  0  0  0  0  0  0  0  0  0
  -26.7138  -29.3886   23.7368 N   0  0  0  0  0  0  0  0  0  0  0  0
  -20.8499  -24.2347   21.6083 N   0  0  0  0  0  0  0  0  0  0  0  0
  -26.4550  -29.8802   22.5131 N   0  0  0  0  0  0  0  0  0  0  0  0
  -27.4496  -18.6535   19.6589 N   0  0  0  0  0  0  0  0  0  0  0  0
  -22.8367  -31.0194   22.9526 N   0  0  0  0  0  0  0  0  0  0  0  0
  -27.3013  -29.9889   20.3034 N   0  0  0  0  0  0  0  0  0  0  0  0
  -30.4071  -27.5454   22.4896 N   0  0  0  0  0  0  0  0  0  0  0  0
  -21.5417  -29.1626   22.2911 N   0  0  0  0  0  0  0  0  0  0  0  0
  -25.7127  -15.4889   20.1733 N   0  0  0  0  0  0  0  0  0  0  0  0
  -30.2769  -20.5105   19.5309 N   0  0  0  0  0  0  0  0  0  0  0  0
  -30.3922  -23.0034   16.9156 N   0  3  0  0  0  0  0  0  0  0  0  0
  -18.6079  -23.9138   22.1325 O   0  0  0  0  0  0  0  0  0  0  0  0
  -29.8448  -28.4585   20.4626 O   0  0  0  0  0  0  0  0  0  0  0  0
  -26.4371  -17.2368   21.5306 O   0  0  0  0  0  0  0  0  0  0  0  0
  -29.5861  -17.7300   19.5218 O   0  0  0  0  0  0  0  0  0  0  0  0
  -29.0036  -22.4343   19.2957 O   0  0  0  0  0  0  0  0  0  0  0  0
  -20.6245  -31.2929   22.3398 O   0  0  0  0  0  0  0  0  0  0  0  0
  -30.2877  -26.1251   27.8751 O   0  0  0  0  0  0  0  0  0  0  0  0
  -22.2211  -21.9264   19.5971 O   0  0  0  0  0  0  0  0  0  1  0  0
  -27.0793  -23.0135   31.1044 F   0  0  0  0  0  0  0  0  0  0  0  0
  -30.7747  -23.4203   28.1745 F   0  0  0  0  0  0  0  0  0  0  0  0
  1  2  1  0  0  0  0
  1  7  2  0  0  0  0
  2  8  2  0  0  0  0
  3  6  2  0  0  0  0
  3 10  1  0  0  0  0
  4 11  2  0  0  0  0
  4 19  1  0  0  0  0
  5 12  1  0  0  0  0
  5 19  2  0  0  0  0
  6 20  1  0  0  0  0
  7 22  1  0  0  0  0
  8 24  1  0  0  0  0
  9 13  2  0  0  0  0
  9 23  1  0  0  0  0
 10 26  2  0  0  0  0
 11 27  1  0  0  0  0
 12 27  2  0  0  0  0
 13 28  1  0  0  0  0
 14 15  2  0  0  0  0
 14 29  1  0  0  0  0
 15 30  1  0  0  0  0
 16 20  2  0  0  0  0
 16 26  1  0  0  0  0
 17 25  1  0  0  0  0
 17 28  2  0  0  0  0
 18 30  2  0  0  0  0
 18 31  1  0  0  0  0
 19 32  1  0  0  0  0
 20 35  1  0  0  0  0
 21 32  1  0  0  0  0
 21 33  2  0  0  0  0
 21 36  1  0  0  0  0
 22 24  2  0  0  0  0
 22 41  1  0  0  0  0
 23 25  2  0  0  0  0
 23 42  1  0  0  0  0
 24 50  1  0  0  0  0
 25 43  1  0  0  0  0
 26 69  1  0  0  0  0
 27 79  1  0  0  0  0
 28 80  1  0  0  0  0
 29 31  2  0  0  0  0
 29 79  1  0  0  0  0
 30 81  1  0  0  0  0
 31 82  1  0  0  0  0
 32 62  2  0  0  0  0
 33 64  1  0  0  0  0
 33 67  1  0  0  0  0
 34 58  1  0  0  0  0
 34 63  2  0  0  0  0
 35 63  1  0  0  0  0
 35 73  2  0  0  0  0
 36 68  1  0  0  0  0
 36 74  2  0  0  0  0
 37 51  1  0  0  0  0
 37 70  1  0  0  0  0
 37 75  2  0  0  0  0
 38 59  1  0  0  0  0
 38 65  1  0  0  0  0
 38 76  2  0  0  0  0
 39 60  1  0  0  0  0
 39 71  1  0  0  0  0
 39 77  2  0  0  0  0
 40 66  1  0  0  0  0
 40 69  1  0  0  0  0
 40 78  2  0  0  0  0
 41 44  1  0  0  0  0
 42 51  1  0  0  0  0
 43 65  1  0  0  0  0
 44 46  1  0  0  0  0
 45 47  1  0  0  0  0
 45 48  1  0  0  0  0
 46 50  1  0  0  0  0
 47 52  1  0  0  0  0
 48 66  1  0  0  0  0
 49 52  1  0  0  0  0
 49 66  1  0  0  0  0
 50 70  1  0  0  0  0
 51 65  1  0  0  0  0
 52 64  1  0  0  0  0
 53 60  1  0  0  0  0
 54 61  1  0  0  0  0
 55 61  1  0  0  0  0
 56 61  1  0  0  0  0
 57 72  1  0  0  0  0
 58 80  1  0  0  0  0
 59 61  1  0  0  0  0
 59 71  1  0  0  0  0
 60 72  1  0  0  0  0
 62 64  1  0  0  0  0
M  CHG  1  72   1
M  ISO  4  40 100  58 101  69 100  80 101
M  END
> <Batch ID>
0082

> <Smiles>
CNC(C)C(=O)NC(C(=O)N1Cc2cc([101O:1][101CH2:1]C=NC(=O)c3cccc([100NH:0][100C:0](=O)N4CCCC(n5nc(-c6ccc(Oc7ccc(F)cc7F)cc6)c(C(N)=O)c5N)C4)c3)ccc2CC1C(=O)NC1CCCc2ccccc21)C(C)(C)C

> <Shape>
0.216

> <Color>
0.085

> <Negative vol penalty>
0.000

$$$$

  -OEChem-04052300073D

 74 81  0     1  0  0  0  0  0999 V2000
  -27.6509  -11.4203   23.0937 C   0  0  0  0  0  0  0  0  0  0  0  0
  -28.3240  -12.5368   22.6081 C   0  0  0  0  0  0  0  0  0  0  0  0
  -24.3629  -29.1020   22.2459 C   0  0  0  0  0  0  0  0  0  0  0  0
  -25.2741  -30.8919   20.9031 C   0  0  0  0  0  0  0  0  0  0  0  0
  -26.4038  -11.0783   22.5724 C   0  0  0  0  0  0  0  0  0  0  0  0
  -27.7508  -13.3113   21.6001 C   0  0  0  0  0  0  0  0  0  0  0  0
  -28.1285  -18.2779   22.5142 C   0  0  0  0  0  0  0  0  0  0  0  0
  -23.8407  -30.0377   23.1389 C   0  0  0  0  0  0  0  0  0  0  0  0
  -24.7518  -31.8276   21.7960 C   0  0  0  0  0  0  0  0  0  0  0  0
  -29.3614  -18.8792   22.2652 C   0  0  0  0  0  0  0  0  0  0  0  0
  -22.5753  -31.9446   25.9648 C   0  0  0  0  0  0  0  0  0  0  0  0
  -22.7411  -31.7045   27.3288 C   0  0  0  0  0  0  0  0  0  0  0  0
  -28.5259  -19.7061   20.1586 C   0  0  0  0  0  0  0  0  0  0  0  0
  -25.1398  -31.7248   27.0407 C   0  0  0  0  0  0  0  0  0  0  0  0
  -25.0797  -29.5291   21.1281 C   0  0  0  0  0  0  0  0  0  0  0  0
  -24.9881  -28.0299   19.0661 C   0  0  0  0  0  0  0  0  0  0  0  0
  -25.8107  -11.8545   21.5643 C   0  0  0  0  0  0  0  0  0  0  0  0
  -27.0867  -18.3772   21.5807 C   0  0  0  0  0  0  0  0  0  0  0  0
  -26.4952  -12.9786   21.0640 C   0  0  0  0  0  0  0  0  0  0  0  0
  -27.2799  -19.1073   20.3994 C   0  0  0  0  0  0  0  0  0  0  0  0
  -24.0351  -31.4005   22.9139 C   0  0  0  0  0  0  0  0  0  0  0  0
  -29.5613  -19.5910   21.0859 C   0  0  0  0  0  0  0  0  0  0  0  0
  -23.6918  -32.0747   25.1387 C   0  0  0  0  0  0  0  0  0  0  0  0
  -24.0234  -31.5946   27.8668 C   0  0  0  0  0  0  0  0  0  0  0  0
  -24.9740  -31.9648   25.6767 C   0  0  0  0  0  0  0  0  0  0  0  0
  -25.6198  -28.5630   20.2056 C   0  0  0  0  0  0  0  0  0  0  0  0
  -25.9117  -27.1628   18.5354 C   0  0  0  0  0  0  0  0  0  0  0  0
  -31.6673  -23.5311   21.0128 C   0  0  0  0  0  0  0  0  0  0  0  0
  -23.6831  -28.2950   18.5346 C   0  0  0  0  0  0  0  0  0  0  0  0
  -31.8441  -22.2904   20.5263 C   0  0  0  0  0  0  0  0  0  0  0  0
  -30.3626  -24.2127   21.1313 C   0  0  0  0  0  0  0  0  0  0  0  0
  -25.4308  -16.2977   19.8379 C   0  0  0  0  0  0  0  0  0  0  0  0
  -23.7081  -18.9289   19.0434 C   0  0  0  0  0  0  0  0  0  0  0  0
  -23.5845  -22.3250   18.7295 C   0  0  0  0  0  0  0  0  0  0  0  0
  -24.4823  -11.4182   20.9989 C   0  0  0  0  0  0  0  0  0  0  0  0
  -25.7541  -17.7454   21.8765 C   0  0  0  0  0  0  0  0  0  0  0  0
  -26.1871  -19.2607   19.3743 C   0  0  0  0  0  0  0  0  0  0  0  0
  -23.7757  -12.5062   20.1945 C   0  0  0  0  0  0  0  0  0  0  0  0
  -30.6126  -26.4188   18.2153 C   0  0  0  0  0  0  0  0  0  0  0  0
  -24.7502  -13.1752   19.2304 C   0  0  0  0  0  0  0  0  0  0  0  0
  -29.3088  -27.2043   18.3288 C   0  0  0  0  0  0  0  0  0  0  0  0
  -31.1901  -26.0683   19.5859 C   0  0  0  0  0  0  0  0  0  0  0  0
  -28.9238  -26.1376   20.5858 C   0  0  0  0  0  0  0  0  0  0  0  0
  -25.8951  -13.8579   19.9884 C   0  0  1  0  0  0  0  0  0  0  0  0
  -24.9285  -17.4770   20.6219 C   0  0  1  0  0  0  0  0  0  0  0  0
  -28.3007  -26.4601   19.2187 C   0  0  1  0  0  0  0  0  0  0  0  0
  -33.2365  -21.7141   20.4545 C   0  0  0  0  0  0  0  0  0  0  0  0
  -22.0544  -24.1833   18.0206 C   0  0  0  0  0  0  0  0  0  0  0  0
  -24.1955  -18.2111   16.1182 C   0  0  0  0  0  0  0  0  0  0  0  0
  -23.4975  -20.5357   15.5038 C   0  0  0  0  0  0  0  0  0  0  0  0
  -21.8787  -19.0046   16.6255 C   0  0  0  0  0  0  0  0  0  0  0  0
  -23.6516  -23.5617   21.4174 C   0  0  0  0  0  0  0  0  0  0  0  0
  -30.7574  -21.3646   20.0469 C   0  0  0  0  0  0  0  0  0  1  0  0
  -23.7943  -19.9761   17.9594 C   0  0  1  0  0  0  0  0  0  0  0  0
  -22.5534  -23.3418   19.1848 C   0  0  2  0  0  0  0  0  0  0  0  0
  -23.3629  -19.4275   16.5700 C   0  0  0  0  0  0  0  0  0  0  0  0
  -26.8496  -28.0751   20.3890 N   0  0  0  0  0  0  0  0  0  0  0  0
  -26.9980  -27.2264   19.3576 N   0  0  0  0  0  0  0  0  0  0  0  0
  -30.1894  -25.4100   20.4392 N   0  0  0  0  0  0  0  0  0  0  0  0
  -24.9042  -18.6194   19.7063 N   0  0  0  0  0  0  0  0  0  0  0  0
  -25.8923  -26.3597   17.4505 N   0  0  0  0  0  0  0  0  0  0  0  0
  -22.8630  -29.2136   19.2040 N   0  0  0  0  0  0  0  0  0  0  0  0
  -25.4499  -15.1146   20.5515 N   0  0  0  0  0  0  0  0  0  0  0  0
  -23.0051  -21.1114   18.4248 N   0  0  0  0  0  0  0  0  0  0  0  0
  -23.1415  -24.2541   20.2061 N   0  3  0  0  0  0  0  0  0  0  0  0
  -23.2506  -27.7216   17.5062 O   0  0  0  0  0  0  0  0  0  0  0  0
  -29.5061  -23.6819   21.8407 O   0  0  0  0  0  0  0  0  0  0  0  0
  -25.7741  -16.4497   18.6714 O   0  0  0  0  0  0  0  0  0  0  0  0
  -22.6182  -18.4101   19.2977 O   0  0  0  0  0  0  0  0  0  0  0  0
  -24.7835  -22.5827   18.6483 O   0  0  0  0  0  0  0  0  0  0  0  0
  -23.5255  -32.3138   23.7849 O   0  0  0  0  0  0  0  0  0  0  0  0
  -30.7640  -20.1783   20.8401 O   0  0  0  0  0  0  0  0  0  1  0  0
  -24.1825  -31.3656   29.1769 F   0  0  0  0  0  0  0  0  0  0  0  0
  -26.0504  -32.0901   24.8883 F   0  0  0  0  0  0  0  0  0  0  0  0
  1  2  1  0  0  0  0
  1  5  2  0  0  0  0
  2  6  2  0  0  0  0
  3  8  2  0  0  0  0
  3 15  1  0  0  0  0
  4  9  1  0  0  0  0
  4 15  2  0  0  0  0
  5 17  1  0  0  0  0
  6 19  1  0  0  0  0
  7 10  2  0  0  0  0
  7 18  1  0  0  0  0
  8 21  1  0  0  0  0
  9 21  2  0  0  0  0
 10 22  1  0  0  0  0
 11 12  2  0  0  0  0
 11 23  1  0  0  0  0
 12 24  1  0  0  0  0
 13 20  1  0  0  0  0
 13 22  2  0  0  0  0
 14 24  2  0  0  0  0
 14 25  1  0  0  0  0
 15 26  1  0  0  0  0
 16 26  1  0  0  0  0
 16 27  2  0  0  0  0
 16 29  1  0  0  0  0
 17 19  2  0  0  0  0
 17 35  1  0  0  0  0
 18 20  2  0  0  0  0
 18 36  1  0  0  0  0
 19 44  1  0  0  0  0
 20 37  1  0  0  0  0
 21 71  1  0  0  0  0
 22 72  1  0  0  0  0
 23 25  2  0  0  0  0
 23 71  1  0  0  0  0
 24 73  1  0  0  0  0
 25 74  1  0  0  0  0
 26 57  2  0  0  0  0
 27 58  1  0  0  0  0
 27 61  1  0  0  0  0
 28 30  2  0  0  0  0
 28 31  1  0  0  0  0
 29 62  1  0  0  0  0
 29 66  2  0  0  0  0
 30 47  1  0  0  0  0
 30 53  1  0  0  0  0
 31 59  1  0  0  0  0
 31 67  2  0  0  0  0
 32 45  1  0  0  0  0
 32 63  1  0  0  0  0
 32 68  2  0  0  0  0
 33 54  1  0  0  0  0
 33 60  1  0  0  0  0
 33 69  2  0  0  0  0
 34 55  1  0  0  0  0
 34 64  1  0  0  0  0
 34 70  2  0  0  0  0
 35 38  1  0  0  0  0
 36 45  1  0  0  0  0
 37 60  1  0  0  0  0
 38 40  1  0  0  0  0
 39 41  1  0  0  0  0
 39 42  1  0  0  0  0
 40 44  1  0  0  0  0
 41 46  1  0  0  0  0
 42 59  1  0  0  0  0
 43 46  1  0  0  0  0
 43 59  1  0  0  0  0
 44 63  1  0  0  0  0
 45 60  1  0  0  0  0
 46 58  1  0  0  0  0
 48 55  1  0  0  0  0
 49 56  1  0  0  0  0
 50 56  1  0  0  0  0
 51 56  1  0  0  0  0
 52 65  1  0  0  0  0
 53 72  1  0  0  0  0
 54 56  1  0  0  0  0
 54 64  1  0  0  0  0
 55 65  1  0  0  0  0
 57 58  1  0  0  0  0
M  CHG  1  65   1
M  ISO  4  28 100  31 100  53 101  72 101
M  END
> <Batch ID>
0082

> <Smiles>
C=C([100CH2:0][100C:0](=O)N1CCCC(n2nc(-c3ccc(Oc4ccc(F)cc4F)cc3)c(C(N)=O)c2N)C1)[101CH2:1][101O:1]c1ccc2c(c1)CN(C(=O)C(NC(=O)C(C)NC)C(C)(C)C)C(C(=O)NC1CCCc3ccccc31)C2

> <Shape>
0.203

> <Color>
0.079

> <Negative vol penalty>
0.000

$$$$

  -OEChem-04052300073D

 86 95  0     1  0  0  0  0  0999 V2000
  -20.0580  -19.9384   22.9502 C   0  0  0  0  0  0  0  0  0  0  0  0
  -21.4107  -20.0950   23.2350 C   0  0  0  0  0  0  0  0  0  0  0  0
  -23.3344   -9.7005   19.9413 C   0  0  0  0  0  0  0  0  0  0  0  0
  -23.4637  -10.1013   22.3203 C   0  0  0  0  0  0  0  0  0  0  0  0
  -19.3750  -20.9311   22.2487 C   0  0  0  0  0  0  0  0  0  0  0  0
  -22.0815  -21.2439   22.8175 C   0  0  0  0  0  0  0  0  0  0  0  0
  -25.0560  -23.1781   26.4308 C   0  0  0  0  0  0  0  0  0  0  0  0
  -32.2511  -15.7919   24.3185 C   0  0  0  0  0  0  0  0  0  0  0  0
  -32.2772  -17.1771   24.4805 C   0  0  0  0  0  0  0  0  0  0  0  0
  -22.5921   -8.5433   20.1765 C   0  0  0  0  0  0  0  0  0  0  0  0
  -22.7213   -8.9440   22.5556 C   0  0  0  0  0  0  0  0  0  0  0  0
  -26.2817  -22.5509   26.6500 C   0  0  0  0  0  0  0  0  0  0  0  0
  -23.2653   -5.6081   22.6338 C   0  0  0  0  0  0  0  0  0  0  0  0
  -23.7060   -4.7488   23.6403 C   0  0  0  0  0  0  0  0  0  0  0  0
  -27.3812  -24.2578   25.3475 C   0  0  0  0  0  0  0  0  0  0  0  0
  -30.0241  -17.1177   25.3506 C   0  0  0  0  0  0  0  0  0  0  0  0
  -21.6107   -5.0409   24.8071 C   0  0  0  0  0  0  0  0  0  0  0  0
  -23.7703  -10.4795   21.0132 C   0  0  0  0  0  0  0  0  0  0  0  0
  -24.0426  -12.9784   20.5783 C   0  0  0  0  0  0  0  0  0  0  0  0
  -20.0355  -22.0971   21.8308 C   0  0  0  0  0  0  0  0  0  0  0  0
  -24.9821  -24.3459   25.6580 C   0  0  0  0  0  0  0  0  0  0  0  0
  -21.4071  -22.2525   22.1085 C   0  0  0  0  0  0  0  0  0  0  0  0
  -26.1537  -24.8994   25.1221 C   0  0  0  0  0  0  0  0  0  0  0  0
  -31.1115  -15.0697   24.6725 C   0  0  0  0  0  0  0  0  0  0  0  0
  -31.1637  -17.8400   24.9966 C   0  0  0  0  0  0  0  0  0  0  0  0
  -29.9980  -15.7326   25.1886 C   0  0  0  0  0  0  0  0  0  0  0  0
  -22.2855   -8.1651   21.4836 C   0  0  0  0  0  0  0  0  0  0  0  0
  -27.4441  -23.0891   26.1058 C   0  0  0  0  0  0  0  0  0  0  0  0
  -21.9973   -6.1838   22.7140 C   0  0  0  0  0  0  0  0  0  0  0  0
  -22.8787   -4.4652   24.7270 C   0  0  0  0  0  0  0  0  0  0  0  0
  -21.1700   -5.9002   23.8006 C   0  0  0  0  0  0  0  0  0  0  0  0
  -24.5377  -11.6747   20.7708 C   0  0  0  0  0  0  0  0  0  0  0  0
  -25.1648  -13.7473   20.3887 C   0  0  0  0  0  0  0  0  0  0  0  0
  -31.8516  -21.3748   25.5056 C   0  0  0  0  0  0  0  0  0  0  0  0
  -30.5333  -21.4371   25.3058 C   0  0  0  0  0  0  0  0  0  0  0  0
  -30.0637  -20.0506   25.0749 C   0  0  0  0  0  0  0  0  0  0  0  0
  -22.6893  -13.4520   20.5716 C   0  0  0  0  0  0  0  0  0  0  0  0
  -23.5473  -25.1482   22.9374 C   0  0  0  0  0  0  0  0  0  0  0  0
  -24.6475  -28.1072   23.6835 C   0  0  0  0  0  0  0  0  0  0  0  0
  -26.9278  -30.0122   25.3622 C   0  0  0  0  0  0  0  0  0  0  0  0
  -30.8772  -13.1073   22.0650 C   0  0  0  0  0  0  0  0  0  0  0  0
  -19.2665  -23.1211   21.0340 C   0  0  0  0  0  0  0  0  0  0  0  0
  -23.6559  -25.0252   25.4532 C   0  0  0  0  0  0  0  0  0  0  0  0
  -26.1310  -26.1625   24.3021 C   0  0  0  0  0  0  0  0  0  0  0  0
  -32.3845  -19.9904   25.4318 C   0  0  0  0  0  0  0  0  0  0  0  0
  -19.9616  -24.4779   20.9539 C   0  0  0  0  0  0  0  0  0  0  0  0
  -29.6500  -13.4845   18.7441 C   0  0  0  0  0  0  0  0  0  0  0  0
  -21.4374  -24.3021   20.6105 C   0  0  0  0  0  0  0  0  0  0  0  0
  -28.1559  -13.1810   18.8696 C   0  0  0  0  0  0  0  0  0  0  0  0
  -30.4845  -12.6039   19.6715 C   0  0  0  0  0  0  0  0  0  0  0  0
  -28.5817  -12.3311   21.2137 C   0  0  0  0  0  0  0  0  0  0  0  0
  -22.1636  -23.4959   21.6941 C   0  0  1  0  0  0  0  0  0  0  0  0
  -23.6292  -25.9247   24.2212 C   0  0  1  0  0  0  0  0  0  0  0  0
  -27.6946  -13.2330   20.3385 C   0  0  2  0  0  0  0  0  0  0  0  0
  -27.5970  -32.3998   25.7483 C   0  0  0  0  0  0  0  0  0  0  0  0
  -25.9208  -28.1959   20.9121 C   0  0  0  0  0  0  0  0  0  0  0  0
  -27.3257  -30.1145   21.6954 C   0  0  0  0  0  0  0  0  0  0  0  0
  -24.8416  -30.3336   21.6332 C   0  0  0  0  0  0  0  0  0  0  0  0
  -26.4286  -29.8031   28.2718 C   0  0  0  0  0  0  0  0  0  0  0  0
  -31.1111  -13.5870   24.4887 C   0  0  0  0  0  0  0  0  0  0  0  0
  -29.6304  -22.6163   25.2979 C   0  0  0  0  0  0  0  0  0  1  0  0
  -25.9137  -28.8794   23.4019 C   0  0  1  0  0  0  0  0  0  0  0  0
  -26.7623  -31.2320   26.2505 C   0  0  2  0  0  0  0  0  0  0  0  0
  -26.0009  -29.3560   21.9244 C   0  0  0  0  0  0  0  0  0  0  0  0
  -25.8706  -11.6150   20.7090 N   0  0  0  0  0  0  0  0  0  0  0  0
  -26.2226  -12.8907   20.4754 N   0  0  0  0  0  0  0  0  0  0  0  0
  -31.1902  -19.2199   25.1573 N   0  0  0  0  0  0  0  0  0  0  0  0
  -24.8093  -26.7862   24.1247 N   0  0  0  0  0  0  0  0  0  0  0  0
  -29.9965  -12.6998   21.0494 N   0  0  0  0  0  0  0  0  0  0  0  0
  -28.8356  -15.0169   25.5512 N   0  0  0  0  0  0  0  0  0  0  0  0
  -25.3400  -15.0658   20.1578 N   0  0  0  0  0  0  0  0  0  0  0  0
  -21.6570  -12.5278   20.7827 N   0  0  0  0  0  0  0  0  0  0  0  0
  -22.4384  -24.3290   22.8451 N   0  0  0  0  0  0  0  0  0  0  0  0
  -25.9597  -29.9593   24.3817 N   0  0  0  0  0  0  0  0  0  0  0  0
  -30.3322  -13.1777   23.3412 N   0  0  0  0  0  0  0  0  0  0  0  0
  -27.1840  -30.9182   27.6451 N   0  3  0  0  0  0  0  0  0  0  0  0
  -28.9026  -19.7432   24.8580 O   0  0  0  0  0  0  0  0  0  0  0  0
  -22.4032  -14.6562   20.3678 O   0  0  0  0  0  0  0  0  0  0  0  0
  -24.4245  -25.2836   22.0925 O   0  0  0  0  0  0  0  0  0  0  0  0
  -23.5552  -28.6581   23.5250 O   0  0  0  0  0  0  0  0  0  0  0  0
  -27.8281  -29.1906   25.5198 O   0  0  0  0  0  0  0  0  0  0  0  0
  -32.0600  -13.3928   21.8494 O   0  0  0  0  0  0  0  0  0  0  0  0
  -21.5609   -7.0361   21.7136 O   0  0  0  0  0  0  0  0  0  0  0  0
  -28.6417  -22.4785   26.3177 O   0  0  0  0  0  0  0  0  0  1  0  0
  -23.3014   -3.6388   25.6927 F   0  0  0  0  0  0  0  0  0  0  0  0
  -19.9503   -6.4494   23.8826 F   0  0  0  0  0  0  0  0  0  0  0  0
  1  2  1  0  0  0  0
  1  5  2  0  0  0  0
  2  6  2  0  0  0  0
  3 10  2  0  0  0  0
  3 18  1  0  0  0  0
  4 11  1  0  0  0  0
  4 18  2  0  0  0  0
  5 20  1  0  0  0  0
  6 22  1  0  0  0  0
  7 12  2  0  0  0  0
  7 21  1  0  0  0  0
  8  9  2  0  0  0  0
  8 24  1  0  0  0  0
  9 25  1  0  0  0  0
 10 27  1  0  0  0  0
 11 27  2  0  0  0  0
 12 28  1  0  0  0  0
 13 14  2  0  0  0  0
 13 29  1  0  0  0  0
 14 30  1  0  0  0  0
 15 23  1  0  0  0  0
 15 28  2  0  0  0  0
 16 25  2  0  0  0  0
 16 26  1  0  0  0  0
 17 30  2  0  0  0  0
 17 31  1  0  0  0  0
 18 32  1  0  0  0  0
 19 32  1  0  0  0  0
 19 33  2  0  0  0  0
 19 37  1  0  0  0  0
 20 22  2  0  0  0  0
 20 42  1  0  0  0  0
 21 23  2  0  0  0  0
 21 43  1  0  0  0  0
 22 52  1  0  0  0  0
 23 44  1  0  0  0  0
 24 26  2  0  0  0  0
 24 60  1  0  0  0  0
 25 67  1  0  0  0  0
 26 70  1  0  0  0  0
 27 83  1  0  0  0  0
 28 84  1  0  0  0  0
 29 31  2  0  0  0  0
 29 83  1  0  0  0  0
 30 85  1  0  0  0  0
 31 86  1  0  0  0  0
 32 65  2  0  0  0  0
 33 66  1  0  0  0  0
 33 71  1  0  0  0  0
 34 35  2  0  0  0  0
 34 45  1  0  0  0  0
 35 36  1  0  0  0  0
 35 61  1  0  0  0  0
 36 67  1  0  0  0  0
 36 77  2  0  0  0  0
 37 72  1  0  0  0  0
 37 78  2  0  0  0  0
 38 53  1  0  0  0  0
 38 73  1  0  0  0  0
 38 79  2  0  0  0  0
 39 62  1  0  0  0  0
 39 68  1  0  0  0  0
 39 80  2  0  0  0  0
 40 63  1  0  0  0  0
 40 74  1  0  0  0  0
 40 81  2  0  0  0  0
 41 69  1  0  0  0  0
 41 75  1  0  0  0  0
 41 82  2  0  0  0  0
 42 46  1  0  0  0  0
 43 53  1  0  0  0  0
 44 68  1  0  0  0  0
 45 67  1  0  0  0  0
 46 48  1  0  0  0  0
 47 49  1  0  0  0  0
 47 50  1  0  0  0  0
 48 52  1  0  0  0  0
 49 54  1  0  0  0  0
 50 69  1  0  0  0  0
 51 54  1  0  0  0  0
 51 69  1  0  0  0  0
 52 73  1  0  0  0  0
 53 68  1  0  0  0  0
 54 66  1  0  0  0  0
 55 63  1  0  0  0  0
 56 64  1  0  0  0  0
 57 64  1  0  0  0  0
 58 64  1  0  0  0  0
 59 76  1  0  0  0  0
 60 75  1  0  0  0  0
 61 84  1  0  0  0  0
 62 64  1  0  0  0  0
 62 74  1  0  0  0  0
 63 76  1  0  0  0  0
 65 66  1  0  0  0  0
M  CHG  1  76   1
M  ISO  4  41 100  61 101  75 100  84 101
M  END
> <Batch ID>
0082

> <Smiles>
CNC(C)C(=O)NC(C(=O)N1Cc2cc([101O:1][101CH2:1]C3=CCN(c4ccc(C[100NH:0][100C:0](=O)N5CCCC(n6nc(-c7ccc(Oc8ccc(F)cc8F)cc7)c(C(N)=O)c6N)C5)c(N)c4)C3=O)ccc2CC1C(=O)NC1CCCc2ccccc21)C(C)(C)C

> <Shape>
0.200

> <Color>
0.184

> <Negative vol penalty>
0.000

$$$$

  -OEChem-04052300073D

 82 90  0     1  0  0  0  0  0999 V2000
  -30.2803  -33.8397   29.1026 C   0  0  0  0  0  0  0  0  0  0  0  0
  -30.6474  -33.0519   28.0162 C   0  0  0  0  0  0  0  0  0  0  0  0
  -24.5211   -9.4815   21.5036 C   0  0  0  0  0  0  0  0  0  0  0  0
  -24.7911  -10.6053   23.6253 C   0  0  0  0  0  0  0  0  0  0  0  0
  -28.9824  -33.7685   29.6068 C   0  0  0  0  0  0  0  0  0  0  0  0
  -29.7170  -32.1917   27.4342 C   0  0  0  0  0  0  0  0  0  0  0  0
  -29.2543  -30.7379   21.5031 C   0  0  0  0  0  0  0  0  0  0  0  0
  -24.2365   -8.2902   22.1709 C   0  0  0  0  0  0  0  0  0  0  0  0
  -24.5064   -9.4139   24.2925 C   0  0  0  0  0  0  0  0  0  0  0  0
  -29.6995  -29.6393   20.7691 C   0  0  0  0  0  0  0  0  0  0  0  0
  -21.5977   -6.8926   23.7571 C   0  0  0  0  0  0  0  0  0  0  0  0
  -20.5172   -6.1369   23.3020 C   0  0  0  0  0  0  0  0  0  0  0  0
  -27.5300  -28.6111   21.0034 C   0  0  0  0  0  0  0  0  0  0  0  0
  -29.3323  -20.1159   20.2471 C   0  0  0  0  0  0  0  0  0  0  0  0
  -22.0005   -4.2816   22.8608 C   0  0  0  0  0  0  0  0  0  0  0  0
  -27.1802  -19.9412   21.1074 C   0  0  0  0  0  0  0  0  0  0  0  0
  -24.7985  -10.6391   22.2308 C   0  0  0  0  0  0  0  0  0  0  0  0
  -24.1757  -12.8575   21.1360 C   0  0  0  0  0  0  0  0  0  0  0  0
  -28.0329  -32.9141   29.0245 C   0  0  0  0  0  0  0  0  0  0  0  0
  -27.9447  -30.7765   22.0028 C   0  0  0  0  0  0  0  0  0  0  0  0
  -28.4056  -32.1081   27.9319 C   0  0  0  0  0  0  0  0  0  0  0  0
  -27.0698  -29.7124   21.7412 C   0  0  0  0  0  0  0  0  0  0  0  0
  -28.3026  -19.2476   20.7118 C   0  0  0  0  0  0  0  0  0  0  0  0
  -24.2291   -8.2564   23.5653 C   0  0  0  0  0  0  0  0  0  0  0  0
  -28.8383  -28.5744   20.5216 C   0  0  0  0  0  0  0  0  0  0  0  0
  -22.8796   -6.3428   23.7639 C   0  0  0  0  0  0  0  0  0  0  0  0
  -20.7186   -4.8314   22.8539 C   0  0  0  0  0  0  0  0  0  0  0  0
  -23.0811   -5.0373   23.3158 C   0  0  0  0  0  0  0  0  0  0  0  0
  -25.0931  -11.8700   21.5422 C   0  0  0  0  0  0  0  0  0  0  0  0
  -28.9575  -21.4403   20.3051 C   0  0  0  0  0  0  0  0  0  0  0  0
  -24.9497  -13.8169   20.5303 C   0  0  0  0  0  0  0  0  0  0  0  0
  -22.7512  -12.9035   21.2924 C   0  0  0  0  0  0  0  0  0  0  0  0
  -29.7341  -22.6456   19.9182 C   0  0  0  0  0  0  0  0  0  0  0  0
  -26.6543  -30.9165   24.9044 C   0  0  0  0  0  0  0  0  0  0  0  0
  -23.8902  -31.2249   23.2349 C   0  0  0  0  0  0  0  0  0  0  0  0
  -29.6492  -25.1110   19.8181 C   0  0  0  0  0  0  0  0  0  0  0  0
  -22.1856  -30.6848   20.3281 C   0  0  0  0  0  0  0  0  0  0  0  0
  -29.4841  -17.0455   20.3933 C   0  0  0  0  0  0  0  0  0  0  0  0
  -26.6556  -32.8366   29.6342 C   0  0  0  0  0  0  0  0  0  0  0  0
  -27.4715  -31.9806   22.7700 C   0  0  0  0  0  0  0  0  0  0  0  0
  -25.6480  -29.7142   22.2382 C   0  0  0  0  0  0  0  0  0  0  0  0
  -25.6231  -32.1758   28.7244 C   0  0  0  0  0  0  0  0  0  0  0  0
  -29.8163  -13.7292   19.1408 C   0  0  0  0  0  0  0  0  0  0  0  0
  -26.1854  -30.8915   28.1233 C   0  0  0  0  0  0  0  0  0  0  0  0
  -28.5416  -13.0311   19.6205 C   0  0  0  0  0  0  0  0  0  0  0  0
  -30.3417  -14.7235   20.1747 C   0  0  0  0  0  0  0  0  0  0  0  0
  -28.0855  -15.0131   21.1207 C   0  0  0  0  0  0  0  0  0  0  0  0
  -27.4176  -31.1810   27.2577 C   0  0  1  0  0  0  0  0  0  0  0  0
  -26.2755  -31.6841   23.6694 C   0  0  1  0  0  0  0  0  0  0  0  0
  -27.4823  -14.0494   20.0857 C   0  0  2  0  0  0  0  0  0  0  0  0
  -19.9307  -31.0129   19.2767 C   0  0  0  0  0  0  0  0  0  0  0  0
  -22.7966  -28.8819   24.8549 C   0  0  0  0  0  0  0  0  0  0  0  0
  -20.9722  -28.6493   23.1562 C   0  0  0  0  0  0  0  0  0  0  0  0
  -21.1712  -30.7474   24.4908 C   0  0  0  0  0  0  0  0  0  0  0  0
  -23.3003  -32.4147   18.2013 C   0  0  0  0  0  0  0  0  0  0  0  0
  -28.6803  -26.2375   20.1098 C   0  0  0  0  0  0  0  0  0  1  0  0
  -22.8656  -30.2668   22.6770 C   0  0  1  0  0  0  0  0  0  0  0  0
  -21.3178  -31.6009   19.4842 C   0  0  2  0  0  0  0  0  0  0  0  0
  -21.9787  -29.6352   23.7869 C   0  0  0  0  0  0  0  0  0  0  0  0
  -26.3536  -12.1740   21.2214 N   0  0  0  0  0  0  0  0  0  0  0  0
  -26.2336  -13.3633   20.6072 N   0  0  0  0  0  0  0  0  0  0  0  0
  -25.2344  -30.9113   22.9889 N   0  0  0  0  0  0  0  0  0  0  0  0
  -29.2849  -15.6593   20.5650 N   0  0  0  0  0  0  0  0  0  0  0  0
  -24.6505  -14.9959   19.9447 N   0  0  0  0  0  0  0  0  0  0  0  0
  -22.1152  -11.8347   21.9386 N   0  0  0  0  0  0  0  0  0  0  0  0
  -28.3977  -17.8350   20.7691 N   0  0  0  0  0  0  0  0  0  0  0  0
  -29.0823  -23.8653   20.0922 N   0  0  0  0  0  0  0  0  0  0  0  0
  -27.0187  -31.7137   25.9726 N   0  0  0  0  0  0  0  0  0  0  0  0
  -22.1199  -31.0094   21.6666 N   0  0  0  0  0  0  0  0  0  0  0  0
  -21.9408  -31.8183   18.1479 N   0  3  0  0  0  0  0  0  0  0  0  0
  -22.0610  -13.8561   20.8570 O   0  0  0  0  0  0  0  0  0  0  0  0
  -30.8824  -22.5096   19.5045 O   0  0  0  0  0  0  0  0  0  0  0  0
  -26.6171  -29.6917   24.8897 O   0  0  0  0  0  0  0  0  0  0  0  0
  -23.5115  -32.2189   23.8596 O   0  0  0  0  0  0  0  0  0  0  0  0
  -30.7843  -25.3046   19.3917 O   0  0  0  0  0  0  0  0  0  0  0  0
  -22.8519  -29.7702   19.8484 O   0  0  0  0  0  0  0  0  0  0  0  0
  -30.5302  -17.4972   19.9205 O   0  0  0  0  0  0  0  0  0  0  0  0
  -23.9512   -7.0940   24.2167 O   0  0  0  0  0  0  0  0  0  0  0  0
  -29.2705  -27.5007   19.8060 O   0  0  0  0  0  0  0  0  0  1  0  0
  -19.6806   -4.1053   22.4184 F   0  0  0  0  0  0  0  0  0  0  0  0
  -24.3101   -4.5033   23.3212 F   0  0  0  0  0  0  0  0  0  0  0  0
  -27.3702  -21.6325   20.9180 S   0  0  0  0  0  0  0  0  0  0  0  0
  1  2  1  0  0  0  0
  1  5  2  0  0  0  0
  2  6  2  0  0  0  0
  3  8  2  0  0  0  0
  3 17  1  0  0  0  0
  4  9  1  0  0  0  0
  4 17  2  0  0  0  0
  5 19  1  0  0  0  0
  6 21  1  0  0  0  0
  7 10  2  0  0  0  0
  7 20  1  0  0  0  0
  8 24  1  0  0  0  0
  9 24  2  0  0  0  0
 10 25  1  0  0  0  0
 11 12  2  0  0  0  0
 11 26  1  0  0  0  0
 12 27  1  0  0  0  0
 13 22  1  0  0  0  0
 13 25  2  0  0  0  0
 14 23  1  0  0  0  0
 14 30  2  0  0  0  0
 15 27  2  0  0  0  0
 15 28  1  0  0  0  0
 16 23  2  0  0  0  0
 16 82  1  0  0  0  0
 17 29  1  0  0  0  0
 18 29  1  0  0  0  0
 18 31  2  0  0  0  0
 18 32  1  0  0  0  0
 19 21  2  0  0  0  0
 19 39  1  0  0  0  0
 20 22  2  0  0  0  0
 20 40  1  0  0  0  0
 21 48  1  0  0  0  0
 22 41  1  0  0  0  0
 23 66  1  0  0  0  0
 24 78  1  0  0  0  0
 25 79  1  0  0  0  0
 26 28  2  0  0  0  0
 26 78  1  0  0  0  0
 27 80  1  0  0  0  0
 28 81  1  0  0  0  0
 29 60  2  0  0  0  0
 30 33  1  0  0  0  0
 30 82  1  0  0  0  0
 31 61  1  0  0  0  0
 31 64  1  0  0  0  0
 32 65  1  0  0  0  0
 32 71  2  0  0  0  0
 33 67  1  0  0  0  0
 33 72  2  0  0  0  0
 34 49  1  0  0  0  0
 34 68  1  0  0  0  0
 34 73  2  0  0  0  0
 35 57  1  0  0  0  0
 35 62  1  0  0  0  0
 35 74  2  0  0  0  0
 36 56  1  0  0  0  0
 36 67  1  0  0  0  0
 36 75  2  0  0  0  0
 37 58  1  0  0  0  0
 37 69  1  0  0  0  0
 37 76  2  0  0  0  0
 38 63  1  0  0  0  0
 38 66  1  0  0  0  0
 38 77  2  0  0  0  0
 39 42  1  0  0  0  0
 40 49  1  0  0  0  0
 41 62  1  0  0  0  0
 42 44  1  0  0  0  0
 43 45  1  0  0  0  0
 43 46  1  0  0  0  0
 44 48  1  0  0  0  0
 45 50  1  0  0  0  0
 46 63  1  0  0  0  0
 47 50  1  0  0  0  0
 47 63  1  0  0  0  0
 48 68  1  0  0  0  0
 49 62  1  0  0  0  0
 50 61  1  0  0  0  0
 51 58  1  0  0  0  0
 52 59  1  0  0  0  0
 53 59  1  0  0  0  0
 54 59  1  0  0  0  0
 55 70  1  0  0  0  0
 56 79  1  0  0  0  0
 57 59  1  0  0  0  0
 57 69  1  0  0  0  0
 58 70  1  0  0  0  0
 60 61  1  0  0  0  0
M  CHG  1  70   1
M  ISO  4  38 100  56 101  66 100  79 101
M  END
> <Batch ID>
0082

> <Smiles>
CNC(C)C(=O)NC(C(=O)N1Cc2cc([101O:1][101CH2:1]C(=O)NC(=O)c3cc([100NH:0][100C:0](=O)N4CCCC(n5nc(-c6ccc(Oc7ccc(F)cc7F)cc6)c(C(N)=O)c5N)C4)cs3)ccc2CC1C(=O)NC1CCCc2ccccc21)C(C)(C)C

> <Shape>
0.336

> <Color>
0.142

> <Negative vol penalty>
0.000

$$$$

  -OEChem-04052300073D

 84 93  0     1  0  0  0  0  0999 V2000
  -28.0974  -35.2115   25.8456 C   0  0  0  0  0  0  0  0  0  0  0  0
  -28.4547  -34.0612   25.1494 C   0  0  0  0  0  0  0  0  0  0  0  0
  -23.8115  -10.2083   22.2904 C   0  0  0  0  0  0  0  0  0  0  0  0
  -25.0475   -8.1817   21.8405 C   0  0  0  0  0  0  0  0  0  0  0  0
  -26.7954  -35.3607   26.3215 C   0  0  0  0  0  0  0  0  0  0  0  0
  -27.5105  -33.0590   24.9297 C   0  0  0  0  0  0  0  0  0  0  0  0
  -27.0527  -29.4482   20.0044 C   0  0  0  0  0  0  0  0  0  0  0  0
  -28.0025  -19.5494   21.5635 C   0  0  0  0  0  0  0  0  0  0  0  0
  -28.7039  -19.8136   19.2667 C   0  0  0  0  0  0  0  0  0  0  0  0
  -28.3139  -18.1911   21.5024 C   0  0  0  0  0  0  0  0  0  0  0  0
  -29.0154  -18.4553   19.2056 C   0  0  0  0  0  0  0  0  0  0  0  0
  -22.6135   -9.5033   22.1748 C   0  0  0  0  0  0  0  0  0  0  0  0
  -23.8495   -7.4767   21.7250 C   0  0  0  0  0  0  0  0  0  0  0  0
  -27.4799  -28.1449   19.7538 C   0  0  0  0  0  0  0  0  0  0  0  0
  -21.1257   -5.0692   21.6681 C   0  0  0  0  0  0  0  0  0  0  0  0
  -21.0366   -3.8317   22.3054 C   0  0  0  0  0  0  0  0  0  0  0  0
  -25.2886  -27.3212   20.3361 C   0  0  0  0  0  0  0  0  0  0  0  0
  -21.4483   -4.8982   24.4339 C   0  0  0  0  0  0  0  0  0  0  0  0
  -25.0285   -9.5475   22.1232 C   0  0  0  0  0  0  0  0  0  0  0  0
  -27.0246  -10.4781   23.4106 C   0  0  0  0  0  0  0  0  0  0  0  0
  -25.8321  -34.3640   26.0991 C   0  0  0  0  0  0  0  0  0  0  0  0
  -25.7413  -29.6972   20.4339 C   0  0  0  0  0  0  0  0  0  0  0  0
  -26.1947  -33.1944   25.4042 C   0  0  0  0  0  0  0  0  0  0  0  0
  -24.8465  -28.6288   20.5889 C   0  0  0  0  0  0  0  0  0  0  0  0
  -28.1974  -20.3606   20.4456 C   0  0  0  0  0  0  0  0  0  0  0  0
  -28.8204  -17.6441   20.3235 C   0  0  0  0  0  0  0  0  0  0  0  0
  -22.6325   -8.1375   21.8922 C   0  0  0  0  0  0  0  0  0  0  0  0
  -26.5986  -27.0809   19.9224 C   0  0  0  0  0  0  0  0  0  0  0  0
  -21.3762   -6.2212   22.4137 C   0  0  0  0  0  0  0  0  0  0  0  0
  -21.1978   -3.7461   23.6883 C   0  0  0  0  0  0  0  0  0  0  0  0
  -21.5374   -6.1357   23.7965 C   0  0  0  0  0  0  0  0  0  0  0  0
  -26.2664  -10.2753   22.2419 C   0  0  0  0  0  0  0  0  0  0  0  0
  -28.1003  -11.2251   22.9966 C   0  0  0  0  0  0  0  0  0  0  0  0
  -27.3471  -23.6243   20.5810 C   0  0  0  0  0  0  0  0  0  0  0  0
  -27.3949  -22.4831   21.4958 C   0  0  0  0  0  0  0  0  0  0  0  0
  -26.9635  -24.9077   20.7063 C   0  0  0  0  0  0  0  0  0  1  0  0
  -26.7786  -10.0312   24.7505 C   0  0  0  0  0  0  0  0  0  0  0  0
  -24.4372  -30.9613   23.0426 C   0  0  0  0  0  0  0  0  0  0  0  0
  -21.6897  -30.6509   21.3464 C   0  0  0  0  0  0  0  0  0  0  0  0
  -19.9913  -29.0649   18.8470 C   0  0  0  0  0  0  0  0  0  0  0  0
  -29.0487  -15.5183   19.0491 C   0  0  0  0  0  0  0  0  0  0  0  0
  -24.4500  -34.5491   26.6737 C   0  0  0  0  0  0  0  0  0  0  0  0
  -25.2882  -31.1112   20.6742 C   0  0  0  0  0  0  0  0  0  0  0  0
  -23.4222  -28.8447   21.0286 C   0  0  0  0  0  0  0  0  0  0  0  0
  -27.8972  -22.7365   19.4883 C   0  0  0  0  0  0  0  0  0  0  0  0
  -23.4097  -33.6069   26.0735 C   0  0  0  0  0  0  0  0  0  0  0  0
  -30.3141  -12.0739   18.6679 C   0  0  0  0  0  0  0  0  0  0  0  0
  -23.9493  -32.1812   26.0184 C   0  0  0  0  0  0  0  0  0  0  0  0
  -29.4192  -11.2757   19.6145 C   0  0  0  0  0  0  0  0  0  0  0  0
  -29.5947  -13.2950   18.1027 C   0  0  0  0  0  0  0  0  0  0  0  0
  -28.1280  -13.3941   20.0950 C   0  0  0  0  0  0  0  0  0  0  0  0
  -25.1921  -32.0959   25.1243 C   0  0  1  0  0  0  0  0  0  0  0  0
  -24.0812  -31.2023   21.6028 C   0  0  1  0  0  0  0  0  0  0  0  0
  -28.8385  -12.1812   20.7146 C   0  0  1  0  0  0  0  0  0  0  0  0
  -17.7497  -29.0015   17.7207 C   0  0  0  0  0  0  0  0  0  0  0  0
  -20.5394  -29.1274   23.7267 C   0  0  0  0  0  0  0  0  0  0  0  0
  -18.7206  -28.2908   22.2234 C   0  0  0  0  0  0  0  0  0  0  0  0
  -18.9543  -30.7368   22.6536 C   0  0  0  0  0  0  0  0  0  0  0  0
  -29.8040  -15.6189   21.4132 C   0  0  0  0  0  0  0  0  0  0  0  0
  -21.1531  -29.8275   16.2341 C   0  0  0  0  0  0  0  0  0  0  0  0
  -20.6491  -29.5691   21.1853 C   0  0  1  0  0  0  0  0  0  0  0  0
  -19.1471  -29.6011   17.7050 C   0  0  2  0  0  0  0  0  0  0  0  0
  -19.7432  -29.4265   22.4408 C   0  0  0  0  0  0  0  0  0  0  0  0
  -26.8139  -10.8474   21.1663 N   0  0  0  0  0  0  0  0  0  0  0  0
  -27.9276  -11.4171   21.6574 N   0  0  0  0  0  0  0  0  0  0  0  0
  -27.8900  -21.7001   20.5056 N   0  0  0  0  0  0  0  0  0  0  0  0
  -23.0287  -30.2448   21.2572 N   0  0  0  0  0  0  0  0  0  0  0  0
  -29.0132  -14.1143   19.1667 N   0  0  0  0  0  0  0  0  0  0  0  0
  -29.1676  -11.7299   23.6512 N   0  0  0  0  0  0  0  0  0  0  0  0
  -25.6263   -9.2737   25.0012 N   0  0  0  0  0  0  0  0  0  0  0  0
  -24.8115  -32.1012   23.7280 N   0  0  0  0  0  0  0  0  0  0  0  0
  -19.9245  -29.8793   19.9577 N   0  0  0  0  0  0  0  0  0  0  0  0
  -29.1429  -16.2381   20.2598 N   0  0  0  0  0  0  0  0  0  0  0  0
  -19.7821  -29.2788   16.3958 N   0  3  0  0  0  0  0  0  0  0  0  0
  -27.1010  -22.3006   22.6590 O   0  0  0  0  0  0  0  0  0  0  0  0
  -27.5489  -10.3096   25.7005 O   0  0  0  0  0  0  0  0  0  0  0  0
  -24.3753  -29.8254   23.4983 O   0  0  0  0  0  0  0  0  0  0  0  0
  -21.3276  -31.8146   21.5371 O   0  0  0  0  0  0  0  0  0  0  0  0
  -20.6417  -28.0254   18.7636 O   0  0  0  0  0  0  0  0  0  0  0  0
  -29.0281  -16.0815   17.9482 O   0  0  0  0  0  0  0  0  0  0  0  0
  -21.4637   -7.4492   21.7796 O   0  0  0  0  0  0  0  0  0  0  0  0
  -27.0131  -25.8078   19.6792 O   0  0  0  0  0  0  0  0  0  1  0  0
  -21.1107   -2.5579   24.3004 F   0  0  0  0  0  0  0  0  0  0  0  0
  -21.7771   -7.2391   24.5182 F   0  0  0  0  0  0  0  0  0  0  0  0
  1  2  1  0  0  0  0
  1  5  2  0  0  0  0
  2  6  2  0  0  0  0
  3 12  2  0  0  0  0
  3 19  1  0  0  0  0
  4 13  1  0  0  0  0
  4 19  2  0  0  0  0
  5 21  1  0  0  0  0
  6 23  1  0  0  0  0
  7 14  2  0  0  0  0
  7 22  1  0  0  0  0
  8 10  2  0  0  0  0
  8 25  1  0  0  0  0
  9 11  1  0  0  0  0
  9 25  2  0  0  0  0
 10 26  1  0  0  0  0
 11 26  2  0  0  0  0
 12 27  1  0  0  0  0
 13 27  2  0  0  0  0
 14 28  1  0  0  0  0
 15 16  2  0  0  0  0
 15 29  1  0  0  0  0
 16 30  1  0  0  0  0
 17 24  1  0  0  0  0
 17 28  2  0  0  0  0
 18 30  2  0  0  0  0
 18 31  1  0  0  0  0
 19 32  1  0  0  0  0
 20 32  1  0  0  0  0
 20 33  2  0  0  0  0
 20 37  1  0  0  0  0
 21 23  2  0  0  0  0
 21 42  1  0  0  0  0
 22 24  2  0  0  0  0
 22 43  1  0  0  0  0
 23 52  1  0  0  0  0
 24 44  1  0  0  0  0
 25 66  1  0  0  0  0
 26 73  1  0  0  0  0
 27 81  1  0  0  0  0
 28 82  1  0  0  0  0
 29 31  2  0  0  0  0
 29 81  1  0  0  0  0
 30 83  1  0  0  0  0
 31 84  1  0  0  0  0
 32 64  2  0  0  0  0
 33 65  1  0  0  0  0
 33 69  1  0  0  0  0
 34 35  1  0  0  0  0
 34 36  2  0  0  0  0
 34 45  1  0  0  0  0
 35 66  1  0  0  0  0
 35 75  2  0  0  0  0
 36 82  1  0  0  0  0
 37 70  1  0  0  0  0
 37 76  2  0  0  0  0
 38 53  1  0  0  0  0
 38 71  1  0  0  0  0
 38 77  2  0  0  0  0
 39 61  1  0  0  0  0
 39 67  1  0  0  0  0
 39 78  2  0  0  0  0
 40 62  1  0  0  0  0
 40 72  1  0  0  0  0
 40 79  2  0  0  0  0
 41 68  1  0  0  0  0
 41 73  1  0  0  0  0
 41 80  2  0  0  0  0
 42 46  1  0  0  0  0
 43 53  1  0  0  0  0
 44 67  1  0  0  0  0
 45 66  1  0  0  0  0
 46 48  1  0  0  0  0
 47 49  1  0  0  0  0
 47 50  1  0  0  0  0
 48 52  1  0  0  0  0
 49 54  1  0  0  0  0
 50 68  1  0  0  0  0
 51 54  1  0  0  0  0
 51 68  1  0  0  0  0
 52 71  1  0  0  0  0
 53 67  1  0  0  0  0
 54 65  1  0  0  0  0
 55 62  1  0  0  0  0
 56 63  1  0  0  0  0
 57 63  1  0  0  0  0
 58 63  1  0  0  0  0
 59 73  1  0  0  0  0
 60 74  1  0  0  0  0
 61 63  1  0  0  0  0
 61 72  1  0  0  0  0
 62 74  1  0  0  0  0
 64 65  1  0  0  0  0
M  CHG  1  74   1
M  ISO  4  36 101  41 100  73 100  82 101
M  END
> <Batch ID>
0082

> <Smiles>
CNC(C)C(=O)NC(C(=O)N1Cc2cc([101O:1][101CH:1]=C3CN(c4ccc([100N:0](C)[100C:0](=O)N5CCCC(n6nc(-c7ccc(Oc8ccc(F)cc8F)cc7)c(C(N)=O)c6N)C5)cc4)C3=O)ccc2CC1C(=O)NC1CCCc2ccccc21)C(C)(C)C

> <Shape>
0.320

> <Color>
0.093

> <Negative vol penalty>
0.000

$$$$

  -OEChem-04052300073D

 85 94  0     1  0  0  0  0  0999 V2000
  -19.8872  -30.3214   19.9562 C   0  0  0  0  0  0  0  0  0  0  0  0
  -21.1871  -29.9256   20.2548 C   0  0  0  0  0  0  0  0  0  0  0  0
  -26.6699  -12.7021   21.5662 C   0  0  0  0  0  0  0  0  0  0  0  0
  -25.9420  -13.9494   19.6293 C   0  0  0  0  0  0  0  0  0  0  0  0
  -18.8073  -29.6656   20.5458 C   0  0  0  0  0  0  0  0  0  0  0  0
  -21.4078  -28.8745   21.1441 C   0  0  0  0  0  0  0  0  0  0  0  0
  -24.9216  -25.6287   19.4817 C   0  0  0  0  0  0  0  0  0  0  0  0
  -25.3915  -12.1599   21.6975 C   0  0  0  0  0  0  0  0  0  0  0  0
  -24.6635  -13.4072   19.7606 C   0  0  0  0  0  0  0  0  0  0  0  0
  -26.2556  -26.0115   19.6145 C   0  0  0  0  0  0  0  0  0  0  0  0
  -22.4156  -10.1694   22.3276 C   0  0  0  0  0  0  0  0  0  0  0  0
  -22.3140   -8.8004   22.5749 C   0  0  0  0  0  0  0  0  0  0  0  0
  -26.4481  -24.6352   21.5862 C   0  0  0  0  0  0  0  0  0  0  0  0
  -23.4614   -8.3404   20.4990 C   0  0  0  0  0  0  0  0  0  0  0  0
  -26.9451  -13.5969   20.5321 C   0  0  0  0  0  0  0  0  0  0  0  0
  -29.3399  -13.6324   19.6538 C   0  0  0  0  0  0  0  0  0  0  0  0
  -19.0146  -28.5995   21.4353 C   0  0  0  0  0  0  0  0  0  0  0  0
  -24.3367  -24.7533   20.4081 C   0  0  0  0  0  0  0  0  0  0  0  0
  -20.3296  -28.2047   21.7471 C   0  0  0  0  0  0  0  0  0  0  0  0
  -25.1072  -24.2408   21.4616 C   0  0  0  0  0  0  0  0  0  0  0  0
  -24.3883  -12.5124   20.7947 C   0  0  0  0  0  0  0  0  0  0  0  0
  -27.0182  -25.5170   20.6685 C   0  0  0  0  0  0  0  0  0  0  0  0
  -23.0400  -10.6239   21.1661 C   0  0  0  0  0  0  0  0  0  0  0  0
  -22.8369   -7.8859   21.6606 C   0  0  0  0  0  0  0  0  0  0  0  0
  -23.5629   -9.7094   20.2518 C   0  0  0  0  0  0  0  0  0  0  0  0
  -28.2654  -14.1578   20.3962 C   0  0  0  0  0  0  0  0  0  0  0  0
  -30.3617  -14.5297   19.8466 C   0  0  0  0  0  0  0  0  0  0  0  0
  -31.3004  -24.9992   21.3110 C   0  0  0  0  0  0  0  0  0  0  0  0
  -31.2423  -23.7577   21.8057 C   0  0  0  0  0  0  0  0  0  0  0  0
  -31.8880  -24.6872   18.9302 C   0  0  0  0  0  0  0  0  0  0  0  0
  -31.7746  -22.2903   19.8744 C   0  0  0  0  0  0  0  0  0  0  0  0
  -31.3969  -25.4371   19.9318 C   0  0  0  0  0  0  0  0  0  0  0  0
  -31.2671  -22.5012   21.0965 C   0  0  0  0  0  0  0  0  0  0  0  0
  -32.3423  -23.2772   18.9286 C   0  0  0  0  0  0  0  0  0  0  0  0
  -30.5158  -28.6068   19.3622 C   0  0  0  0  0  0  0  0  0  0  0  0
  -29.9132  -27.4082   19.8792 C   0  0  0  0  0  0  0  0  0  0  0  0
  -30.1360  -29.8643   19.1456 C   0  0  0  0  0  0  0  0  0  0  0  0
  -28.6845  -27.1272   20.3497 C   0  0  0  0  0  0  0  0  0  1  0  0
  -29.4083  -12.4399   18.8608 C   0  0  0  0  0  0  0  0  0  0  0  0
  -21.9307  -24.9552   22.4754 C   0  0  0  0  0  0  0  0  0  0  0  0
  -22.5377  -21.7962   22.8933 C   0  0  0  0  0  0  0  0  0  0  0  0
  -24.7710  -19.2236   22.6915 C   0  0  0  0  0  0  0  0  0  0  0  0
  -30.1742  -20.3331   21.2014 C   0  0  0  0  0  0  0  0  0  0  0  0
  -17.8169  -27.9521   22.0842 C   0  0  0  0  0  0  0  0  0  0  0  0
  -22.9040  -24.3291   20.2356 C   0  0  0  0  0  0  0  0  0  0  0  0
  -24.5323  -23.2824   22.4712 C   0  0  0  0  0  0  0  0  0  0  0  0
  -31.7775  -27.8265   19.1658 C   0  0  0  0  0  0  0  0  0  0  0  0
  -18.1276  -26.6029   22.7272 C   0  0  0  0  0  0  0  0  0  0  0  0
  -32.0372  -17.6921   22.9940 C   0  0  0  0  0  0  0  0  0  0  0  0
  -19.4019  -26.6898   23.5611 C   0  0  0  0  0  0  0  0  0  0  0  0
  -31.3261  -16.4393   22.4913 C   0  0  0  0  0  0  0  0  0  0  0  0
  -31.0855  -18.8815   23.1173 C   0  0  0  0  0  0  0  0  0  0  0  0
  -29.6269  -17.9230   21.3575 C   0  0  0  0  0  0  0  0  0  0  0  0
  -20.6091  -27.0526   22.6878 C   0  0  1  0  0  0  0  0  0  0  0  0
  -22.2668  -23.8359   21.5311 C   0  0  1  0  0  0  0  0  0  0  0  0
  -30.5787  -16.7298   21.1811 C   0  0  2  0  0  0  0  0  0  0  0  0
  -24.9882  -16.7638   23.1384 C   0  0  0  0  0  0  0  0  0  0  0  0
  -22.7511  -22.3608   25.8842 C   0  0  0  0  0  0  0  0  0  0  0  0
  -23.8786  -20.1415   26.1520 C   0  0  0  0  0  0  0  0  0  0  0  0
  -21.5351  -20.2538   25.3046 C   0  0  0  0  0  0  0  0  0  0  0  0
  -25.3395  -18.6390   19.8465 C   0  0  0  0  0  0  0  0  0  0  0  0
  -23.4321  -20.9908   23.8045 C   0  0  1  0  0  0  0  0  0  0  0  0
  -24.6500  -17.8282   22.1062 C   0  0  2  0  0  0  0  0  0  0  0  0
  -22.9098  -20.9563   25.2686 C   0  0  0  0  0  0  0  0  0  0  0  0
  -28.5757  -15.3002   21.0147 N   0  0  0  0  0  0  0  0  0  0  0  0
  -29.8569  -15.5001   20.6614 N   0  0  0  0  0  0  0  0  0  0  0  0
  -31.0242  -26.7411   19.7016 N   0  0  0  0  0  0  0  0  0  0  0  0
  -23.1251  -22.9025   22.2635 N   0  0  0  0  0  0  0  0  0  0  0  0
  -30.3319  -19.1039   21.8726 N   0  0  0  0  0  0  0  0  0  0  0  0
  -31.6338  -14.5755   19.3971 N   0  0  0  0  0  0  0  0  0  0  0  0
  -28.2670  -11.6315   18.7700 N   0  0  0  0  0  0  0  0  0  0  0  0
  -30.7920  -21.4288   21.7980 N   0  0  0  0  0  0  0  0  0  0  0  0
  -21.0647  -25.8945   21.9490 N   0  0  0  0  0  0  0  0  0  0  0  0
  -23.5663  -19.6759   23.1869 N   0  0  0  0  0  0  0  0  0  0  0  0
  -25.5746  -17.6703   20.9481 N   0  3  0  0  0  0  0  0  0  0  0  0
  -33.1238  -22.8966   18.0575 O   0  0  0  0  0  0  0  0  0  0  0  0
  -30.4556  -12.0927   18.2640 O   0  0  0  0  0  0  0  0  0  0  0  0
  -22.4196  -24.9650   23.5991 O   0  0  0  0  0  0  0  0  0  0  0  0
  -21.3630  -21.4521   22.7403 O   0  0  0  0  0  0  0  0  0  0  0  0
  -25.8293  -19.8483   22.7110 O   0  0  0  0  0  0  0  0  0  0  0  0
  -29.5227  -20.4375   20.1558 O   0  0  0  0  0  0  0  0  0  0  0  0
  -23.1407  -11.9834   20.9225 O   0  0  0  0  0  0  0  0  0  0  0  0
  -28.3204  -25.8895   20.8007 O   0  0  0  0  0  0  0  0  0  1  0  0
  -22.7407   -6.5713   21.8988 F   0  0  0  0  0  0  0  0  0  0  0  0
  -24.1649  -10.1401   19.1347 F   0  0  0  0  0  0  0  0  0  0  0  0
  1  2  1  0  0  0  0
  1  5  2  0  0  0  0
  2  6  2  0  0  0  0
  3  8  2  0  0  0  0
  3 15  1  0  0  0  0
  4  9  1  0  0  0  0
  4 15  2  0  0  0  0
  5 17  1  0  0  0  0
  6 19  1  0  0  0  0
  7 10  2  0  0  0  0
  7 18  1  0  0  0  0
  8 21  1  0  0  0  0
  9 21  2  0  0  0  0
 10 22  1  0  0  0  0
 11 12  2  0  0  0  0
 11 23  1  0  0  0  0
 12 24  1  0  0  0  0
 13 20  1  0  0  0  0
 13 22  2  0  0  0  0
 14 24  2  0  0  0  0
 14 25  1  0  0  0  0
 15 26  1  0  0  0  0
 16 26  1  0  0  0  0
 16 27  2  0  0  0  0
 16 39  1  0  0  0  0
 17 19  2  0  0  0  0
 17 44  1  0  0  0  0
 18 20  2  0  0  0  0
 18 45  1  0  0  0  0
 19 54  1  0  0  0  0
 20 46  1  0  0  0  0
 21 82  1  0  0  0  0
 22 83  1  0  0  0  0
 23 25  2  0  0  0  0
 23 82  1  0  0  0  0
 24 84  1  0  0  0  0
 25 85  1  0  0  0  0
 26 65  2  0  0  0  0
 27 66  1  0  0  0  0
 27 70  1  0  0  0  0
 28 29  2  0  0  0  0
 28 32  1  0  0  0  0
 29 33  1  0  0  0  0
 30 32  2  0  0  0  0
 30 34  1  0  0  0  0
 31 33  2  0  0  0  0
 31 34  1  0  0  0  0
 32 67  1  0  0  0  0
 33 72  1  0  0  0  0
 34 76  2  0  0  0  0
 35 36  1  0  0  0  0
 35 37  2  0  0  0  0
 35 47  1  0  0  0  0
 36 38  2  0  0  0  0
 36 67  1  0  0  0  0
 38 83  1  0  0  0  0
 39 71  1  0  0  0  0
 39 77  2  0  0  0  0
 40 55  1  0  0  0  0
 40 73  1  0  0  0  0
 40 78  2  0  0  0  0
 41 62  1  0  0  0  0
 41 68  1  0  0  0  0
 41 79  2  0  0  0  0
 42 63  1  0  0  0  0
 42 74  1  0  0  0  0
 42 80  2  0  0  0  0
 43 69  1  0  0  0  0
 43 72  1  0  0  0  0
 43 81  2  0  0  0  0
 44 48  1  0  0  0  0
 45 55  1  0  0  0  0
 46 68  1  0  0  0  0
 47 67  1  0  0  0  0
 48 50  1  0  0  0  0
 49 51  1  0  0  0  0
 49 52  1  0  0  0  0
 50 54  1  0  0  0  0
 51 56  1  0  0  0  0
 52 69  1  0  0  0  0
 53 56  1  0  0  0  0
 53 69  1  0  0  0  0
 54 73  1  0  0  0  0
 55 68  1  0  0  0  0
 56 66  1  0  0  0  0
 57 63  1  0  0  0  0
 58 64  1  0  0  0  0
 59 64  1  0  0  0  0
 60 64  1  0  0  0  0
 61 75  1  0  0  0  0
 62 64  1  0  0  0  0
 62 74  1  0  0  0  0
 63 75  1  0  0  0  0
 65 66  1  0  0  0  0
M  CHG  1  75   1
M  ISO  4  38 101  43 100  72 100  83 101
M  END
> <Batch ID>
0082

> <Smiles>
C=C1CN(c2ccc([100NH:0][100C:0](=O)N3CCCC(n4nc(-c5ccc(Oc6ccc(F)cc6F)cc5)c(C(N)=O)c4N)C3)cc(=O)c2)C1=[101CH:1][101O:1]c1ccc2c(c1)CN(C(=O)C(NC(=O)C(C)NC)C(C)(C)C)C(C(=O)NC1CCCc3ccccc31)C2

> <Shape>
0.242

> <Color>
0.085

> <Negative vol penalty>
0.000

$$$$

  -OEChem-04052300073D

 88 97  0     1  0  0  0  0  0999 V2000
  -31.0853  -35.1316   22.9994 C   0  0  0  0  0  0  0  0  0  0  0  0
  -30.9739  -33.9048   22.3528 C   0  0  0  0  0  0  0  0  0  0  0  0
  -22.8109  -10.7675   19.6708 C   0  0  0  0  0  0  0  0  0  0  0  0
  -23.4555   -9.8963   21.8301 C   0  0  0  0  0  0  0  0  0  0  0  0
  -29.6139  -19.4778   18.6121 C   0  0  0  0  0  0  0  0  0  0  0  0
  -30.2376  -35.4371   24.0633 C   0  0  0  0  0  0  0  0  0  0  0  0
  -30.0154  -32.9823   22.7707 C   0  0  0  0  0  0  0  0  0  0  0  0
  -26.8802  -29.0780   19.2446 C   0  0  0  0  0  0  0  0  0  0  0  0
  -28.6980  -20.5280   18.6734 C   0  0  0  0  0  0  0  0  0  0  0  0
  -21.8056   -9.8046   19.5824 C   0  0  0  0  0  0  0  0  0  0  0  0
  -22.4502   -8.9333   21.7417 C   0  0  0  0  0  0  0  0  0  0  0  0
  -27.0568  -27.7255   18.9561 C   0  0  0  0  0  0  0  0  0  0  0  0
  -19.1029   -8.7818   22.1811 C   0  0  0  0  0  0  0  0  0  0  0  0
  -18.3103   -8.5690   23.3090 C   0  0  0  0  0  0  0  0  0  0  0  0
  -27.8542  -17.9847   17.8973 C   0  0  0  0  0  0  0  0  0  0  0  0
  -25.4705  -27.1564   20.6821 C   0  0  0  0  0  0  0  0  0  0  0  0
  -19.0266   -6.2627   23.3774 C   0  0  0  0  0  0  0  0  0  0  0  0
  -23.6358  -10.8133   20.7947 C   0  0  0  0  0  0  0  0  0  0  0  0
  -29.1921  -18.2062   18.2240 C   0  0  0  0  0  0  0  0  0  0  0  0
  -24.5700  -13.0981   21.4386 C   0  0  0  0  0  0  0  0  0  0  0  0
  -29.2618  -34.5217   24.4882 C   0  0  0  0  0  0  0  0  0  0  0  0
  -26.0042  -29.4801   20.2631 C   0  0  0  0  0  0  0  0  0  0  0  0
  -29.1548  -33.2752   23.8423 C   0  0  0  0  0  0  0  0  0  0  0  0
  -25.2827  -28.5147   20.9799 C   0  0  0  0  0  0  0  0  0  0  0  0
  -27.3601  -20.3065   18.3467 C   0  0  0  0  0  0  0  0  0  0  0  0
  -21.6253   -8.8875   20.6178 C   0  0  0  0  0  0  0  0  0  0  0  0
  -26.3541  -26.7643   19.6768 C   0  0  0  0  0  0  0  0  0  0  0  0
  -19.8573   -7.7349   21.6513 C   0  0  0  0  0  0  0  0  0  0  0  0
  -18.2722   -7.3095   23.9072 C   0  0  0  0  0  0  0  0  0  0  0  0
  -26.9382  -19.0349   17.9586 C   0  0  0  0  0  0  0  0  0  0  0  0
  -19.8192   -6.4754   22.2495 C   0  0  0  0  0  0  0  0  0  0  0  0
  -24.6748  -11.8075   20.8864 C   0  0  0  0  0  0  0  0  0  0  0  0
  -25.8225  -13.6403   21.2844 C   0  0  0  0  0  0  0  0  0  0  0  0
  -25.4846  -23.4247   18.7036 C   0  0  0  0  0  0  0  0  0  0  0  0
  -24.4262  -22.5443   18.2768 C   0  0  0  0  0  0  0  0  0  0  0  0
  -26.7671  -22.6716   18.7873 C   0  0  0  0  0  0  0  0  0  0  0  0
  -23.1352  -22.8325   18.0800 C   0  0  0  0  0  0  0  0  0  0  0  0
  -25.4333  -24.7229   19.0020 C   0  0  0  0  0  0  0  0  0  1  0  0
  -30.1676  -17.0877   18.1589 C   0  0  0  0  0  0  0  0  0  0  0  0
  -23.4414  -13.7488   22.0376 C   0  0  0  0  0  0  0  0  0  0  0  0
  -26.3257  -31.0495   23.0086 C   0  0  0  0  0  0  0  0  0  0  0  0
  -23.0867  -30.8746   23.0383 C   0  0  0  0  0  0  0  0  0  0  0  0
  -20.2618  -29.2757   21.9848 C   0  0  0  0  0  0  0  0  0  0  0  0
  -30.3717  -14.6245   18.2788 C   0  0  0  0  0  0  0  0  0  0  0  0
  -28.3997  -34.8775   25.6735 C   0  0  0  0  0  0  0  0  0  0  0  0
  -25.8047  -30.9442   20.5441 C   0  0  0  0  0  0  0  0  0  0  0  0
  -24.3149  -28.8952   22.0694 C   0  0  0  0  0  0  0  0  0  0  0  0
  -25.0348  -21.1889   18.0794 C   0  0  0  0  0  0  0  0  0  0  0  0
  -27.1615  -33.9957   25.8127 C   0  0  0  0  0  0  0  0  0  0  0  0
  -30.1985  -11.4925   19.9090 C   0  0  0  0  0  0  0  0  0  0  0  0
  -27.5316  -32.5254   25.6447 C   0  0  0  0  0  0  0  0  0  0  0  0
  -28.7389  -11.4018   20.3627 C   0  0  0  0  0  0  0  0  0  0  0  0
  -30.3268  -12.1597   18.5403 C   0  0  0  0  0  0  0  0  0  0  0  0
  -28.2094  -13.3705   18.8700 C   0  0  0  0  0  0  0  0  0  0  0  0
  -28.1111  -32.2582   24.2503 C   0  0  1  0  0  0  0  0  0  0  0  0
  -25.2741  -31.2163   21.9483 C   0  0  1  0  0  0  0  0  0  0  0  0
  -28.0330  -12.7697   20.2740 C   0  0  1  0  0  0  0  0  0  0  0  0
  -17.7629  -29.3404   22.2057 C   0  0  0  0  0  0  0  0  0  0  0  0
  -23.3035  -29.6452   25.8224 C   0  0  0  0  0  0  0  0  0  0  0  0
  -20.9326  -28.8748   25.5907 C   0  0  0  0  0  0  0  0  0  0  0  0
  -21.4586  -31.3131   25.5593 C   0  0  0  0  0  0  0  0  0  0  0  0
  -19.9009  -29.7316   19.0829 C   0  0  0  0  0  0  0  0  0  0  0  0
  -22.0742  -29.8864   23.5648 C   0  0  1  0  0  0  0  0  0  0  0  0
  -18.9652  -29.8034   21.3976 C   0  0  2  0  0  0  0  0  0  0  0  0
  -21.9618  -29.9223   25.1152 C   0  0  0  0  0  0  0  0  0  0  0  0
  -25.8972  -11.5454   20.4163 N   0  0  0  0  0  0  0  0  0  0  0  0
  -26.5721  -12.6790   20.6727 N   0  0  0  0  0  0  0  0  0  0  0  0
  -26.4489  -21.3559   18.4094 N   0  0  0  0  0  0  0  0  0  0  0  0
  -24.1592  -30.3391   22.3111 N   0  0  0  0  0  0  0  0  0  0  0  0
  -29.6407  -13.4529   18.5422 N   0  0  0  0  0  0  0  0  0  0  0  0
  -26.3448  -14.8408   21.6137 N   0  0  0  0  0  0  0  0  0  0  0  0
  -22.2301  -13.0481   22.1157 N   0  0  0  0  0  0  0  0  0  0  0  0
  -29.6347  -15.8121   18.3461 N   0  0  0  0  0  0  0  0  0  0  0  0
  -27.0519  -32.1965   23.2661 N   0  0  0  0  0  0  0  0  0  0  0  0
  -20.8245  -30.1722   22.8684 N   0  0  0  0  0  0  0  0  0  0  0  0
  -18.8002  -29.3275   19.9950 N   0  3  0  0  0  0  0  0  0  0  0  0
  -27.8475  -23.1308   19.1177 O   0  0  0  0  0  0  0  0  0  0  0  0
  -31.3449  -17.3347   17.9122 O   0  0  0  0  0  0  0  0  0  0  0  0
  -23.5009  -14.9228   22.4753 O   0  0  0  0  0  0  0  0  0  0  0  0
  -26.4667  -29.9610   23.5537 O   0  0  0  0  0  0  0  0  0  0  0  0
  -22.9280  -32.0781   23.2579 O   0  0  0  0  0  0  0  0  0  0  0  0
  -20.7269  -28.1764   21.6919 O   0  0  0  0  0  0  0  0  0  0  0  0
  -31.5838  -14.6177   18.0418 O   0  0  0  0  0  0  0  0  0  0  0  0
  -20.6443   -7.9479   20.5319 O   0  0  0  0  0  0  0  0  0  0  0  0
  -26.5251  -25.4434   19.3976 O   0  0  0  0  0  0  0  0  0  1  0  0
  -17.5122   -7.1058   24.9912 F   0  0  0  0  0  0  0  0  0  0  0  0
  -25.6546  -18.8100   17.6429 F   0  0  0  0  0  0  0  0  0  0  0  0
  -20.5427   -5.4661   21.7457 F   0  0  0  0  0  0  0  0  0  0  0  0
  1  2  1  0  0  0  0
  1  6  2  0  0  0  0
  2  7  2  0  0  0  0
  3 10  2  0  0  0  0
  3 18  1  0  0  0  0
  4 11  1  0  0  0  0
  4 18  2  0  0  0  0
  5  9  2  0  0  0  0
  5 19  1  0  0  0  0
  6 21  1  0  0  0  0
  7 23  1  0  0  0  0
  8 12  2  0  0  0  0
  8 22  1  0  0  0  0
  9 25  1  0  0  0  0
 10 26  1  0  0  0  0
 11 26  2  0  0  0  0
 12 27  1  0  0  0  0
 13 14  2  0  0  0  0
 13 28  1  0  0  0  0
 14 29  1  0  0  0  0
 15 19  2  0  0  0  0
 15 30  1  0  0  0  0
 16 24  1  0  0  0  0
 16 27  2  0  0  0  0
 17 29  2  0  0  0  0
 17 31  1  0  0  0  0
 18 32  1  0  0  0  0
 19 39  1  0  0  0  0
 20 32  1  0  0  0  0
 20 33  2  0  0  0  0
 20 40  1  0  0  0  0
 21 23  2  0  0  0  0
 21 45  1  0  0  0  0
 22 24  2  0  0  0  0
 22 46  1  0  0  0  0
 23 55  1  0  0  0  0
 24 47  1  0  0  0  0
 25 30  2  0  0  0  0
 25 68  1  0  0  0  0
 26 84  1  0  0  0  0
 27 85  1  0  0  0  0
 28 31  2  0  0  0  0
 28 84  1  0  0  0  0
 29 86  1  0  0  0  0
 30 87  1  0  0  0  0
 31 88  1  0  0  0  0
 32 66  2  0  0  0  0
 33 67  1  0  0  0  0
 33 71  1  0  0  0  0
 34 35  1  0  0  0  0
 34 36  1  0  0  0  0
 34 38  2  0  0  0  0
 35 37  2  0  0  0  0
 35 48  1  0  0  0  0
 36 68  1  0  0  0  0
 36 77  2  0  0  0  0
 38 85  1  0  0  0  0
 39 73  1  0  0  0  0
 39 78  2  0  0  0  0
 40 72  1  0  0  0  0
 40 79  2  0  0  0  0
 41 56  1  0  0  0  0
 41 74  1  0  0  0  0
 41 80  2  0  0  0  0
 42 63  1  0  0  0  0
 42 69  1  0  0  0  0
 42 81  2  0  0  0  0
 43 64  1  0  0  0  0
 43 75  1  0  0  0  0
 43 82  2  0  0  0  0
 44 70  1  0  0  0  0
 44 73  1  0  0  0  0
 44 83  2  0  0  0  0
 45 49  1  0  0  0  0
 46 56  1  0  0  0  0
 47 69  1  0  0  0  0
 48 68  1  0  0  0  0
 49 51  1  0  0  0  0
 50 52  1  0  0  0  0
 50 53  1  0  0  0  0
 51 55  1  0  0  0  0
 52 57  1  0  0  0  0
 53 70  1  0  0  0  0
 54 57  1  0  0  0  0
 54 70  1  0  0  0  0
 55 74  1  0  0  0  0
 56 69  1  0  0  0  0
 57 67  1  0  0  0  0
 58 64  1  0  0  0  0
 59 65  1  0  0  0  0
 60 65  1  0  0  0  0
 61 65  1  0  0  0  0
 62 76  1  0  0  0  0
 63 65  1  0  0  0  0
 63 75  1  0  0  0  0
 64 76  1  0  0  0  0
 66 67  1  0  0  0  0
M  CHG  1  76   1
M  ISO  4  38 101  44 100  73 100  85 101
M  END
> <Batch ID>
0082

> <Smiles>
C=C1CN(c2ccc(C(=O)[100NH:0][100C:0](=O)N3CCCC(n4nc(-c5ccc(Oc6ccc(F)cc6F)cc5)c(C(N)=O)c4N)C3)cc2F)C(=O)C1=[101CH:1][101O:1]c1ccc2c(c1)CN(C(=O)C(NC(=O)C(C)NC)C(C)(C)C)C(C(=O)NC1CCCc3ccccc31)C2

> <Shape>
0.269

> <Color>
0.139

> <Negative vol penalty>
0.000

$$$$

  -OEChem-04052300073D

 86 94  0     1  0  0  0  0  0999 V2000
  -17.0700  -30.1576   24.6040 C   0  0  0  0  0  0  0  0  0  0  0  0
  -18.3335  -30.4710   25.0947 C   0  0  0  0  0  0  0  0  0  0  0  0
  -23.5991  -13.7606   19.3524 C   0  0  0  0  0  0  0  0  0  0  0  0
  -24.7225  -14.3730   21.4017 C   0  0  0  0  0  0  0  0  0  0  0  0
  -25.1681  -24.5468   23.3367 C   0  0  0  0  0  0  0  0  0  0  0  0
  -16.9317  -29.2046   23.5958 C   0  0  0  0  0  0  0  0  0  0  0  0
  -19.4594  -29.8308   24.5781 C   0  0  0  0  0  0  0  0  0  0  0  0
  -26.3836  -30.9941   23.1576 C   0  0  0  0  0  0  0  0  0  0  0  0
  -24.2613  -23.7565   22.6306 C   0  0  0  0  0  0  0  0  0  0  0  0
  -24.6431  -12.8900   19.0402 C   0  0  0  0  0  0  0  0  0  0  0  0
  -25.7666  -13.5024   21.0895 C   0  0  0  0  0  0  0  0  0  0  0  0
  -27.6404  -30.4411   23.3994 C   0  0  0  0  0  0  0  0  0  0  0  0
  -28.8995  -11.7108   20.6593 C   0  0  0  0  0  0  0  0  0  0  0  0
  -30.2037  -12.1722   20.8376 C   0  0  0  0  0  0  0  0  0  0  0  0
  -25.4416  -22.7807   24.9625 C   0  0  0  0  0  0  0  0  0  0  0  0
  -27.2877  -28.8692   21.6040 C   0  0  0  0  0  0  0  0  0  0  0  0
  -29.7900  -13.9522   19.2572 C   0  0  0  0  0  0  0  0  0  0  0  0
  -23.6387  -14.5022   20.5331 C   0  0  0  0  0  0  0  0  0  0  0  0
  -25.7583  -24.0589   24.5026 C   0  0  0  0  0  0  0  0  0  0  0  0
  -21.3939  -15.1040   21.5849 C   0  0  0  0  0  0  0  0  0  0  0  0
  -18.0573  -28.5594   23.0598 C   0  0  0  0  0  0  0  0  0  0  0  0
  -25.5636  -30.4807   22.1425 C   0  0  0  0  0  0  0  0  0  0  0  0
  -19.3358  -28.8673   23.5626 C   0  0  0  0  0  0  0  0  0  0  0  0
  -26.0220  -29.4190   21.3496 C   0  0  0  0  0  0  0  0  0  0  0  0
  -23.9445  -22.4782   23.0904 C   0  0  0  0  0  0  0  0  0  0  0  0
  -25.7269  -12.7608   19.9087 C   0  0  0  0  0  0  0  0  0  0  0  0
  -28.0915  -29.3767   22.6245 C   0  0  0  0  0  0  0  0  0  0  0  0
  -28.0406  -12.3700   19.7799 C   0  0  0  0  0  0  0  0  0  0  0  0
  -30.6489  -13.2929   20.1366 C   0  0  0  0  0  0  0  0  0  0  0  0
  -24.5347  -21.9903   24.2564 C   0  0  0  0  0  0  0  0  0  0  0  0
  -28.4858  -13.4908   19.0789 C   0  0  0  0  0  0  0  0  0  0  0  0
  -22.5608  -15.4021   20.8559 C   0  0  0  0  0  0  0  0  0  0  0  0
  -20.6963  -16.2867   21.6149 C   0  0  0  0  0  0  0  0  0  0  0  0
  -26.7190  -24.8953   25.2511 C   0  0  0  0  0  0  0  0  0  0  0  0
  -20.9779  -13.8685   22.1817 C   0  0  0  0  0  0  0  0  0  0  0  0
  -22.7004  -29.1030   22.0537 C   0  0  0  0  0  0  0  0  0  0  0  0
  -23.1333  -29.3060   18.8453 C   0  0  0  0  0  0  0  0  0  0  0  0
  -28.8842  -26.1130   25.1811 C   0  0  0  0  0  0  0  0  0  0  0  0
  -25.3062  -29.5395   16.2241 C   0  0  0  0  0  0  0  0  0  0  0  0
  -22.3500  -22.0134   21.1963 C   0  0  0  0  0  0  0  0  0  0  0  0
  -17.8536  -27.5019   22.0039 C   0  0  0  0  0  0  0  0  0  0  0  0
  -24.2215  -31.1057   21.8768 C   0  0  0  0  0  0  0  0  0  0  0  0
  -25.1884  -28.8447   20.2344 C   0  0  0  0  0  0  0  0  0  0  0  0
  -19.1304  -27.1410   21.2491 C   0  0  0  0  0  0  0  0  0  0  0  0
  -20.0324  -20.3076   19.0997 C   0  0  0  0  0  0  0  0  0  0  0  0
  -20.2851  -26.9305   22.2234 C   0  0  0  0  0  0  0  0  0  0  0  0
  -20.3074  -18.8290   19.3830 C   0  0  0  0  0  0  0  0  0  0  0  0
  -21.3158  -21.1361   19.1141 C   0  0  0  0  0  0  0  0  0  0  0  0
  -22.4110  -19.5106   20.6065 C   0  0  0  0  0  0  0  0  0  0  0  0
  -20.5834  -28.2123   23.0105 C   0  0  1  0  0  0  0  0  0  0  0  0
  -23.2587  -30.1689   21.1538 C   0  0  1  0  0  0  0  0  0  0  0  0
  -21.1407  -18.6467   20.6667 C   0  0  2  0  0  0  0  0  0  0  0  0
  -25.3649  -29.6483   13.7177 C   0  0  0  0  0  0  0  0  0  0  0  0
  -22.5580  -26.3128   18.7043 C   0  0  0  0  0  0  0  0  0  0  0  0
  -23.5451  -26.3022   16.4035 C   0  0  0  0  0  0  0  0  0  0  0  0
  -21.5098  -27.6637   16.8792 C   0  0  0  0  0  0  0  0  0  0  0  0
  -26.5970  -32.2026   16.2542 C   0  0  0  0  0  0  0  0  0  0  0  0
  -30.0191  -26.3562   24.2137 C   0  0  0  0  0  0  0  0  0  0  0  0
  -30.7224  -27.6914   24.4329 C   0  0  0  0  0  0  0  0  0  0  0  0
  -29.8047  -28.8856   24.1992 C   0  0  0  0  0  0  0  0  0  1  0  0
  -23.7450  -28.4158   17.7906 C   0  0  1  0  0  0  0  0  0  0  0  0
  -25.3252  -30.4499   15.0094 C   0  0  2  0  0  0  0  0  0  0  0  0
  -22.8546  -27.1830   17.4666 C   0  0  0  0  0  0  0  0  0  0  0  0
  -22.6054  -16.6744   20.4518 N   0  0  0  0  0  0  0  0  0  0  0  0
  -21.4578  -17.1862   20.9285 N   0  0  0  0  0  0  0  0  0  0  0  0
  -23.8809  -29.4859   20.0178 N   0  0  0  0  0  0  0  0  0  0  0  0
  -22.0506  -20.9159   20.3616 N   0  0  0  0  0  0  0  0  0  0  0  0
  -19.5118  -16.6346   22.1611 N   0  0  0  0  0  0  0  0  0  0  0  0
  -21.8144  -12.7509   22.0563 N   0  0  0  0  0  0  0  0  0  0  0  0
  -23.0230  -21.6779   22.3706 N   0  0  0  0  0  0  0  0  0  0  0  0
  -27.8322  -25.2958   24.6213 N   0  0  0  0  0  0  0  0  0  0  0  0
  -21.3262  -29.1466   22.1922 N   0  0  0  0  0  0  0  0  0  0  0  0
  -24.0197  -29.2727   16.6423 N   0  0  0  0  0  0  0  0  0  0  0  0
  -26.4223  -25.2019   26.5136 N   0  3  0  0  0  0  0  0  0  0  0  0
  -26.5203  -31.3394   15.0475 N   0  3  0  0  0  0  0  0  0  0  0  0
  -19.8888  -13.7546   22.7935 O   0  0  0  0  0  0  0  0  0  0  0  0
  -23.4600  -28.2995   22.5820 O   0  0  0  0  0  0  0  0  0  0  0  0
  -22.0361  -29.8285   18.6336 O   0  0  0  0  0  0  0  0  0  0  0  0
  -28.8334  -26.5210   26.3323 O   0  0  0  0  0  0  0  0  0  0  0  0
  -26.3302  -29.1052   16.7471 O   0  0  0  0  0  0  0  0  0  0  0  0
  -22.0088  -23.1626   20.9047 O   0  0  0  0  0  0  0  0  0  0  0  0
  -26.7458  -11.9112   19.6045 O   0  0  0  0  0  0  0  0  0  0  0  0
  -29.3175  -28.8347   22.8589 O   0  0  0  0  0  0  0  0  0  1  0  0
  -31.9009  -13.7368   20.3091 F   0  0  0  0  0  0  0  0  0  0  0  0
  -24.2366  -20.7638   24.7083 F   0  0  0  0  0  0  0  0  0  0  0  0
  -27.6649  -14.1290   18.2336 F   0  0  0  0  0  0  0  0  0  0  0  0
  1  2  1  0  0  0  0
  1  6  2  0  0  0  0
  2  7  2  0  0  0  0
  3 10  2  0  0  0  0
  3 18  1  0  0  0  0
  4 11  1  0  0  0  0
  4 18  2  0  0  0  0
  5  9  2  0  0  0  0
  5 19  1  0  0  0  0
  6 21  1  0  0  0  0
  7 23  1  0  0  0  0
  8 12  2  0  0  0  0
  8 22  1  0  0  0  0
  9 25  1  0  0  0  0
 10 26  1  0  0  0  0
 11 26  2  0  0  0  0
 12 27  1  0  0  0  0
 13 14  2  0  0  0  0
 13 28  1  0  0  0  0
 14 29  1  0  0  0  0
 15 19  2  0  0  0  0
 15 30  1  0  0  0  0
 16 24  1  0  0  0  0
 16 27  2  0  0  0  0
 17 29  2  0  0  0  0
 17 31  1  0  0  0  0
 18 32  1  0  0  0  0
 19 34  1  0  0  0  0
 20 32  1  0  0  0  0
 20 33  2  0  0  0  0
 20 35  1  0  0  0  0
 21 23  2  0  0  0  0
 21 41  1  0  0  0  0
 22 24  2  0  0  0  0
 22 42  1  0  0  0  0
 23 50  1  0  0  0  0
 24 43  1  0  0  0  0
 25 30  2  0  0  0  0
 25 70  1  0  0  0  0
 26 82  1  0  0  0  0
 27 83  1  0  0  0  0
 28 31  2  0  0  0  0
 28 82  1  0  0  0  0
 29 84  1  0  0  0  0
 30 85  1  0  0  0  0
 31 86  1  0  0  0  0
 32 64  2  0  0  0  0
 33 65  1  0  0  0  0
 33 68  1  0  0  0  0
 34 71  1  0  0  0  0
 34 74  2  0  0  0  0
 35 69  1  0  0  0  0
 35 76  2  0  0  0  0
 36 51  1  0  0  0  0
 36 72  1  0  0  0  0
 36 77  2  0  0  0  0
 37 61  1  0  0  0  0
 37 66  1  0  0  0  0
 37 78  2  0  0  0  0
 38 58  1  0  0  0  0
 38 71  1  0  0  0  0
 38 79  2  0  0  0  0
 39 62  1  0  0  0  0
 39 73  1  0  0  0  0
 39 80  2  0  0  0  0
 40 67  1  0  0  0  0
 40 70  1  0  0  0  0
 40 81  2  0  0  0  0
 41 44  1  0  0  0  0
 42 51  1  0  0  0  0
 43 66  1  0  0  0  0
 44 46  1  0  0  0  0
 45 47  1  0  0  0  0
 45 48  1  0  0  0  0
 46 50  1  0  0  0  0
 47 52  1  0  0  0  0
 48 67  1  0  0  0  0
 49 52  1  0  0  0  0
 49 67  1  0  0  0  0
 50 72  1  0  0  0  0
 51 66  1  0  0  0  0
 52 65  1  0  0  0  0
 53 62  1  0  0  0  0
 54 63  1  0  0  0  0
 55 63  1  0  0  0  0
 56 63  1  0  0  0  0
 57 75  1  0  0  0  0
 58 59  1  0  0  0  0
 59 60  1  0  0  0  0
 60 83  1  0  0  0  0
 61 63  1  0  0  0  0
 61 73  1  0  0  0  0
 62 75  1  0  0  0  0
 64 65  1  0  0  0  0
M  CHG  2  74   1  75   1
M  ISO  4  40 100  60 101  70 100  83 101
M  END
> <Batch ID>
0082

> <Smiles>
CNC(C)C(=O)NC(C(=O)N1Cc2cc([101O:1][101CH2:1]CCC(=O)NC(=N)c3ccc([100NH:0][100C:0](=O)N4CCCC(n5nc(-c6ccc(Oc7ccc(F)cc7F)cc6)c(C(N)=O)c5N)C4)c(F)c3)ccc2CC1C(=O)NC1CCCc2ccccc21)C(C)(C)C

> <Shape>
0.213

> <Color>
0.117

> <Negative vol penalty>
0.000

$$$$

  -OEChem-04052300073D

 86 95  0     1  0  0  0  0  0999 V2000
  -22.0816  -31.4814   13.9254 C   0  0  0  0  0  0  0  0  0  0  0  0
  -22.9618  -30.6042   14.5508 C   0  0  0  0  0  0  0  0  0  0  0  0
  -22.7124  -11.5747   19.0377 C   0  0  0  0  0  0  0  0  0  0  0  0
  -22.8391  -10.3320   21.1057 C   0  0  0  0  0  0  0  0  0  0  0  0
  -30.7818  -19.1727   19.3100 C   0  0  0  0  0  0  0  0  0  0  0  0
  -28.9607  -17.9302   20.2984 C   0  0  0  0  0  0  0  0  0  0  0  0
  -21.9573  -32.7906   14.3884 C   0  0  0  0  0  0  0  0  0  0  0  0
  -23.7191  -31.0361   15.6391 C   0  0  0  0  0  0  0  0  0  0  0  0
  -23.7639  -27.6784   19.4297 C   0  0  0  0  0  0  0  0  0  0  0  0
  -30.0292  -20.3439   19.3957 C   0  0  0  0  0  0  0  0  0  0  0  0
  -28.2081  -19.1015   20.3841 C   0  0  0  0  0  0  0  0  0  0  0  0
  -21.6105  -10.8136   18.6478 C   0  0  0  0  0  0  0  0  0  0  0  0
  -21.7371   -9.5709   20.7158 C   0  0  0  0  0  0  0  0  0  0  0  0
  -24.6041  -26.5743   19.2924 C   0  0  0  0  0  0  0  0  0  0  0  0
  -18.7348   -7.5413   20.4237 C   0  0  0  0  0  0  0  0  0  0  0  0
  -17.7350   -7.3145   21.3695 C   0  0  0  0  0  0  0  0  0  0  0  0
  -26.2330  -27.6448   20.7136 C   0  0  0  0  0  0  0  0  0  0  0  0
  -17.3755   -9.6960   21.5606 C   0  0  0  0  0  0  0  0  0  0  0  0
  -23.3268  -11.3339   20.2666 C   0  0  0  0  0  0  0  0  0  0  0  0
  -30.2475  -17.9657   19.7613 C   0  0  0  0  0  0  0  0  0  0  0  0
  -24.4521  -13.3256   21.3956 C   0  0  0  0  0  0  0  0  0  0  0  0
  -22.7063  -33.2359   15.4890 C   0  0  0  0  0  0  0  0  0  0  0  0
  -24.1573  -28.7805   20.2025 C   0  0  0  0  0  0  0  0  0  0  0  0
  -23.6057  -32.3529   16.1165 C   0  0  0  0  0  0  0  0  0  0  0  0
  -25.3949  -28.7606   20.8612 C   0  0  0  0  0  0  0  0  0  0  0  0
  -28.7424  -20.3083   19.9328 C   0  0  0  0  0  0  0  0  0  0  0  0
  -21.1228   -9.8117   19.4868 C   0  0  0  0  0  0  0  0  0  0  0  0
  -25.8401  -26.5586   19.9321 C   0  0  0  0  0  0  0  0  0  0  0  0
  -19.0551   -8.8455   20.0464 C   0  0  0  0  0  0  0  0  0  0  0  0
  -17.0553   -8.3918   21.9379 C   0  0  0  0  0  0  0  0  0  0  0  0
  -18.3754   -9.9228   20.6148 C   0  0  0  0  0  0  0  0  0  0  0  0
  -24.4654  -12.1194   20.6697 C   0  0  0  0  0  0  0  0  0  0  0  0
  -25.7769  -13.6660   21.5200 C   0  0  0  0  0  0  0  0  0  0  0  0
  -26.9287  -23.1360   20.1388 C   0  0  0  0  0  0  0  0  0  0  0  0
  -26.7480  -21.7296   20.4826 C   0  0  0  0  0  0  0  0  0  0  0  0
  -28.2552  -22.7559   19.6648 C   0  0  0  0  0  0  0  0  0  0  0  0
  -26.2037  -24.2663   20.2212 C   0  0  0  0  0  0  0  0  0  1  0  0
  -31.0490  -16.7183   19.6699 C   0  0  0  0  0  0  0  0  0  0  0  0
  -23.3415  -14.0714   21.9113 C   0  0  0  0  0  0  0  0  0  0  0  0
  -24.7003  -31.8559   19.6105 C   0  0  0  0  0  0  0  0  0  0  0  0
  -25.0291  -32.0170   22.8335 C   0  0  0  0  0  0  0  0  0  0  0  0
  -25.7302  -30.4045   25.7585 C   0  0  0  0  0  0  0  0  0  0  0  0
  -30.8738  -14.2615   19.4307 C   0  0  0  0  0  0  0  0  0  0  0  0
  -22.5729  -34.6739   15.9239 C   0  0  0  0  0  0  0  0  0  0  0  0
  -23.2281  -29.9524   20.3623 C   0  0  0  0  0  0  0  0  0  0  0  0
  -25.8554  -29.9099   21.7188 C   0  0  0  0  0  0  0  0  0  0  0  0
  -23.1350  -34.9435   17.3173 C   0  0  0  0  0  0  0  0  0  0  0  0
  -29.9718  -11.0160   20.5033 C   0  0  0  0  0  0  0  0  0  0  0  0
  -24.5093  -34.3000   17.4722 C   0  0  0  0  0  0  0  0  0  0  0  0
  -28.4579  -11.1119   20.7107 C   0  0  0  0  0  0  0  0  0  0  0  0
  -30.4311  -11.8262   19.2918 C   0  0  0  0  0  0  0  0  0  0  0  0
  -28.4844  -13.3202   19.4831 C   0  0  0  0  0  0  0  0  0  0  0  0
  -24.4261  -32.7769   17.3153 C   0  0  1  0  0  0  0  0  0  0  0  0
  -23.9496  -31.2377   20.7558 C   0  0  1  0  0  0  0  0  0  0  0  0
  -27.9816  -12.5783   20.7321 C   0  0  1  0  0  0  0  0  0  0  0  0
  -25.9581  -30.8080   28.2247 C   0  0  0  0  0  0  0  0  0  0  0  0
  -27.7442  -33.3282   22.3656 C   0  0  0  0  0  0  0  0  0  0  0  0
  -28.3138  -32.8396   24.7541 C   0  0  0  0  0  0  0  0  0  0  0  0
  -26.3994  -34.3446   24.2130 C   0  0  0  0  0  0  0  0  0  0  0  0
  -23.5393  -28.5168   26.3875 C   0  0  0  0  0  0  0  0  0  0  0  0
  -26.1780  -31.8601   23.8001 C   0  0  1  0  0  0  0  0  0  0  0  0
  -25.0201  -30.3977   27.1002 C   0  0  2  0  0  0  0  0  0  0  0  0
  -27.1513  -33.0721   23.7656 C   0  0  0  0  0  0  0  0  0  0  0  0
  -25.7007  -11.7206   20.3550 N   0  0  0  0  0  0  0  0  0  0  0  0
  -26.4759  -12.6817   20.8856 N   0  0  0  0  0  0  0  0  0  0  0  0
  -28.0016  -21.4633   20.0169 N   0  0  0  0  0  0  0  0  0  0  0  0
  -24.9140  -31.0355   21.8390 N   0  0  0  0  0  0  0  0  0  0  0  0
  -29.9477  -13.2044   19.3930 N   0  0  0  0  0  0  0  0  0  0  0  0
  -26.4004  -14.7085   22.1091 N   0  0  0  0  0  0  0  0  0  0  0  0
  -22.0474  -13.5792   21.6939 N   0  0  0  0  0  0  0  0  0  0  0  0
  -30.3143  -15.5363   19.5713 N   0  0  0  0  0  0  0  0  0  0  0  0
  -23.9077  -32.1719   18.5235 N   0  0  0  0  0  0  0  0  0  0  0  0
  -25.5804  -31.6107   25.1075 N   0  0  0  0  0  0  0  0  0  0  0  0
  -24.4935  -29.0364   27.4007 N   0  3  0  0  0  0  0  0  0  0  0  0
  -25.8604  -21.0656   20.9755 O   0  0  0  0  0  0  0  0  0  0  0  0
  -29.1960  -23.3370   19.1657 O   0  0  0  0  0  0  0  0  0  0  0  0
  -32.2743  -16.7950   19.6463 O   0  0  0  0  0  0  0  0  0  0  0  0
  -23.4914  -15.1512   22.5319 O   0  0  0  0  0  0  0  0  0  0  0  0
  -25.9088  -32.0345   19.7063 O   0  0  0  0  0  0  0  0  0  0  0  0
  -24.2577  -32.9712   22.9608 O   0  0  0  0  0  0  0  0  0  0  0  0
  -26.3581  -29.4378   25.3323 O   0  0  0  0  0  0  0  0  0  0  0  0
  -32.0949  -14.0832   19.3820 O   0  0  0  0  0  0  0  0  0  0  0  0
  -20.0474   -9.0690   19.1068 O   0  0  0  0  0  0  0  0  0  0  0  0
  -26.6624  -25.4825   19.7992 O   0  0  0  0  0  0  0  0  0  1  0  0
  -16.0941   -8.1738   22.8450 F   0  0  0  0  0  0  0  0  0  0  0  0
  -18.6779  -11.1778   20.2554 F   0  0  0  0  0  0  0  0  0  0  0  0
  1  2  1  0  0  0  0
  1  7  2  0  0  0  0
  2  8  2  0  0  0  0
  3 12  2  0  0  0  0
  3 19  1  0  0  0  0
  4 13  1  0  0  0  0
  4 19  2  0  0  0  0
  5 10  2  0  0  0  0
  5 20  1  0  0  0  0
  6 11  1  0  0  0  0
  6 20  2  0  0  0  0
  7 22  1  0  0  0  0
  8 24  1  0  0  0  0
  9 14  2  0  0  0  0
  9 23  1  0  0  0  0
 10 26  1  0  0  0  0
 11 26  2  0  0  0  0
 12 27  1  0  0  0  0
 13 27  2  0  0  0  0
 14 28  1  0  0  0  0
 15 16  2  0  0  0  0
 15 29  1  0  0  0  0
 16 30  1  0  0  0  0
 17 25  1  0  0  0  0
 17 28  2  0  0  0  0
 18 30  2  0  0  0  0
 18 31  1  0  0  0  0
 19 32  1  0  0  0  0
 20 38  1  0  0  0  0
 21 32  1  0  0  0  0
 21 33  2  0  0  0  0
 21 39  1  0  0  0  0
 22 24  2  0  0  0  0
 22 44  1  0  0  0  0
 23 25  2  0  0  0  0
 23 45  1  0  0  0  0
 24 53  1  0  0  0  0
 25 46  1  0  0  0  0
 26 66  1  0  0  0  0
 27 83  1  0  0  0  0
 28 84  1  0  0  0  0
 29 31  2  0  0  0  0
 29 83  1  0  0  0  0
 30 85  1  0  0  0  0
 31 86  1  0  0  0  0
 32 64  2  0  0  0  0
 33 65  1  0  0  0  0
 33 69  1  0  0  0  0
 34 35  1  0  0  0  0
 34 36  1  0  0  0  0
 34 37  2  0  0  0  0
 35 66  1  0  0  0  0
 35 75  2  0  0  0  0
 36 66  1  0  0  0  0
 36 76  2  0  0  0  0
 37 84  1  0  0  0  0
 38 71  1  0  0  0  0
 38 77  2  0  0  0  0
 39 70  1  0  0  0  0
 39 78  2  0  0  0  0
 40 54  1  0  0  0  0
 40 72  1  0  0  0  0
 40 79  2  0  0  0  0
 41 61  1  0  0  0  0
 41 67  1  0  0  0  0
 41 80  2  0  0  0  0
 42 62  1  0  0  0  0
 42 73  1  0  0  0  0
 42 81  2  0  0  0  0
 43 68  1  0  0  0  0
 43 71  1  0  0  0  0
 43 82  2  0  0  0  0
 44 47  1  0  0  0  0
 45 54  1  0  0  0  0
 46 67  1  0  0  0  0
 47 49  1  0  0  0  0
 48 50  1  0  0  0  0
 48 51  1  0  0  0  0
 49 53  1  0  0  0  0
 50 55  1  0  0  0  0
 51 68  1  0  0  0  0
 52 55  1  0  0  0  0
 52 68  1  0  0  0  0
 53 72  1  0  0  0  0
 54 67  1  0  0  0  0
 55 65  1  0  0  0  0
 56 62  1  0  0  0  0
 57 63  1  0  0  0  0
 58 63  1  0  0  0  0
 59 63  1  0  0  0  0
 60 74  1  0  0  0  0
 61 63  1  0  0  0  0
 61 73  1  0  0  0  0
 62 74  1  0  0  0  0
 64 65  1  0  0  0  0
M  CHG  1  74   1
M  ISO  4  37 101  43 100  71 100  84 101
M  END
> <Batch ID>
0082

> <Smiles>
CNC(C)C(=O)NC(C(=O)N1Cc2cc([101O:1][101CH:1]=C3C(=O)N(c4ccc(C(=O)[100NH:0][100C:0](=O)N5CCCC(n6nc(-c7ccc(Oc8ccc(F)cc8F)cc7)c(C(N)=O)c6N)C5)cc4)C3=O)ccc2CC1C(=O)NC1CCCc2ccccc21)C(C)(C)C

> <Shape>
0.282

> <Color>
0.104

> <Negative vol penalty>
0.000

$$$$

  -OEChem-04052300073D

 85 94  0     1  0  0  0  0  0999 V2000
  -26.4169  -12.4564   16.8938 C   0  0  0  0  0  0  0  0  0  0  0  0
  -26.0989  -13.8063   16.7838 C   0  0  0  0  0  0  0  0  0  0  0  0
  -17.4221  -28.7580   22.5002 C   0  0  0  0  0  0  0  0  0  0  0  0
  -18.0913  -29.9654   22.3003 C   0  0  0  0  0  0  0  0  0  0  0  0
  -28.7851  -24.7779   19.1918 C   0  0  0  0  0  0  0  0  0  0  0  0
  -27.5393  -23.7192   20.9706 C   0  0  0  0  0  0  0  0  0  0  0  0
  -26.1618  -11.7761   18.0837 C   0  0  0  0  0  0  0  0  0  0  0  0
  -25.5244  -14.4763   17.8633 C   0  0  0  0  0  0  0  0  0  0  0  0
  -25.3497  -20.9243   20.9794 C   0  0  0  0  0  0  0  0  0  0  0  0
  -18.1464  -27.5914   22.7454 C   0  0  0  0  0  0  0  0  0  0  0  0
  -19.4848  -30.0061   22.3454 C   0  0  0  0  0  0  0  0  0  0  0  0
  -29.9012  -24.0059   19.5140 C   0  0  0  0  0  0  0  0  0  0  0  0
  -28.6554  -22.9471   21.2927 C   0  0  0  0  0  0  0  0  0  0  0  0
  -24.4385  -21.8817   21.4232 C   0  0  0  0  0  0  0  0  0  0  0  0
  -31.0650  -20.4391   22.3521 C   0  0  0  0  0  0  0  0  0  0  0  0
  -30.8668  -19.0792   22.5906 C   0  0  0  0  0  0  0  0  0  0  0  0
  -24.1160  -20.6236   23.4561 C   0  0  0  0  0  0  0  0  0  0  0  0
  -29.9932  -18.8141   20.3537 C   0  0  0  0  0  0  0  0  0  0  0  0
  -27.6041  -24.6346   19.9202 C   0  0  0  0  0  0  0  0  0  0  0  0
  -25.4267  -25.1085   18.6784 C   0  0  0  0  0  0  0  0  0  0  0  0
  -25.5928  -12.4405   19.1817 C   0  0  0  0  0  0  0  0  0  0  0  0
  -25.6431  -19.8019   21.7671 C   0  0  0  0  0  0  0  0  0  0  0  0
  -25.2601  -13.8039   19.0686 C   0  0  0  0  0  0  0  0  0  0  0  0
  -25.0331  -19.6547   23.0211 C   0  0  0  0  0  0  0  0  0  0  0  0
  -19.5399  -27.6321   22.7905 C   0  0  0  0  0  0  0  0  0  0  0  0
  -20.2092  -28.8395   22.5905 C   0  0  0  0  0  0  0  0  0  0  0  0
  -29.8364  -23.0905   20.5644 C   0  0  0  0  0  0  0  0  0  0  0  0
  -23.8194  -21.7300   22.6605 C   0  0  0  0  0  0  0  0  0  0  0  0
  -30.7272  -20.9866   21.1144 C   0  0  0  0  0  0  0  0  0  0  0  0
  -30.3309  -18.2667   21.5915 C   0  0  0  0  0  0  0  0  0  0  0  0
  -30.1913  -20.1741   20.1152 C   0  0  0  0  0  0  0  0  0  0  0  0
  -26.4510  -25.4323   19.5883 C   0  0  0  0  0  0  0  0  0  0  0  0
  -24.5747  -26.1848   18.7234 C   0  0  0  0  0  0  0  0  0  0  0  0
  -21.0290  -24.5404   24.0100 C   0  0  0  0  0  0  0  0  0  0  0  0
  -21.6572  -24.6638   22.8427 C   0  0  0  0  0  0  0  0  0  0  0  0
  -20.1163  -25.6811   24.1715 C   0  0  0  0  0  0  0  0  0  0  0  0
  -21.1641  -25.8877   22.1816 C   0  0  0  0  0  0  0  0  0  0  0  0
  -25.2603  -23.9394   17.8654 C   0  0  0  0  0  0  0  0  0  0  0  0
  -25.3062  -16.6613   21.4108 C   0  0  0  0  0  0  0  0  0  0  0  0
  -26.9422  -16.5612   24.2101 C   0  0  0  0  0  0  0  0  0  0  0  0
  -27.8517  -18.1458   27.0925 C   0  0  0  0  0  0  0  0  0  0  0  0
  -22.4218  -30.0358   22.4510 C   0  0  0  0  0  0  0  0  0  0  0  0
  -25.2919  -11.6515   20.4313 C   0  0  0  0  0  0  0  0  0  0  0  0
  -26.6483  -18.7918   21.2858 C   0  0  0  0  0  0  0  0  0  0  0  0
  -25.3290  -18.4782   23.9137 C   0  0  0  0  0  0  0  0  0  0  0  0
  -25.0262  -12.5256   21.6543 C   0  0  0  0  0  0  0  0  0  0  0  0
  -24.9944  -30.9047   20.1481 C   0  0  0  0  0  0  0  0  0  0  0  0
  -24.0646  -13.6565   21.3035 C   0  0  0  0  0  0  0  0  0  0  0  0
  -25.5333  -29.5513   19.6789 C   0  0  0  0  0  0  0  0  0  0  0  0
  -24.6085  -30.8800   21.6260 C   0  0  0  0  0  0  0  0  0  0  0  0
  -24.2283  -28.4475   21.5405 C   0  0  0  0  0  0  0  0  0  0  0  0
  -24.6587  -14.5715   20.2258 C   0  0  1  0  0  0  0  0  0  0  0  0
  -26.4848  -17.4254   21.9444 C   0  0  1  0  0  0  0  0  0  0  0  0
  -24.5697  -28.4045   20.0420 C   0  0  2  0  0  0  0  0  0  0  0  0
  -29.1628  -17.7960   29.2035 C   0  0  0  0  0  0  0  0  0  0  0  0
  -24.6854  -14.8354   25.3229 C   0  0  0  0  0  0  0  0  0  0  0  0
  -25.5496  -15.3118   27.6239 C   0  0  0  0  0  0  0  0  0  0  0  0
  -26.9832  -14.0996   25.9813 C   0  0  0  0  0  0  0  0  0  0  0  0
  -29.6998  -20.3663   26.4501 C   0  0  0  0  0  0  0  0  0  0  0  0
  -22.6766  -23.7715   22.2338 C   0  0  0  0  0  0  0  0  0  1  0  0
  -26.5628  -16.5733   25.6712 C   0  0  1  0  0  0  0  0  0  0  0  0
  -29.2000  -18.3065   27.7714 C   0  0  2  0  0  0  0  0  0  0  0  0
  -25.9380  -15.2263   26.1324 C   0  0  0  0  0  0  0  0  0  0  0  0
  -26.2683  -26.6213   20.1687 N   0  0  0  0  0  0  0  0  0  0  0  0
  -25.1193  -27.0541   19.6222 N   0  0  0  0  0  0  0  0  0  0  0  0
  -20.2399  -26.4563   23.0365 N   0  0  0  0  0  0  0  0  0  0  0  0
  -26.3142  -17.5145   23.3960 N   0  0  0  0  0  0  0  0  0  0  0  0
  -23.6910  -29.7706   21.8947 N   0  0  0  0  0  0  0  0  0  0  0  0
  -23.4202  -26.4630   18.0814 N   0  0  0  0  0  0  0  0  0  0  0  0
  -26.2289  -22.9292   17.9415 N   0  0  0  0  0  0  0  0  0  0  0  0
  -21.6239  -28.9065   22.6316 N   0  0  0  0  0  0  0  0  0  0  0  0
  -25.6390  -15.4645   20.8054 N   0  0  0  0  0  0  0  0  0  0  0  0
  -27.7661  -16.9552   26.4023 N   0  0  0  0  0  0  0  0  0  0  0  0
  -29.6006  -19.7417   27.7943 N   0  3  0  0  0  0  0  0  0  0  0  0
  -19.4086  -25.8491   25.1513 O   0  0  0  0  0  0  0  0  0  0  0  0
  -21.5396  -26.2768   21.0872 O   0  0  0  0  0  0  0  0  0  0  0  0
  -24.2903  -23.8020   17.0820 O   0  0  0  0  0  0  0  0  0  0  0  0
  -24.1783  -17.1225   21.5403 O   0  0  0  0  0  0  0  0  0  0  0  0
  -27.7708  -15.7409   23.8073 O   0  0  0  0  0  0  0  0  0  0  0  0
  -26.9620  -18.9902   27.1701 O   0  0  0  0  0  0  0  0  0  0  0  0
  -22.0583  -31.1836   22.7203 O   0  0  0  0  0  0  0  0  0  0  0  0
  -30.9253  -22.3367   20.8789 O   0  0  0  0  0  0  0  0  0  0  0  0
  -22.9292  -22.6627   23.0958 O   0  0  0  0  0  0  0  0  0  1  0  0
  -30.1421  -16.9604   21.8202 F   0  0  0  0  0  0  0  0  0  0  0  0
  -29.8660  -20.6941   18.9238 F   0  0  0  0  0  0  0  0  0  0  0  0
  1  2  1  0  0  0  0
  1  7  2  0  0  0  0
  2  8  2  0  0  0  0
  3  4  1  0  0  0  0
  3 10  2  0  0  0  0
  4 11  2  0  0  0  0
  5 12  2  0  0  0  0
  5 19  1  0  0  0  0
  6 13  1  0  0  0  0
  6 19  2  0  0  0  0
  7 21  1  0  0  0  0
  8 23  1  0  0  0  0
  9 14  2  0  0  0  0
  9 22  1  0  0  0  0
 10 25  1  0  0  0  0
 11 26  1  0  0  0  0
 12 27  1  0  0  0  0
 13 27  2  0  0  0  0
 14 28  1  0  0  0  0
 15 16  2  0  0  0  0
 15 29  1  0  0  0  0
 16 30  1  0  0  0  0
 17 24  1  0  0  0  0
 17 28  2  0  0  0  0
 18 30  2  0  0  0  0
 18 31  1  0  0  0  0
 19 32  1  0  0  0  0
 20 32  1  0  0  0  0
 20 33  2  0  0  0  0
 20 38  1  0  0  0  0
 21 23  2  0  0  0  0
 21 43  1  0  0  0  0
 22 24  2  0  0  0  0
 22 44  1  0  0  0  0
 23 52  1  0  0  0  0
 24 45  1  0  0  0  0
 25 26  2  0  0  0  0
 25 66  1  0  0  0  0
 26 71  1  0  0  0  0
 27 82  1  0  0  0  0
 28 83  1  0  0  0  0
 29 31  2  0  0  0  0
 29 82  1  0  0  0  0
 30 84  1  0  0  0  0
 31 85  1  0  0  0  0
 32 64  2  0  0  0  0
 33 65  1  0  0  0  0
 33 69  1  0  0  0  0
 34 35  2  0  0  0  0
 34 36  1  0  0  0  0
 35 37  1  0  0  0  0
 35 60  1  0  0  0  0
 36 66  1  0  0  0  0
 36 75  2  0  0  0  0
 37 66  1  0  0  0  0
 37 76  2  0  0  0  0
 38 70  1  0  0  0  0
 38 77  2  0  0  0  0
 39 53  1  0  0  0  0
 39 72  1  0  0  0  0
 39 78  2  0  0  0  0
 40 61  1  0  0  0  0
 40 67  1  0  0  0  0
 40 79  2  0  0  0  0
 41 62  1  0  0  0  0
 41 73  1  0  0  0  0
 41 80  2  0  0  0  0
 42 68  1  0  0  0  0
 42 71  1  0  0  0  0
 42 81  2  0  0  0  0
 43 46  1  0  0  0  0
 44 53  1  0  0  0  0
 45 67  1  0  0  0  0
 46 48  1  0  0  0  0
 47 49  1  0  0  0  0
 47 50  1  0  0  0  0
 48 52  1  0  0  0  0
 49 54  1  0  0  0  0
 50 68  1  0  0  0  0
 51 54  1  0  0  0  0
 51 68  1  0  0  0  0
 52 72  1  0  0  0  0
 53 67  1  0  0  0  0
 54 65  1  0  0  0  0
 55 62  1  0  0  0  0
 56 63  1  0  0  0  0
 57 63  1  0  0  0  0
 58 63  1  0  0  0  0
 59 74  1  0  0  0  0
 60 83  1  0  0  0  0
 61 63  1  0  0  0  0
 61 73  1  0  0  0  0
 62 74  1  0  0  0  0
 64 65  1  0  0  0  0
M  CHG  1  74   1
M  ISO  4  42 100  60 101  71 100  83 101
M  END
> <Batch ID>
0082

> <Smiles>
CNC(C)C(=O)NC(C(=O)N1Cc2cc([101O:1][101CH2:1]C3=CC(=O)N(c4ccccc4[100NH:0][100C:0](=O)N4CCCC(n5nc(-c6ccc(Oc7ccc(F)cc7F)cc6)c(C(N)=O)c5N)C4)C3=O)ccc2CC1C(=O)NC1CCCc2ccccc21)C(C)(C)C

> <Shape>
0.200

> <Color>
0.061

> <Negative vol penalty>
0.000

$$$$

  -OEChem-04052300073D

 85 93  0     1  0  0  0  0  0999 V2000
  -33.4684  -29.4444   24.1632 C   0  0  0  0  0  0  0  0  0  0  0  0
  -32.9053  -29.9910   23.0145 C   0  0  0  0  0  0  0  0  0  0  0  0
  -26.1646  -12.6129   21.4762 C   0  0  0  0  0  0  0  0  0  0  0  0
  -25.9632  -13.0420   19.1072 C   0  0  0  0  0  0  0  0  0  0  0  0
  -27.7004  -20.9254   14.7929 C   0  0  0  0  0  0  0  0  0  0  0  0
  -27.5795  -22.8661   16.2269 C   0  0  0  0  0  0  0  0  0  0  0  0
  -33.1376  -28.1465   24.5506 C   0  0  0  0  0  0  0  0  0  0  0  0
  -32.0119  -29.2396   22.2518 C   0  0  0  0  0  0  0  0  0  0  0  0
  -26.2057  -29.9751   18.1211 C   0  0  0  0  0  0  0  0  0  0  0  0
  -28.1733  -20.1647   15.8622 C   0  0  0  0  0  0  0  0  0  0  0  0
  -28.0523  -22.1054   17.2962 C   0  0  0  0  0  0  0  0  0  0  0  0
  -24.9757  -11.8842   21.4453 C   0  0  0  0  0  0  0  0  0  0  0  0
  -24.7742  -12.3132   19.0763 C   0  0  0  0  0  0  0  0  0  0  0  0
  -25.7347  -29.6328   16.8543 C   0  0  0  0  0  0  0  0  0  0  0  0
  -23.9727   -8.7924   20.5137 C   0  0  0  0  0  0  0  0  0  0  0  0
  -23.9445   -7.5694   21.1837 C   0  0  0  0  0  0  0  0  0  0  0  0
  -25.1763  -27.4300   17.6636 C   0  0  0  0  0  0  0  0  0  0  0  0
  -22.1544   -8.3804   22.5890 C   0  0  0  0  0  0  0  0  0  0  0  0
  -26.6583  -13.1919   20.3071 C   0  0  0  0  0  0  0  0  0  0  0  0
  -27.4036  -22.2761   14.9752 C   0  0  0  0  0  0  0  0  0  0  0  0
  -29.1902  -13.4543   20.1384 C   0  0  0  0  0  0  0  0  0  0  0  0
  -32.2324  -27.3823   23.7976 C   0  0  0  0  0  0  0  0  0  0  0  0
  -26.1755  -29.0422   19.1677 C   0  0  0  0  0  0  0  0  0  0  0  0
  -31.6698  -27.9298   22.6287 C   0  0  0  0  0  0  0  0  0  0  0  0
  -25.6451  -27.7637   18.9434 C   0  0  0  0  0  0  0  0  0  0  0  0
  -28.3492  -20.7547   17.1138 C   0  0  0  0  0  0  0  0  0  0  0  0
  -24.2805  -11.7343   20.2454 C   0  0  0  0  0  0  0  0  0  0  0  0
  -25.2226  -28.3592   16.6246 C   0  0  0  0  0  0  0  0  0  0  0  0
  -23.0918   -9.8096   20.8815 C   0  0  0  0  0  0  0  0  0  0  0  0
  -23.0353   -7.3633   22.2213 C   0  0  0  0  0  0  0  0  0  0  0  0
  -22.1826   -9.6035   21.9191 C   0  0  0  0  0  0  0  0  0  0  0  0
  -27.8861  -13.9454   20.3385 C   0  0  0  0  0  0  0  0  0  0  0  0
  -29.9967  -14.5584   20.2690 C   0  0  0  0  0  0  0  0  0  0  0  0
  -25.3602  -26.9763   14.7433 C   0  0  0  0  0  0  0  0  0  1  0  0
  -26.9003  -23.0861   13.8367 C   0  0  0  0  0  0  0  0  0  0  0  0
  -29.6330  -12.1194   19.8595 C   0  0  0  0  0  0  0  0  0  0  0  0
  -24.7303  -26.1737   13.8709 C   0  0  0  0  0  0  0  0  0  0  0  0
  -25.5626  -25.0766   13.2613 C   0  0  0  0  0  0  0  0  0  0  0  0
  -28.3729  -27.6391   20.9859 C   0  0  0  0  0  0  0  0  0  0  0  0
  -25.7776  -26.4667   22.5391 C   0  0  0  0  0  0  0  0  0  0  0  0
  -22.4662  -25.6472   22.4381 C   0  0  0  0  0  0  0  0  0  0  0  0
  -29.0606  -20.4104   19.5059 C   0  0  0  0  0  0  0  0  0  0  0  0
  -31.9419  -25.9669   24.2300 C   0  0  0  0  0  0  0  0  0  0  0  0
  -26.6626  -29.4357   20.5353 C   0  0  0  0  0  0  0  0  0  0  0  0
  -25.5717  -26.7324   20.0386 C   0  0  0  0  0  0  0  0  0  0  0  0
  -30.6992  -25.3720   23.5725 C   0  0  0  0  0  0  0  0  0  0  0  0
  -30.2029  -18.8057   22.4718 C   0  0  0  0  0  0  0  0  0  0  0  0
  -30.7050  -25.6483   22.0724 C   0  0  0  0  0  0  0  0  0  0  0  0
  -29.8626  -17.3316   22.2405 C   0  0  0  0  0  0  0  0  0  0  0  0
  -29.1336  -19.7318   21.8952 C   0  0  0  0  0  0  0  0  0  0  0  0
  -28.4637  -18.0226   20.2524 C   0  0  0  0  0  0  0  0  0  0  0  0
  -30.6777  -27.1550   21.7888 C   0  0  1  0  0  0  0  0  0  0  0  0
  -27.0579  -28.2396   21.3957 C   0  0  1  0  0  0  0  0  0  0  0  0
  -29.5439  -17.0526   20.7586 C   0  0  2  0  0  0  0  0  0  0  0  0
  -23.2860  -26.3459   13.5041 C   0  0  0  0  0  0  0  0  0  0  0  0
  -20.6337  -24.6746   23.8499 C   0  0  0  0  0  0  0  0  0  0  0  0
  -26.9563  -23.6801   22.1450 C   0  0  0  0  0  0  0  0  0  0  0  0
  -24.7071  -22.7271   22.6939 C   0  0  0  0  0  0  0  0  0  0  0  0
  -25.9382  -24.0735   24.3951 C   0  0  0  0  0  0  0  0  0  0  0  0
  -20.8494  -28.1187   22.2476 C   0  0  0  0  0  0  0  0  0  0  0  0
  -24.9127  -25.2374   22.3987 C   0  0  1  0  0  0  0  0  0  0  0  0
  -21.3242  -25.9496   23.3914 C   0  0  2  0  0  0  0  0  0  0  0  0
  -25.6316  -23.9481   22.8869 C   0  0  0  0  0  0  0  0  0  0  0  0
  -27.8610  -15.2591   20.5781 N   0  0  0  0  0  0  0  0  0  0  0  0
  -29.1593  -15.6029   20.5295 N   0  0  0  0  0  0  0  0  0  0  0  0
  -26.0662  -27.1629   21.3568 N   0  0  0  0  0  0  0  0  0  0  0  0
  -28.8873  -19.4118   20.4875 N   0  0  0  0  0  0  0  0  0  0  0  0
  -31.3333  -14.7279   20.1853 N   0  0  0  0  0  0  0  0  0  0  0  0
  -28.6720  -11.1042   19.7581 N   0  0  0  0  0  0  0  0  0  0  0  0
  -28.8295  -19.9810   18.1994 N   0  0  0  0  0  0  0  0  0  0  0  0
  -26.1032  -24.1787   14.1803 N   0  0  0  0  0  0  0  0  0  0  0  0
  -29.3412  -27.6795   21.9709 N   0  0  0  0  0  0  0  0  0  0  0  0
  -23.6689  -25.5309   23.1025 N   0  0  0  0  0  0  0  0  0  0  0  0
  -20.3123  -26.8196   22.7280 N   0  3  0  0  0  0  0  0  0  0  0  0
  -27.2264  -22.7756   12.6943 O   0  0  0  0  0  0  0  0  0  0  0  0
  -30.8462  -11.8324   19.7210 O   0  0  0  0  0  0  0  0  0  0  0  0
  -25.7314  -25.0012   12.0449 O   0  0  0  0  0  0  0  0  0  0  0  0
  -28.4992  -27.1722   19.8600 O   0  0  0  0  0  0  0  0  0  0  0  0
  -26.1763  -26.8012   23.6575 O   0  0  0  0  0  0  0  0  0  0  0  0
  -22.3068  -25.5226   21.2259 O   0  0  0  0  0  0  0  0  0  0  0  0
  -29.4162  -21.5546   19.7998 O   0  0  0  0  0  0  0  0  0  0  0  0
  -23.1205  -11.0230   20.2148 O   0  0  0  0  0  0  0  0  0  0  0  0
  -24.7629  -28.0223   15.3889 O   0  0  0  0  0  0  0  0  0  1  0  0
  -23.0073   -6.1882   22.8636 F   0  0  0  0  0  0  0  0  0  0  0  0
  -21.3331  -10.5765   22.2760 F   0  0  0  0  0  0  0  0  0  0  0  0
  1  2  1  0  0  0  0
  1  7  2  0  0  0  0
  2  8  2  0  0  0  0
  3 12  2  0  0  0  0
  3 19  1  0  0  0  0
  4 13  1  0  0  0  0
  4 19  2  0  0  0  0
  5 10  2  0  0  0  0
  5 20  1  0  0  0  0
  6 11  1  0  0  0  0
  6 20  2  0  0  0  0
  7 22  1  0  0  0  0
  8 24  1  0  0  0  0
  9 14  2  0  0  0  0
  9 23  1  0  0  0  0
 10 26  1  0  0  0  0
 11 26  2  0  0  0  0
 12 27  1  0  0  0  0
 13 27  2  0  0  0  0
 14 28  1  0  0  0  0
 15 16  2  0  0  0  0
 15 29  1  0  0  0  0
 16 30  1  0  0  0  0
 17 25  1  0  0  0  0
 17 28  2  0  0  0  0
 18 30  2  0  0  0  0
 18 31  1  0  0  0  0
 19 32  1  0  0  0  0
 20 35  1  0  0  0  0
 21 32  1  0  0  0  0
 21 33  2  0  0  0  0
 21 36  1  0  0  0  0
 22 24  2  0  0  0  0
 22 43  1  0  0  0  0
 23 25  2  0  0  0  0
 23 44  1  0  0  0  0
 24 52  1  0  0  0  0
 25 45  1  0  0  0  0
 26 70  1  0  0  0  0
 27 82  1  0  0  0  0
 28 83  1  0  0  0  0
 29 31  2  0  0  0  0
 29 82  1  0  0  0  0
 30 84  1  0  0  0  0
 31 85  1  0  0  0  0
 32 64  2  0  0  0  0
 33 65  1  0  0  0  0
 33 68  1  0  0  0  0
 34 37  2  0  0  0  0
 34 83  1  0  0  0  0
 35 71  1  0  0  0  0
 35 75  2  0  0  0  0
 36 69  1  0  0  0  0
 36 76  2  0  0  0  0
 37 38  1  0  0  0  0
 37 55  1  0  0  0  0
 38 71  1  0  0  0  0
 38 77  2  0  0  0  0
 39 53  1  0  0  0  0
 39 72  1  0  0  0  0
 39 78  2  0  0  0  0
 40 61  1  0  0  0  0
 40 66  1  0  0  0  0
 40 79  2  0  0  0  0
 41 62  1  0  0  0  0
 41 73  1  0  0  0  0
 41 80  2  0  0  0  0
 42 67  1  0  0  0  0
 42 70  1  0  0  0  0
 42 81  2  0  0  0  0
 43 46  1  0  0  0  0
 44 53  1  0  0  0  0
 45 66  1  0  0  0  0
 46 48  1  0  0  0  0
 47 49  1  0  0  0  0
 47 50  1  0  0  0  0
 48 52  1  0  0  0  0
 49 54  1  0  0  0  0
 50 67  1  0  0  0  0
 51 54  1  0  0  0  0
 51 67  1  0  0  0  0
 52 72  1  0  0  0  0
 53 66  1  0  0  0  0
 54 65  1  0  0  0  0
 56 62  1  0  0  0  0
 57 63  1  0  0  0  0
 58 63  1  0  0  0  0
 59 63  1  0  0  0  0
 60 74  1  0  0  0  0
 61 63  1  0  0  0  0
 61 73  1  0  0  0  0
 62 74  1  0  0  0  0
 64 65  1  0  0  0  0
M  CHG  1  74   1
M  ISO  4  34 101  42 100  70 100  83 101
M  END
> <Batch ID>
0082

> <Smiles>
CNC(C)C(=O)NC(C(=O)N1Cc2cc([101O:1][101CH:1]=C(C)C(=O)NC(=O)c3ccc([100NH:0][100C:0](=O)N4CCCC(n5nc(-c6ccc(Oc7ccc(F)cc7F)cc6)c(C(N)=O)c5N)C4)cc3)ccc2CC1C(=O)NC1CCCc2ccccc21)C(C)(C)C

> <Shape>
0.215

> <Color>
0.079

> <Negative vol penalty>
0.000

$$$$

  -OEChem-04052300073D

 86 95  0     1  0  0  0  0  0999 V2000
  -16.7431  -25.3911   23.2995 C   0  0  0  0  0  0  0  0  0  0  0  0
  -17.9945  -24.9045   22.9355 C   0  0  0  0  0  0  0  0  0  0  0  0
  -23.1354   -9.9404   19.9273 C   0  0  0  0  0  0  0  0  0  0  0  0
  -23.4655  -10.1118   22.3145 C   0  0  0  0  0  0  0  0  0  0  0  0
  -16.5923  -26.7329   23.6473 C   0  0  0  0  0  0  0  0  0  0  0  0
  -19.0958  -25.7596   22.9180 C   0  0  0  0  0  0  0  0  0  0  0  0
  -23.1941  -23.6932   25.0577 C   0  0  0  0  0  0  0  0  0  0  0  0
  -22.3242   -8.8221   20.1198 C   0  0  0  0  0  0  0  0  0  0  0  0
  -22.6543   -8.9936   22.5070 C   0  0  0  0  0  0  0  0  0  0  0  0
  -23.9100  -22.7676   24.2997 C   0  0  0  0  0  0  0  0  0  0  0  0
  -22.9419   -5.6342   22.2560 C   0  0  0  0  0  0  0  0  0  0  0  0
  -23.3856   -4.6575   23.1474 C   0  0  0  0  0  0  0  0  0  0  0  0
  -25.5182  -24.4770   23.7421 C   0  0  0  0  0  0  0  0  0  0  0  0
  -21.4082   -4.9896   24.4954 C   0  0  0  0  0  0  0  0  0  0  0  0
  -23.7061  -10.5852   21.0247 C   0  0  0  0  0  0  0  0  0  0  0  0
  -24.1397  -13.0878   20.7859 C   0  0  0  0  0  0  0  0  0  0  0  0
  -17.6942  -27.6027   23.6434 C   0  0  0  0  0  0  0  0  0  0  0  0
  -23.6298  -25.0226   25.1549 C   0  0  0  0  0  0  0  0  0  0  0  0
  -18.9594  -27.1146   23.2648 C   0  0  0  0  0  0  0  0  0  0  0  0
  -24.8075  -25.4169   24.5041 C   0  0  0  0  0  0  0  0  0  0  0  0
  -22.0836   -8.3487   21.4097 C   0  0  0  0  0  0  0  0  0  0  0  0
  -25.0706  -23.1601   23.6394 C   0  0  0  0  0  0  0  0  0  0  0  0
  -21.7314   -6.2888   22.4843 C   0  0  0  0  0  0  0  0  0  0  0  0
  -22.6187   -4.3352   24.2671 C   0  0  0  0  0  0  0  0  0  0  0  0
  -20.9646   -5.9664   23.6040 C   0  0  0  0  0  0  0  0  0  0  0  0
  -24.5446  -11.7401   20.8265 C   0  0  0  0  0  0  0  0  0  0  0  0
  -25.3017  -13.7892   20.5757 C   0  0  0  0  0  0  0  0  0  0  0  0
  -27.3241  -18.3285   17.6977 C   0  0  0  0  0  0  0  0  0  0  0  0
  -29.2278  -17.5884   20.0525 C   0  0  0  0  0  0  0  0  0  0  0  0
  -27.8475  -17.1856   17.2491 C   0  0  0  0  0  0  0  0  0  0  0  0
  -29.4300  -16.5720   19.2086 C   0  0  0  0  0  0  0  0  0  0  0  0
  -27.5575  -19.0458   18.9205 C   0  0  0  0  0  0  0  0  0  0  0  0
  -28.3701  -18.7454   19.9436 C   0  0  0  0  0  0  0  0  0  0  0  0
  -27.8458  -21.1444   22.5946 C   0  0  0  0  0  0  0  0  0  0  0  0
  -28.8442  -16.2860   17.8782 C   0  0  0  0  0  0  0  0  0  0  0  0
  -29.2224  -20.7792   22.8480 C   0  0  0  0  0  0  0  0  0  0  0  0
  -27.3365  -20.3891   21.4182 C   0  0  0  0  0  0  0  0  0  0  0  0
  -30.0354  -21.2311   23.8088 C   0  0  0  0  0  0  0  0  0  0  0  0
  -27.0675  -22.0067   23.2486 C   0  0  0  0  0  0  0  0  0  1  0  0
  -22.8303  -13.6548   20.9258 C   0  0  0  0  0  0  0  0  0  0  0  0
  -22.4195  -27.8453   24.3356 C   0  0  0  0  0  0  0  0  0  0  0  0
  -25.0382  -28.9787   25.8784 C   0  0  0  0  0  0  0  0  0  0  0  0
  -28.2250  -28.4256   26.9670 C   0  0  0  0  0  0  0  0  0  0  0  0
  -30.1196  -14.3822   17.7985 C   0  0  0  0  0  0  0  0  0  0  0  0
  -17.4731  -29.0558   23.9813 C   0  0  0  0  0  0  0  0  0  0  0  0
  -22.8610  -26.0023   25.9983 C   0  0  0  0  0  0  0  0  0  0  0  0
  -25.3287  -26.8272   24.5931 C   0  0  0  0  0  0  0  0  0  0  0  0
  -29.6111  -19.7640   21.8109 C   0  0  0  0  0  0  0  0  0  0  0  0
  -18.7616  -29.8101   24.2990 C   0  0  0  0  0  0  0  0  0  0  0  0
  -30.1287  -12.3169   20.7620 C   0  0  0  0  0  0  0  0  0  0  0  0
  -19.8330  -29.4984   23.2588 C   0  0  0  0  0  0  0  0  0  0  0  0
  -28.6426  -12.0645   21.0145 C   0  0  0  0  0  0  0  0  0  0  0  0
  -30.4375  -12.3936   19.2701 C   0  0  0  0  0  0  0  0  0  0  0  0
  -28.1280  -13.1592   18.7875 C   0  0  0  0  0  0  0  0  0  0  0  0
  -20.1827  -28.0053   23.2576 C   0  0  1  0  0  0  0  0  0  0  0  0
  -23.1158  -27.4551   25.6086 C   0  0  1  0  0  0  0  0  0  0  0  0
  -27.7739  -13.1035   20.2836 C   0  0  1  0  0  0  0  0  0  0  0  0
  -30.1213  -29.5523   28.1637 C   0  0  0  0  0  0  0  0  0  0  0  0
  -25.6805  -30.5710   23.3561 C   0  0  0  0  0  0  0  0  0  0  0  0
  -28.0009  -30.8981   24.2375 C   0  0  0  0  0  0  0  0  0  0  0  0
  -26.0504  -31.8119   25.4957 C   0  0  0  0  0  0  0  0  0  0  0  0
  -28.1824  -26.4321   29.1540 C   0  0  0  0  0  0  0  0  0  0  0  0
  -26.4535  -29.3161   25.4759 C   0  0  1  0  0  0  0  0  0  0  0  0
  -28.8882  -28.6743   28.3097 C   0  0  2  0  0  0  0  0  0  0  0  0
  -26.5357  -30.6231   24.6379 C   0  0  0  0  0  0  0  0  0  0  0  0
  -25.8610  -11.5919   20.6556 N   0  0  0  0  0  0  0  0  0  0  0  0
  -29.1911  -15.2308   17.2250 N   0  0  0  0  0  0  0  0  0  0  0  0
  -26.2933  -12.8555   20.5055 N   0  0  0  0  0  0  0  0  0  0  0  0
  -28.4123  -19.6016   21.0059 N   0  0  0  0  0  0  0  0  0  0  0  0
  -24.5384  -27.7498   25.4248 N   0  0  0  0  0  0  0  0  0  0  0  0
  -29.5706  -13.3648   18.6010 N   0  0  0  0  0  0  0  0  0  0  0  0
  -25.5617  -15.1075   20.4457 N   0  0  0  0  0  0  0  0  0  0  0  0
  -21.7471  -12.7908   21.1369 N   0  0  0  0  0  0  0  0  0  0  0  0
  -21.0472  -27.6878   24.3740 N   0  0  0  0  0  0  0  0  0  0  0  0
  -27.2322  -29.3471   26.7093 N   0  0  0  0  0  0  0  0  0  0  0  0
  -29.3009  -27.3839   28.9305 N   0  3  0  0  0  0  0  0  0  0  0  0
  -26.2135  -20.4720   20.9499 O   0  0  0  0  0  0  0  0  0  0  0  0
  -22.6246  -14.8898   20.8490 O   0  0  0  0  0  0  0  0  0  0  0  0
  -23.0783  -28.2600   23.3892 O   0  0  0  0  0  0  0  0  0  0  0  0
  -24.4021  -29.7729   26.5757 O   0  0  0  0  0  0  0  0  0  0  0  0
  -28.5571  -27.5081   26.2198 O   0  0  0  0  0  0  0  0  0  0  0  0
  -31.3379  -14.4860   17.6356 O   0  0  0  0  0  0  0  0  0  0  0  0
  -21.2919   -7.2577   21.5979 O   0  0  0  0  0  0  0  0  0  0  0  0
  -25.7708  -22.2588   22.8983 O   0  0  0  0  0  0  0  0  0  1  0  0
  -23.0442   -3.3961   25.1223 F   0  0  0  0  0  0  0  0  0  0  0  0
  -19.8003   -6.5910   23.8279 F   0  0  0  0  0  0  0  0  0  0  0  0
  1  2  1  0  0  0  0
  1  5  2  0  0  0  0
  2  6  2  0  0  0  0
  3  8  2  0  0  0  0
  3 15  1  0  0  0  0
  4  9  1  0  0  0  0
  4 15  2  0  0  0  0
  5 17  1  0  0  0  0
  6 19  1  0  0  0  0
  7 10  2  0  0  0  0
  7 18  1  0  0  0  0
  8 21  1  0  0  0  0
  9 21  2  0  0  0  0
 10 22  1  0  0  0  0
 11 12  2  0  0  0  0
 11 23  1  0  0  0  0
 12 24  1  0  0  0  0
 13 20  1  0  0  0  0
 13 22  2  0  0  0  0
 14 24  2  0  0  0  0
 14 25  1  0  0  0  0
 15 26  1  0  0  0  0
 16 26  1  0  0  0  0
 16 27  2  0  0  0  0
 16 40  1  0  0  0  0
 17 19  2  0  0  0  0
 17 45  1  0  0  0  0
 18 20  2  0  0  0  0
 18 46  1  0  0  0  0
 19 55  1  0  0  0  0
 20 47  1  0  0  0  0
 21 83  1  0  0  0  0
 22 84  1  0  0  0  0
 23 25  2  0  0  0  0
 23 83  1  0  0  0  0
 24 85  1  0  0  0  0
 25 86  1  0  0  0  0
 26 66  2  0  0  0  0
 27 68  1  0  0  0  0
 27 72  1  0  0  0  0
 28 30  2  0  0  0  0
 28 32  1  0  0  0  0
 29 31  2  0  0  0  0
 29 33  1  0  0  0  0
 30 35  1  0  0  0  0
 31 35  1  0  0  0  0
 32 33  2  0  0  0  0
 33 69  1  0  0  0  0
 34 36  1  0  0  0  0
 34 37  1  0  0  0  0
 34 39  2  0  0  0  0
 35 67  2  0  0  0  0
 36 38  2  0  0  0  0
 36 48  1  0  0  0  0
 37 69  1  0  0  0  0
 37 77  2  0  0  0  0
 39 84  1  0  0  0  0
 40 73  1  0  0  0  0
 40 78  2  0  0  0  0
 41 56  1  0  0  0  0
 41 74  1  0  0  0  0
 41 79  2  0  0  0  0
 42 63  1  0  0  0  0
 42 70  1  0  0  0  0
 42 80  2  0  0  0  0
 43 64  1  0  0  0  0
 43 75  1  0  0  0  0
 43 81  2  0  0  0  0
 44 67  1  0  0  0  0
 44 71  1  0  0  0  0
 44 82  2  0  0  0  0
 45 49  1  0  0  0  0
 46 56  1  0  0  0  0
 47 70  1  0  0  0  0
 48 69  1  0  0  0  0
 49 51  1  0  0  0  0
 50 52  1  0  0  0  0
 50 53  1  0  0  0  0
 51 55  1  0  0  0  0
 52 57  1  0  0  0  0
 53 71  1  0  0  0  0
 54 57  1  0  0  0  0
 54 71  1  0  0  0  0
 55 74  1  0  0  0  0
 56 70  1  0  0  0  0
 57 68  1  0  0  0  0
 58 64  1  0  0  0  0
 59 65  1  0  0  0  0
 60 65  1  0  0  0  0
 61 65  1  0  0  0  0
 62 76  1  0  0  0  0
 63 65  1  0  0  0  0
 63 75  1  0  0  0  0
 64 76  1  0  0  0  0
 66 68  1  0  0  0  0
M  CHG  1  76   1
M  ISO  4  39 101  44 100  67 100  84 101
M  END
> <Batch ID>
0082

> <Smiles>
C=C1CN(c2cccc(=[100N:0][100C:0](=O)N3CCCC(n4nc(-c5ccc(Oc6ccc(F)cc6F)cc5)c(C(N)=O)c4N)C3)cc2)C(=O)C1=[101CH:1][101O:1]c1ccc2c(c1)CN(C(=O)C(NC(=O)C(C)NC)C(C)(C)C)C(C(=O)NC1CCCc3ccccc31)C2

> <Shape>
0.287

> <Color>
0.205

> <Negative vol penalty>
0.000

$$$$

  -OEChem-04052300073D

 85 94  0     1  0  0  0  0  0999 V2000
  -26.0399  -38.2771   20.1252 C   0  0  0  0  0  0  0  0  0  0  0  0
  -26.3320  -37.1763   19.3263 C   0  0  0  0  0  0  0  0  0  0  0  0
  -23.2029   -7.8352   20.5840 C   0  0  0  0  0  0  0  0  0  0  0  0
  -24.0953   -7.9589   22.8257 C   0  0  0  0  0  0  0  0  0  0  0  0
  -29.9942  -20.1687   20.8434 C   0  0  0  0  0  0  0  0  0  0  0  0
  -28.5140  -19.3584   19.1143 C   0  0  0  0  0  0  0  0  0  0  0  0
  -26.0574  -38.1535   21.5139 C   0  0  0  0  0  0  0  0  0  0  0  0
  -26.6430  -35.9514   19.9157 C   0  0  0  0  0  0  0  0  0  0  0  0
  -25.9515  -28.9029   18.8401 C   0  0  0  0  0  0  0  0  0  0  0  0
  -29.8522  -21.4679   20.3561 C   0  0  0  0  0  0  0  0  0  0  0  0
  -28.3719  -20.6576   18.6271 C   0  0  0  0  0  0  0  0  0  0  0  0
  -23.3069   -6.4447   20.6193 C   0  0  0  0  0  0  0  0  0  0  0  0
  -24.1993   -6.5684   22.8611 C   0  0  0  0  0  0  0  0  0  0  0  0
  -26.7174  -27.7384   18.8055 C   0  0  0  0  0  0  0  0  0  0  0  0
  -22.1436   -3.9300   23.3447 C   0  0  0  0  0  0  0  0  0  0  0  0
  -21.7042   -3.2779   24.4968 C   0  0  0  0  0  0  0  0  0  0  0  0
  -26.6395  -27.6227   21.2137 C   0  0  0  0  0  0  0  0  0  0  0  0
  -23.9208   -2.3772   24.8322 C   0  0  0  0  0  0  0  0  0  0  0  0
  -23.5972   -8.5923   21.6872 C   0  0  0  0  0  0  0  0  0  0  0  0
  -29.3252  -19.1139   20.2224 C   0  0  0  0  0  0  0  0  0  0  0  0
  -22.3881  -10.8096   22.0472 C   0  0  0  0  0  0  0  0  0  0  0  0
  -26.3592  -36.9240   22.1205 C   0  0  0  0  0  0  0  0  0  0  0  0
  -25.5324  -29.4429   20.0645 C   0  0  0  0  0  0  0  0  0  0  0  0
  -26.6658  -35.8115   21.3138 C   0  0  0  0  0  0  0  0  0  0  0  0
  -25.8663  -28.7927   21.2611 C   0  0  0  0  0  0  0  0  0  0  0  0
  -29.0410  -21.7124   19.2480 C   0  0  0  0  0  0  0  0  0  0  0  0
  -23.8050   -5.8113   21.7578 C   0  0  0  0  0  0  0  0  0  0  0  0
  -27.0639  -27.0997   19.9925 C   0  0  0  0  0  0  0  0  0  0  0  0
  -23.4716   -3.8057   22.9363 C   0  0  0  0  0  0  0  0  0  0  0  0
  -22.5928   -2.5015   25.2405 C   0  0  0  0  0  0  0  0  0  0  0  0
  -24.3602   -3.0293   23.6801 C   0  0  0  0  0  0  0  0  0  0  0  0
  -23.4905  -10.0288   21.6512 C   0  0  0  0  0  0  0  0  0  0  0  0
  -22.7848  -12.1046   21.8187 C   0  0  0  0  0  0  0  0  0  0  0  0
  -30.5376  -17.2274   21.3553 C   0  0  0  0  0  0  0  0  0  0  0  0
  -29.4736  -17.7509   20.7335 C   0  0  0  0  0  0  0  0  0  0  0  0
  -28.4603  -16.6640   20.6677 C   0  0  0  0  0  0  0  0  0  0  0  0
  -27.9272  -23.7086   19.2654 C   0  0  0  0  0  0  0  0  0  0  0  0
  -21.1190  -10.4009   22.5745 C   0  0  0  0  0  0  0  0  0  0  0  0
  -26.0345  -32.1819   21.5973 C   0  0  0  0  0  0  0  0  0  0  0  0
  -23.8450  -30.9759   23.6646 C   0  0  0  0  0  0  0  0  0  0  0  0
  -22.2952  -28.2279   24.9660 C   0  0  0  0  0  0  0  0  0  0  0  0
  -28.4490  -14.2589   21.4496 C   0  0  0  0  0  0  0  0  0  0  0  0
  -26.4120  -36.8510   23.6260 C   0  0  0  0  0  0  0  0  0  0  0  0
  -24.6842  -30.6850   20.0835 C   0  0  0  0  0  0  0  0  0  0  0  0
  -25.4241  -29.3206   22.6006 C   0  0  0  0  0  0  0  0  0  0  0  0
  -30.3597  -15.8056   21.7362 C   0  0  0  0  0  0  0  0  0  0  0  0
  -26.3846  -35.4241   24.1678 C   0  0  0  0  0  0  0  0  0  0  0  0
  -25.6288  -14.7308   19.0339 C   0  0  0  0  0  0  0  0  0  0  0  0
  -27.3632  -34.5422   23.3990 C   0  0  0  0  0  0  0  0  0  0  0  0
  -24.7074  -13.5811   19.4363 C   0  0  0  0  0  0  0  0  0  0  0  0
  -27.0890  -14.3981   19.3184 C   0  0  0  0  0  0  0  0  0  0  0  0
  -26.4325  -12.8621   21.1480 C   0  0  0  0  0  0  0  0  0  0  0  0
  -26.9836  -34.4599   21.9155 C   0  0  1  0  0  0  0  0  0  0  0  0
  -24.7464  -31.4307   21.4129 C   0  0  1  0  0  0  0  0  0  0  0  0
  -24.9477  -13.1742   20.8993 C   0  0  2  0  0  0  0  0  0  0  0  0
  -20.5770  -27.5562   26.6672 C   0  0  0  0  0  0  0  0  0  0  0  0
  -25.8663  -31.4678   25.8968 C   0  0  0  0  0  0  0  0  0  0  0  0
  -24.5187  -29.9454   27.3577 C   0  0  0  0  0  0  0  0  0  0  0  0
  -23.5051  -32.0493   26.4807 C   0  0  0  0  0  0  0  0  0  0  0  0
  -20.5578  -27.0119   22.9016 C   0  0  0  0  0  0  0  0  0  0  0  0
  -27.6809  -25.1210   18.8264 C   0  0  0  0  0  0  0  0  0  1  0  0
  -23.9049  -30.1146   24.9030 C   0  0  1  0  0  0  0  0  0  0  0  0
  -20.8292  -27.9205   25.2124 C   0  0  2  0  0  0  0  0  0  0  0  0
  -24.4589  -30.8851   26.1346 C   0  0  0  0  0  0  0  0  0  0  0  0
  -24.5109  -10.7661   21.2048 N   0  0  0  0  0  0  0  0  0  0  0  0
  -28.8980  -23.0151   18.7597 N   0  0  0  0  0  0  0  0  0  0  0  0
  -24.0512  -12.0238   21.3189 N   0  0  0  0  0  0  0  0  0  0  0  0
  -29.0691  -15.4896   21.1668 N   0  0  0  0  0  0  0  0  0  0  0  0
  -24.6018  -30.5414   22.5672 N   0  0  0  0  0  0  0  0  0  0  0  0
  -27.2914  -13.9641   20.7075 N   0  0  0  0  0  0  0  0  0  0  0  0
  -22.1703  -13.2931   21.9985 N   0  0  0  0  0  0  0  0  0  0  0  0
  -20.8765   -9.0312   22.7458 N   0  0  0  0  0  0  0  0  0  0  0  0
  -25.8753  -33.5484   21.7273 N   0  0  0  0  0  0  0  0  0  0  0  0
  -22.5624  -29.5750   25.0901 N   0  0  0  0  0  0  0  0  0  0  0  0
  -20.3885  -26.7807   24.3593 N   0  3  0  0  0  0  0  0  0  0  0  0
  -27.3146  -16.8174   20.2743 O   0  0  0  0  0  0  0  0  0  0  0  0
  -20.2204  -11.2250   22.8691 O   0  0  0  0  0  0  0  0  0  0  0  0
  -27.0943  -31.5672   21.6214 O   0  0  0  0  0  0  0  0  0  0  0  0
  -23.1468  -31.9928   23.6684 O   0  0  0  0  0  0  0  0  0  0  0  0
  -23.1214  -27.3595   24.6946 O   0  0  0  0  0  0  0  0  0  0  0  0
  -28.8771  -13.5144   22.3390 O   0  0  0  0  0  0  0  0  0  0  0  0
  -23.9064   -4.4544   21.7927 O   0  0  0  0  0  0  0  0  0  0  0  0
  -27.8193  -25.9521   19.9613 O   0  0  0  0  0  0  0  0  0  1  0  0
  -22.1712   -1.8766   26.3477 F   0  0  0  0  0  0  0  0  0  0  0  0
  -25.6374   -2.9071   23.2934 F   0  0  0  0  0  0  0  0  0  0  0  0
  1  2  1  0  0  0  0
  1  7  2  0  0  0  0
  2  8  2  0  0  0  0
  3 12  2  0  0  0  0
  3 19  1  0  0  0  0
  4 13  1  0  0  0  0
  4 19  2  0  0  0  0
  5 10  2  0  0  0  0
  5 20  1  0  0  0  0
  6 11  1  0  0  0  0
  6 20  2  0  0  0  0
  7 22  1  0  0  0  0
  8 24  1  0  0  0  0
  9 14  2  0  0  0  0
  9 23  1  0  0  0  0
 10 26  1  0  0  0  0
 11 26  2  0  0  0  0
 12 27  1  0  0  0  0
 13 27  2  0  0  0  0
 14 28  1  0  0  0  0
 15 16  2  0  0  0  0
 15 29  1  0  0  0  0
 16 30  1  0  0  0  0
 17 25  1  0  0  0  0
 17 28  2  0  0  0  0
 18 30  2  0  0  0  0
 18 31  1  0  0  0  0
 19 32  1  0  0  0  0
 20 35  1  0  0  0  0
 21 32  1  0  0  0  0
 21 33  2  0  0  0  0
 21 38  1  0  0  0  0
 22 24  2  0  0  0  0
 22 43  1  0  0  0  0
 23 25  2  0  0  0  0
 23 44  1  0  0  0  0
 24 53  1  0  0  0  0
 25 45  1  0  0  0  0
 26 66  1  0  0  0  0
 27 82  1  0  0  0  0
 28 83  1  0  0  0  0
 29 31  2  0  0  0  0
 29 82  1  0  0  0  0
 30 84  1  0  0  0  0
 31 85  1  0  0  0  0
 32 65  2  0  0  0  0
 33 67  1  0  0  0  0
 33 71  1  0  0  0  0
 34 35  2  0  0  0  0
 34 46  1  0  0  0  0
 35 36  1  0  0  0  0
 36 68  1  0  0  0  0
 36 76  2  0  0  0  0
 37 61  1  0  0  0  0
 37 66  2  0  0  0  0
 38 72  1  0  0  0  0
 38 77  2  0  0  0  0
 39 54  1  0  0  0  0
 39 73  1  0  0  0  0
 39 78  2  0  0  0  0
 40 62  1  0  0  0  0
 40 69  1  0  0  0  0
 40 79  2  0  0  0  0
 41 63  1  0  0  0  0
 41 74  1  0  0  0  0
 41 80  2  0  0  0  0
 42 68  1  0  0  0  0
 42 70  1  0  0  0  0
 42 81  2  0  0  0  0
 43 47  1  0  0  0  0
 44 54  1  0  0  0  0
 45 69  1  0  0  0  0
 46 68  1  0  0  0  0
 47 49  1  0  0  0  0
 48 50  1  0  0  0  0
 48 51  1  0  0  0  0
 49 53  1  0  0  0  0
 50 55  1  0  0  0  0
 51 70  1  0  0  0  0
 52 55  1  0  0  0  0
 52 70  1  0  0  0  0
 53 73  1  0  0  0  0
 54 69  1  0  0  0  0
 55 67  1  0  0  0  0
 56 63  1  0  0  0  0
 57 64  1  0  0  0  0
 58 64  1  0  0  0  0
 59 64  1  0  0  0  0
 60 75  1  0  0  0  0
 61 83  1  0  0  0  0
 62 64  1  0  0  0  0
 62 74  1  0  0  0  0
 63 75  1  0  0  0  0
 65 67  1  0  0  0  0
M  CHG  1  75   1
M  ISO  4  42 100  61 101  68 100  83 101
M  END
> <Batch ID>
0082

> <Smiles>
CNC(C)C(=O)NC(C(=O)N1Cc2cc([101O:1][101CH:1]=CNc3ccc(C4=CC[100N:0]([100C:0](=O)N5CCCC(n6nc(-c7ccc(Oc8ccc(F)cc8F)cc7)c(C(N)=O)c6N)C5)C4=O)cc3)ccc2CC1C(=O)NC1CCCc2ccccc21)C(C)(C)C

> <Shape>
0.311

> <Color>
0.096

> <Negative vol penalty>
0.000

$$$$

  -OEChem-04052300073D

 84 93  0     1  0  0  0  0  0999 V2000
  -28.5469  -32.9746   26.1810 C   0  0  0  0  0  0  0  0  0  0  0  0
  -28.5342  -31.7580   25.5063 C   0  0  0  0  0  0  0  0  0  0  0  0
  -22.4721  -10.3592   20.5341 C   0  0  0  0  0  0  0  0  0  0  0  0
  -24.4172   -9.3581   21.5595 C   0  0  0  0  0  0  0  0  0  0  0  0
  -27.3453  -33.6032   26.5052 C   0  0  0  0  0  0  0  0  0  0  0  0
  -27.3198  -31.1688   25.1564 C   0  0  0  0  0  0  0  0  0  0  0  0
  -27.3156  -29.3976   20.4121 C   0  0  0  0  0  0  0  0  0  0  0  0
  -29.7694  -18.3012   21.4759 C   0  0  0  0  0  0  0  0  0  0  0  0
  -30.8980  -18.8521   19.4120 C   0  0  0  0  0  0  0  0  0  0  0  0
  -29.2671  -19.6005   21.5481 C   0  0  0  0  0  0  0  0  0  0  0  0
  -30.3957  -20.1513   19.4841 C   0  0  0  0  0  0  0  0  0  0  0  0
  -21.8002   -9.1398   20.6180 C   0  0  0  0  0  0  0  0  0  0  0  0
  -23.7453   -8.1386   21.6435 C   0  0  0  0  0  0  0  0  0  0  0  0
  -27.9620  -28.1834   20.1852 C   0  0  0  0  0  0  0  0  0  0  0  0
  -21.4114   -6.7141   23.6295 C   0  0  0  0  0  0  0  0  0  0  0  0
  -21.5003   -6.0081   24.8292 C   0  0  0  0  0  0  0  0  0  0  0  0
  -25.8323  -27.0508   20.2167 C   0  0  0  0  0  0  0  0  0  0  0  0
  -22.5056   -4.1480   23.6602 C   0  0  0  0  0  0  0  0  0  0  0  0
  -23.7807  -10.4684   21.0048 C   0  0  0  0  0  0  0  0  0  0  0  0
  -24.4971  -12.7549   21.8803 C   0  0  0  0  0  0  0  0  0  0  0  0
  -26.1158  -33.0261   26.1505 C   0  0  0  0  0  0  0  0  0  0  0  0
  -25.9214  -29.4462   20.5541 C   0  0  0  0  0  0  0  0  0  0  0  0
  -26.1007  -31.7896   25.4773 C   0  0  0  0  0  0  0  0  0  0  0  0
  -25.1704  -28.2673   20.4427 C   0  0  0  0  0  0  0  0  0  0  0  0
  -30.5849  -17.9270   20.4079 C   0  0  0  0  0  0  0  0  0  0  0  0
  -29.5802  -20.5255   20.5522 C   0  0  0  0  0  0  0  0  0  0  0  0
  -22.4368   -8.0295   21.1727 C   0  0  0  0  0  0  0  0  0  0  0  0
  -27.2206  -27.0093   20.0903 C   0  0  0  0  0  0  0  0  0  0  0  0
  -21.8696   -6.1370   22.4451 C   0  0  0  0  0  0  0  0  0  0  0  0
  -22.0474   -4.7251   24.8446 C   0  0  0  0  0  0  0  0  0  0  0  0
  -22.4166   -4.8540   22.4605 C   0  0  0  0  0  0  0  0  0  0  0  0
  -24.4755  -11.7277   20.9179 C   0  0  0  0  0  0  0  0  0  0  0  0
  -25.2916  -13.7283   21.3257 C   0  0  0  0  0  0  0  0  0  0  0  0
  -28.2775  -23.6362   20.6915 C   0  0  0  0  0  0  0  0  0  0  0  0
  -28.2877  -22.4326   21.5239 C   0  0  0  0  0  0  0  0  0  0  0  0
  -27.7075  -24.8359   20.8045 C   0  0  0  0  0  0  0  0  0  1  0  0
  -23.8563  -12.8229   23.1611 C   0  0  0  0  0  0  0  0  0  0  0  0
  -23.9320  -30.3065   22.8792 C   0  0  0  0  0  0  0  0  0  0  0  0
  -21.6764  -29.8150   20.6003 C   0  0  0  0  0  0  0  0  0  0  0  0
  -20.7823  -28.2612   17.6964 C   0  0  0  0  0  0  0  0  0  0  0  0
  -29.9000  -15.2704   18.5817 C   0  0  0  0  0  0  0  0  0  0  0  0
  -24.8421  -33.7198   26.5641 C   0  0  0  0  0  0  0  0  0  0  0  0
  -25.2368  -30.7677   20.7719 C   0  0  0  0  0  0  0  0  0  0  0  0
  -23.6695  -28.2684   20.5675 C   0  0  0  0  0  0  0  0  0  0  0  0
  -29.1639  -22.9226   19.6967 C   0  0  0  0  0  0  0  0  0  0  0  0
  -23.6053  -33.2130   25.8266 C   0  0  0  0  0  0  0  0  0  0  0  0
  -27.1153  -14.2111   16.6323 C   0  0  0  0  0  0  0  0  0  0  0  0
  -23.5849  -31.6879   25.8038 C   0  0  0  0  0  0  0  0  0  0  0  0
  -26.1856  -13.5502   17.6515 C   0  0  0  0  0  0  0  0  0  0  0  0
  -28.5845  -13.9458   16.9534 C   0  0  0  0  0  0  0  0  0  0  0  0
  -28.0638  -13.6442   19.3433 C   0  0  0  0  0  0  0  0  0  0  0  0
  -24.8041  -31.1310   25.0588 C   0  0  1  0  0  0  0  0  0  0  0  0
  -23.8597  -30.6287   21.4133 C   0  0  1  0  0  0  0  0  0  0  0  0
  -26.5732  -13.9303   19.0932 C   0  0  2  0  0  0  0  0  0  0  0  0
  -18.8613  -28.0251   16.0991 C   0  0  0  0  0  0  0  0  0  0  0  0
  -20.2693  -27.9585   22.5709 C   0  0  0  0  0  0  0  0  0  0  0  0
  -18.9439  -27.0428   20.6543 C   0  0  0  0  0  0  0  0  0  0  0  0
  -18.7411  -29.4514   21.2709 C   0  0  0  0  0  0  0  0  0  0  0  0
  -22.3552  -29.3876   15.4566 C   0  0  0  0  0  0  0  0  0  0  0  0
  -31.1219  -16.5378   20.3309 C   0  0  0  0  0  0  0  0  0  0  0  0
  -20.8533  -28.6331   20.1481 C   0  0  1  0  0  0  0  0  0  0  0  0
  -20.1338  -28.7895   16.4296 C   0  0  2  0  0  0  0  0  0  0  0  0
  -19.7304  -28.2708   21.1606 C   0  0  0  0  0  0  0  0  0  0  0  0
  -25.1987  -12.0213   19.8340 N   0  0  0  0  0  0  0  0  0  0  0  0
  -25.6821  -13.2441   20.1119 N   0  0  0  0  0  0  0  0  0  0  0  0
  -29.0848  -21.8069   20.6229 N   0  0  0  0  0  0  0  0  0  0  0  0
  -23.0469  -29.5845   20.7863 N   0  0  0  0  0  0  0  0  0  0  0  0
  -28.8870  -14.3293   18.3345 N   0  0  0  0  0  0  0  0  0  0  0  0
  -25.6872  -14.9428   21.7626 N   0  0  0  0  0  0  0  0  0  0  0  0
  -23.0764  -11.7351   23.5767 N   0  0  0  0  0  0  0  0  0  0  0  0
  -24.6172  -31.2441   23.6281 N   0  0  0  0  0  0  0  0  0  0  0  0
  -20.3697  -28.9600   18.8111 N   0  0  0  0  0  0  0  0  0  0  0  0
  -30.1181  -15.5824   19.9180 N   0  0  0  0  0  0  0  0  0  0  0  0
  -21.0702  -28.6639   15.2771 N   0  3  0  0  0  0  0  0  0  0  0  0
  -27.7822  -22.1131   22.5798 O   0  0  0  0  0  0  0  0  0  0  0  0
  -23.9586  -13.8258   23.9077 O   0  0  0  0  0  0  0  0  0  0  0  0
  -23.4039  -29.2838   23.2998 O   0  0  0  0  0  0  0  0  0  0  0  0
  -21.1250  -30.9046   20.7750 O   0  0  0  0  0  0  0  0  0  0  0  0
  -21.5728  -27.3201   17.6974 O   0  0  0  0  0  0  0  0  0  0  0  0
  -30.5574  -15.7979   17.6780 O   0  0  0  0  0  0  0  0  0  0  0  0
  -21.7813   -6.8394   21.2550 O   0  0  0  0  0  0  0  0  0  0  0  0
  -27.8490  -25.8226   19.8696 O   0  0  0  0  0  0  0  0  0  1  0  0
  -22.1341   -4.0480   25.9970 F   0  0  0  0  0  0  0  0  0  0  0  0
  -22.8595   -4.2948   21.3260 F   0  0  0  0  0  0  0  0  0  0  0  0
  1  2  1  0  0  0  0
  1  5  2  0  0  0  0
  2  6  2  0  0  0  0
  3 12  2  0  0  0  0
  3 19  1  0  0  0  0
  4 13  1  0  0  0  0
  4 19  2  0  0  0  0
  5 21  1  0  0  0  0
  6 23  1  0  0  0  0
  7 14  2  0  0  0  0
  7 22  1  0  0  0  0
  8 10  2  0  0  0  0
  8 25  1  0  0  0  0
  9 11  1  0  0  0  0
  9 25  2  0  0  0  0
 10 26  1  0  0  0  0
 11 26  2  0  0  0  0
 12 27  1  0  0  0  0
 13 27  2  0  0  0  0
 14 28  1  0  0  0  0
 15 16  2  0  0  0  0
 15 29  1  0  0  0  0
 16 30  1  0  0  0  0
 17 24  1  0  0  0  0
 17 28  2  0  0  0  0
 18 30  2  0  0  0  0
 18 31  1  0  0  0  0
 19 32  1  0  0  0  0
 20 32  1  0  0  0  0
 20 33  2  0  0  0  0
 20 37  1  0  0  0  0
 21 23  2  0  0  0  0
 21 42  1  0  0  0  0
 22 24  2  0  0  0  0
 22 43  1  0  0  0  0
 23 52  1  0  0  0  0
 24 44  1  0  0  0  0
 25 60  1  0  0  0  0
 26 66  1  0  0  0  0
 27 81  1  0  0  0  0
 28 82  1  0  0  0  0
 29 31  2  0  0  0  0
 29 81  1  0  0  0  0
 30 83  1  0  0  0  0
 31 84  1  0  0  0  0
 32 64  2  0  0  0  0
 33 65  1  0  0  0  0
 33 69  1  0  0  0  0
 34 35  1  0  0  0  0
 34 36  2  0  0  0  0
 34 45  1  0  0  0  0
 35 66  1  0  0  0  0
 35 75  2  0  0  0  0
 36 82  1  0  0  0  0
 37 70  1  0  0  0  0
 37 76  2  0  0  0  0
 38 53  1  0  0  0  0
 38 71  1  0  0  0  0
 38 77  2  0  0  0  0
 39 61  1  0  0  0  0
 39 67  1  0  0  0  0
 39 78  2  0  0  0  0
 40 62  1  0  0  0  0
 40 72  1  0  0  0  0
 40 79  2  0  0  0  0
 41 68  1  0  0  0  0
 41 73  1  0  0  0  0
 41 80  2  0  0  0  0
 42 46  1  0  0  0  0
 43 53  1  0  0  0  0
 44 67  1  0  0  0  0
 45 66  1  0  0  0  0
 46 48  1  0  0  0  0
 47 49  1  0  0  0  0
 47 50  1  0  0  0  0
 48 52  1  0  0  0  0
 49 54  1  0  0  0  0
 50 68  1  0  0  0  0
 51 54  1  0  0  0  0
 51 68  1  0  0  0  0
 52 71  1  0  0  0  0
 53 67  1  0  0  0  0
 54 65  1  0  0  0  0
 55 62  1  0  0  0  0
 56 63  1  0  0  0  0
 57 63  1  0  0  0  0
 58 63  1  0  0  0  0
 59 74  1  0  0  0  0
 60 73  1  0  0  0  0
 61 63  1  0  0  0  0
 61 72  1  0  0  0  0
 62 74  1  0  0  0  0
 64 65  1  0  0  0  0
M  CHG  1  74   1
M  ISO  4  36 101  41 100  73 100  82 101
M  END
> <Batch ID>
0082

> <Smiles>
CNC(C)C(=O)NC(C(=O)N1Cc2cc([101O:1][101CH:1]=C3CN(c4ccc(C[100NH:0][100C:0](=O)N5CCCC(n6nc(-c7ccc(Oc8ccc(F)cc8F)cc7)c(C(N)=O)c6N)C5)cc4)C3=O)ccc2CC1C(=O)NC1CCCc2ccccc21)C(C)(C)C

> <Shape>
0.355

> <Color>
0.137

> <Negative vol penalty>
0.000

$$$$

  -OEChem-04052300073D

 84 93  0     1  0  0  0  0  0999 V2000
  -32.5423  -16.5280   22.8573 C   0  0  0  0  0  0  0  0  0  0  0  0
  -31.5629  -17.3956   22.3847 C   0  0  0  0  0  0  0  0  0  0  0  0
  -25.5627  -27.7095   21.2112 C   0  0  0  0  0  0  0  0  0  0  0  0
  -26.7781  -28.9650   19.5428 C   0  0  0  0  0  0  0  0  0  0  0  0
  -32.3960  -15.1524   22.6838 C   0  0  0  0  0  0  0  0  0  0  0  0
  -30.4370  -16.8881   21.7373 C   0  0  0  0  0  0  0  0  0  0  0  0
  -26.0703  -19.0829   23.3518 C   0  0  0  0  0  0  0  0  0  0  0  0
  -24.3919  -28.3846   20.8664 C   0  0  0  0  0  0  0  0  0  0  0  0
  -25.6073  -29.6401   19.1979 C   0  0  0  0  0  0  0  0  0  0  0  0
  -25.7491  -20.3514   22.8707 C   0  0  0  0  0  0  0  0  0  0  0  0
  -21.1572  -30.0345   20.6713 C   0  0  0  0  0  0  0  0  0  0  0  0
  -20.3516  -30.5091   21.7064 C   0  0  0  0  0  0  0  0  0  0  0  0
  -24.2849  -19.3533   21.2342 C   0  0  0  0  0  0  0  0  0  0  0  0
  -26.8625  -25.2517   16.5200 C   0  0  0  0  0  0  0  0  0  0  0  0
  -22.1786  -31.8754   22.5018 C   0  0  0  0  0  0  0  0  0  0  0  0
  -26.3360  -24.5886   14.3555 C   0  0  0  0  0  0  0  0  0  0  0  0
  -26.7559  -27.9997   20.5494 C   0  0  0  0  0  0  0  0  0  0  0  0
  -28.5974  -27.2848   22.1636 C   0  0  0  0  0  0  0  0  0  0  0  0
  -31.2631  -14.6271   22.0424 C   0  0  0  0  0  0  0  0  0  0  0  0
  -25.5084  -17.9371   22.7703 C   0  0  0  0  0  0  0  0  0  0  0  0
  -30.2760  -15.5042   21.5538 C   0  0  0  0  0  0  0  0  0  0  0  0
  -24.5970  -18.0718   21.7130 C   0  0  0  0  0  0  0  0  0  0  0  0
  -25.8402  -24.8444   15.6150 C   0  0  0  0  0  0  0  0  0  0  0  0
  -24.4141  -29.3499   19.8598 C   0  0  0  0  0  0  0  0  0  0  0  0
  -24.8581  -20.4866   21.8102 C   0  0  0  0  0  0  0  0  0  0  0  0
  -22.4735  -30.4803   20.5515 C   0  0  0  0  0  0  0  0  0  0  0  0
  -20.8623  -31.4295   22.6216 C   0  0  0  0  0  0  0  0  0  0  0  0
  -22.9842  -31.4007   21.4668 C   0  0  0  0  0  0  0  0  0  0  0  0
  -27.9658  -27.3030   20.9056 C   0  0  0  0  0  0  0  0  0  0  0  0
  -28.1008  -25.2920   15.9176 C   0  0  0  0  0  0  0  0  0  0  0  0
  -29.7004  -26.4866   21.9825 C   0  0  0  0  0  0  0  0  0  0  0  0
  -24.1018  -22.8610   19.3076 C   0  0  0  0  0  0  0  0  0  0  0  0
  -24.8231  -22.0050   20.0314 C   0  0  0  0  0  0  0  0  0  1  0  0
  -28.2207  -27.9315   23.3865 C   0  0  0  0  0  0  0  0  0  0  0  0
  -29.3972  -25.6583   16.5014 C   0  0  0  0  0  0  0  0  0  0  0  0
  -24.4919  -23.0961   17.8961 C   0  0  0  0  0  0  0  0  0  0  0  0
  -26.5962  -15.3272   21.2701 C   0  0  0  0  0  0  0  0  0  0  0  0
  -23.3754  -14.5210   21.4430 C   0  0  0  0  0  0  0  0  0  0  0  0
  -24.1803  -11.3240   20.5646 C   0  0  0  0  0  0  0  0  0  0  0  0
  -31.1717  -13.1359   21.8361 C   0  0  0  0  0  0  0  0  0  0  0  0
  -25.8449  -16.5791   23.3242 C   0  0  0  0  0  0  0  0  0  0  0  0
  -23.9642  -16.8740   21.0576 C   0  0  0  0  0  0  0  0  0  0  0  0
  -29.7691  -12.6562   21.4718 C   0  0  0  0  0  0  0  0  0  0  0  0
  -23.6207  -26.6376   17.2303 C   0  0  0  0  0  0  0  0  0  0  0  0
  -29.2496  -23.1906   19.2472 C   0  0  0  0  0  0  0  0  0  0  0  0
  -23.5939  -26.0169   15.8367 C   0  0  0  0  0  0  0  0  0  0  0  0
  -29.1675  -13.5418   20.3852 C   0  0  0  0  0  0  0  0  0  0  0  0
  -30.3393  -23.7028   20.1846 C   0  0  0  0  0  0  0  0  0  0  0  0
  -29.5969  -23.4798   17.7929 C   0  0  0  0  0  0  0  0  0  0  0  0
  -23.5596  -25.4301   18.1531 C   0  0  0  0  0  0  0  0  0  0  0  0
  -30.8823  -25.4979   18.4650 C   0  0  0  0  0  0  0  0  0  0  0  0
  -24.3760  -24.7085   15.9960 C   0  0  2  0  0  0  0  0  0  0  0  0
  -29.0285  -14.9905   20.8683 C   0  0  1  0  0  0  0  0  0  0  0  0
  -25.5598  -15.4359   22.3524 C   0  0  1  0  0  0  0  0  0  0  0  0
  -30.6611  -25.1907   19.9596 C   0  0  1  0  0  0  0  0  0  0  0  0
  -23.1893   -9.0271   20.3654 C   0  0  0  0  0  0  0  0  0  0  0  0
  -23.4895  -14.2123   24.4757 C   0  0  0  0  0  0  0  0  0  0  0  0
  -23.4309  -11.7301   24.1545 C   0  0  0  0  0  0  0  0  0  0  0  0
  -21.5132  -13.1304   23.3903 C   0  0  0  0  0  0  0  0  0  0  0  0
  -24.7291  -11.2130   17.6585 C   0  0  0  0  0  0  0  0  0  0  0  0
  -23.6905  -13.2041   22.1073 C   0  0  1  0  0  0  0  0  0  0  0  0
  -23.4966  -10.3298   19.6434 C   0  0  2  0  0  0  0  0  0  0  0  0
  -23.0513  -13.0849   23.5197 C   0  0  0  0  0  0  0  0  0  0  0  0
  -28.6137  -26.5744   19.9927 N   0  0  0  0  0  0  0  0  0  0  0  0
  -29.6640  -26.0909   20.6778 N   0  0  0  0  0  0  0  0  0  0  0  0
  -29.8752  -24.9050   17.5808 N   0  0  0  0  0  0  0  0  0  0  0  0
  -24.2009  -24.3521   17.4053 N   0  0  0  0  0  0  0  0  0  0  0  0
  -24.2585  -15.5804   21.6877 N   0  0  0  0  0  0  0  0  0  0  0  0
  -30.6881  -26.0916   22.8136 N   0  0  0  0  0  0  0  0  0  0  0  0
  -27.0585  -28.7147   23.3976 N   0  0  0  0  0  0  0  0  0  0  0  0
  -27.8802  -15.1250   21.7389 N   0  0  0  0  0  0  0  0  0  0  0  0
  -23.2723  -12.1649   21.1726 N   0  0  0  0  0  0  0  0  0  0  0  0
  -24.3674  -10.0245   18.4731 N   0  3  0  0  0  0  0  0  0  0  0  0
  -28.9038  -27.8316   24.4338 O   0  0  0  0  0  0  0  0  0  0  0  0
  -29.9653  -26.6253   15.9956 O   0  0  0  0  0  0  0  0  0  0  0  0
  -25.0253  -22.1623   17.3141 O   0  0  0  0  0  0  0  0  0  0  0  0
  -26.2559  -15.4184   20.0964 O   0  0  0  0  0  0  0  0  0  0  0  0
  -22.3705  -14.6126   20.7324 O   0  0  0  0  0  0  0  0  0  0  0  0
  -25.3977  -11.3495   20.7313 O   0  0  0  0  0  0  0  0  0  0  0  0
  -23.2718  -30.0088   19.5229 O   0  0  0  0  0  0  0  0  0  0  0  0
  -24.5424  -21.7236   21.3390 O   0  0  0  0  0  0  0  0  0  1  0  0
  -20.0881  -31.8863   23.6147 F   0  0  0  0  0  0  0  0  0  0  0  0
  -24.2476  -31.8335   21.3561 F   0  0  0  0  0  0  0  0  0  0  0  0
  -28.0276  -24.8395   14.2677 S   0  0  0  0  0  0  0  0  0  0  0  0
  1  2  1  0  0  0  0
  1  5  2  0  0  0  0
  2  6  2  0  0  0  0
  3  8  2  0  0  0  0
  3 17  1  0  0  0  0
  4  9  1  0  0  0  0
  4 17  2  0  0  0  0
  5 19  1  0  0  0  0
  6 21  1  0  0  0  0
  7 10  2  0  0  0  0
  7 20  1  0  0  0  0
  8 24  1  0  0  0  0
  9 24  2  0  0  0  0
 10 25  1  0  0  0  0
 11 12  2  0  0  0  0
 11 26  1  0  0  0  0
 12 27  1  0  0  0  0
 13 22  1  0  0  0  0
 13 25  2  0  0  0  0
 14 23  1  0  0  0  0
 14 30  2  0  0  0  0
 15 27  2  0  0  0  0
 15 28  1  0  0  0  0
 16 23  2  0  0  0  0
 16 84  1  0  0  0  0
 17 29  1  0  0  0  0
 18 29  1  0  0  0  0
 18 31  2  0  0  0  0
 18 34  1  0  0  0  0
 19 21  2  0  0  0  0
 19 40  1  0  0  0  0
 20 22  2  0  0  0  0
 20 41  1  0  0  0  0
 21 53  1  0  0  0  0
 22 42  1  0  0  0  0
 23 52  1  0  0  0  0
 24 80  1  0  0  0  0
 25 81  1  0  0  0  0
 26 28  2  0  0  0  0
 26 80  1  0  0  0  0
 27 82  1  0  0  0  0
 28 83  1  0  0  0  0
 29 64  2  0  0  0  0
 30 35  1  0  0  0  0
 30 84  1  0  0  0  0
 31 65  1  0  0  0  0
 31 69  1  0  0  0  0
 32 33  2  0  0  0  0
 32 36  1  0  0  0  0
 33 81  1  0  0  0  0
 34 70  1  0  0  0  0
 34 74  2  0  0  0  0
 35 66  1  0  0  0  0
 35 75  2  0  0  0  0
 36 67  1  0  0  0  0
 36 76  2  0  0  0  0
 37 54  1  0  0  0  0
 37 71  1  0  0  0  0
 37 77  2  0  0  0  0
 38 61  1  0  0  0  0
 38 68  1  0  0  0  0
 38 78  2  0  0  0  0
 39 62  1  0  0  0  0
 39 72  1  0  0  0  0
 39 79  2  0  0  0  0
 40 43  1  0  0  0  0
 41 54  1  0  0  0  0
 42 68  1  0  0  0  0
 43 47  1  0  0  0  0
 44 46  1  0  0  0  0
 44 50  1  0  0  0  0
 45 48  1  0  0  0  0
 45 49  1  0  0  0  0
 46 52  1  0  0  0  0
 47 53  1  0  0  0  0
 48 55  1  0  0  0  0
 49 66  1  0  0  0  0
 50 67  1  0  0  0  0
 51 55  1  0  0  0  0
 51 66  1  0  0  0  0
 52 67  1  0  0  0  0
 53 71  1  0  0  0  0
 54 68  1  0  0  0  0
 55 65  1  0  0  0  0
 56 62  1  0  0  0  0
 57 63  1  0  0  0  0
 58 63  1  0  0  0  0
 59 63  1  0  0  0  0
 60 73  1  0  0  0  0
 61 63  1  0  0  0  0
 61 72  1  0  0  0  0
 62 73  1  0  0  0  0
 64 65  1  0  0  0  0
M  CHG  1  73   1
M  ISO  4  30 100  33 101  35 100  81 101
M  END
> <Batch ID>
0082

> <Smiles>
CNC(C)C(=O)NC(C(=O)N1Cc2cc([101O:1][101CH:1]=CC(=O)N3CCCC3c3cs[100c:0]([100C:0](=O)N4CCCC(n5nc(-c6ccc(Oc7ccc(F)cc7F)cc6)c(C(N)=O)c5N)C4)c3)ccc2CC1C(=O)NC1CCCc2ccccc21)C(C)(C)C

> <Shape>
0.215

> <Color>
0.074

> <Negative vol penalty>
0.000

$$$$

  -OEChem-04052300073D

 85 94  0     1  0  0  0  0  0999 V2000
  -22.6842  -11.5916   18.4367 C   0  0  0  0  0  0  0  0  0  0  0  0
  -22.3444  -12.9396   18.4891 C   0  0  0  0  0  0  0  0  0  0  0  0
  -27.6276  -25.9116   21.7138 C   0  0  0  0  0  0  0  0  0  0  0  0
  -29.4993  -27.4308   21.8740 C   0  0  0  0  0  0  0  0  0  0  0  0
  -23.7635  -11.1166   19.1806 C   0  0  0  0  0  0  0  0  0  0  0  0
  -23.0831  -13.8133   19.2863 C   0  0  0  0  0  0  0  0  0  0  0  0
  -24.3624  -19.6849   18.1059 C   0  0  0  0  0  0  0  0  0  0  0  0
  -28.3278  -25.1472   20.7806 C   0  0  0  0  0  0  0  0  0  0  0  0
  -30.1996  -26.6663   20.9408 C   0  0  0  0  0  0  0  0  0  0  0  0
  -23.7826  -20.8766   18.5388 C   0  0  0  0  0  0  0  0  0  0  0  0
  -30.2425  -26.2563   17.5851 C   0  0  0  0  0  0  0  0  0  0  0  0
  -30.9074  -26.9320   16.5619 C   0  0  0  0  0  0  0  0  0  0  0  0
  -20.5626  -27.6488   22.1613 C   0  0  0  0  0  0  0  0  0  0  0  0
  -18.5318  -28.4922   23.1618 C   0  0  0  0  0  0  0  0  0  0  0  0
  -25.4503  -21.0508   20.2731 C   0  0  0  0  0  0  0  0  0  0  0  0
  -18.7052  -26.1575   22.5650 C   0  0  0  0  0  0  0  0  0  0  0  0
  -33.0058  -25.9940   17.3061 C   0  0  0  0  0  0  0  0  0  0  0  0
  -28.2133  -27.0534   22.2605 C   0  0  0  0  0  0  0  0  0  0  0  0
  -19.8279  -28.7082   22.6937 C   0  0  0  0  0  0  0  0  0  0  0  0
  -27.4945  -27.6912   24.6236 C   0  0  0  0  0  0  0  0  0  0  0  0
  -24.5218  -11.9866   19.9798 C   0  0  0  0  0  0  0  0  0  0  0  0
  -25.4858  -19.1606   18.7612 C   0  0  0  0  0  0  0  0  0  0  0  0
  -24.1727  -13.3492   20.0426 C   0  0  0  0  0  0  0  0  0  0  0  0
  -26.0440  -19.8536   19.8449 C   0  0  0  0  0  0  0  0  0  0  0  0
  -20.0013  -26.3735   22.0969 C   0  0  0  0  0  0  0  0  0  0  0  0
  -17.9704  -27.2169   23.0975 C   0  0  0  0  0  0  0  0  0  0  0  0
  -29.6139  -25.5245   20.3941 C   0  0  0  0  0  0  0  0  0  0  0  0
  -24.3248  -21.5582   19.6244 C   0  0  0  0  0  0  0  0  0  0  0  0
  -30.9593  -25.4495   18.4689 C   0  0  0  0  0  0  0  0  0  0  0  0
  -32.2891  -26.8008   16.4224 C   0  0  0  0  0  0  0  0  0  0  0  0
  -32.3409  -25.3183   18.3294 C   0  0  0  0  0  0  0  0  0  0  0  0
  -27.4902  -27.8438   23.2241 C   0  0  0  0  0  0  0  0  0  0  0  0
  -26.6553  -28.6785   25.0792 C   0  0  0  0  0  0  0  0  0  0  0  0
  -21.7990  -23.7784   20.9025 C   0  0  0  0  0  0  0  0  0  0  0  0
  -20.4397  -24.0155   21.3900 C   0  0  0  0  0  0  0  0  0  0  0  0
  -20.4209  -30.0555   22.7623 C   0  0  0  0  0  0  0  0  0  0  0  0
  -22.4581  -22.6911   20.4627 C   0  0  0  0  0  0  0  0  0  1  0  0
  -28.1945  -26.7420   25.4388 C   0  0  0  0  0  0  0  0  0  0  0  0
  -26.1045  -16.4830   20.3586 C   0  0  0  0  0  0  0  0  0  0  0  0
  -29.1284  -17.6568   20.3824 C   0  0  0  0  0  0  0  0  0  0  0  0
  -31.1824  -20.3758   20.1943 C   0  0  0  0  0  0  0  0  0  0  0  0
  -22.1118  -31.5811   22.4381 C   0  0  0  0  0  0  0  0  0  0  0  0
  -25.6505  -11.4181   20.8029 C   0  0  0  0  0  0  0  0  0  0  0  0
  -26.1155  -17.8879   18.2652 C   0  0  0  0  0  0  0  0  0  0  0  0
  -27.2616  -19.3436   20.5700 C   0  0  0  0  0  0  0  0  0  0  0  0
  -22.1013  -25.2441   21.1144 C   0  0  0  0  0  0  0  0  0  0  0  0
  -26.6133  -12.4784   21.3310 C   0  0  0  0  0  0  0  0  0  0  0  0
  -25.0329  -33.0345   23.9742 C   0  0  0  0  0  0  0  0  0  0  0  0
  -25.8413  -13.6484   21.9326 C   0  0  0  0  0  0  0  0  0  0  0  0
  -26.0060  -31.8582   24.0514 C   0  0  0  0  0  0  0  0  0  0  0  0
  -24.1685  -32.9647   22.7190 C   0  0  0  0  0  0  0  0  0  0  0  0
  -24.3960  -30.4966   22.6465 C   0  0  0  0  0  0  0  0  0  0  0  0
  -24.9651  -14.3326   20.8764 C   0  0  1  0  0  0  0  0  0  0  0  0
  -26.9486  -17.1794   19.3289 C   0  0  1  0  0  0  0  0  0  0  0  0
  -25.2636  -30.5167   23.9166 C   0  0  1  0  0  0  0  0  0  0  0  0
  -33.6049  -21.0245   20.2839 C   0  0  0  0  0  0  0  0  0  0  0  0
  -29.1093  -17.3001   23.4126 C   0  0  0  0  0  0  0  0  0  0  0  0
  -31.1053  -18.8066   23.5327 C   0  0  0  0  0  0  0  0  0  0  0  0
  -31.2499  -16.6437   22.2984 C   0  0  0  0  0  0  0  0  0  0  0  0
  -31.1105  -21.4711   17.4458 C   0  0  0  0  0  0  0  0  0  0  0  0
  -29.9208  -18.5512   21.3050 C   0  0  1  0  0  0  0  0  0  0  0  0
  -32.4414  -20.6331   19.3862 C   0  0  2  0  0  0  0  0  0  0  0  0
  -30.3222  -17.8343   22.6250 C   0  0  0  0  0  0  0  0  0  0  0  0
  -26.7100  -28.8487   22.8174 N   0  0  0  0  0  0  0  0  0  0  0  0
  -21.6200  -30.2934   22.3415 N   0  0  0  0  0  0  0  0  0  0  0  0
  -26.2162  -29.3365   23.9681 N   0  0  0  0  0  0  0  0  0  0  0  0
  -20.7258  -25.3284   21.5724 N   0  0  0  0  0  0  0  0  0  0  0  0
  -27.8373  -18.0918   20.0513 N   0  0  0  0  0  0  0  0  0  0  0  0
  -23.5060  -31.6645   22.6081 N   0  0  0  0  0  0  0  0  0  0  0  0
  -16.6601  -26.9982   23.5710 N   0  0  0  0  0  0  0  0  0  0  0  0
  -26.2574  -29.0392   26.3177 N   0  0  0  0  0  0  0  0  0  0  0  0
  -29.0149  -25.7965   24.8086 N   0  0  0  0  0  0  0  0  0  0  0  0
  -25.7697  -15.1841   20.0267 N   0  0  0  0  0  0  0  0  0  0  0  0
  -31.0510  -19.0436   20.5249 N   0  0  0  0  0  0  0  0  0  0  0  0
  -32.2127  -21.7329   18.4069 N   0  3  0  0  0  0  0  0  0  0  0  0
  -19.4589  -23.3247   21.5724 O   0  0  0  0  0  0  0  0  0  0  0  0
  -28.0826  -26.7222   26.6881 O   0  0  0  0  0  0  0  0  0  0  0  0
  -25.7821  -17.0796   21.3793 O   0  0  0  0  0  0  0  0  0  0  0  0
  -29.6389  -16.6144   19.9650 O   0  0  0  0  0  0  0  0  0  0  0  0
  -30.3961  -21.2680   20.5045 O   0  0  0  0  0  0  0  0  0  0  0  0
  -21.4081  -32.5921   22.3775 O   0  0  0  0  0  0  0  0  0  0  0  0
  -30.2976  -24.7787   19.4837 O   0  0  0  0  0  0  0  0  0  0  0  0
  -23.7604  -22.7213   20.0495 O   0  0  0  0  0  0  0  0  0  1  0  0
  -32.9272  -27.4485   15.4389 F   0  0  0  0  0  0  0  0  0  0  0  0
  -33.0347  -24.5437   19.1746 F   0  0  0  0  0  0  0  0  0  0  0  0
  1  2  1  0  0  0  0
  1  5  2  0  0  0  0
  2  6  2  0  0  0  0
  3  8  2  0  0  0  0
  3 18  1  0  0  0  0
  4  9  1  0  0  0  0
  4 18  2  0  0  0  0
  5 21  1  0  0  0  0
  6 23  1  0  0  0  0
  7 10  2  0  0  0  0
  7 22  1  0  0  0  0
  8 27  1  0  0  0  0
  9 27  2  0  0  0  0
 10 28  1  0  0  0  0
 11 12  2  0  0  0  0
 11 29  1  0  0  0  0
 12 30  1  0  0  0  0
 13 19  1  0  0  0  0
 13 25  2  0  0  0  0
 14 19  2  0  0  0  0
 14 26  1  0  0  0  0
 15 24  1  0  0  0  0
 15 28  2  0  0  0  0
 16 25  1  0  0  0  0
 16 26  2  0  0  0  0
 17 30  2  0  0  0  0
 17 31  1  0  0  0  0
 18 32  1  0  0  0  0
 19 36  1  0  0  0  0
 20 32  1  0  0  0  0
 20 33  2  0  0  0  0
 20 38  1  0  0  0  0
 21 23  2  0  0  0  0
 21 43  1  0  0  0  0
 22 24  2  0  0  0  0
 22 44  1  0  0  0  0
 23 53  1  0  0  0  0
 24 45  1  0  0  0  0
 25 67  1  0  0  0  0
 26 70  1  0  0  0  0
 27 82  1  0  0  0  0
 28 83  1  0  0  0  0
 29 31  2  0  0  0  0
 29 82  1  0  0  0  0
 30 84  1  0  0  0  0
 31 85  1  0  0  0  0
 32 64  2  0  0  0  0
 33 66  1  0  0  0  0
 33 71  1  0  0  0  0
 34 35  1  0  0  0  0
 34 37  2  0  0  0  0
 34 46  1  0  0  0  0
 35 67  1  0  0  0  0
 35 76  2  0  0  0  0
 36 65  2  0  0  0  0
 37 83  1  0  0  0  0
 38 72  1  0  0  0  0
 38 77  2  0  0  0  0
 39 54  1  0  0  0  0
 39 73  1  0  0  0  0
 39 78  2  0  0  0  0
 40 61  1  0  0  0  0
 40 68  1  0  0  0  0
 40 79  2  0  0  0  0
 41 62  1  0  0  0  0
 41 74  1  0  0  0  0
 41 80  2  0  0  0  0
 42 65  1  0  0  0  0
 42 69  1  0  0  0  0
 42 81  2  0  0  0  0
 43 47  1  0  0  0  0
 44 54  1  0  0  0  0
 45 68  1  0  0  0  0
 46 67  1  0  0  0  0
 47 49  1  0  0  0  0
 48 50  1  0  0  0  0
 48 51  1  0  0  0  0
 49 53  1  0  0  0  0
 50 55  1  0  0  0  0
 51 69  1  0  0  0  0
 52 55  1  0  0  0  0
 52 69  1  0  0  0  0
 53 73  1  0  0  0  0
 54 68  1  0  0  0  0
 55 66  1  0  0  0  0
 56 62  1  0  0  0  0
 57 63  1  0  0  0  0
 58 63  1  0  0  0  0
 59 63  1  0  0  0  0
 60 75  1  0  0  0  0
 61 63  1  0  0  0  0
 61 74  1  0  0  0  0
 62 75  1  0  0  0  0
 64 66  1  0  0  0  0
M  CHG  1  75   1
M  ISO  4  37 101  42 100  65 100  83 101
M  END
> <Batch ID>
0082

> <Smiles>
CNC(C)C(=O)NC(C(=O)N1Cc2cc([101O:1][101CH:1]=C3CN(c4cc(N)cc(C=[100N:0][100C:0](=O)N5CCCC(n6nc(-c7ccc(Oc8ccc(F)cc8F)cc7)c(C(N)=O)c6N)C5)c4)C3=O)ccc2CC1C(=O)NC1CCCc2ccccc21)C(C)(C)C

> <Shape>
0.229

> <Color>
0.072

> <Negative vol penalty>
0.000

$$$$

  -OEChem-04052300073D

 88 98  0     1  0  0  0  0  0999 V2000
  -22.3627   -8.6343   20.7451 C   0  0  0  0  0  0  0  0  0  0  0  0
  -22.0082   -9.9264   21.1198 C   0  0  0  0  0  0  0  0  0  0  0  0
  -22.8342  -23.6912   29.7594 C   0  0  0  0  0  0  0  0  0  0  0  0
  -26.1919  -27.4951   22.2787 C   0  0  0  0  0  0  0  0  0  0  0  0
  -25.5419  -28.5170   20.1882 C   0  0  0  0  0  0  0  0  0  0  0  0
  -23.6975   -8.2354   20.7999 C   0  0  0  0  0  0  0  0  0  0  0  0
  -22.9882  -10.8199   21.5505 C   0  0  0  0  0  0  0  0  0  0  0  0
  -23.1220  -16.8704   20.6124 C   0  0  0  0  0  0  0  0  0  0  0  0
  -22.2331  -24.8951   29.3921 C   0  0  0  0  0  0  0  0  0  0  0  0
  -23.0558  -22.7015   28.8017 C   0  0  0  0  0  0  0  0  0  0  0  0
  -27.0090  -26.6006   21.5874 C   0  0  0  0  0  0  0  0  0  0  0  0
  -26.3591  -27.6225   19.4969 C   0  0  0  0  0  0  0  0  0  0  0  0
  -22.7607  -17.9521   21.4144 C   0  0  0  0  0  0  0  0  0  0  0  0
  -26.6344  -23.7577   19.7981 C   0  0  0  0  0  0  0  0  0  0  0  0
  -26.5800  -22.4136   20.1668 C   0  0  0  0  0  0  0  0  0  0  0  0
  -25.0570  -18.1930   22.1133 C   0  0  0  0  0  0  0  0  0  0  0  0
  -22.0749  -24.1196   27.1094 C   0  0  0  0  0  0  0  0  0  0  0  0
  -28.9325  -22.4685   20.7143 C   0  0  0  0  0  0  0  0  0  0  0  0
  -20.3497  -26.4559   26.6881 C   0  0  0  0  0  0  0  0  0  0  0  0
  -21.4869  -27.5152   28.3006 C   0  0  0  0  0  0  0  0  0  0  0  0
  -25.4583  -28.4532   21.5791 C   0  0  0  0  0  0  0  0  0  0  0  0
  -19.9938  -27.7855   26.6368 C   0  0  0  0  0  0  0  0  0  0  0  0
  -24.9729  -30.6408   22.7983 C   0  0  0  0  0  0  0  0  0  0  0  0
  -24.6957   -9.1275   21.2222 C   0  0  0  0  0  0  0  0  0  0  0  0
  -24.4538  -16.4343   20.5632 C   0  0  0  0  0  0  0  0  0  0  0  0
  -24.3375  -10.4321   21.6122 C   0  0  0  0  0  0  0  0  0  0  0  0
  -25.4330  -17.1072   21.3079 C   0  0  0  0  0  0  0  0  0  0  0  0
  -21.8534  -25.1093   28.0671 C   0  0  0  0  0  0  0  0  0  0  0  0
  -22.6761  -22.9157   27.4767 C   0  0  0  0  0  0  0  0  0  0  0  0
  -27.0926  -26.6643   20.1965 C   0  0  0  0  0  0  0  0  0  0  0  0
  -23.7278  -18.6118   22.1672 C   0  0  0  0  0  0  0  0  0  0  0  0
  -27.8379  -24.4572   19.8874 C   0  0  0  0  0  0  0  0  0  0  0  0
  -20.7132  -28.4557   27.6570 C   0  0  0  0  0  0  0  0  0  0  0  0
  -27.7290  -21.7690   20.6249 C   0  0  0  0  0  0  0  0  0  0  0  0
  -28.9869  -23.8127   20.3455 C   0  0  0  0  0  0  0  0  0  0  0  0
  -24.6136  -29.3771   22.2925 C   0  0  0  0  0  0  0  0  0  0  0  0
  -23.8252  -31.1145   23.3857 C   0  0  0  0  0  0  0  0  0  0  0  0
  -23.3068  -20.5474   25.1560 C   0  0  0  0  0  0  0  0  0  0  0  0
  -23.4452  -20.7022   26.6045 C   0  0  0  0  0  0  0  0  0  0  0  0
  -23.6092  -19.5755   24.2951 C   0  0  0  0  0  0  0  0  0  1  0  0
  -19.0375  -28.3528   25.6774 C   0  0  0  0  0  0  0  0  0  0  0  0
  -26.2314  -31.3253   22.7421 C   0  0  0  0  0  0  0  0  0  0  0  0
  -25.9605  -13.7382   21.3146 C   0  0  0  0  0  0  0  0  0  0  0  0
  -28.5074  -15.2508   19.9925 C   0  0  0  0  0  0  0  0  0  0  0  0
  -30.0106  -18.1965   19.1500 C   0  0  0  0  0  0  0  0  0  0  0  0
  -26.1189   -8.6360   21.3098 C   0  0  0  0  0  0  0  0  0  0  0  0
  -24.8318  -15.2827   19.6725 C   0  0  0  0  0  0  0  0  0  0  0  0
  -26.8801  -16.6910   21.2743 C   0  0  0  0  0  0  0  0  0  0  0  0
  -22.6969  -21.9290   25.0940 C   0  0  0  0  0  0  0  0  0  0  0  0
  -27.1457   -9.7600   21.4207 C   0  0  0  0  0  0  0  0  0  0  0  0
  -19.0576  -30.8137   23.0918 C   0  0  0  0  0  0  0  0  0  0  0  0
  -26.7043  -10.7857   22.4599 C   0  0  0  0  0  0  0  0  0  0  0  0
  -20.5146  -30.8305   22.6260 C   0  0  0  0  0  0  0  0  0  0  0  0
  -18.6076  -29.4086   23.4842 C   0  0  0  0  0  0  0  0  0  0  0  0
  -20.9309  -28.7610   24.0205 C   0  0  0  0  0  0  0  0  0  0  0  0
  -25.3750  -11.4381   22.0612 C   0  0  1  0  0  0  0  0  0  0  0  0
  -26.1291  -14.6006   20.0959 C   0  0  1  0  0  0  0  0  0  0  0  0
  -21.4397  -30.1674   23.6638 C   0  0  1  0  0  0  0  0  0  0  0  0
  -32.1051  -19.1143   18.1165 C   0  0  0  0  0  0  0  0  0  0  0  0
  -30.0299  -14.6757   22.5734 C   0  0  0  0  0  0  0  0  0  0  0  0
  -31.7159  -16.3915   21.8790 C   0  0  0  0  0  0  0  0  0  0  0  0
  -31.3633  -14.3551   20.4821 C   0  0  0  0  0  0  0  0  0  0  0  0
  -28.5026  -19.4721   16.9460 C   0  0  0  0  0  0  0  0  0  0  0  0
  -29.5952  -16.1620   20.5075 C   0  0  1  0  0  0  0  0  0  0  0  0
  -30.6768  -18.6562   17.8658 C   0  0  2  0  0  0  0  0  0  0  0  0
  -30.6486  -15.4030   21.3629 C   0  0  0  0  0  0  0  0  0  0  0  0
  -23.3376  -29.0675   22.5373 N   0  0  0  0  0  0  0  0  0  0  0  0
  -21.2578  -26.3031   27.7033 N   0  0  0  0  0  0  0  0  0  0  0  0
  -22.8851  -30.1434   23.2035 N   0  0  0  0  0  0  0  0  0  0  0  0
  -22.8943  -21.9392   26.5328 N   0  0  0  0  0  0  0  0  0  0  0  0
  -19.5289  -28.8231   24.4573 N   0  0  0  0  0  0  0  0  0  0  0  0
  -27.1987  -15.5555   20.3931 N   0  0  0  0  0  0  0  0  0  0  0  0
  -23.5387  -32.2627   24.0353 N   0  0  0  0  0  0  0  0  0  0  0  0
  -27.3066  -30.6953   22.1007 N   0  0  0  0  0  0  0  0  0  0  0  0
  -25.5896  -12.4366   21.0359 N   0  0  0  0  0  0  0  0  0  0  0  0
  -30.1489  -16.8377   19.3390 N   0  0  0  0  0  0  0  0  0  0  0  0
  -29.9181  -19.7899   17.2658 N   0  3  0  0  0  0  0  0  0  0  0  0
  -23.8841  -20.0167   27.5045 O   0  0  0  0  0  0  0  0  0  0  0  0
  -17.8608  -28.3805   26.0348 O   0  0  0  0  0  0  0  0  0  0  0  0
  -26.4021  -32.4549   23.2601 O   0  0  0  0  0  0  0  0  0  0  0  0
  -26.1542  -14.2177   22.4256 O   0  0  0  0  0  0  0  0  0  0  0  0
  -28.8069  -14.3077   19.2560 O   0  0  0  0  0  0  0  0  0  0  0  0
  -29.4291  -18.9664   19.9114 O   0  0  0  0  0  0  0  0  0  0  0  0
  -20.6806  -29.7577   27.9750 O   0  0  0  0  0  0  0  0  0  0  0  0
  -27.8901  -25.7918   19.5217 O   0  0  0  0  0  0  0  0  0  0  0  0
  -23.3778  -19.6675   22.9513 O   0  0  0  0  0  0  0  0  0  1  0  0
  -27.6763  -20.4786   20.9804 F   0  0  0  0  0  0  0  0  0  0  0  0
  -30.1457  -24.4798   20.4345 F   0  0  0  0  0  0  0  0  0  0  0  0
  1  2  1  0  0  0  0
  1  6  2  0  0  0  0
  2  7  2  0  0  0  0
  3  9  1  0  0  0  0
  3 10  2  0  0  0  0
  4 11  2  0  0  0  0
  4 21  1  0  0  0  0
  5 12  1  0  0  0  0
  5 21  2  0  0  0  0
  6 24  1  0  0  0  0
  7 26  1  0  0  0  0
  8 13  2  0  0  0  0
  8 25  1  0  0  0  0
  9 28  2  0  0  0  0
 10 29  1  0  0  0  0
 11 30  1  0  0  0  0
 12 30  2  0  0  0  0
 13 31  1  0  0  0  0
 14 15  2  0  0  0  0
 14 32  1  0  0  0  0
 15 34  1  0  0  0  0
 16 27  1  0  0  0  0
 16 31  2  0  0  0  0
 17 28  1  0  0  0  0
 17 29  2  0  0  0  0
 18 34  2  0  0  0  0
 18 35  1  0  0  0  0
 19 22  2  0  0  0  0
 19 68  1  0  0  0  0
 20 33  2  0  0  0  0
 20 68  1  0  0  0  0
 21 36  1  0  0  0  0
 22 33  1  0  0  0  0
 22 41  1  0  0  0  0
 23 36  1  0  0  0  0
 23 37  2  0  0  0  0
 23 42  1  0  0  0  0
 24 26  2  0  0  0  0
 24 46  1  0  0  0  0
 25 27  2  0  0  0  0
 25 47  1  0  0  0  0
 26 56  1  0  0  0  0
 27 48  1  0  0  0  0
 28 68  1  0  0  0  0
 29 70  1  0  0  0  0
 30 85  1  0  0  0  0
 31 86  1  0  0  0  0
 32 35  2  0  0  0  0
 32 85  1  0  0  0  0
 33 84  1  0  0  0  0
 34 87  1  0  0  0  0
 35 88  1  0  0  0  0
 36 67  2  0  0  0  0
 37 69  1  0  0  0  0
 37 73  1  0  0  0  0
 38 39  1  0  0  0  0
 38 40  2  0  0  0  0
 38 49  1  0  0  0  0
 39 70  1  0  0  0  0
 39 78  2  0  0  0  0
 40 86  1  0  0  0  0
 41 71  1  0  0  0  0
 41 79  2  0  0  0  0
 42 74  1  0  0  0  0
 42 80  2  0  0  0  0
 43 57  1  0  0  0  0
 43 75  1  0  0  0  0
 43 81  2  0  0  0  0
 44 64  1  0  0  0  0
 44 72  1  0  0  0  0
 44 82  2  0  0  0  0
 45 65  1  0  0  0  0
 45 76  1  0  0  0  0
 45 83  2  0  0  0  0
 46 50  1  0  0  0  0
 47 57  1  0  0  0  0
 48 72  1  0  0  0  0
 49 70  1  0  0  0  0
 50 52  1  0  0  0  0
 51 53  1  0  0  0  0
 51 54  1  0  0  0  0
 52 56  1  0  0  0  0
 53 58  1  0  0  0  0
 54 71  1  0  0  0  0
 55 58  1  0  0  0  0
 55 71  1  0  0  0  0
 56 75  1  0  0  0  0
 57 72  1  0  0  0  0
 58 69  1  0  0  0  0
 59 65  1  0  0  0  0
 60 66  1  0  0  0  0
 61 66  1  0  0  0  0
 62 66  1  0  0  0  0
 63 77  1  0  0  0  0
 64 66  1  0  0  0  0
 64 76  1  0  0  0  0
 65 77  1  0  0  0  0
 67 69  1  0  0  0  0
M  CHG  1  77   1
M  ISO  4  22 100  40 101  41 100  86 101
M  END
> <Batch ID>
0082

> <Smiles>
CNC(C)C(=O)NC(C(=O)N1Cc2cc([101O:1][101CH:1]=C3CN(c4cccc(N5C=[100C:0]([100C:0](=O)N6CCCC(n7nc(-c8ccc(Oc9ccc(F)cc9F)cc8)c(C(N)=O)c7N)C6)C(=O)C5)c4)C3=O)ccc2CC1C(=O)NC1CCCc2ccccc21)C(C)(C)C

> <Shape>
0.235

> <Color>
0.057

> <Negative vol penalty>
0.000

$$$$

  -OEChem-04052300073D

 87 96  0     1  0  0  0  0  0999 V2000
  -23.6569  -24.6551   13.8590 C   0  0  0  0  0  0  0  0  0  0  0  0
  -24.1916  -23.4524   14.3096 C   0  0  0  0  0  0  0  0  0  0  0  0
  -27.6922  -23.3882   19.2421 C   0  0  0  0  0  0  0  0  0  0  0  0
  -29.3162  -23.3971   21.0309 C   0  0  0  0  0  0  0  0  0  0  0  0
  -29.3297  -14.2026   19.2021 C   0  0  0  0  0  0  0  0  0  0  0  0
  -22.8646  -25.4261   14.7085 C   0  0  0  0  0  0  0  0  0  0  0  0
  -23.9352  -23.0205   15.6104 C   0  0  0  0  0  0  0  0  0  0  0  0
  -23.2150  -17.2382   17.4951 C   0  0  0  0  0  0  0  0  0  0  0  0
  -28.4382  -13.5622   20.0627 C   0  0  0  0  0  0  0  0  0  0  0  0
  -27.6739  -24.7828   19.2517 C   0  0  0  0  0  0  0  0  0  0  0  0
  -29.2979  -24.7918   21.0405 C   0  0  0  0  0  0  0  0  0  0  0  0
  -24.0854  -16.3346   18.1030 C   0  0  0  0  0  0  0  0  0  0  0  0
  -26.2824  -27.2424   21.1060 C   0  0  0  0  0  0  0  0  0  0  0  0
  -25.0399  -27.8739   21.0519 C   0  0  0  0  0  0  0  0  0  0  0  0
  -27.6187  -14.2957   17.4988 C   0  0  0  0  0  0  0  0  0  0  0  0
  -23.2113  -16.9559   20.2639 C   0  0  0  0  0  0  0  0  0  0  0  0
  -25.6856  -28.9683   18.9970 C   0  0  0  0  0  0  0  0  0  0  0  0
  -28.5133  -22.6952   20.1317 C   0  0  0  0  0  0  0  0  0  0  0  0
  -28.9200  -14.5694   17.9202 C   0  0  0  0  0  0  0  0  0  0  0  0
  -27.4469  -20.3886   20.3553 C   0  0  0  0  0  0  0  0  0  0  0  0
  -22.5903  -24.9988   16.0173 C   0  0  0  0  0  0  0  0  0  0  0  0
  -22.3425  -18.0167   18.2690 C   0  0  0  0  0  0  0  0  0  0  0  0
  -23.1395  -23.7872   16.4787 C   0  0  0  0  0  0  0  0  0  0  0  0
  -22.3291  -17.8668   19.6631 C   0  0  0  0  0  0  0  0  0  0  0  0
  -27.1369  -13.2884   19.6414 C   0  0  0  0  0  0  0  0  0  0  0  0
  -28.4768  -25.4847   20.1509 C   0  0  0  0  0  0  0  0  0  0  0  0
  -24.0857  -16.1953   19.4879 C   0  0  0  0  0  0  0  0  0  0  0  0
  -27.2266  -27.4739   20.1057 C   0  0  0  0  0  0  0  0  0  0  0  0
  -24.7414  -28.7368   19.9974 C   0  0  0  0  0  0  0  0  0  0  0  0
  -26.7272  -13.6552   18.3594 C   0  0  0  0  0  0  0  0  0  0  0  0
  -26.9281  -28.3368   19.0512 C   0  0  0  0  0  0  0  0  0  0  0  0
  -28.5322  -21.2545   20.1227 C   0  0  0  0  0  0  0  0  0  0  0  0
  -27.9808  -19.1289   20.2349 C   0  0  0  0  0  0  0  0  0  0  0  0
  -26.4591  -11.3630   21.0507 C   0  0  0  0  0  0  0  0  0  0  0  0
  -25.4278  -10.9344   21.7927 C   0  0  0  0  0  0  0  0  0  0  0  0
  -24.4176  -11.9861   21.7806 C   0  0  0  0  0  0  0  0  0  0  0  0
  -24.9777  -13.1055   20.9756 C   0  0  0  0  0  0  0  0  0  0  0  0
  -23.2157  -11.9355   22.3711 C   0  0  0  0  0  0  0  0  0  0  0  0
  -24.3946  -14.3055   20.8308 C   0  0  0  0  0  0  0  0  0  1  0  0
  -29.8487  -15.2372   17.0222 C   0  0  0  0  0  0  0  0  0  0  0  0
  -26.0785  -20.6956   20.6534 C   0  0  0  0  0  0  0  0  0  0  0  0
  -31.2371  -15.5430   17.4368 C   0  0  0  0  0  0  0  0  0  0  0  0
  -21.9522  -21.1331   18.7587 C   0  0  0  0  0  0  0  0  0  0  0  0
  -19.3593  -20.1481   20.4406 C   0  0  0  0  0  0  0  0  0  0  0  0
  -17.8134  -17.6555   22.1854 C   0  0  0  0  0  0  0  0  0  0  0  0
  -21.7674  -25.8893   16.9142 C   0  0  0  0  0  0  0  0  0  0  0  0
  -21.3910  -18.9676   17.5960 C   0  0  0  0  0  0  0  0  0  0  0  0
  -21.3976  -18.6644   20.5376 C   0  0  0  0  0  0  0  0  0  0  0  0
  -21.2350  -25.1783   18.1558 C   0  0  0  0  0  0  0  0  0  0  0  0
  -32.7814  -17.5891   19.9440 C   0  0  0  0  0  0  0  0  0  0  0  0
  -22.3402  -24.3623   18.8188 C   0  0  0  0  0  0  0  0  0  0  0  0
  -31.7390  -18.6762   20.2038 C   0  0  0  0  0  0  0  0  0  0  0  0
  -32.7809  -17.1530   18.4824 C   0  0  0  0  0  0  0  0  0  0  0  0
  -30.3954  -17.7874   18.2467 C   0  0  0  0  0  0  0  0  0  0  0  0
  -22.8636  -23.2730   17.8749 C   0  0  1  0  0  0  0  0  0  0  0  0
  -20.9063  -20.0812   18.5192 C   0  0  1  0  0  0  0  0  0  0  0  0
  -30.3471  -18.2338   19.7183 C   0  0  2  0  0  0  0  0  0  0  0  0
  -15.7179  -17.1601   23.4741 C   0  0  0  0  0  0  0  0  0  0  0  0
  -20.4275  -21.7677   22.7955 C   0  0  0  0  0  0  0  0  0  0  0  0
  -18.8644  -20.5012   24.2857 C   0  0  0  0  0  0  0  0  0  0  0  0
  -17.9554  -21.9297   22.4538 C   0  0  0  0  0  0  0  0  0  0  0  0
  -17.0429  -15.4874   20.3241 C   0  0  0  0  0  0  0  0  0  0  0  0
  -19.1023  -19.7523   21.8746 C   0  0  1  0  0  0  0  0  0  0  0  0
  -16.4007  -17.1042   22.1164 C   0  0  2  0  0  0  0  0  0  0  0  0
  -19.1064  -20.9740   22.8364 C   0  0  0  0  0  0  0  0  0  0  0  0
  -29.6697  -20.6002   19.8735 N   0  0  0  0  0  0  0  0  0  0  0  0
  -29.5335  -15.6062   15.8100 N   0  0  0  0  0  0  0  0  0  0  0  0
  -29.3020  -19.3098   19.9489 N   0  0  0  0  0  0  0  0  0  0  0  0
  -26.2299  -12.6347   20.5205 N   0  0  0  0  0  0  0  0  0  0  0  0
  -31.4390  -16.7745   18.0441 N   0  0  0  0  0  0  0  0  0  0  0  0
  -20.4907  -19.5855   19.8329 N   0  0  0  0  0  0  0  0  0  0  0  0
  -27.4443  -17.8952   20.3468 N   0  0  0  0  0  0  0  0  0  0  0  0
  -25.7022  -20.8344   21.9964 N   0  0  0  0  0  0  0  0  0  0  0  0
  -21.9430  -22.1572   17.8310 N   0  0  0  0  0  0  0  0  0  0  0  0
  -17.8537  -18.9978   21.8724 N   0  0  0  0  0  0  0  0  0  0  0  0
  -16.4199  -15.6863   21.6580 N   0  3  0  0  0  0  0  0  0  0  0  0
  -25.2115  -20.8262   19.7563 O   0  0  0  0  0  0  0  0  0  0  0  0
  -32.0630  -14.6718   17.1977 O   0  0  0  0  0  0  0  0  0  0  0  0
  -22.7105  -21.0244   19.7152 O   0  0  0  0  0  0  0  0  0  0  0  0
  -18.5808  -20.9221   19.8781 O   0  0  0  0  0  0  0  0  0  0  0  0
  -18.7836  -16.9654   22.4904 O   0  0  0  0  0  0  0  0  0  0  0  0
  -25.3128   -9.7420   22.4354 O   0  0  0  0  0  0  0  0  0  0  0  0
  -28.4594  -26.8456   20.1604 O   0  0  0  0  0  0  0  0  0  0  0  0
  -24.9346  -15.3145   20.0839 O   0  0  0  0  0  0  0  0  0  1  0  0
  -23.5476  -29.3420   19.9447 F   0  0  0  0  0  0  0  0  0  0  0  0
  -25.4790  -13.3969   17.9439 F   0  0  0  0  0  0  0  0  0  0  0  0
  -27.8307  -28.5622   18.0866 F   0  0  0  0  0  0  0  0  0  0  0  0
  1  2  1  0  0  0  0
  1  6  2  0  0  0  0
  2  7  2  0  0  0  0
  3 10  2  0  0  0  0
  3 18  1  0  0  0  0
  4 11  1  0  0  0  0
  4 18  2  0  0  0  0
  5  9  2  0  0  0  0
  5 19  1  0  0  0  0
  6 21  1  0  0  0  0
  7 23  1  0  0  0  0
  8 12  2  0  0  0  0
  8 22  1  0  0  0  0
  9 25  1  0  0  0  0
 10 26  1  0  0  0  0
 11 26  2  0  0  0  0
 12 27  1  0  0  0  0
 13 14  2  0  0  0  0
 13 28  1  0  0  0  0
 14 29  1  0  0  0  0
 15 19  2  0  0  0  0
 15 30  1  0  0  0  0
 16 24  1  0  0  0  0
 16 27  2  0  0  0  0
 17 29  2  0  0  0  0
 17 31  1  0  0  0  0
 18 32  1  0  0  0  0
 19 40  1  0  0  0  0
 20 32  1  0  0  0  0
 20 33  2  0  0  0  0
 20 41  1  0  0  0  0
 21 23  2  0  0  0  0
 21 46  1  0  0  0  0
 22 24  2  0  0  0  0
 22 47  1  0  0  0  0
 23 55  1  0  0  0  0
 24 48  1  0  0  0  0
 25 30  2  0  0  0  0
 25 69  1  0  0  0  0
 26 83  1  0  0  0  0
 27 84  1  0  0  0  0
 28 31  2  0  0  0  0
 28 83  1  0  0  0  0
 29 85  1  0  0  0  0
 30 86  1  0  0  0  0
 31 87  1  0  0  0  0
 32 66  2  0  0  0  0
 33 68  1  0  0  0  0
 33 72  1  0  0  0  0
 34 35  2  0  0  0  0
 34 69  1  0  0  0  0
 35 36  1  0  0  0  0
 35 82  1  0  0  0  0
 36 37  1  0  0  0  0
 36 38  2  0  0  0  0
 37 39  2  0  0  0  0
 37 69  1  0  0  0  0
 39 84  1  0  0  0  0
 40 42  1  0  0  0  0
 40 67  2  0  0  0  0
 41 73  1  0  0  0  0
 41 77  2  0  0  0  0
 42 70  1  0  0  0  0
 42 78  2  0  0  0  0
 43 56  1  0  0  0  0
 43 74  1  0  0  0  0
 43 79  2  0  0  0  0
 44 63  1  0  0  0  0
 44 71  1  0  0  0  0
 44 80  2  0  0  0  0
 45 64  1  0  0  0  0
 45 75  1  0  0  0  0
 45 81  2  0  0  0  0
 46 49  1  0  0  0  0
 47 56  1  0  0  0  0
 48 71  1  0  0  0  0
 49 51  1  0  0  0  0
 50 52  1  0  0  0  0
 50 53  1  0  0  0  0
 51 55  1  0  0  0  0
 52 57  1  0  0  0  0
 53 70  1  0  0  0  0
 54 57  1  0  0  0  0
 54 70  1  0  0  0  0
 55 74  1  0  0  0  0
 56 71  1  0  0  0  0
 57 68  1  0  0  0  0
 58 64  1  0  0  0  0
 59 65  1  0  0  0  0
 60 65  1  0  0  0  0
 61 65  1  0  0  0  0
 62 76  1  0  0  0  0
 63 65  1  0  0  0  0
 63 75  1  0  0  0  0
 64 76  1  0  0  0  0
 66 68  1  0  0  0  0
M  CHG  1  76   1
M  ISO  4  39 101  40 100  42 100  84 101
M  END
> <Batch ID>
0082

> <Smiles>
C=C1C(=O)CN(c2ccc([100C:0](=N)[100C:0](=O)N3CCCC(n4nc(-c5ccc(Oc6ccc(F)cc6F)cc5)c(C(N)=O)c4N)C3)cc2F)C1=[101CH:1][101O:1]c1ccc2c(c1)CN(C(=O)C(NC(=O)C(C)NC)C(C)(C)C)C(C(=O)NC1CCCc3ccccc31)C2

> <Shape>
0.160

> <Color>
0.075

> <Negative vol penalty>
0.000

$$$$

  -OEChem-04052300073D

 86 95  0     1  0  0  0  0  0999 V2000
  -29.7394  -37.0712   20.8494 C   0  0  0  0  0  0  0  0  0  0  0  0
  -29.9073  -35.7614   20.4118 C   0  0  0  0  0  0  0  0  0  0  0  0
  -24.0218   -9.9433   22.2932 C   0  0  0  0  0  0  0  0  0  0  0  0
  -24.6433  -11.5659   23.9719 C   0  0  0  0  0  0  0  0  0  0  0  0
  -29.0727  -37.3247   22.0474 C   0  0  0  0  0  0  0  0  0  0  0  0
  -29.4094  -34.7041   21.1725 C   0  0  0  0  0  0  0  0  0  0  0  0
  -27.0796  -29.4408   19.0807 C   0  0  0  0  0  0  0  0  0  0  0  0
  -28.5777  -20.5968   19.2942 C   0  0  0  0  0  0  0  0  0  0  0  0
  -28.3010  -19.2323   19.2099 C   0  0  0  0  0  0  0  0  0  0  0  0
  -23.6157   -9.0621   23.2952 C   0  0  0  0  0  0  0  0  0  0  0  0
  -24.2371  -10.6847   24.9740 C   0  0  0  0  0  0  0  0  0  0  0  0
  -27.6269  -28.1676   18.9286 C   0  0  0  0  0  0  0  0  0  0  0  0
  -20.9397   -8.6572   25.3220 C   0  0  0  0  0  0  0  0  0  0  0  0
  -19.7206   -8.0008   25.1530 C   0  0  0  0  0  0  0  0  0  0  0  0
  -26.6990  -27.5208   21.0593 C   0  0  0  0  0  0  0  0  0  0  0  0
  -30.6596  -18.7691   18.9656 C   0  0  0  0  0  0  0  0  0  0  0  0
  -20.8570   -5.8702   25.2306 C   0  0  0  0  0  0  0  0  0  0  0  0
  -24.5356  -11.1952   22.6315 C   0  0  0  0  0  0  0  0  0  0  0  0
  -24.1699  -13.0775   20.9490 C   0  0  0  0  0  0  0  0  0  0  0  0
  -28.5580  -36.2705   22.8184 C   0  0  0  0  0  0  0  0  0  0  0  0
  -26.3459  -29.7675   20.2302 C   0  0  0  0  0  0  0  0  0  0  0  0
  -28.7364  -34.9436   22.3826 C   0  0  0  0  0  0  0  0  0  0  0  0
  -26.1413  -28.7980   21.2224 C   0  0  0  0  0  0  0  0  0  0  0  0
  -29.8954  -21.0476   19.2142 C   0  0  0  0  0  0  0  0  0  0  0  0
  -29.3419  -18.3185   19.0456 C   0  0  0  0  0  0  0  0  0  0  0  0
  -23.7233   -9.4328   24.6356 C   0  0  0  0  0  0  0  0  0  0  0  0
  -27.4391  -27.2082   19.9193 C   0  0  0  0  0  0  0  0  0  0  0  0
  -22.1175   -7.9201   25.4452 C   0  0  0  0  0  0  0  0  0  0  0  0
  -19.6792   -6.6073   25.1073 C   0  0  0  0  0  0  0  0  0  0  0  0
  -30.9363  -20.1337   19.0499 C   0  0  0  0  0  0  0  0  0  0  0  0
  -22.0761   -6.5266   25.3995 C   0  0  0  0  0  0  0  0  0  0  0  0
  -24.9558  -12.1058   21.5969 C   0  0  0  0  0  0  0  0  0  0  0  0
  -25.0273  -13.6735   20.0567 C   0  0  0  0  0  0  0  0  0  0  0  0
  -29.9587  -24.6921   19.4987 C   0  0  0  0  0  0  0  0  0  0  0  0
  -31.3684  -24.4286   19.3544 C   0  0  0  0  0  0  0  0  0  0  0  0
  -29.1979  -23.4120   19.4637 C   0  0  0  0  0  0  0  0  0  0  0  0
  -32.3792  -25.3041   19.3360 C   0  0  0  0  0  0  0  0  0  0  0  0
  -29.3293  -25.8578   19.6465 C   0  0  0  0  0  0  0  0  0  1  0  0
  -22.7883  -13.4116   21.1369 C   0  0  0  0  0  0  0  0  0  0  0  0
  -26.6851  -31.8769   22.5837 C   0  0  0  0  0  0  0  0  0  0  0  0
  -23.7592  -30.7847   23.4601 C   0  0  0  0  0  0  0  0  0  0  0  0
  -21.4620  -28.2623   23.3708 C   0  0  0  0  0  0  0  0  0  0  0  0
  -29.9759  -15.8931   18.7967 C   0  0  0  0  0  0  0  0  0  0  0  0
  -27.8860  -36.5912   24.1300 C   0  0  0  0  0  0  0  0  0  0  0  0
  -25.7394  -31.1371   20.3669 C   0  0  0  0  0  0  0  0  0  0  0  0
  -25.3443  -29.0921   22.4661 C   0  0  0  0  0  0  0  0  0  0  0  0
  -31.5265  -22.9439   19.2223 C   0  0  0  0  0  0  0  0  0  0  0  0
  -27.0602  -35.4358   24.6898 C   0  0  0  0  0  0  0  0  0  0  0  0
  -29.6842  -12.3513   18.5781 C   0  0  0  0  0  0  0  0  0  0  0  0
  -27.8491  -34.1322   24.6187 C   0  0  0  0  0  0  0  0  0  0  0  0
  -28.3634  -12.0516   19.2907 C   0  0  0  0  0  0  0  0  0  0  0  0
  -30.4437  -13.4948   19.2485 C   0  0  0  0  0  0  0  0  0  0  0  0
  -28.3490  -14.4291   20.1478 C   0  0  0  0  0  0  0  0  0  0  0  0
  -28.1888  -33.7713   23.1675 C   0  0  1  0  0  0  0  0  0  0  0  0
  -25.4452  -31.5186   21.8144 C   0  0  1  0  0  0  0  0  0  0  0  0
  -27.5177  -13.3276   19.4700 C   0  0  2  0  0  0  0  0  0  0  0  0
  -19.1794  -27.6461   24.2117 C   0  0  0  0  0  0  0  0  0  0  0  0
  -24.9259  -30.2503   26.2283 C   0  0  0  0  0  0  0  0  0  0  0  0
  -22.9431  -28.7987   26.7074 C   0  0  0  0  0  0  0  0  0  0  0  0
  -22.6239  -31.2277   26.2374 C   0  0  0  0  0  0  0  0  0  0  0  0
  -20.3917  -28.0072   20.6234 C   0  0  0  0  0  0  0  0  0  0  0  0
  -23.2549  -29.6719   24.3470 C   0  0  1  0  0  0  0  0  0  0  0  0
  -19.9736  -28.2655   23.0723 C   0  0  2  0  0  0  0  0  0  0  0  0
  -23.4537  -29.9819   25.8576 C   0  0  0  0  0  0  0  0  0  0  0  0
  -26.2157  -12.0824   21.1538 N   0  0  0  0  0  0  0  0  0  0  0  0
  -26.2278  -13.0467   20.2179 N   0  0  0  0  0  0  0  0  0  0  0  0
  -30.1684  -22.4091   19.2985 N   0  0  0  0  0  0  0  0  0  0  0  0
  -24.7769  -30.4476   22.5565 N   0  0  0  0  0  0  0  0  0  0  0  0
  -29.5811  -14.6709   19.3809 N   0  0  0  0  0  0  0  0  0  0  0  0
  -24.8638  -14.6673   19.1577 N   0  0  0  0  0  0  0  0  0  0  0  0
  -22.0533  -12.7004   22.0952 N   0  0  0  0  0  0  0  0  0  0  0  0
  -29.0606  -16.9324   18.9599 N   0  0  0  0  0  0  0  0  0  0  0  0
  -27.0320  -33.2119   22.5017 N   0  0  0  0  0  0  0  0  0  0  0  0
  -21.8669  -29.4403   23.9621 N   0  0  0  0  0  0  0  0  0  0  0  0
  -19.6929  -27.4928   21.8293 N   0  3  0  0  0  0  0  0  0  0  0  0
  -27.9878  -23.2947   19.5609 O   0  0  0  0  0  0  0  0  0  0  0  0
  -22.2180  -14.3028   20.4631 O   0  0  0  0  0  0  0  0  0  0  0  0
  -27.2821  -31.0068   23.2069 O   0  0  0  0  0  0  0  0  0  0  0  0
  -23.2632  -31.9097   23.5602 O   0  0  0  0  0  0  0  0  0  0  0  0
  -22.1918  -27.3086   23.1092 O   0  0  0  0  0  0  0  0  0  0  0  0
  -31.0344  -16.0020   18.1725 O   0  0  0  0  0  0  0  0  0  0  0  0
  -23.3269   -8.5732   25.6136 O   0  0  0  0  0  0  0  0  0  0  0  0
  -27.9728  -25.9649   19.7736 O   0  0  0  0  0  0  0  0  0  1  0  0
  -18.5082   -5.9771   24.9466 F   0  0  0  0  0  0  0  0  0  0  0  0
  -32.2066  -20.5556   18.9711 F   0  0  0  0  0  0  0  0  0  0  0  0
  -23.2042   -5.8130   25.5184 F   0  0  0  0  0  0  0  0  0  0  0  0
  1  2  1  0  0  0  0
  1  5  2  0  0  0  0
  2  6  2  0  0  0  0
  3 10  2  0  0  0  0
  3 18  1  0  0  0  0
  4 11  1  0  0  0  0
  4 18  2  0  0  0  0
  5 20  1  0  0  0  0
  6 22  1  0  0  0  0
  7 12  2  0  0  0  0
  7 21  1  0  0  0  0
  8  9  2  0  0  0  0
  8 24  1  0  0  0  0
  9 25  1  0  0  0  0
 10 26  1  0  0  0  0
 11 26  2  0  0  0  0
 12 27  1  0  0  0  0
 13 14  2  0  0  0  0
 13 28  1  0  0  0  0
 14 29  1  0  0  0  0
 15 23  1  0  0  0  0
 15 27  2  0  0  0  0
 16 25  2  0  0  0  0
 16 30  1  0  0  0  0
 17 29  2  0  0  0  0
 17 31  1  0  0  0  0
 18 32  1  0  0  0  0
 19 32  1  0  0  0  0
 19 33  2  0  0  0  0
 19 39  1  0  0  0  0
 20 22  2  0  0  0  0
 20 44  1  0  0  0  0
 21 23  2  0  0  0  0
 21 45  1  0  0  0  0
 22 54  1  0  0  0  0
 23 46  1  0  0  0  0
 24 30  2  0  0  0  0
 24 67  1  0  0  0  0
 25 72  1  0  0  0  0
 26 82  1  0  0  0  0
 27 83  1  0  0  0  0
 28 31  2  0  0  0  0
 28 82  1  0  0  0  0
 29 84  1  0  0  0  0
 30 85  1  0  0  0  0
 31 86  1  0  0  0  0
 32 65  2  0  0  0  0
 33 66  1  0  0  0  0
 33 70  1  0  0  0  0
 34 35  1  0  0  0  0
 34 36  1  0  0  0  0
 34 38  2  0  0  0  0
 35 37  2  0  0  0  0
 35 47  1  0  0  0  0
 36 67  1  0  0  0  0
 36 76  2  0  0  0  0
 38 83  1  0  0  0  0
 39 71  1  0  0  0  0
 39 77  2  0  0  0  0
 40 55  1  0  0  0  0
 40 73  1  0  0  0  0
 40 78  2  0  0  0  0
 41 62  1  0  0  0  0
 41 68  1  0  0  0  0
 41 79  2  0  0  0  0
 42 63  1  0  0  0  0
 42 74  1  0  0  0  0
 42 80  2  0  0  0  0
 43 69  1  0  0  0  0
 43 72  1  0  0  0  0
 43 81  2  0  0  0  0
 44 48  1  0  0  0  0
 45 55  1  0  0  0  0
 46 68  1  0  0  0  0
 47 67  1  0  0  0  0
 48 50  1  0  0  0  0
 49 51  1  0  0  0  0
 49 52  1  0  0  0  0
 50 54  1  0  0  0  0
 51 56  1  0  0  0  0
 52 69  1  0  0  0  0
 53 56  1  0  0  0  0
 53 69  1  0  0  0  0
 54 73  1  0  0  0  0
 55 68  1  0  0  0  0
 56 66  1  0  0  0  0
 57 63  1  0  0  0  0
 58 64  1  0  0  0  0
 59 64  1  0  0  0  0
 60 64  1  0  0  0  0
 61 75  1  0  0  0  0
 62 64  1  0  0  0  0
 62 74  1  0  0  0  0
 63 75  1  0  0  0  0
 65 66  1  0  0  0  0
M  CHG  1  75   1
M  ISO  4  38 101  43 100  72 100  83 101
M  END
> <Batch ID>
0082

> <Smiles>
C=C1CN(c2ccc([100NH:0][100C:0](=O)N3CCCC(n4nc(-c5ccc(Oc6ccc(F)cc6F)cc5)c(C(N)=O)c4N)C3)cc2F)C(=O)C1=[101CH:1][101O:1]c1ccc2c(c1)CN(C(=O)C(NC(=O)C(C)NC)C(C)(C)C)C(C(=O)NC1CCCc3ccccc31)C2

> <Shape>
0.312

> <Color>
0.135

> <Negative vol penalty>
0.000

$$$$

  -OEChem-04052300073D

 86 95  0     1  0  0  0  0  0999 V2000
  -29.7777  -37.0771   20.8608 C   0  0  0  0  0  0  0  0  0  0  0  0
  -29.9420  -35.7669   20.4231 C   0  0  0  0  0  0  0  0  0  0  0  0
  -24.0267   -9.9370   22.2881 C   0  0  0  0  0  0  0  0  0  0  0  0
  -24.6446  -11.5585   23.9691 C   0  0  0  0  0  0  0  0  0  0  0  0
  -29.1118  -37.3323   22.0589 C   0  0  0  0  0  0  0  0  0  0  0  0
  -29.4413  -34.7108   21.1837 C   0  0  0  0  0  0  0  0  0  0  0  0
  -27.0972  -29.4541   19.0915 C   0  0  0  0  0  0  0  0  0  0  0  0
  -30.9306  -20.1386   19.0597 C   0  0  0  0  0  0  0  0  0  0  0  0
  -30.6529  -18.7744   18.9744 C   0  0  0  0  0  0  0  0  0  0  0  0
  -23.6215   -9.0539   23.2888 C   0  0  0  0  0  0  0  0  0  0  0  0
  -24.2394  -10.6754   24.9699 C   0  0  0  0  0  0  0  0  0  0  0  0
  -27.6411  -28.1794   18.9393 C   0  0  0  0  0  0  0  0  0  0  0  0
  -20.9451   -8.6422   25.3138 C   0  0  0  0  0  0  0  0  0  0  0  0
  -19.7272   -7.9841   25.1434 C   0  0  0  0  0  0  0  0  0  0  0  0
  -26.7116  -27.5349   21.0700 C   0  0  0  0  0  0  0  0  0  0  0  0
  -28.5723  -20.6036   19.3031 C   0  0  0  0  0  0  0  0  0  0  0  0
  -20.8670   -5.8552   25.2189 C   0  0  0  0  0  0  0  0  0  0  0  0
  -24.5383  -11.1893   22.6282 C   0  0  0  0  0  0  0  0  0  0  0  0
  -24.1704  -13.0730   20.9477 C   0  0  0  0  0  0  0  0  0  0  0  0
  -28.5942  -36.2794   22.8298 C   0  0  0  0  0  0  0  0  0  0  0  0
  -26.3644  -29.7826   20.2411 C   0  0  0  0  0  0  0  0  0  0  0  0
  -28.7690  -34.9521   22.3939 C   0  0  0  0  0  0  0  0  0  0  0  0
  -26.1573  -28.8136   21.2332 C   0  0  0  0  0  0  0  0  0  0  0  0
  -29.8903  -21.0532   19.2241 C   0  0  0  0  0  0  0  0  0  0  0  0
  -29.3349  -18.3247   19.0534 C   0  0  0  0  0  0  0  0  0  0  0  0
  -23.7278   -9.4231   24.6298 C   0  0  0  0  0  0  0  0  0  0  0  0
  -27.4508  -27.2204   19.9299 C   0  0  0  0  0  0  0  0  0  0  0  0
  -22.1240   -7.9069   25.4367 C   0  0  0  0  0  0  0  0  0  0  0  0
  -19.6881   -6.5906   25.0960 C   0  0  0  0  0  0  0  0  0  0  0  0
  -28.2946  -19.2393   19.2178 C   0  0  0  0  0  0  0  0  0  0  0  0
  -22.0850   -6.5133   25.3893 C   0  0  0  0  0  0  0  0  0  0  0  0
  -24.9576  -12.1018   21.5949 C   0  0  0  0  0  0  0  0  0  0  0  0
  -25.0273  -13.6715   20.0567 C   0  0  0  0  0  0  0  0  0  0  0  0
  -29.9636  -24.6976   19.5089 C   0  0  0  0  0  0  0  0  0  0  0  0
  -31.3725  -24.4302   19.3646 C   0  0  0  0  0  0  0  0  0  0  0  0
  -29.1993  -23.4195   19.4739 C   0  0  0  0  0  0  0  0  0  0  0  0
  -32.3856  -25.3030   19.3462 C   0  0  0  0  0  0  0  0  0  0  0  0
  -29.3373  -25.8650   19.6569 C   0  0  0  0  0  0  0  0  0  1  0  0
  -22.7881  -13.4046   21.1354 C   0  0  0  0  0  0  0  0  0  0  0  0
  -26.7095  -31.8909   22.5948 C   0  0  0  0  0  0  0  0  0  0  0  0
  -23.7806  -30.8065   23.4711 C   0  0  0  0  0  0  0  0  0  0  0  0
  -21.4767  -28.2903   23.3817 C   0  0  0  0  0  0  0  0  0  0  0  0
  -29.9729  -15.9007   18.8019 C   0  0  0  0  0  0  0  0  0  0  0  0
  -27.9231  -36.6018   24.1414 C   0  0  0  0  0  0  0  0  0  0  0  0
  -25.7617  -31.1539   20.3779 C   0  0  0  0  0  0  0  0  0  0  0  0
  -25.3612  -29.1097   22.4770 C   0  0  0  0  0  0  0  0  0  0  0  0
  -31.5266  -22.9452   19.2323 C   0  0  0  0  0  0  0  0  0  0  0  0
  -27.0942  -35.4485   24.7011 C   0  0  0  0  0  0  0  0  0  0  0  0
  -29.6871  -12.3587   18.5788 C   0  0  0  0  0  0  0  0  0  0  0  0
  -27.8796  -34.1428   24.6299 C   0  0  0  0  0  0  0  0  0  0  0  0
  -28.3664  -12.0560   19.2904 C   0  0  0  0  0  0  0  0  0  0  0  0
  -30.4443  -13.5025   19.2511 C   0  0  0  0  0  0  0  0  0  0  0  0
  -28.3477  -14.4323   20.1504 C   0  0  0  0  0  0  0  0  0  0  0  0
  -28.2183  -33.7812   23.1787 C   0  0  1  0  0  0  0  0  0  0  0  0
  -25.4686  -31.5360   21.8255 C   0  0  1  0  0  0  0  0  0  0  0  0
  -27.5185  -13.3304   19.4708 C   0  0  2  0  0  0  0  0  0  0  0  0
  -19.1924  -27.6802   24.2227 C   0  0  0  0  0  0  0  0  0  0  0  0
  -24.9460  -30.2687   26.2393 C   0  0  0  0  0  0  0  0  0  0  0  0
  -22.9592  -28.8224   26.7183 C   0  0  0  0  0  0  0  0  0  0  0  0
  -22.6467  -31.2523   26.2485 C   0  0  0  0  0  0  0  0  0  0  0  0
  -20.4055  -28.0383   20.6343 C   0  0  0  0  0  0  0  0  0  0  0  0
  -23.2734  -29.6950   24.3580 C   0  0  1  0  0  0  0  0  0  0  0  0
  -19.9883  -28.2976   23.0833 C   0  0  2  0  0  0  0  0  0  0  0  0
  -23.4730  -30.0043   25.8686 C   0  0  0  0  0  0  0  0  0  0  0  0
  -26.2177  -12.0810   21.1525 N   0  0  0  0  0  0  0  0  0  0  0  0
  -26.2287  -13.0465   20.2177 N   0  0  0  0  0  0  0  0  0  0  0  0
  -30.1671  -22.4141   19.3086 N   0  0  0  0  0  0  0  0  0  0  0  0
  -24.7974  -30.4667   22.5675 N   0  0  0  0  0  0  0  0  0  0  0  0
  -29.5799  -14.6771   19.3844 N   0  0  0  0  0  0  0  0  0  0  0  0
  -24.8626  -14.6661   19.1588 N   0  0  0  0  0  0  0  0  0  0  0  0
  -22.0538  -12.6911   22.0925 N   0  0  0  0  0  0  0  0  0  0  0  0
  -29.0558  -16.9383   18.9659 N   0  0  0  0  0  0  0  0  0  0  0  0
  -27.0599  -33.2250   22.5129 N   0  0  0  0  0  0  0  0  0  0  0  0
  -21.8847  -29.4672   23.9731 N   0  0  0  0  0  0  0  0  0  0  0  0
  -19.7054  -27.5258   21.8402 N   0  3  0  0  0  0  0  0  0  0  0  0
  -27.9889  -23.3054   19.5711 O   0  0  0  0  0  0  0  0  0  0  0  0
  -22.2168  -14.2957   20.4623 O   0  0  0  0  0  0  0  0  0  0  0  0
  -27.3041  -31.0191   23.2178 O   0  0  0  0  0  0  0  0  0  0  0  0
  -23.2877  -31.9328   23.5714 O   0  0  0  0  0  0  0  0  0  0  0  0
  -22.2039  -27.3347   23.1200 O   0  0  0  0  0  0  0  0  0  0  0  0
  -31.0316  -16.0121   18.1784 O   0  0  0  0  0  0  0  0  0  0  0  0
  -23.3323   -8.5617   25.6066 O   0  0  0  0  0  0  0  0  0  0  0  0
  -27.9811  -25.9757   19.7841 O   0  0  0  0  0  0  0  0  0  1  0  0
  -18.5182   -5.9586   24.9339 F   0  0  0  0  0  0  0  0  0  0  0  0
  -27.0237  -18.8186   19.2935 F   0  0  0  0  0  0  0  0  0  0  0  0
  -23.2141   -5.8015   25.5080 F   0  0  0  0  0  0  0  0  0  0  0  0
  1  2  1  0  0  0  0
  1  5  2  0  0  0  0
  2  6  2  0  0  0  0
  3 10  2  0  0  0  0
  3 18  1  0  0  0  0
  4 11  1  0  0  0  0
  4 18  2  0  0  0  0
  5 20  1  0  0  0  0
  6 22  1  0  0  0  0
  7 12  2  0  0  0  0
  7 21  1  0  0  0  0
  8  9  2  0  0  0  0
  8 24  1  0  0  0  0
  9 25  1  0  0  0  0
 10 26  1  0  0  0  0
 11 26  2  0  0  0  0
 12 27  1  0  0  0  0
 13 14  2  0  0  0  0
 13 28  1  0  0  0  0
 14 29  1  0  0  0  0
 15 23  1  0  0  0  0
 15 27  2  0  0  0  0
 16 24  2  0  0  0  0
 16 30  1  0  0  0  0
 17 29  2  0  0  0  0
 17 31  1  0  0  0  0
 18 32  1  0  0  0  0
 19 32  1  0  0  0  0
 19 33  2  0  0  0  0
 19 39  1  0  0  0  0
 20 22  2  0  0  0  0
 20 44  1  0  0  0  0
 21 23  2  0  0  0  0
 21 45  1  0  0  0  0
 22 54  1  0  0  0  0
 23 46  1  0  0  0  0
 24 67  1  0  0  0  0
 25 30  2  0  0  0  0
 25 72  1  0  0  0  0
 26 82  1  0  0  0  0
 27 83  1  0  0  0  0
 28 31  2  0  0  0  0
 28 82  1  0  0  0  0
 29 84  1  0  0  0  0
 30 85  1  0  0  0  0
 31 86  1  0  0  0  0
 32 65  2  0  0  0  0
 33 66  1  0  0  0  0
 33 70  1  0  0  0  0
 34 35  1  0  0  0  0
 34 36  1  0  0  0  0
 34 38  2  0  0  0  0
 35 37  2  0  0  0  0
 35 47  1  0  0  0  0
 36 67  1  0  0  0  0
 36 76  2  0  0  0  0
 38 83  1  0  0  0  0
 39 71  1  0  0  0  0
 39 77  2  0  0  0  0
 40 55  1  0  0  0  0
 40 73  1  0  0  0  0
 40 78  2  0  0  0  0
 41 62  1  0  0  0  0
 41 68  1  0  0  0  0
 41 79  2  0  0  0  0
 42 63  1  0  0  0  0
 42 74  1  0  0  0  0
 42 80  2  0  0  0  0
 43 69  1  0  0  0  0
 43 72  1  0  0  0  0
 43 81  2  0  0  0  0
 44 48  1  0  0  0  0
 45 55  1  0  0  0  0
 46 68  1  0  0  0  0
 47 67  1  0  0  0  0
 48 50  1  0  0  0  0
 49 51  1  0  0  0  0
 49 52  1  0  0  0  0
 50 54  1  0  0  0  0
 51 56  1  0  0  0  0
 52 69  1  0  0  0  0
 53 56  1  0  0  0  0
 53 69  1  0  0  0  0
 54 73  1  0  0  0  0
 55 68  1  0  0  0  0
 56 66  1  0  0  0  0
 57 63  1  0  0  0  0
 58 64  1  0  0  0  0
 59 64  1  0  0  0  0
 60 64  1  0  0  0  0
 61 75  1  0  0  0  0
 62 64  1  0  0  0  0
 62 74  1  0  0  0  0
 63 75  1  0  0  0  0
 65 66  1  0  0  0  0
M  CHG  1  75   1
M  ISO  4  38 101  43 100  72 100  83 101
M  END
> <Batch ID>
0082

> <Smiles>
C=C1CN(c2ccc([100NH:0][100C:0](=O)N3CCCC(n4nc(-c5ccc(Oc6ccc(F)cc6F)cc5)c(C(N)=O)c4N)C3)c(F)c2)C(=O)C1=[101CH:1][101O:1]c1ccc2c(c1)CN(C(=O)C(NC(=O)C(C)NC)C(C)(C)C)C(C(=O)NC1CCCc3ccccc31)C2

> <Shape>
0.316

> <Color>
0.135

> <Negative vol penalty>
0.000

$$$$

  -OEChem-04052300073D

 85 94  0     1  0  0  0  0  0999 V2000
  -16.9400  -27.0452   22.3751 C   0  0  0  0  0  0  0  0  0  0  0  0
  -18.1529  -26.4091   22.6196 C   0  0  0  0  0  0  0  0  0  0  0  0
  -24.2925   -9.4771   21.5749 C   0  0  0  0  0  0  0  0  0  0  0  0
  -24.7491  -10.6928   23.6121 C   0  0  0  0  0  0  0  0  0  0  0  0
  -16.9236  -28.3135   21.7962 C   0  0  0  0  0  0  0  0  0  0  0  0
  -19.3501  -27.0406   22.2845 C   0  0  0  0  0  0  0  0  0  0  0  0
  -24.6708  -26.6807   25.2955 C   0  0  0  0  0  0  0  0  0  0  0  0
  -30.6913  -20.4781   21.1282 C   0  0  0  0  0  0  0  0  0  0  0  0
  -30.5013  -19.1588   20.7174 C   0  0  0  0  0  0  0  0  0  0  0  0
  -23.9030   -8.3672   22.3245 C   0  0  0  0  0  0  0  0  0  0  0  0
  -24.3596   -9.5829   24.3618 C   0  0  0  0  0  0  0  0  0  0  0  0
  -25.8167  -25.9145   25.0868 C   0  0  0  0  0  0  0  0  0  0  0  0
  -21.1812   -7.3662   24.0632 C   0  0  0  0  0  0  0  0  0  0  0  0
  -20.0118   -6.7066   23.6851 C   0  0  0  0  0  0  0  0  0  0  0  0
  -26.8234  -27.7552   23.8963 C   0  0  0  0  0  0  0  0  0  0  0  0
  -28.1114  -19.4333   20.9408 C   0  0  0  0  0  0  0  0  0  0  0  0
  -21.2724   -4.6768   23.3274 C   0  0  0  0  0  0  0  0  0  0  0  0
  -24.7156  -10.6399   22.2187 C   0  0  0  0  0  0  0  0  0  0  0  0
  -24.3001  -12.8416   20.9990 C   0  0  0  0  0  0  0  0  0  0  0  0
  -18.1216  -28.9649   21.4627 C   0  0  0  0  0  0  0  0  0  0  0  0
  -24.5882  -27.9884   24.7959 C   0  0  0  0  0  0  0  0  0  0  0  0
  -19.3497  -28.3182   21.6994 C   0  0  0  0  0  0  0  0  0  0  0  0
  -25.6764  -28.5369   24.1022 C   0  0  0  0  0  0  0  0  0  0  0  0
  -29.5913  -21.2751   21.4454 C   0  0  0  0  0  0  0  0  0  0  0  0
  -29.2114  -18.6364   20.6236 C   0  0  0  0  0  0  0  0  0  0  0  0
  -23.9365   -8.4200   23.7179 C   0  0  0  0  0  0  0  0  0  0  0  0
  -26.8921  -26.4507   24.3846 C   0  0  0  0  0  0  0  0  0  0  0  0
  -22.3963   -6.6812   24.0733 C   0  0  0  0  0  0  0  0  0  0  0  0
  -20.0574   -5.3619   23.3172 C   0  0  0  0  0  0  0  0  0  0  0  0
  -28.3014  -20.7527   21.3516 C   0  0  0  0  0  0  0  0  0  0  0  0
  -22.4419   -5.3365   23.7055 C   0  0  0  0  0  0  0  0  0  0  0  0
  -25.1186  -11.7866   21.4449 C   0  0  0  0  0  0  0  0  0  0  0  0
  -25.1530  -13.6717   20.3135 C   0  0  0  0  0  0  0  0  0  0  0  0
  -30.7913  -24.5890   22.4362 C   0  0  0  0  0  0  0  0  0  0  0  0
  -29.4706  -24.7390   22.5588 C   0  0  0  0  0  0  0  0  0  0  0  0
  -31.0345  -23.2058   21.9805 C   0  0  0  0  0  0  0  0  0  0  0  0
  -22.8945  -13.0524   21.1878 C   0  0  0  0  0  0  0  0  0  0  0  0
  -22.7098  -29.4776   22.7085 C   0  0  0  0  0  0  0  0  0  0  0  0
  -24.3430  -32.0990   23.7002 C   0  0  0  0  0  0  0  0  0  0  0  0
  -27.1778  -33.3908   25.0937 C   0  0  0  0  0  0  0  0  0  0  0  0
  -30.0013  -16.3711   19.8550 C   0  0  0  0  0  0  0  0  0  0  0  0
  -18.0519  -30.3156   20.7954 C   0  0  0  0  0  0  0  0  0  0  0  0
  -23.3556  -28.8112   25.0526 C   0  0  0  0  0  0  0  0  0  0  0  0
  -25.6458  -29.9428   23.5629 C   0  0  0  0  0  0  0  0  0  0  0  0
  -28.7167  -23.5030   22.2071 C   0  0  0  0  0  0  0  0  0  0  0  0
  -19.3770  -31.0733   20.8141 C   0  0  0  0  0  0  0  0  0  0  0  0
  -29.9351  -12.9678   18.8108 C   0  0  0  0  0  0  0  0  0  0  0  0
  -20.5225  -30.1559   20.3981 C   0  0  0  0  0  0  0  0  0  0  0  0
  -28.6088  -12.4439   19.3664 C   0  0  0  0  0  0  0  0  0  0  0  0
  -30.5971  -13.9603   19.7650 C   0  0  0  0  0  0  0  0  0  0  0  0
  -28.4165  -14.5521   20.7467 C   0  0  0  0  0  0  0  0  0  0  0  0
  -20.6702  -28.9811   21.3726 C   0  0  1  0  0  0  0  0  0  0  0  0
  -23.1799  -29.9516   24.0546 C   0  0  1  0  0  0  0  0  0  0  0  0
  -27.6804  -13.5985   19.7914 C   0  0  2  0  0  0  0  0  0  0  0  0
  -28.2369  -35.5715   25.7420 C   0  0  0  0  0  0  0  0  0  0  0  0
  -24.9699  -32.6635   20.7679 C   0  0  0  0  0  0  0  0  0  0  0  0
  -26.7629  -34.2376   21.5266 C   0  0  0  0  0  0  0  0  0  0  0  0
  -24.3809  -34.6854   22.1168 C   0  0  0  0  0  0  0  0  0  0  0  0
  -27.3124  -32.6106   27.9454 C   0  0  0  0  0  0  0  0  0  0  0  0
  -28.7588  -25.9684   22.9922 C   0  0  0  0  0  0  0  0  0  1  0  0
  -25.6088  -32.7976   23.2659 C   0  0  1  0  0  0  0  0  0  0  0  0
  -27.3822  -34.4026   26.2068 C   0  0  2  0  0  0  0  0  0  0  0  0
  -25.4308  -33.5688   21.9277 C   0  0  0  0  0  0  0  0  0  0  0  0
  -26.3936  -11.9308   21.0736 N   0  0  0  0  0  0  0  0  0  0  0  0
  -26.3825  -13.0861   20.3872 N   0  0  0  0  0  0  0  0  0  0  0  0
  -29.7835  -22.5891   21.8544 N   0  0  0  0  0  0  0  0  0  0  0  0
  -24.4159  -30.7052   23.8342 N   0  0  0  0  0  0  0  0  0  0  0  0
  -29.6599  -15.0281   20.1206 N   0  0  0  0  0  0  0  0  0  0  0  0
  -24.9636  -14.8381   19.6608 N   0  0  0  0  0  0  0  0  0  0  0  0
  -22.1683  -12.1012   21.9173 N   0  0  0  0  0  0  0  0  0  0  0  0
  -29.0187  -17.2961   20.2063 N   0  0  0  0  0  0  0  0  0  0  0  0
  -21.3352  -29.4102   22.5843 N   0  0  0  0  0  0  0  0  0  0  0  0
  -26.0185  -33.6349   24.3882 N   0  0  0  0  0  0  0  0  0  0  0  0
  -28.0556  -33.7620   27.3718 N   0  3  0  0  0  0  0  0  0  0  0  0
  -32.1444  -22.7443   21.7700 O   0  0  0  0  0  0  0  0  0  0  0  0
  -22.2971  -14.0462   20.7093 O   0  0  0  0  0  0  0  0  0  0  0  0
  -23.5332  -29.1955   21.8458 O   0  0  0  0  0  0  0  0  0  0  0  0
  -23.3288  -32.7661   23.9196 O   0  0  0  0  0  0  0  0  0  0  0  0
  -27.9694  -32.4776   24.8699 O   0  0  0  0  0  0  0  0  0  0  0  0
  -31.0743  -16.6759   19.3279 O   0  0  0  0  0  0  0  0  0  0  0  0
  -23.5563   -7.3372   24.4497 O   0  0  0  0  0  0  0  0  0  0  0  0
  -28.0115  -25.7047   24.1790 O   0  0  0  0  0  0  0  0  0  1  0  0
  -18.9341   -4.7281   22.9556 F   0  0  0  0  0  0  0  0  0  0  0  0
  -27.2367  -21.5094   21.6546 F   0  0  0  0  0  0  0  0  0  0  0  0
  -23.6060   -4.6727   23.7144 F   0  0  0  0  0  0  0  0  0  0  0  0
  1  2  1  0  0  0  0
  1  5  2  0  0  0  0
  2  6  2  0  0  0  0
  3 10  2  0  0  0  0
  3 18  1  0  0  0  0
  4 11  1  0  0  0  0
  4 18  2  0  0  0  0
  5 20  1  0  0  0  0
  6 22  1  0  0  0  0
  7 12  2  0  0  0  0
  7 21  1  0  0  0  0
  8  9  2  0  0  0  0
  8 24  1  0  0  0  0
  9 25  1  0  0  0  0
 10 26  1  0  0  0  0
 11 26  2  0  0  0  0
 12 27  1  0  0  0  0
 13 14  2  0  0  0  0
 13 28  1  0  0  0  0
 14 29  1  0  0  0  0
 15 23  1  0  0  0  0
 15 27  2  0  0  0  0
 16 25  2  0  0  0  0
 16 30  1  0  0  0  0
 17 29  2  0  0  0  0
 17 31  1  0  0  0  0
 18 32  1  0  0  0  0
 19 32  1  0  0  0  0
 19 33  2  0  0  0  0
 19 37  1  0  0  0  0
 20 22  2  0  0  0  0
 20 42  1  0  0  0  0
 21 23  2  0  0  0  0
 21 43  1  0  0  0  0
 22 52  1  0  0  0  0
 23 44  1  0  0  0  0
 24 30  2  0  0  0  0
 24 66  1  0  0  0  0
 25 71  1  0  0  0  0
 26 81  1  0  0  0  0
 27 82  1  0  0  0  0
 28 31  2  0  0  0  0
 28 81  1  0  0  0  0
 29 83  1  0  0  0  0
 30 84  1  0  0  0  0
 31 85  1  0  0  0  0
 32 64  2  0  0  0  0
 33 65  1  0  0  0  0
 33 69  1  0  0  0  0
 34 35  2  0  0  0  0
 34 36  1  0  0  0  0
 35 45  1  0  0  0  0
 35 60  1  0  0  0  0
 36 66  1  0  0  0  0
 36 75  2  0  0  0  0
 37 70  1  0  0  0  0
 37 76  2  0  0  0  0
 38 53  1  0  0  0  0
 38 72  1  0  0  0  0
 38 77  2  0  0  0  0
 39 61  1  0  0  0  0
 39 67  1  0  0  0  0
 39 78  2  0  0  0  0
 40 62  1  0  0  0  0
 40 73  1  0  0  0  0
 40 79  2  0  0  0  0
 41 68  1  0  0  0  0
 41 71  1  0  0  0  0
 41 80  2  0  0  0  0
 42 46  1  0  0  0  0
 43 53  1  0  0  0  0
 44 67  1  0  0  0  0
 45 66  1  0  0  0  0
 46 48  1  0  0  0  0
 47 49  1  0  0  0  0
 47 50  1  0  0  0  0
 48 52  1  0  0  0  0
 49 54  1  0  0  0  0
 50 68  1  0  0  0  0
 51 54  1  0  0  0  0
 51 68  1  0  0  0  0
 52 72  1  0  0  0  0
 53 67  1  0  0  0  0
 54 65  1  0  0  0  0
 55 62  1  0  0  0  0
 56 63  1  0  0  0  0
 57 63  1  0  0  0  0
 58 63  1  0  0  0  0
 59 74  1  0  0  0  0
 60 82  1  0  0  0  0
 61 63  1  0  0  0  0
 61 73  1  0  0  0  0
 62 74  1  0  0  0  0
 64 65  1  0  0  0  0
M  CHG  1  74   1
M  ISO  4  41 100  60 101  71 100  82 101
M  END
> <Batch ID>
0082

> <Smiles>
CNC(C)C(=O)NC(C(=O)N1Cc2cc([101O:1][101CH2:1]C3=CC(=O)N(c4ccc([100NH:0][100C:0](=O)N5CCCC(n6nc(-c7ccc(Oc8ccc(F)cc8F)cc7)c(C(N)=O)c6N)C5)cc4F)C3)ccc2CC1C(=O)NC1CCCc2ccccc21)C(C)(C)C

> <Shape>
0.301

> <Color>
0.149

> <Negative vol penalty>
0.000

$$$$

  -OEChem-04052300073D

 87 96  0     1  0  0  0  0  0999 V2000
  -28.6028  -32.1279   28.4958 C   0  0  0  0  0  0  0  0  0  0  0  0
  -28.3868  -31.2252   27.4596 C   0  0  0  0  0  0  0  0  0  0  0  0
  -23.0821  -10.5506   21.1820 C   0  0  0  0  0  0  0  0  0  0  0  0
  -24.4755   -8.7027   21.8752 C   0  0  0  0  0  0  0  0  0  0  0  0
  -27.6704  -33.1331   28.7489 C   0  0  0  0  0  0  0  0  0  0  0  0
  -27.2375  -31.3265   26.6764 C   0  0  0  0  0  0  0  0  0  0  0  0
  -28.2081  -30.8395   21.7301 C   0  0  0  0  0  0  0  0  0  0  0  0
  -28.7654  -20.1029   21.8963 C   0  0  0  0  0  0  0  0  0  0  0  0
  -28.8110  -18.7113   21.8136 C   0  0  0  0  0  0  0  0  0  0  0  0
  -22.0399   -9.6637   20.9124 C   0  0  0  0  0  0  0  0  0  0  0  0
  -23.4333   -7.8157   21.6056 C   0  0  0  0  0  0  0  0  0  0  0  0
  -28.4154  -29.5486   21.2461 C   0  0  0  0  0  0  0  0  0  0  0  0
  -19.6966   -7.9676   22.6632 C   0  0  0  0  0  0  0  0  0  0  0  0
  -18.4205   -8.3123   23.1086 C   0  0  0  0  0  0  0  0  0  0  0  0
  -26.1464  -29.4971   20.4287 C   0  0  0  0  0  0  0  0  0  0  0  0
  -29.8599  -18.8747   19.6433 C   0  0  0  0  0  0  0  0  0  0  0  0
  -17.6138   -8.2680   20.8316 C   0  0  0  0  0  0  0  0  0  0  0  0
  -24.2999  -10.0702   21.6633 C   0  0  0  0  0  0  0  0  0  0  0  0
  -25.6422  -11.6420   23.1584 C   0  0  0  0  0  0  0  0  0  0  0  0
  -26.5138  -33.2527   27.9623 C   0  0  0  0  0  0  0  0  0  0  0  0
  -26.9628  -31.4658   21.5765 C   0  0  0  0  0  0  0  0  0  0  0  0
  -26.2881  -32.3334   26.9201 C   0  0  0  0  0  0  0  0  0  0  0  0
  -25.9266  -30.7970   20.9095 C   0  0  0  0  0  0  0  0  0  0  0  0
  -29.2670  -20.8805   20.8525 C   0  0  0  0  0  0  0  0  0  0  0  0
  -29.3583  -18.0972   20.6871 C   0  0  0  0  0  0  0  0  0  0  0  0
  -22.2155   -8.2962   21.1242 C   0  0  0  0  0  0  0  0  0  0  0  0
  -27.3837  -28.8761   20.5978 C   0  0  0  0  0  0  0  0  0  0  0  0
  -19.9313   -7.7733   21.3020 C   0  0  0  0  0  0  0  0  0  0  0  0
  -17.3791   -8.4624   22.1928 C   0  0  0  0  0  0  0  0  0  0  0  0
  -29.8143  -20.2664   19.7260 C   0  0  0  0  0  0  0  0  0  0  0  0
  -18.8900   -7.9235   20.3862 C   0  0  0  0  0  0  0  0  0  0  0  0
  -25.3771  -10.9858   21.9415 C   0  0  0  0  0  0  0  0  0  0  0  0
  -26.7645  -12.3926   22.9064 C   0  0  0  0  0  0  0  0  0  0  0  0
  -29.1037  -24.5601   20.4689 C   0  0  0  0  0  0  0  0  0  0  0  0
  -29.1071  -23.2002   19.8669 C   0  0  0  0  0  0  0  0  0  0  0  0
  -28.8841  -25.6653   19.7526 C   0  0  0  0  0  0  0  0  0  0  0  0
  -24.9371  -11.5786   24.4052 C   0  0  0  0  0  0  0  0  0  0  0  0
  -24.7498  -32.5770   23.5693 C   0  0  0  0  0  0  0  0  0  0  0  0
  -23.3809  -33.6504   20.8314 C   0  0  0  0  0  0  0  0  0  0  0  0
  -23.0312  -33.3374   17.4511 C   0  0  0  0  0  0  0  0  0  0  0  0
  -29.3399  -15.9933   19.3572 C   0  0  0  0  0  0  0  0  0  0  0  0
  -25.5114  -34.3265   28.3040 C   0  0  0  0  0  0  0  0  0  0  0  0
  -26.7635  -32.8688   22.0807 C   0  0  0  0  0  0  0  0  0  0  0  0
  -24.5773  -31.4330   20.7009 C   0  0  0  0  0  0  0  0  0  0  0  0
  -29.3492  -24.4760   21.9347 C   0  0  0  0  0  0  0  0  0  0  0  0
  -24.5032  -34.5953   27.1897 C   0  0  0  0  0  0  0  0  0  0  0  0
  -29.9477  -12.3734   18.9872 C   0  0  0  0  0  0  0  0  0  0  0  0
  -23.9501  -33.2834   26.6424 C   0  0  0  0  0  0  0  0  0  0  0  0
  -28.7924  -11.7524   19.7705 C   0  0  0  0  0  0  0  0  0  0  0  0
  -29.2108  -22.9904   22.2237 C   0  0  0  0  0  0  0  0  0  0  0  0
  -29.5657  -13.7242   18.3893 C   0  0  0  0  0  0  0  0  0  0  0  0
  -27.8867  -14.0765   20.1745 C   0  0  0  0  0  0  0  0  0  0  0  0
  -25.0657  -32.4259   26.0327 C   0  0  1  0  0  0  0  0  0  0  0  0
  -25.2974  -33.2138   22.3234 C   0  0  1  0  0  0  0  0  0  0  0  0
  -28.2542  -12.7345   20.8254 C   0  0  1  0  0  0  0  0  0  0  0  0
  -21.8141  -34.3342   15.4960 C   0  0  0  0  0  0  0  0  0  0  0  0
  -20.8275  -32.2208   21.6952 C   0  0  0  0  0  0  0  0  0  0  0  0
  -19.9953  -32.4344   19.3436 C   0  0  0  0  0  0  0  0  0  0  0  0
  -20.4677  -34.4816   20.6884 C   0  0  0  0  0  0  0  0  0  0  0  0
  -29.7674  -15.8958   21.8021 C   0  0  0  0  0  0  0  0  0  0  0  0
  -25.5599  -34.1187   16.1268 C   0  0  0  0  0  0  0  0  0  0  0  0
  -28.8743  -27.0429   20.3275 C   0  0  0  0  0  0  0  0  0  1  0  0
  -22.3960  -33.0863   19.8360 C   0  0  1  0  0  0  0  0  0  0  0  0
  -23.0829  -34.3638   16.3338 C   0  0  2  0  0  0  0  0  0  0  0  0
  -20.9463  -33.0428   20.3963 C   0  0  0  0  0  0  0  0  0  0  0  0
  -26.2598  -11.2928   20.9872 N   0  0  0  0  0  0  0  0  0  0  0  0
  -27.0905  -12.1502   21.6045 N   0  0  0  0  0  0  0  0  0  0  0  0
  -29.2189  -22.3066   20.9400 N   0  0  0  0  0  0  0  0  0  0  0  0
  -24.4296  -32.8037   21.2175 N   0  0  0  0  0  0  0  0  0  0  0  0
  -29.0147  -14.6228   19.4044 N   0  0  0  0  0  0  0  0  0  0  0  0
  -27.4943  -13.2299   23.6737 N   0  0  0  0  0  0  0  0  0  0  0  0
  -23.8044  -10.7576   24.4912 N   0  0  0  0  0  0  0  0  0  0  0  0
  -25.4271  -32.9238   24.7228 N   0  0  0  0  0  0  0  0  0  0  0  0
  -22.5435  -33.8803   18.6210 N   0  0  0  0  0  0  0  0  0  0  0  0
  -29.4054  -16.6566   20.6017 N   0  0  0  0  0  0  0  0  0  0  0  0
  -24.2437  -34.0965   15.4382 N   0  3  0  0  0  0  0  0  0  0  0  0
  -29.0180  -22.9988   18.6671 O   0  0  0  0  0  0  0  0  0  0  0  0
  -25.2911  -12.2432   25.4084 O   0  0  0  0  0  0  0  0  0  0  0  0
  -23.7833  -31.8277   23.4903 O   0  0  0  0  0  0  0  0  0  0  0  0
  -23.2295  -34.8024   21.2455 O   0  0  0  0  0  0  0  0  0  0  0  0
  -23.3843  -32.1700   17.3000 O   0  0  0  0  0  0  0  0  0  0  0  0
  -29.5816  -16.5701   18.2902 O   0  0  0  0  0  0  0  0  0  0  0  0
  -21.1986   -7.4304   20.8615 O   0  0  0  0  0  0  0  0  0  0  0  0
  -27.5832  -27.6158   20.1249 O   0  0  0  0  0  0  0  0  0  1  0  0
  -16.1533   -8.7919   22.6208 F   0  0  0  0  0  0  0  0  0  0  0  0
  -30.2988  -21.0037   18.7163 F   0  0  0  0  0  0  0  0  0  0  0  0
  -19.1091   -7.7369   19.0774 F   0  0  0  0  0  0  0  0  0  0  0  0
  1  2  1  0  0  0  0
  1  5  2  0  0  0  0
  2  6  2  0  0  0  0
  3 10  2  0  0  0  0
  3 18  1  0  0  0  0
  4 11  1  0  0  0  0
  4 18  2  0  0  0  0
  5 20  1  0  0  0  0
  6 22  1  0  0  0  0
  7 12  2  0  0  0  0
  7 21  1  0  0  0  0
  8  9  2  0  0  0  0
  8 24  1  0  0  0  0
  9 25  1  0  0  0  0
 10 26  1  0  0  0  0
 11 26  2  0  0  0  0
 12 27  1  0  0  0  0
 13 14  2  0  0  0  0
 13 28  1  0  0  0  0
 14 29  1  0  0  0  0
 15 23  1  0  0  0  0
 15 27  2  0  0  0  0
 16 25  2  0  0  0  0
 16 30  1  0  0  0  0
 17 29  2  0  0  0  0
 17 31  1  0  0  0  0
 18 32  1  0  0  0  0
 19 32  1  0  0  0  0
 19 33  2  0  0  0  0
 19 37  1  0  0  0  0
 20 22  2  0  0  0  0
 20 42  1  0  0  0  0
 21 23  2  0  0  0  0
 21 43  1  0  0  0  0
 22 53  1  0  0  0  0
 23 44  1  0  0  0  0
 24 30  2  0  0  0  0
 24 68  1  0  0  0  0
 25 75  1  0  0  0  0
 26 83  1  0  0  0  0
 27 84  1  0  0  0  0
 28 31  2  0  0  0  0
 28 83  1  0  0  0  0
 29 85  1  0  0  0  0
 30 86  1  0  0  0  0
 31 87  1  0  0  0  0
 32 66  2  0  0  0  0
 33 67  1  0  0  0  0
 33 71  1  0  0  0  0
 34 35  1  0  0  0  0
 34 36  2  0  0  0  0
 34 45  1  0  0  0  0
 35 68  1  0  0  0  0
 35 77  2  0  0  0  0
 36 62  1  0  0  0  0
 37 72  1  0  0  0  0
 37 78  2  0  0  0  0
 38 54  1  0  0  0  0
 38 73  1  0  0  0  0
 38 79  2  0  0  0  0
 39 63  1  0  0  0  0
 39 69  1  0  0  0  0
 39 80  2  0  0  0  0
 40 64  1  0  0  0  0
 40 74  1  0  0  0  0
 40 81  2  0  0  0  0
 41 70  1  0  0  0  0
 41 75  1  0  0  0  0
 41 82  2  0  0  0  0
 42 46  1  0  0  0  0
 43 54  1  0  0  0  0
 44 69  1  0  0  0  0
 45 50  1  0  0  0  0
 46 48  1  0  0  0  0
 47 49  1  0  0  0  0
 47 51  1  0  0  0  0
 48 53  1  0  0  0  0
 49 55  1  0  0  0  0
 50 68  1  0  0  0  0
 51 70  1  0  0  0  0
 52 55  1  0  0  0  0
 52 70  1  0  0  0  0
 53 73  1  0  0  0  0
 54 69  1  0  0  0  0
 55 67  1  0  0  0  0
 56 64  1  0  0  0  0
 57 65  1  0  0  0  0
 58 65  1  0  0  0  0
 59 65  1  0  0  0  0
 60 75  1  0  0  0  0
 61 76  1  0  0  0  0
 62 84  1  0  0  0  0
 63 65  1  0  0  0  0
 63 74  1  0  0  0  0
 64 76  1  0  0  0  0
 66 67  1  0  0  0  0
M  CHG  1  76   1
M  ISO  4  41 100  62 101  75 100  84 101
M  END
> <Batch ID>
0082

> <Smiles>
CNC(C)C(=O)NC(C(=O)N1Cc2cc([101O:1][101CH2:1]C=C3CCN(c4ccc([100N:0](C)[100C:0](=O)N5CCCC(n6nc(-c7ccc(Oc8ccc(F)cc8F)cc7)c(C(N)=O)c6N)C5)cc4F)C3=O)ccc2CC1C(=O)NC1CCCc2ccccc21)C(C)(C)C

> <Shape>
0.255

> <Color>
0.104

> <Negative vol penalty>
0.000

$$$$

  -OEChem-04052300073D

 81 89  0     1  0  0  0  0  0999 V2000
  -16.8535  -20.0408   18.5894 C   0  0  0  0  0  0  0  0  0  0  0  0
  -18.2121  -20.0432   18.8891 C   0  0  0  0  0  0  0  0  0  0  0  0
  -32.0695  -17.2600   18.2303 C   0  0  0  0  0  0  0  0  0  0  0  0
  -24.6983  -28.6008   22.4694 C   0  0  0  0  0  0  0  0  0  0  0  0
  -25.3009  -30.1500   20.7161 C   0  0  0  0  0  0  0  0  0  0  0  0
  -30.8764  -17.9693   18.3104 C   0  0  0  0  0  0  0  0  0  0  0  0
  -16.0314  -19.0338   19.0933 C   0  0  0  0  0  0  0  0  0  0  0  0
  -18.7491  -19.0390   19.6939 C   0  0  0  0  0  0  0  0  0  0  0  0
  -23.0982  -17.2002   17.8638 C   0  0  0  0  0  0  0  0  0  0  0  0
  -24.1288  -29.6457   23.1969 C   0  0  0  0  0  0  0  0  0  0  0  0
  -24.7313  -31.1949   21.4436 C   0  0  0  0  0  0  0  0  0  0  0  0
  -24.2468  -17.9647   18.0636 C   0  0  0  0  0  0  0  0  0  0  0  0
  -25.5708  -33.1472   24.0732 C   0  0  0  0  0  0  0  0  0  0  0  0
  -26.2917  -34.3373   24.1708 C   0  0  0  0  0  0  0  0  0  0  0  0
  -24.8584  -16.5497   19.9192 C   0  0  0  0  0  0  0  0  0  0  0  0
  -24.4793  -35.5228   23.0999 C   0  0  0  0  0  0  0  0  0  0  0  0
  -32.2587  -16.2074   19.1113 C   0  0  0  0  0  0  0  0  0  0  0  0
  -30.2075  -16.5412   20.0907 C   0  0  0  0  0  0  0  0  0  0  0  0
  -25.2845  -28.8529   21.2290 C   0  0  0  0  0  0  0  0  0  0  0  0
  -29.9223  -17.6095   19.2557 C   0  0  0  0  0  0  0  0  0  0  0  0
  -25.2357  -26.9505   19.5301 C   0  0  0  0  0  0  0  0  0  0  0  0
  -16.5603  -18.0114   19.8968 C   0  0  0  0  0  0  0  0  0  0  0  0
  -22.8149  -16.1095   18.6984 C   0  0  0  0  0  0  0  0  0  0  0  0
  -17.9330  -18.0181   20.2102 C   0  0  0  0  0  0  0  0  0  0  0  0
  -23.7068  -15.7715   19.7262 C   0  0  0  0  0  0  0  0  0  0  0  0
  -24.1453  -30.9428   22.6841 C   0  0  0  0  0  0  0  0  0  0  0  0
  -25.1257  -17.6412   19.0932 C   0  0  0  0  0  0  0  0  0  0  0  0
  -24.3042  -33.1448   23.4890 C   0  0  0  0  0  0  0  0  0  0  0  0
  -25.7460  -35.5251   23.6841 C   0  0  0  0  0  0  0  0  0  0  0  0
  -23.7584  -34.3327   23.0024 C   0  0  0  0  0  0  0  0  0  0  0  0
  -25.8735  -27.7740   20.4772 C   0  0  0  0  0  0  0  0  0  0  0  0
  -26.2187  -26.0898   19.1063 C   0  0  0  0  0  0  0  0  0  0  0  0
  -27.4600  -17.7467   19.1980 C   0  0  0  0  0  0  0  0  0  1  0  0
  -28.6118  -19.8008   19.6540 C   0  0  0  0  0  0  0  0  0  0  0  0
  -28.6505  -18.3403   19.3659 C   0  0  0  0  0  0  0  0  0  0  0  0
  -23.8765  -26.9625   19.0742 C   0  0  0  0  0  0  0  0  0  0  0  0
  -20.4659  -15.3747   20.7099 C   0  0  0  0  0  0  0  0  0  0  0  0
  -22.0259  -12.5358   20.8810 C   0  0  0  0  0  0  0  0  0  0  0  0
  -24.9489  -10.8103   20.5272 C   0  0  0  0  0  0  0  0  0  0  0  0
  -30.5132  -22.6631   20.3003 C   0  0  0  0  0  0  0  0  0  0  0  0
  -15.6237  -16.9707   20.4574 C   0  0  0  0  0  0  0  0  0  0  0  0
  -21.5853  -15.2787   18.4530 C   0  0  0  0  0  0  0  0  0  0  0  0
  -23.4589  -14.5980   20.6373 C   0  0  0  0  0  0  0  0  0  0  0  0
  -16.3389  -15.7337   20.9946 C   0  0  0  0  0  0  0  0  0  0  0  0
  -31.2091  -26.1529   19.8633 C   0  0  0  0  0  0  0  0  0  0  0  0
  -17.5231  -16.1385   21.8669 C   0  0  0  0  0  0  0  0  0  0  0  0
  -29.8371  -26.8201   19.9352 C   0  0  0  0  0  0  0  0  0  0  0  0
  -31.2953  -24.9563   20.8051 C   0  0  0  0  0  0  0  0  0  0  0  0
  -28.8554  -24.5949   20.6574 C   0  0  0  0  0  0  0  0  0  0  0  0
  -18.5572  -16.9322   21.0594 C   0  0  1  0  0  0  0  0  0  0  0  0
  -21.1335  -14.5015   19.6855 C   0  0  1  0  0  0  0  0  0  0  0  0
  -28.7139  -25.7952   19.7027 C   0  0  1  0  0  0  0  0  0  0  0  0
  -25.9208   -8.5099   20.7746 C   0  0  0  0  0  0  0  0  0  0  0  0
  -22.0535  -12.8762   23.9131 C   0  0  0  0  0  0  0  0  0  0  0  0
  -23.8157  -11.1014   24.0264 C   0  0  0  0  0  0  0  0  0  0  0  0
  -21.5535  -10.5548   23.1284 C   0  0  0  0  0  0  0  0  0  0  0  0
  -25.6706  -10.6807   17.6599 C   0  0  0  0  0  0  0  0  0  0  0  0
  -23.1267  -11.9713   21.7462 C   0  0  1  0  0  0  0  0  0  0  0  0
  -25.2681   -9.5026   19.8253 C   0  0  2  0  0  0  0  0  0  0  0  0
  -22.6413  -11.6493   23.1878 C   0  0  0  0  0  0  0  0  0  0  0  0
  -31.3552  -15.8284   20.0427 N   0  0  0  0  0  0  0  0  0  0  0  0
  -27.1617  -27.4642   20.6455 N   0  0  0  0  0  0  0  0  0  0  0  0
  -29.6773  -20.5144   19.8243 N   0  0  0  0  0  0  0  0  0  0  0  0
  -27.3415  -26.4364   19.7986 N   0  0  0  0  0  0  0  0  0  0  0  0
  -22.2398  -13.8202   20.3609 N   0  0  0  0  0  0  0  0  0  0  0  0
  -30.2031  -24.0090   20.5618 N   0  0  0  0  0  0  0  0  0  0  0  0
  -26.2233  -25.0779   18.2128 N   0  0  0  0  0  0  0  0  0  0  0  0
  -22.9992  -27.9131   19.6136 N   0  0  0  0  0  0  0  0  0  0  0  0
  -19.3505  -16.0414   20.2399 N   0  0  0  0  0  0  0  0  0  0  0  0
  -23.6634  -10.8219   21.0256 N   0  0  0  0  0  0  0  0  0  0  0  0
  -29.4326  -21.8234   20.0804 N   0  0  0  0  0  0  0  0  0  0  0  0
  -26.1957   -9.7406   18.6834 N   0  3  0  0  0  0  0  0  0  0  0  0
  -23.4483  -26.1436   18.2259 O   0  0  0  0  0  0  0  0  0  0  0  0
  -20.9277  -15.4378   21.8432 O   0  0  0  0  0  0  0  0  0  0  0  0
  -21.0166  -11.8592   20.6685 O   0  0  0  0  0  0  0  0  0  0  0  0
  -25.7602  -11.7281   20.6268 O   0  0  0  0  0  0  0  0  0  0  0  0
  -31.6748  -22.2407   20.2663 O   0  0  0  0  0  0  0  0  0  0  0  0
  -23.5894  -31.9626   23.3936 O   0  0  0  0  0  0  0  0  0  0  0  0
  -26.2549  -18.3912   19.2922 O   0  0  0  0  0  0  0  0  0  1  0  0
  -26.4377  -36.6682   23.7792 F   0  0  0  0  0  0  0  0  0  0  0  0
  -22.5415  -34.3369   22.4412 F   0  0  0  0  0  0  0  0  0  0  0  0
  1  2  1  0  0  0  0
  1  7  2  0  0  0  0
  2  8  2  0  0  0  0
  3  6  2  0  0  0  0
  3 17  1  0  0  0  0
  4 10  2  0  0  0  0
  4 19  1  0  0  0  0
  5 11  1  0  0  0  0
  5 19  2  0  0  0  0
  6 20  1  0  0  0  0
  7 22  1  0  0  0  0
  8 24  1  0  0  0  0
  9 12  2  0  0  0  0
  9 23  1  0  0  0  0
 10 26  1  0  0  0  0
 11 26  2  0  0  0  0
 12 27  1  0  0  0  0
 13 14  2  0  0  0  0
 13 28  1  0  0  0  0
 14 29  1  0  0  0  0
 15 25  1  0  0  0  0
 15 27  2  0  0  0  0
 16 29  2  0  0  0  0
 16 30  1  0  0  0  0
 17 61  2  0  0  0  0
 18 20  2  0  0  0  0
 18 61  1  0  0  0  0
 19 31  1  0  0  0  0
 20 35  1  0  0  0  0
 21 31  1  0  0  0  0
 21 32  2  0  0  0  0
 21 36  1  0  0  0  0
 22 24  2  0  0  0  0
 22 41  1  0  0  0  0
 23 25  2  0  0  0  0
 23 42  1  0  0  0  0
 24 50  1  0  0  0  0
 25 43  1  0  0  0  0
 26 78  1  0  0  0  0
 27 79  1  0  0  0  0
 28 30  2  0  0  0  0
 28 78  1  0  0  0  0
 29 80  1  0  0  0  0
 30 81  1  0  0  0  0
 31 62  2  0  0  0  0
 32 64  1  0  0  0  0
 32 67  1  0  0  0  0
 33 35  2  0  0  0  0
 33 79  1  0  0  0  0
 34 35  1  0  0  0  0
 34 63  2  0  0  0  0
 36 68  1  0  0  0  0
 36 73  2  0  0  0  0
 37 51  1  0  0  0  0
 37 69  1  0  0  0  0
 37 74  2  0  0  0  0
 38 58  1  0  0  0  0
 38 65  1  0  0  0  0
 38 75  2  0  0  0  0
 39 59  1  0  0  0  0
 39 70  1  0  0  0  0
 39 76  2  0  0  0  0
 40 66  1  0  0  0  0
 40 71  1  0  0  0  0
 40 77  2  0  0  0  0
 41 44  1  0  0  0  0
 42 51  1  0  0  0  0
 43 65  1  0  0  0  0
 44 46  1  0  0  0  0
 45 47  1  0  0  0  0
 45 48  1  0  0  0  0
 46 50  1  0  0  0  0
 47 52  1  0  0  0  0
 48 66  1  0  0  0  0
 49 52  1  0  0  0  0
 49 66  1  0  0  0  0
 50 69  1  0  0  0  0
 51 65  1  0  0  0  0
 52 64  1  0  0  0  0
 53 59  1  0  0  0  0
 54 60  1  0  0  0  0
 55 60  1  0  0  0  0
 56 60  1  0  0  0  0
 57 72  1  0  0  0  0
 58 60  1  0  0  0  0
 58 70  1  0  0  0  0
 59 72  1  0  0  0  0
 62 64  1  0  0  0  0
 63 71  1  0  0  0  0
M  CHG  1  72   1
M  ISO  4  33 101  40 100  71 100  79 101
M  END
> <Batch ID>
0082

> <Smiles>
CNC(C)C(=O)NC(C(=O)N1Cc2cc([101O:1][101CH:1]=C(C=N[100NH:0][100C:0](=O)N3CCCC(n4nc(-c5ccc(Oc6ccc(F)cc6F)cc5)c(C(N)=O)c4N)C3)c3cccnc3)ccc2CC1C(=O)NC1CCCc2ccccc21)C(C)(C)C

> <Shape>
0.234

> <Color>
0.068

> <Negative vol penalty>
0.000

$$$$

  -OEChem-04052300073D

 85 94  0     1  0  0  0  0  0999 V2000
  -27.2374  -37.6215   21.1659 C   0  0  0  0  0  0  0  0  0  0  0  0
  -27.7981  -36.3905   20.8408 C   0  0  0  0  0  0  0  0  0  0  0  0
  -26.2982  -11.7086   21.0666 C   0  0  0  0  0  0  0  0  0  0  0  0
  -25.6113  -13.8356   20.1494 C   0  0  0  0  0  0  0  0  0  0  0  0
  -26.2326  -37.6958   22.1297 C   0  0  0  0  0  0  0  0  0  0  0  0
  -27.3552  -35.2332   21.4801 C   0  0  0  0  0  0  0  0  0  0  0  0
  -26.8813  -29.6339   19.0452 C   0  0  0  0  0  0  0  0  0  0  0  0
  -30.6942  -21.4208   19.4830 C   0  0  0  0  0  0  0  0  0  0  0  0
  -32.5421  -21.4912   21.0378 C   0  0  0  0  0  0  0  0  0  0  0  0
  -30.8232  -20.0349   19.3924 C   0  0  0  0  0  0  0  0  0  0  0  0
  -32.6711  -20.1052   20.9472 C   0  0  0  0  0  0  0  0  0  0  0  0
  -25.0607  -11.5810   21.6973 C   0  0  0  0  0  0  0  0  0  0  0  0
  -24.3738  -13.7080   20.7802 C   0  0  0  0  0  0  0  0  0  0  0  0
  -27.7126  -28.5157   19.0955 C   0  0  0  0  0  0  0  0  0  0  0  0
  -21.9086  -10.7041   20.8440 C   0  0  0  0  0  0  0  0  0  0  0  0
  -21.2634   -9.4701   20.7620 C   0  0  0  0  0  0  0  0  0  0  0  0
  -26.4062  -27.6341   20.9217 C   0  0  0  0  0  0  0  0  0  0  0  0
  -21.3028   -9.2894   23.1709 C   0  0  0  0  0  0  0  0  0  0  0  0
  -26.5735  -12.8360   20.2926 C   0  0  0  0  0  0  0  0  0  0  0  0
  -28.1988  -12.5247   18.3512 C   0  0  0  0  0  0  0  0  0  0  0  0
  -25.7704  -36.5375   22.7742 C   0  0  0  0  0  0  0  0  0  0  0  0
  -25.8110  -29.7659   19.9415 C   0  0  0  0  0  0  0  0  0  0  0  0
  -26.3442  -35.2922   22.4544 C   0  0  0  0  0  0  0  0  0  0  0  0
  -25.5612  -28.7536   20.8790 C   0  0  0  0  0  0  0  0  0  0  0  0
  -31.5537  -22.1490   20.3056 C   0  0  0  0  0  0  0  0  0  0  0  0
  -31.8116  -19.3771   20.1245 C   0  0  0  0  0  0  0  0  0  0  0  0
  -24.0984  -12.5806   21.5541 C   0  0  0  0  0  0  0  0  0  0  0  0
  -27.4769  -27.5170   20.0357 C   0  0  0  0  0  0  0  0  0  0  0  0
  -22.2509  -11.2307   22.0895 C   0  0  0  0  0  0  0  0  0  0  0  0
  -20.9605   -8.7628   21.9254 C   0  0  0  0  0  0  0  0  0  0  0  0
  -21.9480  -10.5234   23.2529 C   0  0  0  0  0  0  0  0  0  0  0  0
  -27.8519  -12.9687   19.6413 C   0  0  0  0  0  0  0  0  0  0  0  0
  -29.5154  -12.8880   18.2056 C   0  0  0  0  0  0  0  0  0  0  0  0
  -30.5007  -25.6261   20.4062 C   0  0  0  0  0  0  0  0  0  0  0  0
  -31.9384  -25.7795   20.6680 C   0  0  0  0  0  0  0  0  0  0  0  0
  -30.1865  -24.1931   20.2354 C   0  0  0  0  0  0  0  0  0  0  0  0
  -29.6169  -26.6214   20.3340 C   0  0  0  0  0  0  0  0  0  1  0  0
  -27.4022  -11.8448   17.3720 C   0  0  0  0  0  0  0  0  0  0  0  0
  -25.0331  -31.8459   22.2156 C   0  0  0  0  0  0  0  0  0  0  0  0
  -22.2894  -30.1183   22.3147 C   0  0  0  0  0  0  0  0  0  0  0  0
  -20.7080  -27.1553   21.7091 C   0  0  0  0  0  0  0  0  0  0  0  0
  -32.8697  -17.1625   20.6921 C   0  0  0  0  0  0  0  0  0  0  0  0
  -24.7153  -36.6737   23.8433 C   0  0  0  0  0  0  0  0  0  0  0  0
  -24.9074  -30.9654   19.8567 C   0  0  0  0  0  0  0  0  0  0  0  0
  -24.4131  -28.8379   21.8502 C   0  0  0  0  0  0  0  0  0  0  0  0
  -32.5721  -24.4197   20.6662 C   0  0  0  0  0  0  0  0  0  0  0  0
  -24.0406  -35.3530   24.2049 C   0  0  0  0  0  0  0  0  0  0  0  0
  -33.4924  -13.6575   20.7601 C   0  0  0  0  0  0  0  0  0  0  0  0
  -25.0831  -34.2566   24.3993 C   0  0  0  0  0  0  0  0  0  0  0  0
  -32.1499  -13.0429   20.3576 C   0  0  0  0  0  0  0  0  0  0  0  0
  -33.3093  -14.9023   21.6266 C   0  0  0  0  0  0  0  0  0  0  0  0
  -31.0819  -15.3137   20.6577 C   0  0  0  0  0  0  0  0  0  0  0  0
  -25.8731  -34.0113   23.1081 C   0  0  1  0  0  0  0  0  0  0  0  0
  -24.1566  -31.2409   21.1558 C   0  0  1  0  0  0  0  0  0  0  0  0
  -31.2141  -14.0947   19.7302 C   0  0  2  0  0  0  0  0  0  0  0  0
  -18.4737  -26.0341   21.9286 C   0  0  0  0  0  0  0  0  0  0  0  0
  -22.7501  -29.7927   25.3133 C   0  0  0  0  0  0  0  0  0  0  0  0
  -21.0766  -27.9306   25.2976 C   0  0  0  0  0  0  0  0  0  0  0  0
  -20.3764  -30.2398   24.6650 C   0  0  0  0  0  0  0  0  0  0  0  0
  -20.5037  -26.7317   18.7872 C   0  0  0  0  0  0  0  0  0  0  0  0
  -21.8184  -28.9027   23.0759 C   0  0  1  0  0  0  0  0  0  0  0  0
  -19.3923  -26.8379   21.0215 C   0  0  2  0  0  0  0  0  0  0  0  0
  -21.5282  -29.2155   24.5711 C   0  0  0  0  0  0  0  0  0  0  0  0
  -28.8662  -13.5681   20.2705 N   0  0  0  0  0  0  0  0  0  0  0  0
  -29.8635  -13.5032   19.3720 N   0  0  0  0  0  0  0  0  0  0  0  0
  -31.4253  -23.5331   20.3959 N   0  0  0  0  0  0  0  0  0  0  0  0
  -23.5618  -30.0332   21.7319 N   0  0  0  0  0  0  0  0  0  0  0  0
  -32.4145  -15.8555   20.9666 N   0  0  0  0  0  0  0  0  0  0  0  0
  -30.3976  -12.7379   17.1949 N   0  0  0  0  0  0  0  0  0  0  0  0
  -26.0686  -11.5481   17.6847 N   0  0  0  0  0  0  0  0  0  0  0  0
  -31.9429  -17.9692   20.0327 N   0  0  0  0  0  0  0  0  0  0  0  0
  -25.0902  -33.2261   22.1780 N   0  0  0  0  0  0  0  0  0  0  0  0
  -20.6713  -28.3802   22.3413 N   0  0  0  0  0  0  0  0  0  0  0  0
  -19.6338  -26.0499   19.7799 N   0  3  0  0  0  0  0  0  0  0  0  0
  -32.5194  -26.8347   20.8550 O   0  0  0  0  0  0  0  0  0  0  0  0
  -29.0856  -23.7233   20.0068 O   0  0  0  0  0  0  0  0  0  0  0  0
  -27.8642  -11.4956   16.2593 O   0  0  0  0  0  0  0  0  0  0  0  0
  -25.6133  -31.1149   23.0097 O   0  0  0  0  0  0  0  0  0  0  0  0
  -21.5526  -31.1043   22.2339 O   0  0  0  0  0  0  0  0  0  0  0  0
  -21.6705  -26.3914   21.6907 O   0  0  0  0  0  0  0  0  0  0  0  0
  -34.0082  -17.5298   20.9935 O   0  0  0  0  0  0  0  0  0  0  0  0
  -22.8907  -12.4562   22.1692 O   0  0  0  0  0  0  0  0  0  0  0  0
  -28.2871  -26.4249   20.0874 O   0  0  0  0  0  0  0  0  0  1  0  0
  -20.3396   -7.5786   21.8466 F   0  0  0  0  0  0  0  0  0  0  0  0
  -22.2733  -11.0248   24.4523 F   0  0  0  0  0  0  0  0  0  0  0  0
  1  2  1  0  0  0  0
  1  5  2  0  0  0  0
  2  6  2  0  0  0  0
  3 12  2  0  0  0  0
  3 19  1  0  0  0  0
  4 13  1  0  0  0  0
  4 19  2  0  0  0  0
  5 21  1  0  0  0  0
  6 23  1  0  0  0  0
  7 14  2  0  0  0  0
  7 22  1  0  0  0  0
  8 10  2  0  0  0  0
  8 25  1  0  0  0  0
  9 11  1  0  0  0  0
  9 25  2  0  0  0  0
 10 26  1  0  0  0  0
 11 26  2  0  0  0  0
 12 27  1  0  0  0  0
 13 27  2  0  0  0  0
 14 28  1  0  0  0  0
 15 16  2  0  0  0  0
 15 29  1  0  0  0  0
 16 30  1  0  0  0  0
 17 24  1  0  0  0  0
 17 28  2  0  0  0  0
 18 30  2  0  0  0  0
 18 31  1  0  0  0  0
 19 32  1  0  0  0  0
 20 32  1  0  0  0  0
 20 33  2  0  0  0  0
 20 38  1  0  0  0  0
 21 23  2  0  0  0  0
 21 43  1  0  0  0  0
 22 24  2  0  0  0  0
 22 44  1  0  0  0  0
 23 53  1  0  0  0  0
 24 45  1  0  0  0  0
 25 66  1  0  0  0  0
 26 71  1  0  0  0  0
 27 82  1  0  0  0  0
 28 83  1  0  0  0  0
 29 31  2  0  0  0  0
 29 82  1  0  0  0  0
 30 84  1  0  0  0  0
 31 85  1  0  0  0  0
 32 64  2  0  0  0  0
 33 65  1  0  0  0  0
 33 69  1  0  0  0  0
 34 35  1  0  0  0  0
 34 36  1  0  0  0  0
 34 37  2  0  0  0  0
 35 46  1  0  0  0  0
 35 75  2  0  0  0  0
 36 66  1  0  0  0  0
 36 76  2  0  0  0  0
 37 83  1  0  0  0  0
 38 70  1  0  0  0  0
 38 77  2  0  0  0  0
 39 54  1  0  0  0  0
 39 72  1  0  0  0  0
 39 78  2  0  0  0  0
 40 61  1  0  0  0  0
 40 67  1  0  0  0  0
 40 79  2  0  0  0  0
 41 62  1  0  0  0  0
 41 73  1  0  0  0  0
 41 80  2  0  0  0  0
 42 68  1  0  0  0  0
 42 71  1  0  0  0  0
 42 81  2  0  0  0  0
 43 47  1  0  0  0  0
 44 54  1  0  0  0  0
 45 67  1  0  0  0  0
 46 66  1  0  0  0  0
 47 49  1  0  0  0  0
 48 50  1  0  0  0  0
 48 51  1  0  0  0  0
 49 53  1  0  0  0  0
 50 55  1  0  0  0  0
 51 68  1  0  0  0  0
 52 55  1  0  0  0  0
 52 68  1  0  0  0  0
 53 72  1  0  0  0  0
 54 67  1  0  0  0  0
 55 65  1  0  0  0  0
 56 62  1  0  0  0  0
 57 63  1  0  0  0  0
 58 63  1  0  0  0  0
 59 63  1  0  0  0  0
 60 74  1  0  0  0  0
 61 63  1  0  0  0  0
 61 73  1  0  0  0  0
 62 74  1  0  0  0  0
 64 65  1  0  0  0  0
M  CHG  1  74   1
M  ISO  4  37 101  42 100  71 100  83 101
M  END
> <Batch ID>
0082

> <Smiles>
CNC(C)C(=O)NC(C(=O)N1Cc2cc([101O:1][101CH:1]=C3C(=O)CN(c4ccc([100NH:0][100C:0](=O)N5CCCC(n6nc(-c7ccc(Oc8ccc(F)cc8F)cc7)c(C(N)=O)c6N)C5)cc4)C3=O)ccc2CC1C(=O)NC1CCCc2ccccc21)C(C)(C)C

> <Shape>
0.325

> <Color>
0.086

> <Negative vol penalty>
0.000

$$$$

  -OEChem-04052300073D

 86 95  0     1  0  0  0  0  0999 V2000
  -31.4872  -34.3139   22.5511 C   0  0  0  0  0  0  0  0  0  0  0  0
  -31.3781  -33.0589   21.9609 C   0  0  0  0  0  0  0  0  0  0  0  0
  -23.0323   -9.9508   19.9743 C   0  0  0  0  0  0  0  0  0  0  0  0
  -23.8596   -9.9350   22.2442 C   0  0  0  0  0  0  0  0  0  0  0  0
  -29.3101  -17.0029   19.7778 C   0  0  0  0  0  0  0  0  0  0  0  0
  -30.6278  -34.6720   23.5890 C   0  0  0  0  0  0  0  0  0  0  0  0
  -30.4102  -32.1607   22.4089 C   0  0  0  0  0  0  0  0  0  0  0  0
  -27.3007  -28.1099   19.0283 C   0  0  0  0  0  0  0  0  0  0  0  0
  -28.6029  -18.1251   19.3464 C   0  0  0  0  0  0  0  0  0  0  0  0
  -22.2832   -8.8044   20.2393 C   0  0  0  0  0  0  0  0  0  0  0  0
  -23.1105   -8.7885   22.5092 C   0  0  0  0  0  0  0  0  0  0  0  0
  -27.4745  -26.7448   18.8051 C   0  0  0  0  0  0  0  0  0  0  0  0
  -19.8928   -8.0226   23.2022 C   0  0  0  0  0  0  0  0  0  0  0  0
  -19.1704   -7.9836   24.3947 C   0  0  0  0  0  0  0  0  0  0  0  0
  -28.9375  -17.6511   22.0752 C   0  0  0  0  0  0  0  0  0  0  0  0
  -25.8642  -26.2630   20.5354 C   0  0  0  0  0  0  0  0  0  0  0  0
  -26.0866  -21.4905   18.6274 C   0  0  0  0  0  0  0  0  0  0  0  0
  -20.4112   -6.0280   25.0825 C   0  0  0  0  0  0  0  0  0  0  0  0
  -27.2889  -21.3203   20.5235 C   0  0  0  0  0  0  0  0  0  0  0  0
  -23.8205  -10.5161   20.9767 C   0  0  0  0  0  0  0  0  0  0  0  0
  -29.4773  -16.7658   21.1422 C   0  0  0  0  0  0  0  0  0  0  0  0
  -24.1870  -13.0380   20.8618 C   0  0  0  0  0  0  0  0  0  0  0  0
  -29.6425  -33.7813   24.0435 C   0  0  0  0  0  0  0  0  0  0  0  0
  -26.4140  -28.5625   20.0159 C   0  0  0  0  0  0  0  0  0  0  0  0
  -29.5377  -32.5067   23.4547 C   0  0  0  0  0  0  0  0  0  0  0  0
  -25.6790  -27.6345   20.7675 C   0  0  0  0  0  0  0  0  0  0  0  0
  -26.5055  -22.1836   19.7898 C   0  0  0  0  0  0  0  0  0  0  0  0
  -28.0630  -19.0104   20.2794 C   0  0  0  0  0  0  0  0  0  0  0  0
  -22.3223   -8.2233   21.5067 C   0  0  0  0  0  0  0  0  0  0  0  0
  -26.7583  -25.8210   19.5607 C   0  0  0  0  0  0  0  0  0  0  0  0
  -20.8744   -7.0642   22.9498 C   0  0  0  0  0  0  0  0  0  0  0  0
  -19.4296   -6.9864   25.3349 C   0  0  0  0  0  0  0  0  0  0  0  0
  -28.2304  -18.7734   21.6438 C   0  0  0  0  0  0  0  0  0  0  0  0
  -21.1336   -6.0670   23.8899 C   0  0  0  0  0  0  0  0  0  0  0  0
  -24.5950  -11.7000   20.7035 C   0  0  0  0  0  0  0  0  0  0  0  0
  -25.2762  -13.7777   20.4708 C   0  0  0  0  0  0  0  0  0  0  0  0
  -26.6266  -20.2247   18.6862 C   0  0  0  0  0  0  0  0  0  0  0  0
  -30.2152  -15.5960   21.5917 C   0  0  0  0  0  0  0  0  0  0  0  0
  -22.9353  -13.5652   21.3212 C   0  0  0  0  0  0  0  0  0  0  0  0
  -30.8015  -14.6368   20.6277 C   0  0  0  0  0  0  0  0  0  0  0  0
  -26.7087  -30.2563   22.6894 C   0  0  0  0  0  0  0  0  0  0  0  0
  -23.4688  -30.0965   22.6862 C   0  0  0  0  0  0  0  0  0  0  0  0
  -20.6497  -28.4620   21.6723 C   0  0  0  0  0  0  0  0  0  0  0  0
  -28.7674  -34.1954   25.1999 C   0  0  0  0  0  0  0  0  0  0  0  0
  -26.2180  -30.0389   20.2261 C   0  0  0  0  0  0  0  0  0  0  0  0
  -24.6995  -28.0691   21.8258 C   0  0  0  0  0  0  0  0  0  0  0  0
  -27.5234  -33.3261   25.3642 C   0  0  0  0  0  0  0  0  0  0  0  0
  -29.5322  -12.4050   18.1248 C   0  0  0  0  0  0  0  0  0  0  0  0
  -27.8887  -31.8481   25.2693 C   0  0  0  0  0  0  0  0  0  0  0  0
  -28.1141  -12.1026   18.6078 C   0  0  0  0  0  0  0  0  0  0  0  0
  -30.4934  -12.5881   19.2948 C   0  0  0  0  0  0  0  0  0  0  0  0
  -28.6378  -13.3322   20.7617 C   0  0  0  0  0  0  0  0  0  0  0  0
  -28.4842  -31.5141   23.8963 C   0  0  1  0  0  0  0  0  0  0  0  0
  -25.6712  -30.3781   21.6094 C   0  0  1  0  0  0  0  0  0  0  0  0
  -27.6326  -13.1682   19.6084 C   0  0  2  0  0  0  0  0  0  0  0  0
  -18.1486  -28.5473   21.8584 C   0  0  0  0  0  0  0  0  0  0  0  0
  -23.6450  -28.9968   25.5269 C   0  0  0  0  0  0  0  0  0  0  0  0
  -21.2736  -28.2263   25.3012 C   0  0  0  0  0  0  0  0  0  0  0  0
  -21.8115  -30.6583   25.1634 C   0  0  0  0  0  0  0  0  0  0  0  0
  -20.3272  -28.7841   18.7481 C   0  0  0  0  0  0  0  0  0  0  0  0
  -26.1607  -23.5973   20.1556 C   0  0  0  0  0  0  0  0  0  1  0  0
  -22.4451  -29.1380   23.2452 C   0  0  1  0  0  0  0  0  0  0  0  0
  -19.3630  -28.9673   21.0450 C   0  0  2  0  0  0  0  0  0  0  0  0
  -22.3136  -29.2463   24.7906 C   0  0  0  0  0  0  0  0  0  0  0  0
  -25.8458  -11.5929   20.2474 N   0  0  0  0  0  0  0  0  0  0  0  0
  -30.4120  -15.3132   22.8512 N   0  0  0  0  0  0  0  0  0  0  0  0
  -27.3552  -20.1324   19.8433 N   0  0  0  0  0  0  0  0  0  0  0  0
  -26.2331  -12.8730   20.1156 N   0  0  0  0  0  0  0  0  0  0  0  0
  -29.9891  -13.5794   20.2430 N   0  0  0  0  0  0  0  0  0  0  0  0
  -24.5477  -29.5233   21.9983 N   0  0  0  0  0  0  0  0  0  0  0  0
  -25.4993  -15.1072   20.3996 N   0  0  0  0  0  0  0  0  0  0  0  0
  -21.9236  -12.6651   21.6828 N   0  0  0  0  0  0  0  0  0  0  0  0
  -27.4370  -31.4111   22.9027 N   0  0  0  0  0  0  0  0  0  0  0  0
  -21.2056  -29.3963   22.5205 N   0  0  0  0  0  0  0  0  0  0  0  0
  -19.2132  -28.4274   19.6640 N   0  3  0  0  0  0  0  0  0  0  0  0
  -22.7146  -14.7979   21.3929 O   0  0  0  0  0  0  0  0  0  0  0  0
  -31.9470  -14.8806   20.2717 O   0  0  0  0  0  0  0  0  0  0  0  0
  -26.8378  -29.1938   23.2862 O   0  0  0  0  0  0  0  0  0  0  0  0
  -23.3131  -31.3095   22.8477 O   0  0  0  0  0  0  0  0  0  0  0  0
  -21.1132  -27.3484   21.4367 O   0  0  0  0  0  0  0  0  0  0  0  0
  -26.5269  -19.2048   17.8422 O   0  0  0  0  0  0  0  0  0  0  0  0
  -21.5913   -7.1047   21.7657 O   0  0  0  0  0  0  0  0  0  0  0  0
  -26.9265  -24.4879   19.3452 O   0  0  0  0  0  0  0  0  0  1  0  0
  -18.7368   -6.9500   26.4807 F   0  0  0  0  0  0  0  0  0  0  0  0
  -27.7159  -19.6164   22.5509 F   0  0  0  0  0  0  0  0  0  0  0  0
  -22.0762   -5.1442   23.6535 F   0  0  0  0  0  0  0  0  0  0  0  0
  1  2  1  0  0  0  0
  1  6  2  0  0  0  0
  2  7  2  0  0  0  0
  3 10  2  0  0  0  0
  3 20  1  0  0  0  0
  4 11  1  0  0  0  0
  4 20  2  0  0  0  0
  5  9  2  0  0  0  0
  5 21  1  0  0  0  0
  6 23  1  0  0  0  0
  7 25  1  0  0  0  0
  8 12  2  0  0  0  0
  8 24  1  0  0  0  0
  9 28  1  0  0  0  0
 10 29  1  0  0  0  0
 11 29  2  0  0  0  0
 12 30  1  0  0  0  0
 13 14  2  0  0  0  0
 13 31  1  0  0  0  0
 14 32  1  0  0  0  0
 15 21  2  0  0  0  0
 15 33  1  0  0  0  0
 16 26  1  0  0  0  0
 16 30  2  0  0  0  0
 17 27  1  0  0  0  0
 17 37  2  0  0  0  0
 18 32  2  0  0  0  0
 18 34  1  0  0  0  0
 19 27  2  0  0  0  0
 19 67  1  0  0  0  0
 20 35  1  0  0  0  0
 21 38  1  0  0  0  0
 22 35  1  0  0  0  0
 22 36  2  0  0  0  0
 22 39  1  0  0  0  0
 23 25  2  0  0  0  0
 23 44  1  0  0  0  0
 24 26  2  0  0  0  0
 24 45  1  0  0  0  0
 25 53  1  0  0  0  0
 26 46  1  0  0  0  0
 27 61  1  0  0  0  0
 28 33  2  0  0  0  0
 28 67  1  0  0  0  0
 29 82  1  0  0  0  0
 30 83  1  0  0  0  0
 31 34  2  0  0  0  0
 31 82  1  0  0  0  0
 32 84  1  0  0  0  0
 33 85  1  0  0  0  0
 34 86  1  0  0  0  0
 35 65  2  0  0  0  0
 36 68  1  0  0  0  0
 36 71  1  0  0  0  0
 37 67  1  0  0  0  0
 37 81  1  0  0  0  0
 38 40  1  0  0  0  0
 38 66  2  0  0  0  0
 39 72  1  0  0  0  0
 39 76  2  0  0  0  0
 40 69  1  0  0  0  0
 40 77  2  0  0  0  0
 41 54  1  0  0  0  0
 41 73  1  0  0  0  0
 41 78  2  0  0  0  0
 42 62  1  0  0  0  0
 42 70  1  0  0  0  0
 42 79  2  0  0  0  0
 43 63  1  0  0  0  0
 43 74  1  0  0  0  0
 43 80  2  0  0  0  0
 44 47  1  0  0  0  0
 45 54  1  0  0  0  0
 46 70  1  0  0  0  0
 47 49  1  0  0  0  0
 48 50  1  0  0  0  0
 48 51  1  0  0  0  0
 49 53  1  0  0  0  0
 50 55  1  0  0  0  0
 51 69  1  0  0  0  0
 52 55  1  0  0  0  0
 52 69  1  0  0  0  0
 53 73  1  0  0  0  0
 54 70  1  0  0  0  0
 55 68  1  0  0  0  0
 56 63  1  0  0  0  0
 57 64  1  0  0  0  0
 58 64  1  0  0  0  0
 59 64  1  0  0  0  0
 60 75  1  0  0  0  0
 61 83  1  0  0  0  0
 62 64  1  0  0  0  0
 62 74  1  0  0  0  0
 63 75  1  0  0  0  0
 65 68  1  0  0  0  0
M  CHG  1  75   1
M  ISO  4  38 100  40 100  61 101  83 101
M  END
> <Batch ID>
0082

> <Smiles>
CNC(C)C(=O)NC(C(=O)N1Cc2cc([101O:1][101CH2:1]C3=CN(c4ccc([100C:0](=N)[100C:0](=O)N5CCCC(n6nc(-c7ccc(Oc8ccc(F)cc8F)cc7)c(C(N)=O)c6N)C5)cc4F)C(=O)C3)ccc2CC1C(=O)NC1CCCc2ccccc21)C(C)(C)C

> <Shape>
0.352

> <Color>
0.223

> <Negative vol penalty>
0.000

$$$$

  -OEChem-04052300073D

 85 94  0     1  0  0  0  0  0999 V2000
  -33.9336  -34.5881   20.0411 C   0  0  0  0  0  0  0  0  0  0  0  0
  -33.4504  -33.2920   20.1898 C   0  0  0  0  0  0  0  0  0  0  0  0
  -24.3848   -8.6676   21.3879 C   0  0  0  0  0  0  0  0  0  0  0  0
  -24.4650  -10.2377   23.2224 C   0  0  0  0  0  0  0  0  0  0  0  0
  -33.4860  -35.5994   20.8901 C   0  0  0  0  0  0  0  0  0  0  0  0
  -32.5200  -33.0062   21.1883 C   0  0  0  0  0  0  0  0  0  0  0  0
  -28.7190  -30.1008   19.5281 C   0  0  0  0  0  0  0  0  0  0  0  0
  -24.0822   -7.6397   22.2808 C   0  0  0  0  0  0  0  0  0  0  0  0
  -24.1624   -9.2097   24.1154 C   0  0  0  0  0  0  0  0  0  0  0  0
  -28.9747  -28.7376   19.3863 C   0  0  0  0  0  0  0  0  0  0  0  0
  -21.3692   -6.5121   23.9546 C   0  0  0  0  0  0  0  0  0  0  0  0
  -20.3462   -5.6306   23.6057 C   0  0  0  0  0  0  0  0  0  0  0  0
  -27.8821  -28.3194   21.4959 C   0  0  0  0  0  0  0  0  0  0  0  0
  -26.7878  -20.2574   19.5894 C   0  0  0  0  0  0  0  0  0  0  0  0
  -29.2375  -18.9371   19.3935 C   0  0  0  0  0  0  0  0  0  0  0  0
  -21.9066   -3.7879   23.6860 C   0  0  0  0  0  0  0  0  0  0  0  0
  -24.5762   -9.9666   21.8587 C   0  0  0  0  0  0  0  0  0  0  0  0
  -23.9795  -11.8644   20.2618 C   0  0  0  0  0  0  0  0  0  0  0  0
  -32.5423  -35.3279   21.8933 C   0  0  0  0  0  0  0  0  0  0  0  0
  -28.0515  -30.5856   20.6620 C   0  0  0  0  0  0  0  0  0  0  0  0
  -32.0603  -34.0146   22.0523 C   0  0  0  0  0  0  0  0  0  0  0  0
  -27.6169  -29.6889   21.6485 C   0  0  0  0  0  0  0  0  0  0  0  0
  -27.9782  -20.9774   19.6903 C   0  0  0  0  0  0  0  0  0  0  0  0
  -28.0471  -18.2170   19.2927 C   0  0  0  0  0  0  0  0  0  0  0  0
  -23.9710   -7.9107   23.6446 C   0  0  0  0  0  0  0  0  0  0  0  0
  -28.5588  -27.8470   20.3716 C   0  0  0  0  0  0  0  0  0  0  0  0
  -22.6611   -6.0316   24.1691 C   0  0  0  0  0  0  0  0  0  0  0  0
  -20.6148   -4.2685   23.4714 C   0  0  0  0  0  0  0  0  0  0  0  0
  -26.8223  -18.8771   19.3907 C   0  0  0  0  0  0  0  0  0  0  0  0
  -29.2030  -20.3173   19.5923 C   0  0  0  0  0  0  0  0  0  0  0  0
  -22.9297   -4.6694   24.0348 C   0  0  0  0  0  0  0  0  0  0  0  0
  -24.8894  -11.0288   20.9368 C   0  0  0  0  0  0  0  0  0  0  0  0
  -24.7713  -12.7002   19.5129 C   0  0  0  0  0  0  0  0  0  0  0  0
  -27.8679  -24.3288   20.0758 C   0  0  0  0  0  0  0  0  0  0  0  0
  -26.9171  -23.2179   20.0165 C   0  0  0  0  0  0  0  0  0  0  0  0
  -27.7412  -25.6619   20.2060 C   0  0  0  0  0  0  0  0  0  1  0  0
  -22.5465  -11.8834   20.3076 C   0  0  0  0  0  0  0  0  0  0  0  0
  -28.7985  -32.5765   23.0247 C   0  0  0  0  0  0  0  0  0  0  0  0
  -25.6857  -32.1606   23.8369 C   0  0  0  0  0  0  0  0  0  0  0  0
  -22.8906  -30.2076   23.6956 C   0  0  0  0  0  0  0  0  0  0  0  0
  -29.2170  -16.0089   18.9732 C   0  0  0  0  0  0  0  0  0  0  0  0
  -32.1237  -36.4439   22.8174 C   0  0  0  0  0  0  0  0  0  0  0  0
  -27.7598  -32.0558   20.7873 C   0  0  0  0  0  0  0  0  0  0  0  0
  -26.8785  -30.1562   22.8752 C   0  0  0  0  0  0  0  0  0  0  0  0
  -28.9968  -23.3347   19.9281 C   0  0  0  0  0  0  0  0  0  0  0  0
  -30.8554  -36.1359   23.6089 C   0  0  0  0  0  0  0  0  0  0  0  0
  -29.7291  -12.5162   18.5086 C   0  0  0  0  0  0  0  0  0  0  0  0
  -30.9264  -34.7344   24.2068 C   0  0  0  0  0  0  0  0  0  0  0  0
  -28.4408  -11.8866   19.0434 C   0  0  0  0  0  0  0  0  0  0  0  0
  -30.1492  -13.7334   19.3306 C   0  0  0  0  0  0  0  0  0  0  0  0
  -27.8216  -14.1272   20.0350 C   0  0  0  0  0  0  0  0  0  0  0  0
  -31.0317  -33.6704   23.1077 C   0  0  1  0  0  0  0  0  0  0  0  0
  -27.5266  -32.4981   22.2286 C   0  0  1  0  0  0  0  0  0  0  0  0
  -27.3232  -12.9365   19.1999 C   0  0  2  0  0  0  0  0  0  0  0  0
  -20.5110  -30.1137   24.4868 C   0  0  0  0  0  0  0  0  0  0  0  0
  -26.6468  -31.3918   26.6289 C   0  0  0  0  0  0  0  0  0  0  0  0
  -24.3827  -30.4157   27.0637 C   0  0  0  0  0  0  0  0  0  0  0  0
  -24.6179  -32.8535   26.5898 C   0  0  0  0  0  0  0  0  0  0  0  0
  -21.8486  -30.1851   20.9257 C   0  0  0  0  0  0  0  0  0  0  0  0
  -24.9295  -31.1899   24.7116 C   0  0  1  0  0  0  0  0  0  0  0  0
  -21.4463  -30.5383   23.3654 C   0  0  2  0  0  0  0  0  0  0  0  0
  -25.1598  -31.4538   26.2264 C   0  0  0  0  0  0  0  0  0  0  0  0
  -26.1619  -11.3082   20.6426 N   0  0  0  0  0  0  0  0  0  0  0  0
  -26.0573  -12.3287   19.7744 N   0  0  0  0  0  0  0  0  0  0  0  0
  -27.9411  -22.3384   19.8868 N   0  0  0  0  0  0  0  0  0  0  0  0
  -26.6227  -31.6039   22.9550 N   0  0  0  0  0  0  0  0  0  0  0  0
  -29.0419  -14.6864   19.4326 N   0  0  0  0  0  0  0  0  0  0  0  0
  -24.4861  -13.7093   18.6627 N   0  0  0  0  0  0  0  0  0  0  0  0
  -21.8920  -10.9556   21.1293 N   0  0  0  0  0  0  0  0  0  0  0  0
  -28.0852  -16.8149   19.0913 N   0  0  0  0  0  0  0  0  0  0  0  0
  -29.7385  -33.4424   22.4993 N   0  0  0  0  0  0  0  0  0  0  0  0
  -23.5331  -31.2692   24.2968 N   0  0  0  0  0  0  0  0  0  0  0  0
  -21.0282  -29.8422   22.1158 N   0  3  0  0  0  0  0  0  0  0  0  0
  -25.7084  -23.1177   20.0531 O   0  0  0  0  0  0  0  0  0  0  0  0
  -21.8662  -12.6881   19.6271 O   0  0  0  0  0  0  0  0  0  0  0  0
  -28.9176  -31.9025   24.0411 O   0  0  0  0  0  0  0  0  0  0  0  0
  -25.4484  -33.3677   23.9277 O   0  0  0  0  0  0  0  0  0  0  0  0
  -23.3971  -29.1153   23.4486 O   0  0  0  0  0  0  0  0  0  0  0  0
  -30.2835  -16.3901   18.4840 O   0  0  0  0  0  0  0  0  0  0  0  0
  -23.6755   -6.9080   24.5162 O   0  0  0  0  0  0  0  0  0  0  0  0
  -28.8076  -26.5160   20.2360 O   0  0  0  0  0  0  0  0  0  1  0  0
  -19.6319   -3.4218   23.1379 F   0  0  0  0  0  0  0  0  0  0  0  0
  -25.6718  -18.1953   19.2949 F   0  0  0  0  0  0  0  0  0  0  0  0
  -30.3534  -20.9993   19.6870 F   0  0  0  0  0  0  0  0  0  0  0  0
  -24.1685   -4.2017   24.2408 F   0  0  0  0  0  0  0  0  0  0  0  0
  1  2  1  0  0  0  0
  1  5  2  0  0  0  0
  2  6  2  0  0  0  0
  3  8  2  0  0  0  0
  3 17  1  0  0  0  0
  4  9  1  0  0  0  0
  4 17  2  0  0  0  0
  5 19  1  0  0  0  0
  6 21  1  0  0  0  0
  7 10  2  0  0  0  0
  7 20  1  0  0  0  0
  8 25  1  0  0  0  0
  9 25  2  0  0  0  0
 10 26  1  0  0  0  0
 11 12  2  0  0  0  0
 11 27  1  0  0  0  0
 12 28  1  0  0  0  0
 13 22  1  0  0  0  0
 13 26  2  0  0  0  0
 14 23  1  0  0  0  0
 14 29  2  0  0  0  0
 15 24  2  0  0  0  0
 15 30  1  0  0  0  0
 16 28  2  0  0  0  0
 16 31  1  0  0  0  0
 17 32  1  0  0  0  0
 18 32  1  0  0  0  0
 18 33  2  0  0  0  0
 18 37  1  0  0  0  0
 19 21  2  0  0  0  0
 19 42  1  0  0  0  0
 20 22  2  0  0  0  0
 20 43  1  0  0  0  0
 21 52  1  0  0  0  0
 22 44  1  0  0  0  0
 23 30  2  0  0  0  0
 23 65  1  0  0  0  0
 24 29  1  0  0  0  0
 24 70  1  0  0  0  0
 25 80  1  0  0  0  0
 26 81  1  0  0  0  0
 27 31  2  0  0  0  0
 27 80  1  0  0  0  0
 28 82  1  0  0  0  0
 29 83  1  0  0  0  0
 30 84  1  0  0  0  0
 31 85  1  0  0  0  0
 32 63  2  0  0  0  0
 33 64  1  0  0  0  0
 33 68  1  0  0  0  0
 34 35  1  0  0  0  0
 34 36  2  0  0  0  0
 34 45  1  0  0  0  0
 35 65  1  0  0  0  0
 35 74  2  0  0  0  0
 36 81  1  0  0  0  0
 37 69  1  0  0  0  0
 37 75  2  0  0  0  0
 38 53  1  0  0  0  0
 38 71  1  0  0  0  0
 38 76  2  0  0  0  0
 39 60  1  0  0  0  0
 39 66  1  0  0  0  0
 39 77  2  0  0  0  0
 40 61  1  0  0  0  0
 40 72  1  0  0  0  0
 40 78  2  0  0  0  0
 41 67  1  0  0  0  0
 41 70  1  0  0  0  0
 41 79  2  0  0  0  0
 42 46  1  0  0  0  0
 43 53  1  0  0  0  0
 44 66  1  0  0  0  0
 45 65  1  0  0  0  0
 46 48  1  0  0  0  0
 47 49  1  0  0  0  0
 47 50  1  0  0  0  0
 48 52  1  0  0  0  0
 49 54  1  0  0  0  0
 50 67  1  0  0  0  0
 51 54  1  0  0  0  0
 51 67  1  0  0  0  0
 52 71  1  0  0  0  0
 53 66  1  0  0  0  0
 54 64  1  0  0  0  0
 55 61  1  0  0  0  0
 56 62  1  0  0  0  0
 57 62  1  0  0  0  0
 58 62  1  0  0  0  0
 59 73  1  0  0  0  0
 60 62  1  0  0  0  0
 60 72  1  0  0  0  0
 61 73  1  0  0  0  0
 63 64  1  0  0  0  0
M  CHG  1  73   1
M  ISO  4  36 101  41 100  70 100  81 101
M  END
> <Batch ID>
0082

> <Smiles>
CNC(C)C(=O)NC(C(=O)N1Cc2cc([101O:1][101CH:1]=C3CN(c4cc(F)c([100NH:0][100C:0](=O)N5CCCC(n6nc(-c7ccc(Oc8ccc(F)cc8F)cc7)c(C(N)=O)c6N)C5)cc4F)C3=O)ccc2CC1C(=O)NC1CCCc2ccccc21)C(C)(C)C

> <Shape>
0.286

> <Color>
0.103

> <Negative vol penalty>
0.000

$$$$

  -OEChem-04052300073D

 85 94  0     1  0  0  0  0  0999 V2000
  -21.9656  -12.1930   19.0880 C   0  0  0  0  0  0  0  0  0  0  0  0
  -21.8028  -13.5169   19.4833 C   0  0  0  0  0  0  0  0  0  0  0  0
  -20.0405  -26.4231   26.1823 C   0  0  0  0  0  0  0  0  0  0  0  0
  -27.1290  -25.6491   17.3290 C   0  0  0  0  0  0  0  0  0  0  0  0
  -25.0968  -24.8416   18.3562 C   0  0  0  0  0  0  0  0  0  0  0  0
  -20.0616  -27.7022   25.6264 C   0  0  0  0  0  0  0  0  0  0  0  0
  -23.1633  -11.5300   19.3524 C   0  0  0  0  0  0  0  0  0  0  0  0
  -22.8372  -14.1782   20.1443 C   0  0  0  0  0  0  0  0  0  0  0  0
  -23.6100  -18.8526   18.3562 C   0  0  0  0  0  0  0  0  0  0  0  0
  -20.3381  -25.3137   25.3909 C   0  0  0  0  0  0  0  0  0  0  0  0
  -27.0897  -24.5918   16.4200 C   0  0  0  0  0  0  0  0  0  0  0  0
  -25.0574  -23.7843   17.4472 C   0  0  0  0  0  0  0  0  0  0  0  0
  -22.7223  -19.8462   18.7666 C   0  0  0  0  0  0  0  0  0  0  0  0
  -24.1513  -23.3024   14.2274 C   0  0  0  0  0  0  0  0  0  0  0  0
  -22.9262  -23.0104   13.6279 C   0  0  0  0  0  0  0  0  0  0  0  0
  -20.6778  -26.7625   23.4876 C   0  0  0  0  0  0  0  0  0  0  0  0
  -24.3319  -20.6027   20.3964 C   0  0  0  0  0  0  0  0  0  0  0  0
  -22.9966  -20.7858   14.5678 C   0  0  0  0  0  0  0  0  0  0  0  0
  -26.1326  -25.7739   18.2972 C   0  0  0  0  0  0  0  0  0  0  0  0
  -20.3802  -27.8719   24.2791 C   0  0  0  0  0  0  0  0  0  0  0  0
  -27.1935  -27.1525   20.1631 C   0  0  0  0  0  0  0  0  0  0  0  0
  -24.2165  -12.1866   20.0083 C   0  0  0  0  0  0  0  0  0  0  0  0
  -24.8632  -18.7195   18.9712 C   0  0  0  0  0  0  0  0  0  0  0  0
  -24.0497  -13.5230   20.4189 C   0  0  0  0  0  0  0  0  0  0  0  0
  -25.2347  -19.6082   19.9901 C   0  0  0  0  0  0  0  0  0  0  0  0
  -20.6567  -25.4834   24.0436 C   0  0  0  0  0  0  0  0  0  0  0  0
  -26.0539  -23.6595   16.4791 C   0  0  0  0  0  0  0  0  0  0  0  0
  -23.0820  -20.7196   19.7888 C   0  0  0  0  0  0  0  0  0  0  0  0
  -24.7992  -22.3361   14.9970 C   0  0  0  0  0  0  0  0  0  0  0  0
  -22.3488  -21.7521   13.7982 C   0  0  0  0  0  0  0  0  0  0  0  0
  -24.2218  -21.0778   15.1672 C   0  0  0  0  0  0  0  0  0  0  0  0
  -26.1730  -26.8655   19.2368 C   0  0  0  0  0  0  0  0  0  0  0  0
  -26.7589  -28.2812   20.8140 C   0  0  0  0  0  0  0  0  0  0  0  0
  -21.4687  -22.7969   22.1684 C   0  0  0  0  0  0  0  0  0  0  0  0
  -21.0057  -23.0611   23.5312 C   0  0  0  0  0  0  0  0  0  0  0  0
  -21.8023  -21.6817   21.4940 C   0  0  0  0  0  0  0  0  0  1  0  0
  -20.4023  -29.2348   23.6884 C   0  0  0  0  0  0  0  0  0  0  0  0
  -28.4243  -26.4608   20.4128 C   0  0  0  0  0  0  0  0  0  0  0  0
  -26.3069  -16.4392   20.6504 C   0  0  0  0  0  0  0  0  0  0  0  0
  -28.8486  -18.4450   20.4541 C   0  0  0  0  0  0  0  0  0  0  0  0
  -30.0003  -21.6295   20.0306 C   0  0  0  0  0  0  0  0  0  0  0  0
  -21.3838  -30.5908   21.8658 C   0  0  0  0  0  0  0  0  0  0  0  0
  -25.4752  -11.4140   20.3142 C   0  0  0  0  0  0  0  0  0  0  0  0
  -25.8200  -17.6595   18.4987 C   0  0  0  0  0  0  0  0  0  0  0  0
  -26.5764  -19.5203   20.6689 C   0  0  0  0  0  0  0  0  0  0  0  0
  -21.4037  -24.2808   21.8879 C   0  0  0  0  0  0  0  0  0  0  0  0
  -26.6598  -12.3021   20.6861 C   0  0  0  0  0  0  0  0  0  0  0  0
  -24.0407  -32.1739   20.1536 C   0  0  0  0  0  0  0  0  0  0  0  0
  -26.2360  -13.3607   21.6992 C   0  0  0  0  0  0  0  0  0  0  0  0
  -24.9928  -31.0220   19.8204 C   0  0  0  0  0  0  0  0  0  0  0  0
  -22.5767  -31.7538   20.0301 C   0  0  0  0  0  0  0  0  0  0  0  0
  -23.1597  -29.3986   20.4436 C   0  0  0  0  0  0  0  0  0  0  0  0
  -25.1577  -14.2820   21.1161 C   0  0  1  0  0  0  0  0  0  0  0  0
  -26.8665  -17.2897   19.5453 C   0  0  1  0  0  0  0  0  0  0  0  0
  -24.6454  -29.7512   20.6215 C   0  0  1  0  0  0  0  0  0  0  0  0
  -31.6649  -23.4816   19.7203 C   0  0  0  0  0  0  0  0  0  0  0  0
  -29.0559  -18.2782   23.4937 C   0  0  0  0  0  0  0  0  0  0  0  0
  -30.5221  -20.3068   23.4353 C   0  0  0  0  0  0  0  0  0  0  0  0
  -31.2489  -18.2116   22.2932 C   0  0  0  0  0  0  0  0  0  0  0  0
  -29.9875  -21.3047   17.0890 C   0  0  0  0  0  0  0  0  0  0  0  0
  -29.3780  -19.5849   21.2903 C   0  0  1  0  0  0  0  0  0  0  0  0
  -31.0944  -22.1954   19.1433 C   0  0  2  0  0  0  0  0  0  0  0  0
  -30.0251  -19.0961   22.6169 C   0  0  0  0  0  0  0  0  0  0  0  0
  -25.1659  -27.7412   19.2914 N   0  0  0  0  0  0  0  0  0  0  0  0
  -25.5514  -28.5894   20.2598 N   0  0  0  0  0  0  0  0  0  0  0  0
  -20.9504  -24.3892   23.2633 N   0  0  0  0  0  0  0  0  0  0  0  0
  -27.4745  -18.4631   20.1758 N   0  0  0  0  0  0  0  0  0  0  0  0
  -22.3277  -30.5498   20.8248 N   0  0  0  0  0  0  0  0  0  0  0  0
  -27.2956  -29.0301   21.8007 N   0  0  0  0  0  0  0  0  0  0  0  0
  -28.4328  -25.4363   21.3691 N   0  0  0  0  0  0  0  0  0  0  0  0
  -21.2497  -29.4027   22.5929 N   0  0  0  0  0  0  0  0  0  0  0  0
  -25.7512  -15.2499   20.2187 N   0  0  0  0  0  0  0  0  0  0  0  0
  -30.2808  -20.3392   20.4275 N   0  0  0  0  0  0  0  0  0  0  0  0
  -30.5593  -22.4870   17.7833 N   0  3  0  0  0  0  0  0  0  0  0  0
  -20.7766  -22.3796   24.5088 O   0  0  0  0  0  0  0  0  0  0  0  0
  -19.6680  -30.1011   24.1556 O   0  0  0  0  0  0  0  0  0  0  0  0
  -29.4889  -26.7538   19.8175 O   0  0  0  0  0  0  0  0  0  0  0  0
  -26.3755  -16.8322   21.8091 O   0  0  0  0  0  0  0  0  0  0  0  0
  -29.6268  -17.5746   20.0562 O   0  0  0  0  0  0  0  0  0  0  0  0
  -28.9989  -22.2696   20.3436 O   0  0  0  0  0  0  0  0  0  0  0  0
  -20.7433  -31.6082   22.1485 O   0  0  0  0  0  0  0  0  0  0  0  0
  -26.0151  -22.6278   15.5921 O   0  0  0  0  0  0  0  0  0  0  0  0
  -22.2171  -21.6899   20.1918 O   0  0  0  0  0  0  0  0  0  1  0  0
  -21.1715  -21.4724   13.2238 F   0  0  0  0  0  0  0  0  0  0  0  0
  -24.8388  -20.1458   15.9065 F   0  0  0  0  0  0  0  0  0  0  0  0
  1  2  1  0  0  0  0
  1  7  2  0  0  0  0
  2  8  2  0  0  0  0
  3  6  1  0  0  0  0
  3 10  2  0  0  0  0
  4 11  2  0  0  0  0
  4 19  1  0  0  0  0
  5 12  1  0  0  0  0
  5 19  2  0  0  0  0
  6 20  2  0  0  0  0
  7 22  1  0  0  0  0
  8 24  1  0  0  0  0
  9 13  2  0  0  0  0
  9 23  1  0  0  0  0
 10 26  1  0  0  0  0
 11 27  1  0  0  0  0
 12 27  2  0  0  0  0
 13 28  1  0  0  0  0
 14 15  2  0  0  0  0
 14 29  1  0  0  0  0
 15 30  1  0  0  0  0
 16 20  1  0  0  0  0
 16 26  2  0  0  0  0
 17 25  1  0  0  0  0
 17 28  2  0  0  0  0
 18 30  2  0  0  0  0
 18 31  1  0  0  0  0
 19 32  1  0  0  0  0
 20 37  1  0  0  0  0
 21 32  1  0  0  0  0
 21 33  2  0  0  0  0
 21 38  1  0  0  0  0
 22 24  2  0  0  0  0
 22 43  1  0  0  0  0
 23 25  2  0  0  0  0
 23 44  1  0  0  0  0
 24 53  1  0  0  0  0
 25 45  1  0  0  0  0
 26 66  1  0  0  0  0
 27 82  1  0  0  0  0
 28 83  1  0  0  0  0
 29 31  2  0  0  0  0
 29 82  1  0  0  0  0
 30 84  1  0  0  0  0
 31 85  1  0  0  0  0
 32 64  2  0  0  0  0
 33 65  1  0  0  0  0
 33 69  1  0  0  0  0
 34 35  1  0  0  0  0
 34 36  2  0  0  0  0
 34 46  1  0  0  0  0
 35 66  1  0  0  0  0
 35 75  2  0  0  0  0
 36 83  1  0  0  0  0
 37 71  1  0  0  0  0
 37 76  2  0  0  0  0
 38 70  1  0  0  0  0
 38 77  2  0  0  0  0
 39 54  1  0  0  0  0
 39 72  1  0  0  0  0
 39 78  2  0  0  0  0
 40 61  1  0  0  0  0
 40 67  1  0  0  0  0
 40 79  2  0  0  0  0
 41 62  1  0  0  0  0
 41 73  1  0  0  0  0
 41 80  2  0  0  0  0
 42 68  1  0  0  0  0
 42 71  1  0  0  0  0
 42 81  2  0  0  0  0
 43 47  1  0  0  0  0
 44 54  1  0  0  0  0
 45 67  1  0  0  0  0
 46 66  1  0  0  0  0
 47 49  1  0  0  0  0
 48 50  1  0  0  0  0
 48 51  1  0  0  0  0
 49 53  1  0  0  0  0
 50 55  1  0  0  0  0
 51 68  1  0  0  0  0
 52 55  1  0  0  0  0
 52 68  1  0  0  0  0
 53 72  1  0  0  0  0
 54 67  1  0  0  0  0
 55 65  1  0  0  0  0
 56 62  1  0  0  0  0
 57 63  1  0  0  0  0
 58 63  1  0  0  0  0
 59 63  1  0  0  0  0
 60 74  1  0  0  0  0
 61 63  1  0  0  0  0
 61 73  1  0  0  0  0
 62 74  1  0  0  0  0
 64 65  1  0  0  0  0
M  CHG  1  74   1
M  ISO  4  36 101  42 100  71 100  83 101
M  END
> <Batch ID>
0082

> <Smiles>
CNC(C)C(=O)NC(C(=O)N1Cc2cc([101O:1][101CH:1]=C3CN(c4cccc(C(=O)[100NH:0][100C:0](=O)N5CCCC(n6nc(-c7ccc(Oc8ccc(F)cc8F)cc7)c(C(N)=O)c6N)C5)c4)C3=O)ccc2CC1C(=O)NC1CCCc2ccccc21)C(C)(C)C

> <Shape>
0.209

> <Color>
0.087

> <Negative vol penalty>
0.000

$$$$

  -OEChem-04052300073D

 85 94  0     1  0  0  0  0  0999 V2000
  -27.1057  -32.2014   25.1125 C   0  0  0  0  0  0  0  0  0  0  0  0
  -27.4549  -31.0565   24.4035 C   0  0  0  0  0  0  0  0  0  0  0  0
  -23.1574   -9.7095   20.0570 C   0  0  0  0  0  0  0  0  0  0  0  0
  -23.8623   -9.9127   22.3589 C   0  0  0  0  0  0  0  0  0  0  0  0
  -26.6843  -33.3415   24.4294 C   0  0  0  0  0  0  0  0  0  0  0  0
  -27.3817  -31.0506   23.0110 C   0  0  0  0  0  0  0  0  0  0  0  0
  -31.4552  -28.9469   20.8603 C   0  0  0  0  0  0  0  0  0  0  0  0
  -31.0163  -19.2691   20.1967 C   0  0  0  0  0  0  0  0  0  0  0  0
  -30.8904  -17.8841   20.3039 C   0  0  0  0  0  0  0  0  0  0  0  0
  -22.4562   -8.5462   20.3744 C   0  0  0  0  0  0  0  0  0  0  0  0
  -23.1611   -8.7494   22.6763 C   0  0  0  0  0  0  0  0  0  0  0  0
  -31.5250  -27.5545   20.8553 C   0  0  0  0  0  0  0  0  0  0  0  0
  -19.9554   -7.8588   23.2688 C   0  0  0  0  0  0  0  0  0  0  0  0
  -19.1735   -7.8700   24.4238 C   0  0  0  0  0  0  0  0  0  0  0  0
  -29.3403  -19.5544   21.9133 C   0  0  0  0  0  0  0  0  0  0  0  0
  -30.7625  -27.5305   18.5668 C   0  0  0  0  0  0  0  0  0  0  0  0
  -20.4763   -6.0452   25.3236 C   0  0  0  0  0  0  0  0  0  0  0  0
  -23.8606  -10.3927   21.0492 C   0  0  0  0  0  0  0  0  0  0  0  0
  -29.2143  -18.1693   22.0204 C   0  0  0  0  0  0  0  0  0  0  0  0
  -24.1004  -12.9152   20.7540 C   0  0  0  0  0  0  0  0  0  0  0  0
  -26.6152  -33.3527   23.0274 C   0  0  0  0  0  0  0  0  0  0  0  0
  -31.0274  -29.6422   19.7202 C   0  0  0  0  0  0  0  0  0  0  0  0
  -26.9576  -32.1915   22.3086 C   0  0  0  0  0  0  0  0  0  0  0  0
  -30.6906  -28.9319   18.5591 C   0  0  0  0  0  0  0  0  0  0  0  0
  -30.2413  -20.1043   21.0015 C   0  0  0  0  0  0  0  0  0  0  0  0
  -29.9894  -17.3342   21.2157 C   0  0  0  0  0  0  0  0  0  0  0  0
  -22.4580   -8.0662   21.6840 C   0  0  0  0  0  0  0  0  0  0  0  0
  -31.1759  -26.8459   19.7094 C   0  0  0  0  0  0  0  0  0  0  0  0
  -20.9978   -6.9407   23.1411 C   0  0  0  0  0  0  0  0  0  0  0  0
  -19.4340   -6.9633   25.4512 C   0  0  0  0  0  0  0  0  0  0  0  0
  -21.2583   -6.0339   24.1686 C   0  0  0  0  0  0  0  0  0  0  0  0
  -24.5856  -11.5941   20.7219 C   0  0  0  0  0  0  0  0  0  0  0  0
  -25.1688  -13.6830   20.3599 C   0  0  0  0  0  0  0  0  0  0  0  0
  -30.4630  -23.4574   20.6853 C   0  0  0  0  0  0  0  0  0  0  0  0
  -29.7551  -22.4984   21.5343 C   0  0  0  0  0  0  0  0  0  0  0  0
  -28.2618  -17.6265   22.9811 C   0  0  0  0  0  0  0  0  0  0  0  0
  -30.4771  -24.8001   20.6023 C   0  0  0  0  0  0  0  0  0  1  0  0
  -22.8002  -13.4045   21.1085 C   0  0  0  0  0  0  0  0  0  0  0  0
  -28.5938  -31.5752   19.0534 C   0  0  0  0  0  0  0  0  0  0  0  0
  -30.1424  -31.9102   16.2229 C   0  0  0  0  0  0  0  0  0  0  0  0
  -32.3301  -30.6148   13.9463 C   0  0  0  0  0  0  0  0  0  0  0  0
  -30.5815  -14.9722   20.5703 C   0  0  0  0  0  0  0  0  0  0  0  0
  -26.1086  -34.5934   22.3355 C   0  0  0  0  0  0  0  0  0  0  0  0
  -30.9832  -31.1456   19.7332 C   0  0  0  0  0  0  0  0  0  0  0  0
  -30.2445  -29.6321   17.3025 C   0  0  0  0  0  0  0  0  0  0  0  0
  -31.1324  -22.2991   19.9819 C   0  0  0  0  0  0  0  0  0  0  0  0
  -26.4170  -34.6262   20.8408 C   0  0  0  0  0  0  0  0  0  0  0  0
  -29.6238  -12.3499   18.3604 C   0  0  0  0  0  0  0  0  0  0  0  0
  -26.0744  -33.2872   20.1955 C   0  0  0  0  0  0  0  0  0  0  0  0
  -28.1877  -12.0282   18.7804 C   0  0  0  0  0  0  0  0  0  0  0  0
  -30.5002  -12.7029   19.5609 C   0  0  0  0  0  0  0  0  0  0  0  0
  -28.5330  -13.4416   20.8469 C   0  0  0  0  0  0  0  0  0  0  0  0
  -26.9151  -32.1541   20.7964 C   0  0  1  0  0  0  0  0  0  0  0  0
  -30.0419  -31.7248   18.6816 C   0  0  1  0  0  0  0  0  0  0  0  0
  -27.5961  -13.1431   19.6650 C   0  0  2  0  0  0  0  0  0  0  0  0
  -33.3667  -31.1004   11.7132 C   0  0  0  0  0  0  0  0  0  0  0  0
  -27.5310  -31.1395   14.8458 C   0  0  0  0  0  0  0  0  0  0  0  0
  -28.8400  -30.7170   12.7538 C   0  0  0  0  0  0  0  0  0  0  0  0
  -28.7798  -33.0056   13.7446 C   0  0  0  0  0  0  0  0  0  0  0  0
  -35.0604  -30.6347   15.0882 C   0  0  0  0  0  0  0  0  0  0  0  0
  -30.1118  -31.1911   14.8959 C   0  0  1  0  0  0  0  0  0  0  0  0
  -33.5124  -31.2320   13.2213 C   0  0  2  0  0  0  0  0  0  0  0  0
  -28.8222  -31.4997   14.0842 C   0  0  0  0  0  0  0  0  0  0  0  0
  -25.8628  -11.5230   20.3376 N   0  0  0  0  0  0  0  0  0  0  0  0
  -27.9440  -18.2271   24.0872 N   0  0  0  0  0  0  0  0  0  0  0  0
  -26.1892  -12.8092   20.1245 N   0  0  0  0  0  0  0  0  0  0  0  0
  -30.3655  -21.4701   20.8949 N   0  0  0  0  0  0  0  0  0  0  0  0
  -30.2116  -31.1026   17.3670 N   0  0  0  0  0  0  0  0  0  0  0  0
  -29.8786  -13.7688   20.3498 N   0  0  0  0  0  0  0  0  0  0  0  0
  -25.3256  -15.0137   20.1952 N   0  0  0  0  0  0  0  0  0  0  0  0
  -21.8191  -12.4791   21.4898 N   0  0  0  0  0  0  0  0  0  0  0  0
  -29.8774  -15.9246   21.3063 N   0  0  0  0  0  0  0  0  0  0  0  0
  -28.2555  -32.1756   20.2512 N   0  0  0  0  0  0  0  0  0  0  0  0
  -31.3492  -31.5473   14.2100 N   0  0  0  0  0  0  0  0  0  0  0  0
  -34.7788  -30.5620   13.6314 N   0  3  0  0  0  0  0  0  0  0  0  0
  -28.9438  -22.5806   22.4328 O   0  0  0  0  0  0  0  0  0  0  0  0
  -22.5119  -14.6248   21.0719 O   0  0  0  0  0  0  0  0  0  0  0  0
  -27.8388  -30.9619   18.3081 O   0  0  0  0  0  0  0  0  0  0  0  0
  -30.1134  -33.1432   16.2434 O   0  0  0  0  0  0  0  0  0  0  0  0
  -32.2800  -29.4237   14.2454 O   0  0  0  0  0  0  0  0  0  0  0  0
  -31.7133  -15.1554   20.1149 O   0  0  0  0  0  0  0  0  0  0  0  0
  -21.7737   -6.9313   21.9942 O   0  0  0  0  0  0  0  0  0  0  0  0
  -31.2425  -25.4867   19.7020 O   0  0  0  0  0  0  0  0  0  1  0  0
  -18.6840   -6.9752   26.5610 F   0  0  0  0  0  0  0  0  0  0  0  0
  -22.2590   -5.1503   24.0522 F   0  0  0  0  0  0  0  0  0  0  0  0
  1  2  1  0  0  0  0
  1  5  2  0  0  0  0
  2  6  2  0  0  0  0
  3 10  2  0  0  0  0
  3 18  1  0  0  0  0
  4 11  1  0  0  0  0
  4 18  2  0  0  0  0
  5 21  1  0  0  0  0
  6 23  1  0  0  0  0
  7 12  2  0  0  0  0
  7 22  1  0  0  0  0
  8  9  2  0  0  0  0
  8 25  1  0  0  0  0
  9 26  1  0  0  0  0
 10 27  1  0  0  0  0
 11 27  2  0  0  0  0
 12 28  1  0  0  0  0
 13 14  2  0  0  0  0
 13 29  1  0  0  0  0
 14 30  1  0  0  0  0
 15 19  1  0  0  0  0
 15 25  2  0  0  0  0
 16 24  1  0  0  0  0
 16 28  2  0  0  0  0
 17 30  2  0  0  0  0
 17 31  1  0  0  0  0
 18 32  1  0  0  0  0
 19 26  2  0  0  0  0
 19 36  1  0  0  0  0
 20 32  1  0  0  0  0
 20 33  2  0  0  0  0
 20 38  1  0  0  0  0
 21 23  2  0  0  0  0
 21 43  1  0  0  0  0
 22 24  2  0  0  0  0
 22 44  1  0  0  0  0
 23 53  1  0  0  0  0
 24 45  1  0  0  0  0
 25 67  1  0  0  0  0
 26 72  1  0  0  0  0
 27 82  1  0  0  0  0
 28 83  1  0  0  0  0
 29 31  2  0  0  0  0
 29 82  1  0  0  0  0
 30 84  1  0  0  0  0
 31 85  1  0  0  0  0
 32 64  2  0  0  0  0
 33 66  1  0  0  0  0
 33 70  1  0  0  0  0
 34 35  1  0  0  0  0
 34 37  2  0  0  0  0
 34 46  1  0  0  0  0
 35 67  1  0  0  0  0
 35 76  2  0  0  0  0
 36 65  2  0  0  0  0
 37 83  1  0  0  0  0
 38 71  1  0  0  0  0
 38 77  2  0  0  0  0
 39 54  1  0  0  0  0
 39 73  1  0  0  0  0
 39 78  2  0  0  0  0
 40 61  1  0  0  0  0
 40 68  1  0  0  0  0
 40 79  2  0  0  0  0
 41 62  1  0  0  0  0
 41 74  1  0  0  0  0
 41 80  2  0  0  0  0
 42 69  1  0  0  0  0
 42 72  1  0  0  0  0
 42 81  2  0  0  0  0
 43 47  1  0  0  0  0
 44 54  1  0  0  0  0
 45 68  1  0  0  0  0
 46 67  1  0  0  0  0
 47 49  1  0  0  0  0
 48 50  1  0  0  0  0
 48 51  1  0  0  0  0
 49 53  1  0  0  0  0
 50 55  1  0  0  0  0
 51 69  1  0  0  0  0
 52 55  1  0  0  0  0
 52 69  1  0  0  0  0
 53 73  1  0  0  0  0
 54 68  1  0  0  0  0
 55 66  1  0  0  0  0
 56 62  1  0  0  0  0
 57 63  1  0  0  0  0
 58 63  1  0  0  0  0
 59 63  1  0  0  0  0
 60 75  1  0  0  0  0
 61 63  1  0  0  0  0
 61 74  1  0  0  0  0
 62 75  1  0  0  0  0
 64 66  1  0  0  0  0
M  CHG  1  75   1
M  ISO  4  37 101  42 100  72 100  83 101
M  END
> <Batch ID>
0082

> <Smiles>
CNC(C)C(=O)NC(C(=O)N1Cc2cc([101O:1][101CH:1]=C3CN(c4ccc([100NH:0][100C:0](=O)N5CCCC(n6nc(-c7ccc(Oc8ccc(F)cc8F)cc7)c(C(N)=O)c6N)C5)c(C=N)c4)C3=O)ccc2CC1C(=O)NC1CCCc2ccccc21)C(C)(C)C

> <Shape>
0.275

> <Color>
0.193

> <Negative vol penalty>
0.000

$$$$

  -OEChem-04052300073D

 88 97  0     1  0  0  0  0  0999 V2000
  -27.6912  -33.6973   26.1406 C   0  0  0  0  0  0  0  0  0  0  0  0
  -27.9223  -32.5127   25.4486 C   0  0  0  0  0  0  0  0  0  0  0  0
  -24.1401  -13.4121   20.3112 C   0  0  0  0  0  0  0  0  0  0  0  0
  -26.2167  -12.7901   21.3778 C   0  0  0  0  0  0  0  0  0  0  0  0
  -26.3950  -34.0363   26.5266 C   0  0  0  0  0  0  0  0  0  0  0  0
  -26.8574  -31.6659   25.1431 C   0  0  0  0  0  0  0  0  0  0  0  0
  -27.0345  -29.9636   20.3770 C   0  0  0  0  0  0  0  0  0  0  0  0
  -24.0589  -12.1463   19.7310 C   0  0  0  0  0  0  0  0  0  0  0  0
  -26.1356  -11.5242   20.7977 C   0  0  0  0  0  0  0  0  0  0  0  0
  -27.9270  -28.9280   20.1036 C   0  0  0  0  0  0  0  0  0  0  0  0
  -23.1606   -9.0263   20.6753 C   0  0  0  0  0  0  0  0  0  0  0  0
  -21.9294   -8.3722   20.7163 C   0  0  0  0  0  0  0  0  0  0  0  0
  -26.1115  -27.3431   20.2107 C   0  0  0  0  0  0  0  0  0  0  0  0
  -21.8865   -8.3016   18.3017 C   0  0  0  0  0  0  0  0  0  0  0  0
  -25.2190  -13.7341   21.1346 C   0  0  0  0  0  0  0  0  0  0  0  0
  -24.7838  -15.4413   22.9795 C   0  0  0  0  0  0  0  0  0  0  0  0
  -25.3124  -33.1979   26.2172 C   0  0  0  0  0  0  0  0  0  0  0  0
  -25.6733  -29.6949   20.5805 C   0  0  0  0  0  0  0  0  0  0  0  0
  -25.5457  -31.9934   25.5265 C   0  0  0  0  0  0  0  0  0  0  0  0
  -25.2034  -28.3774   20.4841 C   0  0  0  0  0  0  0  0  0  0  0  0
  -25.0566  -11.2023   19.9742 C   0  0  0  0  0  0  0  0  0  0  0  0
  -27.4661  -27.6172   20.0232 C   0  0  0  0  0  0  0  0  0  0  0  0
  -23.7548   -9.3181   19.4475 C   0  0  0  0  0  0  0  0  0  0  0  0
  -21.2923   -8.0098   19.5295 C   0  0  0  0  0  0  0  0  0  0  0  0
  -23.1178   -8.9558   18.2607 C   0  0  0  0  0  0  0  0  0  0  0  0
  -25.3037  -15.0417   21.7338 C   0  0  0  0  0  0  0  0  0  0  0  0
  -25.1273  -16.7669   23.0857 C   0  0  0  0  0  0  0  0  0  0  0  0
  -33.0267  -23.2946   20.5373 C   0  0  0  0  0  0  0  0  0  0  0  0
  -33.6808  -23.2256   21.6994 C   0  0  0  0  0  0  0  0  0  0  0  0
  -31.1913  -21.4337   22.1225 C   0  0  0  0  0  0  0  0  0  0  0  0
  -29.6347  -24.9019   16.6938 C   0  0  0  0  0  0  0  0  0  0  0  0
  -31.9442  -22.4933   19.9683 C   0  0  0  0  0  0  0  0  0  0  0  0
  -31.1330  -21.6784   20.6910 C   0  0  0  0  0  0  0  0  0  0  0  0
  -30.5215  -23.8895   16.7163 C   0  0  0  0  0  0  0  0  0  0  0  0
  -32.1550  -21.6621   23.0155 C   0  0  0  0  0  0  0  0  0  0  0  0
  -33.4582  -22.3256   22.8494 C   0  0  0  0  0  0  0  0  0  0  0  0
  -29.3780  -25.2930   18.0741 C   0  0  0  0  0  0  0  0  0  0  0  0
  -30.8797  -23.5772   18.0919 C   0  0  0  0  0  0  0  0  0  0  0  0
  -31.7281  -22.6385   18.5249 C   0  0  0  0  0  0  0  0  0  0  0  0
  -28.5494  -26.2672   18.4501 C   0  0  0  0  0  0  0  0  0  1  0  0
  -24.0555  -14.6821   23.9536 C   0  0  0  0  0  0  0  0  0  0  0  0
  -23.6503  -30.0715   23.0032 C   0  0  0  0  0  0  0  0  0  0  0  0
  -21.4613  -29.0943   20.8179 C   0  0  0  0  0  0  0  0  0  0  0  0
  -20.8082  -27.3931   17.9324 C   0  0  0  0  0  0  0  0  0  0  0  0
  -29.6111  -19.7874   20.5716 C   0  0  0  0  0  0  0  0  0  0  0  0
  -23.9355  -33.5836   26.6967 C   0  0  0  0  0  0  0  0  0  0  0  0
  -24.7190  -30.8263   20.8482 C   0  0  0  0  0  0  0  0  0  0  0  0
  -23.7482  -28.0385   20.6744 C   0  0  0  0  0  0  0  0  0  0  0  0
  -22.8123  -32.8140   26.0063 C   0  0  0  0  0  0  0  0  0  0  0  0
  -26.0165  -20.6375   20.4510 C   0  0  0  0  0  0  0  0  0  0  0  0
  -23.1355  -31.3240   25.9610 C   0  0  0  0  0  0  0  0  0  0  0  0
  -25.3865  -19.3010   20.8314 C   0  0  0  0  0  0  0  0  0  0  0  0
  -27.3061  -20.4569   19.6513 C   0  0  0  0  0  0  0  0  0  0  0  0
  -27.6773  -18.2468   20.7099 C   0  0  0  0  0  0  0  0  0  0  0  0
  -24.4133  -31.0608   25.1550 C   0  0  1  0  0  0  0  0  0  0  0  0
  -23.4397  -30.3763   21.5471 C   0  0  1  0  0  0  0  0  0  0  0  0
  -26.4054  -18.4089   21.5564 C   0  0  2  0  0  0  0  0  0  0  0  0
  -18.9185  -26.7369   16.4172 C   0  0  0  0  0  0  0  0  0  0  0  0
  -20.6016  -26.9578   22.8195 C   0  0  0  0  0  0  0  0  0  0  0  0
  -19.4302  -25.7758   20.9489 C   0  0  0  0  0  0  0  0  0  0  0  0
  -18.7177  -28.0731   21.6105 C   0  0  0  0  0  0  0  0  0  0  0  0
  -21.9814  -28.8572   15.6435 C   0  0  0  0  0  0  0  0  0  0  0  0
  -20.9062  -27.7591   20.3841 C   0  0  1  0  0  0  0  0  0  0  0  0
  -19.9995  -27.7675   16.7034 C   0  0  2  0  0  0  0  0  0  0  0  0
  -19.9417  -27.1473   21.4390 C   0  0  0  0  0  0  0  0  0  0  0  0
  -25.9298  -16.0332   21.0943 N   0  0  0  0  0  0  0  0  0  0  0  0
  -34.3698  -22.1655   23.7607 N   0  0  0  0  0  0  0  0  0  0  0  0
  -25.8054  -17.0690   21.9415 N   0  0  0  0  0  0  0  0  0  0  0  0
  -30.1518  -24.4631   18.8519 N   0  0  0  0  0  0  0  0  0  0  0  0
  -22.8555  -29.1786   20.9403 N   0  0  0  0  0  0  0  0  0  0  0  0
  -28.2430  -19.5483   20.3317 N   0  0  0  0  0  0  0  0  0  0  0  0
  -24.9124  -17.6919   24.0451 N   0  0  0  0  0  0  0  0  0  0  0  0
  -23.7882  -13.3326   23.6854 N   0  0  0  0  0  0  0  0  0  0  0  0
  -30.1016  -21.0027   20.1017 N   0  0  0  0  0  0  0  0  0  0  0  0
  -24.1400  -31.1359   23.7358 N   0  0  0  0  0  0  0  0  0  0  0  0
  -20.3003  -27.9750   19.0746 N   0  0  0  0  0  0  0  0  0  0  0  0
  -20.8861  -27.8626   15.5093 N   0  3  0  0  0  0  0  0  0  0  0  0
  -23.6395  -15.1896   25.0226 O   0  0  0  0  0  0  0  0  0  0  0  0
  -23.3865  -28.9538   23.4308 O   0  0  0  0  0  0  0  0  0  0  0  0
  -20.6869  -30.0300   21.0332 O   0  0  0  0  0  0  0  0  0  0  0  0
  -21.7898  -26.6551   17.8845 O   0  0  0  0  0  0  0  0  0  0  0  0
  -30.3342  -18.9699   21.1526 O   0  0  0  0  0  0  0  0  0  0  0  0
  -31.0236  -23.2366   15.6300 O   0  0  0  0  0  0  0  0  0  0  0  0
  -24.9776   -9.9669   19.4084 O   0  0  0  0  0  0  0  0  0  0  0  0
  -28.3352  -26.6045   19.7571 O   0  0  0  0  0  0  0  0  0  1  0  0
  -20.1107   -7.3802   19.5690 F   0  0  0  0  0  0  0  0  0  0  0  0
  -23.6842   -9.2324   17.0781 F   0  0  0  0  0  0  0  0  0  0  0  0
  -31.9467  -21.2388   24.2850 F   0  0  0  0  0  0  0  0  0  0  0  0
  1  2  1  0  0  0  0
  1  5  2  0  0  0  0
  2  6  2  0  0  0  0
  3  8  2  0  0  0  0
  3 15  1  0  0  0  0
  4  9  1  0  0  0  0
  4 15  2  0  0  0  0
  5 17  1  0  0  0  0
  6 19  1  0  0  0  0
  7 10  2  0  0  0  0
  7 18  1  0  0  0  0
  8 21  1  0  0  0  0
  9 21  2  0  0  0  0
 10 22  1  0  0  0  0
 11 12  2  0  0  0  0
 11 23  1  0  0  0  0
 12 24  1  0  0  0  0
 13 20  1  0  0  0  0
 13 22  2  0  0  0  0
 14 24  2  0  0  0  0
 14 25  1  0  0  0  0
 15 26  1  0  0  0  0
 16 26  1  0  0  0  0
 16 27  2  0  0  0  0
 16 41  1  0  0  0  0
 17 19  2  0  0  0  0
 17 46  1  0  0  0  0
 18 20  2  0  0  0  0
 18 47  1  0  0  0  0
 19 55  1  0  0  0  0
 20 48  1  0  0  0  0
 21 84  1  0  0  0  0
 22 85  1  0  0  0  0
 23 25  2  0  0  0  0
 23 84  1  0  0  0  0
 24 86  1  0  0  0  0
 25 87  1  0  0  0  0
 26 66  2  0  0  0  0
 27 68  1  0  0  0  0
 27 72  1  0  0  0  0
 28 29  2  0  0  0  0
 28 32  1  0  0  0  0
 29 36  1  0  0  0  0
 30 33  1  0  0  0  0
 30 35  2  0  0  0  0
 31 34  2  0  0  0  0
 31 37  1  0  0  0  0
 32 33  2  0  0  0  0
 32 39  1  0  0  0  0
 33 74  1  0  0  0  0
 34 38  1  0  0  0  0
 34 83  1  0  0  0  0
 35 36  1  0  0  0  0
 35 88  1  0  0  0  0
 36 67  2  0  0  0  0
 37 40  2  0  0  0  0
 37 69  1  0  0  0  0
 38 39  2  0  0  0  0
 38 69  1  0  0  0  0
 40 85  1  0  0  0  0
 41 73  1  0  0  0  0
 41 78  2  0  0  0  0
 42 56  1  0  0  0  0
 42 75  1  0  0  0  0
 42 79  2  0  0  0  0
 43 63  1  0  0  0  0
 43 70  1  0  0  0  0
 43 80  2  0  0  0  0
 44 64  1  0  0  0  0
 44 76  1  0  0  0  0
 44 81  2  0  0  0  0
 45 71  1  0  0  0  0
 45 74  1  0  0  0  0
 45 82  2  0  0  0  0
 46 49  1  0  0  0  0
 47 56  1  0  0  0  0
 48 70  1  0  0  0  0
 49 51  1  0  0  0  0
 50 52  1  0  0  0  0
 50 53  1  0  0  0  0
 51 55  1  0  0  0  0
 52 57  1  0  0  0  0
 53 71  1  0  0  0  0
 54 57  1  0  0  0  0
 54 71  1  0  0  0  0
 55 75  1  0  0  0  0
 56 70  1  0  0  0  0
 57 68  1  0  0  0  0
 58 64  1  0  0  0  0
 59 65  1  0  0  0  0
 60 65  1  0  0  0  0
 61 65  1  0  0  0  0
 62 77  1  0  0  0  0
 63 65  1  0  0  0  0
 63 76  1  0  0  0  0
 64 77  1  0  0  0  0
 66 68  1  0  0  0  0
M  CHG  1  77   1
M  ISO  4  40 101  45 100  74 100  85 101
M  END
> <Batch ID>
0082

> <Smiles>
CNC(C)C(=O)NC(C(=O)N1Cc2cc([101O:1][101CH2:1]C3=CC(=O)C(=Cc4ccc(=N)c(F)cc4[100NH:0][100C:0](=O)N4CCCC(n5nc(-c6ccc(Oc7ccc(F)cc7F)cc6)c(C(N)=O)c5N)C4)N3)ccc2CC1C(=O)NC1CCCc2ccccc21)C(C)(C)C

> <Shape>
0.264

> <Color>
0.078

> <Negative vol penalty>
0.000

$$$$

  -OEChem-04052300073D

 83 92  0     1  0  0  0  0  0999 V2000
  -31.7061  -34.3265   22.3121 C   0  0  0  0  0  0  0  0  0  0  0  0
  -31.4129  -33.0942   21.7367 C   0  0  0  0  0  0  0  0  0  0  0  0
  -23.4334  -18.2740   16.2350 C   0  0  0  0  0  0  0  0  0  0  0  0
  -24.6694   -9.1822   21.8871 C   0  0  0  0  0  0  0  0  0  0  0  0
  -23.1915  -10.0101   20.1645 C   0  0  0  0  0  0  0  0  0  0  0  0
  -31.0048  -34.7528   23.4392 C   0  0  0  0  0  0  0  0  0  0  0  0
  -30.4190  -32.2870   22.2889 C   0  0  0  0  0  0  0  0  0  0  0  0
  -26.5819  -28.5883   19.2719 C   0  0  0  0  0  0  0  0  0  0  0  0
  -23.5500  -19.5998   16.6524 C   0  0  0  0  0  0  0  0  0  0  0  0
  -24.2991  -17.3046   16.7414 C   0  0  0  0  0  0  0  0  0  0  0  0
  -23.5839   -8.5931   22.5354 C   0  0  0  0  0  0  0  0  0  0  0  0
  -22.1059   -9.4210   20.8127 C   0  0  0  0  0  0  0  0  0  0  0  0
  -26.5986  -27.2154   19.0298 C   0  0  0  0  0  0  0  0  0  0  0  0
  -21.6893   -5.8131   22.1963 C   0  0  0  0  0  0  0  0  0  0  0  0
  -21.8422   -4.5064   22.6597 C   0  0  0  0  0  0  0  0  0  0  0  0
  -25.1507  -26.8692   20.9279 C   0  0  0  0  0  0  0  0  0  0  0  0
  -25.3983  -18.9869   18.0826 C   0  0  0  0  0  0  0  0  0  0  0  0
  -21.4064   -5.2554   24.9150 C   0  0  0  0  0  0  0  0  0  0  0  0
  -24.4732   -9.8908   20.7017 C   0  0  0  0  0  0  0  0  0  0  0  0
  -26.4150   -9.9179   19.0476 C   0  0  0  0  0  0  0  0  0  0  0  0
  -29.9951  -33.9547   23.9997 C   0  0  0  0  0  0  0  0  0  0  0  0
  -25.8571  -29.1118   20.3521 C   0  0  0  0  0  0  0  0  0  0  0  0
  -29.7044  -32.7025   23.4254 C   0  0  0  0  0  0  0  0  0  0  0  0
  -25.1244  -28.2494   21.1800 C   0  0  0  0  0  0  0  0  0  0  0  0
  -24.5324  -19.9562   17.5762 C   0  0  0  0  0  0  0  0  0  0  0  0
  -25.2816  -17.6610   17.6652 C   0  0  0  0  0  0  0  0  0  0  0  0
  -22.3021   -8.7125   21.9982 C   0  0  0  0  0  0  0  0  0  0  0  0
  -25.8853  -26.3553   19.8596 C   0  0  0  0  0  0  0  0  0  0  0  0
  -21.3950   -6.8410   23.0921 C   0  0  0  0  0  0  0  0  0  0  0  0
  -21.7007   -4.2276   24.0191 C   0  0  0  0  0  0  0  0  0  0  0  0
  -21.2535   -6.5621   24.4515 C   0  0  0  0  0  0  0  0  0  0  0  0
  -25.5941  -10.5000   20.0320 C   0  0  0  0  0  0  0  0  0  0  0  0
  -27.3255  -10.8980   18.7363 C   0  0  0  0  0  0  0  0  0  0  0  0
  -24.8600  -23.1857   18.5014 C   0  0  0  0  0  0  0  0  0  0  0  0
  -23.9577  -22.3879   17.6702 C   0  0  0  0  0  0  0  0  0  0  0  0
  -24.9417  -24.4943   18.8027 C   0  0  0  0  0  0  0  0  0  1  0  0
  -26.3595   -8.6084   18.4664 C   0  0  0  0  0  0  0  0  0  0  0  0
  -26.6060  -30.7398   22.9775 C   0  0  0  0  0  0  0  0  0  0  0  0
  -23.3853  -30.8884   23.3340 C   0  0  0  0  0  0  0  0  0  0  0  0
  -20.3281  -29.5406   22.6384 C   0  0  0  0  0  0  0  0  0  0  0  0
  -27.1899  -16.8607   19.1019 C   0  0  0  0  0  0  0  0  0  0  0  0
  -29.2968  -34.4369   25.2465 C   0  0  0  0  0  0  0  0  0  0  0  0
  -25.8276  -30.5977   20.5838 C   0  0  0  0  0  0  0  0  0  0  0  0
  -24.3139  -28.7631   22.3409 C   0  0  0  0  0  0  0  0  0  0  0  0
  -25.6178  -21.9232   18.8428 C   0  0  0  0  0  0  0  0  0  0  0  0
  -28.0011  -33.6879   25.5473 C   0  0  0  0  0  0  0  0  0  0  0  0
  -29.5494  -14.6858   20.6445 C   0  0  0  0  0  0  0  0  0  0  0  0
  -28.2106  -32.1831   25.4115 C   0  0  0  0  0  0  0  0  0  0  0  0
  -28.8803  -13.3116   20.5675 C   0  0  0  0  0  0  0  0  0  0  0  0
  -28.5338  -15.7976   20.9016 C   0  0  0  0  0  0  0  0  0  0  0  0
  -26.7308  -14.4564   19.8919 C   0  0  0  0  0  0  0  0  0  0  0  0
  -28.6161  -31.8095   23.9806 C   0  0  1  0  0  0  0  0  0  0  0  0
  -25.4720  -30.9717   22.0194 C   0  0  1  0  0  0  0  0  0  0  0  0
  -27.7056  -13.3120   19.5696 C   0  0  2  0  0  0  0  0  0  0  0  0
  -17.8826  -29.8610   23.1011 C   0  0  0  0  0  0  0  0  0  0  0  0
  -23.7683  -29.7449   26.1368 C   0  0  0  0  0  0  0  0  0  0  0  0
  -21.3237  -29.2058   26.1754 C   0  0  0  0  0  0  0  0  0  0  0  0
  -22.0732  -31.5771   25.9802 C   0  0  0  0  0  0  0  0  0  0  0  0
  -19.7168  -29.9249   19.7683 C   0  0  0  0  0  0  0  0  0  0  0  0
  -22.3427  -30.0252   24.0025 C   0  0  1  0  0  0  0  0  0  0  0  0
  -19.0342  -30.1728   22.1581 C   0  0  2  0  0  0  0  0  0  0  0  0
  -22.3937  -30.1281   25.5531 C   0  0  0  0  0  0  0  0  0  0  0  0
  -25.9515  -11.7527   20.3267 N   0  0  0  0  0  0  0  0  0  0  0  0
  -27.0072  -11.9659   19.5228 N   0  0  0  0  0  0  0  0  0  0  0  0
  -24.6466  -21.2638   17.9878 N   0  0  0  0  0  0  0  0  0  0  0  0
  -24.3218  -30.2231   22.5301 N   0  0  0  0  0  0  0  0  0  0  0  0
  -27.4526  -15.7383   19.9155 N   0  0  0  0  0  0  0  0  0  0  0  0
  -28.3594  -10.9420   17.8694 N   0  0  0  0  0  0  0  0  0  0  0  0
  -25.3605   -7.7265   18.9007 N   0  0  0  0  0  0  0  0  0  0  0  0
  -26.1607  -16.6758   18.1793 N   0  0  0  0  0  0  0  0  0  0  0  0
  -27.4606  -31.8177   23.1093 N   0  0  0  0  0  0  0  0  0  0  0  0
  -21.0611  -30.4083   23.4201 N   0  0  0  0  0  0  0  0  0  0  0  0
  -18.6819  -29.6652   20.8020 N   0  3  0  0  0  0  0  0  0  0  0  0
  -22.9957  -22.6276   16.9706 O   0  0  0  0  0  0  0  0  0  0  0  0
  -27.1819   -8.2258   17.5999 O   0  0  0  0  0  0  0  0  0  0  0  0
  -26.6981  -29.6631   23.5555 O   0  0  0  0  0  0  0  0  0  0  0  0
  -23.3651  -32.1088   23.5126 O   0  0  0  0  0  0  0  0  0  0  0  0
  -20.6541  -28.3907   22.3519 O   0  0  0  0  0  0  0  0  0  0  0  0
  -27.8488  -17.8994   19.1967 O   0  0  0  0  0  0  0  0  0  0  0  0
  -21.2427   -8.1376   22.6303 O   0  0  0  0  0  0  0  0  0  0  0  0
  -25.9004  -25.0148   19.6260 O   0  0  0  0  0  0  0  0  0  1  0  0
  -21.8461   -2.9725   24.4639 F   0  0  0  0  0  0  0  0  0  0  0  0
  -20.9696   -7.5452   25.3168 F   0  0  0  0  0  0  0  0  0  0  0  0
  1  2  1  0  0  0  0
  1  6  2  0  0  0  0
  2  7  2  0  0  0  0
  3  9  2  0  0  0  0
  3 10  1  0  0  0  0
  4 11  2  0  0  0  0
  4 19  1  0  0  0  0
  5 12  1  0  0  0  0
  5 19  2  0  0  0  0
  6 21  1  0  0  0  0
  7 23  1  0  0  0  0
  8 13  2  0  0  0  0
  8 22  1  0  0  0  0
  9 25  1  0  0  0  0
 10 26  2  0  0  0  0
 11 27  1  0  0  0  0
 12 27  2  0  0  0  0
 13 28  1  0  0  0  0
 14 15  2  0  0  0  0
 14 29  1  0  0  0  0
 15 30  1  0  0  0  0
 16 24  1  0  0  0  0
 16 28  2  0  0  0  0
 17 25  2  0  0  0  0
 17 26  1  0  0  0  0
 18 30  2  0  0  0  0
 18 31  1  0  0  0  0
 19 32  1  0  0  0  0
 20 32  1  0  0  0  0
 20 33  2  0  0  0  0
 20 37  1  0  0  0  0
 21 23  2  0  0  0  0
 21 42  1  0  0  0  0
 22 24  2  0  0  0  0
 22 43  1  0  0  0  0
 23 52  1  0  0  0  0
 24 44  1  0  0  0  0
 25 65  1  0  0  0  0
 26 70  1  0  0  0  0
 27 80  1  0  0  0  0
 28 81  1  0  0  0  0
 29 31  2  0  0  0  0
 29 80  1  0  0  0  0
 30 82  1  0  0  0  0
 31 83  1  0  0  0  0
 32 63  2  0  0  0  0
 33 64  1  0  0  0  0
 33 68  1  0  0  0  0
 34 35  1  0  0  0  0
 34 36  2  0  0  0  0
 34 45  1  0  0  0  0
 35 65  1  0  0  0  0
 35 74  2  0  0  0  0
 36 81  1  0  0  0  0
 37 69  1  0  0  0  0
 37 75  2  0  0  0  0
 38 53  1  0  0  0  0
 38 71  1  0  0  0  0
 38 76  2  0  0  0  0
 39 60  1  0  0  0  0
 39 66  1  0  0  0  0
 39 77  2  0  0  0  0
 40 61  1  0  0  0  0
 40 72  1  0  0  0  0
 40 78  2  0  0  0  0
 41 67  1  0  0  0  0
 41 70  1  0  0  0  0
 41 79  2  0  0  0  0
 42 46  1  0  0  0  0
 43 53  1  0  0  0  0
 44 66  1  0  0  0  0
 45 65  1  0  0  0  0
 46 48  1  0  0  0  0
 47 49  1  0  0  0  0
 47 50  1  0  0  0  0
 48 52  1  0  0  0  0
 49 54  1  0  0  0  0
 50 67  1  0  0  0  0
 51 54  1  0  0  0  0
 51 67  1  0  0  0  0
 52 71  1  0  0  0  0
 53 66  1  0  0  0  0
 54 64  1  0  0  0  0
 55 61  1  0  0  0  0
 56 62  1  0  0  0  0
 57 62  1  0  0  0  0
 58 62  1  0  0  0  0
 59 73  1  0  0  0  0
 60 62  1  0  0  0  0
 60 72  1  0  0  0  0
 61 73  1  0  0  0  0
 63 64  1  0  0  0  0
M  CHG  1  73   1
M  ISO  4  36 101  41 100  70 100  81 101
M  END
> <Batch ID>
0082

> <Smiles>
CNC(C)C(=O)NC(C(=O)N1Cc2cc([101O:1][101CH:1]=C3CN(c4cccc([100NH:0][100C:0](=O)N5CCCC(n6nc(-c7ccc(Oc8ccc(F)cc8F)cc7)c(C(N)=O)c6N)C5)c4)C3=O)ccc2CC1C(=O)NC1CCCc2ccccc21)C(C)(C)C

> <Shape>
0.244

> <Color>
0.100

> <Negative vol penalty>
0.000

$$$$

  -OEChem-04052300073D

 81 90  0     1  0  0  0  0  0999 V2000
  -29.8471  -36.7381   20.6990 C   0  0  0  0  0  0  0  0  0  0  0  0
  -29.8382  -35.4575   20.1555 C   0  0  0  0  0  0  0  0  0  0  0  0
  -22.7790  -10.1274   22.0034 C   0  0  0  0  0  0  0  0  0  0  0  0
  -24.0276   -9.3748   20.0769 C   0  0  0  0  0  0  0  0  0  0  0  0
  -29.3479  -36.9526   21.9830 C   0  0  0  0  0  0  0  0  0  0  0  0
  -29.3310  -34.3904   20.8961 C   0  0  0  0  0  0  0  0  0  0  0  0
  -26.2863  -29.5324   18.7432 C   0  0  0  0  0  0  0  0  0  0  0  0
  -22.1666   -8.8775   22.0949 C   0  0  0  0  0  0  0  0  0  0  0  0
  -23.4153   -8.1249   20.1684 C   0  0  0  0  0  0  0  0  0  0  0  0
  -26.6885  -28.2326   18.4393 C   0  0  0  0  0  0  0  0  0  0  0  0
  -22.9526   -5.7969   23.2459 C   0  0  0  0  0  0  0  0  0  0  0  0
  -22.8604   -5.2110   24.5083 C   0  0  0  0  0  0  0  0  0  0  0  0
  -25.9506  -27.5017   20.6166 C   0  0  0  0  0  0  0  0  0  0  0  0
  -25.3752  -21.3048   19.7823 C   0  0  0  0  0  0  0  0  0  0  0  0
  -20.4520   -5.1819   24.3190 C   0  0  0  0  0  0  0  0  0  0  0  0
  -22.0566  -19.8707   19.5079 C   0  0  0  0  0  0  0  0  0  0  0  0
  -23.7095  -10.3761   20.9944 C   0  0  0  0  0  0  0  0  0  0  0  0
  -25.5398  -12.0747   21.5161 C   0  0  0  0  0  0  0  0  0  0  0  0
  -28.8254  -35.8893   22.7360 C   0  0  0  0  0  0  0  0  0  0  0  0
  -25.7222  -29.8294   19.9922 C   0  0  0  0  0  0  0  0  0  0  0  0
  -28.8255  -34.5907   22.1919 C   0  0  0  0  0  0  0  0  0  0  0  0
  -25.5397  -28.8057   20.9329 C   0  0  0  0  0  0  0  0  0  0  0  0
  -24.0883  -20.7335   19.6634 C   0  0  0  0  0  0  0  0  0  0  0  0
  -23.2245  -21.7002   19.2856 C   0  0  0  0  0  0  0  0  0  0  0  0
  -22.4848   -7.8763   21.1774 C   0  0  0  0  0  0  0  0  0  0  0  0
  -26.5233  -27.2175   19.3772 C   0  0  0  0  0  0  0  0  0  0  0  0
  -21.7945   -6.0754   22.5200 C   0  0  0  0  0  0  0  0  0  0  0  0
  -21.9213  -21.2039   19.1654 C   0  0  0  0  0  0  0  0  0  0  0  0
  -21.6102   -4.9035   25.0449 C   0  0  0  0  0  0  0  0  0  0  0  0
  -20.5442   -5.7679   23.0565 C   0  0  0  0  0  0  0  0  0  0  0  0
  -24.3419  -11.6673   20.8991 C   0  0  0  0  0  0  0  0  0  0  0  0
  -25.1598  -22.6231   19.4507 C   0  0  0  0  0  0  0  0  0  0  0  0
  -25.7071  -13.3775   21.1146 C   0  0  0  0  0  0  0  0  0  0  0  0
  -26.1440  -23.6414   19.4131 C   0  0  0  0  0  0  0  0  0  0  0  0
  -25.9552  -24.9650   19.1053 C   0  0  0  0  0  0  0  0  0  1  0  0
  -26.4226  -11.3411   22.3754 C   0  0  0  0  0  0  0  0  0  0  0  0
  -26.5264  -31.7077   22.4271 C   0  0  0  0  0  0  0  0  0  0  0  0
  -23.6277  -30.8080   23.5717 C   0  0  0  0  0  0  0  0  0  0  0  0
  -21.1046  -28.5100   23.5862 C   0  0  0  0  0  0  0  0  0  0  0  0
  -23.9473  -18.3347   20.2089 C   0  0  0  0  0  0  0  0  0  0  0  0
  -28.3403  -36.1621   24.1378 C   0  0  0  0  0  0  0  0  0  0  0  0
  -25.2690  -31.2314   20.2945 C   0  0  0  0  0  0  0  0  0  0  0  0
  -24.9207  -29.0683   22.2806 C   0  0  0  0  0  0  0  0  0  0  0  0
  -27.4766  -35.0420   24.7121 C   0  0  0  0  0  0  0  0  0  0  0  0
  -23.3104  -16.0823   17.5890 C   0  0  0  0  0  0  0  0  0  0  0  0
  -28.1240  -33.6846   24.4574 C   0  0  0  0  0  0  0  0  0  0  0  0
  -23.6163  -14.7497   18.2708 C   0  0  0  0  0  0  0  0  0  0  0  0
  -22.5632  -17.0444   18.5152 C   0  0  0  0  0  0  0  0  0  0  0  0
  -23.5403  -15.9319   20.4968 C   0  0  0  0  0  0  0  0  0  0  0  0
  -28.2609  -33.4119   22.9546 C   0  0  1  0  0  0  0  0  0  0  0  0
  -25.1787  -31.5208   21.7897 C   0  0  1  0  0  0  0  0  0  0  0  0
  -24.3441  -14.9707   19.6080 C   0  0  1  0  0  0  0  0  0  0  0  0
  -18.8836  -28.0298   24.6511 C   0  0  0  0  0  0  0  0  0  0  0  0
  -25.0443  -29.9561   26.1364 C   0  0  0  0  0  0  0  0  0  0  0  0
  -22.9988  -28.6490   26.7495 C   0  0  0  0  0  0  0  0  0  0  0  0
  -22.8623  -31.1262   26.4891 C   0  0  0  0  0  0  0  0  0  0  0  0
  -19.7101  -28.5678   20.9764 C   0  0  0  0  0  0  0  0  0  0  0  0
  -23.1231  -29.6764   24.4343 C   0  0  1  0  0  0  0  0  0  0  0  0
  -19.5991  -28.6663   23.4698 C   0  0  2  0  0  0  0  0  0  0  0  0
  -23.5206  -29.8470   25.9278 C   0  0  0  0  0  0  0  0  0  0  0  0
  -23.7873  -12.6330   20.1617 N   0  0  0  0  0  0  0  0  0  0  0  0
  -23.3858  -19.5443   19.7762 N   0  0  0  0  0  0  0  0  0  0  0  0
  -24.6405  -13.6603   20.3129 N   0  0  0  0  0  0  0  0  0  0  0  0
  -24.4994  -30.4565   22.5314 N   0  0  0  0  0  0  0  0  0  0  0  0
  -23.2677  -17.1893   19.7991 N   0  0  0  0  0  0  0  0  0  0  0  0
  -26.6609  -14.2973   21.3726 N   0  0  0  0  0  0  0  0  0  0  0  0
  -26.1009  -10.0129   22.6867 N   0  0  0  0  0  0  0  0  0  0  0  0
  -26.9878  -33.0099   22.3959 N   0  0  0  0  0  0  0  0  0  0  0  0
  -21.6847  -29.5977   24.2041 N   0  0  0  0  0  0  0  0  0  0  0  0
  -19.1066  -28.0221   22.2194 N   0  3  0  0  0  0  0  0  0  0  0  0
  -27.4570  -11.8535   22.8662 O   0  0  0  0  0  0  0  0  0  0  0  0
  -27.1042  -30.7423   22.9128 O   0  0  0  0  0  0  0  0  0  0  0  0
  -23.2562  -31.9603   23.8077 O   0  0  0  0  0  0  0  0  0  0  0  0
  -21.7054  -27.5203   23.1740 O   0  0  0  0  0  0  0  0  0  0  0  0
  -24.9235  -18.3904   20.9467 O   0  0  0  0  0  0  0  0  0  0  0  0
  -23.8587  -22.8929   19.1424 O   0  0  0  0  0  0  0  0  0  0  0  0
  -20.8019  -21.8575   18.8470 O   0  0  0  0  0  0  0  0  0  0  0  0
  -21.8877   -6.6564   21.2664 O   0  0  0  0  0  0  0  0  0  0  0  0
  -26.9182  -25.9397   19.0815 O   0  0  0  0  0  0  0  0  0  1  0  0
  -21.5219   -4.3394   26.2566 F   0  0  0  0  0  0  0  0  0  0  0  0
  -19.4281   -6.0320   22.3634 F   0  0  0  0  0  0  0  0  0  0  0  0
  1  2  1  0  0  0  0
  1  5  2  0  0  0  0
  2  6  2  0  0  0  0
  3  8  2  0  0  0  0
  3 17  1  0  0  0  0
  4  9  1  0  0  0  0
  4 17  2  0  0  0  0
  5 19  1  0  0  0  0
  6 21  1  0  0  0  0
  7 10  2  0  0  0  0
  7 20  1  0  0  0  0
  8 25  1  0  0  0  0
  9 25  2  0  0  0  0
 10 26  1  0  0  0  0
 11 12  2  0  0  0  0
 11 27  1  0  0  0  0
 12 29  1  0  0  0  0
 13 22  1  0  0  0  0
 13 26  2  0  0  0  0
 14 23  1  0  0  0  0
 14 32  2  0  0  0  0
 15 29  2  0  0  0  0
 15 30  1  0  0  0  0
 16 28  2  0  0  0  0
 16 62  1  0  0  0  0
 17 31  1  0  0  0  0
 18 31  1  0  0  0  0
 18 33  2  0  0  0  0
 18 36  1  0  0  0  0
 19 21  2  0  0  0  0
 19 41  1  0  0  0  0
 20 22  2  0  0  0  0
 20 42  1  0  0  0  0
 21 50  1  0  0  0  0
 22 43  1  0  0  0  0
 23 24  2  0  0  0  0
 23 62  1  0  0  0  0
 24 28  1  0  0  0  0
 24 76  1  0  0  0  0
 25 78  1  0  0  0  0
 26 79  1  0  0  0  0
 27 30  2  0  0  0  0
 27 78  1  0  0  0  0
 28 77  1  0  0  0  0
 29 80  1  0  0  0  0
 30 81  1  0  0  0  0
 31 61  2  0  0  0  0
 32 34  1  0  0  0  0
 32 76  1  0  0  0  0
 33 63  1  0  0  0  0
 33 66  1  0  0  0  0
 34 35  2  0  0  0  0
 35 79  1  0  0  0  0
 36 67  1  0  0  0  0
 36 71  2  0  0  0  0
 37 51  1  0  0  0  0
 37 68  1  0  0  0  0
 37 72  2  0  0  0  0
 38 58  1  0  0  0  0
 38 64  1  0  0  0  0
 38 73  2  0  0  0  0
 39 59  1  0  0  0  0
 39 69  1  0  0  0  0
 39 74  2  0  0  0  0
 40 62  1  0  0  0  0
 40 65  1  0  0  0  0
 40 75  2  0  0  0  0
 41 44  1  0  0  0  0
 42 51  1  0  0  0  0
 43 64  1  0  0  0  0
 44 46  1  0  0  0  0
 45 47  1  0  0  0  0
 45 48  1  0  0  0  0
 46 50  1  0  0  0  0
 47 52  1  0  0  0  0
 48 65  1  0  0  0  0
 49 52  1  0  0  0  0
 49 65  1  0  0  0  0
 50 68  1  0  0  0  0
 51 64  1  0  0  0  0
 52 63  1  0  0  0  0
 53 59  1  0  0  0  0
 54 60  1  0  0  0  0
 55 60  1  0  0  0  0
 56 60  1  0  0  0  0
 57 70  1  0  0  0  0
 58 60  1  0  0  0  0
 58 69  1  0  0  0  0
 59 70  1  0  0  0  0
 61 63  1  0  0  0  0
M  CHG  1  70   1
M  ISO  4  35 101  40 100  62 100  79 101
M  END
> <Batch ID>
0082

> <Smiles>
CNC(C)C(=O)NC(C(=O)N1Cc2cc([101O:1][101CH:1]=Cc3cc4c(o3)C(=O)C[100N:0]4[100C:0](=O)N3CCCC(n4nc(-c5ccc(Oc6ccc(F)cc6F)cc5)c(C(N)=O)c4N)C3)ccc2CC1C(=O)NC1CCCc2ccccc21)C(C)(C)C

> <Shape>
0.219

> <Color>
0.119

> <Negative vol penalty>
0.000

$$$$

  -OEChem-04052300073D

 84 93  0     1  0  0  0  0  0999 V2000
  -28.1035  -37.4657   22.1798 C   0  0  0  0  0  0  0  0  0  0  0  0
  -28.4533  -36.4121   21.3413 C   0  0  0  0  0  0  0  0  0  0  0  0
  -24.3539   -9.0520   21.2884 C   0  0  0  0  0  0  0  0  0  0  0  0
  -23.0680  -11.0961   21.3592 C   0  0  0  0  0  0  0  0  0  0  0  0
  -27.4818  -37.2067   23.4006 C   0  0  0  0  0  0  0  0  0  0  0  0
  -28.1824  -35.0988   21.7236 C   0  0  0  0  0  0  0  0  0  0  0  0
  -26.4259  -28.7285   18.9577 C   0  0  0  0  0  0  0  0  0  0  0  0
  -23.5206   -8.4942   22.2580 C   0  0  0  0  0  0  0  0  0  0  0  0
  -22.2347  -10.5383   22.3288 C   0  0  0  0  0  0  0  0  0  0  0  0
  -26.8376  -27.3966   18.9742 C   0  0  0  0  0  0  0  0  0  0  0  0
  -20.4490   -7.0869   22.3920 C   0  0  0  0  0  0  0  0  0  0  0  0
  -20.0010   -5.7817   22.1887 C   0  0  0  0  0  0  0  0  0  0  0  0
  -25.6882  -27.0736   21.0703 C   0  0  0  0  0  0  0  0  0  0  0  0
  -28.9404  -18.9864   20.1385 C   0  0  0  0  0  0  0  0  0  0  0  0
  -21.0629   -5.0964   24.2478 C   0  0  0  0  0  0  0  0  0  0  0  0
  -26.7419  -18.6085   20.1517 C   0  0  0  0  0  0  0  0  0  0  0  0
  -24.1276  -10.3530   20.8390 C   0  0  0  0  0  0  0  0  0  0  0  0
  -24.8236  -10.8748   18.4409 C   0  0  0  0  0  0  0  0  0  0  0  0
  -27.1945  -35.8900   23.7937 C   0  0  0  0  0  0  0  0  0  0  0  0
  -25.6500  -29.2467   20.0045 C   0  0  0  0  0  0  0  0  0  0  0  0
  -27.5575  -34.8218   22.9514 C   0  0  0  0  0  0  0  0  0  0  0  0
  -25.2657  -28.4117   21.0634 C   0  0  0  0  0  0  0  0  0  0  0  0
  -27.9587  -17.9671   20.1567 C   0  0  0  0  0  0  0  0  0  0  0  0
  -22.4610   -9.2373   22.7781 C   0  0  0  0  0  0  0  0  0  0  0  0
  -26.4712  -26.5697   20.0321 C   0  0  0  0  0  0  0  0  0  0  0  0
  -21.2041   -7.3969   23.5232 C   0  0  0  0  0  0  0  0  0  0  0  0
  -20.3079   -4.7865   23.1165 C   0  0  0  0  0  0  0  0  0  0  0  0
  -21.5110   -6.4016   24.4511 C   0  0  0  0  0  0  0  0  0  0  0  0
  -24.9884  -10.9299   19.8379 C   0  0  0  0  0  0  0  0  0  0  0  0
  -25.8980  -11.5690   17.9408 C   0  0  0  0  0  0  0  0  0  0  0  0
  -28.2536  -20.1780   20.1234 C   0  0  0  0  0  0  0  0  0  0  0  0
  -28.7189  -23.7763   20.0677 C   0  0  0  0  0  0  0  0  0  0  0  0
  -30.0974  -23.3552   20.0693 C   0  0  0  0  0  0  0  0  0  0  0  0
  -27.8252  -22.5848   20.0893 C   0  0  0  0  0  0  0  0  0  0  0  0
  -31.1977  -24.1152   20.0558 C   0  0  0  0  0  0  0  0  0  0  0  0
  -28.2141  -25.0099   20.0502 C   0  0  0  0  0  0  0  0  0  1  0  0
  -23.7915  -10.2519   17.6648 C   0  0  0  0  0  0  0  0  0  0  0  0
  -26.0470  -31.5421   22.1672 C   0  0  0  0  0  0  0  0  0  0  0  0
  -22.9607  -30.8554   22.8920 C   0  0  0  0  0  0  0  0  0  0  0  0
  -20.4097  -28.5888   22.8483 C   0  0  0  0  0  0  0  0  0  0  0  0
  -29.3730  -15.8825   20.1821 C   0  0  0  0  0  0  0  0  0  0  0  0
  -26.5639  -35.6568   25.1438 C   0  0  0  0  0  0  0  0  0  0  0  0
  -25.1915  -30.6785   19.9585 C   0  0  0  0  0  0  0  0  0  0  0  0
  -24.4166  -28.9140   22.2015 C   0  0  0  0  0  0  0  0  0  0  0  0
  -30.0989  -21.8566   20.0918 C   0  0  0  0  0  0  0  0  0  0  0  0
  -25.9733  -34.2586   25.3068 C   0  0  0  0  0  0  0  0  0  0  0  0
  -30.4336  -12.7045   18.9768 C   0  0  0  0  0  0  0  0  0  0  0  0
  -26.9568  -33.2027   24.8124 C   0  0  0  0  0  0  0  0  0  0  0  0
  -29.1417  -11.8857   18.9279 C   0  0  0  0  0  0  0  0  0  0  0  0
  -30.4616  -13.6487   20.1774 C   0  0  0  0  0  0  0  0  0  0  0  0
  -28.0000  -13.7087   20.2546 C   0  0  0  0  0  0  0  0  0  0  0  0
  -27.2579  -33.3850   23.3198 C   0  0  1  0  0  0  0  0  0  0  0  0
  -24.8352  -31.2363   21.3330 C   0  0  1  0  0  0  0  0  0  0  0  0
  -27.8973  -12.7898   19.0263 C   0  0  2  0  0  0  0  0  0  0  0  0
  -18.0166  -28.3026   23.5473 C   0  0  0  0  0  0  0  0  0  0  0  0
  -23.8523  -30.4929   25.7874 C   0  0  0  0  0  0  0  0  0  0  0  0
  -21.6900  -29.3119   26.2323 C   0  0  0  0  0  0  0  0  0  0  0  0
  -21.6793  -31.6990   25.5082 C   0  0  0  0  0  0  0  0  0  0  0  0
  -19.5240  -28.1624   20.0567 C   0  0  0  0  0  0  0  0  0  0  0  0
  -22.2713  -29.8988   23.8346 C   0  0  1  0  0  0  0  0  0  0  0  0
  -18.9571  -28.7151   22.4257 C   0  0  2  0  0  0  0  0  0  0  0  0
  -22.3908  -30.3414   25.3203 C   0  0  0  0  0  0  0  0  0  0  0  0
  -26.0816  -11.6056   20.2019 N   0  0  0  0  0  0  0  0  0  0  0  0
  -26.6134  -11.9813   19.0263 N   0  0  0  0  0  0  0  0  0  0  0  0
  -28.6879  -21.4755   20.1026 N   0  0  0  0  0  0  0  0  0  0  0  0
  -23.9986  -30.3230   22.1141 N   0  0  0  0  0  0  0  0  0  0  0  0
  -29.2539  -14.4767   20.2029 N   0  0  0  0  0  0  0  0  0  0  0  0
  -26.2912  -11.8608   16.6827 N   0  0  0  0  0  0  0  0  0  0  0  0
  -22.7622   -9.5802   18.3384 N   0  0  0  0  0  0  0  0  0  0  0  0
  -28.1564  -16.5641   20.1764 N   0  0  0  0  0  0  0  0  0  0  0  0
  -26.1671  -32.8733   22.5180 N   0  0  0  0  0  0  0  0  0  0  0  0
  -20.8984  -29.7735   23.3572 N   0  0  0  0  0  0  0  0  0  0  0  0
  -18.6849  -27.8509   21.2424 N   0  3  0  0  0  0  0  0  0  0  0  0
  -26.6054  -22.6104   20.0938 O   0  0  0  0  0  0  0  0  0  0  0  0
  -23.7911  -10.2758   16.4106 O   0  0  0  0  0  0  0  0  0  0  0  0
  -26.8152  -30.6372   22.4713 O   0  0  0  0  0  0  0  0  0  0  0  0
  -22.5871  -32.0300   22.8423 O   0  0  0  0  0  0  0  0  0  0  0  0
  -21.0460  -27.5427   22.7414 O   0  0  0  0  0  0  0  0  0  0  0  0
  -30.4727  -16.4401   20.1427 O   0  0  0  0  0  0  0  0  0  0  0  0
  -26.9130  -19.9564   20.1312 O   0  0  0  0  0  0  0  0  0  0  0  0
  -21.6475   -8.6933   23.7241 O   0  0  0  0  0  0  0  0  0  0  0  0
  -26.8723  -25.2694   20.0511 O   0  0  0  0  0  0  0  0  0  1  0  0
  -19.8763   -3.5335   22.9219 F   0  0  0  0  0  0  0  0  0  0  0  0
  -22.2350   -6.6936   25.5403 F   0  0  0  0  0  0  0  0  0  0  0  0
  1  2  1  0  0  0  0
  1  5  2  0  0  0  0
  2  6  2  0  0  0  0
  3  8  2  0  0  0  0
  3 17  1  0  0  0  0
  4  9  1  0  0  0  0
  4 17  2  0  0  0  0
  5 19  1  0  0  0  0
  6 21  1  0  0  0  0
  7 10  2  0  0  0  0
  7 20  1  0  0  0  0
  8 24  1  0  0  0  0
  9 24  2  0  0  0  0
 10 25  1  0  0  0  0
 11 12  2  0  0  0  0
 11 26  1  0  0  0  0
 12 27  1  0  0  0  0
 13 22  1  0  0  0  0
 13 25  2  0  0  0  0
 14 23  1  0  0  0  0
 14 31  2  0  0  0  0
 15 27  2  0  0  0  0
 15 28  1  0  0  0  0
 16 23  2  0  0  0  0
 16 80  1  0  0  0  0
 17 29  1  0  0  0  0
 18 29  1  0  0  0  0
 18 30  2  0  0  0  0
 18 37  1  0  0  0  0
 19 21  2  0  0  0  0
 19 42  1  0  0  0  0
 20 22  2  0  0  0  0
 20 43  1  0  0  0  0
 21 52  1  0  0  0  0
 22 44  1  0  0  0  0
 23 70  1  0  0  0  0
 24 81  1  0  0  0  0
 25 82  1  0  0  0  0
 26 28  2  0  0  0  0
 26 81  1  0  0  0  0
 27 83  1  0  0  0  0
 28 84  1  0  0  0  0
 29 63  2  0  0  0  0
 30 64  1  0  0  0  0
 30 68  1  0  0  0  0
 31 65  1  0  0  0  0
 31 80  1  0  0  0  0
 32 33  1  0  0  0  0
 32 34  1  0  0  0  0
 32 36  2  0  0  0  0
 33 35  2  0  0  0  0
 33 45  1  0  0  0  0
 34 65  1  0  0  0  0
 34 74  2  0  0  0  0
 36 82  1  0  0  0  0
 37 69  1  0  0  0  0
 37 75  2  0  0  0  0
 38 53  1  0  0  0  0
 38 71  1  0  0  0  0
 38 76  2  0  0  0  0
 39 60  1  0  0  0  0
 39 66  1  0  0  0  0
 39 77  2  0  0  0  0
 40 61  1  0  0  0  0
 40 72  1  0  0  0  0
 40 78  2  0  0  0  0
 41 67  1  0  0  0  0
 41 70  1  0  0  0  0
 41 79  2  0  0  0  0
 42 46  1  0  0  0  0
 43 53  1  0  0  0  0
 44 66  1  0  0  0  0
 45 65  1  0  0  0  0
 46 48  1  0  0  0  0
 47 49  1  0  0  0  0
 47 50  1  0  0  0  0
 48 52  1  0  0  0  0
 49 54  1  0  0  0  0
 50 67  1  0  0  0  0
 51 54  1  0  0  0  0
 51 67  1  0  0  0  0
 52 71  1  0  0  0  0
 53 66  1  0  0  0  0
 54 64  1  0  0  0  0
 55 61  1  0  0  0  0
 56 62  1  0  0  0  0
 57 62  1  0  0  0  0
 58 62  1  0  0  0  0
 59 73  1  0  0  0  0
 60 62  1  0  0  0  0
 60 72  1  0  0  0  0
 61 73  1  0  0  0  0
 63 64  1  0  0  0  0
M  CHG  1  73   1
M  ISO  4  36 101  41 100  70 100  82 101
M  END
> <Batch ID>
0082

> <Smiles>
C=C1CN(c2cc([100NH:0][100C:0](=O)N3CCCC(n4nc(-c5ccc(Oc6ccc(F)cc6F)cc5)c(C(N)=O)c4N)C3)co2)C(=O)C1=[101CH:1][101O:1]c1ccc2c(c1)CN(C(=O)C(NC(=O)C(C)NC)C(C)(C)C)C(C(=O)NC1CCCc3ccccc31)C2

> <Shape>
0.344

> <Color>
0.091

> <Negative vol penalty>
0.000

$$$$

  -OEChem-04052300073D

 82 91  0     1  0  0  0  0  0999 V2000
  -30.2239  -35.4798   16.3288 C   0  0  0  0  0  0  0  0  0  0  0  0
  -29.7678  -34.1688   16.2361 C   0  0  0  0  0  0  0  0  0  0  0  0
  -25.1239   -8.0574   21.7681 C   0  0  0  0  0  0  0  0  0  0  0  0
  -25.9277   -8.5096   19.5350 C   0  0  0  0  0  0  0  0  0  0  0  0
  -30.4407  -36.0543   17.5806 C   0  0  0  0  0  0  0  0  0  0  0  0
  -29.5292  -33.4311   17.3951 C   0  0  0  0  0  0  0  0  0  0  0  0
  -25.1518  -29.2348   18.2525 C   0  0  0  0  0  0  0  0  0  0  0  0
  -25.5295   -6.7286   21.6451 C   0  0  0  0  0  0  0  0  0  0  0  0
  -26.3334   -7.1807   19.4120 C   0  0  0  0  0  0  0  0  0  0  0  0
  -25.1635  -27.8418   18.1949 C   0  0  0  0  0  0  0  0  0  0  0  0
  -24.3919   -3.9029   20.1802 C   0  0  0  0  0  0  0  0  0  0  0  0
  -23.5054   -2.9135   20.6052 C   0  0  0  0  0  0  0  0  0  0  0  0
  -27.7916  -18.2844   18.7106 C   0  0  0  0  0  0  0  0  0  0  0  0
  -28.1126  -19.6724   18.7213 C   0  0  0  0  0  0  0  0  0  0  0  0
  -25.4653  -27.7515   20.5866 C   0  0  0  0  0  0  0  0  0  0  0  0
  -25.1385   -2.1388   22.2083 C   0  0  0  0  0  0  0  0  0  0  0  0
  -25.3229   -8.9480   20.7131 C   0  0  0  0  0  0  0  0  0  0  0  0
  -23.5978  -10.7927   21.0713 C   0  0  0  0  0  0  0  0  0  0  0  0
  -30.1955  -35.3265   18.7556 C   0  0  0  0  0  0  0  0  0  0  0  0
  -25.3079  -29.8978   19.4783 C   0  0  0  0  0  0  0  0  0  0  0  0
  -29.7443  -33.9959   18.6637 C   0  0  0  0  0  0  0  0  0  0  0  0
  -25.4526  -29.1529   20.6574 C   0  0  0  0  0  0  0  0  0  0  0  0
  -26.1343   -6.2902   20.4670 C   0  0  0  0  0  0  0  0  0  0  0  0
  -25.3232  -27.1000   19.3616 C   0  0  0  0  0  0  0  0  0  0  0  0
  -25.6518   -4.0103   20.7692 C   0  0  0  0  0  0  0  0  0  0  0  0
  -23.8786   -2.0314   21.6193 C   0  0  0  0  0  0  0  0  0  0  0  0
  -26.0250   -3.1282   21.7833 C   0  0  0  0  0  0  0  0  0  0  0  0
  -24.9036  -10.3207   20.8393 C   0  0  0  0  0  0  0  0  0  0  0  0
  -26.4418  -18.0641   18.8756 C   0  0  0  0  0  0  0  0  0  0  0  0
  -23.7283  -12.1595   21.1082 C   0  0  0  0  0  0  0  0  0  0  0  0
  -26.9959  -20.4603   18.8939 C   0  0  0  0  0  0  0  0  0  0  0  0
  -26.6692  -23.7772   19.0620 C   0  0  0  0  0  0  0  0  0  0  0  0
  -27.7595  -22.8239   18.8857 C   0  0  0  0  0  0  0  0  0  0  0  0
  -25.7870  -22.6172   19.1310 C   0  0  0  0  0  0  0  0  0  0  0  0
  -26.5374  -25.1144   19.1300 C   0  0  0  0  0  0  0  0  0  1  0  0
  -22.3761  -10.0612   21.2385 C   0  0  0  0  0  0  0  0  0  0  0  0
  -25.7155  -16.7891   18.9203 C   0  0  0  0  0  0  0  0  0  0  0  0
  -27.4481  -31.9180   20.6793 C   0  0  0  0  0  0  0  0  0  0  0  0
  -25.3603  -32.0448   23.1587 C   0  0  0  0  0  0  0  0  0  0  0  0
  -22.8499  -30.5384   24.9123 C   0  0  0  0  0  0  0  0  0  0  0  0
  -30.4897  -35.9743   20.0855 C   0  0  0  0  0  0  0  0  0  0  0  0
  -25.2662  -31.4006   19.5270 C   0  0  0  0  0  0  0  0  0  0  0  0
  -25.6035  -29.8163   22.0011 C   0  0  0  0  0  0  0  0  0  0  0  0
  -29.8552  -35.2494   21.2697 C   0  0  0  0  0  0  0  0  0  0  0  0
  -27.8520  -15.0768   21.3015 C   0  0  0  0  0  0  0  0  0  0  0  0
  -30.0942  -33.7465   21.1659 C   0  0  0  0  0  0  0  0  0  0  0  0
  -27.1696  -13.7115   21.3948 C   0  0  0  0  0  0  0  0  0  0  0  0
  -27.7747  -15.6412   19.8862 C   0  0  0  0  0  0  0  0  0  0  0  0
  -25.7017  -14.3712   19.4355 C   0  0  0  0  0  0  0  0  0  0  0  0
  -29.4503  -33.1717   19.8984 C   0  0  1  0  0  0  0  0  0  0  0  0
  -25.9490  -31.9775   20.7632 C   0  0  1  0  0  0  0  0  0  0  0  0
  -25.7301  -13.7699   20.8514 C   0  0  1  0  0  0  0  0  0  0  0  0
  -21.3712  -30.8686   26.9127 C   0  0  0  0  0  0  0  0  0  0  0  0
  -27.6934  -31.3439   24.9960 C   0  0  0  0  0  0  0  0  0  0  0  0
  -26.0285  -30.7610   26.7726 C   0  0  0  0  0  0  0  0  0  0  0  0
  -26.1473  -33.0926   25.8939 C   0  0  0  0  0  0  0  0  0  0  0  0
  -20.3982  -30.4735   23.2558 C   0  0  0  0  0  0  0  0  0  0  0  0
  -25.1733  -31.2681   24.4396 C   0  0  1  0  0  0  0  0  0  0  0  0
  -21.5150  -31.0616   25.4111 C   0  0  2  0  0  0  0  0  0  0  0  0
  -26.2598  -31.6036   25.5001 C   0  0  0  0  0  0  0  0  0  0  0  0
  -25.7978  -11.3074   20.7360 N   0  0  0  0  0  0  0  0  0  0  0  0
  -25.0527  -12.4131   20.9038 N   0  0  0  0  0  0  0  0  0  0  0  0
  -26.8640  -21.7984   18.9614 N   0  0  0  0  0  0  0  0  0  0  0  0
  -26.3848  -15.6662   19.4129 N   0  0  0  0  0  0  0  0  0  0  0  0
  -25.5627  -31.2880   21.9959 N   0  0  0  0  0  0  0  0  0  0  0  0
  -22.8382  -13.1571   21.2952 N   0  0  0  0  0  0  0  0  0  0  0  0
  -21.6096   -9.7718   20.1014 N   0  0  0  0  0  0  0  0  0  0  0  0
  -28.0223  -33.0227   20.0798 N   0  0  0  0  0  0  0  0  0  0  0  0
  -23.8074  -31.5300   24.8801 N   0  0  0  0  0  0  0  0  0  0  0  0
  -20.3941  -30.3484   24.7361 N   0  3  0  0  0  0  0  0  0  0  0  0
  -28.9608  -22.9011   18.7349 O   0  0  0  0  0  0  0  0  0  0  0  0
  -24.5954  -22.4440   19.2788 O   0  0  0  0  0  0  0  0  0  0  0  0
  -21.9677   -9.6897   22.3649 O   0  0  0  0  0  0  0  0  0  0  0  0
  -24.5515  -16.8137   18.5230 O   0  0  0  0  0  0  0  0  0  0  0  0
  -28.0400  -30.9426   21.1266 O   0  0  0  0  0  0  0  0  0  0  0  0
  -25.3210  -33.2774   23.1876 O   0  0  0  0  0  0  0  0  0  0  0  0
  -23.0266  -29.3663   24.5875 O   0  0  0  0  0  0  0  0  0  0  0  0
  -26.5305   -4.9936   20.3467 O   0  0  0  0  0  0  0  0  0  0  0  0
  -25.3357  -25.7403   19.3081 O   0  0  0  0  0  0  0  0  0  1  0  0
  -23.0266   -1.0823   22.0284 F   0  0  0  0  0  0  0  0  0  0  0  0
  -27.2336   -3.2272   22.3537 F   0  0  0  0  0  0  0  0  0  0  0  0
  -25.5679  -19.5271   19.0424 S   0  0  0  0  0  0  0  0  0  0  0  0
  1  2  1  0  0  0  0
  1  5  2  0  0  0  0
  2  6  2  0  0  0  0
  3  8  2  0  0  0  0
  3 17  1  0  0  0  0
  4  9  1  0  0  0  0
  4 17  2  0  0  0  0
  5 19  1  0  0  0  0
  6 21  1  0  0  0  0
  7 10  2  0  0  0  0
  7 20  1  0  0  0  0
  8 23  1  0  0  0  0
  9 23  2  0  0  0  0
 10 24  1  0  0  0  0
 11 12  2  0  0  0  0
 11 25  1  0  0  0  0
 12 26  1  0  0  0  0
 13 14  1  0  0  0  0
 13 29  2  0  0  0  0
 14 31  2  0  0  0  0
 15 22  1  0  0  0  0
 15 24  2  0  0  0  0
 16 26  2  0  0  0  0
 16 27  1  0  0  0  0
 17 28  1  0  0  0  0
 18 28  1  0  0  0  0
 18 30  2  0  0  0  0
 18 36  1  0  0  0  0
 19 21  2  0  0  0  0
 19 41  1  0  0  0  0
 20 22  2  0  0  0  0
 20 42  1  0  0  0  0
 21 50  1  0  0  0  0
 22 43  1  0  0  0  0
 23 78  1  0  0  0  0
 24 79  1  0  0  0  0
 25 27  2  0  0  0  0
 25 78  1  0  0  0  0
 26 80  1  0  0  0  0
 27 81  1  0  0  0  0
 28 61  2  0  0  0  0
 29 37  1  0  0  0  0
 29 82  1  0  0  0  0
 30 62  1  0  0  0  0
 30 66  1  0  0  0  0
 31 63  1  0  0  0  0
 31 82  1  0  0  0  0
 32 33  1  0  0  0  0
 32 34  1  0  0  0  0
 32 35  2  0  0  0  0
 33 63  1  0  0  0  0
 33 71  2  0  0  0  0
 34 63  1  0  0  0  0
 34 72  2  0  0  0  0
 35 79  1  0  0  0  0
 36 67  1  0  0  0  0
 36 73  2  0  0  0  0
 37 64  1  0  0  0  0
 37 74  2  0  0  0  0
 38 51  1  0  0  0  0
 38 68  1  0  0  0  0
 38 75  2  0  0  0  0
 39 58  1  0  0  0  0
 39 65  1  0  0  0  0
 39 76  2  0  0  0  0
 40 59  1  0  0  0  0
 40 69  1  0  0  0  0
 40 77  2  0  0  0  0
 41 44  1  0  0  0  0
 42 51  1  0  0  0  0
 43 65  1  0  0  0  0
 44 46  1  0  0  0  0
 45 47  1  0  0  0  0
 45 48  1  0  0  0  0
 46 50  1  0  0  0  0
 47 52  1  0  0  0  0
 48 64  1  0  0  0  0
 49 52  1  0  0  0  0
 49 64  1  0  0  0  0
 50 68  1  0  0  0  0
 51 65  1  0  0  0  0
 52 62  1  0  0  0  0
 53 59  1  0  0  0  0
 54 60  1  0  0  0  0
 55 60  1  0  0  0  0
 56 60  1  0  0  0  0
 57 70  1  0  0  0  0
 58 60  1  0  0  0  0
 58 69  1  0  0  0  0
 59 70  1  0  0  0  0
 61 62  1  0  0  0  0
M  CHG  1  70   1
M  ISO  4  29 100  35 101  37 100  79 101
M  END
> <Batch ID>
0082

> <Smiles>
CNC(C)C(=O)NC(C(=O)N1Cc2cc([101O:1][101CH:1]=C3C(=O)N(c4cc[100c:0]([100C:0](=O)N5CCCC(n6nc(-c7ccc(Oc8ccc(F)cc8F)cc7)c(C(N)=O)c6N)C5)s4)C3=O)ccc2CC1C(=O)NC1CCCc2ccccc21)C(C)(C)C

> <Shape>
0.200

> <Color>
0.077

> <Negative vol penalty>
0.000

$$$$

  -OEChem-04052300073D

 86 95  0     1  0  0  0  0  0999 V2000
  -29.7956  -37.0806   20.8661 C   0  0  0  0  0  0  0  0  0  0  0  0
  -29.9583  -35.7702   20.4281 C   0  0  0  0  0  0  0  0  0  0  0  0
  -24.0248   -9.9338   22.2865 C   0  0  0  0  0  0  0  0  0  0  0  0
  -24.6438  -11.5545   23.9679 C   0  0  0  0  0  0  0  0  0  0  0  0
  -29.1298  -37.3364   22.0641 C   0  0  0  0  0  0  0  0  0  0  0  0
  -29.4563  -34.7147   21.1885 C   0  0  0  0  0  0  0  0  0  0  0  0
  -27.1059  -29.4611   19.0954 C   0  0  0  0  0  0  0  0  0  0  0  0
  -30.9365  -20.1310   19.0608 C   0  0  0  0  0  0  0  0  0  0  0  0
  -30.6578  -18.7670   18.9752 C   0  0  0  0  0  0  0  0  0  0  0  0
  -23.6189   -9.0508   23.2871 C   0  0  0  0  0  0  0  0  0  0  0  0
  -24.2379  -10.6715   24.9685 C   0  0  0  0  0  0  0  0  0  0  0  0
  -27.6482  -28.1858   18.9430 C   0  0  0  0  0  0  0  0  0  0  0  0
  -20.9420   -8.6407   25.3117 C   0  0  0  0  0  0  0  0  0  0  0  0
  -19.7236   -7.9835   25.1410 C   0  0  0  0  0  0  0  0  0  0  0  0
  -26.7178  -27.5421   21.0735 C   0  0  0  0  0  0  0  0  0  0  0  0
  -28.5785  -20.5976   19.3041 C   0  0  0  0  0  0  0  0  0  0  0  0
  -20.8619   -5.8537   25.2162 C   0  0  0  0  0  0  0  0  0  0  0  0
  -24.5373  -11.1857   22.6269 C   0  0  0  0  0  0  0  0  0  0  0  0
  -24.1709  -13.0700   20.9468 C   0  0  0  0  0  0  0  0  0  0  0  0
  -28.6109  -36.2840   22.8348 C   0  0  0  0  0  0  0  0  0  0  0  0
  -26.3734  -29.7904   20.2450 C   0  0  0  0  0  0  0  0  0  0  0  0
  -28.7841  -34.9566   22.3987 C   0  0  0  0  0  0  0  0  0  0  0  0
  -26.1650  -28.8215   21.2369 C   0  0  0  0  0  0  0  0  0  0  0  0
  -29.8969  -21.0464   19.2253 C   0  0  0  0  0  0  0  0  0  0  0  0
  -29.3394  -18.3183   19.0540 C   0  0  0  0  0  0  0  0  0  0  0  0
  -23.7254   -9.4197   24.6280 C   0  0  0  0  0  0  0  0  0  0  0  0
  -27.4566  -27.2269   19.9334 C   0  0  0  0  0  0  0  0  0  0  0  0
  -22.1204   -7.9044   25.4345 C   0  0  0  0  0  0  0  0  0  0  0  0
  -19.6835   -6.5900   25.0933 C   0  0  0  0  0  0  0  0  0  0  0  0
  -28.2998  -19.2336   19.2185 C   0  0  0  0  0  0  0  0  0  0  0  0
  -22.0803   -6.5110   25.3868 C   0  0  0  0  0  0  0  0  0  0  0  0
  -24.9574  -12.0981   21.5939 C   0  0  0  0  0  0  0  0  0  0  0  0
  -25.0283  -13.6680   20.0559 C   0  0  0  0  0  0  0  0  0  0  0  0
  -29.9727  -24.6906   19.5108 C   0  0  0  0  0  0  0  0  0  0  0  0
  -31.3815  -24.4222   19.3666 C   0  0  0  0  0  0  0  0  0  0  0  0
  -29.2075  -23.4131   19.4755 C   0  0  0  0  0  0  0  0  0  0  0  0
  -32.3953  -25.2943   19.3484 C   0  0  0  0  0  0  0  0  0  0  0  0
  -29.3415  -25.8692   19.6603 C   0  0  0  0  0  0  0  0  0  1  0  0
  -22.7889  -13.4025   21.1344 C   0  0  0  0  0  0  0  0  0  0  0  0
  -26.7209  -31.8978   22.5990 C   0  0  0  0  0  0  0  0  0  0  0  0
  -23.7907  -30.8169   23.4751 C   0  0  0  0  0  0  0  0  0  0  0  0
  -21.4837  -28.3036   23.3851 C   0  0  0  0  0  0  0  0  0  0  0  0
  -29.9757  -15.8938   18.8021 C   0  0  0  0  0  0  0  0  0  0  0  0
  -27.9402  -36.6070   24.1465 C   0  0  0  0  0  0  0  0  0  0  0  0
  -25.7723  -31.1623   20.3820 C   0  0  0  0  0  0  0  0  0  0  0  0
  -25.3692  -29.1184   22.4807 C   0  0  0  0  0  0  0  0  0  0  0  0
  -31.5345  -22.9371   19.2340 C   0  0  0  0  0  0  0  0  0  0  0  0
  -27.1099  -35.4547   24.7059 C   0  0  0  0  0  0  0  0  0  0  0  0
  -29.6874  -12.3521   18.5783 C   0  0  0  0  0  0  0  0  0  0  0  0
  -27.8937  -34.1480   24.6345 C   0  0  0  0  0  0  0  0  0  0  0  0
  -28.3664  -12.0502   19.2896 C   0  0  0  0  0  0  0  0  0  0  0  0
  -30.4454  -13.4952   19.2508 C   0  0  0  0  0  0  0  0  0  0  0  0
  -28.3493  -14.4264   20.1501 C   0  0  0  0  0  0  0  0  0  0  0  0
  -28.2320  -33.7863   23.1833 C   0  0  1  0  0  0  0  0  0  0  0  0
  -25.4796  -31.5446   21.8296 C   0  0  1  0  0  0  0  0  0  0  0  0
  -27.5194  -13.3252   19.4702 C   0  0  2  0  0  0  0  0  0  0  0  0
  -19.1986  -27.6961   24.2259 C   0  0  0  0  0  0  0  0  0  0  0  0
  -24.9553  -30.2773   26.2432 C   0  0  0  0  0  0  0  0  0  0  0  0
  -22.9667  -28.8333   26.7218 C   0  0  0  0  0  0  0  0  0  0  0  0
  -22.6571  -31.2637   26.2524 C   0  0  0  0  0  0  0  0  0  0  0  0
  -20.4124  -28.0533   20.6376 C   0  0  0  0  0  0  0  0  0  0  0  0
  -23.2821  -29.7059   24.3617 C   0  0  1  0  0  0  0  0  0  0  0  0
  -19.9953  -28.3127   23.0866 C   0  0  2  0  0  0  0  0  0  0  0  0
  -23.4820  -30.0147   25.8724 C   0  0  0  0  0  0  0  0  0  0  0  0
  -26.2175  -12.0764   21.1515 N   0  0  0  0  0  0  0  0  0  0  0  0
  -26.2293  -13.0421   20.2170 N   0  0  0  0  0  0  0  0  0  0  0  0
  -30.1746  -22.4070   19.3100 N   0  0  0  0  0  0  0  0  0  0  0  0
  -24.8071  -30.4761   22.5714 N   0  0  0  0  0  0  0  0  0  0  0  0
  -29.5817  -14.6705   19.3843 N   0  0  0  0  0  0  0  0  0  0  0  0
  -24.8645  -14.6629   19.1583 N   0  0  0  0  0  0  0  0  0  0  0  0
  -22.0540  -12.6894   22.0913 N   0  0  0  0  0  0  0  0  0  0  0  0
  -29.0594  -16.9320   18.9662 N   0  0  0  0  0  0  0  0  0  0  0  0
  -27.0730  -33.2316   22.5173 N   0  0  0  0  0  0  0  0  0  0  0  0
  -21.8931  -29.4798   23.9767 N   0  0  0  0  0  0  0  0  0  0  0  0
  -19.7116  -27.5414   21.8434 N   0  3  0  0  0  0  0  0  0  0  0  0
  -27.9971  -23.2999   19.5725 O   0  0  0  0  0  0  0  0  0  0  0  0
  -22.2183  -14.2942   20.4615 O   0  0  0  0  0  0  0  0  0  0  0  0
  -27.3145  -31.0253   23.2220 O   0  0  0  0  0  0  0  0  0  0  0  0
  -23.2991  -31.9438   23.5754 O   0  0  0  0  0  0  0  0  0  0  0  0
  -22.2097  -27.3471   23.1233 O   0  0  0  0  0  0  0  0  0  0  0  0
  -31.0345  -16.0046   18.1787 O   0  0  0  0  0  0  0  0  0  0  0  0
  -23.3292   -8.5584   25.6046 O   0  0  0  0  0  0  0  0  0  0  0  0
  -27.9854  -25.9816   19.7875 O   0  0  0  0  0  0  0  0  0  1  0  0
  -18.5132   -5.9589   24.9310 F   0  0  0  0  0  0  0  0  0  0  0  0
  -27.0286  -18.8138   19.2940 F   0  0  0  0  0  0  0  0  0  0  0  0
  -23.2089   -5.7982   25.5055 F   0  0  0  0  0  0  0  0  0  0  0  0
  1  2  1  0  0  0  0
  1  5  2  0  0  0  0
  2  6  2  0  0  0  0
  3 10  2  0  0  0  0
  3 18  1  0  0  0  0
  4 11  1  0  0  0  0
  4 18  2  0  0  0  0
  5 20  1  0  0  0  0
  6 22  1  0  0  0  0
  7 12  2  0  0  0  0
  7 21  1  0  0  0  0
  8  9  2  0  0  0  0
  8 24  1  0  0  0  0
  9 25  1  0  0  0  0
 10 26  1  0  0  0  0
 11 26  2  0  0  0  0
 12 27  1  0  0  0  0
 13 14  2  0  0  0  0
 13 28  1  0  0  0  0
 14 29  1  0  0  0  0
 15 23  1  0  0  0  0
 15 27  2  0  0  0  0
 16 24  2  0  0  0  0
 16 30  1  0  0  0  0
 17 29  2  0  0  0  0
 17 31  1  0  0  0  0
 18 32  1  0  0  0  0
 19 32  1  0  0  0  0
 19 33  2  0  0  0  0
 19 39  1  0  0  0  0
 20 22  2  0  0  0  0
 20 44  1  0  0  0  0
 21 23  2  0  0  0  0
 21 45  1  0  0  0  0
 22 54  1  0  0  0  0
 23 46  1  0  0  0  0
 24 67  1  0  0  0  0
 25 30  2  0  0  0  0
 25 72  1  0  0  0  0
 26 82  1  0  0  0  0
 27 83  1  0  0  0  0
 28 31  2  0  0  0  0
 28 82  1  0  0  0  0
 29 84  1  0  0  0  0
 30 85  1  0  0  0  0
 31 86  1  0  0  0  0
 32 65  2  0  0  0  0
 33 66  1  0  0  0  0
 33 70  1  0  0  0  0
 34 35  1  0  0  0  0
 34 36  1  0  0  0  0
 34 38  2  0  0  0  0
 35 37  2  0  0  0  0
 35 47  1  0  0  0  0
 36 67  1  0  0  0  0
 36 76  2  0  0  0  0
 38 83  1  0  0  0  0
 39 71  1  0  0  0  0
 39 77  2  0  0  0  0
 40 55  1  0  0  0  0
 40 73  1  0  0  0  0
 40 78  2  0  0  0  0
 41 62  1  0  0  0  0
 41 68  1  0  0  0  0
 41 79  2  0  0  0  0
 42 63  1  0  0  0  0
 42 74  1  0  0  0  0
 42 80  2  0  0  0  0
 43 69  1  0  0  0  0
 43 72  1  0  0  0  0
 43 81  2  0  0  0  0
 44 48  1  0  0  0  0
 45 55  1  0  0  0  0
 46 68  1  0  0  0  0
 47 67  1  0  0  0  0
 48 50  1  0  0  0  0
 49 51  1  0  0  0  0
 49 52  1  0  0  0  0
 50 54  1  0  0  0  0
 51 56  1  0  0  0  0
 52 69  1  0  0  0  0
 53 56  1  0  0  0  0
 53 69  1  0  0  0  0
 54 73  1  0  0  0  0
 55 68  1  0  0  0  0
 56 66  1  0  0  0  0
 57 63  1  0  0  0  0
 58 64  1  0  0  0  0
 59 64  1  0  0  0  0
 60 64  1  0  0  0  0
 61 75  1  0  0  0  0
 62 64  1  0  0  0  0
 62 74  1  0  0  0  0
 63 75  1  0  0  0  0
 65 66  1  0  0  0  0
M  CHG  1  75   1
M  ISO  4  38 101  43 100  72 100  83 101
M  END
> <Batch ID>
0082

> <Smiles>
C=C1CN(c2ccc([100NH:0][100C:0](=O)N3CCCC(n4nc(-c5ccc(Oc6ccc(F)cc6F)cc5)c(C(N)=O)c4N)C3)c(F)c2)C(=O)C1=[101CH:1][101O:1]c1ccc2c(c1)CN(C(=O)C(NC(=O)C(C)NC)C(C)(C)C)C(C(=O)NC1CCCc3ccccc31)C2

> <Shape>
0.316

> <Color>
0.135

> <Negative vol penalty>
0.000

$$$$

  -OEChem-04052300073D

 85 93  0     1  0  0  0  0  0999 V2000
  -29.7452  -34.6142   26.1851 C   0  0  0  0  0  0  0  0  0  0  0  0
  -29.2962  -33.3500   25.8168 C   0  0  0  0  0  0  0  0  0  0  0  0
  -24.2786   -8.5156   20.3978 C   0  0  0  0  0  0  0  0  0  0  0  0
  -22.9296  -10.4430   20.9477 C   0  0  0  0  0  0  0  0  0  0  0  0
  -29.4344  -20.1584   20.2188 C   0  0  0  0  0  0  0  0  0  0  0  0
  -28.1251  -19.6449   18.2544 C   0  0  0  0  0  0  0  0  0  0  0  0
  -28.8419  -35.6714   26.2863 C   0  0  0  0  0  0  0  0  0  0  0  0
  -27.9434  -33.1421   25.5504 C   0  0  0  0  0  0  0  0  0  0  0  0
  -27.1876  -30.3938   21.3646 C   0  0  0  0  0  0  0  0  0  0  0  0
  -29.4962  -18.8007   20.5326 C   0  0  0  0  0  0  0  0  0  0  0  0
  -28.1869  -18.2871   18.5681 C   0  0  0  0  0  0  0  0  0  0  0  0
  -23.2756   -7.6756   20.8816 C   0  0  0  0  0  0  0  0  0  0  0  0
  -21.9266   -9.6030   21.4315 C   0  0  0  0  0  0  0  0  0  0  0  0
  -27.3721  -29.0156   21.4659 C   0  0  0  0  0  0  0  0  0  0  0  0
  -22.1630   -6.5993   23.8863 C   0  0  0  0  0  0  0  0  0  0  0  0
  -22.5467   -5.5393   24.7077 C   0  0  0  0  0  0  0  0  0  0  0  0
  -24.9854  -28.7156   21.6480 C   0  0  0  0  0  0  0  0  0  0  0  0
  -21.6053   -3.9735   23.1269 C   0  0  0  0  0  0  0  0  0  0  0  0
  -24.1056   -9.8993   20.4309 C   0  0  0  0  0  0  0  0  0  0  0  0
  -28.7488  -20.5805   19.0797 C   0  0  0  0  0  0  0  0  0  0  0  0
  -25.2888  -11.2463   18.6162 C   0  0  0  0  0  0  0  0  0  0  0  0
  -27.4788  -35.4786   26.0116 C   0  0  0  0  0  0  0  0  0  0  0  0
  -25.8992  -30.9451   21.4153 C   0  0  0  0  0  0  0  0  0  0  0  0
  -27.0207  -34.1974   25.6492 C   0  0  0  0  0  0  0  0  0  0  0  0
  -24.7871  -30.1009   21.5446 C   0  0  0  0  0  0  0  0  0  0  0  0
  -28.8724  -17.8651   19.7072 C   0  0  0  0  0  0  0  0  0  0  0  0
  -22.0996   -8.2192   21.3984 C   0  0  0  0  0  0  0  0  0  0  0  0
  -26.2711  -28.1765   21.6105 C   0  0  0  0  0  0  0  0  0  0  0  0
  -21.5003   -6.3464   22.6852 C   0  0  0  0  0  0  0  0  0  0  0  0
  -22.2679   -4.2264   24.3280 C   0  0  0  0  0  0  0  0  0  0  0  0
  -21.2215   -5.0335   22.3055 C   0  0  0  0  0  0  0  0  0  0  0  0
  -25.1415  -10.7676   19.9318 C   0  0  0  0  0  0  0  0  0  0  0  0
  -26.4187  -12.0260   18.6590 C   0  0  0  0  0  0  0  0  0  0  0  0
  -27.0579  -26.1836   20.6724 C   0  0  0  0  0  0  0  0  0  1  0  0
  -28.6833  -22.0183   18.7473 C   0  0  0  0  0  0  0  0  0  0  0  0
  -24.4768  -11.0076   17.4589 C   0  0  0  0  0  0  0  0  0  0  0  0
  -27.2830  -24.8650   20.6638 C   0  0  0  0  0  0  0  0  0  0  0  0
  -27.9515  -24.2708   19.4822 C   0  0  0  0  0  0  0  0  0  0  0  0
  -24.3968  -32.9607   23.3605 C   0  0  0  0  0  0  0  0  0  0  0  0
  -22.0404  -32.7320   21.1430 C   0  0  0  0  0  0  0  0  0  0  0  0
  -20.5798  -30.9250   18.6433 C   0  0  0  0  0  0  0  0  0  0  0  0
  -29.5737  -15.8993   21.1180 C   0  0  0  0  0  0  0  0  0  0  0  0
  -26.5327  -36.6410   26.1803 C   0  0  0  0  0  0  0  0  0  0  0  0
  -25.7153  -32.4316   21.2778 C   0  0  0  0  0  0  0  0  0  0  0  0
  -23.3818  -30.6412   21.5840 C   0  0  0  0  0  0  0  0  0  0  0  0
  -25.1752  -36.4226   25.5171 C   0  0  0  0  0  0  0  0  0  0  0  0
  -29.9246  -12.5495   22.2724 C   0  0  0  0  0  0  0  0  0  0  0  0
  -24.6334  -35.0369   25.8536 C   0  0  0  0  0  0  0  0  0  0  0  0
  -28.7236  -11.8266   21.6582 C   0  0  0  0  0  0  0  0  0  0  0  0
  -29.5742  -13.9761   22.6916 C   0  0  0  0  0  0  0  0  0  0  0  0
  -27.7613  -14.0765   21.0266 C   0  0  0  0  0  0  0  0  0  0  0  0
  -25.5648  -33.9379   25.3281 C   0  0  1  0  0  0  0  0  0  0  0  0
  -24.3941  -32.9264   21.8583 C   0  0  1  0  0  0  0  0  0  0  0  0
  -28.0826  -12.6577   20.5294 C   0  0  2  0  0  0  0  0  0  0  0  0
  -18.6459  -30.9787   17.0451 C   0  0  0  0  0  0  0  0  0  0  0  0
  -20.1441  -31.9938   23.4165 C   0  0  0  0  0  0  0  0  0  0  0  0
  -18.5272  -31.1507   21.7010 C   0  0  0  0  0  0  0  0  0  0  0  0
  -19.1799  -33.5582   21.7202 C   0  0  0  0  0  0  0  0  0  0  0  0
  -22.3736  -30.8782   16.2898 C   0  0  0  0  0  0  0  0  0  0  0  0
  -20.8490  -31.8277   20.9383 C   0  0  1  0  0  0  0  0  0  0  0  0
  -20.1127  -31.3215   17.2544 C   0  0  2  0  0  0  0  0  0  0  0  0
  -19.7015  -32.1223   21.9453 C   0  0  0  0  0  0  0  0  0  0  0  0
  -26.1012  -11.2063   20.7507 N   0  0  0  0  0  0  0  0  0  0  0  0
  -26.8624  -11.9688   19.9474 N   0  0  0  0  0  0  0  0  0  0  0  0
  -23.2542  -32.1019   21.4521 N   0  0  0  0  0  0  0  0  0  0  0  0
  -28.9756  -14.7042   21.5708 N   0  0  0  0  0  0  0  0  0  0  0  0
  -27.0661  -12.7479   17.7198 N   0  0  0  0  0  0  0  0  0  0  0  0
  -23.3520  -10.1818   17.5906 N   0  0  0  0  0  0  0  0  0  0  0  0
  -28.9351  -16.4858   20.0259 N   0  0  0  0  0  0  0  0  0  0  0  0
  -28.1163  -22.8467   19.6356 N   0  0  0  0  0  0  0  0  0  0  0  0
  -25.3841  -33.7608   23.9032 N   0  0  0  0  0  0  0  0  0  0  0  0
  -20.4657  -31.9682   19.5377 N   0  0  0  0  0  0  0  0  0  0  0  0
  -29.1951  -22.4095   17.5808 N   0  3  0  0  0  0  0  0  0  0  0  0
  -20.9137  -30.6128   16.2166 N   0  3  0  0  0  0  0  0  0  0  0  0
  -24.7501  -11.4984   16.3373 O   0  0  0  0  0  0  0  0  0  0  0  0
  -28.3279  -24.8750   18.4913 O   0  0  0  0  0  0  0  0  0  0  0  0
  -23.5638  -32.3107   23.9812 O   0  0  0  0  0  0  0  0  0  0  0  0
  -21.9008  -33.9520   21.0256 O   0  0  0  0  0  0  0  0  0  0  0  0
  -21.0001  -29.8011   18.9092 O   0  0  0  0  0  0  0  0  0  0  0  0
  -30.5941  -16.3533   21.6420 O   0  0  0  0  0  0  0  0  0  0  0  0
  -26.9220  -24.0341   21.7016 O   0  0  0  0  0  0  0  0  0  0  0  0
  -21.1207   -7.3998   21.8704 O   0  0  0  0  0  0  0  0  0  0  0  0
  -26.4484  -26.8310   21.7103 O   0  0  0  0  0  0  0  0  0  1  0  0
  -22.6379   -3.2085   25.1162 F   0  0  0  0  0  0  0  0  0  0  0  0
  -20.5863   -4.7843   21.1521 F   0  0  0  0  0  0  0  0  0  0  0  0
  1  2  1  0  0  0  0
  1  7  2  0  0  0  0
  2  8  2  0  0  0  0
  3 12  2  0  0  0  0
  3 19  1  0  0  0  0
  4 13  1  0  0  0  0
  4 19  2  0  0  0  0
  5 10  2  0  0  0  0
  5 20  1  0  0  0  0
  6 11  1  0  0  0  0
  6 20  2  0  0  0  0
  7 22  1  0  0  0  0
  8 24  1  0  0  0  0
  9 14  2  0  0  0  0
  9 23  1  0  0  0  0
 10 26  1  0  0  0  0
 11 26  2  0  0  0  0
 12 27  1  0  0  0  0
 13 27  2  0  0  0  0
 14 28  1  0  0  0  0
 15 16  2  0  0  0  0
 15 29  1  0  0  0  0
 16 30  1  0  0  0  0
 17 25  1  0  0  0  0
 17 28  2  0  0  0  0
 18 30  2  0  0  0  0
 18 31  1  0  0  0  0
 19 32  1  0  0  0  0
 20 35  1  0  0  0  0
 21 32  1  0  0  0  0
 21 33  2  0  0  0  0
 21 36  1  0  0  0  0
 22 24  2  0  0  0  0
 22 43  1  0  0  0  0
 23 25  2  0  0  0  0
 23 44  1  0  0  0  0
 24 52  1  0  0  0  0
 25 45  1  0  0  0  0
 26 69  1  0  0  0  0
 27 82  1  0  0  0  0
 28 83  1  0  0  0  0
 29 31  2  0  0  0  0
 29 82  1  0  0  0  0
 30 84  1  0  0  0  0
 31 85  1  0  0  0  0
 32 63  2  0  0  0  0
 33 64  1  0  0  0  0
 33 67  1  0  0  0  0
 34 37  2  0  0  0  0
 34 83  1  0  0  0  0
 35 70  1  0  0  0  0
 35 73  2  0  0  0  0
 36 68  1  0  0  0  0
 36 75  2  0  0  0  0
 37 38  1  0  0  0  0
 37 81  1  0  0  0  0
 38 70  1  0  0  0  0
 38 76  2  0  0  0  0
 39 53  1  0  0  0  0
 39 71  1  0  0  0  0
 39 77  2  0  0  0  0
 40 60  1  0  0  0  0
 40 65  1  0  0  0  0
 40 78  2  0  0  0  0
 41 61  1  0  0  0  0
 41 72  1  0  0  0  0
 41 79  2  0  0  0  0
 42 66  1  0  0  0  0
 42 69  1  0  0  0  0
 42 80  2  0  0  0  0
 43 46  1  0  0  0  0
 44 53  1  0  0  0  0
 45 65  1  0  0  0  0
 46 48  1  0  0  0  0
 47 49  1  0  0  0  0
 47 50  1  0  0  0  0
 48 52  1  0  0  0  0
 49 54  1  0  0  0  0
 50 66  1  0  0  0  0
 51 54  1  0  0  0  0
 51 66  1  0  0  0  0
 52 71  1  0  0  0  0
 53 65  1  0  0  0  0
 54 64  1  0  0  0  0
 55 61  1  0  0  0  0
 56 62  1  0  0  0  0
 57 62  1  0  0  0  0
 58 62  1  0  0  0  0
 59 74  1  0  0  0  0
 60 62  1  0  0  0  0
 60 72  1  0  0  0  0
 61 74  1  0  0  0  0
 63 64  1  0  0  0  0
M  CHG  2  73   1  74   1
M  ISO  4  34 101  42 100  69 100  83 101
M  END
> <Batch ID>
0082

> <Smiles>
CNC(C)C(=O)NC(C(=O)N1Cc2cc([101O:1][101CH2:1]C(=O)C(=O)NC(=N)c3ccc([100NH:0][100C:0](=O)N4CCCC(n5nc(-c6ccc(Oc7ccc(F)cc7F)cc6)c(C(N)=O)c5N)C4)cc3)ccc2CC1C(=O)NC1CCCc2ccccc21)C(C)(C)C

> <Shape>
0.279

> <Color>
0.098

> <Negative vol penalty>
0.000

$$$$

  -OEChem-04052300073D

 83 92  0     1  0  0  0  0  0999 V2000
  -27.2202  -30.8592   28.3924 C   0  0  0  0  0  0  0  0  0  0  0  0
  -27.4700  -30.0293   27.3041 C   0  0  0  0  0  0  0  0  0  0  0  0
  -24.4810   -9.0047   21.4872 C   0  0  0  0  0  0  0  0  0  0  0  0
  -24.0683  -10.7218   23.1360 C   0  0  0  0  0  0  0  0  0  0  0  0
  -25.9248  -31.3114   28.6399 C   0  0  0  0  0  0  0  0  0  0  0  0
  -26.4242  -29.6502   26.4633 C   0  0  0  0  0  0  0  0  0  0  0  0
  -27.6502  -29.9934   21.5618 C   0  0  0  0  0  0  0  0  0  0  0  0
  -26.1547  -20.5787   18.9932 C   0  0  0  0  0  0  0  0  0  0  0  0
  -26.3794  -19.1997   18.9525 C   0  0  0  0  0  0  0  0  0  0  0  0
  -24.0990   -8.0289   22.4078 C   0  0  0  0  0  0  0  0  0  0  0  0
  -23.6863   -9.7460   24.0566 C   0  0  0  0  0  0  0  0  0  0  0  0
  -28.4381  -28.9737   21.0297 C   0  0  0  0  0  0  0  0  0  0  0  0
  -21.2182   -6.7710   23.6533 C   0  0  0  0  0  0  0  0  0  0  0  0
  -20.3615   -5.7628   23.2114 C   0  0  0  0  0  0  0  0  0  0  0  0
  -28.7453  -19.5134   19.4010 C   0  0  0  0  0  0  0  0  0  0  0  0
  -29.3947  -22.0258   19.6672 C   0  0  0  0  0  0  0  0  0  0  0  0
  -26.4675  -27.9525   20.0846 C   0  0  0  0  0  0  0  0  0  0  0  0
  -22.0277   -4.1037   23.7668 C   0  0  0  0  0  0  0  0  0  0  0  0
  -28.5432  -20.9072   19.4465 C   0  0  0  0  0  0  0  0  0  0  0  0
  -24.4657  -10.3512   21.8513 C   0  0  0  0  0  0  0  0  0  0  0  0
  -24.0318  -12.0379   19.9873 C   0  0  0  0  0  0  0  0  0  0  0  0
  -24.8642  -30.9455   27.7961 C   0  0  0  0  0  0  0  0  0  0  0  0
  -26.2614  -29.9945   21.3683 C   0  0  0  0  0  0  0  0  0  0  0  0
  -25.1131  -30.0969   26.7005 C   0  0  0  0  0  0  0  0  0  0  0  0
  -25.6646  -28.9748   20.6132 C   0  0  0  0  0  0  0  0  0  0  0  0
  -27.2552  -21.4066   19.2420 C   0  0  0  0  0  0  0  0  0  0  0  0
  -27.6539  -18.6731   19.1530 C   0  0  0  0  0  0  0  0  0  0  0  0
  -23.7016   -8.3995   23.6925 C   0  0  0  0  0  0  0  0  0  0  0  0
  -27.8464  -27.9515   20.2934 C   0  0  0  0  0  0  0  0  0  0  0  0
  -22.4796   -6.4456   24.1519 C   0  0  0  0  0  0  0  0  0  0  0  0
  -20.7663   -4.4291   23.2681 C   0  0  0  0  0  0  0  0  0  0  0  0
  -22.8844   -5.1119   24.2087 C   0  0  0  0  0  0  0  0  0  0  0  0
  -24.8607  -11.3596   20.9009 C   0  0  0  0  0  0  0  0  0  0  0  0
  -28.6216  -23.1615   19.5935 C   0  0  0  0  0  0  0  0  0  0  0  0
  -24.8802  -12.8857   19.3180 C   0  0  0  0  0  0  0  0  0  0  0  0
  -22.6211  -11.9129   19.7638 C   0  0  0  0  0  0  0  0  0  0  0  0
  -29.0462  -24.5820   19.7537 C   0  0  0  0  0  0  0  0  0  0  0  0
  -23.7294  -29.8413   23.2839 C   0  0  0  0  0  0  0  0  0  0  0  0
  -22.0999  -30.3583   20.5272 C   0  0  0  0  0  0  0  0  0  0  0  0
  -22.0280  -30.1502   17.1215 C   0  0  0  0  0  0  0  0  0  0  0  0
  -29.0474  -16.5784   19.2820 C   0  0  0  0  0  0  0  0  0  0  0  0
  -23.4727  -31.4208   28.1312 C   0  0  0  0  0  0  0  0  0  0  0  0
  -25.4288  -31.1160   21.9262 C   0  0  0  0  0  0  0  0  0  0  0  0
  -24.1803  -28.9409   20.3594 C   0  0  0  0  0  0  0  0  0  0  0  0
  -22.4851  -31.2770   26.9761 C   0  0  0  0  0  0  0  0  0  0  0  0
  -29.9360  -13.1305   19.2771 C   0  0  0  0  0  0  0  0  0  0  0  0
  -22.6083  -29.8974   26.3371 C   0  0  0  0  0  0  0  0  0  0  0  0
  -28.6266  -12.4182   19.6240 C   0  0  0  0  0  0  0  0  0  0  0  0
  -30.0826  -14.4486   20.0353 C   0  0  0  0  0  0  0  0  0  0  0  0
  -27.6375  -14.6578   20.2509 C   0  0  0  0  0  0  0  0  0  0  0  0
  -24.0093  -29.6838   25.7512 C   0  0  1  0  0  0  0  0  0  0  0  0
  -23.9608  -30.7401   22.1022 C   0  0  1  0  0  0  0  0  0  0  0  0
  -27.4146  -13.3567   19.4627 C   0  0  2  0  0  0  0  0  0  0  0  0
  -20.5461  -30.6151   15.1504 C   0  0  0  0  0  0  0  0  0  0  0  0
  -20.4582  -27.8699   21.1776 C   0  0  0  0  0  0  0  0  0  0  0  0
  -19.6876  -27.8408   18.7957 C   0  0  0  0  0  0  0  0  0  0  0  0
  -19.1341  -29.7829   20.2602 C   0  0  0  0  0  0  0  0  0  0  0  0
  -23.9571  -32.0826   15.9798 C   0  0  0  0  0  0  0  0  0  0  0  0
  -28.0015  -25.6735   19.6281 C   0  0  0  0  0  0  0  0  0  1  0  0
  -21.5103  -29.4772   19.4525 C   0  0  1  0  0  0  0  0  0  0  0  0
  -21.6369  -31.1611   16.0587 C   0  0  2  0  0  0  0  0  0  0  0  0
  -20.2253  -28.7420   19.9277 C   0  0  0  0  0  0  0  0  0  0  0  0
  -26.1376  -11.7432   20.8218 N   0  0  0  0  0  0  0  0  0  0  0  0
  -27.3326  -22.7778   19.3370 N   0  0  0  0  0  0  0  0  0  0  0  0
  -26.1175  -12.6717   19.8504 N   0  0  0  0  0  0  0  0  0  0  0  0
  -23.4081  -30.0564   20.9311 N   0  0  0  0  0  0  0  0  0  0  0  0
  -28.8996  -15.2877   19.8325 N   0  0  0  0  0  0  0  0  0  0  0  0
  -24.6811  -13.7858   18.3318 N   0  0  0  0  0  0  0  0  0  0  0  0
  -21.9006  -10.9942   20.5391 N   0  0  0  0  0  0  0  0  0  0  0  0
  -27.8498  -17.2705   19.1054 N   0  0  0  0  0  0  0  0  0  0  0  0
  -24.1404  -30.3789   24.4887 N   0  0  0  0  0  0  0  0  0  0  0  0
  -21.3132  -30.3317   18.2866 N   0  0  0  0  0  0  0  0  0  0  0  0
  -22.8165  -31.5116   15.2181 N   0  3  0  0  0  0  0  0  0  0  0  0
  -22.0203  -12.5839   18.8907 O   0  0  0  0  0  0  0  0  0  0  0  0
  -30.2254  -24.8405   19.9837 O   0  0  0  0  0  0  0  0  0  0  0  0
  -23.2147  -28.7420   23.1153 O   0  0  0  0  0  0  0  0  0  0  0  0
  -21.4272  -31.2848   20.9861 O   0  0  0  0  0  0  0  0  0  0  0  0
  -22.8796  -29.2838   16.9355 O   0  0  0  0  0  0  0  0  0  0  0  0
  -30.1523  -17.0254   18.9637 O   0  0  0  0  0  0  0  0  0  0  0  0
  -23.3286   -7.4476   24.5910 O   0  0  0  0  0  0  0  0  0  0  0  0
  -28.6131  -26.9546   19.7734 O   0  0  0  0  0  0  0  0  0  1  0  0
  -19.9430   -3.4609   22.8452 F   0  0  0  0  0  0  0  0  0  0  0  0
  -24.0946   -4.7931   24.6878 F   0  0  0  0  0  0  0  0  0  0  0  0
  1  2  1  0  0  0  0
  1  5  2  0  0  0  0
  2  6  2  0  0  0  0
  3 10  2  0  0  0  0
  3 20  1  0  0  0  0
  4 11  1  0  0  0  0
  4 20  2  0  0  0  0
  5 22  1  0  0  0  0
  6 24  1  0  0  0  0
  7 12  2  0  0  0  0
  7 23  1  0  0  0  0
  8  9  2  0  0  0  0
  8 26  1  0  0  0  0
  9 27  1  0  0  0  0
 10 28  1  0  0  0  0
 11 28  2  0  0  0  0
 12 29  1  0  0  0  0
 13 14  2  0  0  0  0
 13 30  1  0  0  0  0
 14 31  1  0  0  0  0
 15 19  1  0  0  0  0
 15 27  2  0  0  0  0
 16 19  1  0  0  0  0
 16 34  2  0  0  0  0
 17 25  1  0  0  0  0
 17 29  2  0  0  0  0
 18 31  2  0  0  0  0
 18 32  1  0  0  0  0
 19 26  2  0  0  0  0
 20 33  1  0  0  0  0
 21 33  1  0  0  0  0
 21 35  2  0  0  0  0
 21 36  1  0  0  0  0
 22 24  2  0  0  0  0
 22 42  1  0  0  0  0
 23 25  2  0  0  0  0
 23 43  1  0  0  0  0
 24 51  1  0  0  0  0
 25 44  1  0  0  0  0
 26 64  1  0  0  0  0
 27 70  1  0  0  0  0
 28 80  1  0  0  0  0
 29 81  1  0  0  0  0
 30 32  2  0  0  0  0
 30 80  1  0  0  0  0
 31 82  1  0  0  0  0
 32 83  1  0  0  0  0
 33 63  2  0  0  0  0
 34 37  1  0  0  0  0
 34 64  1  0  0  0  0
 35 65  1  0  0  0  0
 35 68  1  0  0  0  0
 36 69  1  0  0  0  0
 36 74  2  0  0  0  0
 37 59  1  0  0  0  0
 37 75  2  0  0  0  0
 38 52  1  0  0  0  0
 38 71  1  0  0  0  0
 38 76  2  0  0  0  0
 39 60  1  0  0  0  0
 39 66  1  0  0  0  0
 39 77  2  0  0  0  0
 40 61  1  0  0  0  0
 40 72  1  0  0  0  0
 40 78  2  0  0  0  0
 41 67  1  0  0  0  0
 41 70  1  0  0  0  0
 41 79  2  0  0  0  0
 42 45  1  0  0  0  0
 43 52  1  0  0  0  0
 44 66  1  0  0  0  0
 45 47  1  0  0  0  0
 46 48  1  0  0  0  0
 46 49  1  0  0  0  0
 47 51  1  0  0  0  0
 48 53  1  0  0  0  0
 49 67  1  0  0  0  0
 50 53  1  0  0  0  0
 50 67  1  0  0  0  0
 51 71  1  0  0  0  0
 52 66  1  0  0  0  0
 53 65  1  0  0  0  0
 54 61  1  0  0  0  0
 55 62  1  0  0  0  0
 56 62  1  0  0  0  0
 57 62  1  0  0  0  0
 58 73  1  0  0  0  0
 59 81  1  0  0  0  0
 60 62  1  0  0  0  0
 60 72  1  0  0  0  0
 61 73  1  0  0  0  0
 63 65  1  0  0  0  0
M  CHG  1  73   1
M  ISO  4  41 100  59 101  70 100  81 101
M  END
> <Batch ID>
0082

> <Smiles>
CNC(C)C(=O)NC(C(=O)N1Cc2cc([101O:1][101CH2:1]C(=O)c3cc4cc([100NH:0][100C:0](=O)N5CCCC(n6nc(-c7ccc(Oc8ccc(F)cc8F)cc7)c(C(N)=O)c6N)C5)ccc4[nH]3)ccc2CC1C(=O)NC1CCCc2ccccc21)C(C)(C)C

> <Shape>
0.286

> <Color>
0.123

> <Negative vol penalty>
0.000

$$$$

  -OEChem-04052300073D

 85 94  0     1  0  0  0  0  0999 V2000
  -26.8522  -36.3739   21.5521 C   0  0  0  0  0  0  0  0  0  0  0  0
  -27.6733  -35.2510   21.5322 C   0  0  0  0  0  0  0  0  0  0  0  0
  -23.5756   -9.7808   21.9248 C   0  0  0  0  0  0  0  0  0  0  0  0
  -24.4152  -11.1015   23.7654 C   0  0  0  0  0  0  0  0  0  0  0  0
  -25.5077  -36.2468   21.8990 C   0  0  0  0  0  0  0  0  0  0  0  0
  -27.1507  -34.0006   21.8603 C   0  0  0  0  0  0  0  0  0  0  0  0
  -28.7406  -28.5989   19.4519 C   0  0  0  0  0  0  0  0  0  0  0  0
  -31.8003  -19.2535   19.7356 C   0  0  0  0  0  0  0  0  0  0  0  0
  -29.5269  -19.9983   20.0729 C   0  0  0  0  0  0  0  0  0  0  0  0
  -31.3410  -17.9573   19.5020 C   0  0  0  0  0  0  0  0  0  0  0  0
  -29.0676  -18.7021   19.8392 C   0  0  0  0  0  0  0  0  0  0  0  0
  -23.0561   -8.8530   22.8274 C   0  0  0  0  0  0  0  0  0  0  0  0
  -23.8957  -10.1737   24.6681 C   0  0  0  0  0  0  0  0  0  0  0  0
  -29.5967  -27.5908   19.8930 C   0  0  0  0  0  0  0  0  0  0  0  0
  -24.2124   -6.3006   24.7176 C   0  0  0  0  0  0  0  0  0  0  0  0
  -24.4203   -4.9480   24.4474 C   0  0  0  0  0  0  0  0  0  0  0  0
  -27.7140  -26.4119   20.8337 C   0  0  0  0  0  0  0  0  0  0  0  0
  -22.0313   -4.5968   24.3672 C   0  0  0  0  0  0  0  0  0  0  0  0
  -24.2552  -10.9050   22.3937 C   0  0  0  0  0  0  0  0  0  0  0  0
  -24.1442  -13.0000   20.9423 C   0  0  0  0  0  0  0  0  0  0  0  0
  -24.9661  -34.9926   22.2222 C   0  0  0  0  0  0  0  0  0  0  0  0
  -27.3639  -28.5263   19.7084 C   0  0  0  0  0  0  0  0  0  0  0  0
  -25.7981  -33.8568   22.2132 C   0  0  0  0  0  0  0  0  0  0  0  0
  -26.8423  -27.4191   20.3926 C   0  0  0  0  0  0  0  0  0  0  0  0
  -30.8932  -20.2740   20.0212 C   0  0  0  0  0  0  0  0  0  0  0  0
  -29.9747  -17.6816   19.5537 C   0  0  0  0  0  0  0  0  0  0  0  0
  -23.2161   -9.0494   24.1991 C   0  0  0  0  0  0  0  0  0  0  0  0
  -29.0839  -26.4985   20.5865 C   0  0  0  0  0  0  0  0  0  0  0  0
  -22.9139   -6.8012   24.8127 C   0  0  0  0  0  0  0  0  0  0  0  0
  -23.3298   -4.0961   24.2721 C   0  0  0  0  0  0  0  0  0  0  0  0
  -21.8234   -5.9493   24.6375 C   0  0  0  0  0  0  0  0  0  0  0  0
  -24.7926  -11.8635   21.4617 C   0  0  0  0  0  0  0  0  0  0  0  0
  -25.0724  -13.5737   20.1083 C   0  0  0  0  0  0  0  0  0  0  0  0
  -32.6440  -23.3547   20.8624 C   0  0  0  0  0  0  0  0  0  0  0  0
  -31.5044  -23.8504   20.3846 C   0  0  0  0  0  0  0  0  0  0  0  0
  -32.5760  -21.8877   20.8021 C   0  0  0  0  0  0  0  0  0  0  0  0
  -30.6478  -22.7213   19.9730 C   0  0  0  0  0  0  0  0  0  0  0  0
  -22.8211  -13.4929   21.1916 C   0  0  0  0  0  0  0  0  0  0  0  0
  -25.2869  -30.3061   21.3277 C   0  0  0  0  0  0  0  0  0  0  0  0
  -23.1252  -28.2526   20.0499 C   0  0  0  0  0  0  0  0  0  0  0  0
  -22.4879  -25.1763   18.7170 C   0  0  0  0  0  0  0  0  0  0  0  0
  -30.2733  -15.2378   19.0201 C   0  0  0  0  0  0  0  0  0  0  0  0
  -23.5183  -34.9122   22.6367 C   0  0  0  0  0  0  0  0  0  0  0  0
  -26.4503  -29.6089   19.2026 C   0  0  0  0  0  0  0  0  0  0  0  0
  -25.3692  -27.2838   20.6756 C   0  0  0  0  0  0  0  0  0  0  0  0
  -22.9542  -33.4940   22.6075 C   0  0  0  0  0  0  0  0  0  0  0  0
  -29.5036  -11.8161   18.4063 C   0  0  0  0  0  0  0  0  0  0  0  0
  -23.9195  -32.5217   23.2780 C   0  0  0  0  0  0  0  0  0  0  0  0
  -28.1560  -11.6169   19.1038 C   0  0  0  0  0  0  0  0  0  0  0  0
  -30.4126  -12.7625   19.1885 C   0  0  0  0  0  0  0  0  0  0  0  0
  -28.4661  -13.8604   20.2251 C   0  0  0  0  0  0  0  0  0  0  0  0
  -25.2624  -32.4795   22.5388 C   0  0  1  0  0  0  0  0  0  0  0  0
  -25.1330  -29.6851   19.9682 C   0  0  1  0  0  0  0  0  0  0  0  0
  -27.4915  -12.9659   19.4417 C   0  0  2  0  0  0  0  0  0  0  0  0
  -20.6185  -23.7755   17.8001 C   0  0  0  0  0  0  0  0  0  0  0  0
  -22.1172  -27.7465   22.8850 C   0  0  0  0  0  0  0  0  0  0  0  0
  -20.9538  -25.7005   22.0314 C   0  0  0  0  0  0  0  0  0  0  0  0
  -20.3188  -27.9496   21.1591 C   0  0  0  0  0  0  0  0  0  0  0  0
  -23.7895  -24.9666   16.0673 C   0  0  0  0  0  0  0  0  0  0  0  0
  -31.0916  -25.2703   20.2452 C   0  0  0  0  0  0  0  0  0  1  0  0
  -22.5279  -26.9314   20.4699 C   0  0  1  0  0  0  0  0  0  0  0  0
  -21.7328  -24.7561   17.4689 C   0  0  2  0  0  0  0  0  0  0  0  0
  -21.5075  -27.0852   21.6329 C   0  0  0  0  0  0  0  0  0  0  0  0
  -26.0366  -11.7220   20.9964 N   0  0  0  0  0  0  0  0  0  0  0  0
  -26.1772  -12.7769   20.1759 N   0  0  0  0  0  0  0  0  0  0  0  0
  -31.3509  -21.5659   20.2545 N   0  0  0  0  0  0  0  0  0  0  0  0
  -24.5174  -28.3712   20.1662 N   0  0  0  0  0  0  0  0  0  0  0  0
  -29.7179  -14.0209   19.4688 N   0  0  0  0  0  0  0  0  0  0  0  0
  -25.0431  -14.6770   19.3309 N   0  0  0  0  0  0  0  0  0  0  0  0
  -21.9987  -12.7818   22.0760 N   0  0  0  0  0  0  0  0  0  0  0  0
  -29.5078  -16.3650   19.3164 N   0  0  0  0  0  0  0  0  0  0  0  0
  -25.1526  -31.6814   21.3365 N   0  0  0  0  0  0  0  0  0  0  0  0
  -21.9709  -26.3328   19.2616 N   0  0  0  0  0  0  0  0  0  0  0  0
  -22.6579  -24.1058   16.4982 N   0  3  0  0  0  0  0  0  0  0  0  0
  -33.4726  -21.1518   21.1813 O   0  0  0  0  0  0  0  0  0  0  0  0
  -29.5360  -22.8444   19.4845 O   0  0  0  0  0  0  0  0  0  0  0  0
  -22.3754  -14.5242   20.6335 O   0  0  0  0  0  0  0  0  0  0  0  0
  -25.5095  -29.5904   22.2972 O   0  0  0  0  0  0  0  0  0  0  0  0
  -22.3847  -29.1441   19.6274 O   0  0  0  0  0  0  0  0  0  0  0  0
  -23.4388  -24.5401   19.1661 O   0  0  0  0  0  0  0  0  0  0  0  0
  -31.3354  -15.2744   18.3934 O   0  0  0  0  0  0  0  0  0  0  0  0
  -22.7091   -8.1444   25.0802 O   0  0  0  0  0  0  0  0  0  0  0  0
  -29.9173  -25.5134   21.0187 O   0  0  0  0  0  0  0  0  0  1  0  0
  -23.5297   -2.7976   24.0111 F   0  0  0  0  0  0  0  0  0  0  0  0
  -20.5736   -6.4247   24.7265 F   0  0  0  0  0  0  0  0  0  0  0  0
  1  2  1  0  0  0  0
  1  5  2  0  0  0  0
  2  6  2  0  0  0  0
  3 12  2  0  0  0  0
  3 19  1  0  0  0  0
  4 13  1  0  0  0  0
  4 19  2  0  0  0  0
  5 21  1  0  0  0  0
  6 23  1  0  0  0  0
  7 14  2  0  0  0  0
  7 22  1  0  0  0  0
  8 10  2  0  0  0  0
  8 25  1  0  0  0  0
  9 11  1  0  0  0  0
  9 25  2  0  0  0  0
 10 26  1  0  0  0  0
 11 26  2  0  0  0  0
 12 27  1  0  0  0  0
 13 27  2  0  0  0  0
 14 28  1  0  0  0  0
 15 16  2  0  0  0  0
 15 29  1  0  0  0  0
 16 30  1  0  0  0  0
 17 24  1  0  0  0  0
 17 28  2  0  0  0  0
 18 30  2  0  0  0  0
 18 31  1  0  0  0  0
 19 32  1  0  0  0  0
 20 32  1  0  0  0  0
 20 33  2  0  0  0  0
 20 38  1  0  0  0  0
 21 23  2  0  0  0  0
 21 43  1  0  0  0  0
 22 24  2  0  0  0  0
 22 44  1  0  0  0  0
 23 52  1  0  0  0  0
 24 45  1  0  0  0  0
 25 66  1  0  0  0  0
 26 71  1  0  0  0  0
 27 82  1  0  0  0  0
 28 83  1  0  0  0  0
 29 31  2  0  0  0  0
 29 82  1  0  0  0  0
 30 84  1  0  0  0  0
 31 85  1  0  0  0  0
 32 64  2  0  0  0  0
 33 65  1  0  0  0  0
 33 69  1  0  0  0  0
 34 35  2  0  0  0  0
 34 36  1  0  0  0  0
 35 37  1  0  0  0  0
 35 60  1  0  0  0  0
 36 66  1  0  0  0  0
 36 75  2  0  0  0  0
 37 66  1  0  0  0  0
 37 76  2  0  0  0  0
 38 70  1  0  0  0  0
 38 77  2  0  0  0  0
 39 53  1  0  0  0  0
 39 72  1  0  0  0  0
 39 78  2  0  0  0  0
 40 61  1  0  0  0  0
 40 67  1  0  0  0  0
 40 79  2  0  0  0  0
 41 62  1  0  0  0  0
 41 73  1  0  0  0  0
 41 80  2  0  0  0  0
 42 68  1  0  0  0  0
 42 71  1  0  0  0  0
 42 81  2  0  0  0  0
 43 46  1  0  0  0  0
 44 53  1  0  0  0  0
 45 67  1  0  0  0  0
 46 48  1  0  0  0  0
 47 49  1  0  0  0  0
 47 50  1  0  0  0  0
 48 52  1  0  0  0  0
 49 54  1  0  0  0  0
 50 68  1  0  0  0  0
 51 54  1  0  0  0  0
 51 68  1  0  0  0  0
 52 72  1  0  0  0  0
 53 67  1  0  0  0  0
 54 65  1  0  0  0  0
 55 62  1  0  0  0  0
 56 63  1  0  0  0  0
 57 63  1  0  0  0  0
 58 63  1  0  0  0  0
 59 74  1  0  0  0  0
 60 83  1  0  0  0  0
 61 63  1  0  0  0  0
 61 73  1  0  0  0  0
 62 74  1  0  0  0  0
 64 65  1  0  0  0  0
M  CHG  1  74   1
M  ISO  4  42 100  60 101  71 100  83 101
M  END
> <Batch ID>
0082

> <Smiles>
CNC(C)C(=O)NC(C(=O)N1Cc2cc([101O:1][101CH2:1]C3=CC(=O)N(c4ccc([100NH:0][100C:0](=O)N5CCCC(n6nc(-c7ccc(Oc8ccc(F)cc8F)cc7)c(C(N)=O)c6N)C5)cc4)C3=O)ccc2CC1C(=O)NC1CCCc2ccccc21)C(C)(C)C

> <Shape>
0.296

> <Color>
0.133

> <Negative vol penalty>
0.000

$$$$

  -OEChem-04052300073D

 84 93  0     1  0  0  0  0  0999 V2000
  -30.2196  -35.6561   24.4024 C   0  0  0  0  0  0  0  0  0  0  0  0
  -30.3636  -34.7210   23.3825 C   0  0  0  0  0  0  0  0  0  0  0  0
  -24.6686   -9.1852   21.8890 C   0  0  0  0  0  0  0  0  0  0  0  0
  -23.1928  -10.0092   20.1628 C   0  0  0  0  0  0  0  0  0  0  0  0
  -29.3997  -35.3742   25.4943 C   0  0  0  0  0  0  0  0  0  0  0  0
  -29.6887  -33.5029   23.4544 C   0  0  0  0  0  0  0  0  0  0  0  0
  -26.5831  -28.5857   19.2719 C   0  0  0  0  0  0  0  0  0  0  0  0
  -23.5476  -19.6003   16.6442 C   0  0  0  0  0  0  0  0  0  0  0  0
  -23.5827   -8.5952   22.5358 C   0  0  0  0  0  0  0  0  0  0  0  0
  -22.1068   -9.4192   20.8095 C   0  0  0  0  0  0  0  0  0  0  0  0
  -26.5989  -27.2129   19.0295 C   0  0  0  0  0  0  0  0  0  0  0  0
  -21.6928   -5.8121   22.1960 C   0  0  0  0  0  0  0  0  0  0  0  0
  -23.4311  -18.2748   16.2261 C   0  0  0  0  0  0  0  0  0  0  0  0
  -21.8467   -4.5062   22.6611 C   0  0  0  0  0  0  0  0  0  0  0  0
  -25.1473  -26.8674   20.9249 C   0  0  0  0  0  0  0  0  0  0  0  0
  -25.3930  -18.9862   18.0775 C   0  0  0  0  0  0  0  0  0  0  0  0
  -21.4055   -5.2569   24.9148 C   0  0  0  0  0  0  0  0  0  0  0  0
  -24.4736   -9.8923   20.7025 C   0  0  0  0  0  0  0  0  0  0  0  0
  -26.4186   -9.9205   19.0521 C   0  0  0  0  0  0  0  0  0  0  0  0
  -28.7067  -34.1560   25.5750 C   0  0  0  0  0  0  0  0  0  0  0  0
  -25.8568  -29.1096   20.3511 C   0  0  0  0  0  0  0  0  0  0  0  0
  -28.8597  -33.2039   24.5491 C   0  0  0  0  0  0  0  0  0  0  0  0
  -25.1218  -28.2475   21.1774 C   0  0  0  0  0  0  0  0  0  0  0  0
  -24.5286  -19.9561   17.5698 C   0  0  0  0  0  0  0  0  0  0  0  0
  -25.2766  -17.6606   17.6594 C   0  0  0  0  0  0  0  0  0  0  0  0
  -22.3018   -8.7122   21.9960 C   0  0  0  0  0  0  0  0  0  0  0  0
  -25.8833  -26.3532   19.8577 C   0  0  0  0  0  0  0  0  0  0  0  0
  -21.3953   -6.8405   23.0902 C   0  0  0  0  0  0  0  0  0  0  0  0
  -21.7030   -4.2285   24.0205 C   0  0  0  0  0  0  0  0  0  0  0  0
  -24.2956  -17.3049   16.7337 C   0  0  0  0  0  0  0  0  0  0  0  0
  -21.2516   -6.5629   24.4496 C   0  0  0  0  0  0  0  0  0  0  0  0
  -25.5949  -10.5025   20.0343 C   0  0  0  0  0  0  0  0  0  0  0  0
  -27.3282  -10.9017   18.7415 C   0  0  0  0  0  0  0  0  0  0  0  0
  -24.8575  -23.1850   18.4967 C   0  0  0  0  0  0  0  0  0  0  0  0
  -23.9560  -22.3883   17.6636 C   0  0  0  0  0  0  0  0  0  0  0  0
  -24.9399  -24.4934   18.7985 C   0  0  0  0  0  0  0  0  0  1  0  0
  -26.3661   -8.6103   18.4722 C   0  0  0  0  0  0  0  0  0  0  0  0
  -26.6026  -30.7360   22.9783 C   0  0  0  0  0  0  0  0  0  0  0  0
  -23.3814  -30.8875   23.3292 C   0  0  0  0  0  0  0  0  0  0  0  0
  -20.3242  -29.5427   22.6277 C   0  0  0  0  0  0  0  0  0  0  0  0
  -27.1833  -16.8645   19.1006 C   0  0  0  0  0  0  0  0  0  0  0  0
  -27.8691  -33.8769   26.7977 C   0  0  0  0  0  0  0  0  0  0  0  0
  -25.8283  -30.5954   20.5832 C   0  0  0  0  0  0  0  0  0  0  0  0
  -24.3097  -28.7616   22.3370 C   0  0  0  0  0  0  0  0  0  0  0  0
  -25.6135  -21.9217   18.8390 C   0  0  0  0  0  0  0  0  0  0  0  0
  -26.8941  -32.7165   26.6162 C   0  0  0  0  0  0  0  0  0  0  0  0
  -29.5430  -14.6946   20.6500 C   0  0  0  0  0  0  0  0  0  0  0  0
  -27.5965  -31.5246   25.9737 C   0  0  0  0  0  0  0  0  0  0  0  0
  -28.8760  -13.3194   20.5731 C   0  0  0  0  0  0  0  0  0  0  0  0
  -28.5252  -15.8052   20.9040 C   0  0  0  0  0  0  0  0  0  0  0  0
  -26.7261  -14.4603   19.8922 C   0  0  0  0  0  0  0  0  0  0  0  0
  -28.1245  -31.8816   24.5790 C   0  0  1  0  0  0  0  0  0  0  0  0
  -25.4705  -30.9692   22.0183 C   0  0  1  0  0  0  0  0  0  0  0  0
  -27.7032  -13.3170   19.5730 C   0  0  2  0  0  0  0  0  0  0  0  0
  -17.8781  -29.8652   23.0862 C   0  0  0  0  0  0  0  0  0  0  0  0
  -23.7583  -29.7427   26.1323 C   0  0  0  0  0  0  0  0  0  0  0  0
  -21.3132  -29.2058   26.1663 C   0  0  0  0  0  0  0  0  0  0  0  0
  -22.0653  -31.5765   25.9733 C   0  0  0  0  0  0  0  0  0  0  0  0
  -19.7183  -29.9285   19.7566 C   0  0  0  0  0  0  0  0  0  0  0  0
  -22.3368  -30.0250   23.9956 C   0  0  1  0  0  0  0  0  0  0  0  0
  -19.0317  -30.1763   22.1454 C   0  0  2  0  0  0  0  0  0  0  0  0
  -22.3852  -30.1273   25.5463 C   0  0  0  0  0  0  0  0  0  0  0  0
  -25.9499  -11.7560   20.3284 N   0  0  0  0  0  0  0  0  0  0  0  0
  -27.0068  -11.9698   19.5263 N   0  0  0  0  0  0  0  0  0  0  0  0
  -24.6432  -21.2635   17.9821 N   0  0  0  0  0  0  0  0  0  0  0  0
  -24.3186  -30.2216   22.5267 N   0  0  0  0  0  0  0  0  0  0  0  0
  -27.4460  -15.7433   19.9159 N   0  0  0  0  0  0  0  0  0  0  0  0
  -28.3637  -10.9462   17.8766 N   0  0  0  0  0  0  0  0  0  0  0  0
  -25.3675   -7.7274   18.9055 N   0  0  0  0  0  0  0  0  0  0  0  0
  -26.1561  -16.6772   18.1763 N   0  0  0  0  0  0  0  0  0  0  0  0
  -27.0456  -31.8799   23.6144 N   0  0  0  0  0  0  0  0  0  0  0  0
  -21.0566  -30.4094   23.4110 N   0  0  0  0  0  0  0  0  0  0  0  0
  -18.6813  -29.6694   20.7884 N   0  3  0  0  0  0  0  0  0  0  0  0
  -22.9954  -22.6291   16.9624 O   0  0  0  0  0  0  0  0  0  0  0  0
  -27.1906   -8.2280   17.6076 O   0  0  0  0  0  0  0  0  0  0  0  0
  -27.0407  -29.6018   23.1318 O   0  0  0  0  0  0  0  0  0  0  0  0
  -23.3620  -32.1078   23.5081 O   0  0  0  0  0  0  0  0  0  0  0  0
  -20.6496  -28.3926   22.3415 O   0  0  0  0  0  0  0  0  0  0  0  0
  -27.8405  -17.9042   19.1956 O   0  0  0  0  0  0  0  0  0  0  0  0
  -21.2420   -8.1364   22.6267 O   0  0  0  0  0  0  0  0  0  0  0  0
  -25.8976  -25.0127   19.6237 O   0  0  0  0  0  0  0  0  0  1  0  0
  -21.8493   -2.9741   24.4668 F   0  0  0  0  0  0  0  0  0  0  0  0
  -24.1740  -16.0340   16.3249 F   0  0  0  0  0  0  0  0  0  0  0  0
  -20.9646   -7.5465   25.3133 F   0  0  0  0  0  0  0  0  0  0  0  0
  1  2  1  0  0  0  0
  1  5  2  0  0  0  0
  2  6  2  0  0  0  0
  3  9  2  0  0  0  0
  3 18  1  0  0  0  0
  4 10  1  0  0  0  0
  4 18  2  0  0  0  0
  5 20  1  0  0  0  0
  6 22  1  0  0  0  0
  7 11  2  0  0  0  0
  7 21  1  0  0  0  0
  8 13  2  0  0  0  0
  8 24  1  0  0  0  0
  9 26  1  0  0  0  0
 10 26  2  0  0  0  0
 11 27  1  0  0  0  0
 12 14  2  0  0  0  0
 12 28  1  0  0  0  0
 13 30  1  0  0  0  0
 14 29  1  0  0  0  0
 15 23  1  0  0  0  0
 15 27  2  0  0  0  0
 16 24  2  0  0  0  0
 16 25  1  0  0  0  0
 17 29  2  0  0  0  0
 17 31  1  0  0  0  0
 18 32  1  0  0  0  0
 19 32  1  0  0  0  0
 19 33  2  0  0  0  0
 19 37  1  0  0  0  0
 20 22  2  0  0  0  0
 20 42  1  0  0  0  0
 21 23  2  0  0  0  0
 21 43  1  0  0  0  0
 22 52  1  0  0  0  0
 23 44  1  0  0  0  0
 24 65  1  0  0  0  0
 25 30  2  0  0  0  0
 25 70  1  0  0  0  0
 26 80  1  0  0  0  0
 27 81  1  0  0  0  0
 28 31  2  0  0  0  0
 28 80  1  0  0  0  0
 29 82  1  0  0  0  0
 30 83  1  0  0  0  0
 31 84  1  0  0  0  0
 32 63  2  0  0  0  0
 33 64  1  0  0  0  0
 33 68  1  0  0  0  0
 34 35  1  0  0  0  0
 34 36  2  0  0  0  0
 34 45  1  0  0  0  0
 35 65  1  0  0  0  0
 35 74  2  0  0  0  0
 36 81  1  0  0  0  0
 37 69  1  0  0  0  0
 37 75  2  0  0  0  0
 38 53  1  0  0  0  0
 38 71  1  0  0  0  0
 38 76  2  0  0  0  0
 39 60  1  0  0  0  0
 39 66  1  0  0  0  0
 39 77  2  0  0  0  0
 40 61  1  0  0  0  0
 40 72  1  0  0  0  0
 40 78  2  0  0  0  0
 41 67  1  0  0  0  0
 41 70  1  0  0  0  0
 41 79  2  0  0  0  0
 42 46  1  0  0  0  0
 43 53  1  0  0  0  0
 44 66  1  0  0  0  0
 45 65  1  0  0  0  0
 46 48  1  0  0  0  0
 47 49  1  0  0  0  0
 47 50  1  0  0  0  0
 48 52  1  0  0  0  0
 49 54  1  0  0  0  0
 50 67  1  0  0  0  0
 51 54  1  0  0  0  0
 51 67  1  0  0  0  0
 52 71  1  0  0  0  0
 53 66  1  0  0  0  0
 54 64  1  0  0  0  0
 55 61  1  0  0  0  0
 56 62  1  0  0  0  0
 57 62  1  0  0  0  0
 58 62  1  0  0  0  0
 59 73  1  0  0  0  0
 60 62  1  0  0  0  0
 60 72  1  0  0  0  0
 61 73  1  0  0  0  0
 63 64  1  0  0  0  0
M  CHG  1  73   1
M  ISO  4  36 101  41 100  70 100  81 101
M  END
> <Batch ID>
0082

> <Smiles>
CNC(C)C(=O)NC(C(=O)N1Cc2cc([101O:1][101CH:1]=C3CN(c4ccc(F)c([100NH:0][100C:0](=O)N5CCCC(n6nc(-c7ccc(Oc8ccc(F)cc8F)cc7)c(C(N)=O)c6N)C5)c4)C3=O)ccc2CC1C(=O)NC1CCCc2ccccc21)C(C)(C)C

> <Shape>
0.257

> <Color>
0.100

> <Negative vol penalty>
0.000

$$$$

  -OEChem-04052300073D

 84 93  0     1  0  0  0  0  0999 V2000
  -16.6213  -28.6036   23.7868 C   0  0  0  0  0  0  0  0  0  0  0  0
  -17.3592  -27.8685   22.8646 C   0  0  0  0  0  0  0  0  0  0  0  0
  -32.0218  -23.8811   13.9218 C   0  0  0  0  0  0  0  0  0  0  0  0
  -27.5412  -18.3037   18.4709 C   0  0  0  0  0  0  0  0  0  0  0  0
  -28.2345  -17.6980   20.7047 C   0  0  0  0  0  0  0  0  0  0  0  0
  -32.8753  -23.8970   15.0249 C   0  0  0  0  0  0  0  0  0  0  0  0
  -17.0531  -29.8725   24.1708 C   0  0  0  0  0  0  0  0  0  0  0  0
  -18.5290  -28.4024   22.3250 C   0  0  0  0  0  0  0  0  0  0  0  0
  -23.6033  -25.3402   20.7821 C   0  0  0  0  0  0  0  0  0  0  0  0
  -30.6488  -23.7168   14.1046 C   0  0  0  0  0  0  0  0  0  0  0  0
  -27.1978  -16.9758   18.2175 C   0  0  0  0  0  0  0  0  0  0  0  0
  -27.8910  -16.3701   20.4512 C   0  0  0  0  0  0  0  0  0  0  0  0
  -24.0762  -24.8635   19.5602 C   0  0  0  0  0  0  0  0  0  0  0  0
  -29.2243  -13.7169   18.8345 C   0  0  0  0  0  0  0  0  0  0  0  0
  -30.1246  -12.7278   19.2301 C   0  0  0  0  0  0  0  0  0  0  0  0
  -30.9828  -23.5844   16.4937 C   0  0  0  0  0  0  0  0  0  0  0  0
  -25.4190  -26.8520   19.3111 C   0  0  0  0  0  0  0  0  0  0  0  0
  -28.4370  -11.7665   20.6671 C   0  0  0  0  0  0  0  0  0  0  0  0
  -28.0597  -18.6648   19.7145 C   0  0  0  0  0  0  0  0  0  0  0  0
  -32.3558  -23.7486   16.3109 C   0  0  0  0  0  0  0  0  0  0  0  0
  -27.5862  -21.0429   20.5072 C   0  0  0  0  0  0  0  0  0  0  0  0
  -18.2339  -30.4182   23.6430 C   0  0  0  0  0  0  0  0  0  0  0  0
  -24.0271  -26.5834   21.2733 C   0  0  0  0  0  0  0  0  0  0  0  0
  -18.9763  -29.6802   22.7014 C   0  0  0  0  0  0  0  0  0  0  0  0
  -24.9520  -27.3410   20.5406 C   0  0  0  0  0  0  0  0  0  0  0  0
  -30.1293  -23.5685   15.3906 C   0  0  0  0  0  0  0  0  0  0  0  0
  -27.3726  -16.0090   19.2076 C   0  0  0  0  0  0  0  0  0  0  0  0
  -24.9819  -25.6207   18.8231 C   0  0  0  0  0  0  0  0  0  0  0  0
  -27.9303  -13.7309   19.3552 C   0  0  0  0  0  0  0  0  0  0  0  0
  -29.7310  -11.7526   20.1464 C   0  0  0  0  0  0  0  0  0  0  0  0
  -27.5366  -12.7557   20.2714 C   0  0  0  0  0  0  0  0  0  0  0  0
  -28.4152  -20.0363   19.9768 C   0  0  0  0  0  0  0  0  0  0  0  0
  -28.3891  -22.1560   20.5607 C   0  0  0  0  0  0  0  0  0  0  0  0
  -26.5633  -22.8399   15.2634 C   0  0  0  0  0  0  0  0  0  0  0  0
  -26.6411  -23.4463   16.4461 C   0  0  0  0  0  0  0  0  0  0  0  0
  -27.9069  -22.8032   14.6687 C   0  0  0  0  0  0  0  0  0  0  0  0
  -28.0502  -23.8162   16.6820 C   0  0  0  0  0  0  0  0  0  0  0  0
  -33.2545  -23.7658   17.4723 C   0  0  0  0  0  0  0  0  0  0  0  0
  -26.2133  -20.9775   20.9151 C   0  0  0  0  0  0  0  0  0  0  0  0
  -22.5836  -29.3247   21.9843 C   0  0  0  0  0  0  0  0  0  0  0  0
  -25.5241  -30.1368   23.0871 C   0  0  0  0  0  0  0  0  0  0  0  0
  -28.8988  -29.6407   22.9762 C   0  0  0  0  0  0  0  0  0  0  0  0
  -18.6355  -31.8130   24.0527 C   0  0  0  0  0  0  0  0  0  0  0  0
  -23.5281  -27.0713   22.6057 C   0  0  0  0  0  0  0  0  0  0  0  0
  -25.4537  -28.6728   21.0335 C   0  0  0  0  0  0  0  0  0  0  0  0
  -20.0853  -32.1529   23.7168 C   0  0  0  0  0  0  0  0  0  0  0  0
  -32.9709  -23.4619   21.0176 C   0  0  0  0  0  0  0  0  0  0  0  0
  -20.4155  -31.7307   22.2887 C   0  0  0  0  0  0  0  0  0  0  0  0
  -31.7030  -22.6265   21.2042 C   0  0  0  0  0  0  0  0  0  0  0  0
  -33.7526  -23.0308   19.7792 C   0  0  0  0  0  0  0  0  0  0  0  0
  -31.6918  -22.1803   18.7139 C   0  0  0  0  0  0  0  0  0  0  0  0
  -20.2637  -30.2149   22.1124 C   0  0  1  0  0  0  0  0  0  0  0  0
  -23.6327  -28.5849   22.7652 C   0  0  1  0  0  0  0  0  0  0  0  0
  -30.8481  -22.6164   19.9231 C   0  0  1  0  0  0  0  0  0  0  0  0
  -31.0469  -30.4806   23.9649 C   0  0  0  0  0  0  0  0  0  0  0  0
  -25.3631  -32.6199   21.3213 C   0  0  0  0  0  0  0  0  0  0  0  0
  -27.8351  -32.8968   21.6052 C   0  0  0  0  0  0  0  0  0  0  0  0
  -26.3321  -33.0160   23.5926 C   0  0  0  0  0  0  0  0  0  0  0  0
  -29.5392  -26.9912   24.1291 C   0  0  0  0  0  0  0  0  0  0  0  0
  -25.5571  -23.7310   17.4207 C   0  0  0  0  0  0  0  0  0  1  0  0
  -26.7505  -30.7810   22.4873 C   0  0  1  0  0  0  0  0  0  0  0  0
  -29.9268  -29.4582   24.0781 C   0  0  2  0  0  0  0  0  0  0  0  0
  -26.5595  -32.3043   22.2411 C   0  0  0  0  0  0  0  0  0  0  0  0
  -29.6500  -20.4715   19.7121 N   0  0  0  0  0  0  0  0  0  0  0  0
  -29.6027  -21.7639   20.0776 N   0  0  0  0  0  0  0  0  0  0  0  0
  -28.7607  -23.4036   15.5715 N   0  0  0  0  0  0  0  0  0  0  0  0
  -32.8894  -23.0245   18.5987 N   0  0  0  0  0  0  0  0  0  0  0  0
  -24.9316  -29.1097   22.3389 N   0  0  0  0  0  0  0  0  0  0  0  0
  -28.1681  -23.4223   20.9734 N   0  0  0  0  0  0  0  0  0  0  0  0
  -25.5374  -19.7558   20.7928 N   0  0  0  0  0  0  0  0  0  0  0  0
  -21.4038  -29.5240   22.6756 N   0  0  0  0  0  0  0  0  0  0  0  0
  -27.8598  -30.4540   23.3766 N   0  0  0  0  0  0  0  0  0  0  0  0
  -30.5256  -28.0953   24.0074 N   0  3  0  0  0  0  0  0  0  0  0  0
  -28.1516  -22.3158   13.5770 O   0  0  0  0  0  0  0  0  0  0  0  0
  -28.4537  -24.3812   17.6860 O   0  0  0  0  0  0  0  0  0  0  0  0
  -34.2692  -24.4527   17.3642 O   0  0  0  0  0  0  0  0  0  0  0  0
  -25.5992  -21.9772   21.3591 O   0  0  0  0  0  0  0  0  0  0  0  0
  -22.8270  -29.6891   20.8399 O   0  0  0  0  0  0  0  0  0  0  0  0
  -25.1114  -30.5255   24.1826 O   0  0  0  0  0  0  0  0  0  0  0  0
  -29.0085  -29.1173   21.8696 O   0  0  0  0  0  0  0  0  0  0  0  0
  -27.0373  -14.7131   18.9607 O   0  0  0  0  0  0  0  0  0  0  0  0
  -25.4446  -25.1581   17.6299 O   0  0  0  0  0  0  0  0  0  1  0  0
  -30.5952  -10.8019   20.5251 F   0  0  0  0  0  0  0  0  0  0  0  0
  -26.2944  -12.7633   20.7742 F   0  0  0  0  0  0  0  0  0  0  0  0
  1  2  1  0  0  0  0
  1  7  2  0  0  0  0
  2  8  2  0  0  0  0
  3  6  1  0  0  0  0
  3 10  2  0  0  0  0
  4 11  2  0  0  0  0
  4 19  1  0  0  0  0
  5 12  1  0  0  0  0
  5 19  2  0  0  0  0
  6 20  2  0  0  0  0
  7 22  1  0  0  0  0
  8 24  1  0  0  0  0
  9 13  2  0  0  0  0
  9 23  1  0  0  0  0
 10 26  1  0  0  0  0
 11 27  1  0  0  0  0
 12 27  2  0  0  0  0
 13 28  1  0  0  0  0
 14 15  2  0  0  0  0
 14 29  1  0  0  0  0
 15 30  1  0  0  0  0
 16 20  1  0  0  0  0
 16 26  2  0  0  0  0
 17 25  1  0  0  0  0
 17 28  2  0  0  0  0
 18 30  2  0  0  0  0
 18 31  1  0  0  0  0
 19 32  1  0  0  0  0
 20 38  1  0  0  0  0
 21 32  1  0  0  0  0
 21 33  2  0  0  0  0
 21 39  1  0  0  0  0
 22 24  2  0  0  0  0
 22 43  1  0  0  0  0
 23 25  2  0  0  0  0
 23 44  1  0  0  0  0
 24 52  1  0  0  0  0
 25 45  1  0  0  0  0
 26 66  1  0  0  0  0
 27 81  1  0  0  0  0
 28 82  1  0  0  0  0
 29 31  2  0  0  0  0
 29 81  1  0  0  0  0
 30 83  1  0  0  0  0
 31 84  1  0  0  0  0
 32 64  2  0  0  0  0
 33 65  1  0  0  0  0
 33 69  1  0  0  0  0
 34 35  2  0  0  0  0
 34 36  1  0  0  0  0
 35 37  1  0  0  0  0
 35 60  1  0  0  0  0
 36 66  1  0  0  0  0
 36 74  2  0  0  0  0
 37 66  1  0  0  0  0
 37 75  2  0  0  0  0
 38 67  1  0  0  0  0
 38 76  2  0  0  0  0
 39 70  1  0  0  0  0
 39 77  2  0  0  0  0
 40 53  1  0  0  0  0
 40 71  1  0  0  0  0
 40 78  2  0  0  0  0
 41 61  1  0  0  0  0
 41 68  1  0  0  0  0
 41 79  2  0  0  0  0
 42 62  1  0  0  0  0
 42 72  1  0  0  0  0
 42 80  2  0  0  0  0
 43 46  1  0  0  0  0
 44 53  1  0  0  0  0
 45 68  1  0  0  0  0
 46 48  1  0  0  0  0
 47 49  1  0  0  0  0
 47 50  1  0  0  0  0
 48 52  1  0  0  0  0
 49 54  1  0  0  0  0
 50 67  1  0  0  0  0
 51 54  1  0  0  0  0
 51 67  1  0  0  0  0
 52 71  1  0  0  0  0
 53 68  1  0  0  0  0
 54 65  1  0  0  0  0
 55 62  1  0  0  0  0
 56 63  1  0  0  0  0
 57 63  1  0  0  0  0
 58 63  1  0  0  0  0
 59 73  1  0  0  0  0
 60 82  1  0  0  0  0
 61 63  1  0  0  0  0
 61 72  1  0  0  0  0
 62 73  1  0  0  0  0
 64 65  1  0  0  0  0
M  CHG  1  73   1
M  ISO  4  20 100  38 100  60 101  82 101
M  END
> <Batch ID>
0082

> <Smiles>
CNC(C)C(=O)NC(C(=O)N1Cc2cc([101O:1][101CH2:1]C3=CC(=O)N(c4ccc[100c:0]([100C:0](=O)N5CCCC(n6nc(-c7ccc(Oc8ccc(F)cc8F)cc7)c(C(N)=O)c6N)C5)c4)C3=O)ccc2CC1C(=O)NC1CCCc2ccccc21)C(C)(C)C

> <Shape>
0.240

> <Color>
0.070

> <Negative vol penalty>
0.000

$$$$
