
  -OEChem-04052300093D

 86 95  0     1  0  0  0  0  0999 V2000
  -26.6303  -36.2645   21.5697 C   0  0  0  0  0  0  0  0  0  0  0  0
  -27.4771  -35.1608   21.5783 C   0  0  0  0  0  0  0  0  0  0  0  0
  -23.5792   -9.7970   21.9155 C   0  0  0  0  0  0  0  0  0  0  0  0
  -24.4076  -11.0925   23.7789 C   0  0  0  0  0  0  0  0  0  0  0  0
  -25.2801  -36.1082   21.8805 C   0  0  0  0  0  0  0  0  0  0  0  0
  -26.9745  -33.9002   21.8989 C   0  0  0  0  0  0  0  0  0  0  0  0
  -28.7528  -28.5250   19.5644 C   0  0  0  0  0  0  0  0  0  0  0  0
  -31.8734  -19.2504   19.9133 C   0  0  0  0  0  0  0  0  0  0  0  0
  -29.6007  -20.0033   20.2369 C   0  0  0  0  0  0  0  0  0  0  0  0
  -31.4098  -17.9594   19.6606 C   0  0  0  0  0  0  0  0  0  0  0  0
  -29.1370  -18.7122   19.9841 C   0  0  0  0  0  0  0  0  0  0  0  0
  -23.0462   -8.8618   22.8026 C   0  0  0  0  0  0  0  0  0  0  0  0
  -23.8745  -10.1573   24.6660 C   0  0  0  0  0  0  0  0  0  0  0  0
  -29.6193  -27.5390   20.0342 C   0  0  0  0  0  0  0  0  0  0  0  0
  -20.3238   -8.5819   24.7883 C   0  0  0  0  0  0  0  0  0  0  0  0
  -19.0264   -8.1285   24.5500 C   0  0  0  0  0  0  0  0  0  0  0  0
  -27.7390  -26.3216   20.9296 C   0  0  0  0  0  0  0  0  0  0  0  0
  -19.8538   -5.8676   24.3477 C   0  0  0  0  0  0  0  0  0  0  0  0
  -24.2600  -10.9123   22.4037 C   0  0  0  0  0  0  0  0  0  0  0  0
  -24.1739  -13.0240   20.9750 C   0  0  0  0  0  0  0  0  0  0  0  0
  -24.7587  -34.8435   22.1956 C   0  0  0  0  0  0  0  0  0  0  0  0
  -27.3716  -28.4220   19.7836 C   0  0  0  0  0  0  0  0  0  0  0  0
  -25.6163  -33.7271   22.2155 C   0  0  0  0  0  0  0  0  0  0  0  0
  -26.8569  -27.3064   20.4593 C   0  0  0  0  0  0  0  0  0  0  0  0
  -30.9689  -20.2724   20.2015 C   0  0  0  0  0  0  0  0  0  0  0  0
  -30.0416  -17.6903   19.6960 C   0  0  0  0  0  0  0  0  0  0  0  0
  -23.1938   -9.0420   24.1778 C   0  0  0  0  0  0  0  0  0  0  0  0
  -29.1128  -26.4385   20.7194 C   0  0  0  0  0  0  0  0  0  0  0  0
  -21.3862   -7.6782   24.8062 C   0  0  0  0  0  0  0  0  0  0  0  0
  -18.7914   -6.7713   24.3297 C   0  0  0  0  0  0  0  0  0  0  0  0
  -21.1512   -6.3210   24.5860 C   0  0  0  0  0  0  0  0  0  0  0  0
  -24.8114  -11.8783   21.4878 C   0  0  0  0  0  0  0  0  0  0  0  0
  -25.1131  -13.6022   20.1565 C   0  0  0  0  0  0  0  0  0  0  0  0
  -32.7260  -23.3417   21.1041 C   0  0  0  0  0  0  0  0  0  0  0  0
  -31.5979  -23.8459   20.5981 C   0  0  0  0  0  0  0  0  0  0  0  0
  -32.6520  -21.8675   21.0168 C   0  0  0  0  0  0  0  0  0  0  0  0
  -30.7369  -22.7194   20.1787 C   0  0  0  0  0  0  0  0  0  0  0  0
  -22.8510  -13.5210   21.2170 C   0  0  0  0  0  0  0  0  0  0  0  0
  -25.2109  -30.1613   21.3359 C   0  0  0  0  0  0  0  0  0  0  0  0
  -23.1325  -28.0525   20.0109 C   0  0  0  0  0  0  0  0  0  0  0  0
  -22.6025  -24.9559   18.6779 C   0  0  0  0  0  0  0  0  0  0  0  0
  -30.3329  -15.2511   19.1376 C   0  0  0  0  0  0  0  0  0  0  0  0
  -23.3022  -34.7318   22.5709 C   0  0  0  0  0  0  0  0  0  0  0  0
  -26.4477  -29.4807   19.2471 C   0  0  0  0  0  0  0  0  0  0  0  0
  -25.3800  -27.1386   20.7028 C   0  0  0  0  0  0  0  0  0  0  0  0
  -22.7718  -33.3009   22.5341 C   0  0  0  0  0  0  0  0  0  0  0  0
  -29.5516  -11.8406   18.4778 C   0  0  0  0  0  0  0  0  0  0  0  0
  -23.7403  -32.3543   23.2360 C   0  0  0  0  0  0  0  0  0  0  0  0
  -28.1963  -11.6406   19.1599 C   0  0  0  0  0  0  0  0  0  0  0  0
  -30.4578  -12.7733   19.2794 C   0  0  0  0  0  0  0  0  0  0  0  0
  -28.5069  -13.8697   20.3095 C   0  0  0  0  0  0  0  0  0  0  0  0
  -25.1035  -32.3394   22.5339 C   0  0  1  0  0  0  0  0  0  0  0  0
  -25.1085  -29.5303   19.9761 C   0  0  1  0  0  0  0  0  0  0  0  0
  -27.5355  -12.9892   19.5066 C   0  0  2  0  0  0  0  0  0  0  0  0
  -33.9156  -24.0212   21.6734 C   0  0  0  0  0  0  0  0  0  0  0  0
  -20.7915  -23.5081   17.7180 C   0  0  0  0  0  0  0  0  0  0  0  0
  -22.0591  -27.5370   22.8201 C   0  0  0  0  0  0  0  0  0  0  0  0
  -20.9666  -25.4607   21.9463 C   0  0  0  0  0  0  0  0  0  0  0  0
  -20.3044  -27.6904   21.0447 C   0  0  0  0  0  0  0  0  0  0  0  0
  -23.9806  -24.7633   16.0659 C   0  0  0  0  0  0  0  0  0  0  0  0
  -31.1567  -25.2552   20.4397 C   0  0  0  0  0  0  0  0  0  1  0  0
  -22.5543  -26.7199   20.4216 C   0  0  1  0  0  0  0  0  0  0  0  0
  -21.8917  -24.5124   17.4120 C   0  0  2  0  0  0  0  0  0  0  0  0
  -21.4991  -26.8559   21.5555 C   0  0  0  0  0  0  0  0  0  0  0  0
  -26.0591  -11.7355   21.0330 N   0  0  0  0  0  0  0  0  0  0  0  0
  -26.2132  -12.7989   20.2258 N   0  0  0  0  0  0  0  0  0  0  0  0
  -31.4309  -21.5593   20.4538 N   0  0  0  0  0  0  0  0  0  0  0  0
  -24.5180  -28.2037   20.1644 N   0  0  0  0  0  0  0  0  0  0  0  0
  -29.7669  -14.0321   19.5672 N   0  0  0  0  0  0  0  0  0  0  0  0
  -25.0971  -14.7143   19.3914 N   0  0  0  0  0  0  0  0  0  0  0  0
  -22.0164  -12.8043   22.0853 N   0  0  0  0  0  0  0  0  0  0  0  0
  -29.5703  -16.3789   19.4393 N   0  0  0  0  0  0  0  0  0  0  0  0
  -25.0450  -31.5332   21.3335 N   0  0  0  0  0  0  0  0  0  0  0  0
  -22.0445  -26.1028   19.2019 N   0  0  0  0  0  0  0  0  0  0  0  0
  -22.8576  -23.8789   16.4704 N   0  3  0  0  0  0  0  0  0  0  0  0
  -33.5361  -21.1128   21.3903 O   0  0  0  0  0  0  0  0  0  0  0  0
  -29.6280  -22.8505   19.6850 O   0  0  0  0  0  0  0  0  0  0  0  0
  -22.4160  -14.5608   20.6663 O   0  0  0  0  0  0  0  0  0  0  0  0
  -25.4232  -29.4556   22.3150 O   0  0  0  0  0  0  0  0  0  0  0  0
  -22.3837  -28.9247   19.5634 O   0  0  0  0  0  0  0  0  0  0  0  0
  -23.5550  -24.3439   19.1563 O   0  0  0  0  0  0  0  0  0  0  0  0
  -31.4012  -15.2891   18.5218 O   0  0  0  0  0  0  0  0  0  0  0  0
  -22.6736   -8.1298   25.0438 O   0  0  0  0  0  0  0  0  0  0  0  0
  -29.9564  -25.4750   21.1796 O   0  0  0  0  0  0  0  0  0  1  0  0
  -17.5452   -6.3358   24.1024 F   0  0  0  0  0  0  0  0  0  0  0  0
  -22.1676   -5.4479   24.6032 F   0  0  0  0  0  0  0  0  0  0  0  0
  1  2  1  0  0  0  0
  1  5  2  0  0  0  0
  2  6  2  0  0  0  0
  3 12  2  0  0  0  0
  3 19  1  0  0  0  0
  4 13  1  0  0  0  0
  4 19  2  0  0  0  0
  5 21  1  0  0  0  0
  6 23  1  0  0  0  0
  7 14  2  0  0  0  0
  7 22  1  0  0  0  0
  8 10  2  0  0  0  0
  8 25  1  0  0  0  0
  9 11  1  0  0  0  0
  9 25  2  0  0  0  0
 10 26  1  0  0  0  0
 11 26  2  0  0  0  0
 12 27  1  0  0  0  0
 13 27  2  0  0  0  0
 14 28  1  0  0  0  0
 15 16  2  0  0  0  0
 15 29  1  0  0  0  0
 16 30  1  0  0  0  0
 17 24  1  0  0  0  0
 17 28  2  0  0  0  0
 18 30  2  0  0  0  0
 18 31  1  0  0  0  0
 19 32  1  0  0  0  0
 20 32  1  0  0  0  0
 20 33  2  0  0  0  0
 20 38  1  0  0  0  0
 21 23  2  0  0  0  0
 21 43  1  0  0  0  0
 22 24  2  0  0  0  0
 22 44  1  0  0  0  0
 23 52  1  0  0  0  0
 24 45  1  0  0  0  0
 25 67  1  0  0  0  0
 26 72  1  0  0  0  0
 27 83  1  0  0  0  0
 28 84  1  0  0  0  0
 29 31  2  0  0  0  0
 29 83  1  0  0  0  0
 30 85  1  0  0  0  0
 31 86  1  0  0  0  0
 32 65  2  0  0  0  0
 33 66  1  0  0  0  0
 33 70  1  0  0  0  0
 34 35  2  0  0  0  0
 34 36  1  0  0  0  0
 34 55  1  0  0  0  0
 35 37  1  0  0  0  0
 35 61  1  0  0  0  0
 36 67  1  0  0  0  0
 36 76  2  0  0  0  0
 37 67  1  0  0  0  0
 37 77  2  0  0  0  0
 38 71  1  0  0  0  0
 38 78  2  0  0  0  0
 39 53  1  0  0  0  0
 39 73  1  0  0  0  0
 39 79  2  0  0  0  0
 40 62  1  0  0  0  0
 40 68  1  0  0  0  0
 40 80  2  0  0  0  0
 41 63  1  0  0  0  0
 41 74  1  0  0  0  0
 41 81  2  0  0  0  0
 42 69  1  0  0  0  0
 42 72  1  0  0  0  0
 42 82  2  0  0  0  0
 43 46  1  0  0  0  0
 44 53  1  0  0  0  0
 45 68  1  0  0  0  0
 46 48  1  0  0  0  0
 47 49  1  0  0  0  0
 47 50  1  0  0  0  0
 48 52  1  0  0  0  0
 49 54  1  0  0  0  0
 50 69  1  0  0  0  0
 51 54  1  0  0  0  0
 51 69  1  0  0  0  0
 52 73  1  0  0  0  0
 53 68  1  0  0  0  0
 54 66  1  0  0  0  0
 56 63  1  0  0  0  0
 57 64  1  0  0  0  0
 58 64  1  0  0  0  0
 59 64  1  0  0  0  0
 60 75  1  0  0  0  0
 61 84  1  0  0  0  0
 62 64  1  0  0  0  0
 62 74  1  0  0  0  0
 63 75  1  0  0  0  0
 65 66  1  0  0  0  0
M  CHG  1  75   1
M  ISO  4  42 100  61 101  72 100  84 101
M  END
> <Batch ID>
0083

> <Smiles>
CNC(C)C(=O)NC(C(=O)N1Cc2cc([101O:1][101CH2:1]C3=C(C)C(=O)N(c4ccc([100NH:0][100C:0](=O)N5CCCC(n6nc(-c7ccc(Oc8ccc(F)cc8F)cc7)c(C(N)=O)c6N)C5)cc4)C3=O)ccc2CC1C(=O)NC1CCCc2ccccc21)C(C)(C)C

> <Shape>
0.285

> <Color>
0.132

> <Negative vol penalty>
0.000

$$$$

  -OEChem-04052300093D

 85 94  0     1  0  0  0  0  0999 V2000
  -26.8522  -36.3739   21.5521 C   0  0  0  0  0  0  0  0  0  0  0  0
  -27.6733  -35.2510   21.5322 C   0  0  0  0  0  0  0  0  0  0  0  0
  -23.5756   -9.7808   21.9248 C   0  0  0  0  0  0  0  0  0  0  0  0
  -24.4152  -11.1015   23.7654 C   0  0  0  0  0  0  0  0  0  0  0  0
  -25.5077  -36.2468   21.8990 C   0  0  0  0  0  0  0  0  0  0  0  0
  -27.1507  -34.0006   21.8603 C   0  0  0  0  0  0  0  0  0  0  0  0
  -28.7406  -28.5989   19.4519 C   0  0  0  0  0  0  0  0  0  0  0  0
  -31.8003  -19.2535   19.7356 C   0  0  0  0  0  0  0  0  0  0  0  0
  -29.5269  -19.9983   20.0729 C   0  0  0  0  0  0  0  0  0  0  0  0
  -31.3410  -17.9573   19.5020 C   0  0  0  0  0  0  0  0  0  0  0  0
  -29.0676  -18.7021   19.8392 C   0  0  0  0  0  0  0  0  0  0  0  0
  -23.0561   -8.8530   22.8274 C   0  0  0  0  0  0  0  0  0  0  0  0
  -23.8957  -10.1737   24.6681 C   0  0  0  0  0  0  0  0  0  0  0  0
  -29.5967  -27.5908   19.8930 C   0  0  0  0  0  0  0  0  0  0  0  0
  -24.2124   -6.3006   24.7176 C   0  0  0  0  0  0  0  0  0  0  0  0
  -24.4203   -4.9480   24.4474 C   0  0  0  0  0  0  0  0  0  0  0  0
  -27.7140  -26.4119   20.8337 C   0  0  0  0  0  0  0  0  0  0  0  0
  -22.0313   -4.5968   24.3672 C   0  0  0  0  0  0  0  0  0  0  0  0
  -24.2552  -10.9050   22.3937 C   0  0  0  0  0  0  0  0  0  0  0  0
  -24.1442  -13.0000   20.9423 C   0  0  0  0  0  0  0  0  0  0  0  0
  -24.9661  -34.9926   22.2222 C   0  0  0  0  0  0  0  0  0  0  0  0
  -27.3639  -28.5263   19.7084 C   0  0  0  0  0  0  0  0  0  0  0  0
  -25.7981  -33.8568   22.2132 C   0  0  0  0  0  0  0  0  0  0  0  0
  -26.8423  -27.4191   20.3926 C   0  0  0  0  0  0  0  0  0  0  0  0
  -30.8932  -20.2740   20.0212 C   0  0  0  0  0  0  0  0  0  0  0  0
  -29.9747  -17.6816   19.5537 C   0  0  0  0  0  0  0  0  0  0  0  0
  -23.2161   -9.0494   24.1991 C   0  0  0  0  0  0  0  0  0  0  0  0
  -29.0839  -26.4985   20.5865 C   0  0  0  0  0  0  0  0  0  0  0  0
  -22.9139   -6.8012   24.8127 C   0  0  0  0  0  0  0  0  0  0  0  0
  -23.3298   -4.0961   24.2721 C   0  0  0  0  0  0  0  0  0  0  0  0
  -21.8234   -5.9493   24.6375 C   0  0  0  0  0  0  0  0  0  0  0  0
  -24.7926  -11.8635   21.4617 C   0  0  0  0  0  0  0  0  0  0  0  0
  -25.0724  -13.5737   20.1083 C   0  0  0  0  0  0  0  0  0  0  0  0
  -32.6440  -23.3547   20.8624 C   0  0  0  0  0  0  0  0  0  0  0  0
  -31.5044  -23.8504   20.3846 C   0  0  0  0  0  0  0  0  0  0  0  0
  -32.5760  -21.8877   20.8021 C   0  0  0  0  0  0  0  0  0  0  0  0
  -30.6478  -22.7213   19.9730 C   0  0  0  0  0  0  0  0  0  0  0  0
  -22.8211  -13.4929   21.1916 C   0  0  0  0  0  0  0  0  0  0  0  0
  -25.2869  -30.3061   21.3277 C   0  0  0  0  0  0  0  0  0  0  0  0
  -23.1252  -28.2526   20.0499 C   0  0  0  0  0  0  0  0  0  0  0  0
  -22.4879  -25.1763   18.7170 C   0  0  0  0  0  0  0  0  0  0  0  0
  -30.2733  -15.2378   19.0201 C   0  0  0  0  0  0  0  0  0  0  0  0
  -23.5183  -34.9122   22.6367 C   0  0  0  0  0  0  0  0  0  0  0  0
  -26.4503  -29.6089   19.2026 C   0  0  0  0  0  0  0  0  0  0  0  0
  -25.3692  -27.2838   20.6756 C   0  0  0  0  0  0  0  0  0  0  0  0
  -22.9542  -33.4940   22.6075 C   0  0  0  0  0  0  0  0  0  0  0  0
  -29.5036  -11.8161   18.4063 C   0  0  0  0  0  0  0  0  0  0  0  0
  -23.9195  -32.5217   23.2780 C   0  0  0  0  0  0  0  0  0  0  0  0
  -28.1560  -11.6169   19.1038 C   0  0  0  0  0  0  0  0  0  0  0  0
  -30.4126  -12.7625   19.1885 C   0  0  0  0  0  0  0  0  0  0  0  0
  -28.4661  -13.8604   20.2251 C   0  0  0  0  0  0  0  0  0  0  0  0
  -25.2624  -32.4795   22.5388 C   0  0  1  0  0  0  0  0  0  0  0  0
  -25.1330  -29.6851   19.9682 C   0  0  1  0  0  0  0  0  0  0  0  0
  -27.4915  -12.9659   19.4417 C   0  0  2  0  0  0  0  0  0  0  0  0
  -20.6185  -23.7755   17.8001 C   0  0  0  0  0  0  0  0  0  0  0  0
  -22.1172  -27.7465   22.8850 C   0  0  0  0  0  0  0  0  0  0  0  0
  -20.9538  -25.7005   22.0314 C   0  0  0  0  0  0  0  0  0  0  0  0
  -20.3188  -27.9496   21.1591 C   0  0  0  0  0  0  0  0  0  0  0  0
  -23.7895  -24.9666   16.0673 C   0  0  0  0  0  0  0  0  0  0  0  0
  -31.0916  -25.2703   20.2452 C   0  0  0  0  0  0  0  0  0  1  0  0
  -22.5279  -26.9314   20.4699 C   0  0  1  0  0  0  0  0  0  0  0  0
  -21.7328  -24.7561   17.4689 C   0  0  2  0  0  0  0  0  0  0  0  0
  -21.5075  -27.0852   21.6329 C   0  0  0  0  0  0  0  0  0  0  0  0
  -26.0366  -11.7220   20.9964 N   0  0  0  0  0  0  0  0  0  0  0  0
  -26.1772  -12.7769   20.1759 N   0  0  0  0  0  0  0  0  0  0  0  0
  -31.3509  -21.5659   20.2545 N   0  0  0  0  0  0  0  0  0  0  0  0
  -24.5174  -28.3712   20.1662 N   0  0  0  0  0  0  0  0  0  0  0  0
  -29.7179  -14.0209   19.4688 N   0  0  0  0  0  0  0  0  0  0  0  0
  -25.0431  -14.6770   19.3309 N   0  0  0  0  0  0  0  0  0  0  0  0
  -21.9987  -12.7818   22.0760 N   0  0  0  0  0  0  0  0  0  0  0  0
  -29.5078  -16.3650   19.3164 N   0  0  0  0  0  0  0  0  0  0  0  0
  -25.1526  -31.6814   21.3365 N   0  0  0  0  0  0  0  0  0  0  0  0
  -21.9709  -26.3328   19.2616 N   0  0  0  0  0  0  0  0  0  0  0  0
  -22.6579  -24.1058   16.4982 N   0  3  0  0  0  0  0  0  0  0  0  0
  -33.4726  -21.1518   21.1813 O   0  0  0  0  0  0  0  0  0  0  0  0
  -29.5360  -22.8444   19.4845 O   0  0  0  0  0  0  0  0  0  0  0  0
  -22.3754  -14.5242   20.6335 O   0  0  0  0  0  0  0  0  0  0  0  0
  -25.5095  -29.5904   22.2972 O   0  0  0  0  0  0  0  0  0  0  0  0
  -22.3847  -29.1441   19.6274 O   0  0  0  0  0  0  0  0  0  0  0  0
  -23.4388  -24.5401   19.1661 O   0  0  0  0  0  0  0  0  0  0  0  0
  -31.3354  -15.2744   18.3934 O   0  0  0  0  0  0  0  0  0  0  0  0
  -22.7091   -8.1444   25.0802 O   0  0  0  0  0  0  0  0  0  0  0  0
  -29.9173  -25.5134   21.0187 O   0  0  0  0  0  0  0  0  0  1  0  0
  -23.5297   -2.7976   24.0111 F   0  0  0  0  0  0  0  0  0  0  0  0
  -20.5736   -6.4247   24.7265 F   0  0  0  0  0  0  0  0  0  0  0  0
  1  2  1  0  0  0  0
  1  5  2  0  0  0  0
  2  6  2  0  0  0  0
  3 12  2  0  0  0  0
  3 19  1  0  0  0  0
  4 13  1  0  0  0  0
  4 19  2  0  0  0  0
  5 21  1  0  0  0  0
  6 23  1  0  0  0  0
  7 14  2  0  0  0  0
  7 22  1  0  0  0  0
  8 10  2  0  0  0  0
  8 25  1  0  0  0  0
  9 11  1  0  0  0  0
  9 25  2  0  0  0  0
 10 26  1  0  0  0  0
 11 26  2  0  0  0  0
 12 27  1  0  0  0  0
 13 27  2  0  0  0  0
 14 28  1  0  0  0  0
 15 16  2  0  0  0  0
 15 29  1  0  0  0  0
 16 30  1  0  0  0  0
 17 24  1  0  0  0  0
 17 28  2  0  0  0  0
 18 30  2  0  0  0  0
 18 31  1  0  0  0  0
 19 32  1  0  0  0  0
 20 32  1  0  0  0  0
 20 33  2  0  0  0  0
 20 38  1  0  0  0  0
 21 23  2  0  0  0  0
 21 43  1  0  0  0  0
 22 24  2  0  0  0  0
 22 44  1  0  0  0  0
 23 52  1  0  0  0  0
 24 45  1  0  0  0  0
 25 66  1  0  0  0  0
 26 71  1  0  0  0  0
 27 82  1  0  0  0  0
 28 83  1  0  0  0  0
 29 31  2  0  0  0  0
 29 82  1  0  0  0  0
 30 84  1  0  0  0  0
 31 85  1  0  0  0  0
 32 64  2  0  0  0  0
 33 65  1  0  0  0  0
 33 69  1  0  0  0  0
 34 35  2  0  0  0  0
 34 36  1  0  0  0  0
 35 37  1  0  0  0  0
 35 60  1  0  0  0  0
 36 66  1  0  0  0  0
 36 75  2  0  0  0  0
 37 66  1  0  0  0  0
 37 76  2  0  0  0  0
 38 70  1  0  0  0  0
 38 77  2  0  0  0  0
 39 53  1  0  0  0  0
 39 72  1  0  0  0  0
 39 78  2  0  0  0  0
 40 61  1  0  0  0  0
 40 67  1  0  0  0  0
 40 79  2  0  0  0  0
 41 62  1  0  0  0  0
 41 73  1  0  0  0  0
 41 80  2  0  0  0  0
 42 68  1  0  0  0  0
 42 71  1  0  0  0  0
 42 81  2  0  0  0  0
 43 46  1  0  0  0  0
 44 53  1  0  0  0  0
 45 67  1  0  0  0  0
 46 48  1  0  0  0  0
 47 49  1  0  0  0  0
 47 50  1  0  0  0  0
 48 52  1  0  0  0  0
 49 54  1  0  0  0  0
 50 68  1  0  0  0  0
 51 54  1  0  0  0  0
 51 68  1  0  0  0  0
 52 72  1  0  0  0  0
 53 67  1  0  0  0  0
 54 65  1  0  0  0  0
 55 62  1  0  0  0  0
 56 63  1  0  0  0  0
 57 63  1  0  0  0  0
 58 63  1  0  0  0  0
 59 74  1  0  0  0  0
 60 83  1  0  0  0  0
 61 63  1  0  0  0  0
 61 73  1  0  0  0  0
 62 74  1  0  0  0  0
 64 65  1  0  0  0  0
M  CHG  1  74   1
M  ISO  4  42 100  60 101  71 100  83 101
M  END
> <Batch ID>
0083

> <Smiles>
CNC(C)C(=O)NC(C(=O)N1Cc2cc([101O:1][101CH2:1]C3=CC(=O)N(c4ccc([100NH:0][100C:0](=O)N5CCCC(n6nc(-c7ccc(Oc8ccc(F)cc8F)cc7)c(C(N)=O)c6N)C5)cc4)C3=O)ccc2CC1C(=O)NC1CCCc2ccccc21)C(C)(C)C

> <Shape>
0.296

> <Color>
0.133

> <Negative vol penalty>
0.000

$$$$

  -OEChem-04052300093D

 86 95  0     1  0  0  0  0  0999 V2000
  -27.9902  -10.2016   24.3564 C   0  0  0  0  0  0  0  0  0  0  0  0
  -28.5902  -11.3482   23.8457 C   0  0  0  0  0  0  0  0  0  0  0  0
  -32.4364  -27.0225   18.2187 C   0  0  0  0  0  0  0  0  0  0  0  0
  -20.0662  -28.7200   23.6410 C   0  0  0  0  0  0  0  0  0  0  0  0
  -20.8351  -27.0022   22.1260 C   0  0  0  0  0  0  0  0  0  0  0  0
  -26.6983   -9.8572   23.9612 C   0  0  0  0  0  0  0  0  0  0  0  0
  -27.8989  -12.1504   22.9385 C   0  0  0  0  0  0  0  0  0  0  0  0
  -28.1934  -18.2478   22.4473 C   0  0  0  0  0  0  0  0  0  0  0  0
  -32.0982  -25.7498   17.7589 C   0  0  0  0  0  0  0  0  0  0  0  0
  -31.5307  -27.7479   18.9927 C   0  0  0  0  0  0  0  0  0  0  0  0
  -18.7805  -28.6119   23.1111 C   0  0  0  0  0  0  0  0  0  0  0  0
  -19.5493  -26.8941   21.5961 C   0  0  0  0  0  0  0  0  0  0  0  0
  -28.9051  -19.0865   21.5907 C   0  0  0  0  0  0  0  0  0  0  0  0
  -16.3888  -25.9109   20.0919 C   0  0  0  0  0  0  0  0  0  0  0  0
  -15.8752  -24.6298   19.8904 C   0  0  0  0  0  0  0  0  0  0  0  0
  -26.9748  -19.2458   20.1527 C   0  0  0  0  0  0  0  0  0  0  0  0
  -29.9484  -25.9280   18.8470 C   0  0  0  0  0  0  0  0  0  0  0  0
  -16.1007  -24.1681   22.2511 C   0  0  0  0  0  0  0  0  0  0  0  0
  -21.0936  -27.9152   23.1484 C   0  0  0  0  0  0  0  0  0  0  0  0
  -22.8126  -27.8126   25.0305 C   0  0  0  0  0  0  0  0  0  0  0  0
  -25.9872  -10.6608   23.0561 C   0  0  0  0  0  0  0  0  0  0  0  0
  -26.8683  -17.8924   22.1569 C   0  0  0  0  0  0  0  0  0  0  0  0
  -26.5968  -11.8157   22.5298 C   0  0  0  0  0  0  0  0  0  0  0  0
  -26.2477  -18.4045   21.0085 C   0  0  0  0  0  0  0  0  0  0  0  0
  -30.8542  -25.2026   18.0730 C   0  0  0  0  0  0  0  0  0  0  0  0
  -30.2867  -27.2007   19.3068 C   0  0  0  0  0  0  0  0  0  0  0  0
  -18.5220  -27.6990   22.0887 C   0  0  0  0  0  0  0  0  0  0  0  0
  -28.2968  -19.5833   20.4417 C   0  0  0  0  0  0  0  0  0  0  0  0
  -16.7585  -26.3206   21.3730 C   0  0  0  0  0  0  0  0  0  0  0  0
  -15.7311  -23.7584   20.9700 C   0  0  0  0  0  0  0  0  0  0  0  0
  -16.6144  -25.4492   22.4526 C   0  0  0  0  0  0  0  0  0  0  0  0
  -22.4221  -28.0267   23.6950 C   0  0  0  0  0  0  0  0  0  0  0  0
  -24.1667  -28.0427   25.0333 C   0  0  0  0  0  0  0  0  0  0  0  0
  -29.5395  -21.5412   16.3904 C   0  0  0  0  0  0  0  0  0  0  0  0
  -29.1970  -21.7896   17.6611 C   0  0  0  0  0  0  0  0  0  0  0  0
  -30.4143  -22.4033   15.6383 C   0  0  0  0  0  0  0  0  0  0  0  0
  -29.6326  -23.0608   18.3320 C   0  0  0  0  0  0  0  0  0  0  0  0
  -30.5020  -22.3305   14.3019 C   0  0  0  0  0  0  0  0  0  0  0  0
  -22.0221  -27.4389   26.1667 C   0  0  0  0  0  0  0  0  0  0  0  0
  -25.3577  -15.1596   21.5624 C   0  0  0  0  0  0  0  0  0  0  0  0
  -22.7242  -17.0524   21.6294 C   0  0  0  0  0  0  0  0  0  0  0  0
  -21.3906  -20.1743   21.2809 C   0  0  0  0  0  0  0  0  0  0  0  0
  -28.0877  -27.5506   20.5013 C   0  0  0  0  0  0  0  0  0  0  0  0
  -24.6109  -10.2223   22.6222 C   0  0  0  0  0  0  0  0  0  0  0  0
  -26.1056  -17.0082   23.1049 C   0  0  0  0  0  0  0  0  0  0  0  0
  -24.8207  -18.0695   20.6621 C   0  0  0  0  0  0  0  0  0  0  0  0
  -31.2517  -23.3462   16.4484 C   0  0  0  0  0  0  0  0  0  0  0  0
  -23.8050  -11.3275   21.9444 C   0  0  0  0  0  0  0  0  0  0  0  0
  -26.9504  -30.8008   22.1946 C   0  0  0  0  0  0  0  0  0  0  0  0
  -24.6582  -12.0509   20.9073 C   0  0  0  0  0  0  0  0  0  0  0  0
  -26.1853  -30.2152   23.3792 C   0  0  0  0  0  0  0  0  0  0  0  0
  -27.9847  -29.8303   21.6385 C   0  0  0  0  0  0  0  0  0  0  0  0
  -26.0578  -28.2405   21.7621 C   0  0  0  0  0  0  0  0  0  0  0  0
  -25.8698  -12.7247   21.5627 C   0  0  1  0  0  0  0  0  0  0  0  0
  -24.9283  -16.2983   22.4436 C   0  0  1  0  0  0  0  0  0  0  0  0
  -25.8680  -28.7161   23.2110 C   0  0  2  0  0  0  0  0  0  0  0  0
  -19.2031  -21.4018   21.3571 C   0  0  0  0  0  0  0  0  0  0  0  0
  -22.0026  -15.9318   18.8846 C   0  0  0  0  0  0  0  0  0  0  0  0
  -20.3977  -17.8334   18.6074 C   0  0  0  0  0  0  0  0  0  0  0  0
  -20.0685  -16.1841   20.4498 C   0  0  0  0  0  0  0  0  0  0  0  0
  -22.2948  -21.8830   23.5219 C   0  0  0  0  0  0  0  0  0  0  0  0
  -28.3044  -20.8743   18.4443 C   0  0  0  0  0  0  0  0  0  1  0  0
  -21.9588  -17.8558   20.6058 C   0  0  1  0  0  0  0  0  0  0  0  0
  -20.4238  -20.9593   22.1490 C   0  0  2  0  0  0  0  0  0  0  0  0
  -21.1344  -16.9562   19.6421 C   0  0  0  0  0  0  0  0  0  0  0  0
  -23.4453  -28.3669   22.9068 N   0  0  0  0  0  0  0  0  0  0  0  0
  -24.4921  -28.3683   23.7495 N   0  0  0  0  0  0  0  0  0  0  0  0
  -30.5047  -23.8841   17.5968 N   0  0  0  0  0  0  0  0  0  0  0  0
  -24.1188  -17.1961   21.6171 N   0  0  0  0  0  0  0  0  0  0  0  0
  -27.4168  -28.5212   21.2849 N   0  0  0  0  0  0  0  0  0  0  0  0
  -25.0988  -27.9962   26.0087 N   0  0  0  0  0  0  0  0  0  0  0  0
  -21.8564  -26.0756   26.4462 N   0  0  0  0  0  0  0  0  0  0  0  0
  -29.3668  -27.9383   20.0934 N   0  0  0  0  0  0  0  0  0  0  0  0
  -25.4717  -13.9503   22.2213 N   0  0  0  0  0  0  0  0  0  0  0  0
  -21.1587  -18.8172   21.3568 N   0  0  0  0  0  0  0  0  0  0  0  0
  -21.0909  -22.1723   22.7010 N   0  3  0  0  0  0  0  0  0  0  0  0
  -29.2096  -23.2951   19.4648 O   0  0  0  0  0  0  0  0  0  0  0  0
  -21.4652  -28.2886   26.9026 O   0  0  0  0  0  0  0  0  0  0  0  0
  -25.5685  -15.3627   20.3725 O   0  0  0  0  0  0  0  0  0  0  0  0
  -22.1069  -16.3296   22.4156 O   0  0  0  0  0  0  0  0  0  0  0  0
  -22.2618  -20.7116   20.6005 O   0  0  0  0  0  0  0  0  0  0  0  0
  -27.5694  -26.4653   20.2308 O   0  0  0  0  0  0  0  0  0  0  0  0
  -17.2675  -27.5931   21.5715 O   0  0  0  0  0  0  0  0  0  0  0  0
  -28.9894  -20.4017   19.6035 O   0  0  0  0  0  0  0  0  0  1  0  0
  -15.2364  -22.5288   20.7766 F   0  0  0  0  0  0  0  0  0  0  0  0
  -16.9667  -25.8376   23.6858 F   0  0  0  0  0  0  0  0  0  0  0  0
  1  2  1  0  0  0  0
  1  6  2  0  0  0  0
  2  7  2  0  0  0  0
  3  9  2  0  0  0  0
  3 10  1  0  0  0  0
  4 11  2  0  0  0  0
  4 19  1  0  0  0  0
  5 12  1  0  0  0  0
  5 19  2  0  0  0  0
  6 21  1  0  0  0  0
  7 23  1  0  0  0  0
  8 13  2  0  0  0  0
  8 22  1  0  0  0  0
  9 25  1  0  0  0  0
 10 26  2  0  0  0  0
 11 27  1  0  0  0  0
 12 27  2  0  0  0  0
 13 28  1  0  0  0  0
 14 15  2  0  0  0  0
 14 29  1  0  0  0  0
 15 30  1  0  0  0  0
 16 24  1  0  0  0  0
 16 28  2  0  0  0  0
 17 25  2  0  0  0  0
 17 26  1  0  0  0  0
 18 30  2  0  0  0  0
 18 31  1  0  0  0  0
 19 32  1  0  0  0  0
 20 32  1  0  0  0  0
 20 33  2  0  0  0  0
 20 39  1  0  0  0  0
 21 23  2  0  0  0  0
 21 44  1  0  0  0  0
 22 24  2  0  0  0  0
 22 45  1  0  0  0  0
 23 54  1  0  0  0  0
 24 46  1  0  0  0  0
 25 68  1  0  0  0  0
 26 73  1  0  0  0  0
 27 83  1  0  0  0  0
 28 84  1  0  0  0  0
 29 31  2  0  0  0  0
 29 83  1  0  0  0  0
 30 85  1  0  0  0  0
 31 86  1  0  0  0  0
 32 66  2  0  0  0  0
 33 67  1  0  0  0  0
 33 71  1  0  0  0  0
 34 35  2  0  0  0  0
 34 36  1  0  0  0  0
 35 37  1  0  0  0  0
 35 62  1  0  0  0  0
 36 38  2  0  0  0  0
 36 47  1  0  0  0  0
 37 68  1  0  0  0  0
 37 77  2  0  0  0  0
 39 72  1  0  0  0  0
 39 78  2  0  0  0  0
 40 55  1  0  0  0  0
 40 74  1  0  0  0  0
 40 79  2  0  0  0  0
 41 63  1  0  0  0  0
 41 69  1  0  0  0  0
 41 80  2  0  0  0  0
 42 64  1  0  0  0  0
 42 75  1  0  0  0  0
 42 81  2  0  0  0  0
 43 70  1  0  0  0  0
 43 73  1  0  0  0  0
 43 82  2  0  0  0  0
 44 48  1  0  0  0  0
 45 55  1  0  0  0  0
 46 69  1  0  0  0  0
 47 68  1  0  0  0  0
 48 50  1  0  0  0  0
 49 51  1  0  0  0  0
 49 52  1  0  0  0  0
 50 54  1  0  0  0  0
 51 56  1  0  0  0  0
 52 70  1  0  0  0  0
 53 56  1  0  0  0  0
 53 70  1  0  0  0  0
 54 74  1  0  0  0  0
 55 69  1  0  0  0  0
 56 67  1  0  0  0  0
 57 64  1  0  0  0  0
 58 65  1  0  0  0  0
 59 65  1  0  0  0  0
 60 65  1  0  0  0  0
 61 76  1  0  0  0  0
 62 84  1  0  0  0  0
 63 65  1  0  0  0  0
 63 75  1  0  0  0  0
 64 76  1  0  0  0  0
 66 67  1  0  0  0  0
M  CHG  1  76   1
M  ISO  4  43 100  62 101  73 100  84 101
M  END
> <Batch ID>
0083

> <Smiles>
C=C1C=C([101CH2:1][101O:1]c2ccc3c(c2)CN(C(=O)C(NC(=O)C(C)NC)C(C)(C)C)C(C(=O)NC2CCCc4ccccc42)C3)C(=O)N(c2cccc([100NH:0][100C:0](=O)N3CCCC(n4nc(-c5ccc(Oc6ccc(F)cc6F)cc5)c(C(N)=O)c4N)C3)c2)C1

> <Shape>
0.203

> <Color>
0.083

> <Negative vol penalty>
0.000

$$$$

  -OEChem-04052300093D

 84 92  0     1  0  0  0  0  0999 V2000
  -16.8275  -27.5833   20.7841 C   0  0  0  0  0  0  0  0  0  0  0  0
  -17.9918  -26.8227   20.8211 C   0  0  0  0  0  0  0  0  0  0  0  0
  -32.5368  -18.3556   22.1512 C   0  0  0  0  0  0  0  0  0  0  0  0
  -22.9858   -9.9801   19.9414 C   0  0  0  0  0  0  0  0  0  0  0  0
  -23.8506   -9.8165   22.1914 C   0  0  0  0  0  0  0  0  0  0  0  0
  -16.9059  -28.9752   20.7625 C   0  0  0  0  0  0  0  0  0  0  0  0
  -19.2353  -27.4536   20.8355 C   0  0  0  0  0  0  0  0  0  0  0  0
  -22.4030  -25.4266   24.2269 C   0  0  0  0  0  0  0  0  0  0  0  0
  -31.8084  -19.1240   23.0593 C   0  0  0  0  0  0  0  0  0  0  0  0
  -31.9945  -17.1747   21.6442 C   0  0  0  0  0  0  0  0  0  0  0  0
  -22.2304   -8.8258   20.1478 C   0  0  0  0  0  0  0  0  0  0  0  0
  -23.0952   -8.6622   22.3978 C   0  0  0  0  0  0  0  0  0  0  0  0
  -23.0237  -24.2271   23.8809 C   0  0  0  0  0  0  0  0  0  0  0  0
  -23.2911   -5.3816   21.6038 C   0  0  0  0  0  0  0  0  0  0  0  0
  -23.9176   -4.2988   22.2207 C   0  0  0  0  0  0  0  0  0  0  0  0
  -25.0231  -25.4396   23.2882 C   0  0  0  0  0  0  0  0  0  0  0  0
  -29.9955  -17.5305   22.9535 C   0  0  0  0  0  0  0  0  0  0  0  0
  -22.3007   -4.3849   24.0138 C   0  0  0  0  0  0  0  0  0  0  0  0
  -23.7959  -10.4755   20.9632 C   0  0  0  0  0  0  0  0  0  0  0  0
  -24.1842  -12.9965   20.9983 C   0  0  0  0  0  0  0  0  0  0  0  0
  -18.1508  -29.6236   20.7864 C   0  0  0  0  0  0  0  0  0  0  0  0
  -23.0852  -26.6447   24.0955 C   0  0  0  0  0  0  0  0  0  0  0  0
  -19.3304  -28.8555   20.8129 C   0  0  0  0  0  0  0  0  0  0  0  0
  -24.4098  -26.6529   23.6356 C   0  0  0  0  0  0  0  0  0  0  0  0
  -30.5378  -18.7114   23.4605 C   0  0  0  0  0  0  0  0  0  0  0  0
  -30.7239  -16.7621   22.0454 C   0  0  0  0  0  0  0  0  0  0  0  0
  -22.2851   -8.1668   21.3759 C   0  0  0  0  0  0  0  0  0  0  0  0
  -24.3330  -24.2337   23.4088 C   0  0  0  0  0  0  0  0  0  0  0  0
  -22.1694   -5.9661   22.1919 C   0  0  0  0  0  0  0  0  0  0  0  0
  -23.4224   -3.8005   23.4257 C   0  0  0  0  0  0  0  0  0  0  0  0
  -21.6742   -5.4677   23.3969 C   0  0  0  0  0  0  0  0  0  0  0  0
  -24.5768  -11.6675   20.7505 C   0  0  0  0  0  0  0  0  0  0  0  0
  -25.2737  -13.7498   20.6351 C   0  0  0  0  0  0  0  0  0  0  0  0
  -26.7507  -21.5892   23.4795 C   0  0  0  0  0  0  0  0  0  0  0  0
  -26.0808  -22.7146   23.7377 C   0  0  0  0  0  0  0  0  0  1  0  0
  -22.9454  -13.5046   21.5109 C   0  0  0  0  0  0  0  0  0  0  0  0
  -27.9847  -21.2688   24.2446 C   0  0  0  0  0  0  0  0  0  0  0  0
  -22.6433  -29.2906   22.3902 C   0  0  0  0  0  0  0  0  0  0  0  0
  -25.1520  -30.3709   24.1400 C   0  0  0  0  0  0  0  0  0  0  0  0
  -27.9300  -29.6367   25.9814 C   0  0  0  0  0  0  0  0  0  0  0  0
  -30.7627  -14.6848   20.6207 C   0  0  0  0  0  0  0  0  0  0  0  0
  -18.1863  -31.1297   20.7140 C   0  0  0  0  0  0  0  0  0  0  0  0
  -22.4108  -27.9274   24.4982 C   0  0  0  0  0  0  0  0  0  0  0  0
  -25.1927  -27.9319   23.4954 C   0  0  0  0  0  0  0  0  0  0  0  0
  -19.5342  -31.7269   21.1098 C   0  0  0  0  0  0  0  0  0  0  0  0
  -29.4904  -12.4590   18.1501 C   0  0  0  0  0  0  0  0  0  0  0  0
  -20.6723  -30.9757   20.4262 C   0  0  0  0  0  0  0  0  0  0  0  0
  -28.0663  -12.1640   18.6267 C   0  0  0  0  0  0  0  0  0  0  0  0
  -30.4645  -12.5888   19.3197 C   0  0  0  0  0  0  0  0  0  0  0  0
  -28.6387  -13.2502   20.8357 C   0  0  0  0  0  0  0  0  0  0  0  0
  -20.6973  -29.5035   20.8545 C   0  0  1  0  0  0  0  0  0  0  0  0
  -23.0243  -29.1581   23.8376 C   0  0  1  0  0  0  0  0  0  0  0  0
  -27.6092  -13.1752   19.6963 C   0  0  2  0  0  0  0  0  0  0  0  0
  -29.4205  -18.7818   25.7274 C   0  0  0  0  0  0  0  0  0  0  0  0
  -29.7976  -30.7309   27.2510 C   0  0  0  0  0  0  0  0  0  0  0  0
  -26.5180  -31.0883   21.5076 C   0  0  0  0  0  0  0  0  0  0  0  0
  -28.6789  -31.2703   22.7589 C   0  0  0  0  0  0  0  0  0  0  0  0
  -26.7834  -32.7922   23.3189 C   0  0  0  0  0  0  0  0  0  0  0  0
  -27.1133  -28.3513   28.5191 C   0  0  0  0  0  0  0  0  0  0  0  0
  -29.7479  -19.5455   24.4459 C   0  0  2  0  0  0  0  0  0  0  0  0
  -26.6530  -30.3553   23.9795 C   0  0  1  0  0  0  0  0  0  0  0  0
  -28.4012  -30.1346   27.3358 C   0  0  2  0  0  0  0  0  0  0  0  0
  -27.1432  -31.3524   22.8919 C   0  0  0  0  0  0  0  0  0  0  0  0
  -25.8188  -11.5784   20.2671 N   0  0  0  0  0  0  0  0  0  0  0  0
  -26.2160  -12.8609   20.2082 N   0  0  0  0  0  0  0  0  0  0  0  0
  -24.4874  -29.1606   23.8960 N   0  0  0  0  0  0  0  0  0  0  0  0
  -29.9681  -13.5667   20.2903 N   0  0  0  0  0  0  0  0  0  0  0  0
  -25.5082  -15.0793   20.6425 N   0  0  0  0  0  0  0  0  0  0  0  0
  -21.9314  -12.5924   21.8335 N   0  0  0  0  0  0  0  0  0  0  0  0
  -30.1731  -15.5628   21.5296 N   0  0  0  0  0  0  0  0  0  0  0  0
  -28.5438  -20.0676   23.8437 N   0  0  0  0  0  0  0  0  0  0  0  0
  -21.2812  -29.3703   22.1720 N   0  0  0  0  0  0  0  0  0  0  0  0
  -27.2080  -30.5983   25.3067 N   0  0  0  0  0  0  0  0  0  0  0  0
  -28.4273  -29.0148   28.3189 N   0  3  0  0  0  0  0  0  0  0  0  0
  -22.7376  -14.7324   21.6625 O   0  0  0  0  0  0  0  0  0  0  0  0
  -28.4275  -22.0023   25.1228 O   0  0  0  0  0  0  0  0  0  0  0  0
  -23.5204  -29.3199   21.5349 O   0  0  0  0  0  0  0  0  0  0  0  0
  -24.5907  -31.4164   24.4766 O   0  0  0  0  0  0  0  0  0  0  0  0
  -28.1807  -28.5089   25.5621 O   0  0  0  0  0  0  0  0  0  0  0  0
  -31.8723  -14.8653   20.1126 O   0  0  0  0  0  0  0  0  0  0  0  0
  -21.5480   -7.0406   21.5777 O   0  0  0  0  0  0  0  0  0  0  0  0
  -24.9409  -23.0644   23.0698 O   0  0  0  0  0  0  0  0  0  1  0  0
  -24.0233   -2.7597   24.0172 F   0  0  0  0  0  0  0  0  0  0  0  0
  -20.5962   -6.0244   23.9661 F   0  0  0  0  0  0  0  0  0  0  0  0
  1  2  1  0  0  0  0
  1  6  2  0  0  0  0
  2  7  2  0  0  0  0
  3  9  2  0  0  0  0
  3 10  1  0  0  0  0
  4 11  2  0  0  0  0
  4 19  1  0  0  0  0
  5 12  1  0  0  0  0
  5 19  2  0  0  0  0
  6 21  1  0  0  0  0
  7 23  1  0  0  0  0
  8 13  2  0  0  0  0
  8 22  1  0  0  0  0
  9 25  1  0  0  0  0
 10 26  2  0  0  0  0
 11 27  1  0  0  0  0
 12 27  2  0  0  0  0
 13 28  1  0  0  0  0
 14 15  2  0  0  0  0
 14 29  1  0  0  0  0
 15 30  1  0  0  0  0
 16 24  1  0  0  0  0
 16 28  2  0  0  0  0
 17 25  2  0  0  0  0
 17 26  1  0  0  0  0
 18 30  2  0  0  0  0
 18 31  1  0  0  0  0
 19 32  1  0  0  0  0
 20 32  1  0  0  0  0
 20 33  2  0  0  0  0
 20 36  1  0  0  0  0
 21 23  2  0  0  0  0
 21 42  1  0  0  0  0
 22 24  2  0  0  0  0
 22 43  1  0  0  0  0
 23 51  1  0  0  0  0
 24 44  1  0  0  0  0
 25 60  1  0  0  0  0
 26 70  1  0  0  0  0
 27 81  1  0  0  0  0
 28 82  1  0  0  0  0
 29 31  2  0  0  0  0
 29 81  1  0  0  0  0
 30 83  1  0  0  0  0
 31 84  1  0  0  0  0
 32 64  2  0  0  0  0
 33 65  1  0  0  0  0
 33 68  1  0  0  0  0
 34 35  2  0  0  0  0
 34 37  1  0  0  0  0
 35 82  1  0  0  0  0
 36 69  1  0  0  0  0
 36 75  2  0  0  0  0
 37 71  1  0  0  0  0
 37 76  2  0  0  0  0
 38 52  1  0  0  0  0
 38 72  1  0  0  0  0
 38 77  2  0  0  0  0
 39 61  1  0  0  0  0
 39 66  1  0  0  0  0
 39 78  2  0  0  0  0
 40 62  1  0  0  0  0
 40 73  1  0  0  0  0
 40 79  2  0  0  0  0
 41 67  1  0  0  0  0
 41 70  1  0  0  0  0
 41 80  2  0  0  0  0
 42 45  1  0  0  0  0
 43 52  1  0  0  0  0
 44 66  1  0  0  0  0
 45 47  1  0  0  0  0
 46 48  1  0  0  0  0
 46 49  1  0  0  0  0
 47 51  1  0  0  0  0
 48 53  1  0  0  0  0
 49 67  1  0  0  0  0
 50 53  1  0  0  0  0
 50 67  1  0  0  0  0
 51 72  1  0  0  0  0
 52 66  1  0  0  0  0
 53 65  1  0  0  0  0
 54 60  1  0  0  0  0
 55 62  1  0  0  0  0
 56 63  1  0  0  0  0
 57 63  1  0  0  0  0
 58 63  1  0  0  0  0
 59 74  1  0  0  0  0
 60 71  1  0  0  0  0
 61 63  1  0  0  0  0
 61 73  1  0  0  0  0
 62 74  1  0  0  0  0
 64 65  1  0  0  0  0
M  CHG  1  74   1
M  ISO  4  35 101  41 100  70 100  82 101
M  END
> <Batch ID>
0083

> <Smiles>
CNC(C)C(=O)NC(C(=O)N1Cc2cc([101O:1][101CH:1]=CC(=O)NC(C)c3cccc([100NH:0][100C:0](=O)N4CCCC(n5nc(-c6ccc(Oc7ccc(F)cc7F)cc6)c(C(N)=O)c5N)C4)c3)ccc2CC1C(=O)NC1CCCc2ccccc21)C(C)(C)C

> <Shape>
0.288

> <Color>
0.218

> <Negative vol penalty>
0.000

$$$$

  -OEChem-04052300093D

 96106  0     1  0  0  0  0  0999 V2000
  -30.6504  -22.9836   14.8687 C   0  0  0  0  0  0  0  0  0  0  0  0
  -30.0550  -22.6640   16.0848 C   0  0  0  0  0  0  0  0  0  0  0  0
  -22.2931   -7.7125   20.8820 C   0  0  0  0  0  0  0  0  0  0  0  0
  -28.2194  -17.4740   20.1423 C   0  0  0  0  0  0  0  0  0  0  0  0
  -30.0788  -16.9383   18.6956 C   0  0  0  0  0  0  0  0  0  0  0  0
  -20.8332  -15.9304   21.4650 C   0  0  0  0  0  0  0  0  0  0  0  0
  -23.2180  -15.5495   21.3973 C   0  0  0  0  0  0  0  0  0  0  0  0
  -23.5002   -7.5233   21.5547 C   0  0  0  0  0  0  0  0  0  0  0  0
  -31.0857  -24.2861   14.6280 C   0  0  0  0  0  0  0  0  0  0  0  0
  -29.8957  -23.6465   17.0614 C   0  0  0  0  0  0  0  0  0  0  0  0
  -25.3016  -23.5437   19.1893 C   0  0  0  0  0  0  0  0  0  0  0  0
  -21.7872   -9.0005   20.7058 C   0  0  0  0  0  0  0  0  0  0  0  0
  -21.0565  -17.2852   21.7102 C   0  0  0  0  0  0  0  0  0  0  0  0
  -23.4414  -16.9044   21.6424 C   0  0  0  0  0  0  0  0  0  0  0  0
  -28.5527  -18.8264   20.0700 C   0  0  0  0  0  0  0  0  0  0  0  0
  -30.4121  -18.2909   18.6233 C   0  0  0  0  0  0  0  0  0  0  0  0
  -25.0667  -22.5610   20.1500 C   0  0  0  0  0  0  0  0  0  0  0  0
  -30.8186  -20.9109   21.4647 C   0  0  0  0  0  0  0  0  0  0  0  0
  -30.8193  -21.6419   22.6527 C   0  0  0  0  0  0  0  0  0  0  0  0
  -23.6956   -9.9099   21.8754 C   0  0  0  0  0  0  0  0  0  0  0  0
  -25.4320  -24.1870   21.8940 C   0  0  0  0  0  0  0  0  0  0  0  0
  -29.1314  -23.1146   21.7474 C   0  0  0  0  0  0  0  0  0  0  0  0
  -28.9825  -16.5299   19.4551 C   0  0  0  0  0  0  0  0  0  0  0  0
  -21.9139  -15.0625   21.3086 C   0  0  0  0  0  0  0  0  0  0  0  0
  -24.2015   -8.6220   22.0515 C   0  0  0  0  0  0  0  0  0  0  0  0
  -27.7716  -14.4236   18.6774 C   0  0  0  0  0  0  0  0  0  0  0  0
  -30.9229  -25.2873   15.5985 C   0  0  0  0  0  0  0  0  0  0  0  0
  -25.6147  -24.8552   19.5745 C   0  0  0  0  0  0  0  0  0  0  0  0
  -30.3306  -24.9633   16.8340 C   0  0  0  0  0  0  0  0  0  0  0  0
  -25.6679  -25.1851   20.9363 C   0  0  0  0  0  0  0  0  0  0  0  0
  -22.4885  -10.0992   21.2026 C   0  0  0  0  0  0  0  0  0  0  0  0
  -22.3606  -17.7722   21.7989 C   0  0  0  0  0  0  0  0  0  0  0  0
  -29.6491  -19.2349   19.3105 C   0  0  0  0  0  0  0  0  0  0  0  0
  -25.1347  -22.8819   21.5026 C   0  0  0  0  0  0  0  0  0  0  0  0
  -29.9745  -21.2818   20.4180 C   0  0  0  0  0  0  0  0  0  0  0  0
  -29.9756  -22.7437   22.7940 C   0  0  0  0  0  0  0  0  0  0  0  0
  -29.1309  -22.3836   20.5594 C   0  0  0  0  0  0  0  0  0  0  0  0
  -28.6390  -15.1325   19.5299 C   0  0  0  0  0  0  0  0  0  0  0  0
  -27.7832  -13.1400   19.1660 C   0  0  0  0  0  0  0  0  0  0  0  0
  -20.6301  -13.1481   20.4071 C   0  0  0  0  0  0  0  0  0  0  0  0
  -21.6820  -13.6497   21.0519 C   0  0  0  0  0  0  0  0  0  0  0  0
  -20.7886  -11.6801   20.3694 C   0  0  0  0  0  0  0  0  0  0  0  0
  -25.4870   -8.4189   22.7678 C   0  0  0  0  0  0  0  0  0  0  0  0
  -27.0226  -14.8840   17.5449 C   0  0  0  0  0  0  0  0  0  0  0  0
  -28.1172  -26.7738   19.1740 C   0  0  0  0  0  0  0  0  0  0  0  0
  -26.1729  -28.9592   20.5761 C   0  0  0  0  0  0  0  0  0  0  0  0
  -23.5004  -29.5797   22.6059 C   0  0  0  0  0  0  0  0  0  0  0  0
  -23.8118  -19.7985   22.1556 C   0  0  0  0  0  0  0  0  0  0  0  0
  -27.6249   -9.5177   23.3555 C   0  0  0  0  0  0  0  0  0  0  0  0
  -31.4522  -26.6700   15.3108 C   0  0  0  0  0  0  0  0  0  0  0  0
  -25.8391  -25.9099   18.5259 C   0  0  0  0  0  0  0  0  0  0  0  0
  -25.9803  -26.5830   21.4019 C   0  0  0  0  0  0  0  0  0  0  0  0
  -22.6287  -12.5890   21.5003 C   0  0  0  0  0  0  0  0  0  0  0  0
  -30.9070  -27.7393   16.2540 C   0  0  0  0  0  0  0  0  0  0  0  0
  -30.7706  -10.9554   22.6240 C   0  0  0  0  0  0  0  0  0  0  0  0
  -30.9763  -27.2606   17.7007 C   0  0  0  0  0  0  0  0  0  0  0  0
  -30.4290  -12.1086   21.6765 C   0  0  0  0  0  0  0  0  0  0  0  0
  -29.7196  -10.7922   23.7212 C   0  0  0  0  0  0  0  0  0  0  0  0
  -27.9970  -11.8310   22.3030 C   0  0  0  0  0  0  0  0  0  0  0  0
  -30.1177  -26.0071   17.9088 C   0  0  1  0  0  0  0  0  0  0  0  0
  -26.6558  -27.0939   19.0344 C   0  0  1  0  0  0  0  0  0  0  0  0
  -28.9885  -11.9915   21.1392 C   0  0  1  0  0  0  0  0  0  0  0  0
  -22.1741  -31.4665   23.5948 C   0  0  0  0  0  0  0  0  0  0  0  0
  -22.9265  -21.5378   23.7528 C   0  0  0  0  0  0  0  0  0  0  0  0
  -28.4101  -29.4753   22.5857 C   0  0  0  0  0  0  0  0  0  0  0  0
  -26.7323  -30.6116   24.0562 C   0  0  0  0  0  0  0  0  0  0  0  0
  -27.2274  -31.5304   21.7906 C   0  0  0  0  0  0  0  0  0  0  0  0
  -21.0186  -28.6954   21.2578 C   0  0  0  0  0  0  0  0  0  0  0  0
  -25.8978  -29.3900   21.9966 C   0  0  1  0  0  0  0  0  0  0  0  0
  -22.2965  -30.4888   22.4365 C   0  0  2  0  0  0  0  0  0  0  0  0
  -23.6285  -21.2897   22.4258 C   0  0  1  0  0  0  0  0  0  1  0  0
  -27.0629  -30.2249   22.5988 C   0  0  0  0  0  0  0  0  0  0  0  0
  -29.1633  -14.3633   20.4877 N   0  0  0  0  0  0  0  0  0  0  0  0
  -28.6238  -13.1576   20.2400 N   0  0  0  0  0  0  0  0  0  0  0  0
  -21.9846  -11.3821   21.0267 N   0  0  0  0  0  0  0  0  0  0  0  0
  -26.1981  -27.5776   20.3386 N   0  0  0  0  0  0  0  0  0  0  0  0
  -28.3852  -10.6784   23.1298 N   0  0  0  0  0  0  0  0  0  0  0  0
  -27.1562  -12.0093   18.7776 N   0  0  0  0  0  0  0  0  0  0  0  0
  -27.1258  -16.2331   17.1793 N   0  0  0  0  0  0  0  0  0  0  0  0
  -22.5876  -19.1472   22.0456 N   0  0  0  0  0  0  0  0  0  0  0  0
  -26.3823   -9.4874   22.7128 N   0  0  0  0  0  0  0  0  0  0  0  0
  -28.7178  -26.3627   17.9994 N   0  0  0  0  0  0  0  0  0  0  0  0
  -24.6154  -30.0851   21.9712 N   0  0  0  0  0  0  0  0  0  0  0  0
  -21.0447  -29.6831   22.3672 N   0  3  0  0  0  0  0  0  0  0  0  0
  -19.9878  -10.9227   19.8457 O   0  0  0  0  0  0  0  0  0  0  0  0
  -25.6700   -7.3720   23.3828 O   0  0  0  0  0  0  0  0  0  0  0  0
  -26.2709  -14.1254   16.8869 O   0  0  0  0  0  0  0  0  0  0  0  0
  -28.6600  -26.8924   20.2662 O   0  0  0  0  0  0  0  0  0  0  0  0
  -26.3514  -29.8170   19.7078 O   0  0  0  0  0  0  0  0  0  0  0  0
  -23.4571  -28.5284   23.2410 O   0  0  0  0  0  0  0  0  0  0  0  0
  -24.9302  -19.3047   22.0441 O   0  0  0  0  0  0  0  0  0  0  0  0
  -28.0327   -8.5732   24.0389 O   0  0  0  0  0  0  0  0  0  0  0  0
  -29.9745  -20.5546   19.2395 O   0  0  0  0  0  0  0  0  0  0  0  0
  -24.9065  -21.9244   22.4423 O   0  0  0  0  0  0  0  0  0  1  0  0
  -29.9752  -23.4446   23.9355 F   0  0  0  0  0  0  0  0  0  0  0  0
  -28.3168  -22.7440   19.5578 F   0  0  0  0  0  0  0  0  0  0  0  0
  1  2  1  0  0  0  0
  1  9  2  0  0  0  0
  2 10  2  0  0  0  0
  3  8  1  0  0  0  0
  3 12  2  0  0  0  0
  4 15  2  0  0  0  0
  4 23  1  0  0  0  0
  5 16  1  0  0  0  0
  5 23  2  0  0  0  0
  6 13  2  0  0  0  0
  6 24  1  0  0  0  0
  7 14  1  0  0  0  0
  7 24  2  0  0  0  0
  8 25  2  0  0  0  0
  9 27  1  0  0  0  0
 10 29  1  0  0  0  0
 11 17  2  0  0  0  0
 11 28  1  0  0  0  0
 12 31  1  0  0  0  0
 13 32  1  0  0  0  0
 14 32  2  0  0  0  0
 15 33  1  0  0  0  0
 16 33  2  0  0  0  0
 17 34  1  0  0  0  0
 18 19  2  0  0  0  0
 18 35  1  0  0  0  0
 19 36  1  0  0  0  0
 20 25  1  0  0  0  0
 20 31  2  0  0  0  0
 21 30  1  0  0  0  0
 21 34  2  0  0  0  0
 22 36  2  0  0  0  0
 22 37  1  0  0  0  0
 23 38  1  0  0  0  0
 24 41  1  0  0  0  0
 25 43  1  0  0  0  0
 26 38  1  0  0  0  0
 26 39  2  0  0  0  0
 26 44  1  0  0  0  0
 27 29  2  0  0  0  0
 27 50  1  0  0  0  0
 28 30  2  0  0  0  0
 28 51  1  0  0  0  0
 29 60  1  0  0  0  0
 30 52  1  0  0  0  0
 31 75  1  0  0  0  0
 32 80  1  0  0  0  0
 33 93  1  0  0  0  0
 34 94  1  0  0  0  0
 35 37  2  0  0  0  0
 35 93  1  0  0  0  0
 36 95  1  0  0  0  0
 37 96  1  0  0  0  0
 38 73  2  0  0  0  0
 39 74  1  0  0  0  0
 39 78  1  0  0  0  0
 40 41  2  0  0  0  0
 40 42  1  0  0  0  0
 41 53  1  0  0  0  0
 42 75  1  0  0  0  0
 42 85  2  0  0  0  0
 43 81  1  0  0  0  0
 43 86  2  0  0  0  0
 44 79  1  0  0  0  0
 44 87  2  0  0  0  0
 45 61  1  0  0  0  0
 45 82  1  0  0  0  0
 45 88  2  0  0  0  0
 46 69  1  0  0  0  0
 46 76  1  0  0  0  0
 46 89  2  0  0  0  0
 47 70  1  0  0  0  0
 47 83  1  0  0  0  0
 47 90  2  0  0  0  0
 48 71  1  0  0  0  0
 48 80  1  0  0  0  0
 48 91  2  0  0  0  0
 49 77  1  0  0  0  0
 49 81  1  0  0  0  0
 49 92  2  0  0  0  0
 50 54  1  0  0  0  0
 51 61  1  0  0  0  0
 52 76  1  0  0  0  0
 53 75  1  0  0  0  0
 54 56  1  0  0  0  0
 55 57  1  0  0  0  0
 55 58  1  0  0  0  0
 56 60  1  0  0  0  0
 57 62  1  0  0  0  0
 58 77  1  0  0  0  0
 59 62  1  0  0  0  0
 59 77  1  0  0  0  0
 60 82  1  0  0  0  0
 61 76  1  0  0  0  0
 62 74  1  0  0  0  0
 63 70  1  0  0  0  0
 64 71  1  0  0  0  0
 65 72  1  0  0  0  0
 66 72  1  0  0  0  0
 67 72  1  0  0  0  0
 68 84  1  0  0  0  0
 69 72  1  0  0  0  0
 69 83  1  0  0  0  0
 70 84  1  0  0  0  0
 71 94  1  0  0  0  0
 73 74  1  0  0  0  0
M  CHG  1  84   1
M  ISO  4  49 100  71 101  81 100  94 101
M  END
> <Batch ID>
0083

> <Smiles>
CNC(C)C(=O)NC(C(=O)N1Cc2cc([101O:1][101CH:1](C)C(=O)Nc3ccc(C4=CC(=O)N(c5cccc(C(=O)[100NH:0][100C:0](=O)N6CCCC(n7nc(-c8ccc(Oc9ccc(F)cc9F)cc8)c(C(N)=O)c7N)C6)c5)C4)cc3)ccc2CC1C(=O)NC1CCCc2ccccc21)C(C)(C)C

> <Shape>
0.260

> <Color>
0.069

> <Negative vol penalty>
0.000

$$$$

  -OEChem-04052300093D

 83 92  0     1  0  0  0  0  0999 V2000
  -27.3675  -37.7450   23.8656 C   0  0  0  0  0  0  0  0  0  0  0  0
  -27.9570  -36.8019   23.0298 C   0  0  0  0  0  0  0  0  0  0  0  0
  -24.1813   -9.2922   22.1889 C   0  0  0  0  0  0  0  0  0  0  0  0
  -22.9180  -11.2744   21.6302 C   0  0  0  0  0  0  0  0  0  0  0  0
  -26.4797  -37.3357   24.8597 C   0  0  0  0  0  0  0  0  0  0  0  0
  -27.6598  -35.4488   23.1884 C   0  0  0  0  0  0  0  0  0  0  0  0
  -26.9126  -29.4156   19.3992 C   0  0  0  0  0  0  0  0  0  0  0  0
  -26.2945  -19.4048   19.1182 C   0  0  0  0  0  0  0  0  0  0  0  0
  -28.5717  -19.7743   19.8357 C   0  0  0  0  0  0  0  0  0  0  0  0
  -26.5615  -18.0437   18.9714 C   0  0  0  0  0  0  0  0  0  0  0  0
  -28.8387  -18.4131   19.6889 C   0  0  0  0  0  0  0  0  0  0  0  0
  -23.3114   -9.0365   23.2488 C   0  0  0  0  0  0  0  0  0  0  0  0
  -22.0480  -11.0187   22.6901 C   0  0  0  0  0  0  0  0  0  0  0  0
  -27.3666  -28.0976   19.3719 C   0  0  0  0  0  0  0  0  0  0  0  0
  -20.2207   -7.7332   23.6758 C   0  0  0  0  0  0  0  0  0  0  0  0
  -19.7640   -6.4253   23.8385 C   0  0  0  0  0  0  0  0  0  0  0  0
  -25.7575  -27.5145   21.0718 C   0  0  0  0  0  0  0  0  0  0  0  0
  -20.7524   -6.3542   26.0419 C   0  0  0  0  0  0  0  0  0  0  0  0
  -23.9846  -10.4112   21.3796 C   0  0  0  0  0  0  0  0  0  0  0  0
  -24.7619  -10.2248   18.9571 C   0  0  0  0  0  0  0  0  0  0  0  0
  -26.1641  -35.9778   25.0243 C   0  0  0  0  0  0  0  0  0  0  0  0
  -25.8833  -29.7959   20.2723 C   0  0  0  0  0  0  0  0  0  0  0  0
  -26.7680  -35.0208   24.1865 C   0  0  0  0  0  0  0  0  0  0  0  0
  -25.2905  -28.8373   21.1065 C   0  0  0  0  0  0  0  0  0  0  0  0
  -27.2996  -20.2701   19.5503 C   0  0  0  0  0  0  0  0  0  0  0  0
  -27.8336  -17.5478   19.2568 C   0  0  0  0  0  0  0  0  0  0  0  0
  -22.2447   -9.8997   23.4994 C   0  0  0  0  0  0  0  0  0  0  0  0
  -26.7910  -27.1475   20.2103 C   0  0  0  0  0  0  0  0  0  0  0  0
  -20.9434   -8.3516   24.6961 C   0  0  0  0  0  0  0  0  0  0  0  0
  -20.0298   -5.7359   25.0215 C   0  0  0  0  0  0  0  0  0  0  0  0
  -21.2091   -7.6621   25.8792 C   0  0  0  0  0  0  0  0  0  0  0  0
  -24.8833  -10.6762   20.2849 C   0  0  0  0  0  0  0  0  0  0  0  0
  -25.8596  -10.7447   18.3159 C   0  0  0  0  0  0  0  0  0  0  0  0
  -26.6631  -23.5750   19.8063 C   0  0  0  0  0  0  0  0  0  0  0  0
  -25.9191  -22.3542   19.4940 C   0  0  0  0  0  0  0  0  0  0  0  0
  -26.3384  -24.8794   19.8614 C   0  0  0  0  0  0  0  0  0  1  0  0
  -23.7475   -9.4085   18.3568 C   0  0  0  0  0  0  0  0  0  0  0  0
  -25.6404  -31.8305   22.7024 C   0  0  0  0  0  0  0  0  0  0  0  0
  -22.5040  -31.0140   22.5646 C   0  0  0  0  0  0  0  0  0  0  0  0
  -20.1433  -28.7267   21.6470 C   0  0  0  0  0  0  0  0  0  0  0  0
  -29.3128  -15.5107   19.3485 C   0  0  0  0  0  0  0  0  0  0  0  0
  -25.2352  -35.5790   26.1436 C   0  0  0  0  0  0  0  0  0  0  0  0
  -25.3867  -31.2157   20.2705 C   0  0  0  0  0  0  0  0  0  0  0  0
  -24.1687  -29.1900   22.0476 C   0  0  0  0  0  0  0  0  0  0  0  0
  -27.8996  -22.7333   20.0236 C   0  0  0  0  0  0  0  0  0  0  0  0
  -24.6852  -34.1619   26.0029 C   0  0  0  0  0  0  0  0  0  0  0  0
  -30.3734  -12.1185   19.1363 C   0  0  0  0  0  0  0  0  0  0  0  0
  -25.8053  -33.1867   25.6545 C   0  0  0  0  0  0  0  0  0  0  0  0
  -29.0741  -11.3227   19.2798 C   0  0  0  0  0  0  0  0  0  0  0  0
  -30.3747  -13.3661   20.0178 C   0  0  0  0  0  0  0  0  0  0  0  0
  -27.9128  -13.4513   19.9922 C   0  0  0  0  0  0  0  0  0  0  0  0
  -26.4518  -33.5462   24.3113 C   0  0  1  0  0  0  0  0  0  0  0  0
  -24.6826  -31.6040   21.5670 C   0  0  1  0  0  0  0  0  0  0  0  0
  -27.8380  -12.2202   19.0743 C   0  0  2  0  0  0  0  0  0  0  0  0
  -17.6672  -28.3223   21.6989 C   0  0  0  0  0  0  0  0  0  0  0  0
  -22.6801  -30.3319   25.5334 C   0  0  0  0  0  0  0  0  0  0  0  0
  -20.5291  -29.0722   25.3002 C   0  0  0  0  0  0  0  0  0  0  0  0
  -20.5889  -31.5268   24.8597 C   0  0  0  0  0  0  0  0  0  0  0  0
  -19.9827  -28.6134   18.6940 C   0  0  0  0  0  0  0  0  0  0  0  0
  -21.6492  -29.9432   23.1984 C   0  0  1  0  0  0  0  0  0  0  0  0
  -18.8330  -28.8776   20.8956 C   0  0  2  0  0  0  0  0  0  0  0  0
  -21.3843  -30.2120   24.7067 C   0  0  0  0  0  0  0  0  0  0  0  0
  -25.9723  -11.4252   20.4774 N   0  0  0  0  0  0  0  0  0  0  0  0
  -26.5453  -11.4483   19.2620 N   0  0  0  0  0  0  0  0  0  0  0  0
  -27.0365  -21.6126   19.6947 N   0  0  0  0  0  0  0  0  0  0  0  0
  -23.7225  -30.5926   22.0136 N   0  0  0  0  0  0  0  0  0  0  0  0
  -29.1767  -14.1697   19.7656 N   0  0  0  0  0  0  0  0  0  0  0  0
  -26.2957  -10.6641   17.0409 N   0  0  0  0  0  0  0  0  0  0  0  0
  -22.6896   -8.9596   19.1591 N   0  0  0  0  0  0  0  0  0  0  0  0
  -28.1052  -16.1651   19.1078 N   0  0  0  0  0  0  0  0  0  0  0  0
  -25.6125  -33.1135   23.2146 N   0  0  0  0  0  0  0  0  0  0  0  0
  -20.4406  -29.8519   22.3864 N   0  0  0  0  0  0  0  0  0  0  0  0
  -18.8952  -28.1526   19.5950 N   0  3  0  0  0  0  0  0  0  0  0  0
  -24.7764  -22.1020   19.1729 O   0  0  0  0  0  0  0  0  0  0  0  0
  -23.7869   -9.0732   17.1487 O   0  0  0  0  0  0  0  0  0  0  0  0
  -26.3510  -30.9089   23.0863 O   0  0  0  0  0  0  0  0  0  0  0  0
  -22.1021  -32.1802   22.5523 O   0  0  0  0  0  0  0  0  0  0  0  0
  -20.8322  -27.7106   21.5873 O   0  0  0  0  0  0  0  0  0  0  0  0
  -30.4198  -16.0313   19.1885 O   0  0  0  0  0  0  0  0  0  0  0  0
  -21.3955   -9.6504   24.5334 O   0  0  0  0  0  0  0  0  0  0  0  0
  -27.2327  -25.8606   20.1862 O   0  0  0  0  0  0  0  0  0  1  0  0
  -19.5898   -4.4805   25.1782 F   0  0  0  0  0  0  0  0  0  0  0  0
  -21.9018   -8.2514   26.8635 F   0  0  0  0  0  0  0  0  0  0  0  0
  1  2  1  0  0  0  0
  1  5  2  0  0  0  0
  2  6  2  0  0  0  0
  3 12  2  0  0  0  0
  3 19  1  0  0  0  0
  4 13  1  0  0  0  0
  4 19  2  0  0  0  0
  5 21  1  0  0  0  0
  6 23  1  0  0  0  0
  7 14  2  0  0  0  0
  7 22  1  0  0  0  0
  8 10  2  0  0  0  0
  8 25  1  0  0  0  0
  9 11  1  0  0  0  0
  9 25  2  0  0  0  0
 10 26  1  0  0  0  0
 11 26  2  0  0  0  0
 12 27  1  0  0  0  0
 13 27  2  0  0  0  0
 14 28  1  0  0  0  0
 15 16  2  0  0  0  0
 15 29  1  0  0  0  0
 16 30  1  0  0  0  0
 17 24  1  0  0  0  0
 17 28  2  0  0  0  0
 18 30  2  0  0  0  0
 18 31  1  0  0  0  0
 19 32  1  0  0  0  0
 20 32  1  0  0  0  0
 20 33  2  0  0  0  0
 20 37  1  0  0  0  0
 21 23  2  0  0  0  0
 21 42  1  0  0  0  0
 22 24  2  0  0  0  0
 22 43  1  0  0  0  0
 23 52  1  0  0  0  0
 24 44  1  0  0  0  0
 25 65  1  0  0  0  0
 26 70  1  0  0  0  0
 27 80  1  0  0  0  0
 28 81  1  0  0  0  0
 29 31  2  0  0  0  0
 29 80  1  0  0  0  0
 30 82  1  0  0  0  0
 31 83  1  0  0  0  0
 32 63  2  0  0  0  0
 33 64  1  0  0  0  0
 33 68  1  0  0  0  0
 34 35  1  0  0  0  0
 34 36  2  0  0  0  0
 34 45  1  0  0  0  0
 35 65  1  0  0  0  0
 35 74  2  0  0  0  0
 36 81  1  0  0  0  0
 37 69  1  0  0  0  0
 37 75  2  0  0  0  0
 38 53  1  0  0  0  0
 38 71  1  0  0  0  0
 38 76  2  0  0  0  0
 39 60  1  0  0  0  0
 39 66  1  0  0  0  0
 39 77  2  0  0  0  0
 40 61  1  0  0  0  0
 40 72  1  0  0  0  0
 40 78  2  0  0  0  0
 41 67  1  0  0  0  0
 41 70  1  0  0  0  0
 41 79  2  0  0  0  0
 42 46  1  0  0  0  0
 43 53  1  0  0  0  0
 44 66  1  0  0  0  0
 45 65  1  0  0  0  0
 46 48  1  0  0  0  0
 47 49  1  0  0  0  0
 47 50  1  0  0  0  0
 48 52  1  0  0  0  0
 49 54  1  0  0  0  0
 50 67  1  0  0  0  0
 51 54  1  0  0  0  0
 51 67  1  0  0  0  0
 52 71  1  0  0  0  0
 53 66  1  0  0  0  0
 54 64  1  0  0  0  0
 55 61  1  0  0  0  0
 56 62  1  0  0  0  0
 57 62  1  0  0  0  0
 58 62  1  0  0  0  0
 59 73  1  0  0  0  0
 60 62  1  0  0  0  0
 60 72  1  0  0  0  0
 61 73  1  0  0  0  0
 63 64  1  0  0  0  0
M  CHG  1  73   1
M  ISO  4  36 101  41 100  70 100  81 101
M  END
> <Batch ID>
0083

> <Smiles>
CNC(C)C(=O)NC(C(=O)N1Cc2cc([101O:1][101CH:1]=C3CN(c4ccc([100NH:0][100C:0](=O)N5CCCC(n6nc(-c7ccc(Oc8ccc(F)cc8F)cc7)c(C(N)=O)c6N)C5)cc4)C3=O)ccc2CC1C(=O)NC1CCCc2ccccc21)C(C)(C)C

> <Shape>
0.292

> <Color>
0.088

> <Negative vol penalty>
0.000

$$$$

  -OEChem-04052300093D

 78 86  0     1  0  0  0  0  0999 V2000
  -25.1333  -38.0959   26.9546 C   0  0  0  0  0  0  0  0  0  0  0  0
  -24.7782  -36.8395   27.4350 C   0  0  0  0  0  0  0  0  0  0  0  0
  -25.8537  -14.0713   19.5329 C   0  0  0  0  0  0  0  0  0  0  0  0
  -24.3255  -14.0507   21.4041 C   0  0  0  0  0  0  0  0  0  0  0  0
  -25.1773  -38.3288   25.5807 C   0  0  0  0  0  0  0  0  0  0  0  0
  -24.4658  -35.8155   26.5415 C   0  0  0  0  0  0  0  0  0  0  0  0
  -25.6359  -29.8438   27.2309 C   0  0  0  0  0  0  0  0  0  0  0  0
  -26.0391  -12.6956   19.6692 C   0  0  0  0  0  0  0  0  0  0  0  0
  -24.5109  -12.6749   21.5403 C   0  0  0  0  0  0  0  0  0  0  0  0
  -24.8469  -28.7765   27.6578 C   0  0  0  0  0  0  0  0  0  0  0  0
  -23.4129   -9.8545   20.0370 C   0  0  0  0  0  0  0  0  0  0  0  0
  -22.2791   -9.0653   20.2298 C   0  0  0  0  0  0  0  0  0  0  0  0
  -24.3549  -28.2291   25.3606 C   0  0  0  0  0  0  0  0  0  0  0  0
  -24.5150  -22.7933   25.8279 C   0  0  0  0  0  0  0  0  0  0  0  0
  -23.1662   -8.3078   22.3456 C   0  0  0  0  0  0  0  0  0  0  0  0
  -23.4727  -20.7623   26.2649 C   0  0  0  0  0  0  0  0  0  0  0  0
  -24.9970  -14.7489   20.4005 C   0  0  0  0  0  0  0  0  0  0  0  0
  -23.8364  -16.8243   19.4766 C   0  0  0  0  0  0  0  0  0  0  0  0
  -24.8747  -37.3044   24.6698 C   0  0  0  0  0  0  0  0  0  0  0  0
  -25.7818  -30.1188   25.8636 C   0  0  0  0  0  0  0  0  0  0  0  0
  -24.5045  -36.0353   25.1541 C   0  0  0  0  0  0  0  0  0  0  0  0
  -25.1484  -29.2989   24.9188 C   0  0  0  0  0  0  0  0  0  0  0  0
  -24.5211  -21.3834   25.6225 C   0  0  0  0  0  0  0  0  0  0  0  0
  -25.3677  -11.9974   20.6728 C   0  0  0  0  0  0  0  0  0  0  0  0
  -24.2040  -27.9708   26.7227 C   0  0  0  0  0  0  0  0  0  0  0  0
  -24.4235   -9.8703   20.9984 C   0  0  0  0  0  0  0  0  0  0  0  0
  -22.1557   -8.2919   21.3841 C   0  0  0  0  0  0  0  0  0  0  0  0
  -24.3001   -9.0969   22.1527 C   0  0  0  0  0  0  0  0  0  0  0  0
  -24.8055  -16.1702   20.2606 C   0  0  0  0  0  0  0  0  0  0  0  0
  -23.4618  -23.1962   26.6193 C   0  0  0  0  0  0  0  0  0  0  0  0
  -24.0718  -18.1614   19.6847 C   0  0  0  0  0  0  0  0  0  0  0  0
  -23.1107  -24.5577   27.0575 C   0  0  0  0  0  0  0  0  0  0  0  0
  -23.7770  -25.6711   26.7275 C   0  0  0  0  0  0  0  0  0  1  0  0
  -22.8147  -16.2726   18.6355 C   0  0  0  0  0  0  0  0  0  0  0  0
  -25.0613  -32.5761   23.9805 C   0  0  0  0  0  0  0  0  0  0  0  0
  -26.6501  -30.8331   21.7535 C   0  0  0  0  0  0  0  0  0  0  0  0
  -27.7260  -27.7714   20.6974 C   0  0  0  0  0  0  0  0  0  0  0  0
  -26.5726  -21.2165   24.1699 C   0  0  0  0  0  0  0  0  0  0  0  0
  -24.8900  -37.6170   23.1944 C   0  0  0  0  0  0  0  0  0  0  0  0
  -26.6579  -31.2575   25.4186 C   0  0  0  0  0  0  0  0  0  0  0  0
  -25.2892  -29.5396   23.4387 C   0  0  0  0  0  0  0  0  0  0  0  0
  -24.9085  -36.3739   22.3086 C   0  0  0  0  0  0  0  0  0  0  0  0
  -27.5963  -21.2203   20.7597 C   0  0  0  0  0  0  0  0  0  0  0  0
  -23.8744  -35.3607   22.7890 C   0  0  0  0  0  0  0  0  0  0  0  0
  -26.9037  -19.9886   20.1719 C   0  0  0  0  0  0  0  0  0  0  0  0
  -28.0614  -20.9786   22.1946 C   0  0  0  0  0  0  0  0  0  0  0  0
  -26.3303  -19.2566   22.5219 C   0  0  0  0  0  0  0  0  0  0  0  0
  -24.1828  -34.8921   24.2162 C   0  0  1  0  0  0  0  0  0  0  0  0
  -26.3212  -31.7582   24.0174 C   0  0  1  0  0  0  0  0  0  0  0  0
  -25.7864  -19.4735   21.1004 C   0  0  2  0  0  0  0  0  0  0  0  0
  -28.9670  -26.6589   18.8213 C   0  0  0  0  0  0  0  0  0  0  0  0
  -24.1882  -31.0988   19.9707 C   0  0  0  0  0  0  0  0  0  0  0  0
  -25.0865  -29.2280   18.5702 C   0  0  0  0  0  0  0  0  0  0  0  0
  -26.3718  -31.3556   18.7790 C   0  0  0  0  0  0  0  0  0  0  0  0
  -29.8400  -26.7915   22.5222 C   0  0  0  0  0  0  0  0  0  0  0  0
  -26.2635  -29.7746   20.7489 C   0  0  1  0  0  0  0  0  0  0  0  0
  -29.0784  -27.2963   20.1976 C   0  0  2  0  0  0  0  0  0  0  0  0
  -25.4731  -30.3606   19.5451 C   0  0  0  0  0  0  0  0  0  0  0  0
  -25.5977  -17.0215   20.9176 N   0  0  0  0  0  0  0  0  0  0  0  0
  -25.1267  -18.2244   20.5468 N   0  0  0  0  0  0  0  0  0  0  0  0
  -26.1515  -30.6690   23.0536 N   0  0  0  0  0  0  0  0  0  0  0  0
  -26.9494  -20.4963   23.0166 N   0  0  0  0  0  0  0  0  0  0  0  0
  -23.4773  -19.2776   19.2124 N   0  0  0  0  0  0  0  0  0  0  0  0
  -22.7122  -14.8784   18.5354 N   0  0  0  0  0  0  0  0  0  0  0  0
  -25.4815  -20.6807   24.8533 N   0  0  0  0  0  0  0  0  0  0  0  0
  -25.2590  -33.9245   24.2090 N   0  0  0  0  0  0  0  0  0  0  0  0
  -27.4991  -29.0934   20.3778 N   0  0  0  0  0  0  0  0  0  0  0  0
  -29.6535  -26.2914   21.1358 N   0  3  0  0  0  0  0  0  0  0  0  0
  -22.0267  -16.9948   17.9788 O   0  0  0  0  0  0  0  0  0  0  0  0
  -23.9894  -32.0249   23.7596 O   0  0  0  0  0  0  0  0  0  0  0  0
  -27.3739  -31.7672   21.3995 O   0  0  0  0  0  0  0  0  0  0  0  0
  -26.9472  -27.0417   21.3069 O   0  0  0  0  0  0  0  0  0  0  0  0
  -27.1562  -22.2488   24.5099 O   0  0  0  0  0  0  0  0  0  0  0  0
  -25.5482  -10.6549   20.8059 O   0  0  0  0  0  0  0  0  0  0  0  0
  -23.4327  -26.9288   27.1367 O   0  0  0  0  0  0  0  0  0  1  0  0
  -21.0661   -7.5353   21.5699 F   0  0  0  0  0  0  0  0  0  0  0  0
  -25.2670   -9.1089   23.0804 F   0  0  0  0  0  0  0  0  0  0  0  0
  -22.4866  -21.8774   27.1113 S   0  0  0  0  0  0  0  0  0  0  0  0
  1  2  1  0  0  0  0
  1  5  2  0  0  0  0
  2  6  2  0  0  0  0
  3  8  2  0  0  0  0
  3 17  1  0  0  0  0
  4  9  1  0  0  0  0
  4 17  2  0  0  0  0
  5 19  1  0  0  0  0
  6 21  1  0  0  0  0
  7 10  2  0  0  0  0
  7 20  1  0  0  0  0
  8 24  1  0  0  0  0
  9 24  2  0  0  0  0
 10 25  1  0  0  0  0
 11 12  2  0  0  0  0
 11 26  1  0  0  0  0
 12 27  1  0  0  0  0
 13 22  1  0  0  0  0
 13 25  2  0  0  0  0
 14 23  1  0  0  0  0
 14 30  2  0  0  0  0
 15 27  2  0  0  0  0
 15 28  1  0  0  0  0
 16 23  2  0  0  0  0
 16 78  1  0  0  0  0
 17 29  1  0  0  0  0
 18 29  1  0  0  0  0
 18 31  2  0  0  0  0
 18 34  1  0  0  0  0
 19 21  2  0  0  0  0
 19 39  1  0  0  0  0
 20 22  2  0  0  0  0
 20 40  1  0  0  0  0
 21 48  1  0  0  0  0
 22 41  1  0  0  0  0
 23 65  1  0  0  0  0
 24 74  1  0  0  0  0
 25 75  1  0  0  0  0
 26 28  2  0  0  0  0
 26 74  1  0  0  0  0
 27 76  1  0  0  0  0
 28 77  1  0  0  0  0
 29 59  2  0  0  0  0
 30 32  1  0  0  0  0
 30 78  1  0  0  0  0
 31 60  1  0  0  0  0
 31 63  1  0  0  0  0
 32 33  2  0  0  0  0
 33 75  1  0  0  0  0
 34 64  1  0  0  0  0
 34 69  2  0  0  0  0
 35 49  1  0  0  0  0
 35 66  1  0  0  0  0
 35 70  2  0  0  0  0
 36 56  1  0  0  0  0
 36 61  1  0  0  0  0
 36 71  2  0  0  0  0
 37 57  1  0  0  0  0
 37 67  1  0  0  0  0
 37 72  2  0  0  0  0
 38 62  1  0  0  0  0
 38 65  1  0  0  0  0
 38 73  2  0  0  0  0
 39 42  1  0  0  0  0
 40 49  1  0  0  0  0
 41 61  1  0  0  0  0
 42 44  1  0  0  0  0
 43 45  1  0  0  0  0
 43 46  1  0  0  0  0
 44 48  1  0  0  0  0
 45 50  1  0  0  0  0
 46 62  1  0  0  0  0
 47 50  1  0  0  0  0
 47 62  1  0  0  0  0
 48 66  1  0  0  0  0
 49 61  1  0  0  0  0
 50 60  1  0  0  0  0
 51 57  1  0  0  0  0
 52 58  1  0  0  0  0
 53 58  1  0  0  0  0
 54 58  1  0  0  0  0
 55 68  1  0  0  0  0
 56 58  1  0  0  0  0
 56 67  1  0  0  0  0
 57 68  1  0  0  0  0
 59 60  1  0  0  0  0
M  CHG  1  68   1
M  ISO  4  33 101  38 100  65 100  75 101
M  END
> <Batch ID>
0083

> <Smiles>
CNC(C)C(=O)NC(C(=O)N1Cc2cc([101O:1][101CH:1]=Cc3cc([100NH:0][100C:0](=O)N4CCCC(n5nc(-c6ccc(Oc7ccc(F)cc7F)cc6)c(C(N)=O)c5N)C4)cs3)ccc2CC1C(=O)NC1CCCc2ccccc21)C(C)(C)C

> <Shape>
0.234

> <Color>
0.071

> <Negative vol penalty>
0.000

$$$$

  -OEChem-04052300093D

 83 92  0     1  0  0  0  0  0999 V2000
  -31.7061  -34.3265   22.3121 C   0  0  0  0  0  0  0  0  0  0  0  0
  -31.4129  -33.0942   21.7367 C   0  0  0  0  0  0  0  0  0  0  0  0
  -23.4334  -18.2740   16.2350 C   0  0  0  0  0  0  0  0  0  0  0  0
  -24.6694   -9.1822   21.8871 C   0  0  0  0  0  0  0  0  0  0  0  0
  -23.1915  -10.0101   20.1645 C   0  0  0  0  0  0  0  0  0  0  0  0
  -31.0048  -34.7528   23.4392 C   0  0  0  0  0  0  0  0  0  0  0  0
  -30.4190  -32.2870   22.2889 C   0  0  0  0  0  0  0  0  0  0  0  0
  -26.5819  -28.5883   19.2719 C   0  0  0  0  0  0  0  0  0  0  0  0
  -23.5500  -19.5998   16.6524 C   0  0  0  0  0  0  0  0  0  0  0  0
  -24.2991  -17.3046   16.7414 C   0  0  0  0  0  0  0  0  0  0  0  0
  -23.5839   -8.5931   22.5354 C   0  0  0  0  0  0  0  0  0  0  0  0
  -22.1059   -9.4210   20.8127 C   0  0  0  0  0  0  0  0  0  0  0  0
  -26.5986  -27.2154   19.0298 C   0  0  0  0  0  0  0  0  0  0  0  0
  -21.6893   -5.8131   22.1963 C   0  0  0  0  0  0  0  0  0  0  0  0
  -21.8422   -4.5064   22.6597 C   0  0  0  0  0  0  0  0  0  0  0  0
  -25.1507  -26.8692   20.9279 C   0  0  0  0  0  0  0  0  0  0  0  0
  -25.3983  -18.9869   18.0826 C   0  0  0  0  0  0  0  0  0  0  0  0
  -21.4064   -5.2554   24.9150 C   0  0  0  0  0  0  0  0  0  0  0  0
  -24.4732   -9.8908   20.7017 C   0  0  0  0  0  0  0  0  0  0  0  0
  -26.4150   -9.9179   19.0476 C   0  0  0  0  0  0  0  0  0  0  0  0
  -29.9951  -33.9547   23.9997 C   0  0  0  0  0  0  0  0  0  0  0  0
  -25.8571  -29.1118   20.3521 C   0  0  0  0  0  0  0  0  0  0  0  0
  -29.7044  -32.7025   23.4254 C   0  0  0  0  0  0  0  0  0  0  0  0
  -25.1244  -28.2494   21.1800 C   0  0  0  0  0  0  0  0  0  0  0  0
  -24.5324  -19.9562   17.5762 C   0  0  0  0  0  0  0  0  0  0  0  0
  -25.2816  -17.6610   17.6652 C   0  0  0  0  0  0  0  0  0  0  0  0
  -22.3021   -8.7125   21.9982 C   0  0  0  0  0  0  0  0  0  0  0  0
  -25.8853  -26.3553   19.8596 C   0  0  0  0  0  0  0  0  0  0  0  0
  -21.3950   -6.8410   23.0921 C   0  0  0  0  0  0  0  0  0  0  0  0
  -21.7007   -4.2276   24.0191 C   0  0  0  0  0  0  0  0  0  0  0  0
  -21.2535   -6.5621   24.4515 C   0  0  0  0  0  0  0  0  0  0  0  0
  -25.5941  -10.5000   20.0320 C   0  0  0  0  0  0  0  0  0  0  0  0
  -27.3255  -10.8980   18.7363 C   0  0  0  0  0  0  0  0  0  0  0  0
  -24.8600  -23.1857   18.5014 C   0  0  0  0  0  0  0  0  0  0  0  0
  -23.9577  -22.3879   17.6702 C   0  0  0  0  0  0  0  0  0  0  0  0
  -24.9417  -24.4943   18.8027 C   0  0  0  0  0  0  0  0  0  1  0  0
  -26.3595   -8.6084   18.4664 C   0  0  0  0  0  0  0  0  0  0  0  0
  -26.6060  -30.7398   22.9775 C   0  0  0  0  0  0  0  0  0  0  0  0
  -23.3853  -30.8884   23.3340 C   0  0  0  0  0  0  0  0  0  0  0  0
  -20.3281  -29.5406   22.6384 C   0  0  0  0  0  0  0  0  0  0  0  0
  -27.1899  -16.8607   19.1019 C   0  0  0  0  0  0  0  0  0  0  0  0
  -29.2968  -34.4369   25.2465 C   0  0  0  0  0  0  0  0  0  0  0  0
  -25.8276  -30.5977   20.5838 C   0  0  0  0  0  0  0  0  0  0  0  0
  -24.3139  -28.7631   22.3409 C   0  0  0  0  0  0  0  0  0  0  0  0
  -25.6178  -21.9232   18.8428 C   0  0  0  0  0  0  0  0  0  0  0  0
  -28.0011  -33.6879   25.5473 C   0  0  0  0  0  0  0  0  0  0  0  0
  -29.5494  -14.6858   20.6445 C   0  0  0  0  0  0  0  0  0  0  0  0
  -28.2106  -32.1831   25.4115 C   0  0  0  0  0  0  0  0  0  0  0  0
  -28.8803  -13.3116   20.5675 C   0  0  0  0  0  0  0  0  0  0  0  0
  -28.5338  -15.7976   20.9016 C   0  0  0  0  0  0  0  0  0  0  0  0
  -26.7308  -14.4564   19.8919 C   0  0  0  0  0  0  0  0  0  0  0  0
  -28.6161  -31.8095   23.9806 C   0  0  1  0  0  0  0  0  0  0  0  0
  -25.4720  -30.9717   22.0194 C   0  0  1  0  0  0  0  0  0  0  0  0
  -27.7056  -13.3120   19.5696 C   0  0  2  0  0  0  0  0  0  0  0  0
  -17.8826  -29.8610   23.1011 C   0  0  0  0  0  0  0  0  0  0  0  0
  -23.7683  -29.7449   26.1368 C   0  0  0  0  0  0  0  0  0  0  0  0
  -21.3237  -29.2058   26.1754 C   0  0  0  0  0  0  0  0  0  0  0  0
  -22.0732  -31.5771   25.9802 C   0  0  0  0  0  0  0  0  0  0  0  0
  -19.7168  -29.9249   19.7683 C   0  0  0  0  0  0  0  0  0  0  0  0
  -22.3427  -30.0252   24.0025 C   0  0  1  0  0  0  0  0  0  0  0  0
  -19.0342  -30.1728   22.1581 C   0  0  2  0  0  0  0  0  0  0  0  0
  -22.3937  -30.1281   25.5531 C   0  0  0  0  0  0  0  0  0  0  0  0
  -25.9515  -11.7527   20.3267 N   0  0  0  0  0  0  0  0  0  0  0  0
  -27.0072  -11.9659   19.5228 N   0  0  0  0  0  0  0  0  0  0  0  0
  -24.6466  -21.2638   17.9878 N   0  0  0  0  0  0  0  0  0  0  0  0
  -24.3218  -30.2231   22.5301 N   0  0  0  0  0  0  0  0  0  0  0  0
  -27.4526  -15.7383   19.9155 N   0  0  0  0  0  0  0  0  0  0  0  0
  -28.3594  -10.9420   17.8694 N   0  0  0  0  0  0  0  0  0  0  0  0
  -25.3605   -7.7265   18.9007 N   0  0  0  0  0  0  0  0  0  0  0  0
  -26.1607  -16.6758   18.1793 N   0  0  0  0  0  0  0  0  0  0  0  0
  -27.4606  -31.8177   23.1093 N   0  0  0  0  0  0  0  0  0  0  0  0
  -21.0611  -30.4083   23.4201 N   0  0  0  0  0  0  0  0  0  0  0  0
  -18.6819  -29.6652   20.8020 N   0  3  0  0  0  0  0  0  0  0  0  0
  -22.9957  -22.6276   16.9706 O   0  0  0  0  0  0  0  0  0  0  0  0
  -27.1819   -8.2258   17.5999 O   0  0  0  0  0  0  0  0  0  0  0  0
  -26.6981  -29.6631   23.5555 O   0  0  0  0  0  0  0  0  0  0  0  0
  -23.3651  -32.1088   23.5126 O   0  0  0  0  0  0  0  0  0  0  0  0
  -20.6541  -28.3907   22.3519 O   0  0  0  0  0  0  0  0  0  0  0  0
  -27.8488  -17.8994   19.1967 O   0  0  0  0  0  0  0  0  0  0  0  0
  -21.2427   -8.1376   22.6303 O   0  0  0  0  0  0  0  0  0  0  0  0
  -25.9004  -25.0148   19.6260 O   0  0  0  0  0  0  0  0  0  1  0  0
  -21.8461   -2.9725   24.4639 F   0  0  0  0  0  0  0  0  0  0  0  0
  -20.9696   -7.5452   25.3168 F   0  0  0  0  0  0  0  0  0  0  0  0
  1  2  1  0  0  0  0
  1  6  2  0  0  0  0
  2  7  2  0  0  0  0
  3  9  2  0  0  0  0
  3 10  1  0  0  0  0
  4 11  2  0  0  0  0
  4 19  1  0  0  0  0
  5 12  1  0  0  0  0
  5 19  2  0  0  0  0
  6 21  1  0  0  0  0
  7 23  1  0  0  0  0
  8 13  2  0  0  0  0
  8 22  1  0  0  0  0
  9 25  1  0  0  0  0
 10 26  2  0  0  0  0
 11 27  1  0  0  0  0
 12 27  2  0  0  0  0
 13 28  1  0  0  0  0
 14 15  2  0  0  0  0
 14 29  1  0  0  0  0
 15 30  1  0  0  0  0
 16 24  1  0  0  0  0
 16 28  2  0  0  0  0
 17 25  2  0  0  0  0
 17 26  1  0  0  0  0
 18 30  2  0  0  0  0
 18 31  1  0  0  0  0
 19 32  1  0  0  0  0
 20 32  1  0  0  0  0
 20 33  2  0  0  0  0
 20 37  1  0  0  0  0
 21 23  2  0  0  0  0
 21 42  1  0  0  0  0
 22 24  2  0  0  0  0
 22 43  1  0  0  0  0
 23 52  1  0  0  0  0
 24 44  1  0  0  0  0
 25 65  1  0  0  0  0
 26 70  1  0  0  0  0
 27 80  1  0  0  0  0
 28 81  1  0  0  0  0
 29 31  2  0  0  0  0
 29 80  1  0  0  0  0
 30 82  1  0  0  0  0
 31 83  1  0  0  0  0
 32 63  2  0  0  0  0
 33 64  1  0  0  0  0
 33 68  1  0  0  0  0
 34 35  1  0  0  0  0
 34 36  2  0  0  0  0
 34 45  1  0  0  0  0
 35 65  1  0  0  0  0
 35 74  2  0  0  0  0
 36 81  1  0  0  0  0
 37 69  1  0  0  0  0
 37 75  2  0  0  0  0
 38 53  1  0  0  0  0
 38 71  1  0  0  0  0
 38 76  2  0  0  0  0
 39 60  1  0  0  0  0
 39 66  1  0  0  0  0
 39 77  2  0  0  0  0
 40 61  1  0  0  0  0
 40 72  1  0  0  0  0
 40 78  2  0  0  0  0
 41 67  1  0  0  0  0
 41 70  1  0  0  0  0
 41 79  2  0  0  0  0
 42 46  1  0  0  0  0
 43 53  1  0  0  0  0
 44 66  1  0  0  0  0
 45 65  1  0  0  0  0
 46 48  1  0  0  0  0
 47 49  1  0  0  0  0
 47 50  1  0  0  0  0
 48 52  1  0  0  0  0
 49 54  1  0  0  0  0
 50 67  1  0  0  0  0
 51 54  1  0  0  0  0
 51 67  1  0  0  0  0
 52 71  1  0  0  0  0
 53 66  1  0  0  0  0
 54 64  1  0  0  0  0
 55 61  1  0  0  0  0
 56 62  1  0  0  0  0
 57 62  1  0  0  0  0
 58 62  1  0  0  0  0
 59 73  1  0  0  0  0
 60 62  1  0  0  0  0
 60 72  1  0  0  0  0
 61 73  1  0  0  0  0
 63 64  1  0  0  0  0
M  CHG  1  73   1
M  ISO  4  36 101  41 100  70 100  81 101
M  END
> <Batch ID>
0083

> <Smiles>
CNC(C)C(=O)NC(C(=O)N1Cc2cc([101O:1][101CH:1]=C3CN(c4cccc([100NH:0][100C:0](=O)N5CCCC(n6nc(-c7ccc(Oc8ccc(F)cc8F)cc7)c(C(N)=O)c6N)C5)c4)C3=O)ccc2CC1C(=O)NC1CCCc2ccccc21)C(C)(C)C

> <Shape>
0.244

> <Color>
0.100

> <Negative vol penalty>
0.000

$$$$

  -OEChem-04052300093D

 85 94  0     1  0  0  0  0  0999 V2000
  -26.6712   -5.6813   40.2704 C   0  0  0  0  0  0  0  0  0  0  0  0
  -26.5794   -6.5255   39.1684 C   0  0  0  0  0  0  0  0  0  0  0  0
  -23.1234   -9.8593   19.9105 C   0  0  0  0  0  0  0  0  0  0  0  0
  -23.7769   -9.8823   22.2364 C   0  0  0  0  0  0  0  0  0  0  0  0
  -27.8710   -5.0277   40.5484 C   0  0  0  0  0  0  0  0  0  0  0  0
  -27.6878   -6.7176   38.3445 C   0  0  0  0  0  0  0  0  0  0  0  0
  -27.6619   -7.5902   32.2828 C   0  0  0  0  0  0  0  0  0  0  0  0
  -29.4571  -14.4073   25.5234 C   0  0  0  0  0  0  0  0  0  0  0  0
  -29.6699  -12.4015   24.1936 C   0  0  0  0  0  0  0  0  0  0  0  0
  -29.8596  -15.1747   24.4304 C   0  0  0  0  0  0  0  0  0  0  0  0
  -30.0724  -13.1689   23.1005 C   0  0  0  0  0  0  0  0  0  0  0  0
  -22.3572   -8.7161   20.1371 C   0  0  0  0  0  0  0  0  0  0  0  0
  -23.0105   -8.7390   22.4630 C   0  0  0  0  0  0  0  0  0  0  0  0
  -27.7451   -8.7412   31.5005 C   0  0  0  0  0  0  0  0  0  0  0  0
  -20.9384   -6.0350   23.7330 C   0  0  0  0  0  0  0  0  0  0  0  0
  -20.1286   -6.0107   24.8684 C   0  0  0  0  0  0  0  0  0  0  0  0
  -30.1204   -8.3972   31.2578 C   0  0  0  0  0  0  0  0  0  0  0  0
  -18.9388   -7.9524   24.0614 C   0  0  0  0  0  0  0  0  0  0  0  0
  -23.8333  -10.4424   20.9602 C   0  0  0  0  0  0  0  0  0  0  0  0
  -24.2060  -12.9628   20.8316 C   0  0  0  0  0  0  0  0  0  0  0  0
  -28.9918   -5.2044   39.7218 C   0  0  0  0  0  0  0  0  0  0  0  0
  -28.8110   -6.8388   32.5680 C   0  0  0  0  0  0  0  0  0  0  0  0
  -28.9041   -6.0669   38.6124 C   0  0  0  0  0  0  0  0  0  0  0  0
  -30.0486   -7.2356   32.0418 C   0  0  0  0  0  0  0  0  0  0  0  0
  -29.3623  -13.0207   25.4050 C   0  0  0  0  0  0  0  0  0  0  0  0
  -30.1673  -14.5556   23.2190 C   0  0  0  0  0  0  0  0  0  0  0  0
  -22.3007   -8.1559   21.4133 C   0  0  0  0  0  0  0  0  0  0  0  0
  -28.9750   -9.1465   30.9902 C   0  0  0  0  0  0  0  0  0  0  0  0
  -20.7485   -7.0181   22.7618 C   0  0  0  0  0  0  0  0  0  0  0  0
  -19.1287   -6.9694   25.0326 C   0  0  0  0  0  0  0  0  0  0  0  0
  -19.7487   -7.9768   22.9260 C   0  0  0  0  0  0  0  0  0  0  0  0
  -24.6255  -11.6231   20.7267 C   0  0  0  0  0  0  0  0  0  0  0  0
  -25.3213  -13.6979   20.5118 C   0  0  0  0  0  0  0  0  0  0  0  0
  -28.6059  -12.6802   27.8055 C   0  0  0  0  0  0  0  0  0  0  0  0
  -28.3792  -11.3911   28.1509 C   0  0  0  0  0  0  0  0  0  0  0  0
  -28.7536  -10.9711   26.7756 C   0  0  0  0  0  0  0  0  0  0  0  0
  -31.0773  -17.4838   21.1206 C   0  0  0  0  0  0  0  0  0  0  0  0
  -30.6939  -16.7315   22.1544 C   0  0  0  0  0  0  0  0  0  0  0  0
  -22.9228  -13.4951   21.1863 C   0  0  0  0  0  0  0  0  0  0  0  0
  -30.3715   -6.0463   35.2214 C   0  0  0  0  0  0  0  0  0  0  0  0
  -32.1273   -4.2345   33.1825 C   0  0  0  0  0  0  0  0  0  0  0  0
  -33.2284   -3.6994   29.9969 C   0  0  0  0  0  0  0  0  0  0  0  0
  -30.7356  -14.7191   20.8225 C   0  0  0  0  0  0  0  0  0  0  0  0
  -30.2811   -4.5135   40.0896 C   0  0  0  0  0  0  0  0  0  0  0  0
  -28.7000   -5.5849   33.3913 C   0  0  0  0  0  0  0  0  0  0  0  0
  -31.3087   -6.4526   32.3020 C   0  0  0  0  0  0  0  0  0  0  0  0
  -31.2992   -4.4786   38.9528 C   0  0  0  0  0  0  0  0  0  0  0  0
  -29.7425  -12.2924   18.5174 C   0  0  0  0  0  0  0  0  0  0  0  0
  -31.4140   -5.8509   38.2966 C   0  0  0  0  0  0  0  0  0  0  0  0
  -28.2897  -12.0005   18.8917 C   0  0  0  0  0  0  0  0  0  0  0  0
  -30.6013  -12.4789   19.7630 C   0  0  0  0  0  0  0  0  0  0  0  0
  -28.6516  -13.2682   21.0665 C   0  0  0  0  0  0  0  0  0  0  0  0
  -30.0773   -6.2815   37.6808 C   0  0  1  0  0  0  0  0  0  0  0  0
  -30.0178   -5.1808   34.0451 C   0  0  1  0  0  0  0  0  0  0  0  0
  -27.7364  -13.0787   19.8401 C   0  0  2  0  0  0  0  0  0  0  0  0
  -34.6817   -2.1620   28.6471 C   0  0  0  0  0  0  0  0  0  0  0  0
  -34.6130   -5.5999   34.3081 C   0  0  0  0  0  0  0  0  0  0  0  0
  -35.8881   -4.7589   32.3244 C   0  0  0  0  0  0  0  0  0  0  0  0
  -34.8585   -3.1415   33.9202 C   0  0  0  0  0  0  0  0  0  0  0  0
  -30.9553   -2.8490   28.3032 C   0  0  0  0  0  0  0  0  0  0  0  0
  -27.9132  -10.6142   29.4494 C   0  0  0  0  0  0  0  0  0  1  0  0
  -33.3705   -4.4562   32.3552 C   0  0  1  0  0  0  0  0  0  0  0  0
  -33.2723   -2.4445   29.1438 C   0  0  2  0  0  0  0  0  0  0  0  0
  -34.6593   -4.5051   33.2235 C   0  0  0  0  0  0  0  0  0  0  0  0
  -25.9073  -11.5108   20.3682 N   0  0  0  0  0  0  0  0  0  0  0  0
  -26.3027  -12.7893   20.2450 N   0  0  0  0  0  0  0  0  0  0  0  0
  -28.9683  -12.2685   26.4761 N   0  0  0  0  0  0  0  0  0  0  0  0
  -31.1496   -5.2374   33.1177 N   0  0  0  0  0  0  0  0  0  0  0  0
  -30.0402  -13.5072   20.6400 N   0  0  0  0  0  0  0  0  0  0  0  0
  -25.5483  -15.0265   20.4357 N   0  0  0  0  0  0  0  0  0  0  0  0
  -21.8873  -12.5993   21.4853 N   0  0  0  0  0  0  0  0  0  0  0  0
  -29.8570   -5.5995   36.4235 N   0  0  0  0  0  0  0  0  0  0  0  0
  -33.3751   -3.4111   31.3373 N   0  0  0  0  0  0  0  0  0  0  0  0
  -30.5852  -15.3521   22.0838 N   0  0  0  0  0  0  0  0  0  0  0  0
  -32.3777   -2.5908   27.9609 N   0  3  0  0  0  0  0  0  0  0  0  0
  -28.8312   -9.9167   26.1833 O   0  0  0  0  0  0  0  0  0  0  0  0
  -22.6967  -14.7285   21.2207 O   0  0  0  0  0  0  0  0  0  0  0  0
  -31.0615   -7.0447   35.0511 O   0  0  0  0  0  0  0  0  0  0  0  0
  -32.0243   -3.2060   33.8556 O   0  0  0  0  0  0  0  0  0  0  0  0
  -33.0826   -4.8233   29.5214 O   0  0  0  0  0  0  0  0  0  0  0  0
  -31.4567  -15.1958   19.9366 O   0  0  0  0  0  0  0  0  0  0  0  0
  -21.5529   -7.0404   21.6348 O   0  0  0  0  0  0  0  0  0  0  0  0
  -29.0592  -10.2699   30.2269 O   0  0  0  0  0  0  0  0  0  1  0  0
  -18.3501   -6.9449   26.1222 F   0  0  0  0  0  0  0  0  0  0  0  0
  -19.5607   -8.9229   21.9958 F   0  0  0  0  0  0  0  0  0  0  0  0
  1  2  1  0  0  0  0
  1  5  2  0  0  0  0
  2  6  2  0  0  0  0
  3 12  2  0  0  0  0
  3 19  1  0  0  0  0
  4 13  1  0  0  0  0
  4 19  2  0  0  0  0
  5 21  1  0  0  0  0
  6 23  1  0  0  0  0
  7 14  2  0  0  0  0
  7 22  1  0  0  0  0
  8 10  2  0  0  0  0
  8 25  1  0  0  0  0
  9 11  1  0  0  0  0
  9 25  2  0  0  0  0
 10 26  1  0  0  0  0
 11 26  2  0  0  0  0
 12 27  1  0  0  0  0
 13 27  2  0  0  0  0
 14 28  1  0  0  0  0
 15 16  2  0  0  0  0
 15 29  1  0  0  0  0
 16 30  1  0  0  0  0
 17 24  1  0  0  0  0
 17 28  2  0  0  0  0
 18 30  2  0  0  0  0
 18 31  1  0  0  0  0
 19 32  1  0  0  0  0
 20 32  1  0  0  0  0
 20 33  2  0  0  0  0
 20 39  1  0  0  0  0
 21 23  2  0  0  0  0
 21 44  1  0  0  0  0
 22 24  2  0  0  0  0
 22 45  1  0  0  0  0
 23 53  1  0  0  0  0
 24 46  1  0  0  0  0
 25 67  1  0  0  0  0
 26 74  1  0  0  0  0
 27 82  1  0  0  0  0
 28 83  1  0  0  0  0
 29 31  2  0  0  0  0
 29 82  1  0  0  0  0
 30 84  1  0  0  0  0
 31 85  1  0  0  0  0
 32 65  2  0  0  0  0
 33 66  1  0  0  0  0
 33 70  1  0  0  0  0
 34 35  2  0  0  0  0
 34 67  1  0  0  0  0
 35 36  1  0  0  0  0
 35 61  1  0  0  0  0
 36 67  1  0  0  0  0
 36 76  2  0  0  0  0
 37 38  2  0  0  0  0
 38 74  1  0  0  0  0
 39 71  1  0  0  0  0
 39 77  2  0  0  0  0
 40 54  1  0  0  0  0
 40 72  1  0  0  0  0
 40 78  2  0  0  0  0
 41 62  1  0  0  0  0
 41 68  1  0  0  0  0
 41 79  2  0  0  0  0
 42 63  1  0  0  0  0
 42 73  1  0  0  0  0
 42 80  2  0  0  0  0
 43 69  1  0  0  0  0
 43 74  1  0  0  0  0
 43 81  2  0  0  0  0
 44 47  1  0  0  0  0
 45 54  1  0  0  0  0
 46 68  1  0  0  0  0
 47 49  1  0  0  0  0
 48 50  1  0  0  0  0
 48 51  1  0  0  0  0
 49 53  1  0  0  0  0
 50 55  1  0  0  0  0
 51 69  1  0  0  0  0
 52 55  1  0  0  0  0
 52 69  1  0  0  0  0
 53 72  1  0  0  0  0
 54 68  1  0  0  0  0
 55 66  1  0  0  0  0
 56 63  1  0  0  0  0
 57 64  1  0  0  0  0
 58 64  1  0  0  0  0
 59 64  1  0  0  0  0
 60 75  1  0  0  0  0
 61 83  1  0  0  0  0
 62 64  1  0  0  0  0
 62 73  1  0  0  0  0
 63 75  1  0  0  0  0
 65 66  1  0  0  0  0
M  CHG  1  75   1
M  ISO  4  43 100  61 101  74 100  83 101
M  END
> <Batch ID>
0083

> <Smiles>
C=C[100N:0](c1ccc(N2C=C([101CH2:1][101O:1]c3ccc4c(c3)CN(C(=O)C(NC(=O)C(C)NC)C(C)(C)C)C(C(=O)NC3CCCc5ccccc53)C4)C2=O)cc1)[100C:0](=O)N1CCCC(n2nc(-c3ccc(Oc4ccc(F)cc4F)cc3)c(C(N)=O)c2N)C1

> <Shape>
0.156

> <Color>
0.188

> <Negative vol penalty>
0.000

$$$$

  -OEChem-04052300093D

 85 94  0     1  0  0  0  0  0999 V2000
  -27.6493  -34.4390   25.2097 C   0  0  0  0  0  0  0  0  0  0  0  0
  -27.8910  -33.1710   24.6910 C   0  0  0  0  0  0  0  0  0  0  0  0
  -33.2787  -20.5388   19.0086 C   0  0  0  0  0  0  0  0  0  0  0  0
  -25.4771  -15.0804   21.3090 C   0  0  0  0  0  0  0  0  0  0  0  0
  -27.5276  -14.7937   20.0639 C   0  0  0  0  0  0  0  0  0  0  0  0
  -32.4694  -20.0948   17.9630 C   0  0  0  0  0  0  0  0  0  0  0  0
  -26.3599  -34.7966   25.6015 C   0  0  0  0  0  0  0  0  0  0  0  0
  -26.8435  -32.2593   24.5648 C   0  0  0  0  0  0  0  0  0  0  0  0
  -26.8764  -29.8681   20.1009 C   0  0  0  0  0  0  0  0  0  0  0  0
  -32.9423  -21.6985   19.7069 C   0  0  0  0  0  0  0  0  0  0  0  0
  -25.2564  -13.7040   21.2626 C   0  0  0  0  0  0  0  0  0  0  0  0
  -27.3070  -13.4172   20.0175 C   0  0  0  0  0  0  0  0  0  0  0  0
  -27.7912  -28.8280   19.9425 C   0  0  0  0  0  0  0  0  0  0  0  0
  -24.1105  -11.4394   19.0303 C   0  0  0  0  0  0  0  0  0  0  0  0
  -22.8260  -11.0001   18.7098 C   0  0  0  0  0  0  0  0  0  0  0  0
  -30.9874  -21.9704   18.3136 C   0  0  0  0  0  0  0  0  0  0  0  0
  -26.0367  -27.2281   20.3686 C   0  0  0  0  0  0  0  0  0  0  0  0
  -22.6831   -9.8654   20.8380 C   0  0  0  0  0  0  0  0  0  0  0  0
  -26.6127  -15.6254   20.7096 C   0  0  0  0  0  0  0  0  0  0  0  0
  -31.3237  -20.8106   17.6154 C   0  0  0  0  0  0  0  0  0  0  0  0
  -26.9896  -17.8467   21.9058 C   0  0  0  0  0  0  0  0  0  0  0  0
  -25.2942  -33.8921   25.4710 C   0  0  0  0  0  0  0  0  0  0  0  0
  -25.5349  -29.5959   20.4056 C   0  0  0  0  0  0  0  0  0  0  0  0
  -25.5388  -32.6046   24.9564 C   0  0  0  0  0  0  0  0  0  0  0  0
  -25.1064  -28.2665   20.5278 C   0  0  0  0  0  0  0  0  0  0  0  0
  -31.7967  -22.4143   19.3594 C   0  0  0  0  0  0  0  0  0  0  0  0
  -26.1714  -12.8723   20.6169 C   0  0  0  0  0  0  0  0  0  0  0  0
  -27.3720  -27.5078   20.0792 C   0  0  0  0  0  0  0  0  0  0  0  0
  -24.6814  -11.0916   20.2546 C   0  0  0  0  0  0  0  0  0  0  0  0
  -22.1123  -10.2132   19.6137 C   0  0  0  0  0  0  0  0  0  0  0  0
  -23.9677  -10.3046   21.1584 C   0  0  0  0  0  0  0  0  0  0  0  0
  -26.8409  -17.0473   20.7567 C   0  0  0  0  0  0  0  0  0  0  0  0
  -27.1839  -19.1160   21.4183 C   0  0  0  0  0  0  0  0  0  0  0  0
  -30.2770  -25.4937   20.7060 C   0  0  0  0  0  0  0  0  0  0  0  0
  -32.1644  -24.1701   21.1452 C   0  0  0  0  0  0  0  0  0  0  0  0
  -29.3398  -26.4464   20.7661 C   0  0  0  0  0  0  0  0  0  1  0  0
  -30.4809  -20.3465   16.5251 C   0  0  0  0  0  0  0  0  0  0  0  0
  -26.9554  -17.4753   23.2902 C   0  0  0  0  0  0  0  0  0  0  0  0
  -29.2576  -21.0816   16.1294 C   0  0  0  0  0  0  0  0  0  0  0  0
  -23.6047  -30.2757   22.8379 C   0  0  0  0  0  0  0  0  0  0  0  0
  -21.3596  -28.9230   20.9268 C   0  0  0  0  0  0  0  0  0  0  0  0
  -21.1390  -26.0594   18.7431 C   0  0  0  0  0  0  0  0  0  0  0  0
  -23.9265  -34.3075   25.9521 C   0  0  0  0  0  0  0  0  0  0  0  0
  -24.5550  -30.7282   20.5470 C   0  0  0  0  0  0  0  0  0  0  0  0
  -23.6729  -27.9204   20.8343 C   0  0  0  0  0  0  0  0  0  0  0  0
  -31.4584  -25.4224   21.6084 C   0  0  0  0  0  0  0  0  0  0  0  0
  -30.2677  -24.3672   19.7337 C   0  0  0  0  0  0  0  0  0  0  0  0
  -22.8019  -33.4130   25.4368 C   0  0  0  0  0  0  0  0  0  0  0  0
  -26.1356  -21.9072   17.6875 C   0  0  0  0  0  0  0  0  0  0  0  0
  -23.1733  -31.9423   25.5980 C   0  0  0  0  0  0  0  0  0  0  0  0
  -25.9585  -20.8037   18.7300 C   0  0  0  0  0  0  0  0  0  0  0  0
  -26.8322  -21.3854   16.4350 C   0  0  0  0  0  0  0  0  0  0  0  0
  -27.9759  -19.6220   17.7506 C   0  0  0  0  0  0  0  0  0  0  0  0
  -24.4240  -31.5964   24.7809 C   0  0  1  0  0  0  0  0  0  0  0  0
  -23.3225  -30.3532   21.3641 C   0  0  1  0  0  0  0  0  0  0  0  0
  -27.3006  -20.1177   19.0412 C   0  0  2  0  0  0  0  0  0  0  0  0
  -19.6965  -25.6493   16.7310 C   0  0  0  0  0  0  0  0  0  0  0  0
  -19.4695  -27.5862   22.9143 C   0  0  0  0  0  0  0  0  0  0  0  0
  -18.9782  -25.8536   21.1751 C   0  0  0  0  0  0  0  0  0  0  0  0
  -18.4091  -28.2443   20.7471 C   0  0  0  0  0  0  0  0  0  0  0  0
  -23.4845  -25.4674   17.0381 C   0  0  0  0  0  0  0  0  0  0  0  0
  -20.8323  -27.5234   20.7223 C   0  0  1  0  0  0  0  0  0  0  0  0
  -21.0694  -26.0761   17.2267 C   0  0  2  0  0  0  0  0  0  0  0  0
  -19.4490  -27.3066   21.3983 C   0  0  0  0  0  0  0  0  0  0  0  0
  -26.9326  -17.7497   19.6244 N   0  0  0  0  0  0  0  0  0  0  0  0
  -30.7366  -19.2719   15.8288 N   0  0  0  0  0  0  0  0  0  0  0  0
  -27.1410  -19.0040   20.0597 N   0  0  0  0  0  0  0  0  0  0  0  0
  -31.4514  -23.6049   20.0767 N   0  0  0  0  0  0  0  0  0  0  0  0
  -28.0838  -20.7089   16.7692 N   0  0  0  0  0  0  0  0  0  0  0  0
  -22.7541  -29.0627   20.9697 N   0  0  0  0  0  0  0  0  0  0  0  0
  -27.3854  -20.3058   22.0234 N   0  0  0  0  0  0  0  0  0  0  0  0
  -28.1558  -17.1076   23.9133 N   0  0  0  0  0  0  0  0  0  0  0  0
  -24.0885  -31.4507   23.3806 N   0  0  0  0  0  0  0  0  0  0  0  0
  -20.8362  -27.2920   19.2819 N   0  0  0  0  0  0  0  0  0  0  0  0
  -22.0856  -25.1502   16.6514 N   0  3  0  0  0  0  0  0  0  0  0  0
  -33.1968  -23.7882   21.6818 O   0  0  0  0  0  0  0  0  0  0  0  0
  -25.8892  -17.4537   23.9507 O   0  0  0  0  0  0  0  0  0  0  0  0
  -29.4138  -21.9440   15.2748 O   0  0  0  0  0  0  0  0  0  0  0  0
  -23.3973  -29.2278   23.4384 O   0  0  0  0  0  0  0  0  0  0  0  0
  -20.5637  -29.8590   21.0369 O   0  0  0  0  0  0  0  0  0  0  0  0
  -21.4290  -25.0526   19.3856 O   0  0  0  0  0  0  0  0  0  0  0  0
  -25.9565  -11.5291   20.5716 O   0  0  0  0  0  0  0  0  0  0  0  0
  -28.2630  -26.4907   19.9257 O   0  0  0  0  0  0  0  0  0  1  0  0
  -20.8782   -9.7928   19.3065 F   0  0  0  0  0  0  0  0  0  0  0  0
  -24.5104   -9.9683   22.3366 F   0  0  0  0  0  0  0  0  0  0  0  0
  1  2  1  0  0  0  0
  1  7  2  0  0  0  0
  2  8  2  0  0  0  0
  3  6  1  0  0  0  0
  3 10  2  0  0  0  0
  4 11  2  0  0  0  0
  4 19  1  0  0  0  0
  5 12  1  0  0  0  0
  5 19  2  0  0  0  0
  6 20  2  0  0  0  0
  7 22  1  0  0  0  0
  8 24  1  0  0  0  0
  9 13  2  0  0  0  0
  9 23  1  0  0  0  0
 10 26  1  0  0  0  0
 11 27  1  0  0  0  0
 12 27  2  0  0  0  0
 13 28  1  0  0  0  0
 14 15  2  0  0  0  0
 14 29  1  0  0  0  0
 15 30  1  0  0  0  0
 16 20  1  0  0  0  0
 16 26  2  0  0  0  0
 17 25  1  0  0  0  0
 17 28  2  0  0  0  0
 18 30  2  0  0  0  0
 18 31  1  0  0  0  0
 19 32  1  0  0  0  0
 20 37  1  0  0  0  0
 21 32  1  0  0  0  0
 21 33  2  0  0  0  0
 21 38  1  0  0  0  0
 22 24  2  0  0  0  0
 22 43  1  0  0  0  0
 23 25  2  0  0  0  0
 23 44  1  0  0  0  0
 24 54  1  0  0  0  0
 25 45  1  0  0  0  0
 26 68  1  0  0  0  0
 27 82  1  0  0  0  0
 28 83  1  0  0  0  0
 29 31  2  0  0  0  0
 29 82  1  0  0  0  0
 30 84  1  0  0  0  0
 31 85  1  0  0  0  0
 32 65  2  0  0  0  0
 33 67  1  0  0  0  0
 33 71  1  0  0  0  0
 34 36  2  0  0  0  0
 34 46  1  0  0  0  0
 34 47  1  0  0  0  0
 35 46  1  0  0  0  0
 35 68  1  0  0  0  0
 35 76  2  0  0  0  0
 36 83  1  0  0  0  0
 37 39  1  0  0  0  0
 37 66  2  0  0  0  0
 38 72  1  0  0  0  0
 38 77  2  0  0  0  0
 39 69  1  0  0  0  0
 39 78  2  0  0  0  0
 40 55  1  0  0  0  0
 40 73  1  0  0  0  0
 40 79  2  0  0  0  0
 41 62  1  0  0  0  0
 41 70  1  0  0  0  0
 41 80  2  0  0  0  0
 42 63  1  0  0  0  0
 42 74  1  0  0  0  0
 42 81  2  0  0  0  0
 43 48  1  0  0  0  0
 44 55  1  0  0  0  0
 45 70  1  0  0  0  0
 47 68  1  0  0  0  0
 48 50  1  0  0  0  0
 49 51  1  0  0  0  0
 49 52  1  0  0  0  0
 50 54  1  0  0  0  0
 51 56  1  0  0  0  0
 52 69  1  0  0  0  0
 53 56  1  0  0  0  0
 53 69  1  0  0  0  0
 54 73  1  0  0  0  0
 55 70  1  0  0  0  0
 56 67  1  0  0  0  0
 57 63  1  0  0  0  0
 58 64  1  0  0  0  0
 59 64  1  0  0  0  0
 60 64  1  0  0  0  0
 61 75  1  0  0  0  0
 62 64  1  0  0  0  0
 62 74  1  0  0  0  0
 63 75  1  0  0  0  0
 65 67  1  0  0  0  0
M  CHG  1  75   1
M  ISO  4  36 101  37 100  39 100  83 101
M  END
> <Batch ID>
0083

> <Smiles>
CNC(C)C(=O)NC(C(=O)N1Cc2cc([101O:1][101CH:1]=C3CC(=O)N(c4cccc([100C:0](=N)[100C:0](=O)N5CCCC(n6nc(-c7ccc(Oc8ccc(F)cc8F)cc7)c(C(N)=O)c6N)C5)c4)C3)ccc2CC1C(=O)NC1CCCc2ccccc21)C(C)(C)C

> <Shape>
0.252

> <Color>
0.073

> <Negative vol penalty>
0.000

$$$$

  -OEChem-04052300093D

 86 95  0     1  0  0  0  0  0999 V2000
  -18.2000  -25.0185   25.3988 C   0  0  0  0  0  0  0  0  0  0  0  0
  -19.4901  -24.5547   25.1619 C   0  0  0  0  0  0  0  0  0  0  0  0
  -23.6123   -9.1285   20.0264 C   0  0  0  0  0  0  0  0  0  0  0  0
  -23.1141  -10.9128   21.5771 C   0  0  0  0  0  0  0  0  0  0  0  0
  -17.7360  -26.1540   24.7359 C   0  0  0  0  0  0  0  0  0  0  0  0
  -20.3166  -25.2256   24.2612 C   0  0  0  0  0  0  0  0  0  0  0  0
  -26.3887  -25.9208   24.6514 C   0  0  0  0  0  0  0  0  0  0  0  0
  -30.9413  -19.5386   20.3236 C   0  0  0  0  0  0  0  0  0  0  0  0
  -30.7886  -18.1548   20.2376 C   0  0  0  0  0  0  0  0  0  0  0  0
  -22.7158   -8.2960   20.6962 C   0  0  0  0  0  0  0  0  0  0  0  0
  -22.2175  -10.0803   22.2470 C   0  0  0  0  0  0  0  0  0  0  0  0
  -27.4507  -25.2413   24.0563 C   0  0  0  0  0  0  0  0  0  0  0  0
  -19.3680   -7.8432   20.8396 C   0  0  0  0  0  0  0  0  0  0  0  0
  -18.4857   -7.0867   20.0683 C   0  0  0  0  0  0  0  0  0  0  0  0
  -27.5518  -26.9234   22.3301 C   0  0  0  0  0  0  0  0  0  0  0  0
  -28.7193  -18.4583   19.0281 C   0  0  0  0  0  0  0  0  0  0  0  0
  -19.4040   -5.0587   21.0070 C   0  0  0  0  0  0  0  0  0  0  0  0
  -23.8116  -10.4369   20.4669 C   0  0  0  0  0  0  0  0  0  0  0  0
  -24.4571  -12.1567   18.6968 C   0  0  0  0  0  0  0  0  0  0  0  0
  -18.5606  -26.8447   23.8339 C   0  0  0  0  0  0  0  0  0  0  0  0
  -25.8922  -27.1028   24.0833 C   0  0  0  0  0  0  0  0  0  0  0  0
  -19.8627  -26.3706   23.5847 C   0  0  0  0  0  0  0  0  0  0  0  0
  -26.4850  -27.6173   22.9214 C   0  0  0  0  0  0  0  0  0  0  0  0
  -28.8720  -19.8421   19.1141 C   0  0  0  0  0  0  0  0  0  0  0  0
  -29.9830  -20.3822   19.7619 C   0  0  0  0  0  0  0  0  0  0  0  0
  -29.6777  -17.6146   19.5899 C   0  0  0  0  0  0  0  0  0  0  0  0
  -22.0183   -8.7719   21.8065 C   0  0  0  0  0  0  0  0  0  0  0  0
  -28.0306  -25.7410   22.8939 C   0  0  0  0  0  0  0  0  0  0  0  0
  -20.2684   -7.2074   21.6945 C   0  0  0  0  0  0  0  0  0  0  0  0
  -18.5037   -5.6945   20.1520 C   0  0  0  0  0  0  0  0  0  0  0  0
  -20.2863   -5.8152   21.7782 C   0  0  0  0  0  0  0  0  0  0  0  0
  -24.7380  -11.2972   19.7757 C   0  0  0  0  0  0  0  0  0  0  0  0
  -25.6624  -12.7475   18.4056 C   0  0  0  0  0  0  0  0  0  0  0  0
  -30.9959  -23.8793   19.6728 C   0  0  0  0  0  0  0  0  0  0  0  0
  -29.8514  -23.9792   20.3458 C   0  0  0  0  0  0  0  0  0  0  0  0
  -31.2258  -22.4637   19.3511 C   0  0  0  0  0  0  0  0  0  0  0  0
  -29.2742  -22.6272   20.4759 C   0  0  0  0  0  0  0  0  0  0  0  0
  -23.2175  -12.3995   18.0185 C   0  0  0  0  0  0  0  0  0  0  0  0
  -23.0976  -28.0058   22.8674 C   0  0  0  0  0  0  0  0  0  0  0  0
  -24.5430  -30.9058   22.7141 C   0  0  0  0  0  0  0  0  0  0  0  0
  -27.4475  -32.6904   22.5533 C   0  0  0  0  0  0  0  0  0  0  0  0
  -30.3818  -15.2317   20.0049 C   0  0  0  0  0  0  0  0  0  0  0  0
  -17.9986  -28.0399   23.1056 C   0  0  0  0  0  0  0  0  0  0  0  0
  -24.7635  -27.8382   24.7523 C   0  0  0  0  0  0  0  0  0  0  0  0
  -26.0023  -28.8933   22.2832 C   0  0  0  0  0  0  0  0  0  0  0  0
  -19.0667  -28.9103   22.4485 C   0  0  0  0  0  0  0  0  0  0  0  0
  -30.3352  -11.6716   20.0270 C   0  0  0  0  0  0  0  0  0  0  0  0
  -20.0664  -28.0453   21.6875 C   0  0  0  0  0  0  0  0  0  0  0  0
  -28.8517  -11.3275   19.8749 C   0  0  0  0  0  0  0  0  0  0  0  0
  -30.5433  -12.9152   20.8895 C   0  0  0  0  0  0  0  0  0  0  0  0
  -28.2995  -13.7541   20.3148 C   0  0  0  0  0  0  0  0  0  0  0  0
  -20.7978  -27.0854   22.6335 C   0  0  1  0  0  0  0  0  0  0  0  0
  -24.0029  -28.7576   23.8018 C   0  0  1  0  0  0  0  0  0  0  0  0
  -28.0363  -12.5464   19.4006 C   0  0  2  0  0  0  0  0  0  0  0  0
  -27.8299  -20.7222   18.5040 C   0  0  0  0  0  0  0  0  0  0  0  0
  -28.3083  -35.0426   22.3999 C   0  0  0  0  0  0  0  0  0  0  0  0
  -23.7853  -30.9878   19.7595 C   0  0  0  0  0  0  0  0  0  0  0  0
  -25.4473  -32.8355   19.4563 C   0  0  0  0  0  0  0  0  0  0  0  0
  -23.4922  -33.1552   20.9722 C   0  0  0  0  0  0  0  0  0  0  0  0
  -28.8873  -32.4547   25.1283 C   0  0  0  0  0  0  0  0  0  0  0  0
  -29.1955  -25.1938   20.8940 C   0  0  0  0  0  0  0  0  0  1  0  0
  -25.3784  -31.6309   21.6868 C   0  0  1  0  0  0  0  0  0  0  0  0
  -27.9300  -33.9014   23.3312 C   0  0  2  0  0  0  0  0  0  0  0  0
  -24.5338  -32.1273   20.4794 C   0  0  0  0  0  0  0  0  0  0  0  0
  -26.0211  -11.3354   20.1448 N   0  0  0  0  0  0  0  0  0  0  0  0
  -26.5572  -12.2259   19.2930 N   0  0  0  0  0  0  0  0  0  0  0  0
  -30.1532  -21.7587   19.8582 N   0  0  0  0  0  0  0  0  0  0  0  0
  -24.8920  -29.5724   22.9713 N   0  0  0  0  0  0  0  0  0  0  0  0
  -29.7433  -14.0301   20.3779 N   0  0  0  0  0  0  0  0  0  0  0  0
  -26.0335  -13.6569   17.4795 N   0  0  0  0  0  0  0  0  0  0  0  0
  -22.0755  -11.7083   18.4458 N   0  0  0  0  0  0  0  0  0  0  0  0
  -29.5234  -16.2088   19.5021 N   0  0  0  0  0  0  0  0  0  0  0  0
  -21.8284  -27.7873   23.3682 N   0  0  0  0  0  0  0  0  0  0  0  0
  -26.0767  -32.6922   22.4041 N   0  0  0  0  0  0  0  0  0  0  0  0
  -29.1234  -33.5486   24.1511 N   0  3  0  0  0  0  0  0  0  0  0  0
  -32.2034  -22.0569   18.7446 O   0  0  0  0  0  0  0  0  0  0  0  0
  -28.2179  -22.3817   21.0362 O   0  0  0  0  0  0  0  0  0  0  0  0
  -23.1286  -13.1932   17.0512 O   0  0  0  0  0  0  0  0  0  0  0  0
  -23.5190  -27.6516   21.7726 O   0  0  0  0  0  0  0  0  0  0  0  0
  -23.6194  -31.5026   23.2730 O   0  0  0  0  0  0  0  0  0  0  0  0
  -28.2106  -31.8308   22.1182 O   0  0  0  0  0  0  0  0  0  0  0  0
  -31.6039  -15.3730   20.0975 O   0  0  0  0  0  0  0  0  0  0  0  0
  -21.1432   -7.9599   22.4602 O   0  0  0  0  0  0  0  0  0  0  0  0
  -29.0669  -25.0795   22.3106 O   0  0  0  0  0  0  0  0  0  1  0  0
  -17.6553   -4.9683   19.4124 F   0  0  0  0  0  0  0  0  0  0  0  0
  -21.1482   -5.1988   22.5986 F   0  0  0  0  0  0  0  0  0  0  0  0
  1  2  1  0  0  0  0
  1  5  2  0  0  0  0
  2  6  2  0  0  0  0
  3 10  2  0  0  0  0
  3 18  1  0  0  0  0
  4 11  1  0  0  0  0
  4 18  2  0  0  0  0
  5 20  1  0  0  0  0
  6 22  1  0  0  0  0
  7 12  2  0  0  0  0
  7 21  1  0  0  0  0
  8  9  2  0  0  0  0
  8 25  1  0  0  0  0
  9 26  1  0  0  0  0
 10 27  1  0  0  0  0
 11 27  2  0  0  0  0
 12 28  1  0  0  0  0
 13 14  2  0  0  0  0
 13 29  1  0  0  0  0
 14 30  1  0  0  0  0
 15 23  1  0  0  0  0
 15 28  2  0  0  0  0
 16 24  1  0  0  0  0
 16 26  2  0  0  0  0
 17 30  2  0  0  0  0
 17 31  1  0  0  0  0
 18 32  1  0  0  0  0
 19 32  1  0  0  0  0
 19 33  2  0  0  0  0
 19 38  1  0  0  0  0
 20 22  2  0  0  0  0
 20 43  1  0  0  0  0
 21 23  2  0  0  0  0
 21 44  1  0  0  0  0
 22 52  1  0  0  0  0
 23 45  1  0  0  0  0
 24 25  2  0  0  0  0
 24 55  1  0  0  0  0
 25 67  1  0  0  0  0
 26 72  1  0  0  0  0
 27 83  1  0  0  0  0
 28 84  1  0  0  0  0
 29 31  2  0  0  0  0
 29 83  1  0  0  0  0
 30 85  1  0  0  0  0
 31 86  1  0  0  0  0
 32 65  2  0  0  0  0
 33 66  1  0  0  0  0
 33 70  1  0  0  0  0
 34 35  2  0  0  0  0
 34 36  1  0  0  0  0
 35 37  1  0  0  0  0
 35 61  1  0  0  0  0
 36 67  1  0  0  0  0
 36 76  2  0  0  0  0
 37 67  1  0  0  0  0
 37 77  2  0  0  0  0
 38 71  1  0  0  0  0
 38 78  2  0  0  0  0
 39 53  1  0  0  0  0
 39 73  1  0  0  0  0
 39 79  2  0  0  0  0
 40 62  1  0  0  0  0
 40 68  1  0  0  0  0
 40 80  2  0  0  0  0
 41 63  1  0  0  0  0
 41 74  1  0  0  0  0
 41 81  2  0  0  0  0
 42 69  1  0  0  0  0
 42 72  1  0  0  0  0
 42 82  2  0  0  0  0
 43 46  1  0  0  0  0
 44 53  1  0  0  0  0
 45 68  1  0  0  0  0
 46 48  1  0  0  0  0
 47 49  1  0  0  0  0
 47 50  1  0  0  0  0
 48 52  1  0  0  0  0
 49 54  1  0  0  0  0
 50 69  1  0  0  0  0
 51 54  1  0  0  0  0
 51 69  1  0  0  0  0
 52 73  1  0  0  0  0
 53 68  1  0  0  0  0
 54 66  1  0  0  0  0
 56 63  1  0  0  0  0
 57 64  1  0  0  0  0
 58 64  1  0  0  0  0
 59 64  1  0  0  0  0
 60 75  1  0  0  0  0
 61 84  1  0  0  0  0
 62 64  1  0  0  0  0
 62 74  1  0  0  0  0
 63 75  1  0  0  0  0
 65 66  1  0  0  0  0
M  CHG  1  75   1
M  ISO  4  42 100  61 101  72 100  84 101
M  END
> <Batch ID>
0083

> <Smiles>
CNC(C)C(=O)NC(C(=O)N1Cc2cc([101O:1][101CH2:1]C3=CC(=O)N(c4ccc([100NH:0][100C:0](=O)N5CCCC(n6nc(-c7ccc(Oc8ccc(F)cc8F)cc7)c(C(N)=O)c6N)C5)cc4C)C3=O)ccc2CC1C(=O)NC1CCCc2ccccc21)C(C)(C)C

> <Shape>
0.267

> <Color>
0.085

> <Negative vol penalty>
0.000

$$$$

  -OEChem-04052300093D

 85 93  0     1  0  0  0  0  0999 V2000
  -16.4984  -25.5562   21.8647 C   0  0  0  0  0  0  0  0  0  0  0  0
  -17.7741  -25.0035   21.8132 C   0  0  0  0  0  0  0  0  0  0  0  0
  -33.2483  -16.9708   23.0810 C   0  0  0  0  0  0  0  0  0  0  0  0
  -22.8703  -10.1897   20.1680 C   0  0  0  0  0  0  0  0  0  0  0  0
  -23.7401  -10.1593   22.4218 C   0  0  0  0  0  0  0  0  0  0  0  0
  -32.5683  -17.9156   23.8494 C   0  0  0  0  0  0  0  0  0  0  0  0
  -16.3361  -26.9038   22.1833 C   0  0  0  0  0  0  0  0  0  0  0  0
  -18.8884  -25.7985   22.0792 C   0  0  0  0  0  0  0  0  0  0  0  0
  -22.2203  -23.5143   25.1328 C   0  0  0  0  0  0  0  0  0  0  0  0
  -32.5403  -16.1307   22.2215 C   0  0  0  0  0  0  0  0  0  0  0  0
  -22.0399   -9.1116   20.4739 C   0  0  0  0  0  0  0  0  0  0  0  0
  -22.9097   -9.0812   22.7277 C   0  0  0  0  0  0  0  0  0  0  0  0
  -23.0521  -22.5522   24.5615 C   0  0  0  0  0  0  0  0  0  0  0  0
  -19.1077   -8.6029   22.0790 C   0  0  0  0  0  0  0  0  0  0  0  0
  -17.7795   -8.6677   21.6578 C   0  0  0  0  0  0  0  0  0  0  0  0
  -30.4723  -17.1801   22.8992 C   0  0  0  0  0  0  0  0  0  0  0  0
  -24.8343  -24.1735   24.4408 C   0  0  0  0  0  0  0  0  0  0  0  0
  -18.0979   -6.6645   20.3452 C   0  0  0  0  0  0  0  0  0  0  0  0
  -23.7205  -10.7135   21.1419 C   0  0  0  0  0  0  0  0  0  0  0  0
  -31.1804  -18.0203   23.7586 C   0  0  0  0  0  0  0  0  0  0  0  0
  -24.2797  -13.1959   20.9605 C   0  0  0  0  0  0  0  0  0  0  0  0
  -17.4483  -27.7134   22.4628 C   0  0  0  0  0  0  0  0  0  0  0  0
  -22.6867  -24.8183   25.3527 C   0  0  0  0  0  0  0  0  0  0  0  0
  -18.7409  -27.1586   22.4005 C   0  0  0  0  0  0  0  0  0  0  0  0
  -24.0072  -25.1496   25.0174 C   0  0  0  0  0  0  0  0  0  0  0  0
  -31.1523  -16.2353   22.1307 C   0  0  0  0  0  0  0  0  0  0  0  0
  -22.0595   -8.5573   21.7538 C   0  0  0  0  0  0  0  0  0  0  0  0
  -24.3584  -22.8826   24.2127 C   0  0  0  0  0  0  0  0  0  0  0  0
  -19.9310   -7.5689   21.6331 C   0  0  0  0  0  0  0  0  0  0  0  0
  -17.2746   -7.6986   20.7910 C   0  0  0  0  0  0  0  0  0  0  0  0
  -19.4261   -6.5997   20.7663 C   0  0  0  0  0  0  0  0  0  0  0  0
  -24.5790  -11.8269   20.8263 C   0  0  0  0  0  0  0  0  0  0  0  0
  -25.4150  -13.8392   20.5319 C   0  0  0  0  0  0  0  0  0  0  0  0
  -26.3276  -21.6242   24.3095 C   0  0  0  0  0  0  0  0  0  1  0  0
  -30.4577  -19.0268   24.5774 C   0  0  0  0  0  0  0  0  0  0  0  0
  -23.0824  -13.8294   21.4306 C   0  0  0  0  0  0  0  0  0  0  0  0
  -27.2001  -20.7182   23.8522 C   0  0  0  0  0  0  0  0  0  0  0  0
  -28.4359  -20.4400   24.6463 C   0  0  0  0  0  0  0  0  0  0  0  0
  -21.8632  -27.7024   24.3001 C   0  0  0  0  0  0  0  0  0  0  0  0
  -24.0757  -28.6929   26.4555 C   0  0  0  0  0  0  0  0  0  0  0  0
  -26.8628  -27.9694   28.2873 C   0  0  0  0  0  0  0  0  0  0  0  0
  -30.9545  -14.3915   20.4255 C   0  0  0  0  0  0  0  0  0  0  0  0
  -17.2262  -29.1760   22.7561 C   0  0  0  0  0  0  0  0  0  0  0  0
  -21.7853  -25.8372   25.9945 C   0  0  0  0  0  0  0  0  0  0  0  0
  -24.5625  -26.5299   25.2515 C   0  0  0  0  0  0  0  0  0  0  0  0
  -18.4339  -29.8601   23.3915 C   0  0  0  0  0  0  0  0  0  0  0  0
  -29.5139  -12.0558   18.1569 C   0  0  0  0  0  0  0  0  0  0  0  0
  -19.7110  -29.4922   22.6429 C   0  0  0  0  0  0  0  0  0  0  0  0
  -28.0769  -11.9007   18.6602 C   0  0  0  0  0  0  0  0  0  0  0  0
  -30.5039  -12.2177   19.3090 C   0  0  0  0  0  0  0  0  0  0  0  0
  -28.7397  -13.1292   20.7670 C   0  0  0  0  0  0  0  0  0  0  0  0
  -19.9726  -27.9826   22.7070 C   0  0  1  0  0  0  0  0  0  0  0  0
  -22.2031  -27.2746   25.6998 C   0  0  1  0  0  0  0  0  0  0  0  0
  -27.6983  -13.0282   19.6405 C   0  0  2  0  0  0  0  0  0  0  0  0
  -28.4612  -28.9921   29.9294 C   0  0  0  0  0  0  0  0  0  0  0  0
  -25.4014  -30.2505   24.1914 C   0  0  0  0  0  0  0  0  0  0  0  0
  -27.4466  -30.4523   25.6213 C   0  0  0  0  0  0  0  0  0  0  0  0
  -25.2960  -31.4682   26.3732 C   0  0  0  0  0  0  0  0  0  0  0  0
  -26.1794  -25.9793   30.3686 C   0  0  0  0  0  0  0  0  0  0  0  0
  -25.5620  -28.9544   26.4186 C   0  0  1  0  0  0  0  0  0  0  0  0
  -27.1865  -28.1812   29.7552 C   0  0  2  0  0  0  0  0  0  0  0  0
  -25.9157  -30.2558   25.6448 C   0  0  0  0  0  0  0  0  0  0  0  0
  -25.8081  -11.6121   20.3496 N   0  0  0  0  0  0  0  0  0  0  0  0
  -26.2911  -12.8547   20.1804 N   0  0  0  0  0  0  0  0  0  0  0  0
  -23.6403  -27.4928   25.8758 N   0  0  0  0  0  0  0  0  0  0  0  0
  -30.0831  -13.3063   20.1936 N   0  0  0  0  0  0  0  0  0  0  0  0
  -25.7394  -15.1453   20.4251 N   0  0  0  0  0  0  0  0  0  0  0  0
  -22.0114  -13.0195   21.8322 N   0  0  0  0  0  0  0  0  0  0  0  0
  -30.4334  -15.3819   21.2574 N   0  0  0  0  0  0  0  0  0  0  0  0
  -29.2484  -19.4776   24.0501 N   0  0  0  0  0  0  0  0  0  0  0  0
  -20.5176  -27.6185   23.9973 N   0  0  0  0  0  0  0  0  0  0  0  0
  -26.0132  -28.9428   27.8059 N   0  0  0  0  0  0  0  0  0  0  0  0
  -27.3661  -26.8701   30.4405 N   0  3  0  0  0  0  0  0  0  0  0  0
  -30.9609  -19.4158   25.6279 O   0  0  0  0  0  0  0  0  0  0  0  0
  -22.9599  -15.0770   21.4772 O   0  0  0  0  0  0  0  0  0  0  0  0
  -28.6740  -21.0139   25.7051 O   0  0  0  0  0  0  0  0  0  0  0  0
  -22.7555  -28.0819   23.5508 O   0  0  0  0  0  0  0  0  0  0  0  0
  -23.3292  -29.5195   26.9858 O   0  0  0  0  0  0  0  0  0  0  0  0
  -27.3210  -27.0359   27.6321 O   0  0  0  0  0  0  0  0  0  0  0  0
  -32.0697  -14.4517   19.9013 O   0  0  0  0  0  0  0  0  0  0  0  0
  -27.0071  -20.0267   22.6741 O   0  0  0  0  0  0  0  0  0  0  0  0
  -21.2492   -7.5054   22.0527 O   0  0  0  0  0  0  0  0  0  0  0  0
  -25.1722  -21.9456   23.6543 O   0  0  0  0  0  0  0  0  0  1  0  0
  -15.9987   -7.7601   20.3879 F   0  0  0  0  0  0  0  0  0  0  0  0
  -20.2119   -5.6033   20.3356 F   0  0  0  0  0  0  0  0  0  0  0  0
  1  2  1  0  0  0  0
  1  7  2  0  0  0  0
  2  8  2  0  0  0  0
  3  6  2  0  0  0  0
  3 10  1  0  0  0  0
  4 11  2  0  0  0  0
  4 19  1  0  0  0  0
  5 12  1  0  0  0  0
  5 19  2  0  0  0  0
  6 20  1  0  0  0  0
  7 22  1  0  0  0  0
  8 24  1  0  0  0  0
  9 13  2  0  0  0  0
  9 23  1  0  0  0  0
 10 26  2  0  0  0  0
 11 27  1  0  0  0  0
 12 27  2  0  0  0  0
 13 28  1  0  0  0  0
 14 15  2  0  0  0  0
 14 29  1  0  0  0  0
 15 30  1  0  0  0  0
 16 20  2  0  0  0  0
 16 26  1  0  0  0  0
 17 25  1  0  0  0  0
 17 28  2  0  0  0  0
 18 30  2  0  0  0  0
 18 31  1  0  0  0  0
 19 32  1  0  0  0  0
 20 35  1  0  0  0  0
 21 32  1  0  0  0  0
 21 33  2  0  0  0  0
 21 36  1  0  0  0  0
 22 24  2  0  0  0  0
 22 43  1  0  0  0  0
 23 25  2  0  0  0  0
 23 44  1  0  0  0  0
 24 52  1  0  0  0  0
 25 45  1  0  0  0  0
 26 69  1  0  0  0  0
 27 82  1  0  0  0  0
 28 83  1  0  0  0  0
 29 31  2  0  0  0  0
 29 82  1  0  0  0  0
 30 84  1  0  0  0  0
 31 85  1  0  0  0  0
 32 63  2  0  0  0  0
 33 64  1  0  0  0  0
 33 67  1  0  0  0  0
 34 37  2  0  0  0  0
 34 83  1  0  0  0  0
 35 70  1  0  0  0  0
 35 74  2  0  0  0  0
 36 68  1  0  0  0  0
 36 75  2  0  0  0  0
 37 38  1  0  0  0  0
 37 81  1  0  0  0  0
 38 70  1  0  0  0  0
 38 76  2  0  0  0  0
 39 53  1  0  0  0  0
 39 71  1  0  0  0  0
 39 77  2  0  0  0  0
 40 60  1  0  0  0  0
 40 65  1  0  0  0  0
 40 78  2  0  0  0  0
 41 61  1  0  0  0  0
 41 72  1  0  0  0  0
 41 79  2  0  0  0  0
 42 66  1  0  0  0  0
 42 69  1  0  0  0  0
 42 80  2  0  0  0  0
 43 46  1  0  0  0  0
 44 53  1  0  0  0  0
 45 65  1  0  0  0  0
 46 48  1  0  0  0  0
 47 49  1  0  0  0  0
 47 50  1  0  0  0  0
 48 52  1  0  0  0  0
 49 54  1  0  0  0  0
 50 66  1  0  0  0  0
 51 54  1  0  0  0  0
 51 66  1  0  0  0  0
 52 71  1  0  0  0  0
 53 65  1  0  0  0  0
 54 64  1  0  0  0  0
 55 61  1  0  0  0  0
 56 62  1  0  0  0  0
 57 62  1  0  0  0  0
 58 62  1  0  0  0  0
 59 73  1  0  0  0  0
 60 62  1  0  0  0  0
 60 72  1  0  0  0  0
 61 73  1  0  0  0  0
 63 64  1  0  0  0  0
M  CHG  1  73   1
M  ISO  4  34 101  42 100  69 100  83 101
M  END
> <Batch ID>
0083

> <Smiles>
CNC(C)C(=O)NC(C(=O)N1Cc2cc([101O:1][101CH2:1]C(=O)C(=O)NC(=O)c3cccc([100NH:0][100C:0](=O)N4CCCC(n5nc(-c6ccc(Oc7ccc(F)cc7F)cc6)c(C(N)=O)c5N)C4)c3)ccc2CC1C(=O)NC1CCCc2ccccc21)C(C)(C)C

> <Shape>
0.239

> <Color>
0.183

> <Negative vol penalty>
0.000

$$$$

  -OEChem-04052300093D

 86 95  0     1  0  0  0  0  0999 V2000
  -20.8141  -11.2796   21.3188 C   0  0  0  0  0  0  0  0  0  0  0  0
  -21.0292  -12.6531   21.3714 C   0  0  0  0  0  0  0  0  0  0  0  0
  -21.0591  -27.2032   21.8492 C   0  0  0  0  0  0  0  0  0  0  0  0
  -19.8448  -28.9795   22.9478 C   0  0  0  0  0  0  0  0  0  0  0  0
  -28.6568  -26.0473   25.3914 C   0  0  0  0  0  0  0  0  0  0  0  0
  -21.8966  -10.4100   21.1933 C   0  0  0  0  0  0  0  0  0  0  0  0
  -22.3272  -13.1576   21.2996 C   0  0  0  0  0  0  0  0  0  0  0  0
  -25.9946  -18.8048   18.8551 C   0  0  0  0  0  0  0  0  0  0  0  0
  -28.8487  -25.0658   24.4191 C   0  0  0  0  0  0  0  0  0  0  0  0
  -19.8845  -26.4566   21.7578 C   0  0  0  0  0  0  0  0  0  0  0  0
  -18.6700  -28.2330   22.8564 C   0  0  0  0  0  0  0  0  0  0  0  0
  -26.9134  -19.7608   19.2858 C   0  0  0  0  0  0  0  0  0  0  0  0
  -15.2800  -26.9468   22.5888 C   0  0  0  0  0  0  0  0  0  0  0  0
  -14.1239  -27.6044   22.1690 C   0  0  0  0  0  0  0  0  0  0  0  0
  -27.3606  -27.3486   23.8220 C   0  0  0  0  0  0  0  0  0  0  0  0
  -28.7005  -18.1676   18.9903 C   0  0  0  0  0  0  0  0  0  0  0  0
  -15.2005  -28.1634   20.0796 C   0  0  0  0  0  0  0  0  0  0  0  0
  -21.0393  -28.4646   22.4443 C   0  0  0  0  0  0  0  0  0  0  0  0
  -27.9127  -27.1887   25.0929 C   0  0  0  0  0  0  0  0  0  0  0  0
  -22.7499  -30.1579   21.5990 C   0  0  0  0  0  0  0  0  0  0  0  0
  -23.2077  -10.9046   21.1102 C   0  0  0  0  0  0  0  0  0  0  0  0
  -26.4212  -17.5174   18.4985 C   0  0  0  0  0  0  0  0  0  0  0  0
  -23.4284  -12.2937   21.1743 C   0  0  0  0  0  0  0  0  0  0  0  0
  -27.7854  -17.1979   18.5529 C   0  0  0  0  0  0  0  0  0  0  0  0
  -28.2966  -25.2257   23.1482 C   0  0  0  0  0  0  0  0  0  0  0  0
  -18.6899  -26.9716   22.2613 C   0  0  0  0  0  0  0  0  0  0  0  0
  -28.2663  -19.4414   19.3563 C   0  0  0  0  0  0  0  0  0  0  0  0
  -16.3965  -26.8975   21.7541 C   0  0  0  0  0  0  0  0  0  0  0  0
  -14.0841  -28.2127   20.9144 C   0  0  0  0  0  0  0  0  0  0  0  0
  -27.5526  -26.3672   22.8496 C   0  0  0  0  0  0  0  0  0  0  0  0
  -16.3568  -27.5058   20.4995 C   0  0  0  0  0  0  0  0  0  0  0  0
  -22.2526  -29.2360   22.5396 C   0  0  0  0  0  0  0  0  0  0  0  0
  -23.9200  -30.6163   22.1531 C   0  0  0  0  0  0  0  0  0  0  0  0
  -28.8280  -22.2024   21.2022 C   0  0  0  0  0  0  0  0  0  0  0  0
  -28.7616  -23.1996   20.1251 C   0  0  0  0  0  0  0  0  0  0  0  0
  -28.6540  -22.8784   22.5037 C   0  0  0  0  0  0  0  0  0  0  0  0
  -27.7092  -28.2218   26.1167 C   0  0  0  0  0  0  0  0  0  0  0  0
  -22.2029  -30.5637   20.3373 C   0  0  0  0  0  0  0  0  0  0  0  0
  -29.0162  -20.8889   21.0335 C   0  0  0  0  0  0  0  0  0  1  0  0
  -25.8527  -14.5848   19.5849 C   0  0  0  0  0  0  0  0  0  0  0  0
  -27.6029  -13.7082   16.9982 C   0  0  0  0  0  0  0  0  0  0  0  0
  -29.9630  -14.5432   14.6789 C   0  0  0  0  0  0  0  0  0  0  0  0
  -24.3496   -9.9232   21.0229 C   0  0  0  0  0  0  0  0  0  0  0  0
  -25.4207  -16.5059   18.0104 C   0  0  0  0  0  0  0  0  0  0  0  0
  -28.2971  -15.8364   18.1619 C   0  0  0  0  0  0  0  0  0  0  0  0
  -28.5412  -24.5511   20.7381 C   0  0  0  0  0  0  0  0  0  0  0  0
  -25.6646  -10.5569   20.5762 C   0  0  0  0  0  0  0  0  0  0  0  0
  -26.0318  -31.3613   26.3830 C   0  0  0  0  0  0  0  0  0  0  0  0
  -25.9223  -11.8495   21.3442 C   0  0  0  0  0  0  0  0  0  0  0  0
  -24.9058  -31.2533   25.3532 C   0  0  0  0  0  0  0  0  0  0  0  0
  -26.3042  -30.0219   27.0629 C   0  0  0  0  0  0  0  0  0  0  0  0
  -25.4434  -28.7942   25.0990 C   0  0  0  0  0  0  0  0  0  0  0  0
  -24.8197  -12.8805   21.0746 C   0  0  1  0  0  0  0  0  0  0  0  0
  -25.9034  -15.0667   18.1626 C   0  0  1  0  0  0  0  0  0  0  0  0
  -25.1714  -30.1114   24.3541 C   0  0  1  0  0  0  0  0  0  0  0  0
  -29.0770  -19.9098   22.1614 C   0  0  0  0  0  0  0  0  0  0  0  0
  -31.2136  -13.6059   12.7155 C   0  0  0  0  0  0  0  0  0  0  0  0
  -29.3678  -12.0964   18.8949 C   0  0  0  0  0  0  0  0  0  0  0  0
  -31.0901  -11.9799   17.0815 C   0  0  0  0  0  0  0  0  0  0  0  0
  -28.8434  -10.9534   16.7332 C   0  0  0  0  0  0  0  0  0  0  0  0
  -28.8595  -16.5919   12.8502 C   0  0  0  0  0  0  0  0  0  0  0  0
  -29.0695  -13.4715   16.7301 C   0  0  1  0  0  0  0  0  0  0  0  0
  -29.9907  -14.3880   13.1690 C   0  0  2  0  0  0  0  0  0  0  0  0
  -29.5831  -12.1504   17.3692 C   0  0  0  0  0  0  0  0  0  0  0  0
  -23.0423  -29.1146   23.6099 N   0  0  0  0  0  0  0  0  0  0  0  0
  -24.0477  -29.9662   23.3453 N   0  0  0  0  0  0  0  0  0  0  0  0
  -28.4907  -24.2438   22.1793 N   0  0  0  0  0  0  0  0  0  0  0  0
  -26.5332  -28.9741   26.0687 N   0  0  0  0  0  0  0  0  0  0  0  0
  -27.2791  -14.8797   17.6972 N   0  0  0  0  0  0  0  0  0  0  0  0
  -24.8420  -31.5080   21.7320 N   0  0  0  0  0  0  0  0  0  0  0  0
  -20.9926  -29.9937   19.9195 N   0  0  0  0  0  0  0  0  0  0  0  0
  -25.0153  -13.5036   19.7831 N   0  0  0  0  0  0  0  0  0  0  0  0
  -29.2359  -13.5390   15.2823 N   0  0  0  0  0  0  0  0  0  0  0  0
  -30.0173  -15.7250   12.5112 N   0  3  0  0  0  0  0  0  0  0  0  0
  -28.8680  -22.9682   18.9330 O   0  0  0  0  0  0  0  0  0  0  0  0
  -28.6570  -22.3398   23.5969 O   0  0  0  0  0  0  0  0  0  0  0  0
  -28.6112  -28.3534   26.9427 O   0  0  0  0  0  0  0  0  0  0  0  0
  -22.7789  -31.3945   19.5948 O   0  0  0  0  0  0  0  0  0  0  0  0
  -26.5248  -15.1510   20.4389 O   0  0  0  0  0  0  0  0  0  0  0  0
  -26.7744  -12.8876   16.5958 O   0  0  0  0  0  0  0  0  0  0  0  0
  -30.5327  -15.4612   15.2647 O   0  0  0  0  0  0  0  0  0  0  0  0
  -17.5434  -26.2435   22.1721 O   0  0  0  0  0  0  0  0  0  0  0  0
  -29.1651  -20.3724   19.7770 O   0  0  0  0  0  0  0  0  0  1  0  0
  -12.9732  -28.8429   20.5107 F   0  0  0  0  0  0  0  0  0  0  0  0
  -27.0172  -26.5319   21.6313 F   0  0  0  0  0  0  0  0  0  0  0  0
  -17.4258  -27.4607   19.6927 F   0  0  0  0  0  0  0  0  0  0  0  0
  1  2  1  0  0  0  0
  1  6  2  0  0  0  0
  2  7  2  0  0  0  0
  3 10  2  0  0  0  0
  3 18  1  0  0  0  0
  4 11  1  0  0  0  0
  4 18  2  0  0  0  0
  5  9  2  0  0  0  0
  5 19  1  0  0  0  0
  6 21  1  0  0  0  0
  7 23  1  0  0  0  0
  8 12  2  0  0  0  0
  8 22  1  0  0  0  0
  9 25  1  0  0  0  0
 10 26  1  0  0  0  0
 11 26  2  0  0  0  0
 12 27  1  0  0  0  0
 13 14  2  0  0  0  0
 13 28  1  0  0  0  0
 14 29  1  0  0  0  0
 15 19  2  0  0  0  0
 15 30  1  0  0  0  0
 16 24  1  0  0  0  0
 16 27  2  0  0  0  0
 17 29  2  0  0  0  0
 17 31  1  0  0  0  0
 18 32  1  0  0  0  0
 19 37  1  0  0  0  0
 20 32  1  0  0  0  0
 20 33  2  0  0  0  0
 20 38  1  0  0  0  0
 21 23  2  0  0  0  0
 21 43  1  0  0  0  0
 22 24  2  0  0  0  0
 22 44  1  0  0  0  0
 23 53  1  0  0  0  0
 24 45  1  0  0  0  0
 25 30  2  0  0  0  0
 25 67  1  0  0  0  0
 26 82  1  0  0  0  0
 27 83  1  0  0  0  0
 28 31  2  0  0  0  0
 28 82  1  0  0  0  0
 29 84  1  0  0  0  0
 30 85  1  0  0  0  0
 31 86  1  0  0  0  0
 32 65  2  0  0  0  0
 33 66  1  0  0  0  0
 33 70  1  0  0  0  0
 34 35  1  0  0  0  0
 34 36  1  0  0  0  0
 34 39  2  0  0  0  0
 35 46  1  0  0  0  0
 35 75  2  0  0  0  0
 36 67  1  0  0  0  0
 36 76  2  0  0  0  0
 37 68  1  0  0  0  0
 37 77  2  0  0  0  0
 38 71  1  0  0  0  0
 38 78  2  0  0  0  0
 39 56  1  0  0  0  0
 39 83  1  0  0  0  0
 40 54  1  0  0  0  0
 40 72  1  0  0  0  0
 40 79  2  0  0  0  0
 41 62  1  0  0  0  0
 41 69  1  0  0  0  0
 41 80  2  0  0  0  0
 42 63  1  0  0  0  0
 42 73  1  0  0  0  0
 42 81  2  0  0  0  0
 43 47  1  0  0  0  0
 44 54  1  0  0  0  0
 45 69  1  0  0  0  0
 46 67  1  0  0  0  0
 47 49  1  0  0  0  0
 48 50  1  0  0  0  0
 48 51  1  0  0  0  0
 49 53  1  0  0  0  0
 50 55  1  0  0  0  0
 51 68  1  0  0  0  0
 52 55  1  0  0  0  0
 52 68  1  0  0  0  0
 53 72  1  0  0  0  0
 54 69  1  0  0  0  0
 55 66  1  0  0  0  0
 57 63  1  0  0  0  0
 58 64  1  0  0  0  0
 59 64  1  0  0  0  0
 60 64  1  0  0  0  0
 61 74  1  0  0  0  0
 62 64  1  0  0  0  0
 62 73  1  0  0  0  0
 63 74  1  0  0  0  0
 65 66  1  0  0  0  0
M  CHG  1  74   1
M  ISO  4  19 100  37 100  39 101  83 101
M  END
> <Batch ID>
0083

> <Smiles>
CNC(C)C(=O)NC(C(=O)N1Cc2cc([101O:1][101C:1](C)=C3C(=O)CN(c4cc[100c:0]([100C:0](=O)N5CCCC(n6nc(-c7ccc(Oc8ccc(F)cc8F)cc7)c(C(N)=O)c6N)C5)cc4F)C3=O)ccc2CC1C(=O)NC1CCCc2ccccc21)C(C)(C)C

> <Shape>
0.261

> <Color>
0.073

> <Negative vol penalty>
0.000

$$$$

  -OEChem-04052300093D

 85 94  0     1  0  0  0  0  0999 V2000
  -27.0878  -37.8204   21.7281 C   0  0  0  0  0  0  0  0  0  0  0  0
  -27.7036  -36.6166   21.4008 C   0  0  0  0  0  0  0  0  0  0  0  0
  -23.4776   -9.0052   20.3855 C   0  0  0  0  0  0  0  0  0  0  0  0
  -23.1412  -10.6620   22.1114 C   0  0  0  0  0  0  0  0  0  0  0  0
  -26.0032  -37.8316   22.6041 C   0  0  0  0  0  0  0  0  0  0  0  0
  -27.2357  -35.4234   21.9502 C   0  0  0  0  0  0  0  0  0  0  0  0
  -27.1054  -29.9285   19.2493 C   0  0  0  0  0  0  0  0  0  0  0  0
  -30.1292  -19.8621   20.1720 C   0  0  0  0  0  0  0  0  0  0  0  0
  -30.0438  -18.4783   20.0196 C   0  0  0  0  0  0  0  0  0  0  0  0
  -22.7564   -8.0768   21.1361 C   0  0  0  0  0  0  0  0  0  0  0  0
  -22.4200   -9.7336   22.8620 C   0  0  0  0  0  0  0  0  0  0  0  0
  -27.9559  -28.8263   19.3237 C   0  0  0  0  0  0  0  0  0  0  0  0
  -23.2993   -6.0655   23.7977 C   0  0  0  0  0  0  0  0  0  0  0  0
  -23.8246   -4.7785   23.9135 C   0  0  0  0  0  0  0  0  0  0  0  0
  -26.5203  -27.8386   20.9918 C   0  0  0  0  0  0  0  0  0  0  0  0
  -27.8727  -20.0930   19.3401 C   0  0  0  0  0  0  0  0  0  0  0  0
  -21.8379   -3.8744   22.8776 C   0  0  0  0  0  0  0  0  0  0  0  0
  -23.6701  -10.2978   20.8731 C   0  0  0  0  0  0  0  0  0  0  0  0
  -23.9079  -12.1538   19.1392 C   0  0  0  0  0  0  0  0  0  0  0  0
  -25.5157  -36.6369   23.1570 C   0  0  0  0  0  0  0  0  0  0  0  0
  -25.9597  -29.9991   20.0549 C   0  0  0  0  0  0  0  0  0  0  0  0
  -26.1443  -35.4189   22.8355 C   0  0  0  0  0  0  0  0  0  0  0  0
  -25.6555  -28.9416   20.9239 C   0  0  0  0  0  0  0  0  0  0  0  0
  -29.0436  -20.6695   19.8323 C   0  0  0  0  0  0  0  0  0  0  0  0
  -28.8729  -17.9018   19.5273 C   0  0  0  0  0  0  0  0  0  0  0  0
  -22.2275   -8.4410   22.3743 C   0  0  0  0  0  0  0  0  0  0  0  0
  -27.6651  -27.7825   20.1971 C   0  0  0  0  0  0  0  0  0  0  0  0
  -22.0433   -6.2569   23.2219 C   0  0  0  0  0  0  0  0  0  0  0  0
  -23.0939   -3.6830   23.4535 C   0  0  0  0  0  0  0  0  0  0  0  0
  -27.7873  -18.7091   19.1876 C   0  0  0  0  0  0  0  0  0  0  0  0
  -21.3126   -5.1614   22.7619 C   0  0  0  0  0  0  0  0  0  0  0  0
  -24.4155  -11.2572   20.0985 C   0  0  0  0  0  0  0  0  0  0  0  0
  -25.0105  -12.8418   18.6949 C   0  0  0  0  0  0  0  0  0  0  0  0
  -28.6995  -24.3521   20.0155 C   0  0  0  0  0  0  0  0  0  0  0  0
  -28.1273  -23.0185   19.6898 C   0  0  0  0  0  0  0  0  0  0  0  0
  -27.9789  -25.4754   19.9750 C   0  0  0  0  0  0  0  0  0  1  0  0
  -22.5602  -12.3475   18.6900 C   0  0  0  0  0  0  0  0  0  0  0  0
  -24.9414  -31.9606   22.3394 C   0  0  0  0  0  0  0  0  0  0  0  0
  -22.2415  -30.1749   22.1289 C   0  0  0  0  0  0  0  0  0  0  0  0
  -20.7889  -27.2101   21.2649 C   0  0  0  0  0  0  0  0  0  0  0  0
  -29.7760  -15.5539   19.6632 C   0  0  0  0  0  0  0  0  0  0  0  0
  -24.3705  -36.7044   24.1361 C   0  0  0  0  0  0  0  0  0  0  0  0
  -25.0381  -31.1826   19.9433 C   0  0  0  0  0  0  0  0  0  0  0  0
  -24.4272  -28.9596   21.7953 C   0  0  0  0  0  0  0  0  0  0  0  0
  -30.1318  -24.2193   20.3987 C   0  0  0  0  0  0  0  0  0  0  0  0
  -23.6993  -35.3556   24.3822 C   0  0  0  0  0  0  0  0  0  0  0  0
  -29.9439  -12.0034   19.4569 C   0  0  0  0  0  0  0  0  0  0  0  0
  -24.7475  -34.2730   24.6191 C   0  0  0  0  0  0  0  0  0  0  0  0
  -28.4788  -11.5665   19.5265 C   0  0  0  0  0  0  0  0  0  0  0  0
  -30.3072  -22.7190   20.5660 C   0  0  0  0  0  0  0  0  0  0  0  0
  -30.2196  -13.2086   20.3543 C   0  0  0  0  0  0  0  0  0  0  0  0
  -27.8656  -13.9209   20.2104 C   0  0  0  0  0  0  0  0  0  0  0  0
  -25.6502  -34.1010   23.3915 C   0  0  1  0  0  0  0  0  0  0  0  0
  -24.1730  -31.3852   21.1835 C   0  0  1  0  0  0  0  0  0  0  0  0
  -27.5251  -12.7505   19.2735 C   0  0  2  0  0  0  0  0  0  0  0  0
  -18.5716  -26.0351   21.2437 C   0  0  0  0  0  0  0  0  0  0  0  0
  -22.4529  -29.7267   25.1396 C   0  0  0  0  0  0  0  0  0  0  0  0
  -20.8320  -27.8335   24.9013 C   0  0  0  0  0  0  0  0  0  0  0  0
  -20.1330  -30.1537   24.3089 C   0  0  0  0  0  0  0  0  0  0  0  0
  -20.8443  -26.9116   18.3210 C   0  0  0  0  0  0  0  0  0  0  0  0
  -21.7367  -28.9176   22.7948 C   0  0  1  0  0  0  0  0  0  0  0  0
  -19.5446  -26.8966   20.4539 C   0  0  2  0  0  0  0  0  0  0  0  0
  -21.3129  -29.1581   24.2713 C   0  0  0  0  0  0  0  0  0  0  0  0
  -25.7377  -11.3635   20.2549 N   0  0  0  0  0  0  0  0  0  0  0  0
  -26.0703  -12.3349   19.3878 N   0  0  0  0  0  0  0  0  0  0  0  0
  -29.1311  -22.0879   19.9879 N   0  0  0  0  0  0  0  0  0  0  0  0
  -23.5605  -30.1414   21.6547 N   0  0  0  0  0  0  0  0  0  0  0  0
  -29.2808  -14.2921   20.0551 N   0  0  0  0  0  0  0  0  0  0  0  0
  -25.1672  -13.8247   17.7829 N   0  0  0  0  0  0  0  0  0  0  0  0
  -21.5486  -11.5563   19.2512 N   0  0  0  0  0  0  0  0  0  0  0  0
  -28.7893  -16.4957   19.3731 N   0  0  0  0  0  0  0  0  0  0  0  0
  -24.9684  -33.3419   22.3652 N   0  0  0  0  0  0  0  0  0  0  0  0
  -20.6692  -28.4049   21.9427 N   0  0  0  0  0  0  0  0  0  0  0  0
  -19.9096  -26.1693   19.2054 N   0  3  0  0  0  0  0  0  0  0  0  0
  -26.9964  -22.8619   19.2604 O   0  0  0  0  0  0  0  0  0  0  0  0
  -22.2641  -13.1856   17.8049 O   0  0  0  0  0  0  0  0  0  0  0  0
  -25.4693  -31.2071   23.1489 O   0  0  0  0  0  0  0  0  0  0  0  0
  -21.4908  -31.1483   22.0267 O   0  0  0  0  0  0  0  0  0  0  0  0
  -21.7676  -26.4673   21.2972 O   0  0  0  0  0  0  0  0  0  0  0  0
  -30.9858  -15.7741   19.5641 O   0  0  0  0  0  0  0  0  0  0  0  0
  -21.5235   -7.5353   23.1069 O   0  0  0  0  0  0  0  0  0  0  0  0
  -28.4939  -26.7059   20.2722 O   0  0  0  0  0  0  0  0  0  1  0  0
  -23.5991   -2.4473   23.5633 F   0  0  0  0  0  0  0  0  0  0  0  0
  -26.6574  -18.1661   18.7121 F   0  0  0  0  0  0  0  0  0  0  0  0
  -20.1060   -5.3392   22.2067 F   0  0  0  0  0  0  0  0  0  0  0  0
  1  2  1  0  0  0  0
  1  5  2  0  0  0  0
  2  6  2  0  0  0  0
  3 10  2  0  0  0  0
  3 18  1  0  0  0  0
  4 11  1  0  0  0  0
  4 18  2  0  0  0  0
  5 20  1  0  0  0  0
  6 22  1  0  0  0  0
  7 12  2  0  0  0  0
  7 21  1  0  0  0  0
  8  9  2  0  0  0  0
  8 24  1  0  0  0  0
  9 25  1  0  0  0  0
 10 26  1  0  0  0  0
 11 26  2  0  0  0  0
 12 27  1  0  0  0  0
 13 14  2  0  0  0  0
 13 28  1  0  0  0  0
 14 29  1  0  0  0  0
 15 23  1  0  0  0  0
 15 27  2  0  0  0  0
 16 24  2  0  0  0  0
 16 30  1  0  0  0  0
 17 29  2  0  0  0  0
 17 31  1  0  0  0  0
 18 32  1  0  0  0  0
 19 32  1  0  0  0  0
 19 33  2  0  0  0  0
 19 37  1  0  0  0  0
 20 22  2  0  0  0  0
 20 42  1  0  0  0  0
 21 23  2  0  0  0  0
 21 43  1  0  0  0  0
 22 53  1  0  0  0  0
 23 44  1  0  0  0  0
 24 66  1  0  0  0  0
 25 30  2  0  0  0  0
 25 71  1  0  0  0  0
 26 81  1  0  0  0  0
 27 82  1  0  0  0  0
 28 31  2  0  0  0  0
 28 81  1  0  0  0  0
 29 83  1  0  0  0  0
 30 84  1  0  0  0  0
 31 85  1  0  0  0  0
 32 64  2  0  0  0  0
 33 65  1  0  0  0  0
 33 69  1  0  0  0  0
 34 35  1  0  0  0  0
 34 36  2  0  0  0  0
 34 45  1  0  0  0  0
 35 66  1  0  0  0  0
 35 75  2  0  0  0  0
 36 82  1  0  0  0  0
 37 70  1  0  0  0  0
 37 76  2  0  0  0  0
 38 54  1  0  0  0  0
 38 72  1  0  0  0  0
 38 77  2  0  0  0  0
 39 61  1  0  0  0  0
 39 67  1  0  0  0  0
 39 78  2  0  0  0  0
 40 62  1  0  0  0  0
 40 73  1  0  0  0  0
 40 79  2  0  0  0  0
 41 68  1  0  0  0  0
 41 71  1  0  0  0  0
 41 80  2  0  0  0  0
 42 46  1  0  0  0  0
 43 54  1  0  0  0  0
 44 67  1  0  0  0  0
 45 50  1  0  0  0  0
 46 48  1  0  0  0  0
 47 49  1  0  0  0  0
 47 51  1  0  0  0  0
 48 53  1  0  0  0  0
 49 55  1  0  0  0  0
 50 66  1  0  0  0  0
 51 68  1  0  0  0  0
 52 55  1  0  0  0  0
 52 68  1  0  0  0  0
 53 72  1  0  0  0  0
 54 67  1  0  0  0  0
 55 65  1  0  0  0  0
 56 62  1  0  0  0  0
 57 63  1  0  0  0  0
 58 63  1  0  0  0  0
 59 63  1  0  0  0  0
 60 74  1  0  0  0  0
 61 63  1  0  0  0  0
 61 73  1  0  0  0  0
 62 74  1  0  0  0  0
 64 65  1  0  0  0  0
M  CHG  1  74   1
M  ISO  4  36 101  41 100  71 100  82 101
M  END
> <Batch ID>
0083

> <Smiles>
CNC(C)C(=O)NC(C(=O)N1Cc2cc([101O:1][101CH:1]=C3CCN(c4ccc([100NH:0][100C:0](=O)N5CCCC(n6nc(-c7ccc(Oc8ccc(F)cc8F)cc7)c(C(N)=O)c6N)C5)c(F)c4)C3=O)ccc2CC1C(=O)NC1CCCc2ccccc21)C(C)(C)C

> <Shape>
0.369

> <Color>
0.113

> <Negative vol penalty>
0.000

$$$$

  -OEChem-04052300093D

 84 93  0     1  0  0  0  0  0999 V2000
  -16.6402  -28.9256   24.2157 C   0  0  0  0  0  0  0  0  0  0  0  0
  -17.5335  -27.8592   24.2070 C   0  0  0  0  0  0  0  0  0  0  0  0
  -32.5357  -18.4685   21.6484 C   0  0  0  0  0  0  0  0  0  0  0  0
  -23.0566   -9.9662   21.5324 C   0  0  0  0  0  0  0  0  0  0  0  0
  -23.7558  -10.9675   23.6171 C   0  0  0  0  0  0  0  0  0  0  0  0
  -16.8949  -30.0533   23.4364 C   0  0  0  0  0  0  0  0  0  0  0  0
  -18.6816  -27.9194   23.4179 C   0  0  0  0  0  0  0  0  0  0  0  0
  -24.1774  -25.5559   24.7281 C   0  0  0  0  0  0  0  0  0  0  0  0
  -31.7206  -19.5643   21.9320 C   0  0  0  0  0  0  0  0  0  0  0  0
  -31.9693  -17.2759   21.1983 C   0  0  0  0  0  0  0  0  0  0  0  0
  -22.3069   -9.0239   22.2364 C   0  0  0  0  0  0  0  0  0  0  0  0
  -23.0060  -10.0252   24.3211 C   0  0  0  0  0  0  0  0  0  0  0  0
  -24.8069  -24.3740   24.3399 C   0  0  0  0  0  0  0  0  0  0  0  0
  -22.8729   -6.1599   23.9397 C   0  0  0  0  0  0  0  0  0  0  0  0
  -22.9649   -4.8276   23.5370 C   0  0  0  0  0  0  0  0  0  0  0  0
  -25.9416  -25.5651   22.5755 C   0  0  0  0  0  0  0  0  0  0  0  0
  -20.5904   -4.7981   23.0920 C   0  0  0  0  0  0  0  0  0  0  0  0
  -23.7811  -10.9380   22.2228 C   0  0  0  0  0  0  0  0  0  0  0  0
  -24.1249  -13.1701   21.0365 C   0  0  0  0  0  0  0  0  0  0  0  0
  -18.0516  -30.1313   22.6448 C   0  0  0  0  0  0  0  0  0  0  0  0
  -24.4173  -26.7510   24.0349 C   0  0  0  0  0  0  0  0  0  0  0  0
  -18.9514  -29.0486   22.6261 C   0  0  0  0  0  0  0  0  0  0  0  0
  -25.3158  -26.7612   22.9585 C   0  0  0  0  0  0  0  0  0  0  0  0
  -30.3391  -19.4675   21.7656 C   0  0  0  0  0  0  0  0  0  0  0  0
  -30.5878  -17.1791   21.0319 C   0  0  0  0  0  0  0  0  0  0  0  0
  -22.2816   -9.0534   23.6307 C   0  0  0  0  0  0  0  0  0  0  0  0
  -25.6869  -24.3779   23.2617 C   0  0  0  0  0  0  0  0  0  0  0  0
  -21.6396   -6.8113   23.9186 C   0  0  0  0  0  0  0  0  0  0  0  0
  -21.8237   -4.1467   23.1131 C   0  0  0  0  0  0  0  0  0  0  0  0
  -20.4984   -6.1304   23.4947 C   0  0  0  0  0  0  0  0  0  0  0  0
  -29.7726  -18.2749   21.3155 C   0  0  0  0  0  0  0  0  0  0  0  0
  -24.5562  -11.9113   21.4962 C   0  0  0  0  0  0  0  0  0  0  0  0
  -25.2259  -13.7033   20.4121 C   0  0  0  0  0  0  0  0  0  0  0  0
  -28.3814  -22.1027   22.5505 C   0  0  0  0  0  0  0  0  0  0  0  0
  -29.8123  -21.8028   22.4873 C   0  0  0  0  0  0  0  0  0  0  0  0
  -27.6681  -23.1867   22.9055 C   0  0  0  0  0  0  0  0  0  1  0  0
  -22.8436  -13.8009   21.1627 C   0  0  0  0  0  0  0  0  0  0  0  0
  -22.6255  -28.7672   22.3532 C   0  0  0  0  0  0  0  0  0  0  0  0
  -25.3493  -30.5280   22.2961 C   0  0  0  0  0  0  0  0  0  0  0  0
  -28.7542  -30.6053   22.5132 C   0  0  0  0  0  0  0  0  0  0  0  0
  -30.6851  -14.7866   20.2492 C   0  0  0  0  0  0  0  0  0  0  0  0
  -18.2602  -31.3511   21.7826 C   0  0  0  0  0  0  0  0  0  0  0  0
  -23.7508  -28.0228   24.4829 C   0  0  0  0  0  0  0  0  0  0  0  0
  -25.6231  -28.0220   22.1940 C   0  0  0  0  0  0  0  0  0  0  0  0
  -28.0940  -20.7020   22.0604 C   0  0  0  0  0  0  0  0  0  0  0  0
  -19.6885  -31.4924   21.2627 C   0  0  0  0  0  0  0  0  0  0  0  0
  -29.6346  -11.5761   19.1237 C   0  0  0  0  0  0  0  0  0  0  0  0
  -20.1894  -30.1620   20.7095 C   0  0  0  0  0  0  0  0  0  0  0  0
  -28.1843  -11.4807   19.6028 C   0  0  0  0  0  0  0  0  0  0  0  0
  -30.5176  -12.3101   20.1314 C   0  0  0  0  0  0  0  0  0  0  0  0
  -28.5746  -13.5355   21.0213 C   0  0  0  0  0  0  0  0  0  0  0  0
  -20.2203  -29.0867   21.8024 C   0  0  1  0  0  0  0  0  0  0  0  0
  -23.6749  -29.0772   23.3830 C   0  0  1  0  0  0  0  0  0  0  0  0
  -27.6332  -12.8613   20.0099 C   0  0  2  0  0  0  0  0  0  0  0  0
  -30.7007  -32.1844   22.3891 C   0  0  0  0  0  0  0  0  0  0  0  0
  -25.0770  -30.6210   19.2585 C   0  0  0  0  0  0  0  0  0  0  0  0
  -27.4686  -31.3513   19.1362 C   0  0  0  0  0  0  0  0  0  0  0  0
  -25.7898  -32.7760   20.3085 C   0  0  0  0  0  0  0  0  0  0  0  0
  -29.5741  -29.9968   25.2911 C   0  0  0  0  0  0  0  0  0  0  0  0
  -26.5468  -30.6154   21.3811 C   0  0  1  0  0  0  0  0  0  0  0  0
  -29.6932  -31.5012   23.3007 C   0  0  2  0  0  0  0  0  0  0  0  0
  -26.2135  -31.3166   20.0340 C   0  0  0  0  0  0  0  0  0  0  0  0
  -25.8317  -11.6598   21.1898 N   0  0  0  0  0  0  0  0  0  0  0  0
  -26.2113  -12.7679   20.5308 N   0  0  0  0  0  0  0  0  0  0  0  0
  -29.5382  -20.5502   22.0460 N   0  0  0  0  0  0  0  0  0  0  0  0
  -24.9417  -29.2386   22.6664 N   0  0  0  0  0  0  0  0  0  0  0  0
  -29.9353  -13.6113   20.4666 N   0  0  0  0  0  0  0  0  0  0  0  0
  -25.4376  -14.8764   19.7785 N   0  0  0  0  0  0  0  0  0  0  0  0
  -21.8235  -13.1133   21.8342 N   0  0  0  0  0  0  0  0  0  0  0  0
  -30.0160  -15.9659   20.5746 N   0  0  0  0  0  0  0  0  0  0  0  0
  -21.3739  -29.2679   22.6572 N   0  0  0  0  0  0  0  0  0  0  0  0
  -27.6011  -31.2682   22.1497 N   0  0  0  0  0  0  0  0  0  0  0  0
  -30.4411  -30.7043   24.3140 N   0  3  0  0  0  0  0  0  0  0  0  0
  -30.8307  -22.4132   22.7381 O   0  0  0  0  0  0  0  0  0  0  0  0
  -22.6053  -14.9338   20.6796 O   0  0  0  0  0  0  0  0  0  0  0  0
  -22.9292  -28.1230   21.3561 O   0  0  0  0  0  0  0  0  0  0  0  0
  -24.8002  -31.5658   22.6743 O   0  0  0  0  0  0  0  0  0  0  0  0
  -29.0190  -29.4357   22.2440 O   0  0  0  0  0  0  0  0  0  0  0  0
  -31.8261  -14.7511   19.7813 O   0  0  0  0  0  0  0  0  0  0  0  0
  -21.5500   -8.1342   24.3180 O   0  0  0  0  0  0  0  0  0  0  0  0
  -26.3022  -23.2256   22.8803 O   0  0  0  0  0  0  0  0  0  1  0  0
  -21.9125   -2.8678   22.7250 F   0  0  0  0  0  0  0  0  0  0  0  0
  -19.3110   -6.7512   23.4712 F   0  0  0  0  0  0  0  0  0  0  0  0
  -28.4434  -18.1816   21.1564 F   0  0  0  0  0  0  0  0  0  0  0  0
  1  2  1  0  0  0  0
  1  6  2  0  0  0  0
  2  7  2  0  0  0  0
  3  9  2  0  0  0  0
  3 10  1  0  0  0  0
  4 11  2  0  0  0  0
  4 18  1  0  0  0  0
  5 12  1  0  0  0  0
  5 18  2  0  0  0  0
  6 20  1  0  0  0  0
  7 22  1  0  0  0  0
  8 13  2  0  0  0  0
  8 21  1  0  0  0  0
  9 24  1  0  0  0  0
 10 25  2  0  0  0  0
 11 26  1  0  0  0  0
 12 26  2  0  0  0  0
 13 27  1  0  0  0  0
 14 15  2  0  0  0  0
 14 28  1  0  0  0  0
 15 29  1  0  0  0  0
 16 23  1  0  0  0  0
 16 27  2  0  0  0  0
 17 29  2  0  0  0  0
 17 30  1  0  0  0  0
 18 32  1  0  0  0  0
 19 32  1  0  0  0  0
 19 33  2  0  0  0  0
 19 37  1  0  0  0  0
 20 22  2  0  0  0  0
 20 42  1  0  0  0  0
 21 23  2  0  0  0  0
 21 43  1  0  0  0  0
 22 52  1  0  0  0  0
 23 44  1  0  0  0  0
 24 31  2  0  0  0  0
 24 65  1  0  0  0  0
 25 31  1  0  0  0  0
 25 70  1  0  0  0  0
 26 80  1  0  0  0  0
 27 81  1  0  0  0  0
 28 30  2  0  0  0  0
 28 80  1  0  0  0  0
 29 82  1  0  0  0  0
 30 83  1  0  0  0  0
 31 84  1  0  0  0  0
 32 63  2  0  0  0  0
 33 64  1  0  0  0  0
 33 68  1  0  0  0  0
 34 35  1  0  0  0  0
 34 36  2  0  0  0  0
 34 45  1  0  0  0  0
 35 65  1  0  0  0  0
 35 74  2  0  0  0  0
 36 81  1  0  0  0  0
 37 69  1  0  0  0  0
 37 75  2  0  0  0  0
 38 53  1  0  0  0  0
 38 71  1  0  0  0  0
 38 76  2  0  0  0  0
 39 60  1  0  0  0  0
 39 66  1  0  0  0  0
 39 77  2  0  0  0  0
 40 61  1  0  0  0  0
 40 72  1  0  0  0  0
 40 78  2  0  0  0  0
 41 67  1  0  0  0  0
 41 70  1  0  0  0  0
 41 79  2  0  0  0  0
 42 46  1  0  0  0  0
 43 53  1  0  0  0  0
 44 66  1  0  0  0  0
 45 65  1  0  0  0  0
 46 48  1  0  0  0  0
 47 49  1  0  0  0  0
 47 50  1  0  0  0  0
 48 52  1  0  0  0  0
 49 54  1  0  0  0  0
 50 67  1  0  0  0  0
 51 54  1  0  0  0  0
 51 67  1  0  0  0  0
 52 71  1  0  0  0  0
 53 66  1  0  0  0  0
 54 64  1  0  0  0  0
 55 61  1  0  0  0  0
 56 62  1  0  0  0  0
 57 62  1  0  0  0  0
 58 62  1  0  0  0  0
 59 73  1  0  0  0  0
 60 62  1  0  0  0  0
 60 72  1  0  0  0  0
 61 73  1  0  0  0  0
 63 64  1  0  0  0  0
M  CHG  1  73   1
M  ISO  4  36 101  41 100  70 100  81 101
M  END
> <Batch ID>
0083

> <Smiles>
CNC(C)C(=O)NC(C(=O)N1Cc2cc([101O:1][101CH:1]=C3CN(c4cccc([100NH:0][100C:0](=O)N5CCCC(n6nc(-c7ccc(Oc8ccc(F)cc8F)cc7)c(C(N)=O)c6N)C5)c4F)C3=O)ccc2CC1C(=O)NC1CCCc2ccccc21)C(C)(C)C

> <Shape>
0.281

> <Color>
0.190

> <Negative vol penalty>
0.000

$$$$

  -OEChem-04052300093D

 84 93  0     1  0  0  0  0  0999 V2000
  -28.5777  -36.2658   21.5224 C   0  0  0  0  0  0  0  0  0  0  0  0
  -28.7404  -34.8920   21.6702 C   0  0  0  0  0  0  0  0  0  0  0  0
  -32.8659  -20.5893   21.3176 C   0  0  0  0  0  0  0  0  0  0  0  0
  -24.1690  -15.0186   22.2960 C   0  0  0  0  0  0  0  0  0  0  0  0
  -26.0222  -13.4995   21.9878 C   0  0  0  0  0  0  0  0  0  0  0  0
  -32.7503  -19.6089   20.3322 C   0  0  0  0  0  0  0  0  0  0  0  0
  -27.3740  -36.8673   21.8874 C   0  0  0  0  0  0  0  0  0  0  0  0
  -27.6997  -34.1191   22.1841 C   0  0  0  0  0  0  0  0  0  0  0  0
  -26.9691  -29.8515   19.5575 C   0  0  0  0  0  0  0  0  0  0  0  0
  -32.0280  -21.7042   21.2938 C   0  0  0  0  0  0  0  0  0  0  0  0
  -23.3327  -13.9400   22.5840 C   0  0  0  0  0  0  0  0  0  0  0  0
  -25.1860  -12.4209   22.2758 C   0  0  0  0  0  0  0  0  0  0  0  0
  -27.8552  -28.8007   19.7908 C   0  0  0  0  0  0  0  0  0  0  0  0
  -22.8373  -10.5920   20.6728 C   0  0  0  0  0  0  0  0  0  0  0  0
  -22.9179   -9.4709   19.8469 C   0  0  0  0  0  0  0  0  0  0  0  0
  -30.9590  -20.8583   19.2992 C   0  0  0  0  0  0  0  0  0  0  0  0
  -26.2269  -27.7556   21.2314 C   0  0  0  0  0  0  0  0  0  0  0  0
  -23.5375   -8.1149   21.7482 C   0  0  0  0  0  0  0  0  0  0  0  0
  -25.5137  -14.7984   21.9978 C   0  0  0  0  0  0  0  0  0  0  0  0
  -31.7969  -19.7433   19.3230 C   0  0  0  0  0  0  0  0  0  0  0  0
  -27.1443  -16.6615   22.6122 C   0  0  0  0  0  0  0  0  0  0  0  0
  -26.3146  -36.1000   22.3970 C   0  0  0  0  0  0  0  0  0  0  0  0
  -25.7073  -29.8677   20.1691 C   0  0  0  0  0  0  0  0  0  0  0  0
  -26.4812  -34.7111   22.5574 C   0  0  0  0  0  0  0  0  0  0  0  0
  -25.3257  -28.8065   21.0022 C   0  0  0  0  0  0  0  0  0  0  0  0
  -31.0746  -21.8387   20.2846 C   0  0  0  0  0  0  0  0  0  0  0  0
  -23.8412  -12.6412   22.5739 C   0  0  0  0  0  0  0  0  0  0  0  0
  -27.4852  -27.7539   20.6302 C   0  0  0  0  0  0  0  0  0  0  0  0
  -23.1068  -10.4746   22.0364 C   0  0  0  0  0  0  0  0  0  0  0  0
  -23.2680   -8.2323   20.3846 C   0  0  0  0  0  0  0  0  0  0  0  0
  -23.4569   -9.2361   22.5740 C   0  0  0  0  0  0  0  0  0  0  0  0
  -26.3779  -15.9121   21.6996 C   0  0  0  0  0  0  0  0  0  0  0  0
  -27.7835  -17.5975   21.8364 C   0  0  0  0  0  0  0  0  0  0  0  0
  -29.1041  -24.5762   20.1572 C   0  0  0  0  0  0  0  0  0  0  0  0
  -29.2553  -23.3207   19.4208 C   0  0  0  0  0  0  0  0  0  0  0  0
  -28.2998  -25.6466   20.0251 C   0  0  0  0  0  0  0  0  0  1  0  0
  -31.6775  -18.7204   18.2964 C   0  0  0  0  0  0  0  0  0  0  0  0
  -27.2673  -16.5239   24.0340 C   0  0  0  0  0  0  0  0  0  0  0  0
  -30.6766  -18.8309   17.2104 C   0  0  0  0  0  0  0  0  0  0  0  0
  -24.2325  -31.7989   22.2182 C   0  0  0  0  0  0  0  0  0  0  0  0
  -21.7014  -29.8598   21.6217 C   0  0  0  0  0  0  0  0  0  0  0  0
  -20.5679  -26.8056   20.6048 C   0  0  0  0  0  0  0  0  0  0  0  0
  -25.0490  -36.8015   22.8220 C   0  0  0  0  0  0  0  0  0  0  0  0
  -24.7528  -30.9952   19.8860 C   0  0  0  0  0  0  0  0  0  0  0  0
  -23.9747  -28.7664   21.6669 C   0  0  0  0  0  0  0  0  0  0  0  0
  -30.2142  -24.1350   21.0833 C   0  0  0  0  0  0  0  0  0  0  0  0
  -23.8630  -35.8586   23.0080 C   0  0  0  0  0  0  0  0  0  0  0  0
  -27.0976  -18.9133   17.0095 C   0  0  0  0  0  0  0  0  0  0  0  0
  -24.2772  -34.6325   23.8153 C   0  0  0  0  0  0  0  0  0  0  0  0
  -26.6560  -18.1667   18.2678 C   0  0  0  0  0  0  0  0  0  0  0  0
  -28.3894  -18.3347   16.4414 C   0  0  0  0  0  0  0  0  0  0  0  0
  -29.0768  -17.5438   18.6888 C   0  0  0  0  0  0  0  0  0  0  0  0
  -25.3668  -33.8354   23.0880 C   0  0  1  0  0  0  0  0  0  0  0  0
  -23.6910  -31.1651   20.9681 C   0  0  1  0  0  0  0  0  0  0  0  0
  -27.7900  -18.1176   19.3072 C   0  0  2  0  0  0  0  0  0  0  0  0
  -18.4493  -25.5062   20.2581 C   0  0  0  0  0  0  0  0  0  0  0  0
  -21.4527  -29.4652   24.6371 C   0  0  0  0  0  0  0  0  0  0  0  0
  -19.9954  -27.4798   24.1869 C   0  0  0  0  0  0  0  0  0  0  0  0
  -19.2758  -29.7482   23.4390 C   0  0  0  0  0  0  0  0  0  0  0  0
  -21.1093  -26.4709   17.7145 C   0  0  0  0  0  0  0  0  0  0  0  0
  -21.1653  -28.5849   22.2270 C   0  0  1  0  0  0  0  0  0  0  0  0
  -19.4880  -26.4108   19.6136 C   0  0  2  0  0  0  0  0  0  0  0  0
  -20.4986  -28.8210   23.6116 C   0  0  0  0  0  0  0  0  0  0  0  0
  -26.5162  -16.3355   20.4404 N   0  0  0  0  0  0  0  0  0  0  0  0
  -32.4293  -17.6535   18.2567 N   0  0  0  0  0  0  0  0  0  0  0  0
  -27.3768  -17.3612   20.5562 N   0  0  0  0  0  0  0  0  0  0  0  0
  -30.2481  -22.9382   20.2615 N   0  0  0  0  0  0  0  0  0  0  0  0
  -29.4330  -18.2688   17.4626 N   0  0  0  0  0  0  0  0  0  0  0  0
  -23.0791  -29.8950   21.3639 N   0  0  0  0  0  0  0  0  0  0  0  0
  -28.6482  -18.5914   22.1313 N   0  0  0  0  0  0  0  0  0  0  0  0
  -26.5410  -15.5095   24.6725 N   0  0  0  0  0  0  0  0  0  0  0  0
  -24.7892  -33.0480   22.0200 N   0  0  0  0  0  0  0  0  0  0  0  0
  -20.2770  -28.0007   21.2279 N   0  0  0  0  0  0  0  0  0  0  0  0
  -20.0867  -25.6886   18.4557 N   0  3  0  0  0  0  0  0  0  0  0  0
  -28.7247  -22.8247   18.4487 O   0  0  0  0  0  0  0  0  0  0  0  0
  -27.9870  -17.2887   24.7202 O   0  0  0  0  0  0  0  0  0  0  0  0
  -31.0559  -19.4092   16.2005 O   0  0  0  0  0  0  0  0  0  0  0  0
  -24.1499  -31.1997   23.2840 O   0  0  0  0  0  0  0  0  0  0  0  0
  -20.9252  -30.7874   21.3797 O   0  0  0  0  0  0  0  0  0  0  0  0
  -21.5675  -26.1203   20.8088 O   0  0  0  0  0  0  0  0  0  0  0  0
  -23.0255  -11.5885   22.8552 O   0  0  0  0  0  0  0  0  0  0  0  0
  -28.3484  -26.7273   20.8601 O   0  0  0  0  0  0  0  0  0  1  0  0
  -23.3439   -7.1554   19.5916 F   0  0  0  0  0  0  0  0  0  0  0  0
  -23.7158   -9.1169   23.8835 F   0  0  0  0  0  0  0  0  0  0  0  0
  1  2  1  0  0  0  0
  1  7  2  0  0  0  0
  2  8  2  0  0  0  0
  3  6  1  0  0  0  0
  3 10  2  0  0  0  0
  4 11  2  0  0  0  0
  4 19  1  0  0  0  0
  5 12  1  0  0  0  0
  5 19  2  0  0  0  0
  6 20  2  0  0  0  0
  7 22  1  0  0  0  0
  8 24  1  0  0  0  0
  9 13  2  0  0  0  0
  9 23  1  0  0  0  0
 10 26  1  0  0  0  0
 11 27  1  0  0  0  0
 12 27  2  0  0  0  0
 13 28  1  0  0  0  0
 14 15  2  0  0  0  0
 14 29  1  0  0  0  0
 15 30  1  0  0  0  0
 16 20  1  0  0  0  0
 16 26  2  0  0  0  0
 17 25  1  0  0  0  0
 17 28  2  0  0  0  0
 18 30  2  0  0  0  0
 18 31  1  0  0  0  0
 19 32  1  0  0  0  0
 20 37  1  0  0  0  0
 21 32  1  0  0  0  0
 21 33  2  0  0  0  0
 21 38  1  0  0  0  0
 22 24  2  0  0  0  0
 22 43  1  0  0  0  0
 23 25  2  0  0  0  0
 23 44  1  0  0  0  0
 24 53  1  0  0  0  0
 25 45  1  0  0  0  0
 26 67  1  0  0  0  0
 27 81  1  0  0  0  0
 28 82  1  0  0  0  0
 29 31  2  0  0  0  0
 29 81  1  0  0  0  0
 30 83  1  0  0  0  0
 31 84  1  0  0  0  0
 32 64  2  0  0  0  0
 33 66  1  0  0  0  0
 33 70  1  0  0  0  0
 34 35  1  0  0  0  0
 34 36  2  0  0  0  0
 34 46  1  0  0  0  0
 35 67  1  0  0  0  0
 35 75  2  0  0  0  0
 36 82  1  0  0  0  0
 37 39  1  0  0  0  0
 37 65  2  0  0  0  0
 38 71  1  0  0  0  0
 38 76  2  0  0  0  0
 39 68  1  0  0  0  0
 39 77  2  0  0  0  0
 40 54  1  0  0  0  0
 40 72  1  0  0  0  0
 40 78  2  0  0  0  0
 41 61  1  0  0  0  0
 41 69  1  0  0  0  0
 41 79  2  0  0  0  0
 42 62  1  0  0  0  0
 42 73  1  0  0  0  0
 42 80  2  0  0  0  0
 43 47  1  0  0  0  0
 44 54  1  0  0  0  0
 45 69  1  0  0  0  0
 46 67  1  0  0  0  0
 47 49  1  0  0  0  0
 48 50  1  0  0  0  0
 48 51  1  0  0  0  0
 49 53  1  0  0  0  0
 50 55  1  0  0  0  0
 51 68  1  0  0  0  0
 52 55  1  0  0  0  0
 52 68  1  0  0  0  0
 53 72  1  0  0  0  0
 54 69  1  0  0  0  0
 55 66  1  0  0  0  0
 56 62  1  0  0  0  0
 57 63  1  0  0  0  0
 58 63  1  0  0  0  0
 59 63  1  0  0  0  0
 60 74  1  0  0  0  0
 61 63  1  0  0  0  0
 61 73  1  0  0  0  0
 62 74  1  0  0  0  0
 64 66  1  0  0  0  0
M  CHG  1  74   1
M  ISO  4  36 101  37 100  39 100  82 101
M  END
> <Batch ID>
0083

> <Smiles>
CNC(C)C(=O)NC(C(=O)N1Cc2cc([101O:1][101CH:1]=C3CN(c4cccc([100C:0](=N)[100C:0](=O)N5CCCC(n6nc(-c7ccc(Oc8ccc(F)cc8F)cc7)c(C(N)=O)c6N)C5)c4)C3=O)ccc2CC1C(=O)NC1CCCc2ccccc21)C(C)(C)C

> <Shape>
0.256

> <Color>
0.074

> <Negative vol penalty>
0.000

$$$$

  -OEChem-04052300093D

 85 94  0     1  0  0  0  0  0999 V2000
  -33.6268  -33.2966   16.3725 C   0  0  0  0  0  0  0  0  0  0  0  0
  -32.9231  -32.2667   16.9887 C   0  0  0  0  0  0  0  0  0  0  0  0
  -24.5316   -9.4398   21.6108 C   0  0  0  0  0  0  0  0  0  0  0  0
  -24.6971  -10.6827   23.6760 C   0  0  0  0  0  0  0  0  0  0  0  0
  -33.7641  -34.5268   17.0142 C   0  0  0  0  0  0  0  0  0  0  0  0
  -32.3572  -32.4661   18.2474 C   0  0  0  0  0  0  0  0  0  0  0  0
  -27.6279  -30.6819   18.5561 C   0  0  0  0  0  0  0  0  0  0  0  0
  -29.3943  -21.2478   19.8457 C   0  0  0  0  0  0  0  0  0  0  0  0
  -29.4681  -19.8626   19.9916 C   0  0  0  0  0  0  0  0  0  0  0  0
  -24.2124   -8.2879   22.3297 C   0  0  0  0  0  0  0  0  0  0  0  0
  -24.3778   -9.5307   24.3949 C   0  0  0  0  0  0  0  0  0  0  0  0
  -27.4758  -29.3050   18.7138 C   0  0  0  0  0  0  0  0  0  0  0  0
  -21.4958   -6.9790   23.8592 C   0  0  0  0  0  0  0  0  0  0  0  0
  -20.4382   -6.1972   23.3946 C   0  0  0  0  0  0  0  0  0  0  0  0
  -27.1161  -29.6217   21.0780 C   0  0  0  0  0  0  0  0  0  0  0  0
  -27.1084  -21.2084   20.6269 C   0  0  0  0  0  0  0  0  0  0  0  0
  -21.9390   -4.3219   23.1340 C   0  0  0  0  0  0  0  0  0  0  0  0
  -24.7740  -10.6372   22.2840 C   0  0  0  0  0  0  0  0  0  0  0  0
  -24.2098  -12.7889   21.0352 C   0  0  0  0  0  0  0  0  0  0  0  0
  -33.1913  -34.7445   18.2772 C   0  0  0  0  0  0  0  0  0  0  0  0
  -27.5359  -31.5395   19.6617 C   0  0  0  0  0  0  0  0  0  0  0  0
  -32.4881  -33.7000   18.9071 C   0  0  0  0  0  0  0  0  0  0  0  0
  -27.2648  -31.0093   20.9312 C   0  0  0  0  0  0  0  0  0  0  0  0
  -28.2145  -21.9207   20.1634 C   0  0  0  0  0  0  0  0  0  0  0  0
  -28.3621  -19.1502   20.4552 C   0  0  0  0  0  0  0  0  0  0  0  0
  -24.1355   -8.3333   23.7217 C   0  0  0  0  0  0  0  0  0  0  0  0
  -27.2228  -28.7745   19.9754 C   0  0  0  0  0  0  0  0  0  0  0  0
  -22.7750   -6.4323   23.9612 C   0  0  0  0  0  0  0  0  0  0  0  0
  -27.1822  -19.8231   20.7728 C   0  0  0  0  0  0  0  0  0  0  0  0
  -20.6598   -4.8686   23.0320 C   0  0  0  0  0  0  0  0  0  0  0  0
  -22.9966   -5.1037   23.5986 C   0  0  0  0  0  0  0  0  0  0  0  0
  -25.1044  -11.8274   21.5420 C   0  0  0  0  0  0  0  0  0  0  0  0
  -25.0144  -13.7135   20.4153 C   0  0  0  0  0  0  0  0  0  0  0  0
  -28.0853  -25.2828   19.8939 C   0  0  0  0  0  0  0  0  0  0  0  0
  -29.0389  -24.2128   19.5987 C   0  0  0  0  0  0  0  0  0  0  0  0
  -28.1198  -26.6230   19.7819 C   0  0  0  0  0  0  0  0  0  1  0  0
  -22.7793  -12.8417   21.1176 C   0  0  0  0  0  0  0  0  0  0  0  0
  -29.5200  -33.5614   21.1036 C   0  0  0  0  0  0  0  0  0  0  0  0
  -26.8820  -34.3015   22.8400 C   0  0  0  0  0  0  0  0  0  0  0  0
  -23.8238  -33.3445   24.0140 C   0  0  0  0  0  0  0  0  0  0  0  0
  -29.5547  -16.9353   20.3214 C   0  0  0  0  0  0  0  0  0  0  0  0
  -33.4067  -36.0759   18.9522 C   0  0  0  0  0  0  0  0  0  0  0  0
  -27.6757  -33.0248   19.4705 C   0  0  0  0  0  0  0  0  0  0  0  0
  -27.1366  -31.8890   22.1471 C   0  0  0  0  0  0  0  0  0  0  0  0
  -27.0984  -24.2374   20.3606 C   0  0  0  0  0  0  0  0  0  0  0  0
  -32.4575  -36.3268   20.1211 C   0  0  0  0  0  0  0  0  0  0  0  0
  -29.9440  -13.5537   19.2772 C   0  0  0  0  0  0  0  0  0  0  0  0
  -32.3856  -35.0989   21.0233 C   0  0  0  0  0  0  0  0  0  0  0  0
  -28.6460  -12.8822   19.7316 C   0  0  0  0  0  0  0  0  0  0  0  0
  -30.4187  -14.6058   20.2778 C   0  0  0  0  0  0  0  0  0  0  0  0
  -28.1187  -14.9455   21.0923 C   0  0  0  0  0  0  0  0  0  0  0  0
  -31.8387  -33.8857   20.2614 C   0  0  1  0  0  0  0  0  0  0  0  0
  -28.0732  -33.7570   20.7486 C   0  0  1  0  0  0  0  0  0  0  0  0
  -27.5664  -13.9239   20.0850 C   0  0  2  0  0  0  0  0  0  0  0  0
  -21.9211  -34.1484   25.4392 C   0  0  0  0  0  0  0  0  0  0  0  0
  -28.5322  -33.7545   25.3474 C   0  0  0  0  0  0  0  0  0  0  0  0
  -26.3941  -33.6381   26.6448 C   0  0  0  0  0  0  0  0  0  0  0  0
  -27.0404  -35.7562   25.4965 C   0  0  0  0  0  0  0  0  0  0  0  0
  -21.9139  -33.1830   21.7589 C   0  0  0  0  0  0  0  0  0  0  0  0
  -25.1653  -18.6786   20.2455 C   0  0  0  0  0  0  0  0  0  0  0  0
  -26.2629  -33.7856   24.1165 C   0  0  1  0  0  0  0  0  0  0  0  0
  -22.4828  -34.0560   24.0290 C   0  0  2  0  0  0  0  0  0  0  0  0
  -27.0617  -34.2166   25.3789 C   0  0  0  0  0  0  0  0  0  0  0  0
  -26.3797  -12.1144   21.2677 N   0  0  0  0  0  0  0  0  0  0  0  0
  -26.2922  -13.2667   20.5817 N   0  0  0  0  0  0  0  0  0  0  0  0
  -28.1417  -23.2868   20.0186 N   0  0  0  0  0  0  0  0  0  0  0  0
  -27.2877  -33.3341   21.9098 N   0  0  0  0  0  0  0  0  0  0  0  0
  -29.3452  -15.5607   20.5613 N   0  0  0  0  0  0  0  0  0  0  0  0
  -24.7464  -14.8568   19.7495 N   0  0  0  0  0  0  0  0  0  0  0  0
  -22.1103  -11.8105   21.7909 N   0  0  0  0  0  0  0  0  0  0  0  0
  -28.4521  -17.7433   20.5972 N   0  0  0  0  0  0  0  0  0  0  0  0
  -30.4010  -33.9806   20.1250 N   0  0  0  0  0  0  0  0  0  0  0  0
  -24.8743  -34.2329   24.1066 N   0  0  0  0  0  0  0  0  0  0  0  0
  -21.5001  -33.3267   23.1785 N   0  3  0  0  0  0  0  0  0  0  0  0
  -30.1726  -24.1658   19.1685 O   0  0  0  0  0  0  0  0  0  0  0  0
  -22.1130  -13.7671   20.5949 O   0  0  0  0  0  0  0  0  0  0  0  0
  -29.8152  -33.0680   22.1858 O   0  0  0  0  0  0  0  0  0  0  0  0
  -26.9947  -35.5183   22.6712 O   0  0  0  0  0  0  0  0  0  0  0  0
  -23.9287  -32.1227   23.9324 O   0  0  0  0  0  0  0  0  0  0  0  0
  -30.6237  -17.3608   19.8763 O   0  0  0  0  0  0  0  0  0  0  0  0
  -23.8238   -7.2095   24.4234 O   0  0  0  0  0  0  0  0  0  0  0  0
  -27.0746  -27.4309   20.1323 O   0  0  0  0  0  0  0  0  0  1  0  0
  -26.0893  -19.1460   21.2258 O   0  0  0  0  0  0  0  0  0  0  0  0
  -19.6438   -4.1175   22.5873 F   0  0  0  0  0  0  0  0  0  0  0  0
  -24.2231   -4.5726   23.6955 F   0  0  0  0  0  0  0  0  0  0  0  0
  1  2  1  0  0  0  0
  1  5  2  0  0  0  0
  2  6  2  0  0  0  0
  3 10  2  0  0  0  0
  3 18  1  0  0  0  0
  4 11  1  0  0  0  0
  4 18  2  0  0  0  0
  5 20  1  0  0  0  0
  6 22  1  0  0  0  0
  7 12  2  0  0  0  0
  7 21  1  0  0  0  0
  8  9  2  0  0  0  0
  8 24  1  0  0  0  0
  9 25  1  0  0  0  0
 10 26  1  0  0  0  0
 11 26  2  0  0  0  0
 12 27  1  0  0  0  0
 13 14  2  0  0  0  0
 13 28  1  0  0  0  0
 14 30  1  0  0  0  0
 15 23  1  0  0  0  0
 15 27  2  0  0  0  0
 16 24  2  0  0  0  0
 16 29  1  0  0  0  0
 17 30  2  0  0  0  0
 17 31  1  0  0  0  0
 18 32  1  0  0  0  0
 19 32  1  0  0  0  0
 19 33  2  0  0  0  0
 19 37  1  0  0  0  0
 20 22  2  0  0  0  0
 20 42  1  0  0  0  0
 21 23  2  0  0  0  0
 21 43  1  0  0  0  0
 22 52  1  0  0  0  0
 23 44  1  0  0  0  0
 24 66  1  0  0  0  0
 25 29  2  0  0  0  0
 25 71  1  0  0  0  0
 26 81  1  0  0  0  0
 27 82  1  0  0  0  0
 28 31  2  0  0  0  0
 28 81  1  0  0  0  0
 29 83  1  0  0  0  0
 30 84  1  0  0  0  0
 31 85  1  0  0  0  0
 32 64  2  0  0  0  0
 33 65  1  0  0  0  0
 33 69  1  0  0  0  0
 34 35  1  0  0  0  0
 34 36  2  0  0  0  0
 34 45  1  0  0  0  0
 35 66  1  0  0  0  0
 35 75  2  0  0  0  0
 36 82  1  0  0  0  0
 37 70  1  0  0  0  0
 37 76  2  0  0  0  0
 38 53  1  0  0  0  0
 38 72  1  0  0  0  0
 38 77  2  0  0  0  0
 39 61  1  0  0  0  0
 39 67  1  0  0  0  0
 39 78  2  0  0  0  0
 40 62  1  0  0  0  0
 40 73  1  0  0  0  0
 40 79  2  0  0  0  0
 41 68  1  0  0  0  0
 41 71  1  0  0  0  0
 41 80  2  0  0  0  0
 42 46  1  0  0  0  0
 43 53  1  0  0  0  0
 44 67  1  0  0  0  0
 45 66  1  0  0  0  0
 46 48  1  0  0  0  0
 47 49  1  0  0  0  0
 47 50  1  0  0  0  0
 48 52  1  0  0  0  0
 49 54  1  0  0  0  0
 50 68  1  0  0  0  0
 51 54  1  0  0  0  0
 51 68  1  0  0  0  0
 52 72  1  0  0  0  0
 53 67  1  0  0  0  0
 54 65  1  0  0  0  0
 55 62  1  0  0  0  0
 56 63  1  0  0  0  0
 57 63  1  0  0  0  0
 58 63  1  0  0  0  0
 59 74  1  0  0  0  0
 60 83  1  0  0  0  0
 61 63  1  0  0  0  0
 61 73  1  0  0  0  0
 62 74  1  0  0  0  0
 64 65  1  0  0  0  0
M  CHG  1  74   1
M  ISO  4  36 101  41 100  71 100  82 101
M  END
> <Batch ID>
0083

> <Smiles>
CNC(C)C(=O)NC(C(=O)N1Cc2cc([101O:1][101CH:1]=C3CN(c4ccc([100NH:0][100C:0](=O)N5CCCC(n6nc(-c7ccc(Oc8ccc(F)cc8F)cc7)c(C(N)=O)c6N)C5)c(OC)c4)C3=O)ccc2CC1C(=O)NC1CCCc2ccccc21)C(C)(C)C

> <Shape>
0.264

> <Color>
0.137

> <Negative vol penalty>
0.000

$$$$

  -OEChem-04052300093D

 83 92  0     1  0  0  0  0  0999 V2000
  -19.1201  -27.6231   19.6031 C   0  0  0  0  0  0  0  0  0  0  0  0
  -19.8915  -26.5426   20.0187 C   0  0  0  0  0  0  0  0  0  0  0  0
  -23.2837   -9.7974   19.9110 C   0  0  0  0  0  0  0  0  0  0  0  0
  -23.7142   -9.9389   22.2841 C   0  0  0  0  0  0  0  0  0  0  0  0
  -19.7329  -28.7348   19.0264 C   0  0  0  0  0  0  0  0  0  0  0  0
  -21.2762  -26.5726   19.8568 C   0  0  0  0  0  0  0  0  0  0  0  0
  -25.4734  -24.1416   23.5957 C   0  0  0  0  0  0  0  0  0  0  0  0
  -29.2465  -17.4461   20.4301 C   0  0  0  0  0  0  0  0  0  0  0  0
  -27.2854  -18.1743   19.2215 C   0  0  0  0  0  0  0  0  0  0  0  0
  -29.5913  -16.6109   19.3675 C   0  0  0  0  0  0  0  0  0  0  0  0
  -27.6302  -17.3391   18.1588 C   0  0  0  0  0  0  0  0  0  0  0  0
  -22.5477   -8.6301   20.1141 C   0  0  0  0  0  0  0  0  0  0  0  0
  -22.9781   -8.7716   22.4872 C   0  0  0  0  0  0  0  0  0  0  0  0
  -26.1862  -22.9442   23.5533 C   0  0  0  0  0  0  0  0  0  0  0  0
  -19.7233   -7.8826   22.6769 C   0  0  0  0  0  0  0  0  0  0  0  0
  -18.8113   -7.8687   23.7322 C   0  0  0  0  0  0  0  0  0  0  0  0
  -28.0382  -24.0904   22.5163 C   0  0  0  0  0  0  0  0  0  0  0  0
  -19.9958   -6.0151   24.7314 C   0  0  0  0  0  0  0  0  0  0  0  0
  -23.8670  -10.4518   20.9960 C   0  0  0  0  0  0  0  0  0  0  0  0
  -24.1451  -12.9797   20.7957 C   0  0  0  0  0  0  0  0  0  0  0  0
  -21.1267  -28.7826   18.8662 C   0  0  0  0  0  0  0  0  0  0  0  0
  -26.0343  -25.3222   23.0879 C   0  0  0  0  0  0  0  0  0  0  0  0
  -21.9081  -27.6854   19.2762 C   0  0  0  0  0  0  0  0  0  0  0  0
  -27.3314  -25.3020   22.5558 C   0  0  0  0  0  0  0  0  0  0  0  0
  -28.0935  -18.2277   20.3572 C   0  0  0  0  0  0  0  0  0  0  0  0
  -28.7832  -16.5574   18.2319 C   0  0  0  0  0  0  0  0  0  0  0  0
  -22.3949   -8.1172   21.4022 C   0  0  0  0  0  0  0  0  0  0  0  0
  -27.4677  -22.9179   23.0109 C   0  0  0  0  0  0  0  0  0  0  0  0
  -20.7715   -6.9627   22.6488 C   0  0  0  0  0  0  0  0  0  0  0  0
  -18.9476   -6.9350   24.7595 C   0  0  0  0  0  0  0  0  0  0  0  0
  -20.9077   -6.0290   23.6760 C   0  0  0  0  0  0  0  0  0  0  0  0
  -24.6279  -11.6574   20.7868 C   0  0  0  0  0  0  0  0  0  0  0  0
  -25.2540  -13.7518   20.5494 C   0  0  0  0  0  0  0  0  0  0  0  0
  -28.3566  -19.2827   22.5997 C   0  0  0  0  0  0  0  0  0  0  0  0
  -22.8133  -13.4666   21.0078 C   0  0  0  0  0  0  0  0  0  0  0  0
  -25.2778  -27.3414   20.7525 C   0  0  0  0  0  0  0  0  0  0  0  0
  -27.7497  -29.0574   21.9639 C   0  0  0  0  0  0  0  0  0  0  0  0
  -30.6603  -29.0837   23.7457 C   0  0  0  0  0  0  0  0  0  0  0  0
  -29.8464  -14.4872   17.2963 C   0  0  0  0  0  0  0  0  0  0  0  0
  -21.7394  -29.9858   18.1943 C   0  0  0  0  0  0  0  0  0  0  0  0
  -25.2628  -26.6111   23.1654 C   0  0  0  0  0  0  0  0  0  0  0  0
  -27.9866  -26.5462   22.0160 C   0  0  0  0  0  0  0  0  0  0  0  0
  -23.2478  -30.0965   18.4008 C   0  0  0  0  0  0  0  0  0  0  0  0
  -30.1646  -12.5922   20.4587 C   0  0  0  0  0  0  0  0  0  0  0  0
  -23.9208  -28.7502   18.1533 C   0  0  0  0  0  0  0  0  0  0  0  0
  -28.7181  -12.2183   20.7772 C   0  0  0  0  0  0  0  0  0  0  0  0
  -30.3945  -12.7379   18.9575 C   0  0  0  0  0  0  0  0  0  0  0  0
  -26.8333  -20.1795   21.4673 C   0  0  0  0  0  0  0  0  0  0  0  0
  -28.0117  -13.3303   18.6217 C   0  0  0  0  0  0  0  0  0  0  0  0
  -23.4152  -27.6910   19.1402 C   0  0  1  0  0  0  0  0  0  0  0  0
  -27.4459  -20.5008   22.8484 C   0  0  2  0  0  0  0  0  0  1  0  0
  -25.7314  -27.6500   22.1513 C   0  0  1  0  0  0  0  0  0  0  0  0
  -27.7446  -13.2172   20.1301 C   0  0  1  0  0  0  0  0  0  0  0  0
  -32.4724  -30.6294   24.5358 C   0  0  0  0  0  0  0  0  0  0  0  0
  -28.9290  -29.1094   19.1503 C   0  0  0  0  0  0  0  0  0  0  0  0
  -31.1159  -29.7994   20.1549 C   0  0  0  0  0  0  0  0  0  0  0  0
  -29.1145  -31.2681   20.3991 C   0  0  0  0  0  0  0  0  0  0  0  0
  -28.9901  -16.2156   15.7761 C   0  0  0  0  0  0  0  0  0  0  0  0
  -30.0755  -28.5037   26.5883 C   0  0  0  0  0  0  0  0  0  0  0  0
  -29.2374  -29.1120   21.7136 C   0  0  1  0  0  0  0  0  0  0  0  0
  -31.1417  -29.9761   24.8754 C   0  0  2  0  0  0  0  0  0  0  0  0
  -29.5864  -29.7982   20.3628 C   0  0  0  0  0  0  0  0  0  0  0  0
  -25.9413  -11.5895   20.5531 N   0  0  0  0  0  0  0  0  0  0  0  0
  -26.2931  -12.8790   20.4128 N   0  0  0  0  0  0  0  0  0  0  0  0
  -27.7529  -19.0517   21.4059 N   0  0  0  0  0  0  0  0  0  0  0  0
  -27.1893  -27.7804   22.1084 N   0  0  0  0  0  0  0  0  0  0  0  0
  -29.4228  -13.6452   18.3450 N   0  0  0  0  0  0  0  0  0  0  0  0
  -25.4319  -15.0854   20.4383 N   0  0  0  0  0  0  0  0  0  0  0  0
  -21.7924  -12.5369   21.2477 N   0  0  0  0  0  0  0  0  0  0  0  0
  -24.0400  -27.8664   20.4338 N   0  0  0  0  0  0  0  0  0  0  0  0
  -29.8244  -29.7593   22.8819 N   0  0  0  0  0  0  0  0  0  0  0  0
  -29.1395  -15.6938   17.1328 N   0  0  0  0  0  0  0  0  0  0  0  0
  -31.3131  -29.1826   26.1252 N   0  3  0  0  0  0  0  0  0  0  0  0
  -29.2743  -18.7486   23.1796 O   0  0  0  0  0  0  0  0  0  0  0  0
  -22.5339  -14.6889   20.9690 O   0  0  0  0  0  0  0  0  0  0  0  0
  -25.9982  -26.6775   20.0163 O   0  0  0  0  0  0  0  0  0  0  0  0
  -27.1096  -30.1095   22.0358 O   0  0  0  0  0  0  0  0  0  0  0  0
  -30.9953  -27.9061   23.6380 O   0  0  0  0  0  0  0  0  0  0  0  0
  -30.7556  -14.1622   16.5228 O   0  0  0  0  0  0  0  0  0  0  0  0
  -21.6765   -6.9783   21.6008 O   0  0  0  0  0  0  0  0  0  0  0  0
  -28.1654  -21.7503   22.9677 O   0  0  0  0  0  0  0  0  0  1  0  0
  -18.0726   -6.9228   25.7736 F   0  0  0  0  0  0  0  0  0  0  0  0
  -21.9134   -5.1436   23.6551 F   0  0  0  0  0  0  0  0  0  0  0  0
  1  2  1  0  0  0  0
  1  5  2  0  0  0  0
  2  6  2  0  0  0  0
  3 12  2  0  0  0  0
  3 19  1  0  0  0  0
  4 13  1  0  0  0  0
  4 19  2  0  0  0  0
  5 21  1  0  0  0  0
  6 23  1  0  0  0  0
  7 14  2  0  0  0  0
  7 22  1  0  0  0  0
  8 10  2  0  0  0  0
  8 25  1  0  0  0  0
  9 11  1  0  0  0  0
  9 25  2  0  0  0  0
 10 26  1  0  0  0  0
 11 26  2  0  0  0  0
 12 27  1  0  0  0  0
 13 27  2  0  0  0  0
 14 28  1  0  0  0  0
 15 16  2  0  0  0  0
 15 29  1  0  0  0  0
 16 30  1  0  0  0  0
 17 24  1  0  0  0  0
 17 28  2  0  0  0  0
 18 30  2  0  0  0  0
 18 31  1  0  0  0  0
 19 32  1  0  0  0  0
 20 32  1  0  0  0  0
 20 33  2  0  0  0  0
 20 35  1  0  0  0  0
 21 23  2  0  0  0  0
 21 40  1  0  0  0  0
 22 24  2  0  0  0  0
 22 41  1  0  0  0  0
 23 50  1  0  0  0  0
 24 42  1  0  0  0  0
 25 65  1  0  0  0  0
 26 72  1  0  0  0  0
 27 80  1  0  0  0  0
 28 81  1  0  0  0  0
 29 31  2  0  0  0  0
 29 80  1  0  0  0  0
 30 82  1  0  0  0  0
 31 83  1  0  0  0  0
 32 63  2  0  0  0  0
 33 64  1  0  0  0  0
 33 68  1  0  0  0  0
 34 51  1  0  0  0  0
 34 65  1  0  0  0  0
 34 74  2  0  0  0  0
 35 69  1  0  0  0  0
 35 75  2  0  0  0  0
 36 52  1  0  0  0  0
 36 70  1  0  0  0  0
 36 76  2  0  0  0  0
 37 60  1  0  0  0  0
 37 66  1  0  0  0  0
 37 77  2  0  0  0  0
 38 61  1  0  0  0  0
 38 71  1  0  0  0  0
 38 78  2  0  0  0  0
 39 67  1  0  0  0  0
 39 72  1  0  0  0  0
 39 79  2  0  0  0  0
 40 43  1  0  0  0  0
 41 52  1  0  0  0  0
 42 66  1  0  0  0  0
 43 45  1  0  0  0  0
 44 46  1  0  0  0  0
 44 47  1  0  0  0  0
 45 50  1  0  0  0  0
 46 53  1  0  0  0  0
 47 67  1  0  0  0  0
 48 51  1  0  0  0  0
 48 65  1  0  0  0  0
 49 53  1  0  0  0  0
 49 67  1  0  0  0  0
 50 70  1  0  0  0  0
 51 81  1  0  0  0  0
 52 66  1  0  0  0  0
 53 64  1  0  0  0  0
 54 61  1  0  0  0  0
 55 62  1  0  0  0  0
 56 62  1  0  0  0  0
 57 62  1  0  0  0  0
 58 72  1  0  0  0  0
 59 73  1  0  0  0  0
 60 62  1  0  0  0  0
 60 71  1  0  0  0  0
 61 73  1  0  0  0  0
 63 64  1  0  0  0  0
M  CHG  1  73   1
M  ISO  4  39 100  51 101  72 100  81 101
M  END
> <Batch ID>
0083

> <Smiles>
CNC(C)C(=O)NC(C(=O)N1Cc2cc([101O:1][101CH:1]3CN(c4ccc([100N:0](C)[100C:0](=O)N5CCCC(n6nc(-c7ccc(Oc8ccc(F)cc8F)cc7)c(C(N)=O)c6N)C5)cc4)C3=O)ccc2CC1C(=O)NC1CCCc2ccccc21)C(C)(C)C

> <Shape>
0.221

> <Color>
0.177

> <Negative vol penalty>
0.000

$$$$

  -OEChem-04052300093D

 82 91  0     1  0  0  0  0  0999 V2000
  -29.0905  -37.2707   22.5364 C   0  0  0  0  0  0  0  0  0  0  0  0
  -29.2018  -36.2774   21.5687 C   0  0  0  0  0  0  0  0  0  0  0  0
  -23.7420  -10.5139   23.3055 C   0  0  0  0  0  0  0  0  0  0  0  0
  -23.9211  -12.3105   24.9108 C   0  0  0  0  0  0  0  0  0  0  0  0
  -28.6592  -36.9450   23.8217 C   0  0  0  0  0  0  0  0  0  0  0  0
  -28.8830  -34.9576   21.8861 C   0  0  0  0  0  0  0  0  0  0  0  0
  -26.1359  -29.0208   18.9664 C   0  0  0  0  0  0  0  0  0  0  0  0
  -23.0818   -9.7324   24.2536 C   0  0  0  0  0  0  0  0  0  0  0  0
  -23.2608  -11.5291   25.8590 C   0  0  0  0  0  0  0  0  0  0  0  0
  -26.4253  -27.6665   18.8053 C   0  0  0  0  0  0  0  0  0  0  0  0
  -19.9678   -9.4883   25.5484 C   0  0  0  0  0  0  0  0  0  0  0  0
  -18.8284   -8.7961   25.1381 C   0  0  0  0  0  0  0  0  0  0  0  0
  -30.7426  -20.3793   19.1632 C   0  0  0  0  0  0  0  0  0  0  0  0
  -30.9456  -19.0500   19.6343 C   0  0  0  0  0  0  0  0  0  0  0  0
  -25.6152  -27.2342   21.0360 C   0  0  0  0  0  0  0  0  0  0  0  0
  -19.8864   -6.7055   25.7274 C   0  0  0  0  0  0  0  0  0  0  0  0
  -24.1617  -11.8029   23.6341 C   0  0  0  0  0  0  0  0  0  0  0  0
  -24.2624  -13.4964   21.7289 C   0  0  0  0  0  0  0  0  0  0  0  0
  -28.3258  -35.6221   24.1523 C   0  0  0  0  0  0  0  0  0  0  0  0
  -25.5932  -29.4944   20.1695 C   0  0  0  0  0  0  0  0  0  0  0  0
  -28.4482  -34.6136   23.1774 C   0  0  0  0  0  0  0  0  0  0  0  0
  -25.3174  -28.5946   21.2089 C   0  0  0  0  0  0  0  0  0  0  0  0
  -22.8411  -10.2400   25.5303 C   0  0  0  0  0  0  0  0  0  0  0  0
  -26.1676  -26.7734   19.8412 C   0  0  0  0  0  0  0  0  0  0  0  0
  -21.0665   -8.7891   26.0481 C   0  0  0  0  0  0  0  0  0  0  0  0
  -18.7877   -7.4047   25.2276 C   0  0  0  0  0  0  0  0  0  0  0  0
  -21.0258   -7.3978   26.1376 C   0  0  0  0  0  0  0  0  0  0  0  0
  -24.8443  -12.6104   22.6552 C   0  0  0  0  0  0  0  0  0  0  0  0
  -25.3274  -14.0135   21.0326 C   0  0  0  0  0  0  0  0  0  0  0  0
  -29.4358  -20.7879   19.3141 C   0  0  0  0  0  0  0  0  0  0  0  0
  -29.7860  -18.4933   20.1276 C   0  0  0  0  0  0  0  0  0  0  0  0
  -28.1384  -23.8197   19.2633 C   0  0  0  0  0  0  0  0  0  0  0  0
  -29.4255  -23.1798   18.9885 C   0  0  0  0  0  0  0  0  0  0  0  0
  -27.7445  -25.0948   19.4333 C   0  0  0  0  0  0  0  0  0  1  0  0
  -22.8824  -13.8228   21.5168 C   0  0  0  0  0  0  0  0  0  0  0  0
  -26.5446  -31.5419   22.4071 C   0  0  0  0  0  0  0  0  0  0  0  0
  -23.5726  -31.0193   23.5973 C   0  0  0  0  0  0  0  0  0  0  0  0
  -20.8594  -28.9607   23.8146 C   0  0  0  0  0  0  0  0  0  0  0  0
  -30.4533  -16.1821   20.8755 C   0  0  0  0  0  0  0  0  0  0  0  0
  -27.9095  -35.3106   25.5680 C   0  0  0  0  0  0  0  0  0  0  0  0
  -25.2619  -30.9541   20.3178 C   0  0  0  0  0  0  0  0  0  0  0  0
  -24.7165  -29.0493   22.5130 C   0  0  0  0  0  0  0  0  0  0  0  0
  -27.4924  -22.4532   19.2750 C   0  0  0  0  0  0  0  0  0  0  0  0
  -27.2328  -33.9506   25.7186 C   0  0  0  0  0  0  0  0  0  0  0  0
  -30.1963  -12.6318   20.9560 C   0  0  0  0  0  0  0  0  0  0  0  0
  -28.0235  -32.8760   24.9791 C   0  0  0  0  0  0  0  0  0  0  0  0
  -28.7331  -12.3826   21.3291 C   0  0  0  0  0  0  0  0  0  0  0  0
  -30.7660  -13.8513   21.6785 C   0  0  0  0  0  0  0  0  0  0  0  0
  -28.5183  -14.8345   21.9027 C   0  0  0  0  0  0  0  0  0  0  0  0
  -28.0879  -33.1746   23.4763 C   0  0  1  0  0  0  0  0  0  0  0  0
  -25.1891  -31.4055   21.7732 C   0  0  1  0  0  0  0  0  0  0  0  0
  -27.8815  -13.6547   21.1502 C   0  0  2  0  0  0  0  0  0  0  0  0
  -18.5995  -28.7872   24.8916 C   0  0  0  0  0  0  0  0  0  0  0  0
  -24.8962  -30.3228   26.2568 C   0  0  0  0  0  0  0  0  0  0  0  0
  -22.7417  -29.2676   26.9731 C   0  0  0  0  0  0  0  0  0  0  0  0
  -22.8223  -31.7063   26.4545 C   0  0  0  0  0  0  0  0  0  0  0  0
  -19.4891  -28.8639   21.1932 C   0  0  0  0  0  0  0  0  0  0  0  0
  -22.9671  -30.0320   24.5656 C   0  0  1  0  0  0  0  0  0  0  0  0
  -19.3738  -29.2325   23.6609 C   0  0  2  0  0  0  0  0  0  0  0  0
  -23.3700  -30.3236   26.0388 C   0  0  0  0  0  0  0  0  0  0  0  0
  -26.1757  -12.5647   22.5587 N   0  0  0  0  0  0  0  0  0  0  0  0
  -26.4392  -13.4284   21.5633 N   0  0  0  0  0  0  0  0  0  0  0  0
  -28.8308  -21.9612   18.9999 N   0  0  0  0  0  0  0  0  0  0  0  0
  -24.4161  -30.4871   22.6118 N   0  0  0  0  0  0  0  0  0  0  0  0
  -29.9094  -15.0191   21.4606 N   0  0  0  0  0  0  0  0  0  0  0  0
  -25.4119  -14.9071   20.0242 N   0  0  0  0  0  0  0  0  0  0  0  0
  -21.9175  -13.2001   22.3202 N   0  0  0  0  0  0  0  0  0  0  0  0
  -29.5365  -17.2159   20.6877 N   0  0  0  0  0  0  0  0  0  0  0  0
  -26.8384  -32.8219   22.8369 N   0  0  0  0  0  0  0  0  0  0  0  0
  -21.5285  -30.0533   24.3242 N   0  0  0  0  0  0  0  0  0  0  0  0
  -18.8339  -28.5054   22.4774 N   0  3  0  0  0  0  0  0  0  0  0  0
  -30.5700  -23.5707   18.8868 O   0  0  0  0  0  0  0  0  0  0  0  0
  -22.5148  -14.6300   20.6299 O   0  0  0  0  0  0  0  0  0  0  0  0
  -27.2695  -30.5583   22.5007 O   0  0  0  0  0  0  0  0  0  0  0  0
  -23.3014  -32.2177   23.7068 O   0  0  0  0  0  0  0  0  0  0  0  0
  -21.3741  -27.8852   23.5162 O   0  0  0  0  0  0  0  0  0  0  0  0
  -31.6386  -16.2459   20.5391 O   0  0  0  0  0  0  0  0  0  0  0  0
  -22.1966   -9.4779   26.4557 O   0  0  0  0  0  0  0  0  0  0  0  0
  -26.4497  -25.4511   19.6868 O   0  0  0  0  0  0  0  0  0  1  0  0
  -17.6930   -6.7402   24.8351 F   0  0  0  0  0  0  0  0  0  0  0  0
  -22.0778   -6.7207   26.6179 F   0  0  0  0  0  0  0  0  0  0  0  0
  -28.4599  -19.5715   20.0214 S   0  0  0  0  0  0  0  0  0  0  0  0
  1  2  1  0  0  0  0
  1  5  2  0  0  0  0
  2  6  2  0  0  0  0
  3  8  2  0  0  0  0
  3 17  1  0  0  0  0
  4  9  1  0  0  0  0
  4 17  2  0  0  0  0
  5 19  1  0  0  0  0
  6 21  1  0  0  0  0
  7 10  2  0  0  0  0
  7 20  1  0  0  0  0
  8 23  1  0  0  0  0
  9 23  2  0  0  0  0
 10 24  1  0  0  0  0
 11 12  2  0  0  0  0
 11 25  1  0  0  0  0
 12 26  1  0  0  0  0
 13 14  1  0  0  0  0
 13 30  2  0  0  0  0
 14 31  2  0  0  0  0
 15 22  1  0  0  0  0
 15 24  2  0  0  0  0
 16 26  2  0  0  0  0
 16 27  1  0  0  0  0
 17 28  1  0  0  0  0
 18 28  1  0  0  0  0
 18 29  2  0  0  0  0
 18 35  1  0  0  0  0
 19 21  2  0  0  0  0
 19 40  1  0  0  0  0
 20 22  2  0  0  0  0
 20 41  1  0  0  0  0
 21 50  1  0  0  0  0
 22 42  1  0  0  0  0
 23 78  1  0  0  0  0
 24 79  1  0  0  0  0
 25 27  2  0  0  0  0
 25 78  1  0  0  0  0
 26 80  1  0  0  0  0
 27 81  1  0  0  0  0
 28 61  2  0  0  0  0
 29 62  1  0  0  0  0
 29 66  1  0  0  0  0
 30 63  1  0  0  0  0
 30 82  1  0  0  0  0
 31 68  1  0  0  0  0
 31 82  1  0  0  0  0
 32 33  1  0  0  0  0
 32 34  2  0  0  0  0
 32 43  1  0  0  0  0
 33 63  1  0  0  0  0
 33 72  2  0  0  0  0
 34 79  1  0  0  0  0
 35 67  1  0  0  0  0
 35 73  2  0  0  0  0
 36 51  1  0  0  0  0
 36 69  1  0  0  0  0
 36 74  2  0  0  0  0
 37 58  1  0  0  0  0
 37 64  1  0  0  0  0
 37 75  2  0  0  0  0
 38 59  1  0  0  0  0
 38 70  1  0  0  0  0
 38 76  2  0  0  0  0
 39 65  1  0  0  0  0
 39 68  1  0  0  0  0
 39 77  2  0  0  0  0
 40 44  1  0  0  0  0
 41 51  1  0  0  0  0
 42 64  1  0  0  0  0
 43 63  1  0  0  0  0
 44 46  1  0  0  0  0
 45 47  1  0  0  0  0
 45 48  1  0  0  0  0
 46 50  1  0  0  0  0
 47 52  1  0  0  0  0
 48 65  1  0  0  0  0
 49 52  1  0  0  0  0
 49 65  1  0  0  0  0
 50 69  1  0  0  0  0
 51 64  1  0  0  0  0
 52 62  1  0  0  0  0
 53 59  1  0  0  0  0
 54 60  1  0  0  0  0
 55 60  1  0  0  0  0
 56 60  1  0  0  0  0
 57 71  1  0  0  0  0
 58 60  1  0  0  0  0
 58 70  1  0  0  0  0
 59 71  1  0  0  0  0
 61 62  1  0  0  0  0
M  CHG  1  71   1
M  ISO  4  34 101  39 100  68 100  79 101
M  END
> <Batch ID>
0083

> <Smiles>
CNC(C)C(=O)NC(C(=O)N1Cc2cc([101O:1][101CH:1]=C3CN(c4ccc([100NH:0][100C:0](=O)N5CCCC(n6nc(-c7ccc(Oc8ccc(F)cc8F)cc7)c(C(N)=O)c6N)C5)s4)C3=O)ccc2CC1C(=O)NC1CCCc2ccccc21)C(C)(C)C

> <Shape>
0.273

> <Color>
0.127

> <Negative vol penalty>
0.000

$$$$

  -OEChem-04052300093D

 86 95  0     1  0  0  0  0  0999 V2000
  -17.6935  -30.3999   24.1799 C   0  0  0  0  0  0  0  0  0  0  0  0
  -18.5101  -29.3499   24.5873 C   0  0  0  0  0  0  0  0  0  0  0  0
  -24.8080  -11.9052   20.0460 C   0  0  0  0  0  0  0  0  0  0  0  0
  -28.4636  -23.3383   18.3655 C   0  0  0  0  0  0  0  0  0  0  0  0
  -28.4502  -22.8961   20.7407 C   0  0  0  0  0  0  0  0  0  0  0  0
  -26.1925  -11.9518   20.2089 C   0  0  0  0  0  0  0  0  0  0  0  0
  -16.8985  -30.2625   23.0427 C   0  0  0  0  0  0  0  0  0  0  0  0
  -18.5313  -28.1613   23.8585 C   0  0  0  0  0  0  0  0  0  0  0  0
  -22.9504  -22.8492   21.9691 C   0  0  0  0  0  0  0  0  0  0  0  0
  -24.0213  -12.9834   20.4516 C   0  0  0  0  0  0  0  0  0  0  0  0
  -28.4567  -24.7096   18.6208 C   0  0  0  0  0  0  0  0  0  0  0  0
  -28.4434  -24.2674   20.9960 C   0  0  0  0  0  0  0  0  0  0  0  0
  -23.0303  -21.4574   21.9854 C   0  0  0  0  0  0  0  0  0  0  0  0
  -30.6754  -26.8046   21.0276 C   0  0  0  0  0  0  0  0  0  0  0  0
  -31.5420  -27.2837   22.0100 C   0  0  0  0  0  0  0  0  0  0  0  0
  -26.0038  -14.1546   21.1831 C   0  0  0  0  0  0  0  0  0  0  0  0
  -21.6743  -21.3622   19.9925 C   0  0  0  0  0  0  0  0  0  0  0  0
  -22.1238  -16.3969   22.1694 C   0  0  0  0  0  0  0  0  0  0  0  0
  -29.6562  -28.1317   23.2598 C   0  0  0  0  0  0  0  0  0  0  0  0
  -24.2499  -16.4928   21.4343 C   0  0  0  0  0  0  0  0  0  0  0  0
  -28.4603  -22.4315   19.4255 C   0  0  0  0  0  0  0  0  0  0  0  0
  -26.7904  -13.0764   20.7774 C   0  0  0  0  0  0  0  0  0  0  0  0
  -27.5019  -20.2782   18.4497 C   0  0  0  0  0  0  0  0  0  0  0  0
  -16.9173  -29.0751   22.2941 C   0  0  0  0  0  0  0  0  0  0  0  0
  -22.2216  -23.5086   20.9689 C   0  0  0  0  0  0  0  0  0  0  0  0
  -17.7348  -28.0073   22.7110 C   0  0  0  0  0  0  0  0  0  0  0  0
  -21.5889  -22.7626   19.9643 C   0  0  0  0  0  0  0  0  0  0  0  0
  -23.2072  -17.2670   21.8932 C   0  0  0  0  0  0  0  0  0  0  0  0
  -24.6193  -14.1081   21.0201 C   0  0  0  0  0  0  0  0  0  0  0  0
  -28.4466  -25.1741   19.9360 C   0  0  0  0  0  0  0  0  0  0  0  0
  -22.3898  -20.7136   20.9987 C   0  0  0  0  0  0  0  0  0  0  0  0
  -29.2992  -26.9891   21.1613 C   0  0  0  0  0  0  0  0  0  0  0  0
  -31.0324  -27.9472   23.1261 C   0  0  0  0  0  0  0  0  0  0  0  0
  -28.7897  -27.6526   22.2774 C   0  0  0  0  0  0  0  0  0  0  0  0
  -28.4668  -21.0149   19.1624 C   0  0  0  0  0  0  0  0  0  0  0  0
  -27.9648  -18.9854   18.4812 C   0  0  0  0  0  0  0  0  0  0  0  0
  -22.5376  -15.1173   21.8711 C   0  0  0  0  0  0  0  0  0  0  0  0
  -28.2651  -13.1247   20.9503 C   0  0  0  0  0  0  0  0  0  0  0  0
  -26.2952  -20.7227   17.8157 C   0  0  0  0  0  0  0  0  0  0  0  0
  -19.6788  -25.4157   20.9342 C   0  0  0  0  0  0  0  0  0  0  0  0
  -20.3957  -25.6671   17.7806 C   0  0  0  0  0  0  0  0  0  0  0  0
  -21.8948  -24.3070   15.0328 C   0  0  0  0  0  0  0  0  0  0  0  0
  -30.1893  -14.6681   21.1477 C   0  0  0  0  0  0  0  0  0  0  0  0
  -16.0050  -28.9560   21.0990 C   0  0  0  0  0  0  0  0  0  0  0  0
  -22.1673  -25.0117   20.9500 C   0  0  0  0  0  0  0  0  0  0  0  0
  -20.8107  -23.4233   18.8568 C   0  0  0  0  0  0  0  0  0  0  0  0
  -16.3669  -27.8007   20.1692 C   0  0  0  0  0  0  0  0  0  0  0  0
  -32.4380  -17.1198   19.9521 C   0  0  0  0  0  0  0  0  0  0  0  0
  -16.6225  -26.5292   20.9722 C   0  0  0  0  0  0  0  0  0  0  0  0
  -31.5274  -18.2908   19.5728 C   0  0  0  0  0  0  0  0  0  0  0  0
  -31.9526  -16.4094   21.2149 C   0  0  0  0  0  0  0  0  0  0  0  0
  -29.6416  -17.1552   20.8132 C   0  0  0  0  0  0  0  0  0  0  0  0
  -17.8040  -26.7114   21.9327 C   0  0  1  0  0  0  0  0  0  0  0  0
  -20.9696  -25.5567   20.1781 C   0  0  1  0  0  0  0  0  0  0  0  0
  -30.0484  -17.8594   19.5087 C   0  0  1  0  0  0  0  0  0  0  0  0
  -22.2800  -24.7262   12.5888 C   0  0  0  0  0  0  0  0  0  0  0  0
  -17.5162  -24.8498   17.1890 C   0  0  0  0  0  0  0  0  0  0  0  0
  -18.2110  -24.3662   14.8328 C   0  0  0  0  0  0  0  0  0  0  0  0
  -18.3995  -26.6838   15.7362 C   0  0  0  0  0  0  0  0  0  0  0  0
  -24.8324  -24.3670   15.3874 C   0  0  0  0  0  0  0  0  0  0  0  0
  -23.2183  -18.7572   22.0675 C   0  0  0  0  0  0  0  0  0  1  0  0
  -20.0127  -24.9078   16.5333 C   0  0  1  0  0  0  0  0  0  0  0  0
  -22.8289  -24.9041   13.9959 C   0  0  2  0  0  0  0  0  0  0  0  0
  -18.5478  -25.1890   16.0947 C   0  0  0  0  0  0  0  0  0  0  0  0
  -29.4670  -20.2535   19.6139 N   0  0  0  0  0  0  0  0  0  0  0  0
  -23.8316  -15.1877   21.4254 N   0  0  0  0  0  0  0  0  0  0  0  0
  -29.1331  -19.0248   19.1839 N   0  0  0  0  0  0  0  0  0  0  0  0
  -20.7817  -24.8949   18.8854 N   0  0  0  0  0  0  0  0  0  0  0  0
  -30.5473  -16.0253   21.0700 N   0  0  0  0  0  0  0  0  0  0  0  0
  -27.4822  -17.8301   17.9763 N   0  0  0  0  0  0  0  0  0  0  0  0
  -25.1111  -20.7328   18.5656 N   0  0  0  0  0  0  0  0  0  0  0  0
  -28.8295  -14.4006   20.9540 N   0  0  0  0  0  0  0  0  0  0  0  0
  -19.0575  -26.6175   21.2155 N   0  0  0  0  0  0  0  0  0  0  0  0
  -21.0132  -25.2453   15.5265 N   0  0  0  0  0  0  0  0  0  0  0  0
  -24.1659  -24.2493   14.0650 N   0  3  0  0  0  0  0  0  0  0  0  0
  -28.8825  -12.0762   21.1152 O   0  0  0  0  0  0  0  0  0  0  0  0
  -26.2645  -21.0841   16.6149 O   0  0  0  0  0  0  0  0  0  0  0  0
  -19.2757  -24.2992   21.2384 O   0  0  0  0  0  0  0  0  0  0  0  0
  -20.3609  -26.9001   17.7726 O   0  0  0  0  0  0  0  0  0  0  0  0
  -21.9400  -23.1256   15.3684 O   0  0  0  0  0  0  0  0  0  0  0  0
  -31.0143  -13.7683   21.3351 O   0  0  0  0  0  0  0  0  0  0  0  0
  -21.8931  -13.9601   21.9603 O   0  0  0  0  0  0  0  0  0  0  0  0
  -28.4402  -26.5121   20.1855 O   0  0  0  0  0  0  0  0  0  0  0  0
  -22.4657  -19.3549   21.0127 O   0  0  0  0  0  0  0  0  0  1  0  0
  -31.8646  -28.4059   24.0702 F   0  0  0  0  0  0  0  0  0  0  0  0
  -27.4685  -27.8317   22.4119 F   0  0  0  0  0  0  0  0  0  0  0  0
  1  2  1  0  0  0  0
  1  7  2  0  0  0  0
  2  8  2  0  0  0  0
  3  6  1  0  0  0  0
  3 10  2  0  0  0  0
  4 11  2  0  0  0  0
  4 21  1  0  0  0  0
  5 12  1  0  0  0  0
  5 21  2  0  0  0  0
  6 22  2  0  0  0  0
  7 24  1  0  0  0  0
  8 26  1  0  0  0  0
  9 13  2  0  0  0  0
  9 25  1  0  0  0  0
 10 29  1  0  0  0  0
 11 30  1  0  0  0  0
 12 30  2  0  0  0  0
 13 31  1  0  0  0  0
 14 15  2  0  0  0  0
 14 32  1  0  0  0  0
 15 33  1  0  0  0  0
 16 22  1  0  0  0  0
 16 29  2  0  0  0  0
 17 27  1  0  0  0  0
 17 31  2  0  0  0  0
 18 28  1  0  0  0  0
 18 37  2  0  0  0  0
 19 33  2  0  0  0  0
 19 34  1  0  0  0  0
 20 28  2  0  0  0  0
 20 66  1  0  0  0  0
 21 35  1  0  0  0  0
 22 38  1  0  0  0  0
 23 35  1  0  0  0  0
 23 36  2  0  0  0  0
 23 39  1  0  0  0  0
 24 26  2  0  0  0  0
 24 44  1  0  0  0  0
 25 27  2  0  0  0  0
 25 45  1  0  0  0  0
 26 53  1  0  0  0  0
 27 46  1  0  0  0  0
 28 61  1  0  0  0  0
 29 66  1  0  0  0  0
 30 83  1  0  0  0  0
 31 84  1  0  0  0  0
 32 34  2  0  0  0  0
 32 83  1  0  0  0  0
 33 85  1  0  0  0  0
 34 86  1  0  0  0  0
 35 65  2  0  0  0  0
 36 67  1  0  0  0  0
 36 70  1  0  0  0  0
 37 66  1  0  0  0  0
 37 82  1  0  0  0  0
 38 72  1  0  0  0  0
 38 76  2  0  0  0  0
 39 71  1  0  0  0  0
 39 77  2  0  0  0  0
 40 54  1  0  0  0  0
 40 73  1  0  0  0  0
 40 78  2  0  0  0  0
 41 62  1  0  0  0  0
 41 68  1  0  0  0  0
 41 79  2  0  0  0  0
 42 63  1  0  0  0  0
 42 74  1  0  0  0  0
 42 80  2  0  0  0  0
 43 69  1  0  0  0  0
 43 72  1  0  0  0  0
 43 81  2  0  0  0  0
 44 47  1  0  0  0  0
 45 54  1  0  0  0  0
 46 68  1  0  0  0  0
 47 49  1  0  0  0  0
 48 50  1  0  0  0  0
 48 51  1  0  0  0  0
 49 53  1  0  0  0  0
 50 55  1  0  0  0  0
 51 69  1  0  0  0  0
 52 55  1  0  0  0  0
 52 69  1  0  0  0  0
 53 73  1  0  0  0  0
 54 68  1  0  0  0  0
 55 67  1  0  0  0  0
 56 63  1  0  0  0  0
 57 64  1  0  0  0  0
 58 64  1  0  0  0  0
 59 64  1  0  0  0  0
 60 75  1  0  0  0  0
 61 84  1  0  0  0  0
 62 64  1  0  0  0  0
 62 74  1  0  0  0  0
 63 75  1  0  0  0  0
 65 67  1  0  0  0  0
M  CHG  1  75   1
M  ISO  4  43 100  61 101  72 100  84 101
M  END
> <Batch ID>
0083

> <Smiles>
CNC(C)C(=O)NC(C(=O)N1Cc2cc([101O:1][101CH2:1]C3=CN(c4cccc(C(=O)[100NH:0][100C:0](=O)N5CCCC(n6nc(-c7ccc(Oc8ccc(F)cc8F)cc7)c(C(N)=O)c6N)C5)c4)C(=O)C3)ccc2CC1C(=O)NC1CCCc2ccccc21)C(C)(C)C

> <Shape>
0.212

> <Color>
0.073

> <Negative vol penalty>
0.000

$$$$

  -OEChem-04052300093D

 85 93  0     1  0  0  0  0  0999 V2000
  -33.4684  -29.4444   24.1632 C   0  0  0  0  0  0  0  0  0  0  0  0
  -32.9053  -29.9910   23.0145 C   0  0  0  0  0  0  0  0  0  0  0  0
  -26.1646  -12.6129   21.4762 C   0  0  0  0  0  0  0  0  0  0  0  0
  -25.9632  -13.0420   19.1072 C   0  0  0  0  0  0  0  0  0  0  0  0
  -27.7004  -20.9254   14.7929 C   0  0  0  0  0  0  0  0  0  0  0  0
  -27.5795  -22.8661   16.2269 C   0  0  0  0  0  0  0  0  0  0  0  0
  -33.1376  -28.1465   24.5506 C   0  0  0  0  0  0  0  0  0  0  0  0
  -32.0119  -29.2396   22.2518 C   0  0  0  0  0  0  0  0  0  0  0  0
  -26.2057  -29.9751   18.1211 C   0  0  0  0  0  0  0  0  0  0  0  0
  -28.1733  -20.1647   15.8622 C   0  0  0  0  0  0  0  0  0  0  0  0
  -28.0523  -22.1054   17.2962 C   0  0  0  0  0  0  0  0  0  0  0  0
  -24.9757  -11.8842   21.4453 C   0  0  0  0  0  0  0  0  0  0  0  0
  -24.7742  -12.3132   19.0763 C   0  0  0  0  0  0  0  0  0  0  0  0
  -25.7347  -29.6328   16.8543 C   0  0  0  0  0  0  0  0  0  0  0  0
  -23.9727   -8.7924   20.5137 C   0  0  0  0  0  0  0  0  0  0  0  0
  -23.9445   -7.5694   21.1837 C   0  0  0  0  0  0  0  0  0  0  0  0
  -25.1763  -27.4300   17.6636 C   0  0  0  0  0  0  0  0  0  0  0  0
  -22.1544   -8.3804   22.5890 C   0  0  0  0  0  0  0  0  0  0  0  0
  -26.6583  -13.1919   20.3071 C   0  0  0  0  0  0  0  0  0  0  0  0
  -27.4036  -22.2761   14.9752 C   0  0  0  0  0  0  0  0  0  0  0  0
  -29.1902  -13.4543   20.1384 C   0  0  0  0  0  0  0  0  0  0  0  0
  -32.2324  -27.3823   23.7976 C   0  0  0  0  0  0  0  0  0  0  0  0
  -26.1755  -29.0422   19.1677 C   0  0  0  0  0  0  0  0  0  0  0  0
  -31.6698  -27.9298   22.6287 C   0  0  0  0  0  0  0  0  0  0  0  0
  -25.6451  -27.7637   18.9434 C   0  0  0  0  0  0  0  0  0  0  0  0
  -28.3492  -20.7547   17.1138 C   0  0  0  0  0  0  0  0  0  0  0  0
  -24.2805  -11.7343   20.2454 C   0  0  0  0  0  0  0  0  0  0  0  0
  -25.2226  -28.3592   16.6246 C   0  0  0  0  0  0  0  0  0  0  0  0
  -23.0918   -9.8096   20.8815 C   0  0  0  0  0  0  0  0  0  0  0  0
  -23.0353   -7.3633   22.2213 C   0  0  0  0  0  0  0  0  0  0  0  0
  -22.1826   -9.6035   21.9191 C   0  0  0  0  0  0  0  0  0  0  0  0
  -27.8861  -13.9454   20.3385 C   0  0  0  0  0  0  0  0  0  0  0  0
  -29.9967  -14.5584   20.2690 C   0  0  0  0  0  0  0  0  0  0  0  0
  -25.3602  -26.9763   14.7433 C   0  0  0  0  0  0  0  0  0  1  0  0
  -26.9003  -23.0861   13.8367 C   0  0  0  0  0  0  0  0  0  0  0  0
  -29.6330  -12.1194   19.8595 C   0  0  0  0  0  0  0  0  0  0  0  0
  -24.7303  -26.1737   13.8709 C   0  0  0  0  0  0  0  0  0  0  0  0
  -25.5626  -25.0766   13.2613 C   0  0  0  0  0  0  0  0  0  0  0  0
  -28.3729  -27.6391   20.9859 C   0  0  0  0  0  0  0  0  0  0  0  0
  -25.7776  -26.4667   22.5391 C   0  0  0  0  0  0  0  0  0  0  0  0
  -22.4662  -25.6472   22.4381 C   0  0  0  0  0  0  0  0  0  0  0  0
  -29.0606  -20.4104   19.5059 C   0  0  0  0  0  0  0  0  0  0  0  0
  -31.9419  -25.9669   24.2300 C   0  0  0  0  0  0  0  0  0  0  0  0
  -26.6626  -29.4357   20.5353 C   0  0  0  0  0  0  0  0  0  0  0  0
  -25.5717  -26.7324   20.0386 C   0  0  0  0  0  0  0  0  0  0  0  0
  -30.6992  -25.3720   23.5725 C   0  0  0  0  0  0  0  0  0  0  0  0
  -30.2029  -18.8057   22.4718 C   0  0  0  0  0  0  0  0  0  0  0  0
  -30.7050  -25.6483   22.0724 C   0  0  0  0  0  0  0  0  0  0  0  0
  -29.8626  -17.3316   22.2405 C   0  0  0  0  0  0  0  0  0  0  0  0
  -29.1336  -19.7318   21.8952 C   0  0  0  0  0  0  0  0  0  0  0  0
  -28.4637  -18.0226   20.2524 C   0  0  0  0  0  0  0  0  0  0  0  0
  -30.6777  -27.1550   21.7888 C   0  0  1  0  0  0  0  0  0  0  0  0
  -27.0579  -28.2396   21.3957 C   0  0  1  0  0  0  0  0  0  0  0  0
  -29.5439  -17.0526   20.7586 C   0  0  2  0  0  0  0  0  0  0  0  0
  -23.2860  -26.3459   13.5041 C   0  0  0  0  0  0  0  0  0  0  0  0
  -20.6337  -24.6746   23.8499 C   0  0  0  0  0  0  0  0  0  0  0  0
  -26.9563  -23.6801   22.1450 C   0  0  0  0  0  0  0  0  0  0  0  0
  -24.7071  -22.7271   22.6939 C   0  0  0  0  0  0  0  0  0  0  0  0
  -25.9382  -24.0735   24.3951 C   0  0  0  0  0  0  0  0  0  0  0  0
  -20.8494  -28.1187   22.2476 C   0  0  0  0  0  0  0  0  0  0  0  0
  -24.9127  -25.2374   22.3987 C   0  0  1  0  0  0  0  0  0  0  0  0
  -21.3242  -25.9496   23.3914 C   0  0  2  0  0  0  0  0  0  0  0  0
  -25.6316  -23.9481   22.8869 C   0  0  0  0  0  0  0  0  0  0  0  0
  -27.8610  -15.2591   20.5781 N   0  0  0  0  0  0  0  0  0  0  0  0
  -29.1593  -15.6029   20.5295 N   0  0  0  0  0  0  0  0  0  0  0  0
  -26.0662  -27.1629   21.3568 N   0  0  0  0  0  0  0  0  0  0  0  0
  -28.8873  -19.4118   20.4875 N   0  0  0  0  0  0  0  0  0  0  0  0
  -31.3333  -14.7279   20.1853 N   0  0  0  0  0  0  0  0  0  0  0  0
  -28.6720  -11.1042   19.7581 N   0  0  0  0  0  0  0  0  0  0  0  0
  -28.8295  -19.9810   18.1994 N   0  0  0  0  0  0  0  0  0  0  0  0
  -26.1032  -24.1787   14.1803 N   0  0  0  0  0  0  0  0  0  0  0  0
  -29.3412  -27.6795   21.9709 N   0  0  0  0  0  0  0  0  0  0  0  0
  -23.6689  -25.5309   23.1025 N   0  0  0  0  0  0  0  0  0  0  0  0
  -20.3123  -26.8196   22.7280 N   0  3  0  0  0  0  0  0  0  0  0  0
  -27.2264  -22.7756   12.6943 O   0  0  0  0  0  0  0  0  0  0  0  0
  -30.8462  -11.8324   19.7210 O   0  0  0  0  0  0  0  0  0  0  0  0
  -25.7314  -25.0012   12.0449 O   0  0  0  0  0  0  0  0  0  0  0  0
  -28.4992  -27.1722   19.8600 O   0  0  0  0  0  0  0  0  0  0  0  0
  -26.1763  -26.8012   23.6575 O   0  0  0  0  0  0  0  0  0  0  0  0
  -22.3068  -25.5226   21.2259 O   0  0  0  0  0  0  0  0  0  0  0  0
  -29.4162  -21.5546   19.7998 O   0  0  0  0  0  0  0  0  0  0  0  0
  -23.1205  -11.0230   20.2148 O   0  0  0  0  0  0  0  0  0  0  0  0
  -24.7629  -28.0223   15.3889 O   0  0  0  0  0  0  0  0  0  1  0  0
  -23.0073   -6.1882   22.8636 F   0  0  0  0  0  0  0  0  0  0  0  0
  -21.3331  -10.5765   22.2760 F   0  0  0  0  0  0  0  0  0  0  0  0
  1  2  1  0  0  0  0
  1  7  2  0  0  0  0
  2  8  2  0  0  0  0
  3 12  2  0  0  0  0
  3 19  1  0  0  0  0
  4 13  1  0  0  0  0
  4 19  2  0  0  0  0
  5 10  2  0  0  0  0
  5 20  1  0  0  0  0
  6 11  1  0  0  0  0
  6 20  2  0  0  0  0
  7 22  1  0  0  0  0
  8 24  1  0  0  0  0
  9 14  2  0  0  0  0
  9 23  1  0  0  0  0
 10 26  1  0  0  0  0
 11 26  2  0  0  0  0
 12 27  1  0  0  0  0
 13 27  2  0  0  0  0
 14 28  1  0  0  0  0
 15 16  2  0  0  0  0
 15 29  1  0  0  0  0
 16 30  1  0  0  0  0
 17 25  1  0  0  0  0
 17 28  2  0  0  0  0
 18 30  2  0  0  0  0
 18 31  1  0  0  0  0
 19 32  1  0  0  0  0
 20 35  1  0  0  0  0
 21 32  1  0  0  0  0
 21 33  2  0  0  0  0
 21 36  1  0  0  0  0
 22 24  2  0  0  0  0
 22 43  1  0  0  0  0
 23 25  2  0  0  0  0
 23 44  1  0  0  0  0
 24 52  1  0  0  0  0
 25 45  1  0  0  0  0
 26 70  1  0  0  0  0
 27 82  1  0  0  0  0
 28 83  1  0  0  0  0
 29 31  2  0  0  0  0
 29 82  1  0  0  0  0
 30 84  1  0  0  0  0
 31 85  1  0  0  0  0
 32 64  2  0  0  0  0
 33 65  1  0  0  0  0
 33 68  1  0  0  0  0
 34 37  2  0  0  0  0
 34 83  1  0  0  0  0
 35 71  1  0  0  0  0
 35 75  2  0  0  0  0
 36 69  1  0  0  0  0
 36 76  2  0  0  0  0
 37 38  1  0  0  0  0
 37 55  1  0  0  0  0
 38 71  1  0  0  0  0
 38 77  2  0  0  0  0
 39 53  1  0  0  0  0
 39 72  1  0  0  0  0
 39 78  2  0  0  0  0
 40 61  1  0  0  0  0
 40 66  1  0  0  0  0
 40 79  2  0  0  0  0
 41 62  1  0  0  0  0
 41 73  1  0  0  0  0
 41 80  2  0  0  0  0
 42 67  1  0  0  0  0
 42 70  1  0  0  0  0
 42 81  2  0  0  0  0
 43 46  1  0  0  0  0
 44 53  1  0  0  0  0
 45 66  1  0  0  0  0
 46 48  1  0  0  0  0
 47 49  1  0  0  0  0
 47 50  1  0  0  0  0
 48 52  1  0  0  0  0
 49 54  1  0  0  0  0
 50 67  1  0  0  0  0
 51 54  1  0  0  0  0
 51 67  1  0  0  0  0
 52 72  1  0  0  0  0
 53 66  1  0  0  0  0
 54 65  1  0  0  0  0
 56 62  1  0  0  0  0
 57 63  1  0  0  0  0
 58 63  1  0  0  0  0
 59 63  1  0  0  0  0
 60 74  1  0  0  0  0
 61 63  1  0  0  0  0
 61 73  1  0  0  0  0
 62 74  1  0  0  0  0
 64 65  1  0  0  0  0
M  CHG  1  74   1
M  ISO  4  34 101  42 100  70 100  83 101
M  END
> <Batch ID>
0083

> <Smiles>
CNC(C)C(=O)NC(C(=O)N1Cc2cc([101O:1][101CH:1]=C(C)C(=O)NC(=O)c3ccc([100NH:0][100C:0](=O)N4CCCC(n5nc(-c6ccc(Oc7ccc(F)cc7F)cc6)c(C(N)=O)c5N)C4)cc3)ccc2CC1C(=O)NC1CCCc2ccccc21)C(C)(C)C

> <Shape>
0.215

> <Color>
0.079

> <Negative vol penalty>
0.000

$$$$

  -OEChem-04052300093D

 84 93  0     1  0  0  0  0  0999 V2000
  -27.3783  -37.7506   23.8460 C   0  0  0  0  0  0  0  0  0  0  0  0
  -27.9648  -36.8071   23.0086 C   0  0  0  0  0  0  0  0  0  0  0  0
  -24.1859   -9.2995   22.2135 C   0  0  0  0  0  0  0  0  0  0  0  0
  -22.9231  -11.2834   21.6598 C   0  0  0  0  0  0  0  0  0  0  0  0
  -26.4957  -37.3416   24.8447 C   0  0  0  0  0  0  0  0  0  0  0  0
  -27.6698  -35.4538   23.1702 C   0  0  0  0  0  0  0  0  0  0  0  0
  -26.9110  -29.4153   19.3918 C   0  0  0  0  0  0  0  0  0  0  0  0
  -26.2998  -19.4060   19.1256 C   0  0  0  0  0  0  0  0  0  0  0  0
  -26.5644  -18.0444   18.9786 C   0  0  0  0  0  0  0  0  0  0  0  0
  -23.3208   -9.0459   23.2778 C   0  0  0  0  0  0  0  0  0  0  0  0
  -22.0579  -11.0298   22.7241 C   0  0  0  0  0  0  0  0  0  0  0  0
  -27.3662  -28.0978   19.3639 C   0  0  0  0  0  0  0  0  0  0  0  0
  -20.2302   -7.7480   23.7209 C   0  0  0  0  0  0  0  0  0  0  0  0
  -19.7721   -6.4410   23.8866 C   0  0  0  0  0  0  0  0  0  0  0  0
  -25.7657  -27.5151   21.0721 C   0  0  0  0  0  0  0  0  0  0  0  0
  -28.8456  -18.4116   19.6847 C   0  0  0  0  0  0  0  0  0  0  0  0
  -20.7712   -6.3696   26.0852 C   0  0  0  0  0  0  0  0  0  0  0  0
  -23.9871  -10.4183   21.4045 C   0  0  0  0  0  0  0  0  0  0  0  0
  -24.7521  -10.2291   18.9782 C   0  0  0  0  0  0  0  0  0  0  0  0
  -26.1822  -35.9836   25.0125 C   0  0  0  0  0  0  0  0  0  0  0  0
  -25.8855  -29.7956   20.2693 C   0  0  0  0  0  0  0  0  0  0  0  0
  -26.7831  -35.0262   24.1730 C   0  0  0  0  0  0  0  0  0  0  0  0
  -25.2975  -28.8374   21.1073 C   0  0  0  0  0  0  0  0  0  0  0  0
  -27.3081  -20.2704   19.5521 C   0  0  0  0  0  0  0  0  0  0  0  0
  -27.8373  -17.5472   19.2582 C   0  0  0  0  0  0  0  0  0  0  0  0
  -22.2568   -9.9110   23.5331 C   0  0  0  0  0  0  0  0  0  0  0  0
  -26.7956  -27.1481   20.2062 C   0  0  0  0  0  0  0  0  0  0  0  0
  -20.9588   -8.3658   24.7373 C   0  0  0  0  0  0  0  0  0  0  0  0
  -20.0426   -5.7518   25.0688 C   0  0  0  0  0  0  0  0  0  0  0  0
  -28.5810  -19.7732   19.8317 C   0  0  0  0  0  0  0  0  0  0  0  0
  -21.2293   -7.6766   25.9194 C   0  0  0  0  0  0  0  0  0  0  0  0
  -24.8808  -10.6812   20.3052 C   0  0  0  0  0  0  0  0  0  0  0  0
  -25.8475  -10.7468   18.3314 C   0  0  0  0  0  0  0  0  0  0  0  0
  -26.6694  -23.5750   19.8071 C   0  0  0  0  0  0  0  0  0  0  0  0
  -25.9252  -22.3530   19.4998 C   0  0  0  0  0  0  0  0  0  0  0  0
  -26.3437  -24.8791   19.8622 C   0  0  0  0  0  0  0  0  0  1  0  0
  -23.7334   -9.4141   18.3835 C   0  0  0  0  0  0  0  0  0  0  0  0
  -25.6518  -31.8329   22.6980 C   0  0  0  0  0  0  0  0  0  0  0  0
  -22.5157  -31.0131   22.5759 C   0  0  0  0  0  0  0  0  0  0  0  0
  -20.1531  -28.7222   21.6721 C   0  0  0  0  0  0  0  0  0  0  0  0
  -29.3136  -15.5077   19.3439 C   0  0  0  0  0  0  0  0  0  0  0  0
  -25.2589  -35.5851   26.1365 C   0  0  0  0  0  0  0  0  0  0  0  0
  -25.3875  -31.2149   20.2681 C   0  0  0  0  0  0  0  0  0  0  0  0
  -24.1798  -29.1901   22.0533 C   0  0  0  0  0  0  0  0  0  0  0  0
  -27.9078  -22.7348   20.0196 C   0  0  0  0  0  0  0  0  0  0  0  0
  -24.7098  -34.1674   26.0001 C   0  0  0  0  0  0  0  0  0  0  0  0
  -30.3676  -12.1136   19.1285 C   0  0  0  0  0  0  0  0  0  0  0  0
  -25.8291  -33.1929   25.6477 C   0  0  0  0  0  0  0  0  0  0  0  0
  -29.0676  -11.3201   19.2790 C   0  0  0  0  0  0  0  0  0  0  0  0
  -30.3753  -13.3618   20.0093 C   0  0  0  0  0  0  0  0  0  0  0  0
  -27.9134  -13.4510   19.9957 C   0  0  0  0  0  0  0  0  0  0  0  0
  -26.4690  -33.5514   24.3010 C   0  0  1  0  0  0  0  0  0  0  0  0
  -24.6890  -31.6041   21.5674 C   0  0  1  0  0  0  0  0  0  0  0  0
  -27.8320  -12.2195   19.0791 C   0  0  2  0  0  0  0  0  0  0  0  0
  -17.6776  -28.3154   21.7361 C   0  0  0  0  0  0  0  0  0  0  0  0
  -22.7064  -30.3347   25.5446 C   0  0  0  0  0  0  0  0  0  0  0  0
  -20.5556  -29.0725   25.3230 C   0  0  0  0  0  0  0  0  0  0  0  0
  -20.6109  -31.5266   24.8793 C   0  0  0  0  0  0  0  0  0  0  0  0
  -19.9788  -28.6052   18.7200 C   0  0  0  0  0  0  0  0  0  0  0  0
  -21.6650  -29.9422   23.2149 C   0  0  1  0  0  0  0  0  0  0  0  0
  -18.8391  -28.8709   20.9266 C   0  0  2  0  0  0  0  0  0  0  0  0
  -21.4068  -30.2125   24.7241 C   0  0  0  0  0  0  0  0  0  0  0  0
  -25.9720  -11.4284   20.4918 N   0  0  0  0  0  0  0  0  0  0  0  0
  -26.5390  -11.4499   19.2736 N   0  0  0  0  0  0  0  0  0  0  0  0
  -27.0443  -21.6128   19.6962 N   0  0  0  0  0  0  0  0  0  0  0  0
  -23.7320  -30.5922   22.0197 N   0  0  0  0  0  0  0  0  0  0  0  0
  -29.1773  -14.1672   19.7625 N   0  0  0  0  0  0  0  0  0  0  0  0
  -26.2771  -10.6647   17.0542 N   0  0  0  0  0  0  0  0  0  0  0  0
  -22.6788   -8.9674   19.1913 N   0  0  0  0  0  0  0  0  0  0  0  0
  -28.1059  -16.1640   19.1087 N   0  0  0  0  0  0  0  0  0  0  0  0
  -25.6250  -33.1165   23.2088 N   0  0  0  0  0  0  0  0  0  0  0  0
  -20.4527  -29.8487   22.4087 N   0  0  0  0  0  0  0  0  0  0  0  0
  -18.8959  -28.1444   19.6267 N   0  3  0  0  0  0  0  0  0  0  0  0
  -24.7813  -22.0992   19.1844 O   0  0  0  0  0  0  0  0  0  0  0  0
  -23.7663   -9.0780   17.1754 O   0  0  0  0  0  0  0  0  0  0  0  0
  -26.3652  -30.9125   23.0797 O   0  0  0  0  0  0  0  0  0  0  0  0
  -22.1125  -32.1788   22.5641 O   0  0  0  0  0  0  0  0  0  0  0  0
  -20.8427  -27.7068   21.6104 O   0  0  0  0  0  0  0  0  0  0  0  0
  -30.4206  -16.0264   19.1781 O   0  0  0  0  0  0  0  0  0  0  0  0
  -21.4123   -9.6637   24.5715 O   0  0  0  0  0  0  0  0  0  0  0  0
  -27.2384  -25.8616   20.1816 O   0  0  0  0  0  0  0  0  0  1  0  0
  -19.6013   -4.4972   25.2284 F   0  0  0  0  0  0  0  0  0  0  0  0
  -29.5580  -20.5949   20.2417 F   0  0  0  0  0  0  0  0  0  0  0  0
  -21.9278   -8.2654   26.8999 F   0  0  0  0  0  0  0  0  0  0  0  0
  1  2  1  0  0  0  0
  1  5  2  0  0  0  0
  2  6  2  0  0  0  0
  3 10  2  0  0  0  0
  3 18  1  0  0  0  0
  4 11  1  0  0  0  0
  4 18  2  0  0  0  0
  5 20  1  0  0  0  0
  6 22  1  0  0  0  0
  7 12  2  0  0  0  0
  7 21  1  0  0  0  0
  8  9  2  0  0  0  0
  8 24  1  0  0  0  0
  9 25  1  0  0  0  0
 10 26  1  0  0  0  0
 11 26  2  0  0  0  0
 12 27  1  0  0  0  0
 13 14  2  0  0  0  0
 13 28  1  0  0  0  0
 14 29  1  0  0  0  0
 15 23  1  0  0  0  0
 15 27  2  0  0  0  0
 16 25  2  0  0  0  0
 16 30  1  0  0  0  0
 17 29  2  0  0  0  0
 17 31  1  0  0  0  0
 18 32  1  0  0  0  0
 19 32  1  0  0  0  0
 19 33  2  0  0  0  0
 19 37  1  0  0  0  0
 20 22  2  0  0  0  0
 20 42  1  0  0  0  0
 21 23  2  0  0  0  0
 21 43  1  0  0  0  0
 22 52  1  0  0  0  0
 23 44  1  0  0  0  0
 24 30  2  0  0  0  0
 24 65  1  0  0  0  0
 25 70  1  0  0  0  0
 26 80  1  0  0  0  0
 27 81  1  0  0  0  0
 28 31  2  0  0  0  0
 28 80  1  0  0  0  0
 29 82  1  0  0  0  0
 30 83  1  0  0  0  0
 31 84  1  0  0  0  0
 32 63  2  0  0  0  0
 33 64  1  0  0  0  0
 33 68  1  0  0  0  0
 34 35  1  0  0  0  0
 34 36  2  0  0  0  0
 34 45  1  0  0  0  0
 35 65  1  0  0  0  0
 35 74  2  0  0  0  0
 36 81  1  0  0  0  0
 37 69  1  0  0  0  0
 37 75  2  0  0  0  0
 38 53  1  0  0  0  0
 38 71  1  0  0  0  0
 38 76  2  0  0  0  0
 39 60  1  0  0  0  0
 39 66  1  0  0  0  0
 39 77  2  0  0  0  0
 40 61  1  0  0  0  0
 40 72  1  0  0  0  0
 40 78  2  0  0  0  0
 41 67  1  0  0  0  0
 41 70  1  0  0  0  0
 41 79  2  0  0  0  0
 42 46  1  0  0  0  0
 43 53  1  0  0  0  0
 44 66  1  0  0  0  0
 45 65  1  0  0  0  0
 46 48  1  0  0  0  0
 47 49  1  0  0  0  0
 47 50  1  0  0  0  0
 48 52  1  0  0  0  0
 49 54  1  0  0  0  0
 50 67  1  0  0  0  0
 51 54  1  0  0  0  0
 51 67  1  0  0  0  0
 52 71  1  0  0  0  0
 53 66  1  0  0  0  0
 54 64  1  0  0  0  0
 55 61  1  0  0  0  0
 56 62  1  0  0  0  0
 57 62  1  0  0  0  0
 58 62  1  0  0  0  0
 59 73  1  0  0  0  0
 60 62  1  0  0  0  0
 60 72  1  0  0  0  0
 61 73  1  0  0  0  0
 63 64  1  0  0  0  0
M  CHG  1  73   1
M  ISO  4  36 101  41 100  70 100  81 101
M  END
> <Batch ID>
0083

> <Smiles>
CNC(C)C(=O)NC(C(=O)N1Cc2cc([101O:1][101CH:1]=C3CN(c4ccc([100NH:0][100C:0](=O)N5CCCC(n6nc(-c7ccc(Oc8ccc(F)cc8F)cc7)c(C(N)=O)c6N)C5)cc4F)C3=O)ccc2CC1C(=O)NC1CCCc2ccccc21)C(C)(C)C

> <Shape>
0.297

> <Color>
0.088

> <Negative vol penalty>
0.000

$$$$

  -OEChem-04052300093D

 86 95  0     1  0  0  0  0  0999 V2000
  -27.7295  -37.5391   22.2558 C   0  0  0  0  0  0  0  0  0  0  0  0
  -28.2413  -36.3139   21.8407 C   0  0  0  0  0  0  0  0  0  0  0  0
  -25.7585  -19.5043   17.3238 C   0  0  0  0  0  0  0  0  0  0  0  0
  -23.9563   -9.6332   21.6969 C   0  0  0  0  0  0  0  0  0  0  0  0
  -23.1569  -11.8507   21.1670 C   0  0  0  0  0  0  0  0  0  0  0  0
  -26.6784  -37.5802   23.1709 C   0  0  0  0  0  0  0  0  0  0  0  0
  -27.7029  -35.1290   22.3413 C   0  0  0  0  0  0  0  0  0  0  0  0
  -27.0680  -29.8218   19.3519 C   0  0  0  0  0  0  0  0  0  0  0  0
  -26.3986  -20.6468   17.8040 C   0  0  0  0  0  0  0  0  0  0  0  0
  -26.2578  -18.2406   17.6389 C   0  0  0  0  0  0  0  0  0  0  0  0
  -22.8085   -9.4005   22.4545 C   0  0  0  0  0  0  0  0  0  0  0  0
  -22.0090  -11.6179   21.9245 C   0  0  0  0  0  0  0  0  0  0  0  0
  -27.8347  -28.6575   19.3345 C   0  0  0  0  0  0  0  0  0  0  0  0
  -19.5747   -8.5884   21.8918 C   0  0  0  0  0  0  0  0  0  0  0  0
  -18.9257   -7.3650   21.7261 C   0  0  0  0  0  0  0  0  0  0  0  0
  -26.3844  -27.6847   20.9986 C   0  0  0  0  0  0  0  0  0  0  0  0
  -28.0374  -19.2618   18.9146 C   0  0  0  0  0  0  0  0  0  0  0  0
  -19.2691   -6.8659   24.0649 C   0  0  0  0  0  0  0  0  0  0  0  0
  -24.1305  -10.8584   21.0532 C   0  0  0  0  0  0  0  0  0  0  0  0
  -25.7532  -10.3769   19.1446 C   0  0  0  0  0  0  0  0  0  0  0  0
  -26.1204  -36.3951   23.6756 C   0  0  0  0  0  0  0  0  0  0  0  0
  -25.9582  -29.9305   20.2022 C   0  0  0  0  0  0  0  0  0  0  0  0
  -26.6442  -35.1544   23.2650 C   0  0  0  0  0  0  0  0  0  0  0  0
  -25.6037  -28.8504   21.0231 C   0  0  0  0  0  0  0  0  0  0  0  0
  -27.5380  -20.5255   18.5994 C   0  0  0  0  0  0  0  0  0  0  0  0
  -27.3973  -18.1193   18.4343 C   0  0  0  0  0  0  0  0  0  0  0  0
  -21.8348  -10.3928   22.5683 C   0  0  0  0  0  0  0  0  0  0  0  0
  -27.4947  -27.5898   20.1600 C   0  0  0  0  0  0  0  0  0  0  0  0
  -20.0711   -8.9506   23.1441 C   0  0  0  0  0  0  0  0  0  0  0  0
  -18.7729   -6.5037   22.8126 C   0  0  0  0  0  0  0  0  0  0  0  0
  -19.9183   -8.0894   24.2306 C   0  0  0  0  0  0  0  0  0  0  0  0
  -25.3163  -11.0996   20.2709 C   0  0  0  0  0  0  0  0  0  0  0  0
  -26.9200  -10.9973   18.7701 C   0  0  0  0  0  0  0  0  0  0  0  0
  -28.2635  -24.1020   19.7532 C   0  0  0  0  0  0  0  0  0  0  0  0
  -27.4648  -22.8875   19.3579 C   0  0  0  0  0  0  0  0  0  0  0  0
  -30.3370  -22.8736   19.2790 C   0  0  0  0  0  0  0  0  0  0  0  0
  -31.4104  -23.0157   18.4889 C   0  0  0  0  0  0  0  0  0  0  0  0
  -27.6256  -25.2823   19.8010 C   0  0  0  0  0  0  0  0  0  1  0  0
  -25.1577   -9.2460   18.4949 C   0  0  0  0  0  0  0  0  0  0  0  0
  -25.1672  -31.8281   22.6266 C   0  0  0  0  0  0  0  0  0  0  0  0
  -22.3345  -30.2612   22.4197 C   0  0  0  0  0  0  0  0  0  0  0  0
  -20.6340  -27.4657   21.4502 C   0  0  0  0  0  0  0  0  0  0  0  0
  -29.0234  -16.5383   19.5308 C   0  0  0  0  0  0  0  0  0  0  0  0
  -25.0166  -36.4908   24.6989 C   0  0  0  0  0  0  0  0  0  0  0  0
  -25.1256  -31.1832   20.1897 C   0  0  0  0  0  0  0  0  0  0  0  0
  -24.4097  -28.9092   21.9393 C   0  0  0  0  0  0  0  0  0  0  0  0
  -29.7280  -23.9994   20.0467 C   0  0  0  0  0  0  0  0  0  0  0  0
  -29.6225  -21.5740   19.4733 C   0  0  0  0  0  0  0  0  0  0  0  0
  -24.2538  -35.1833   24.8960 C   0  0  0  0  0  0  0  0  0  0  0  0
  -30.5735  -13.5094   20.5799 C   0  0  0  0  0  0  0  0  0  0  0  0
  -25.2243  -34.0146   25.0345 C   0  0  0  0  0  0  0  0  0  0  0  0
  -29.4425  -12.4807   20.5114 C   0  0  0  0  0  0  0  0  0  0  0  0
  -30.0715  -14.8738   21.0493 C   0  0  0  0  0  0  0  0  0  0  0  0
  -27.8032  -14.3825   20.2231 C   0  0  0  0  0  0  0  0  0  0  0  0
  -26.0703  -33.8469   23.7666 C   0  0  1  0  0  0  0  0  0  0  0  0
  -24.3198  -31.3778   21.4704 C   0  0  1  0  0  0  0  0  0  0  0  0
  -28.2484  -13.0097   19.6930 C   0  0  2  0  0  0  0  0  0  0  0  0
  -18.3346  -26.4604   21.4476 C   0  0  0  0  0  0  0  0  0  0  0  0
  -22.6108  -29.6275   25.3916 C   0  0  0  0  0  0  0  0  0  0  0  0
  -20.8443  -27.8757   25.1110 C   0  0  0  0  0  0  0  0  0  0  0  0
  -20.3037  -30.2710   24.6723 C   0  0  0  0  0  0  0  0  0  0  0  0
  -20.5694  -27.3325   18.4944 C   0  0  0  0  0  0  0  0  0  0  0  0
  -21.7583  -29.0086   23.0345 C   0  0  1  0  0  0  0  0  0  0  0  0
  -19.3434  -27.2916   20.6702 C   0  0  2  0  0  0  0  0  0  0  0  0
  -21.4029  -29.1950   24.5366 C   0  0  0  0  0  0  0  0  0  0  0  0
  -26.1385  -12.1023   20.5911 N   0  0  0  0  0  0  0  0  0  0  0  0
  -27.1040  -12.0140   19.6604 N   0  0  0  0  0  0  0  0  0  0  0  0
  -28.2013  -21.7114   19.0978 N   0  0  0  0  0  0  0  0  0  0  0  0
  -23.6308  -30.1577   21.8956 N   0  0  0  0  0  0  0  0  0  0  0  0
  -28.9431  -15.3128   20.2254 N   0  0  0  0  0  0  0  0  0  0  0  0
  -27.7963  -10.7668   17.7694 N   0  0  0  0  0  0  0  0  0  0  0  0
  -23.9587   -8.7346   19.0098 N   0  0  0  0  0  0  0  0  0  0  0  0
  -27.9039  -16.8353   18.7542 N   0  0  0  0  0  0  0  0  0  0  0  0
  -25.2995  -33.2000   22.7265 N   0  0  0  0  0  0  0  0  0  0  0  0
  -20.6275  -28.6254   22.1961 N   0  0  0  0  0  0  0  0  0  0  0  0
  -19.6109  -26.6118   19.3712 N   0  3  0  0  0  0  0  0  0  0  0  0
  -26.2365  -22.9739   19.3029 O   0  0  0  0  0  0  0  0  0  0  0  0
  -25.6821   -8.6949   17.4975 O   0  0  0  0  0  0  0  0  0  0  0  0
  -25.6631  -30.9928   23.3736 O   0  0  0  0  0  0  0  0  0  0  0  0
  -21.6566  -31.2916   22.3987 O   0  0  0  0  0  0  0  0  0  0  0  0
  -21.5542  -26.6522   21.4056 O   0  0  0  0  0  0  0  0  0  0  0  0
  -30.0237  -17.2573   19.5968 O   0  0  0  0  0  0  0  0  0  0  0  0
  -20.7145  -10.1659   23.3072 O   0  0  0  0  0  0  0  0  0  0  0  0
  -28.2418  -26.4525   20.1454 O   0  0  0  0  0  0  0  0  0  1  0  0
  -18.1482   -5.3296   22.6536 F   0  0  0  0  0  0  0  0  0  0  0  0
  -20.3919   -8.4323   25.4364 F   0  0  0  0  0  0  0  0  0  0  0  0
  1  2  1  0  0  0  0
  1  6  2  0  0  0  0
  2  7  2  0  0  0  0
  3  9  2  0  0  0  0
  3 10  1  0  0  0  0
  4 11  2  0  0  0  0
  4 19  1  0  0  0  0
  5 12  1  0  0  0  0
  5 19  2  0  0  0  0
  6 21  1  0  0  0  0
  7 23  1  0  0  0  0
  8 13  2  0  0  0  0
  8 22  1  0  0  0  0
  9 25  1  0  0  0  0
 10 26  2  0  0  0  0
 11 27  1  0  0  0  0
 12 27  2  0  0  0  0
 13 28  1  0  0  0  0
 14 15  2  0  0  0  0
 14 29  1  0  0  0  0
 15 30  1  0  0  0  0
 16 24  1  0  0  0  0
 16 28  2  0  0  0  0
 17 25  2  0  0  0  0
 17 26  1  0  0  0  0
 18 30  2  0  0  0  0
 18 31  1  0  0  0  0
 19 32  1  0  0  0  0
 20 32  1  0  0  0  0
 20 33  2  0  0  0  0
 20 39  1  0  0  0  0
 21 23  2  0  0  0  0
 21 44  1  0  0  0  0
 22 24  2  0  0  0  0
 22 45  1  0  0  0  0
 23 55  1  0  0  0  0
 24 46  1  0  0  0  0
 25 68  1  0  0  0  0
 26 73  1  0  0  0  0
 27 83  1  0  0  0  0
 28 84  1  0  0  0  0
 29 31  2  0  0  0  0
 29 83  1  0  0  0  0
 30 85  1  0  0  0  0
 31 86  1  0  0  0  0
 32 66  2  0  0  0  0
 33 67  1  0  0  0  0
 33 71  1  0  0  0  0
 34 35  1  0  0  0  0
 34 38  2  0  0  0  0
 34 47  1  0  0  0  0
 35 68  1  0  0  0  0
 35 77  2  0  0  0  0
 36 37  2  0  0  0  0
 36 47  1  0  0  0  0
 36 48  1  0  0  0  0
 38 84  1  0  0  0  0
 39 72  1  0  0  0  0
 39 78  2  0  0  0  0
 40 56  1  0  0  0  0
 40 74  1  0  0  0  0
 40 79  2  0  0  0  0
 41 63  1  0  0  0  0
 41 69  1  0  0  0  0
 41 80  2  0  0  0  0
 42 64  1  0  0  0  0
 42 75  1  0  0  0  0
 42 81  2  0  0  0  0
 43 70  1  0  0  0  0
 43 73  1  0  0  0  0
 43 82  2  0  0  0  0
 44 49  1  0  0  0  0
 45 56  1  0  0  0  0
 46 69  1  0  0  0  0
 48 68  1  0  0  0  0
 49 51  1  0  0  0  0
 50 52  1  0  0  0  0
 50 53  1  0  0  0  0
 51 55  1  0  0  0  0
 52 57  1  0  0  0  0
 53 70  1  0  0  0  0
 54 57  1  0  0  0  0
 54 70  1  0  0  0  0
 55 74  1  0  0  0  0
 56 69  1  0  0  0  0
 57 67  1  0  0  0  0
 58 64  1  0  0  0  0
 59 65  1  0  0  0  0
 60 65  1  0  0  0  0
 61 65  1  0  0  0  0
 62 76  1  0  0  0  0
 63 65  1  0  0  0  0
 63 75  1  0  0  0  0
 64 76  1  0  0  0  0
 66 67  1  0  0  0  0
M  CHG  1  76   1
M  ISO  4  38 101  43 100  73 100  84 101
M  END
> <Batch ID>
0083

> <Smiles>
C=C1CC(=[101CH:1][101O:1]c2ccc3c(c2)CN(C(=O)C(NC(=O)C(C)NC)C(C)(C)C)C(C(=O)NC2CCCc4ccccc42)C3)C(=O)N(c2cccc([100NH:0][100C:0](=O)N3CCCC(n4nc(-c5ccc(Oc6ccc(F)cc6F)cc5)c(C(N)=O)c4N)C3)c2)C1

> <Shape>
0.316

> <Color>
0.086

> <Negative vol penalty>
0.000

$$$$

  -OEChem-04052300093D

 84 93  0     1  0  0  0  0  0999 V2000
  -26.7633  -34.5401   24.7505 C   0  0  0  0  0  0  0  0  0  0  0  0
  -27.1701  -33.3037   24.2591 C   0  0  0  0  0  0  0  0  0  0  0  0
  -24.8044   -8.6979   21.2766 C   0  0  0  0  0  0  0  0  0  0  0  0
  -23.1939  -10.4673   20.9409 C   0  0  0  0  0  0  0  0  0  0  0  0
  -25.4668  -34.7033   25.2368 C   0  0  0  0  0  0  0  0  0  0  0  0
  -26.2809  -32.2296   24.2548 C   0  0  0  0  0  0  0  0  0  0  0  0
  -26.3620  -29.6578   19.8931 C   0  0  0  0  0  0  0  0  0  0  0  0
  -28.5310  -20.8674   21.7066 C   0  0  0  0  0  0  0  0  0  0  0  0
  -28.2511  -20.0150   19.4633 C   0  0  0  0  0  0  0  0  0  0  0  0
  -28.5643  -19.5625   22.1983 C   0  0  0  0  0  0  0  0  0  0  0  0
  -28.2844  -18.7101   19.9550 C   0  0  0  0  0  0  0  0  0  0  0  0
  -23.7652   -7.7759   21.4024 C   0  0  0  0  0  0  0  0  0  0  0  0
  -22.1548   -9.5454   21.0667 C   0  0  0  0  0  0  0  0  0  0  0  0
  -27.4209  -28.7727   19.6954 C   0  0  0  0  0  0  0  0  0  0  0  0
  -21.5255   -5.0159   22.1702 C   0  0  0  0  0  0  0  0  0  0  0  0
  -21.6010   -4.0893   23.2100 C   0  0  0  0  0  0  0  0  0  0  0  0
  -25.9932  -26.9333   20.3257 C   0  0  0  0  0  0  0  0  0  0  0  0
  -21.6292   -5.8939   24.8162 C   0  0  0  0  0  0  0  0  0  0  0  0
  -24.5187  -10.0436   21.0459 C   0  0  0  0  0  0  0  0  0  0  0  0
  -26.2541  -11.3752   19.7334 C   0  0  0  0  0  0  0  0  0  0  0  0
  -24.5583  -33.6332   25.2295 C   0  0  0  0  0  0  0  0  0  0  0  0
  -25.1116  -29.1878   20.3198 C   0  0  0  0  0  0  0  0  0  0  0  0
  -24.9715  -32.3783   24.7428 C   0  0  0  0  0  0  0  0  0  0  0  0
  -24.9193  -27.8142   20.5256 C   0  0  0  0  0  0  0  0  0  0  0  0
  -28.3743  -21.0936   20.3391 C   0  0  0  0  0  0  0  0  0  0  0  0
  -28.4410  -18.4839   21.3225 C   0  0  0  0  0  0  0  0  0  0  0  0
  -22.4404   -8.1997   21.2975 C   0  0  0  0  0  0  0  0  0  0  0  0
  -27.2374  -27.4106   19.9145 C   0  0  0  0  0  0  0  0  0  0  0  0
  -21.5019   -6.3816   22.4534 C   0  0  0  0  0  0  0  0  0  0  0  0
  -21.6528   -4.5283   24.5330 C   0  0  0  0  0  0  0  0  0  0  0  0
  -21.5537   -6.8206   23.7763 C   0  0  0  0  0  0  0  0  0  0  0  0
  -25.5917  -10.9965   20.9164 C   0  0  0  0  0  0  0  0  0  0  0  0
  -27.1839  -12.3001   20.1415 C   0  0  0  0  0  0  0  0  0  0  0  0
  -28.1982  -24.2583   19.1785 C   0  0  0  0  0  0  0  0  0  0  0  0
  -28.4347  -23.5905   20.4590 C   0  0  0  0  0  0  0  0  0  0  0  0
  -26.0474  -10.9308   18.3860 C   0  0  0  0  0  0  0  0  0  0  0  0
  -28.1142  -25.5538   18.7945 C   0  0  0  0  0  0  0  0  0  1  0  0
  -23.2902  -29.6657   22.8806 C   0  0  0  0  0  0  0  0  0  0  0  0
  -21.1579  -27.8753   21.2161 C   0  0  0  0  0  0  0  0  0  0  0  0
  -20.6063  -25.5323   18.7968 C   0  0  0  0  0  0  0  0  0  0  0  0
  -28.6235  -16.7590   23.1496 C   0  0  0  0  0  0  0  0  0  0  0  0
  -23.1822  -33.8453   25.8093 C   0  0  0  0  0  0  0  0  0  0  0  0
  -23.9721  -30.1523   20.5027 C   0  0  0  0  0  0  0  0  0  0  0  0
  -23.5909  -27.2565   20.9645 C   0  0  0  0  0  0  0  0  0  0  0  0
  -28.0944  -22.9012   18.5210 C   0  0  0  0  0  0  0  0  0  0  0  0
  -22.1843  -32.7564   25.4235 C   0  0  0  0  0  0  0  0  0  0  0  0
  -28.7188  -13.5988   24.7868 C   0  0  0  0  0  0  0  0  0  0  0  0
  -22.8048  -31.3748   25.6055 C   0  0  0  0  0  0  0  0  0  0  0  0
  -27.9683  -12.6712   23.8285 C   0  0  0  0  0  0  0  0  0  0  0  0
  -28.1031  -14.9964   24.8220 C   0  0  0  0  0  0  0  0  0  0  0  0
  -27.1899  -14.7088   22.5521 C   0  0  0  0  0  0  0  0  0  0  0  0
  -24.0283  -31.1957   24.6985 C   0  0  1  0  0  0  0  0  0  0  0  0
  -22.8856  -29.6238   21.4341 C   0  0  1  0  0  0  0  0  0  0  0  0
  -27.8128  -13.3082   22.4337 C   0  0  2  0  0  0  0  0  0  0  0  0
  -27.8584  -26.0047   17.3914 C   0  0  0  0  0  0  0  0  0  0  0  0
  -18.7613  -24.2423   17.6881 C   0  0  0  0  0  0  0  0  0  0  0  0
  -20.9526  -26.0681   23.6660 C   0  0  0  0  0  0  0  0  0  0  0  0
  -19.8832  -24.3341   22.2108 C   0  0  0  0  0  0  0  0  0  0  0  0
  -18.7733  -26.5444   22.5354 C   0  0  0  0  0  0  0  0  0  0  0  0
  -21.2299  -26.6930   16.1468 C   0  0  0  0  0  0  0  0  0  0  0  0
  -20.8548  -26.4004   21.1075 C   0  0  1  0  0  0  0  0  0  0  0  0
  -19.6261  -25.4922   17.6383 C   0  0  2  0  0  0  0  0  0  0  0  0
  -20.1417  -25.8472   22.3735 C   0  0  0  0  0  0  0  0  0  0  0  0
  -26.0609  -11.6289   21.9952 N   0  0  0  0  0  0  0  0  0  0  0  0
  -27.0282  -12.4144   21.4916 N   0  0  0  0  0  0  0  0  0  0  0  0
  -28.3411  -22.3805   19.8540 N   0  0  0  0  0  0  0  0  0  0  0  0
  -22.5093  -28.2405   21.1359 N   0  0  0  0  0  0  0  0  0  0  0  0
  -27.9909  -15.5382   23.4661 N   0  0  0  0  0  0  0  0  0  0  0  0
  -28.1114  -13.0185   19.4736 N   0  0  0  0  0  0  0  0  0  0  0  0
  -25.0504   -9.9763   18.1428 N   0  0  0  0  0  0  0  0  0  0  0  0
  -28.4748  -17.1582   21.8217 N   0  0  0  0  0  0  0  0  0  0  0  0
  -23.6139  -30.9289   23.3378 N   0  0  0  0  0  0  0  0  0  0  0  0
  -20.0975  -26.2293   19.8723 N   0  0  0  0  0  0  0  0  0  0  0  0
  -20.3579  -25.5060   16.3401 N   0  3  0  0  0  0  0  0  0  0  0  0
  -28.6235  -23.9596   21.5994 O   0  0  0  0  0  0  0  0  0  0  0  0
  -26.7377  -11.3552   17.4284 O   0  0  0  0  0  0  0  0  0  0  0  0
  -23.3059  -28.6290   23.5338 O   0  0  0  0  0  0  0  0  0  0  0  0
  -20.2294  -28.6746   21.3595 O   0  0  0  0  0  0  0  0  0  0  0  0
  -21.7111  -24.9957   18.7536 O   0  0  0  0  0  0  0  0  0  0  0  0
  -29.2738  -17.3893   23.9874 O   0  0  0  0  0  0  0  0  0  0  0  0
  -21.4262   -7.3003   21.4200 O   0  0  0  0  0  0  0  0  0  0  0  0
  -28.2695  -26.5446   19.7229 O   0  0  0  0  0  0  0  0  0  1  0  0
  -21.7237   -3.6382   25.5315 F   0  0  0  0  0  0  0  0  0  0  0  0
  -21.5302   -8.1312   24.0546 F   0  0  0  0  0  0  0  0  0  0  0  0
  1  2  1  0  0  0  0
  1  5  2  0  0  0  0
  2  6  2  0  0  0  0
  3 12  2  0  0  0  0
  3 19  1  0  0  0  0
  4 13  1  0  0  0  0
  4 19  2  0  0  0  0
  5 21  1  0  0  0  0
  6 23  1  0  0  0  0
  7 14  2  0  0  0  0
  7 22  1  0  0  0  0
  8 10  2  0  0  0  0
  8 25  1  0  0  0  0
  9 11  1  0  0  0  0
  9 25  2  0  0  0  0
 10 26  1  0  0  0  0
 11 26  2  0  0  0  0
 12 27  1  0  0  0  0
 13 27  2  0  0  0  0
 14 28  1  0  0  0  0
 15 16  2  0  0  0  0
 15 29  1  0  0  0  0
 16 30  1  0  0  0  0
 17 24  1  0  0  0  0
 17 28  2  0  0  0  0
 18 30  2  0  0  0  0
 18 31  1  0  0  0  0
 19 32  1  0  0  0  0
 20 32  1  0  0  0  0
 20 33  2  0  0  0  0
 20 36  1  0  0  0  0
 21 23  2  0  0  0  0
 21 42  1  0  0  0  0
 22 24  2  0  0  0  0
 22 43  1  0  0  0  0
 23 52  1  0  0  0  0
 24 44  1  0  0  0  0
 25 66  1  0  0  0  0
 26 71  1  0  0  0  0
 27 81  1  0  0  0  0
 28 82  1  0  0  0  0
 29 31  2  0  0  0  0
 29 81  1  0  0  0  0
 30 83  1  0  0  0  0
 31 84  1  0  0  0  0
 32 64  2  0  0  0  0
 33 65  1  0  0  0  0
 33 69  1  0  0  0  0
 34 35  1  0  0  0  0
 34 37  2  0  0  0  0
 34 45  1  0  0  0  0
 35 66  1  0  0  0  0
 35 75  2  0  0  0  0
 36 70  1  0  0  0  0
 36 76  2  0  0  0  0
 37 55  1  0  0  0  0
 37 82  1  0  0  0  0
 38 53  1  0  0  0  0
 38 72  1  0  0  0  0
 38 77  2  0  0  0  0
 39 61  1  0  0  0  0
 39 67  1  0  0  0  0
 39 78  2  0  0  0  0
 40 62  1  0  0  0  0
 40 73  1  0  0  0  0
 40 79  2  0  0  0  0
 41 68  1  0  0  0  0
 41 71  1  0  0  0  0
 41 80  2  0  0  0  0
 42 46  1  0  0  0  0
 43 53  1  0  0  0  0
 44 67  1  0  0  0  0
 45 66  1  0  0  0  0
 46 48  1  0  0  0  0
 47 49  1  0  0  0  0
 47 50  1  0  0  0  0
 48 52  1  0  0  0  0
 49 54  1  0  0  0  0
 50 68  1  0  0  0  0
 51 54  1  0  0  0  0
 51 68  1  0  0  0  0
 52 72  1  0  0  0  0
 53 67  1  0  0  0  0
 54 65  1  0  0  0  0
 56 62  1  0  0  0  0
 57 63  1  0  0  0  0
 58 63  1  0  0  0  0
 59 63  1  0  0  0  0
 60 74  1  0  0  0  0
 61 63  1  0  0  0  0
 61 73  1  0  0  0  0
 62 74  1  0  0  0  0
 64 65  1  0  0  0  0
M  CHG  1  74   1
M  ISO  4  37 101  41 100  71 100  82 101
M  END
> <Batch ID>
0083

> <Smiles>
CNC(C)C(=O)NC(C(=O)N1Cc2cc([101O:1][101C:1](C)=C3CN(c4ccc([100NH:0][100C:0](=O)N5CCCC(n6nc(-c7ccc(Oc8ccc(F)cc8F)cc7)c(C(N)=O)c6N)C5)cc4)C3=O)ccc2CC1C(=O)NC1CCCc2ccccc21)C(C)(C)C

> <Shape>
0.320

> <Color>
0.113

> <Negative vol penalty>
0.000

$$$$

  -OEChem-04052300093D

 83 92  0     1  0  0  0  0  0999 V2000
  -33.5532  -34.3202   17.8798 C   0  0  0  0  0  0  0  0  0  0  0  0
  -33.1932  -32.9857   17.7219 C   0  0  0  0  0  0  0  0  0  0  0  0
  -23.9056  -16.3273   16.0476 C   0  0  0  0  0  0  0  0  0  0  0  0
  -23.3934  -13.9747   15.8477 C   0  0  0  0  0  0  0  0  0  0  0  0
  -31.6640  -17.5094   19.2126 C   0  0  0  0  0  0  0  0  0  0  0  0
  -33.2533  -34.9861   19.0675 C   0  0  0  0  0  0  0  0  0  0  0  0
  -32.5339  -32.3160   18.7520 C   0  0  0  0  0  0  0  0  0  0  0  0
  -28.2454  -27.9824   18.1734 C   0  0  0  0  0  0  0  0  0  0  0  0
  -31.3781  -18.8724   19.1355 C   0  0  0  0  0  0  0  0  0  0  0  0
  -23.2896  -16.5658   14.8191 C   0  0  0  0  0  0  0  0  0  0  0  0
  -22.7773  -14.2132   14.6192 C   0  0  0  0  0  0  0  0  0  0  0  0
  -28.3037  -26.5909   18.2359 C   0  0  0  0  0  0  0  0  0  0  0  0
  -23.7257  -14.7380   11.4167 C   0  0  0  0  0  0  0  0  0  0  0  0
  -24.0170  -13.8683   10.3659 C   0  0  0  0  0  0  0  0  0  0  0  0
  -29.3468  -17.0520   19.7205 C   0  0  0  0  0  0  0  0  0  0  0  0
  -27.6482  -26.6737   20.5560 C   0  0  0  0  0  0  0  0  0  0  0  0
  -21.6800  -13.2760   10.2084 C   0  0  0  0  0  0  0  0  0  0  0  0
  -23.9576  -15.0317   16.5619 C   0  0  0  0  0  0  0  0  0  0  0  0
  -30.6483  -16.5992   19.5052 C   0  0  0  0  0  0  0  0  0  0  0  0
  -23.9921  -14.8073   19.1028 C   0  0  0  0  0  0  0  0  0  0  0  0
  -32.5814  -34.3270   20.1090 C   0  0  0  0  0  0  0  0  0  0  0  0
  -27.8981  -28.7319   19.3066 C   0  0  0  0  0  0  0  0  0  0  0  0
  -32.2259  -32.9733   19.9553 C   0  0  0  0  0  0  0  0  0  0  0  0
  -27.5838  -28.0745   20.5045 C   0  0  0  0  0  0  0  0  0  0  0  0
  -30.0765  -19.3253   19.3508 C   0  0  0  0  0  0  0  0  0  0  0  0
  -22.7254  -15.5088   14.1049 C   0  0  0  0  0  0  0  0  0  0  0  0
  -28.0079  -25.9364   19.4281 C   0  0  0  0  0  0  0  0  0  0  0  0
  -22.4116  -14.8767   11.8635 C   0  0  0  0  0  0  0  0  0  0  0  0
  -22.9942  -13.1372    9.7617 C   0  0  0  0  0  0  0  0  0  0  0  0
  -29.0608  -18.4151   19.6434 C   0  0  0  0  0  0  0  0  0  0  0  0
  -21.3887  -14.1457   11.2593 C   0  0  0  0  0  0  0  0  0  0  0  0
  -24.5944  -14.7845   17.8305 C   0  0  0  0  0  0  0  0  0  0  0  0
  -25.0135  -14.5102   19.9716 C   0  0  0  0  0  0  0  0  0  0  0  0
  -29.4310  -22.6369   19.2546 C   0  0  0  0  0  0  0  0  0  0  0  0
  -30.5720  -21.7528   19.0137 C   0  0  0  0  0  0  0  0  0  0  0  0
  -29.2586  -23.9708   19.2217 C   0  0  0  0  0  0  0  0  0  1  0  0
  -30.9487  -15.1638   19.5853 C   0  0  0  0  0  0  0  0  0  0  0  0
  -22.6310  -15.0732   19.4666 C   0  0  0  0  0  0  0  0  0  0  0  0
  -29.3622  -30.9267   21.0794 C   0  0  0  0  0  0  0  0  0  0  0  0
  -26.4696  -31.1183   22.5349 C   0  0  0  0  0  0  0  0  0  0  0  0
  -23.5008  -29.6138   23.2899 C   0  0  0  0  0  0  0  0  0  0  0  0
  -32.3208  -35.0748   21.3925 C   0  0  0  0  0  0  0  0  0  0  0  0
  -27.8138  -30.2309   19.2154 C   0  0  0  0  0  0  0  0  0  0  0  0
  -27.1857  -28.8321   21.7440 C   0  0  0  0  0  0  0  0  0  0  0  0
  -28.5836  -21.4193   19.5445 C   0  0  0  0  0  0  0  0  0  0  0  0
  -31.2871  -34.4007   22.2911 C   0  0  0  0  0  0  0  0  0  0  0  0
  -29.1632  -12.1381   20.2168 C   0  0  0  0  0  0  0  0  0  0  0  0
  -31.5744  -32.9072   22.4082 C   0  0  0  0  0  0  0  0  0  0  0  0
  -27.7353  -12.4676   19.7779 C   0  0  0  0  0  0  0  0  0  0  0  0
  -30.1982  -12.8228   19.3277 C   0  0  0  0  0  0  0  0  0  0  0  0
  -28.5980  -14.6189   18.7638 C   0  0  0  0  0  0  0  0  0  0  0  0
  -31.4876  -32.2197   21.0403 C   0  0  1  0  0  0  0  0  0  0  0  0
  -27.9488  -30.9204   20.5696 C   0  0  1  0  0  0  0  0  0  0  0  0
  -27.5235  -13.9891   19.6653 C   0  0  1  0  0  0  0  0  0  0  0  0
  -21.3523  -30.0053   24.5259 C   0  0  0  0  0  0  0  0  0  0  0  0
  -27.9112  -30.6525   25.1835 C   0  0  0  0  0  0  0  0  0  0  0  0
  -25.6950  -30.1102   26.2144 C   0  0  0  0  0  0  0  0  0  0  0  0
  -26.1061  -32.3814   25.2682 C   0  0  0  0  0  0  0  0  0  0  0  0
  -21.8932  -29.3228   20.8221 C   0  0  0  0  0  0  0  0  0  0  0  0
  -25.8108  -30.4203   23.7001 C   0  0  1  0  0  0  0  0  0  0  0  0
  -22.0681  -30.1049   23.1878 C   0  0  2  0  0  0  0  0  0  0  0  0
  -26.3901  -30.8766   25.0689 C   0  0  0  0  0  0  0  0  0  0  0  0
  -25.8975  -14.4959   17.8821 N   0  0  0  0  0  0  0  0  0  0  0  0
  -26.1224  -14.3347   19.1972 N   0  0  0  0  0  0  0  0  0  0  0  0
  -29.7981  -20.6702   19.2744 N   0  0  0  0  0  0  0  0  0  0  0  0
  -29.9396  -14.2598   19.2448 N   0  0  0  0  0  0  0  0  0  0  0  0
  -27.1238  -30.2965   21.6062 N   0  0  0  0  0  0  0  0  0  0  0  0
  -25.0624  -14.3847   21.3148 N   0  0  0  0  0  0  0  0  0  0  0  0
  -21.7113  -15.3607   18.4489 N   0  0  0  0  0  0  0  0  0  0  0  0
  -30.1051  -32.0153   20.6642 N   0  0  0  0  0  0  0  0  0  0  0  0
  -24.3769  -30.6456   23.5532 N   0  0  0  0  0  0  0  0  0  0  0  0
  -21.3131  -29.2960   22.1895 N   0  3  0  0  0  0  0  0  0  0  0  0
  -31.7374  -21.9144   18.7167 O   0  0  0  0  0  0  0  0  0  0  0  0
  -32.0805  -14.8657   19.9637 O   0  0  0  0  0  0  0  0  0  0  0  0
  -22.2454  -15.0725   20.6603 O   0  0  0  0  0  0  0  0  0  0  0  0
  -29.7495  -30.0125   21.7976 O   0  0  0  0  0  0  0  0  0  0  0  0
  -26.4000  -32.3468   22.4480 O   0  0  0  0  0  0  0  0  0  0  0  0
  -23.8114  -28.4325   23.1536 O   0  0  0  0  0  0  0  0  0  0  0  0
  -22.1239  -15.7413   12.9063 O   0  0  0  0  0  0  0  0  0  0  0  0
  -28.0646  -24.5783   19.4921 O   0  0  0  0  0  0  0  0  0  1  0  0
  -23.2738  -12.3032    8.7516 F   0  0  0  0  0  0  0  0  0  0  0  0
  -27.8060  -18.8388   19.8524 F   0  0  0  0  0  0  0  0  0  0  0  0
  -20.1242  -14.2757   11.6833 F   0  0  0  0  0  0  0  0  0  0  0  0
  1  2  1  0  0  0  0
  1  6  2  0  0  0  0
  2  7  2  0  0  0  0
  3 10  2  0  0  0  0
  3 18  1  0  0  0  0
  4 11  1  0  0  0  0
  4 18  2  0  0  0  0
  5  9  2  0  0  0  0
  5 19  1  0  0  0  0
  6 21  1  0  0  0  0
  7 23  1  0  0  0  0
  8 12  2  0  0  0  0
  8 22  1  0  0  0  0
  9 25  1  0  0  0  0
 10 26  1  0  0  0  0
 11 26  2  0  0  0  0
 12 27  1  0  0  0  0
 13 14  2  0  0  0  0
 13 28  1  0  0  0  0
 14 29  1  0  0  0  0
 15 19  2  0  0  0  0
 15 30  1  0  0  0  0
 16 24  1  0  0  0  0
 16 27  2  0  0  0  0
 17 29  2  0  0  0  0
 17 31  1  0  0  0  0
 18 32  1  0  0  0  0
 19 37  1  0  0  0  0
 20 32  1  0  0  0  0
 20 33  2  0  0  0  0
 20 38  1  0  0  0  0
 21 23  2  0  0  0  0
 21 42  1  0  0  0  0
 22 24  2  0  0  0  0
 22 43  1  0  0  0  0
 23 52  1  0  0  0  0
 24 44  1  0  0  0  0
 25 30  2  0  0  0  0
 25 65  1  0  0  0  0
 26 79  1  0  0  0  0
 27 80  1  0  0  0  0
 28 31  2  0  0  0  0
 28 79  1  0  0  0  0
 29 81  1  0  0  0  0
 30 82  1  0  0  0  0
 31 83  1  0  0  0  0
 32 63  2  0  0  0  0
 33 64  1  0  0  0  0
 33 68  1  0  0  0  0
 34 35  1  0  0  0  0
 34 36  2  0  0  0  0
 34 45  1  0  0  0  0
 35 65  1  0  0  0  0
 35 73  2  0  0  0  0
 36 80  1  0  0  0  0
 37 66  1  0  0  0  0
 37 74  2  0  0  0  0
 38 69  1  0  0  0  0
 38 75  2  0  0  0  0
 39 53  1  0  0  0  0
 39 70  1  0  0  0  0
 39 76  2  0  0  0  0
 40 60  1  0  0  0  0
 40 67  1  0  0  0  0
 40 77  2  0  0  0  0
 41 61  1  0  0  0  0
 41 71  1  0  0  0  0
 41 78  2  0  0  0  0
 42 46  1  0  0  0  0
 43 53  1  0  0  0  0
 44 67  1  0  0  0  0
 45 65  1  0  0  0  0
 46 48  1  0  0  0  0
 47 49  1  0  0  0  0
 47 50  1  0  0  0  0
 48 52  1  0  0  0  0
 49 54  1  0  0  0  0
 50 66  1  0  0  0  0
 51 54  1  0  0  0  0
 51 66  1  0  0  0  0
 52 70  1  0  0  0  0
 53 67  1  0  0  0  0
 54 64  1  0  0  0  0
 55 61  1  0  0  0  0
 56 62  1  0  0  0  0
 57 62  1  0  0  0  0
 58 62  1  0  0  0  0
 59 72  1  0  0  0  0
 60 62  1  0  0  0  0
 60 71  1  0  0  0  0
 61 72  1  0  0  0  0
 63 64  1  0  0  0  0
M  CHG  1  72   1
M  ISO  4  19 100  36 101  37 100  80 101
M  END
> <Batch ID>
0083

> <Smiles>
CNC(C)C(=O)NC(C(=O)N1Cc2cc([101O:1][101CH:1]=C3CN(c4cc[100c:0]([100C:0](=O)N5CCCC(n6nc(-c7ccc(Oc8ccc(F)cc8F)cc7)c(C(N)=O)c6N)C5)cc4F)C3=O)ccc2CC1C(=O)NC1CCCc2ccccc21)C(C)(C)C

> <Shape>
0.215

> <Color>
0.106

> <Negative vol penalty>
0.000

$$$$

  -OEChem-04052300093D

 81 89  0     1  0  0  0  0  0999 V2000
  -18.6531  -31.4411   23.2454 C   0  0  0  0  0  0  0  0  0  0  0  0
  -20.0256  -31.4223   23.0189 C   0  0  0  0  0  0  0  0  0  0  0  0
  -24.7545  -16.8591   20.7127 C   0  0  0  0  0  0  0  0  0  0  0  0
  -25.6396  -15.0823   19.3355 C   0  0  0  0  0  0  0  0  0  0  0  0
  -17.9434  -30.2433   23.3191 C   0  0  0  0  0  0  0  0  0  0  0  0
  -20.6895  -30.2055   22.8671 C   0  0  0  0  0  0  0  0  0  0  0  0
  -25.4783  -29.0531   19.2278 C   0  0  0  0  0  0  0  0  0  0  0  0
  -23.5609  -16.1521   20.8577 C   0  0  0  0  0  0  0  0  0  0  0  0
  -24.4460  -14.3753   19.4806 C   0  0  0  0  0  0  0  0  0  0  0  0
  -26.8486  -28.9825   19.4748 C   0  0  0  0  0  0  0  0  0  0  0  0
  -22.9719  -12.4332   21.8207 C   0  0  0  0  0  0  0  0  0  0  0  0
  -23.0581  -11.0700   22.1029 C   0  0  0  0  0  0  0  0  0  0  0  0
  -26.6779  -26.5872   19.7039 C   0  0  0  0  0  0  0  0  0  0  0  0
  -21.8531  -10.5726   20.0688 C   0  0  0  0  0  0  0  0  0  0  0  0
  -32.5253  -25.4838   21.1589 C   0  0  0  0  0  0  0  0  0  0  0  0
  -25.7939  -16.3242   19.9515 C   0  0  0  0  0  0  0  0  0  0  0  0
  -28.1647  -16.9808   20.6264 C   0  0  0  0  0  0  0  0  0  0  0  0
  -18.5973  -29.0115   23.1586 C   0  0  0  0  0  0  0  0  0  0  0  0
  -24.6943  -27.8904   19.2277 C   0  0  0  0  0  0  0  0  0  0  0  0
  -19.9881  -28.9900   22.9401 C   0  0  0  0  0  0  0  0  0  0  0  0
  -25.2983  -26.6454   19.4540 C   0  0  0  0  0  0  0  0  0  0  0  0
  -23.4066  -14.9102   20.2417 C   0  0  0  0  0  0  0  0  0  0  0  0
  -27.4481  -27.7498   19.7158 C   0  0  0  0  0  0  0  0  0  0  0  0
  -22.3262  -12.8662   20.6625 C   0  0  0  0  0  0  0  0  0  0  0  0
  -22.4988  -10.1397   21.2270 C   0  0  0  0  0  0  0  0  0  0  0  0
  -21.7669  -11.9359   19.7865 C   0  0  0  0  0  0  0  0  0  0  0  0
  -27.0269  -17.0543   19.8008 C   0  0  0  0  0  0  0  0  0  0  0  0
  -31.5852  -26.1314   20.3850 C   0  0  0  0  0  0  0  0  0  0  0  0
  -29.0558  -17.8607   20.0623 C   0  0  0  0  0  0  0  0  0  0  0  0
  -31.3081  -24.0991   19.6085 C   0  0  0  0  0  0  0  0  0  0  0  0
  -28.3956  -16.1879   21.7985 C   0  0  0  0  0  0  0  0  0  0  0  0
  -22.2429  -26.8379   20.9559 C   0  0  0  0  0  0  0  0  0  0  0  0
  -30.8012  -28.1181   19.0882 C   0  0  0  0  0  0  0  0  0  0  0  0
  -22.2577  -24.4219   18.7914 C   0  0  0  0  0  0  0  0  0  0  0  0
  -24.0107  -22.5872   16.5093 C   0  0  0  0  0  0  0  0  0  0  0  0
  -29.8446  -23.0443   17.8937 C   0  0  0  0  0  0  0  0  0  0  0  0
  -17.7957  -27.7411   23.2935 C   0  0  0  0  0  0  0  0  0  0  0  0
  -23.2220  -27.9805   18.9331 C   0  0  0  0  0  0  0  0  0  0  0  0
  -24.5045  -25.3655   19.4448 C   0  0  0  0  0  0  0  0  0  0  0  0
  -18.5120  -26.5081   22.7486 C   0  0  0  0  0  0  0  0  0  0  0  0
  -28.9698  -20.2694   15.6255 C   0  0  0  0  0  0  0  0  0  0  0  0
  -19.9557  -26.4690   23.2395 C   0  0  0  0  0  0  0  0  0  0  0  0
  -28.4196  -19.2104   16.5795 C   0  0  0  0  0  0  0  0  0  0  0  0
  -28.7315  -21.6826   16.1491 C   0  0  0  0  0  0  0  0  0  0  0  0
  -28.7070  -20.8499   18.4807 C   0  0  0  0  0  0  0  0  0  0  0  0
  -20.7397  -27.6910   22.7457 C   0  0  1  0  0  0  0  0  0  0  0  0
  -22.4320  -26.7892   19.4661 C   0  0  1  0  0  0  0  0  0  0  0  0
  -28.9699  -19.4142   18.0017 C   0  0  1  0  0  0  0  0  0  0  0  0
  -31.8474  -28.5836   18.1025 C   0  0  0  0  0  0  0  0  0  0  0  0
  -23.7640  -20.6549   14.9274 C   0  0  0  0  0  0  0  0  0  0  0  0
  -22.3891  -22.4828   21.1435 C   0  0  0  0  0  0  0  0  0  0  0  0
  -23.0898  -20.6932   19.5389 C   0  0  0  0  0  0  0  0  0  0  0  0
  -20.8574  -21.7794   19.2959 C   0  0  0  0  0  0  0  0  0  0  0  0
  -31.6268  -21.6988   18.9812 C   0  0  0  0  0  0  0  0  0  0  0  0
  -24.6354  -24.2786   14.1624 C   0  0  0  0  0  0  0  0  0  0  0  0
  -31.2689  -27.6026   20.4334 C   0  0  0  0  0  0  0  0  0  0  0  0
  -22.9404  -23.0791   18.6927 C   0  0  1  0  0  0  0  0  0  0  0  0
  -23.6807  -22.1647   15.0891 C   0  0  2  0  0  0  0  0  0  0  0  0
  -22.3341  -22.0328   19.6699 C   0  0  0  0  0  0  0  0  0  0  0  0
  -27.1785  -17.9132   18.7892 N   0  0  0  0  0  0  0  0  0  0  0  0
  -30.8865  -25.3391   19.4951 N   0  0  0  0  0  0  0  0  0  0  0  0
  -29.5221  -28.1800   18.8717 N   0  0  0  0  0  0  0  0  0  1  0  0
  -28.4220  -18.3875   18.9756 N   0  0  0  0  0  0  0  0  0  0  0  0
  -23.0673  -25.5063   19.1581 N   0  0  0  0  0  0  0  0  0  0  0  0
  -29.2229  -21.8363   17.5190 N   0  0  0  0  0  0  0  0  0  0  0  0
  -30.3116  -18.2276   20.3949 N   0  0  0  0  0  0  0  0  0  0  0  0
  -27.3739  -15.3368   22.2413 N   0  0  0  0  0  0  0  0  0  0  0  0
  -21.1130  -27.5246   21.3574 N   0  0  0  0  0  0  0  0  0  0  0  0
  -22.8773  -22.6914   17.2876 N   0  0  0  0  0  0  0  0  0  0  0  0
  -30.8557  -22.9416   18.8735 N   0  0  0  0  0  0  0  0  0  0  0  0
  -24.6301  -22.7934   14.1278 N   0  3  0  0  0  0  0  0  0  0  0  0
  -29.4698  -16.2451   22.4437 O   0  0  0  0  0  0  0  0  0  0  0  0
  -23.0606  -26.2915   21.6870 O   0  0  0  0  0  0  0  0  0  0  0  0
  -21.0520  -24.5069   18.5450 O   0  0  0  0  0  0  0  0  0  0  0  0
  -25.1594  -22.7997   16.8912 O   0  0  0  0  0  0  0  0  0  0  0  0
  -29.5405  -24.1237   17.3720 O   0  0  0  0  0  0  0  0  0  0  0  0
  -22.2421  -14.2200   20.3833 O   0  0  0  0  0  0  0  0  0  0  0  0
  -28.7853  -27.6782   19.9578 O   0  0  0  0  0  0  0  0  0  1  0  0
  -22.5830   -8.8305   21.4974 F   0  0  0  0  0  0  0  0  0  0  0  0
  -21.1464  -12.3458   18.6717 F   0  0  0  0  0  0  0  0  0  0  0  0
  -32.5424  -23.8144   20.7662 S   0  0  0  0  0  0  0  0  0  0  0  0
  1  2  1  0  0  0  0
  1  5  2  0  0  0  0
  2  6  2  0  0  0  0
  3  8  2  0  0  0  0
  3 16  1  0  0  0  0
  4  9  1  0  0  0  0
  4 16  2  0  0  0  0
  5 18  1  0  0  0  0
  6 20  1  0  0  0  0
  7 10  2  0  0  0  0
  7 19  1  0  0  0  0
  8 22  1  0  0  0  0
  9 22  2  0  0  0  0
 10 23  1  0  0  0  0
 11 12  2  0  0  0  0
 11 24  1  0  0  0  0
 12 25  1  0  0  0  0
 13 21  1  0  0  0  0
 13 23  2  0  0  0  0
 14 25  2  0  0  0  0
 14 26  1  0  0  0  0
 15 28  2  0  0  0  0
 15 81  1  0  0  0  0
 16 27  1  0  0  0  0
 17 27  1  0  0  0  0
 17 29  2  0  0  0  0
 17 31  1  0  0  0  0
 18 20  2  0  0  0  0
 18 37  1  0  0  0  0
 19 21  2  0  0  0  0
 19 38  1  0  0  0  0
 20 46  1  0  0  0  0
 21 39  1  0  0  0  0
 22 77  1  0  0  0  0
 23 78  1  0  0  0  0
 24 26  2  0  0  0  0
 24 77  1  0  0  0  0
 25 79  1  0  0  0  0
 26 80  1  0  0  0  0
 27 60  2  0  0  0  0
 28 56  1  0  0  0  0
 28 61  1  0  0  0  0
 29 63  1  0  0  0  0
 29 66  1  0  0  0  0
 30 61  2  0  0  0  0
 30 70  1  0  0  0  0
 30 81  1  0  0  0  0
 31 67  1  0  0  0  0
 31 72  2  0  0  0  0
 32 47  1  0  0  0  0
 32 68  1  0  0  0  0
 32 73  2  0  0  0  0
 33 49  1  0  0  0  0
 33 56  1  0  0  0  0
 33 62  2  0  0  0  0
 34 57  1  0  0  0  0
 34 64  1  0  0  0  0
 34 74  2  0  0  0  0
 35 58  1  0  0  0  0
 35 69  1  0  0  0  0
 35 75  2  0  0  0  0
 36 65  1  0  0  0  0
 36 70  1  0  0  0  0
 36 76  2  0  0  0  0
 37 40  1  0  0  0  0
 38 47  1  0  0  0  0
 39 64  1  0  0  0  0
 40 42  1  0  0  0  0
 41 43  1  0  0  0  0
 41 44  1  0  0  0  0
 42 46  1  0  0  0  0
 43 48  1  0  0  0  0
 44 65  1  0  0  0  0
 45 48  1  0  0  0  0
 45 65  1  0  0  0  0
 46 68  1  0  0  0  0
 47 64  1  0  0  0  0
 48 63  1  0  0  0  0
 50 58  1  0  0  0  0
 51 59  1  0  0  0  0
 52 59  1  0  0  0  0
 53 59  1  0  0  0  0
 54 70  1  0  0  0  0
 55 71  1  0  0  0  0
 57 59  1  0  0  0  0
 57 69  1  0  0  0  0
 58 71  1  0  0  0  0
 60 63  1  0  0  0  0
 62 78  1  0  0  0  0
M  CHG  1  71   1
M  ISO  4  36 100  62 101  70 100  78 101
M  END
> <Batch ID>
0083

> <Smiles>
CNC(C)C(=O)NC(C(=O)N1Cc2cc([101O:1][101NH:1]C(C)=Cc3csc([100N:0](C)[100C:0](=O)N4CCCC(n5nc(-c6ccc(Oc7ccc(F)cc7F)cc6)c(C(N)=O)c5N)C4)n3)ccc2CC1C(=O)NC1CCCc2ccccc21)C(C)(C)C

> <Shape>
0.239

> <Color>
0.077

> <Negative vol penalty>
0.000

$$$$

  -OEChem-04052300093D

 84 93  0     1  0  0  0  0  0999 V2000
  -27.3760  -37.7449   23.8602 C   0  0  0  0  0  0  0  0  0  0  0  0
  -27.9646  -36.8012   23.0246 C   0  0  0  0  0  0  0  0  0  0  0  0
  -24.1838   -9.2870   22.1900 C   0  0  0  0  0  0  0  0  0  0  0  0
  -22.9184  -11.2676   21.6306 C   0  0  0  0  0  0  0  0  0  0  0  0
  -26.4881  -37.3366   24.8546 C   0  0  0  0  0  0  0  0  0  0  0  0
  -27.6666  -35.4483   23.1837 C   0  0  0  0  0  0  0  0  0  0  0  0
  -26.9147  -29.4144   19.3965 C   0  0  0  0  0  0  0  0  0  0  0  0
  -28.5675  -19.7717   19.8358 C   0  0  0  0  0  0  0  0  0  0  0  0
  -28.8333  -18.4103   19.6890 C   0  0  0  0  0  0  0  0  0  0  0  0
  -23.3139   -9.0306   23.2498 C   0  0  0  0  0  0  0  0  0  0  0  0
  -22.0485  -11.0112   22.6904 C   0  0  0  0  0  0  0  0  0  0  0  0
  -27.3679  -28.0962   19.3695 C   0  0  0  0  0  0  0  0  0  0  0  0
  -20.2247   -7.7239   23.6765 C   0  0  0  0  0  0  0  0  0  0  0  0
  -19.7694   -6.4156   23.8394 C   0  0  0  0  0  0  0  0  0  0  0  0
  -25.7587  -27.5146   21.0700 C   0  0  0  0  0  0  0  0  0  0  0  0
  -26.2900  -19.4044   19.1180 C   0  0  0  0  0  0  0  0  0  0  0  0
  -20.7574   -6.3460   26.0430 C   0  0  0  0  0  0  0  0  0  0  0  0
  -23.9860  -10.4056   21.3804 C   0  0  0  0  0  0  0  0  0  0  0  0
  -24.7639  -10.2195   18.9581 C   0  0  0  0  0  0  0  0  0  0  0  0
  -26.1716  -35.9789   25.0197 C   0  0  0  0  0  0  0  0  0  0  0  0
  -25.8859  -29.7956   20.2697 C   0  0  0  0  0  0  0  0  0  0  0  0
  -26.7747  -35.0213   24.1821 C   0  0  0  0  0  0  0  0  0  0  0  0
  -25.2926  -28.8377   21.1043 C   0  0  0  0  0  0  0  0  0  0  0  0
  -27.2958  -20.2688   19.5503 C   0  0  0  0  0  0  0  0  0  0  0  0
  -27.8275  -17.5460   19.2567 C   0  0  0  0  0  0  0  0  0  0  0  0
  -22.2463   -9.8926   23.5000 C   0  0  0  0  0  0  0  0  0  0  0  0
  -26.7918  -27.1467   20.2083 C   0  0  0  0  0  0  0  0  0  0  0  0
  -20.9465   -8.3433   24.6969 C   0  0  0  0  0  0  0  0  0  0  0  0
  -20.0357   -5.7266   25.0226 C   0  0  0  0  0  0  0  0  0  0  0  0
  -26.5558  -18.0430   18.9712 C   0  0  0  0  0  0  0  0  0  0  0  0
  -21.2128   -7.6544   25.8801 C   0  0  0  0  0  0  0  0  0  0  0  0
  -24.8846  -10.6713   20.2859 C   0  0  0  0  0  0  0  0  0  0  0  0
  -25.8612  -10.7405   18.3170 C   0  0  0  0  0  0  0  0  0  0  0  0
  -26.6615  -23.5741   19.8055 C   0  0  0  0  0  0  0  0  0  0  0  0
  -25.9167  -22.3537   19.4937 C   0  0  0  0  0  0  0  0  0  0  0  0
  -26.3377  -24.8788   19.8603 C   0  0  0  0  0  0  0  0  0  1  0  0
  -23.7505   -9.4020   18.3578 C   0  0  0  0  0  0  0  0  0  0  0  0
  -25.6448  -31.8311   22.6991 C   0  0  0  0  0  0  0  0  0  0  0  0
  -22.5079  -31.0167   22.5622 C   0  0  0  0  0  0  0  0  0  0  0  0
  -20.1455  -28.7306   21.6459 C   0  0  0  0  0  0  0  0  0  0  0  0
  -29.3089  -15.5105   19.3492 C   0  0  0  0  0  0  0  0  0  0  0  0
  -25.2427  -35.5810   26.1393 C   0  0  0  0  0  0  0  0  0  0  0  0
  -25.3902  -31.2158   20.2676 C   0  0  0  0  0  0  0  0  0  0  0  0
  -24.1713  -29.1915   22.0455 C   0  0  0  0  0  0  0  0  0  0  0  0
  -27.8975  -22.7317   20.0228 C   0  0  0  0  0  0  0  0  0  0  0  0
  -24.6918  -34.1643   25.9992 C   0  0  0  0  0  0  0  0  0  0  0  0
  -30.3733  -12.1194   19.1378 C   0  0  0  0  0  0  0  0  0  0  0  0
  -25.8111  -33.1882   25.6509 C   0  0  0  0  0  0  0  0  0  0  0  0
  -29.0748  -11.3223   19.2813 C   0  0  0  0  0  0  0  0  0  0  0  0
  -30.3731  -13.3672   20.0192 C   0  0  0  0  0  0  0  0  0  0  0  0
  -27.9110  -13.4497   19.9930 C   0  0  0  0  0  0  0  0  0  0  0  0
  -26.4576  -33.5469   24.3074 C   0  0  1  0  0  0  0  0  0  0  0  0
  -24.6866  -31.6050   21.5640 C   0  0  1  0  0  0  0  0  0  0  0  0
  -27.8378  -12.2183   19.0754 C   0  0  2  0  0  0  0  0  0  0  0  0
  -17.6691  -28.3279   21.6984 C   0  0  0  0  0  0  0  0  0  0  0  0
  -22.6841  -30.3354   25.5312 C   0  0  0  0  0  0  0  0  0  0  0  0
  -20.5322  -29.0770   25.2988 C   0  0  0  0  0  0  0  0  0  0  0  0
  -20.5935  -31.5314   24.8576 C   0  0  0  0  0  0  0  0  0  0  0  0
  -19.9842  -28.6165   18.6929 C   0  0  0  0  0  0  0  0  0  0  0  0
  -21.6525  -29.9466   23.1965 C   0  0  1  0  0  0  0  0  0  0  0  0
  -18.8351  -28.8822   20.8946 C   0  0  2  0  0  0  0  0  0  0  0  0
  -21.3880  -30.2160   24.7048 C   0  0  0  0  0  0  0  0  0  0  0  0
  -25.9728  -11.4216   20.4784 N   0  0  0  0  0  0  0  0  0  0  0  0
  -26.5459  -11.4450   19.2630 N   0  0  0  0  0  0  0  0  0  0  0  0
  -27.0337  -21.6114   19.6944 N   0  0  0  0  0  0  0  0  0  0  0  0
  -23.7259  -30.5943   22.0111 N   0  0  0  0  0  0  0  0  0  0  0  0
  -29.1742  -14.1695   19.7665 N   0  0  0  0  0  0  0  0  0  0  0  0
  -26.2976  -10.6601   17.0420 N   0  0  0  0  0  0  0  0  0  0  0  0
  -22.6930   -8.9520   19.1600 N   0  0  0  0  0  0  0  0  0  0  0  0
  -28.1006  -16.1636   19.1081 N   0  0  0  0  0  0  0  0  0  0  0  0
  -25.6178  -33.1144   23.2110 N   0  0  0  0  0  0  0  0  0  0  0  0
  -20.4436  -29.8559   22.3848 N   0  0  0  0  0  0  0  0  0  0  0  0
  -18.8966  -28.1567   19.5943 N   0  3  0  0  0  0  0  0  0  0  0  0
  -24.7738  -22.1021   19.1729 O   0  0  0  0  0  0  0  0  0  0  0  0
  -23.7905   -9.0664   17.1497 O   0  0  0  0  0  0  0  0  0  0  0  0
  -26.3549  -30.9092   23.0832 O   0  0  0  0  0  0  0  0  0  0  0  0
  -22.1067  -32.1831   22.5497 O   0  0  0  0  0  0  0  0  0  0  0  0
  -20.8337  -27.7141   21.5863 O   0  0  0  0  0  0  0  0  0  0  0  0
  -30.4153  -16.0323   19.1893 O   0  0  0  0  0  0  0  0  0  0  0  0
  -21.3971   -9.6425   24.5339 O   0  0  0  0  0  0  0  0  0  0  0  0
  -27.2326  -25.8594   20.1845 O   0  0  0  0  0  0  0  0  0  1  0  0
  -19.5971   -4.4708   25.1795 F   0  0  0  0  0  0  0  0  0  0  0  0
  -25.5817  -17.2218   18.5536 F   0  0  0  0  0  0  0  0  0  0  0  0
  -21.9047   -8.2446   26.8644 F   0  0  0  0  0  0  0  0  0  0  0  0
  1  2  1  0  0  0  0
  1  5  2  0  0  0  0
  2  6  2  0  0  0  0
  3 10  2  0  0  0  0
  3 18  1  0  0  0  0
  4 11  1  0  0  0  0
  4 18  2  0  0  0  0
  5 20  1  0  0  0  0
  6 22  1  0  0  0  0
  7 12  2  0  0  0  0
  7 21  1  0  0  0  0
  8  9  2  0  0  0  0
  8 24  1  0  0  0  0
  9 25  1  0  0  0  0
 10 26  1  0  0  0  0
 11 26  2  0  0  0  0
 12 27  1  0  0  0  0
 13 14  2  0  0  0  0
 13 28  1  0  0  0  0
 14 29  1  0  0  0  0
 15 23  1  0  0  0  0
 15 27  2  0  0  0  0
 16 24  2  0  0  0  0
 16 30  1  0  0  0  0
 17 29  2  0  0  0  0
 17 31  1  0  0  0  0
 18 32  1  0  0  0  0
 19 32  1  0  0  0  0
 19 33  2  0  0  0  0
 19 37  1  0  0  0  0
 20 22  2  0  0  0  0
 20 42  1  0  0  0  0
 21 23  2  0  0  0  0
 21 43  1  0  0  0  0
 22 52  1  0  0  0  0
 23 44  1  0  0  0  0
 24 65  1  0  0  0  0
 25 30  2  0  0  0  0
 25 70  1  0  0  0  0
 26 80  1  0  0  0  0
 27 81  1  0  0  0  0
 28 31  2  0  0  0  0
 28 80  1  0  0  0  0
 29 82  1  0  0  0  0
 30 83  1  0  0  0  0
 31 84  1  0  0  0  0
 32 63  2  0  0  0  0
 33 64  1  0  0  0  0
 33 68  1  0  0  0  0
 34 35  1  0  0  0  0
 34 36  2  0  0  0  0
 34 45  1  0  0  0  0
 35 65  1  0  0  0  0
 35 74  2  0  0  0  0
 36 81  1  0  0  0  0
 37 69  1  0  0  0  0
 37 75  2  0  0  0  0
 38 53  1  0  0  0  0
 38 71  1  0  0  0  0
 38 76  2  0  0  0  0
 39 60  1  0  0  0  0
 39 66  1  0  0  0  0
 39 77  2  0  0  0  0
 40 61  1  0  0  0  0
 40 72  1  0  0  0  0
 40 78  2  0  0  0  0
 41 67  1  0  0  0  0
 41 70  1  0  0  0  0
 41 79  2  0  0  0  0
 42 46  1  0  0  0  0
 43 53  1  0  0  0  0
 44 66  1  0  0  0  0
 45 65  1  0  0  0  0
 46 48  1  0  0  0  0
 47 49  1  0  0  0  0
 47 50  1  0  0  0  0
 48 52  1  0  0  0  0
 49 54  1  0  0  0  0
 50 67  1  0  0  0  0
 51 54  1  0  0  0  0
 51 67  1  0  0  0  0
 52 71  1  0  0  0  0
 53 66  1  0  0  0  0
 54 64  1  0  0  0  0
 55 61  1  0  0  0  0
 56 62  1  0  0  0  0
 57 62  1  0  0  0  0
 58 62  1  0  0  0  0
 59 73  1  0  0  0  0
 60 62  1  0  0  0  0
 60 72  1  0  0  0  0
 61 73  1  0  0  0  0
 63 64  1  0  0  0  0
M  CHG  1  73   1
M  ISO  4  36 101  41 100  70 100  81 101
M  END
> <Batch ID>
0083

> <Smiles>
CNC(C)C(=O)NC(C(=O)N1Cc2cc([101O:1][101CH:1]=C3CN(c4ccc([100NH:0][100C:0](=O)N5CCCC(n6nc(-c7ccc(Oc8ccc(F)cc8F)cc7)c(C(N)=O)c6N)C5)c(F)c4)C3=O)ccc2CC1C(=O)NC1CCCc2ccccc21)C(C)(C)C

> <Shape>
0.291

> <Color>
0.088

> <Negative vol penalty>
0.000

$$$$

  -OEChem-04052300093D

 85 94  0     1  0  0  0  0  0999 V2000
  -28.7701  -34.6849   16.2330 C   0  0  0  0  0  0  0  0  0  0  0  0
  -28.8642  -33.3872   16.7256 C   0  0  0  0  0  0  0  0  0  0  0  0
  -24.0814   -9.6965   22.2603 C   0  0  0  0  0  0  0  0  0  0  0  0
  -24.5297  -11.3748   23.9394 C   0  0  0  0  0  0  0  0  0  0  0  0
  -28.4027  -35.7271   17.0832 C   0  0  0  0  0  0  0  0  0  0  0  0
  -28.5919  -33.1312   18.0690 C   0  0  0  0  0  0  0  0  0  0  0  0
  -25.6805  -29.0383   18.7151 C   0  0  0  0  0  0  0  0  0  0  0  0
  -28.1782  -20.5473   19.3038 C   0  0  0  0  0  0  0  0  0  0  0  0
  -30.5677  -20.2134   19.1796 C   0  0  0  0  0  0  0  0  0  0  0  0
  -27.9816  -19.1684   19.2292 C   0  0  0  0  0  0  0  0  0  0  0  0
  -30.3712  -18.8344   19.1050 C   0  0  0  0  0  0  0  0  0  0  0  0
  -23.6769   -8.8079   23.2565 C   0  0  0  0  0  0  0  0  0  0  0  0
  -24.1252  -10.4862   24.9356 C   0  0  0  0  0  0  0  0  0  0  0  0
  -26.2997  -27.7936   18.6108 C   0  0  0  0  0  0  0  0  0  0  0  0
  -20.9327   -8.2812   25.1603 C   0  0  0  0  0  0  0  0  0  0  0  0
  -19.7616   -7.5548   24.9446 C   0  0  0  0  0  0  0  0  0  0  0  0
  -26.3980  -27.6476   21.0167 C   0  0  0  0  0  0  0  0  0  0  0  0
  -21.0097   -5.4929   25.1116 C   0  0  0  0  0  0  0  0  0  0  0  0
  -24.5078  -10.9800   22.6017 C   0  0  0  0  0  0  0  0  0  0  0  0
  -24.1197  -12.8148   20.8725 C   0  0  0  0  0  0  0  0  0  0  0  0
  -28.1163  -35.4821   18.4355 C   0  0  0  0  0  0  0  0  0  0  0  0
  -25.4248  -29.6029   19.9730 C   0  0  0  0  0  0  0  0  0  0  0  0
  -28.2215  -34.1712   18.9383 C   0  0  0  0  0  0  0  0  0  0  0  0
  -25.7731  -28.8985   21.1343 C   0  0  0  0  0  0  0  0  0  0  0  0
  -29.4712  -21.0698   19.2789 C   0  0  0  0  0  0  0  0  0  0  0  0
  -29.0781  -18.3119   19.1298 C   0  0  0  0  0  0  0  0  0  0  0  0
  -23.6988   -9.2027   24.5941 C   0  0  0  0  0  0  0  0  0  0  0  0
  -26.6612  -27.0993   19.7617 C   0  0  0  0  0  0  0  0  0  0  0  0
  -22.1423   -7.6134   25.3516 C   0  0  0  0  0  0  0  0  0  0  0  0
  -19.8001   -6.1607   24.9202 C   0  0  0  0  0  0  0  0  0  0  0  0
  -22.1809   -6.2193   25.3273 C   0  0  0  0  0  0  0  0  0  0  0  0
  -24.9262  -11.8982   21.5732 C   0  0  0  0  0  0  0  0  0  0  0  0
  -24.9847  -13.4457   20.0122 C   0  0  0  0  0  0  0  0  0  0  0  0
  -29.3278  -24.7162   19.5040 C   0  0  0  0  0  0  0  0  0  0  0  0
  -30.7548  -24.5267   19.4313 C   0  0  0  0  0  0  0  0  0  0  0  0
  -28.6384  -23.3967   19.4548 C   0  0  0  0  0  0  0  0  0  0  0  0
  -31.7175  -25.4548   19.4459 C   0  0  0  0  0  0  0  0  0  0  0  0
  -28.6312  -25.8485   19.6019 C   0  0  0  0  0  0  0  0  0  1  0  0
  -22.7142  -13.0731   20.9890 C   0  0  0  0  0  0  0  0  0  0  0  0
  -26.3627  -32.2392   21.4810 C   0  0  0  0  0  0  0  0  0  0  0  0
  -24.2161  -31.2612   23.7076 C   0  0  0  0  0  0  0  0  0  0  0  0
  -22.4622  -28.6904   25.1083 C   0  0  0  0  0  0  0  0  0  0  0  0
  -29.8573  -15.9229   18.9518 C   0  0  0  0  0  0  0  0  0  0  0  0
  -27.7691  -36.6482   19.3267 C   0  0  0  0  0  0  0  0  0  0  0  0
  -24.7319  -30.9345   20.0688 C   0  0  0  0  0  0  0  0  0  0  0  0
  -25.5022  -29.4518   22.5087 C   0  0  0  0  0  0  0  0  0  0  0  0
  -30.9975  -23.0509   19.3321 C   0  0  0  0  0  0  0  0  0  0  0  0
  -27.1331  -36.2342   20.6513 C   0  0  0  0  0  0  0  0  0  0  0  0
  -29.7741  -12.3676   18.7787 C   0  0  0  0  0  0  0  0  0  0  0  0
  -27.9175  -35.0899   21.2855 C   0  0  0  0  0  0  0  0  0  0  0  0
  -28.4391  -12.0039   19.4327 C   0  0  0  0  0  0  0  0  0  0  0  0
  -30.4354  -13.5613   19.4654 C   0  0  0  0  0  0  0  0  0  0  0  0
  -28.2510  -14.3885   20.2483 C   0  0  0  0  0  0  0  0  0  0  0  0
  -27.9099  -33.8496   20.3839 C   0  0  1  0  0  0  0  0  0  0  0  0
  -24.9850  -31.6458   21.3945 C   0  0  1  0  0  0  0  0  0  0  0  0
  -27.5160  -13.2326   19.5503 C   0  0  2  0  0  0  0  0  0  0  0  0
  -20.8160  -28.1944   26.9362 C   0  0  0  0  0  0  0  0  0  0  0  0
  -26.4499  -31.4779   25.7748 C   0  0  0  0  0  0  0  0  0  0  0  0
  -25.0521  -30.0981   27.3274 C   0  0  0  0  0  0  0  0  0  0  0  0
  -24.2261  -32.3197   26.5497 C   0  0  0  0  0  0  0  0  0  0  0  0
  -20.4379  -27.7188   23.1803 C   0  0  0  0  0  0  0  0  0  0  0  0
  -24.2717  -30.3783   24.9308 C   0  0  1  0  0  0  0  0  0  0  0  0
  -20.9942  -28.5511   25.4686 C   0  0  2  0  0  0  0  0  0  0  0  0
  -25.0069  -31.0587   26.1199 C   0  0  0  0  0  0  0  0  0  0  0  0
  -26.2054  -11.9396   21.1909 N   0  0  0  0  0  0  0  0  0  0  0  0
  -26.2091  -12.8899   20.2407 N   0  0  0  0  0  0  0  0  0  0  0  0
  -29.6675  -22.4452   19.3529 N   0  0  0  0  0  0  0  0  0  0  0  0
  -24.8283  -30.7601   22.5500 N   0  0  0  0  0  0  0  0  0  0  0  0
  -29.5034  -14.6887   19.5370 N   0  0  0  0  0  0  0  0  0  0  0  0
  -24.8099  -14.4160   19.0900 N   0  0  0  0  0  0  0  0  0  0  0  0
  -21.9744  -12.3351   21.9231 N   0  0  0  0  0  0  0  0  0  0  0  0
  -28.8788  -16.9111   19.0540 N   0  0  0  0  0  0  0  0  0  0  0  0
  -26.6432  -33.1574   20.4871 N   0  0  0  0  0  0  0  0  0  0  0  0
  -22.8941  -29.9951   25.2206 N   0  0  0  0  0  0  0  0  0  0  0  0
  -20.3576  -27.4846   24.6451 N   0  3  0  0  0  0  0  0  0  0  0  0
  -27.4330  -23.2161   19.4964 O   0  0  0  0  0  0  0  0  0  0  0  0
  -22.1285  -13.9213   20.2741 O   0  0  0  0  0  0  0  0  0  0  0  0
  -27.1150  -31.8910   22.3835 O   0  0  0  0  0  0  0  0  0  0  0  0
  -23.6441  -32.3520   23.7746 O   0  0  0  0  0  0  0  0  0  0  0  0
  -23.1573  -27.7366   24.7653 O   0  0  0  0  0  0  0  0  0  0  0  0
  -30.9371  -16.0826   18.3769 O   0  0  0  0  0  0  0  0  0  0  0  0
  -23.3040   -8.3360   25.5664 O   0  0  0  0  0  0  0  0  0  0  0  0
  -27.2664  -25.8844   19.6627 O   0  0  0  0  0  0  0  0  0  1  0  0
  -18.6752   -5.4633   24.7146 F   0  0  0  0  0  0  0  0  0  0  0  0
  -23.3398   -5.5722   25.5116 F   0  0  0  0  0  0  0  0  0  0  0  0
  1  2  1  0  0  0  0
  1  5  2  0  0  0  0
  2  6  2  0  0  0  0
  3 12  2  0  0  0  0
  3 19  1  0  0  0  0
  4 13  1  0  0  0  0
  4 19  2  0  0  0  0
  5 21  1  0  0  0  0
  6 23  1  0  0  0  0
  7 14  2  0  0  0  0
  7 22  1  0  0  0  0
  8 10  2  0  0  0  0
  8 25  1  0  0  0  0
  9 11  1  0  0  0  0
  9 25  2  0  0  0  0
 10 26  1  0  0  0  0
 11 26  2  0  0  0  0
 12 27  1  0  0  0  0
 13 27  2  0  0  0  0
 14 28  1  0  0  0  0
 15 16  2  0  0  0  0
 15 29  1  0  0  0  0
 16 30  1  0  0  0  0
 17 24  1  0  0  0  0
 17 28  2  0  0  0  0
 18 30  2  0  0  0  0
 18 31  1  0  0  0  0
 19 32  1  0  0  0  0
 20 32  1  0  0  0  0
 20 33  2  0  0  0  0
 20 39  1  0  0  0  0
 21 23  2  0  0  0  0
 21 44  1  0  0  0  0
 22 24  2  0  0  0  0
 22 45  1  0  0  0  0
 23 54  1  0  0  0  0
 24 46  1  0  0  0  0
 25 67  1  0  0  0  0
 26 72  1  0  0  0  0
 27 82  1  0  0  0  0
 28 83  1  0  0  0  0
 29 31  2  0  0  0  0
 29 82  1  0  0  0  0
 30 84  1  0  0  0  0
 31 85  1  0  0  0  0
 32 65  2  0  0  0  0
 33 66  1  0  0  0  0
 33 70  1  0  0  0  0
 34 35  1  0  0  0  0
 34 36  1  0  0  0  0
 34 38  2  0  0  0  0
 35 37  2  0  0  0  0
 35 47  1  0  0  0  0
 36 67  1  0  0  0  0
 36 76  2  0  0  0  0
 38 83  1  0  0  0  0
 39 71  1  0  0  0  0
 39 77  2  0  0  0  0
 40 55  1  0  0  0  0
 40 73  1  0  0  0  0
 40 78  2  0  0  0  0
 41 62  1  0  0  0  0
 41 68  1  0  0  0  0
 41 79  2  0  0  0  0
 42 63  1  0  0  0  0
 42 74  1  0  0  0  0
 42 80  2  0  0  0  0
 43 69  1  0  0  0  0
 43 72  1  0  0  0  0
 43 81  2  0  0  0  0
 44 48  1  0  0  0  0
 45 55  1  0  0  0  0
 46 68  1  0  0  0  0
 47 67  1  0  0  0  0
 48 50  1  0  0  0  0
 49 51  1  0  0  0  0
 49 52  1  0  0  0  0
 50 54  1  0  0  0  0
 51 56  1  0  0  0  0
 52 69  1  0  0  0  0
 53 56  1  0  0  0  0
 53 69  1  0  0  0  0
 54 73  1  0  0  0  0
 55 68  1  0  0  0  0
 56 66  1  0  0  0  0
 57 63  1  0  0  0  0
 58 64  1  0  0  0  0
 59 64  1  0  0  0  0
 60 64  1  0  0  0  0
 61 75  1  0  0  0  0
 62 64  1  0  0  0  0
 62 74  1  0  0  0  0
 63 75  1  0  0  0  0
 65 66  1  0  0  0  0
M  CHG  1  75   1
M  ISO  4  38 101  43 100  72 100  83 101
M  END
> <Batch ID>
0083

> <Smiles>
C=C1CN(c2ccc([100NH:0][100C:0](=O)N3CCCC(n4nc(-c5ccc(Oc6ccc(F)cc6F)cc5)c(C(N)=O)c4N)C3)cc2)C(=O)C1=[101CH:1][101O:1]c1ccc2c(c1)CN(C(=O)C(NC(=O)C(C)NC)C(C)(C)C)C(C(=O)NC1CCCc3ccccc31)C2

> <Shape>
0.293

> <Color>
0.133

> <Negative vol penalty>
0.000

$$$$

  -OEChem-04052300093D

 85 93  0     1  0  0  0  0  0999 V2000
  -22.3304  -20.4034   22.5002 C   0  0  0  0  0  0  0  0  0  0  0  0
  -23.5567  -20.9413   22.1228 C   0  0  0  0  0  0  0  0  0  0  0  0
  -26.2851  -24.1411   18.1057 C   0  0  0  0  0  0  0  0  0  0  0  0
  -23.4634  -12.6833   20.6349 C   0  0  0  0  0  0  0  0  0  0  0  0
  -22.6795  -14.3567   22.1913 C   0  0  0  0  0  0  0  0  0  0  0  0
  -27.4789  -24.8574   18.0207 C   0  0  0  0  0  0  0  0  0  0  0  0
  -21.1567  -21.1218   22.2763 C   0  0  0  0  0  0  0  0  0  0  0  0
  -23.6098  -22.1976   21.5201 C   0  0  0  0  0  0  0  0  0  0  0  0
  -28.0116  -26.4065   22.1640 C   0  0  0  0  0  0  0  0  0  0  0  0
  -26.2881  -22.8362   18.5986 C   0  0  0  0  0  0  0  0  0  0  0  0
  -22.8412  -11.6893   21.3901 C   0  0  0  0  0  0  0  0  0  0  0  0
  -22.0572  -13.3626   22.9465 C   0  0  0  0  0  0  0  0  0  0  0  0
  -29.1098  -26.7437   21.3741 C   0  0  0  0  0  0  0  0  0  0  0  0
  -19.7144  -10.4750   21.8161 C   0  0  0  0  0  0  0  0  0  0  0  0
  -18.9785   -9.5069   21.1329 C   0  0  0  0  0  0  0  0  0  0  0  0
  -28.6791  -22.9638   18.9214 C   0  0  0  0  0  0  0  0  0  0  0  0
  -27.8237  -28.5090   20.3500 C   0  0  0  0  0  0  0  0  0  0  0  0
  -20.4162   -7.7831   22.0265 C   0  0  0  0  0  0  0  0  0  0  0  0
  -23.3826  -14.0170   21.0355 C   0  0  0  0  0  0  0  0  0  0  0  0
  -28.6759  -24.2687   18.4285 C   0  0  0  0  0  0  0  0  0  0  0  0
  -23.4694  -15.7758   19.1897 C   0  0  0  0  0  0  0  0  0  0  0  0
  -21.1964  -22.3917   21.6793 C   0  0  0  0  0  0  0  0  0  0  0  0
  -26.8057  -27.1123   22.0449 C   0  0  0  0  0  0  0  0  0  0  0  0
  -22.4354  -22.9331   21.2867 C   0  0  0  0  0  0  0  0  0  0  0  0
  -26.7124  -28.1805   21.1414 C   0  0  0  0  0  0  0  0  0  0  0  0
  -27.4852  -22.2476   19.0064 C   0  0  0  0  0  0  0  0  0  0  0  0
  -22.1380  -12.0290   22.5459 C   0  0  0  0  0  0  0  0  0  0  0  0
  -29.0151  -27.7931   20.4648 C   0  0  0  0  0  0  0  0  0  0  0  0
  -20.8013  -10.0971   22.6046 C   0  0  0  0  0  0  0  0  0  0  0  0
  -19.3293   -8.1610   21.2381 C   0  0  0  0  0  0  0  0  0  0  0  0
  -21.1522   -8.7512   22.7098 C   0  0  0  0  0  0  0  0  0  0  0  0
  -24.0257  -15.0442   20.2561 C   0  0  0  0  0  0  0  0  0  0  0  0
  -24.4764  -16.6202   18.7905 C   0  0  0  0  0  0  0  0  0  0  0  0
  -29.9468  -25.0328   18.3374 C   0  0  0  0  0  0  0  0  0  0  0  0
  -22.1595  -15.6990   18.6118 C   0  0  0  0  0  0  0  0  0  0  0  0
  -23.8349  -26.3519   21.2083 C   0  0  0  0  0  0  0  0  0  0  0  0
  -30.9037  -28.3056   17.4214 C   0  0  0  0  0  0  0  0  0  0  0  0
  -23.2183  -29.4115   22.0924 C   0  0  0  0  0  0  0  0  0  0  0  0
  -24.3931  -32.5774   22.5856 C   0  0  0  0  0  0  0  0  0  0  0  0
  -28.5878  -20.1903   19.9541 C   0  0  0  0  0  0  0  0  0  0  0  0
  -19.8970  -23.1103   21.4145 C   0  0  0  0  0  0  0  0  0  0  0  0
  -25.6386  -26.7535   22.9233 C   0  0  0  0  0  0  0  0  0  0  0  0
  -25.4467  -28.9826   20.9897 C   0  0  0  0  0  0  0  0  0  0  0  0
  -20.0734  -24.5960   21.1114 C   0  0  0  0  0  0  0  0  0  0  0  0
  -29.3806  -16.7202   20.0395 C   0  0  0  0  0  0  0  0  0  0  0  0
  -21.1964  -24.8049   20.1005 C   0  0  0  0  0  0  0  0  0  0  0  0
  -28.0124  -16.0350   20.0158 C   0  0  0  0  0  0  0  0  0  0  0  0
  -29.3558  -18.0079   20.8610 C   0  0  0  0  0  0  0  0  0  0  0  0
  -26.9406  -18.2804   20.4590 C   0  0  0  0  0  0  0  0  0  0  0  0
  -22.5362  -24.3036   20.6528 C   0  0  1  0  0  0  0  0  0  0  0  0
  -24.2990  -27.2083   22.3524 C   0  0  1  0  0  0  0  0  0  0  0  0
  -26.8997  -17.0129   19.5899 C   0  0  2  0  0  0  0  0  0  0  0  0
  -31.6784  -26.6325   15.7146 C   0  0  0  0  0  0  0  0  0  0  0  0
  -23.6442  -34.8715   23.2737 C   0  0  0  0  0  0  0  0  0  0  0  0
  -21.9404  -29.8139   19.3510 C   0  0  0  0  0  0  0  0  0  0  0  0
  -22.0799  -32.2853   19.7260 C   0  0  0  0  0  0  0  0  0  0  0  0
  -20.6978  -30.8709   21.2465 C   0  0  0  0  0  0  0  0  0  0  0  0
  -26.2104  -32.5965   24.9215 C   0  0  0  0  0  0  0  0  0  0  0  0
  -29.8113  -28.6801   18.4068 C   0  0  0  0  0  0  0  0  0  1  0  0
  -31.1660  -26.8273   17.1336 C   0  0  2  0  0  0  0  0  0  0  0  0
  -23.2190  -30.7479   21.3903 C   0  0  1  0  0  0  0  0  0  0  0  0
  -24.2237  -33.5459   23.7423 C   0  0  2  0  0  0  0  0  0  0  0  0
  -22.0077  -30.9133   20.4297 C   0  0  0  0  0  0  0  0  0  0  0  0
  -25.2881  -15.3932   20.5177 N   0  0  0  0  0  0  0  0  0  0  0  0
  -25.5335  -16.3532   19.6098 N   0  0  0  0  0  0  0  0  0  0  0  0
  -24.3313  -28.5892   21.8664 N   0  0  0  0  0  0  0  0  0  0  0  0
  -28.2797  -18.8870   20.3984 N   0  0  0  0  0  0  0  0  0  0  0  0
  -24.5518  -17.5575   17.8219 N   0  0  0  0  0  0  0  0  0  0  0  0
  -21.2478  -14.7765   19.1432 N   0  0  0  0  0  0  0  0  0  0  0  0
  -27.4880  -20.9221   19.5073 N   0  0  0  0  0  0  0  0  0  0  0  0
  -29.9971  -26.0198   17.3610 N   0  0  0  0  0  0  0  0  0  0  0  0
  -23.0840  -25.2576   21.5931 N   0  0  0  0  0  0  0  0  0  0  0  0
  -23.2927  -31.7597   22.4388 N   0  0  0  0  0  0  0  0  0  0  0  0
  -25.5381  -33.8111   24.3926 N   0  3  0  0  0  0  0  0  0  0  0  0
  -30.8724  -24.7501   19.0936 O   0  0  0  0  0  0  0  0  0  0  0  0
  -21.8133  -16.4153   17.6420 O   0  0  0  0  0  0  0  0  0  0  0  0
  -24.1345  -26.6619   20.0612 O   0  0  0  0  0  0  0  0  0  0  0  0
  -31.6066  -29.1742   16.8976 O   0  0  0  0  0  0  0  0  0  0  0  0
  -22.2687  -29.1112   22.8202 O   0  0  0  0  0  0  0  0  0  0  0  0
  -25.3994  -32.5516   21.8804 O   0  0  0  0  0  0  0  0  0  0  0  0
  -29.7458  -20.6154   19.9433 O   0  0  0  0  0  0  0  0  0  0  0  0
  -21.5305  -11.0593   23.2829 O   0  0  0  0  0  0  0  0  0  0  0  0
  -30.0853  -28.1238   19.6921 O   0  0  0  0  0  0  0  0  0  1  0  0
  -18.6215   -7.2314   20.5831 F   0  0  0  0  0  0  0  0  0  0  0  0
  -22.1946   -8.3820   23.4666 F   0  0  0  0  0  0  0  0  0  0  0  0
  1  2  1  0  0  0  0
  1  7  2  0  0  0  0
  2  8  2  0  0  0  0
  3  6  2  0  0  0  0
  3 10  1  0  0  0  0
  4 11  2  0  0  0  0
  4 19  1  0  0  0  0
  5 12  1  0  0  0  0
  5 19  2  0  0  0  0
  6 20  1  0  0  0  0
  7 22  1  0  0  0  0
  8 24  1  0  0  0  0
  9 13  2  0  0  0  0
  9 23  1  0  0  0  0
 10 26  2  0  0  0  0
 11 27  1  0  0  0  0
 12 27  2  0  0  0  0
 13 28  1  0  0  0  0
 14 15  2  0  0  0  0
 14 29  1  0  0  0  0
 15 30  1  0  0  0  0
 16 20  2  0  0  0  0
 16 26  1  0  0  0  0
 17 25  1  0  0  0  0
 17 28  2  0  0  0  0
 18 30  2  0  0  0  0
 18 31  1  0  0  0  0
 19 32  1  0  0  0  0
 20 34  1  0  0  0  0
 21 32  1  0  0  0  0
 21 33  2  0  0  0  0
 21 35  1  0  0  0  0
 22 24  2  0  0  0  0
 22 41  1  0  0  0  0
 23 25  2  0  0  0  0
 23 42  1  0  0  0  0
 24 50  1  0  0  0  0
 25 43  1  0  0  0  0
 26 70  1  0  0  0  0
 27 82  1  0  0  0  0
 28 83  1  0  0  0  0
 29 31  2  0  0  0  0
 29 82  1  0  0  0  0
 30 84  1  0  0  0  0
 31 85  1  0  0  0  0
 32 64  2  0  0  0  0
 33 65  1  0  0  0  0
 33 68  1  0  0  0  0
 34 71  1  0  0  0  0
 34 75  2  0  0  0  0
 35 69  1  0  0  0  0
 35 76  2  0  0  0  0
 36 51  1  0  0  0  0
 36 72  1  0  0  0  0
 36 77  2  0  0  0  0
 37 59  1  0  0  0  0
 37 60  1  0  0  0  0
 37 78  2  0  0  0  0
 38 61  1  0  0  0  0
 38 66  1  0  0  0  0
 38 79  2  0  0  0  0
 39 62  1  0  0  0  0
 39 73  1  0  0  0  0
 39 80  2  0  0  0  0
 40 67  1  0  0  0  0
 40 70  1  0  0  0  0
 40 81  2  0  0  0  0
 41 44  1  0  0  0  0
 42 51  1  0  0  0  0
 43 66  1  0  0  0  0
 44 46  1  0  0  0  0
 45 47  1  0  0  0  0
 45 48  1  0  0  0  0
 46 50  1  0  0  0  0
 47 52  1  0  0  0  0
 48 67  1  0  0  0  0
 49 52  1  0  0  0  0
 49 67  1  0  0  0  0
 50 72  1  0  0  0  0
 51 66  1  0  0  0  0
 52 65  1  0  0  0  0
 53 60  1  0  0  0  0
 54 62  1  0  0  0  0
 55 63  1  0  0  0  0
 56 63  1  0  0  0  0
 57 63  1  0  0  0  0
 58 74  1  0  0  0  0
 59 83  1  0  0  0  0
 60 71  1  0  0  0  0
 61 63  1  0  0  0  0
 61 73  1  0  0  0  0
 62 74  1  0  0  0  0
 64 65  1  0  0  0  0
M  CHG  1  74   1
M  ISO  4  40 100  59 101  70 100  83 101
M  END
> <Batch ID>
0083

> <Smiles>
CNC(C)C(=O)NC(C(=O)N1Cc2cc([101O:1][101CH2:1]C(=O)C(C)NC(=O)c3cccc([100NH:0][100C:0](=O)N4CCCC(n5nc(-c6ccc(Oc7ccc(F)cc7F)cc6)c(C(N)=O)c5N)C4)c3)ccc2CC1C(=O)NC1CCCc2ccccc21)C(C)(C)C

> <Shape>
0.222

> <Color>
0.067

> <Negative vol penalty>
0.000

$$$$

  -OEChem-04052300093D

 90100  0     1  0  0  0  0  0999 V2000
  -30.0596  -35.5183   22.6093 C   0  0  0  0  0  0  0  0  0  0  0  0
  -29.8775  -34.1392   22.5925 C   0  0  0  0  0  0  0  0  0  0  0  0
  -24.7011   -8.9658   21.8038 C   0  0  0  0  0  0  0  0  0  0  0  0
  -23.1585   -9.6438   20.0724 C   0  0  0  0  0  0  0  0  0  0  0  0
  -28.9987  -36.3562   22.9505 C   0  0  0  0  0  0  0  0  0  0  0  0
  -28.6347  -33.5971   22.9179 C   0  0  0  0  0  0  0  0  0  0  0  0
  -27.2116  -29.9408   19.7161 C   0  0  0  0  0  0  0  0  0  0  0  0
  -23.6925   -8.2160   22.4088 C   0  0  0  0  0  0  0  0  0  0  0  0
  -22.1499   -8.8940   20.6774 C   0  0  0  0  0  0  0  0  0  0  0  0
  -27.7949  -28.6855   19.8833 C   0  0  0  0  0  0  0  0  0  0  0  0
  -22.1959   -5.2199   21.9437 C   0  0  0  0  0  0  0  0  0  0  0  0
  -22.5143   -3.9311   22.3718 C   0  0  0  0  0  0  0  0  0  0  0  0
  -25.8195  -27.9287   21.0428 C   0  0  0  0  0  0  0  0  0  0  0  0
  -30.5082  -21.0810   22.1378 C   0  0  0  0  0  0  0  0  0  0  0  0
  -31.7628  -19.7976   23.7551 C   0  0  0  0  0  0  0  0  0  0  0  0
  -31.2073  -22.1040   24.2119 C   0  0  0  0  0  0  0  0  0  0  0  0
  -21.9386   -4.5416   24.6374 C   0  0  0  0  0  0  0  0  0  0  0  0
  -24.4341   -9.6797   20.6356 C   0  0  0  0  0  0  0  0  0  0  0  0
  -26.3859  -10.0201   19.0287 C   0  0  0  0  0  0  0  0  0  0  0  0
  -27.7396  -35.8245   23.2709 C   0  0  0  0  0  0  0  0  0  0  0  0
  -25.9301  -30.2031   20.2215 C   0  0  0  0  0  0  0  0  0  0  0  0
  -27.5564  -34.4285   23.2650 C   0  0  0  0  0  0  0  0  0  0  0  0
  -25.2212  -29.1873   20.8785 C   0  0  0  0  0  0  0  0  0  0  0  0
  -31.1116  -19.8844   22.5247 C   0  0  0  0  0  0  0  0  0  0  0  0
  -30.5561  -22.1908   22.9814 C   0  0  0  0  0  0  0  0  0  0  0  0
  -31.8107  -20.9074   24.5987 C   0  0  0  0  0  0  0  0  0  0  0  0
  -22.4169   -8.1801   21.8456 C   0  0  0  0  0  0  0  0  0  0  0  0
  -27.1000  -27.6801   20.5492 C   0  0  0  0  0  0  0  0  0  0  0  0
  -21.7489   -6.1695   22.8624 C   0  0  0  0  0  0  0  0  0  0  0  0
  -22.3856   -3.5919   23.7187 C   0  0  0  0  0  0  0  0  0  0  0  0
  -21.6202   -5.8304   24.2093 C   0  0  0  0  0  0  0  0  0  0  0  0
  -25.4755  -10.4549   20.0104 C   0  0  0  0  0  0  0  0  0  0  0  0
  -27.1621  -11.1228   18.7678 C   0  0  0  0  0  0  0  0  0  0  0  0
  -31.2573  -17.3893   19.8640 C   0  0  0  0  0  0  0  0  0  0  0  0
  -30.6379  -16.7009   20.8195 C   0  0  0  0  0  0  0  0  0  0  0  0
  -29.0201  -25.0659   22.1053 C   0  0  0  0  0  0  0  0  0  0  0  0
  -30.4919  -17.5569   22.0043 C   0  0  0  0  0  0  0  0  0  0  0  0
  -29.8549  -24.5805   23.2048 C   0  0  0  0  0  0  0  0  0  0  0  0
  -31.5827  -18.7320   20.3930 C   0  0  0  0  0  0  0  0  0  0  0  0
  -28.4137  -26.2368   21.8382 C   0  0  0  0  0  0  0  0  0  1  0  0
  -26.5182   -8.7345   18.4079 C   0  0  0  0  0  0  0  0  0  0  0  0
  -30.1788  -15.3072   20.6537 C   0  0  0  0  0  0  0  0  0  0  0  0
  -24.7366  -32.2123   22.3761 C   0  0  0  0  0  0  0  0  0  0  0  0
  -21.9010  -31.0302   21.3348 C   0  0  0  0  0  0  0  0  0  0  0  0
  -20.1987  -28.4735   19.8474 C   0  0  0  0  0  0  0  0  0  0  0  0
  -26.6359  -36.7678   23.6794 C   0  0  0  0  0  0  0  0  0  0  0  0
  -25.3042  -31.5543   20.0095 C   0  0  0  0  0  0  0  0  0  0  0  0
  -23.8346  -29.4119   21.4219 C   0  0  0  0  0  0  0  0  0  0  0  0
  -29.1475  -23.7113   21.4468 C   0  0  0  0  0  0  0  0  0  0  0  0
  -25.2484  -36.1320   23.6472 C   0  0  0  0  0  0  0  0  0  0  0  0
  -26.6099  -15.9491   20.1216 C   0  0  0  0  0  0  0  0  0  0  0  0
  -25.2722  -34.7640   24.3214 C   0  0  0  0  0  0  0  0  0  0  0  0
  -26.0687  -14.5262   20.0125 C   0  0  0  0  0  0  0  0  0  0  0  0
  -27.7764  -16.0434   21.1039 C   0  0  0  0  0  0  0  0  0  0  0  0
  -28.3419  -13.6651   20.6991 C   0  0  0  0  0  0  0  0  0  0  0  0
  -26.2164  -33.8038   23.5878 C   0  0  1  0  0  0  0  0  0  0  0  0
  -24.2007  -31.8662   21.0157 C   0  0  1  0  0  0  0  0  0  0  0  0
  -27.1982  -13.5381   19.6806 C   0  0  1  0  0  0  0  0  0  0  0  0
  -17.8847  -27.7799   19.1681 C   0  0  0  0  0  0  0  0  0  0  0  0
  -21.2397  -30.3952   24.2450 C   0  0  0  0  0  0  0  0  0  0  0  0
  -19.4143  -28.8886   23.4287 C   0  0  0  0  0  0  0  0  0  0  0  0
  -19.3341  -31.3298   22.9222 C   0  0  0  0  0  0  0  0  0  0  0  0
  -20.9577  -28.3207   16.9909 C   0  0  0  0  0  0  0  0  0  0  0  0
  -21.0175  -29.8706   21.7268 C   0  0  1  0  0  0  0  0  0  0  0  0
  -19.1709  -28.4632   18.7303 C   0  0  2  0  0  0  0  0  0  0  0  0
  -20.2783  -30.1171   23.0723 C   0  0  0  0  0  0  0  0  0  0  0  0
  -25.6554  -11.7340   20.3503 N   0  0  0  0  0  0  0  0  0  0  0  0
  -26.6880  -12.1124   19.5779 N   0  0  0  0  0  0  0  0  0  0  0  0
  -31.0636  -18.7746   21.6803 N   0  0  0  0  0  0  0  0  0  0  0  0
  -29.9615  -23.3713   22.6004 N   0  0  0  0  0  0  0  0  0  0  0  0
  -28.8170  -15.0494   20.8009 N   0  0  0  0  0  0  0  0  0  0  0  0
  -23.2680  -30.7517   21.1951 N   0  0  0  0  0  0  0  0  0  0  0  0
  -32.4694  -20.8197   25.8427 N   0  0  0  0  0  0  0  0  0  0  0  0
  -28.1971  -11.3328   17.9269 N   0  0  0  0  0  0  0  0  0  0  0  0
  -25.6388   -7.7132   18.7926 N   0  0  0  0  0  0  0  0  0  0  0  0
  -25.5896  -33.2994   22.3848 N   0  0  0  0  0  0  0  0  0  0  0  0
  -20.1310  -29.6313   20.5931 N   0  0  0  0  0  0  0  0  0  0  0  0
  -19.7054  -27.7412   17.5412 N   0  3  0  0  0  0  0  0  0  0  0  0
  -29.9607  -17.2052   23.0452 O   0  0  0  0  0  0  0  0  0  0  0  0
  -30.2725  -25.0539   24.2411 O   0  0  0  0  0  0  0  0  0  0  0  0
  -27.4010   -8.4937   17.5499 O   0  0  0  0  0  0  0  0  0  0  0  0
  -31.0310  -14.4542   20.3993 O   0  0  0  0  0  0  0  0  0  0  0  0
  -24.3999  -31.5436   23.3462 O   0  0  0  0  0  0  0  0  0  0  0  0
  -21.3958  -32.1406   21.1521 O   0  0  0  0  0  0  0  0  0  0  0  0
  -20.9809  -27.5455   20.0415 O   0  0  0  0  0  0  0  0  0  0  0  0
  -21.4325   -7.4484   22.4356 O   0  0  0  0  0  0  0  0  0  0  0  0
  -27.6672  -26.4542   20.7143 O   0  0  0  0  0  0  0  0  0  1  0  0
  -22.6899   -2.3539   24.1294 F   0  0  0  0  0  0  0  0  0  0  0  0
  -21.1902   -6.7381   25.0964 F   0  0  0  0  0  0  0  0  0  0  0  0
  -32.3973  -19.9359   19.5721 S   0  0  0  0  0  0  0  0  0  0  0  0
  1  2  1  0  0  0  0
  1  5  2  0  0  0  0
  2  6  2  0  0  0  0
  3  8  2  0  0  0  0
  3 18  1  0  0  0  0
  4  9  1  0  0  0  0
  4 18  2  0  0  0  0
  5 20  1  0  0  0  0
  6 22  1  0  0  0  0
  7 10  2  0  0  0  0
  7 21  1  0  0  0  0
  8 27  1  0  0  0  0
  9 27  2  0  0  0  0
 10 28  1  0  0  0  0
 11 12  2  0  0  0  0
 11 29  1  0  0  0  0
 12 30  1  0  0  0  0
 13 23  1  0  0  0  0
 13 28  2  0  0  0  0
 14 24  1  0  0  0  0
 14 25  2  0  0  0  0
 15 24  2  0  0  0  0
 15 26  1  0  0  0  0
 16 25  1  0  0  0  0
 16 26  2  0  0  0  0
 17 30  2  0  0  0  0
 17 31  1  0  0  0  0
 18 32  1  0  0  0  0
 19 32  1  0  0  0  0
 19 33  2  0  0  0  0
 19 41  1  0  0  0  0
 20 22  2  0  0  0  0
 20 46  1  0  0  0  0
 21 23  2  0  0  0  0
 21 47  1  0  0  0  0
 22 56  1  0  0  0  0
 23 48  1  0  0  0  0
 24 69  1  0  0  0  0
 25 70  1  0  0  0  0
 26 73  1  0  0  0  0
 27 86  1  0  0  0  0
 28 87  1  0  0  0  0
 29 31  2  0  0  0  0
 29 86  1  0  0  0  0
 30 88  1  0  0  0  0
 31 89  1  0  0  0  0
 32 67  2  0  0  0  0
 33 68  1  0  0  0  0
 33 74  1  0  0  0  0
 34 35  2  0  0  0  0
 34 39  1  0  0  0  0
 35 37  1  0  0  0  0
 35 42  1  0  0  0  0
 36 38  1  0  0  0  0
 36 40  2  0  0  0  0
 36 49  1  0  0  0  0
 37 69  1  0  0  0  0
 37 79  2  0  0  0  0
 38 70  1  0  0  0  0
 38 80  2  0  0  0  0
 39 69  1  0  0  0  0
 39 90  2  0  0  0  0
 40 87  1  0  0  0  0
 41 75  1  0  0  0  0
 41 81  2  0  0  0  0
 42 71  1  0  0  0  0
 42 82  2  0  0  0  0
 43 57  1  0  0  0  0
 43 76  1  0  0  0  0
 43 83  2  0  0  0  0
 44 64  1  0  0  0  0
 44 72  1  0  0  0  0
 44 84  2  0  0  0  0
 45 65  1  0  0  0  0
 45 77  1  0  0  0  0
 45 85  2  0  0  0  0
 46 50  1  0  0  0  0
 47 57  1  0  0  0  0
 48 72  1  0  0  0  0
 49 70  1  0  0  0  0
 50 52  1  0  0  0  0
 51 53  1  0  0  0  0
 51 54  1  0  0  0  0
 52 56  1  0  0  0  0
 53 58  1  0  0  0  0
 54 71  1  0  0  0  0
 55 58  1  0  0  0  0
 55 71  1  0  0  0  0
 56 76  1  0  0  0  0
 57 72  1  0  0  0  0
 58 68  1  0  0  0  0
 59 65  1  0  0  0  0
 60 66  1  0  0  0  0
 61 66  1  0  0  0  0
 62 66  1  0  0  0  0
 63 78  1  0  0  0  0
 64 66  1  0  0  0  0
 64 77  1  0  0  0  0
 65 78  1  0  0  0  0
 67 68  1  0  0  0  0
M  CHG  1  78   1
M  ISO  4  35 100  40 101  42 100  87 101
M  END
> <Batch ID>
0083

> <Smiles>
CNC(C)C(=O)NC(C(=O)N1Cc2cc([101O:1][101CH:1]=C3CN(c4cc(N)cc(N5C(=O)[100C:0]([100C:0](=O)N6CCCC(n7nc(-c8ccc(Oc9ccc(F)cc9F)cc8)c(C(N)=O)c7N)C6)=CC5=S)c4)C3=O)ccc2CC1C(=O)NC1CCCc2ccccc21)C(C)(C)C

> <Shape>
0.302

> <Color>
0.093

> <Negative vol penalty>
0.000

$$$$

  -OEChem-04052300093D

 84 93  0     1  0  0  0  0  0999 V2000
  -28.1376  -23.6448   18.1390 C   0  0  0  0  0  0  0  0  0  0  0  0
  -26.9677  -23.9342   18.8339 C   0  0  0  0  0  0  0  0  0  0  0  0
  -25.2880  -15.5665   20.9143 C   0  0  0  0  0  0  0  0  0  0  0  0
  -23.5135  -14.5273   19.6462 C   0  0  0  0  0  0  0  0  0  0  0  0
  -29.3326  -24.2668   18.4984 C   0  0  0  0  0  0  0  0  0  0  0  0
  -26.9923  -24.8449   19.8896 C   0  0  0  0  0  0  0  0  0  0  0  0
  -23.1262  -28.1117   19.7274 C   0  0  0  0  0  0  0  0  0  0  0  0
  -25.9938  -14.3634   20.9127 C   0  0  0  0  0  0  0  0  0  0  0  0
  -24.2193  -13.3242   19.6444 C   0  0  0  0  0  0  0  0  0  0  0  0
  -21.8846  -27.6510   20.1633 C   0  0  0  0  0  0  0  0  0  0  0  0
  -28.4275  -11.6631   20.9321 C   0  0  0  0  0  0  0  0  0  0  0  0
  -29.7922  -11.7123   20.6479 C   0  0  0  0  0  0  0  0  0  0  0  0
  -22.6872  -24.0742   20.2481 C   0  0  0  0  0  0  0  0  0  0  0  0
  -21.3691  -23.4838   20.3763 C   0  0  0  0  0  0  0  0  0  0  0  0
  -22.2330  -28.7400   22.2874 C   0  0  0  0  0  0  0  0  0  0  0  0
  -29.3070  -12.6692   18.4832 C   0  0  0  0  0  0  0  0  0  0  0  0
  -24.0478  -15.6485   20.2811 C   0  0  0  0  0  0  0  0  0  0  0  0
  -23.3948  -17.9233   19.3291 C   0  0  0  0  0  0  0  0  0  0  0  0
  -29.3699  -25.1929   19.5528 C   0  0  0  0  0  0  0  0  0  0  0  0
  -23.9367  -28.8822   20.5736 C   0  0  0  0  0  0  0  0  0  0  0  0
  -28.1891  -25.4788   20.2643 C   0  0  0  0  0  0  0  0  0  0  0  0
  -23.4834  -29.2114   21.8590 C   0  0  0  0  0  0  0  0  0  0  0  0
  -25.4595  -13.2423   20.2777 C   0  0  0  0  0  0  0  0  0  0  0  0
  -21.4391  -27.9627   21.4445 C   0  0  0  0  0  0  0  0  0  0  0  0
  -27.5025  -12.1169   19.9917 C   0  0  0  0  0  0  0  0  0  0  0  0
  -30.2320  -12.2153   19.4235 C   0  0  0  0  0  0  0  0  0  0  0  0
  -27.9423  -12.6200   18.7673 C   0  0  0  0  0  0  0  0  0  0  0  0
  -23.3180  -16.8908   20.2830 C   0  0  0  0  0  0  0  0  0  0  0  0
  -22.9317  -24.5524   21.5318 C   0  0  0  0  0  0  0  0  0  0  0  0
  -21.0308  -23.7515   21.6966 C   0  0  0  0  0  0  0  0  0  0  0  0
  -22.5133  -18.8747   19.7813 C   0  0  0  0  0  0  0  0  0  0  0  0
  -23.3751  -23.2317   23.4848 C   0  0  0  0  0  0  0  0  0  0  0  0
  -23.7975  -24.1149   22.5569 C   0  0  0  0  0  0  0  0  0  0  0  0
  -22.0078  -22.5749   23.6777 C   0  0  0  0  0  0  0  0  0  0  0  0
  -19.1442  -26.6864   23.8073 C   0  0  0  0  0  0  0  0  0  0  0  0
  -24.1915  -18.0142   18.1406 C   0  0  0  0  0  0  0  0  0  0  0  0
  -20.1940  -26.7057   22.9743 C   0  0  0  0  0  0  0  0  0  1  0  0
  -26.8227  -28.5208   21.8556 C   0  0  0  0  0  0  0  0  0  0  0  0
  -26.3264  -31.5626   22.8675 C   0  0  0  0  0  0  0  0  0  0  0  0
  -24.1012  -34.0288   23.6501 C   0  0  0  0  0  0  0  0  0  0  0  0
  -20.6745  -21.1034   24.8244 C   0  0  0  0  0  0  0  0  0  0  0  0
  -30.6945  -25.8042   19.9354 C   0  0  0  0  0  0  0  0  0  0  0  0
  -25.2617  -29.3939   20.0788 C   0  0  0  0  0  0  0  0  0  0  0  0
  -24.3066  -30.0523   22.7989 C   0  0  0  0  0  0  0  0  0  0  0  0
  -20.7226  -22.8719   22.8436 C   0  0  0  0  0  0  0  0  0  0  0  0
  -30.5617  -27.0386   20.8236 C   0  0  0  0  0  0  0  0  0  0  0  0
  -18.6376  -18.8798   22.8358 C   0  0  0  0  0  0  0  0  0  0  0  0
  -29.5689  -26.7798   21.9524 C   0  0  0  0  0  0  0  0  0  0  0  0
  -19.6537  -18.2126   21.9095 C   0  0  0  0  0  0  0  0  0  0  0  0
  -19.2348  -19.1613   24.2110 C   0  0  0  0  0  0  0  0  0  0  0  0
  -21.5125  -19.3069   23.2398 C   0  0  0  0  0  0  0  0  0  0  0  0
  -28.1705  -26.4798   21.3992 C   0  0  1  0  0  0  0  0  0  0  0  0
  -26.2281  -29.7391   21.2077 C   0  0  1  0  0  0  0  0  0  0  0  0
  -20.9535  -19.0330   21.8329 C   0  0  1  0  0  0  0  0  0  0  0  0
  -23.9938  -36.3933   24.4839 C   0  0  0  0  0  0  0  0  0  0  0  0
  -26.9546  -30.5927   25.6914 C   0  0  0  0  0  0  0  0  0  0  0  0
  -25.9251  -32.6995   26.5690 C   0  0  0  0  0  0  0  0  0  0  0  0
  -27.9433  -32.8144   25.1073 C   0  0  0  0  0  0  0  0  0  0  0  0
  -22.7619  -34.9613   21.1811 C   0  0  0  0  0  0  0  0  0  0  0  0
  -21.4008  -25.8268   23.1486 C   0  0  0  0  0  0  0  0  0  0  0  0
  -25.7119  -32.1948   24.0929 C   0  0  1  0  0  0  0  0  0  0  0  0
  -24.0427  -35.4943   23.2583 C   0  0  2  0  0  0  0  0  0  0  0  0
  -26.6188  -32.0579   25.3484 C   0  0  0  0  0  0  0  0  0  0  0  0
  -22.4560  -17.1609   21.2669 N   0  0  0  0  0  0  0  0  0  0  0  0
  -21.9003  -21.7119   24.6286 N   0  0  0  0  0  0  0  0  0  0  0  0
  -21.6720  -24.9525   21.9484 N   0  0  0  0  0  0  0  0  0  0  0  0
  -21.9831  -18.3739   20.9338 N   0  0  0  0  0  0  0  0  0  0  0  0
  -25.5977  -30.5237   22.2713 N   0  0  0  0  0  0  0  0  0  0  0  0
  -20.4863  -19.9121   24.0993 N   0  0  0  0  0  0  0  0  0  0  0  0
  -22.1479  -20.0825   19.3015 N   0  0  0  0  0  0  0  0  0  0  0  0
  -25.0435  -16.9473   17.8242 N   0  0  0  0  0  0  0  0  0  0  0  0
  -27.5177  -27.7031   20.9850 N   0  0  0  0  0  0  0  0  0  0  0  0
  -25.4000  -33.5726   23.7285 N   0  0  0  0  0  0  0  0  0  0  0  0
  -22.8322  -35.7613   22.4310 N   0  3  0  0  0  0  0  0  0  0  0  0
  -24.1614  -19.0191   17.3904 O   0  0  0  0  0  0  0  0  0  0  0  0
  -26.6641  -28.3371   23.0568 O   0  0  0  0  0  0  0  0  0  0  0  0
  -27.4096  -31.9801   22.4503 O   0  0  0  0  0  0  0  0  0  0  0  0
  -23.0954  -33.3571   23.8687 O   0  0  0  0  0  0  0  0  0  0  0  0
  -19.7982  -21.5480   25.5700 O   0  0  0  0  0  0  0  0  0  0  0  0
  -26.1480  -12.0682   20.2756 O   0  0  0  0  0  0  0  0  0  0  0  0
  -20.2279  -27.5137   21.8727 O   0  0  0  0  0  0  0  0  0  1  0  0
  -31.5426  -12.2639   19.1514 F   0  0  0  0  0  0  0  0  0  0  0  0
  -27.0585  -13.0585   17.8605 F   0  0  0  0  0  0  0  0  0  0  0  0
  -25.0782  -24.5350   22.5379 F   0  0  0  0  0  0  0  0  0  0  0  0
  1  2  1  0  0  0  0
  1  5  2  0  0  0  0
  2  6  2  0  0  0  0
  3  8  2  0  0  0  0
  3 17  1  0  0  0  0
  4  9  1  0  0  0  0
  4 17  2  0  0  0  0
  5 19  1  0  0  0  0
  6 21  1  0  0  0  0
  7 10  2  0  0  0  0
  7 20  1  0  0  0  0
  8 23  1  0  0  0  0
  9 23  2  0  0  0  0
 10 24  1  0  0  0  0
 11 12  2  0  0  0  0
 11 25  1  0  0  0  0
 12 26  1  0  0  0  0
 13 14  1  0  0  0  0
 13 29  2  0  0  0  0
 14 30  2  0  0  0  0
 15 22  1  0  0  0  0
 15 24  2  0  0  0  0
 16 26  2  0  0  0  0
 16 27  1  0  0  0  0
 17 28  1  0  0  0  0
 18 28  1  0  0  0  0
 18 31  2  0  0  0  0
 18 36  1  0  0  0  0
 19 21  2  0  0  0  0
 19 42  1  0  0  0  0
 20 22  2  0  0  0  0
 20 43  1  0  0  0  0
 21 52  1  0  0  0  0
 22 44  1  0  0  0  0
 23 80  1  0  0  0  0
 24 81  1  0  0  0  0
 25 27  2  0  0  0  0
 25 80  1  0  0  0  0
 26 82  1  0  0  0  0
 27 83  1  0  0  0  0
 28 64  2  0  0  0  0
 29 33  1  0  0  0  0
 29 66  1  0  0  0  0
 30 45  1  0  0  0  0
 30 66  1  0  0  0  0
 31 67  1  0  0  0  0
 31 70  1  0  0  0  0
 32 33  2  0  0  0  0
 32 34  1  0  0  0  0
 33 84  1  0  0  0  0
 34 45  1  0  0  0  0
 34 65  2  0  0  0  0
 35 37  2  0  0  0  0
 36 71  1  0  0  0  0
 36 75  2  0  0  0  0
 37 60  1  0  0  0  0
 37 81  1  0  0  0  0
 38 53  1  0  0  0  0
 38 72  1  0  0  0  0
 38 76  2  0  0  0  0
 39 61  1  0  0  0  0
 39 68  1  0  0  0  0
 39 77  2  0  0  0  0
 40 62  1  0  0  0  0
 40 73  1  0  0  0  0
 40 78  2  0  0  0  0
 41 65  1  0  0  0  0
 41 69  1  0  0  0  0
 41 79  2  0  0  0  0
 42 46  1  0  0  0  0
 43 53  1  0  0  0  0
 44 68  1  0  0  0  0
 46 48  1  0  0  0  0
 47 49  1  0  0  0  0
 47 50  1  0  0  0  0
 48 52  1  0  0  0  0
 49 54  1  0  0  0  0
 50 69  1  0  0  0  0
 51 54  1  0  0  0  0
 51 69  1  0  0  0  0
 52 72  1  0  0  0  0
 53 68  1  0  0  0  0
 54 67  1  0  0  0  0
 55 62  1  0  0  0  0
 56 63  1  0  0  0  0
 57 63  1  0  0  0  0
 58 63  1  0  0  0  0
 59 74  1  0  0  0  0
 60 66  1  0  0  0  0
 61 63  1  0  0  0  0
 61 73  1  0  0  0  0
 62 74  1  0  0  0  0
 64 67  1  0  0  0  0
M  CHG  1  74   1
M  ISO  4  37 101  41 100  65 100  81 101
M  END
> <Batch ID>
0083

> <Smiles>
C=[101C:1](Cn1c2ccc1C(F)=CC([100NH:0][100C:0](=O)N1CCCC(n3nc(-c4ccc(Oc5ccc(F)cc5F)cc4)c(C(N)=O)c3N)C1)=C2)[101O:1]c1ccc2c(c1)CN(C(=O)C(NC(=O)C(C)NC)C(C)(C)C)C(C(=O)NC1CCCc3ccccc31)C2

> <Shape>
0.264

> <Color>
0.067

> <Negative vol penalty>
0.000

$$$$

  -OEChem-04052300093D

 82 91  0     1  0  0  0  0  0999 V2000
  -32.1773  -33.7214   22.7877 C   0  0  0  0  0  0  0  0  0  0  0  0
  -31.7328  -32.6312   22.0466 C   0  0  0  0  0  0  0  0  0  0  0  0
  -24.7040   -8.6556   21.6926 C   0  0  0  0  0  0  0  0  0  0  0  0
  -22.9942  -10.0770   20.7475 C   0  0  0  0  0  0  0  0  0  0  0  0
  -31.5213  -34.0763   23.9657 C   0  0  0  0  0  0  0  0  0  0  0  0
  -30.6325  -31.8945   22.4838 C   0  0  0  0  0  0  0  0  0  0  0  0
  -26.3871  -29.1947   18.9918 C   0  0  0  0  0  0  0  0  0  0  0  0
  -23.7388   -8.0061   22.4621 C   0  0  0  0  0  0  0  0  0  0  0  0
  -22.0289   -9.4275   21.5169 C   0  0  0  0  0  0  0  0  0  0  0  0
  -26.2260  -27.8789   18.5600 C   0  0  0  0  0  0  0  0  0  0  0  0
  -21.3786   -5.6276   22.0094 C   0  0  0  0  0  0  0  0  0  0  0  0
  -21.4224   -4.2345   22.0636 C   0  0  0  0  0  0  0  0  0  0  0  0
  -24.7160  -27.4678   20.3958 C   0  0  0  0  0  0  0  0  0  0  0  0
  -26.5455  -19.2072   19.2605 C   0  0  0  0  0  0  0  0  0  0  0  0
  -21.7159   -4.3370   24.4595 C   0  0  0  0  0  0  0  0  0  0  0  0
  -24.6389  -18.0256   18.6514 C   0  0  0  0  0  0  0  0  0  0  0  0
  -24.3317   -9.6910   20.8353 C   0  0  0  0  0  0  0  0  0  0  0  0
  -25.7571  -10.0172   18.7450 C   0  0  0  0  0  0  0  0  0  0  0  0
  -30.4065  -33.3495   24.4124 C   0  0  0  0  0  0  0  0  0  0  0  0
  -25.7213  -29.6546   20.1370 C   0  0  0  0  0  0  0  0  0  0  0  0
  -29.9618  -32.2392   23.6695 C   0  0  0  0  0  0  0  0  0  0  0  0
  -24.8684  -28.7906   20.8386 C   0  0  0  0  0  0  0  0  0  0  0  0
  -25.8885  -17.9434   19.2252 C   0  0  0  0  0  0  0  0  0  0  0  0
  -22.4012   -8.3921   22.3743 C   0  0  0  0  0  0  0  0  0  0  0  0
  -25.3926  -27.0144   19.2637 C   0  0  0  0  0  0  0  0  0  0  0  0
  -21.5035   -6.3754   23.1802 C   0  0  0  0  0  0  0  0  0  0  0  0
  -21.5910   -3.5892   23.2886 C   0  0  0  0  0  0  0  0  0  0  0  0
  -21.6722   -5.7301   24.4053 C   0  0  0  0  0  0  0  0  0  0  0  0
  -25.3284  -10.3627   20.0406 C   0  0  0  0  0  0  0  0  0  0  0  0
  -26.7089  -10.9580   18.4359 C   0  0  0  0  0  0  0  0  0  0  0  0
  -25.7729  -20.2073   18.7120 C   0  0  0  0  0  0  0  0  0  0  0  0
  -26.0272  -23.4839   18.9897 C   0  0  0  0  0  0  0  0  0  0  0  0
  -26.7993  -22.2956   19.3549 C   0  0  0  0  0  0  0  0  0  0  0  0
  -26.0903  -24.7830   19.3335 C   0  0  0  0  0  0  0  0  0  1  0  0
  -25.3328   -8.9420   17.8966 C   0  0  0  0  0  0  0  0  0  0  0  0
  -26.6384  -30.7875   22.9618 C   0  0  0  0  0  0  0  0  0  0  0  0
  -23.4605  -31.3121   23.3463 C   0  0  0  0  0  0  0  0  0  0  0  0
  -20.2631  -30.4928   22.4791 C   0  0  0  0  0  0  0  0  0  0  0  0
  -27.6833  -16.5475   20.3100 C   0  0  0  0  0  0  0  0  0  0  0  0
  -29.7590  -33.7422   25.7166 C   0  0  0  0  0  0  0  0  0  0  0  0
  -25.8849  -31.0845   20.5743 C   0  0  0  0  0  0  0  0  0  0  0  0
  -24.1152  -29.2411   22.0626 C   0  0  0  0  0  0  0  0  0  0  0  0
  -25.1658  -22.6173   18.0999 C   0  0  0  0  0  0  0  0  0  0  0  0
  -28.3713  -33.1376   25.9141 C   0  0  0  0  0  0  0  0  0  0  0  0
  -29.9573  -13.8139   20.4916 C   0  0  0  0  0  0  0  0  0  0  0  0
  -28.3821  -31.6520   25.5684 C   0  0  0  0  0  0  0  0  0  0  0  0
  -29.0683  -12.5876   20.2726 C   0  0  0  0  0  0  0  0  0  0  0  0
  -29.2456  -14.8921   21.3068 C   0  0  0  0  0  0  0  0  0  0  0  0
  -27.0432  -14.0700   20.5700 C   0  0  0  0  0  0  0  0  0  0  0  0
  -28.7566  -31.4304   24.0980 C   0  0  1  0  0  0  0  0  0  0  0  0
  -25.5598  -31.2991   22.0493 C   0  0  1  0  0  0  0  0  0  0  0  0
  -27.6938  -12.9833   19.6984 C   0  0  2  0  0  0  0  0  0  0  0  0
  -17.8745  -31.0680   22.9902 C   0  0  0  0  0  0  0  0  0  0  0  0
  -23.6460  -29.7493   25.9603 C   0  0  0  0  0  0  0  0  0  0  0  0
  -21.1513  -29.5400   25.9312 C   0  0  0  0  0  0  0  0  0  0  0  0
  -22.2105  -31.7944   26.0671 C   0  0  0  0  0  0  0  0  0  0  0  0
  -19.7520  -31.3503   19.6930 C   0  0  0  0  0  0  0  0  0  0  0  0
  -22.3028  -30.5107   23.8909 C   0  0  1  0  0  0  0  0  0  0  0  0
  -19.0716  -31.3520   22.0963 C   0  0  2  0  0  0  0  0  0  0  0  0
  -22.3432  -30.3892   25.4405 C   0  0  0  0  0  0  0  0  0  0  0  0
  -25.9565  -11.4389   20.5216 N   0  0  0  0  0  0  0  0  0  0  0  0
  -26.7895  -11.7777   19.5230 N   0  0  0  0  0  0  0  0  0  0  0  0
  -26.0190  -21.5320   18.5506 N   0  0  0  0  0  0  0  0  0  0  0  0
  -24.3130  -30.6465   22.4541 N   0  0  0  0  0  0  0  0  0  0  0  0
  -27.9529  -15.2189   20.7010 N   0  0  0  0  0  0  0  0  0  0  0  0
  -27.4763  -11.1557   17.3431 N   0  0  0  0  0  0  0  0  0  0  0  0
  -24.3452   -8.0674   18.3698 N   0  0  0  0  0  0  0  0  0  0  0  0
  -26.4352  -16.7317   19.7160 N   0  0  0  0  0  0  0  0  0  0  0  0
  -27.6258  -31.7133   23.2403 N   0  0  0  0  0  0  0  0  0  0  0  0
  -21.0922  -31.1380   23.3721 N   0  0  0  0  0  0  0  0  0  0  0  0
  -18.6761  -31.0894   20.6836 N   0  3  0  0  0  0  0  0  0  0  0  0
  -27.7047  -22.0696   20.1309 O   0  0  0  0  0  0  0  0  0  0  0  0
  -25.8270   -8.7524   16.7593 O   0  0  0  0  0  0  0  0  0  0  0  0
  -26.5785  -29.6383   23.3832 O   0  0  0  0  0  0  0  0  0  0  0  0
  -23.5990  -32.4875   23.6939 O   0  0  0  0  0  0  0  0  0  0  0  0
  -20.4386  -29.3609   22.0336 O   0  0  0  0  0  0  0  0  0  0  0  0
  -28.5103  -17.4499   20.4641 O   0  0  0  0  0  0  0  0  0  0  0  0
  -21.4591   -7.7584   23.1248 O   0  0  0  0  0  0  0  0  0  0  0  0
  -25.2340  -25.7294   18.8448 O   0  0  0  0  0  0  0  0  0  1  0  0
  -21.6315   -2.2513   23.3407 F   0  0  0  0  0  0  0  0  0  0  0  0
  -21.7915   -6.4431   25.5336 F   0  0  0  0  0  0  0  0  0  0  0  0
  -24.2622  -19.6216   18.1581 S   0  0  0  0  0  0  0  0  0  0  0  0
  1  2  1  0  0  0  0
  1  5  2  0  0  0  0
  2  6  2  0  0  0  0
  3  8  2  0  0  0  0
  3 17  1  0  0  0  0
  4  9  1  0  0  0  0
  4 17  2  0  0  0  0
  5 19  1  0  0  0  0
  6 21  1  0  0  0  0
  7 10  2  0  0  0  0
  7 20  1  0  0  0  0
  8 24  1  0  0  0  0
  9 24  2  0  0  0  0
 10 25  1  0  0  0  0
 11 12  2  0  0  0  0
 11 26  1  0  0  0  0
 12 27  1  0  0  0  0
 13 22  1  0  0  0  0
 13 25  2  0  0  0  0
 14 23  1  0  0  0  0
 14 31  2  0  0  0  0
 15 27  2  0  0  0  0
 15 28  1  0  0  0  0
 16 23  2  0  0  0  0
 16 82  1  0  0  0  0
 17 29  1  0  0  0  0
 18 29  1  0  0  0  0
 18 30  2  0  0  0  0
 18 35  1  0  0  0  0
 19 21  2  0  0  0  0
 19 40  1  0  0  0  0
 20 22  2  0  0  0  0
 20 41  1  0  0  0  0
 21 50  1  0  0  0  0
 22 42  1  0  0  0  0
 23 68  1  0  0  0  0
 24 78  1  0  0  0  0
 25 79  1  0  0  0  0
 26 28  2  0  0  0  0
 26 78  1  0  0  0  0
 27 80  1  0  0  0  0
 28 81  1  0  0  0  0
 29 61  2  0  0  0  0
 30 62  1  0  0  0  0
 30 66  1  0  0  0  0
 31 63  1  0  0  0  0
 31 82  1  0  0  0  0
 32 33  1  0  0  0  0
 32 34  2  0  0  0  0
 32 43  1  0  0  0  0
 33 63  1  0  0  0  0
 33 72  2  0  0  0  0
 34 79  1  0  0  0  0
 35 67  1  0  0  0  0
 35 73  2  0  0  0  0
 36 51  1  0  0  0  0
 36 69  1  0  0  0  0
 36 74  2  0  0  0  0
 37 58  1  0  0  0  0
 37 64  1  0  0  0  0
 37 75  2  0  0  0  0
 38 59  1  0  0  0  0
 38 70  1  0  0  0  0
 38 76  2  0  0  0  0
 39 65  1  0  0  0  0
 39 68  1  0  0  0  0
 39 77  2  0  0  0  0
 40 44  1  0  0  0  0
 41 51  1  0  0  0  0
 42 64  1  0  0  0  0
 43 63  1  0  0  0  0
 44 46  1  0  0  0  0
 45 47  1  0  0  0  0
 45 48  1  0  0  0  0
 46 50  1  0  0  0  0
 47 52  1  0  0  0  0
 48 65  1  0  0  0  0
 49 52  1  0  0  0  0
 49 65  1  0  0  0  0
 50 69  1  0  0  0  0
 51 64  1  0  0  0  0
 52 62  1  0  0  0  0
 53 59  1  0  0  0  0
 54 60  1  0  0  0  0
 55 60  1  0  0  0  0
 56 60  1  0  0  0  0
 57 71  1  0  0  0  0
 58 60  1  0  0  0  0
 58 70  1  0  0  0  0
 59 71  1  0  0  0  0
 61 62  1  0  0  0  0
M  CHG  1  71   1
M  ISO  4  34 101  39 100  68 100  79 101
M  END
> <Batch ID>
0083

> <Smiles>
CNC(C)C(=O)NC(C(=O)N1Cc2cc([101O:1][101CH:1]=C3CN(c4cc([100NH:0][100C:0](=O)N5CCCC(n6nc(-c7ccc(Oc8ccc(F)cc8F)cc7)c(C(N)=O)c6N)C5)cs4)C3=O)ccc2CC1C(=O)NC1CCCc2ccccc21)C(C)(C)C

> <Shape>
0.252

> <Color>
0.099

> <Negative vol penalty>
0.000

$$$$

  -OEChem-04052300093D

 85 93  0     1  0  0  0  0  0999 V2000
  -24.1572  -28.1408   20.1958 C   0  0  0  0  0  0  0  0  0  0  0  0
  -24.7764  -26.8964   20.1360 C   0  0  0  0  0  0  0  0  0  0  0  0
  -30.9589  -17.8937   24.0946 C   0  0  0  0  0  0  0  0  0  0  0  0
  -22.9446  -10.0249   19.9602 C   0  0  0  0  0  0  0  0  0  0  0  0
  -23.7791   -9.9024   22.2242 C   0  0  0  0  0  0  0  0  0  0  0  0
  -24.9124  -29.3022   20.0379 C   0  0  0  0  0  0  0  0  0  0  0  0
  -26.1510  -26.8127   19.9172 C   0  0  0  0  0  0  0  0  0  0  0  0
  -30.0020  -22.6556   22.2399 C   0  0  0  0  0  0  0  0  0  0  0  0
  -32.3477  -17.8245   24.2051 C   0  0  0  0  0  0  0  0  0  0  0  0
  -30.2906  -17.0798   23.1800 C   0  0  0  0  0  0  0  0  0  0  0  0
  -22.1419   -8.9088   20.1956 C   0  0  0  0  0  0  0  0  0  0  0  0
  -22.9763   -8.7862   22.4597 C   0  0  0  0  0  0  0  0  0  0  0  0
  -30.5440  -21.4829   21.7156 C   0  0  0  0  0  0  0  0  0  0  0  0
  -19.2010   -8.2328   21.7211 C   0  0  0  0  0  0  0  0  0  0  0  0
  -17.8783   -8.2811   21.2808 C   0  0  0  0  0  0  0  0  0  0  0  0
  -32.5281  -22.6947   21.0723 C   0  0  0  0  0  0  0  0  0  0  0  0
  -32.3998  -16.1275   22.4861 C   0  0  0  0  0  0  0  0  0  0  0  0
  -18.2768   -6.3590   19.8724 C   0  0  0  0  0  0  0  0  0  0  0  0
  -23.7633  -10.5217   20.9744 C   0  0  0  0  0  0  0  0  0  0  0  0
  -24.2512  -13.0252   20.9310 C   0  0  0  0  0  0  0  0  0  0  0  0
  -26.2985  -29.2329   19.8267 C   0  0  0  0  0  0  0  0  0  0  0  0
  -30.7156  -23.8609   22.1744 C   0  0  0  0  0  0  0  0  0  0  0  0
  -26.9252  -27.9742   19.7550 C   0  0  0  0  0  0  0  0  0  0  0  0
  -31.9941  -23.8808   21.5988 C   0  0  0  0  0  0  0  0  0  0  0  0
  -33.0681  -16.9414   23.4008 C   0  0  0  0  0  0  0  0  0  0  0  0
  -31.0110  -16.1967   22.3757 C   0  0  0  0  0  0  0  0  0  0  0  0
  -22.1576   -8.2894   21.4453 C   0  0  0  0  0  0  0  0  0  0  0  0
  -31.8060  -21.5030   21.1291 C   0  0  0  0  0  0  0  0  0  0  0  0
  -20.0616   -7.2476   21.2369 C   0  0  0  0  0  0  0  0  0  0  0  0
  -17.4162   -7.3442   20.3565 C   0  0  0  0  0  0  0  0  0  0  0  0
  -19.5995   -6.3107   20.3126 C   0  0  0  0  0  0  0  0  0  0  0  0
  -24.5932  -11.6742   20.7317 C   0  0  0  0  0  0  0  0  0  0  0  0
  -25.3736  -13.7225   20.5560 C   0  0  0  0  0  0  0  0  0  0  0  0
  -33.5171  -19.9084   21.1370 C   0  0  0  0  0  0  0  0  0  1  0  0
  -34.1189  -18.8005   20.7046 C   0  0  0  0  0  0  0  0  0  0  0  0
  -23.0284  -13.5986   21.4123 C   0  0  0  0  0  0  0  0  0  0  0  0
  -30.2263  -26.6858   20.8016 C   0  0  0  0  0  0  0  0  0  0  0  0
  -32.9181  -27.5007   22.4180 C   0  0  0  0  0  0  0  0  0  0  0  0
  -35.8172  -26.4948   23.9114 C   0  0  0  0  0  0  0  0  0  0  0  0
  -30.8952  -14.4392   20.5746 C   0  0  0  0  0  0  0  0  0  0  0  0
  -27.0653  -30.5141   19.6145 C   0  0  0  0  0  0  0  0  0  0  0  0
  -30.1282  -25.1117   22.7685 C   0  0  0  0  0  0  0  0  0  0  0  0
  -32.8095  -25.1447   21.5218 C   0  0  0  0  0  0  0  0  0  0  0  0
  -28.5761  -30.3509   19.7599 C   0  0  0  0  0  0  0  0  0  0  0  0
  -29.5608  -12.1842   18.1639 C   0  0  0  0  0  0  0  0  0  0  0  0
  -29.0568  -29.1234   18.9926 C   0  0  0  0  0  0  0  0  0  0  0  0
  -28.1213  -11.9617   18.6334 C   0  0  0  0  0  0  0  0  0  0  0  0
  -30.5272  -12.3144   19.3398 C   0  0  0  0  0  0  0  0  0  0  0  0
  -28.7137  -13.0975   20.8120 C   0  0  0  0  0  0  0  0  0  0  0  0
  -28.4180  -27.8430   19.5440 C   0  0  1  0  0  0  0  0  0  0  0  0
  -30.7276  -26.3882   22.1865 C   0  0  1  0  0  0  0  0  0  0  0  0
  -27.6938  -13.0252   19.6638 C   0  0  2  0  0  0  0  0  0  0  0  0
  -35.0298  -16.4524   24.9190 C   0  0  0  0  0  0  0  0  0  0  0  0
  -37.8292  -27.3933   25.1123 C   0  0  0  0  0  0  0  0  0  0  0  0
  -34.0738  -28.4571   19.7610 C   0  0  0  0  0  0  0  0  0  0  0  0
  -36.3416  -28.4425   20.8219 C   0  0  0  0  0  0  0  0  0  0  0  0
  -34.5616  -29.9488   21.7081 C   0  0  0  0  0  0  0  0  0  0  0  0
  -35.1783  -24.9686   26.3653 C   0  0  0  0  0  0  0  0  0  0  0  0
  -34.5750  -16.8667   23.5211 C   0  0  2  0  0  0  0  0  0  0  0  0
  -34.3975  -27.4598   22.1204 C   0  0  1  0  0  0  0  0  0  0  0  0
  -36.4240  -26.8311   25.2617 C   0  0  2  0  0  0  0  0  0  0  0  0
  -34.8277  -28.5534   21.1024 C   0  0  0  0  0  0  0  0  0  0  0  0
  -25.8355  -11.5201   20.2660 N   0  0  0  0  0  0  0  0  0  0  0  0
  -26.2840  -12.7833   20.1695 N   0  0  0  0  0  0  0  0  0  0  0  0
  -32.1893  -26.3429   22.1109 N   0  0  0  0  0  0  0  0  0  0  0  0
  -30.0602  -13.3429   20.2719 N   0  0  0  0  0  0  0  0  0  0  0  0
  -25.6606  -15.0411   20.5224 N   0  0  0  0  0  0  0  0  0  0  0  0
  -21.9756  -12.7383   21.7529 N   0  0  0  0  0  0  0  0  0  0  0  0
  -30.3317  -15.3696   21.4472 N   0  0  0  0  0  0  0  0  0  0  0  0
  -29.0698  -27.4414   20.7722 N   0  0  0  0  0  0  0  0  0  0  0  0
  -35.0757  -27.5433   23.4094 N   0  0  0  0  0  0  0  0  0  0  0  0
  -35.2078  -18.1403   23.1250 N   0  0  0  0  0  0  0  0  0  0  0  0
  -36.4939  -25.6122   26.1162 N   0  3  0  0  0  0  0  0  0  0  0  0
  -22.8681  -14.8379   21.5210 O   0  0  0  0  0  0  0  0  0  0  0  0
  -30.8440  -26.2625   19.8315 O   0  0  0  0  0  0  0  0  0  0  0  0
  -32.4285  -28.5196   22.9115 O   0  0  0  0  0  0  0  0  0  0  0  0
  -35.9872  -25.4118   23.3558 O   0  0  0  0  0  0  0  0  0  0  0  0
  -32.0163  -14.5588   20.0737 O   0  0  0  0  0  0  0  0  0  0  0  0
  -36.0353  -17.0763   20.9305 O   0  0  0  0  0  0  0  0  0  0  0  0
  -36.5049  -19.5003   21.3856 O   0  0  0  0  0  0  0  0  0  0  0  0
  -21.3743   -7.2005   21.6755 O   0  0  0  0  0  0  0  0  0  0  0  0
  -32.3371  -20.3599   20.6161 O   0  0  0  0  0  0  0  0  0  1  0  0
  -16.1456   -7.3898   19.9350 F   0  0  0  0  0  0  0  0  0  0  0  0
  -20.4213   -5.3612   19.8448 F   0  0  0  0  0  0  0  0  0  0  0  0
  -35.5987  -18.3618   21.4595 S   0  0  0  0  0  0  0  0  0  0  0  0
  1  2  1  0  0  0  0
  1  6  2  0  0  0  0
  2  7  2  0  0  0  0
  3  9  2  0  0  0  0
  3 10  1  0  0  0  0
  4 11  2  0  0  0  0
  4 19  1  0  0  0  0
  5 12  1  0  0  0  0
  5 19  2  0  0  0  0
  6 21  1  0  0  0  0
  7 23  1  0  0  0  0
  8 13  2  0  0  0  0
  8 22  1  0  0  0  0
  9 25  1  0  0  0  0
 10 26  2  0  0  0  0
 11 27  1  0  0  0  0
 12 27  2  0  0  0  0
 13 28  1  0  0  0  0
 14 15  2  0  0  0  0
 14 29  1  0  0  0  0
 15 30  1  0  0  0  0
 16 24  1  0  0  0  0
 16 28  2  0  0  0  0
 17 25  2  0  0  0  0
 17 26  1  0  0  0  0
 18 30  2  0  0  0  0
 18 31  1  0  0  0  0
 19 32  1  0  0  0  0
 20 32  1  0  0  0  0
 20 33  2  0  0  0  0
 20 36  1  0  0  0  0
 21 23  2  0  0  0  0
 21 41  1  0  0  0  0
 22 24  2  0  0  0  0
 22 42  1  0  0  0  0
 23 50  1  0  0  0  0
 24 43  1  0  0  0  0
 25 59  1  0  0  0  0
 26 69  1  0  0  0  0
 27 81  1  0  0  0  0
 28 82  1  0  0  0  0
 29 31  2  0  0  0  0
 29 81  1  0  0  0  0
 30 83  1  0  0  0  0
 31 84  1  0  0  0  0
 32 63  2  0  0  0  0
 33 64  1  0  0  0  0
 33 67  1  0  0  0  0
 34 35  2  0  0  0  0
 34 82  1  0  0  0  0
 35 85  1  0  0  0  0
 36 68  1  0  0  0  0
 36 74  2  0  0  0  0
 37 51  1  0  0  0  0
 37 70  1  0  0  0  0
 37 75  2  0  0  0  0
 38 60  1  0  0  0  0
 38 65  1  0  0  0  0
 38 76  2  0  0  0  0
 39 61  1  0  0  0  0
 39 71  1  0  0  0  0
 39 77  2  0  0  0  0
 40 66  1  0  0  0  0
 40 69  1  0  0  0  0
 40 78  2  0  0  0  0
 41 44  1  0  0  0  0
 42 51  1  0  0  0  0
 43 65  1  0  0  0  0
 44 46  1  0  0  0  0
 45 47  1  0  0  0  0
 45 48  1  0  0  0  0
 46 50  1  0  0  0  0
 47 52  1  0  0  0  0
 48 66  1  0  0  0  0
 49 52  1  0  0  0  0
 49 66  1  0  0  0  0
 50 70  1  0  0  0  0
 51 65  1  0  0  0  0
 52 64  1  0  0  0  0
 53 59  1  0  0  0  0
 54 61  1  0  0  0  0
 55 62  1  0  0  0  0
 56 62  1  0  0  0  0
 57 62  1  0  0  0  0
 58 73  1  0  0  0  0
 59 72  1  0  0  0  0
 60 62  1  0  0  0  0
 60 71  1  0  0  0  0
 61 73  1  0  0  0  0
 63 64  1  0  0  0  0
 72 85  1  0  0  0  0
 79 85  2  0  0  0  0
 80 85  2  0  0  0  0
M  CHG  1  73   1
M  ISO  4  34 101  40 100  69 100  82 101
M  END
> <Batch ID>
0083

> <Smiles>
CNC(C)C(=O)NC(C(=O)N1Cc2cc([101O:1][101CH:1]=CS(=O)(=O)NC(C)c3cccc([100NH:0][100C:0](=O)N4CCCC(n5nc(-c6ccc(Oc7ccc(F)cc7F)cc6)c(C(N)=O)c5N)C4)c3)ccc2CC1C(=O)NC1CCCc2ccccc21)C(C)(C)C

> <Shape>
0.220

> <Color>
0.205

> <Negative vol penalty>
0.000

$$$$

  -OEChem-04052300093D

 84 93  0     1  0  0  0  0  0999 V2000
  -30.0773  -33.9123   25.3837 C   0  0  0  0  0  0  0  0  0  0  0  0
  -30.0472  -32.6979   24.7057 C   0  0  0  0  0  0  0  0  0  0  0  0
  -24.6619   -9.2272   21.9585 C   0  0  0  0  0  0  0  0  0  0  0  0
  -23.2809  -10.0417   20.1511 C   0  0  0  0  0  0  0  0  0  0  0  0
  -28.9131  -34.4149   25.9633 C   0  0  0  0  0  0  0  0  0  0  0  0
  -28.8530  -31.9847   24.6080 C   0  0  0  0  0  0  0  0  0  0  0  0
  -26.9877  -28.5573   19.8878 C   0  0  0  0  0  0  0  0  0  0  0  0
  -23.5441   -8.6346   22.5456 C   0  0  0  0  0  0  0  0  0  0  0  0
  -22.1630   -9.4490   20.7383 C   0  0  0  0  0  0  0  0  0  0  0  0
  -27.0252  -27.1835   19.6536 C   0  0  0  0  0  0  0  0  0  0  0  0
  -21.6860   -5.8436   22.1087 C   0  0  0  0  0  0  0  0  0  0  0  0
  -21.8188   -4.5393   22.5849 C   0  0  0  0  0  0  0  0  0  0  0  0
  -24.7577  -26.9912   20.4542 C   0  0  0  0  0  0  0  0  0  0  0  0
  -25.5583  -19.0229   18.1665 C   0  0  0  0  0  0  0  0  0  0  0  0
  -23.7925  -19.6219   16.6303 C   0  0  0  0  0  0  0  0  0  0  0  0
  -24.5461  -17.3307   16.7705 C   0  0  0  0  0  0  0  0  0  0  0  0
  -21.2508   -5.2935   24.8088 C   0  0  0  0  0  0  0  0  0  0  0  0
  -24.5304   -9.9308   20.7612 C   0  0  0  0  0  0  0  0  0  0  0  0
  -26.5635   -9.9626   19.2208 C   0  0  0  0  0  0  0  0  0  0  0  0
  -27.7019  -33.7122   25.8643 C   0  0  0  0  0  0  0  0  0  0  0  0
  -25.8368  -29.1578   20.4181 C   0  0  0  0  0  0  0  0  0  0  0  0
  -27.6717  -32.4777   25.1879 C   0  0  0  0  0  0  0  0  0  0  0  0
  -24.7073  -28.3733   20.6919 C   0  0  0  0  0  0  0  0  0  0  0  0
  -24.7186  -19.9862   17.6077 C   0  0  0  0  0  0  0  0  0  0  0  0
  -25.4721  -17.6951   17.7479 C   0  0  0  0  0  0  0  0  0  0  0  0
  -22.2946   -8.7455   21.9356 C   0  0  0  0  0  0  0  0  0  0  0  0
  -25.9111  -26.3997   19.9395 C   0  0  0  0  0  0  0  0  0  0  0  0
  -21.3358   -6.8729   22.9826 C   0  0  0  0  0  0  0  0  0  0  0  0
  -21.6011   -4.2642   23.9350 C   0  0  0  0  0  0  0  0  0  0  0  0
  -23.7063  -18.2941   16.2117 C   0  0  0  0  0  0  0  0  0  0  0  0
  -21.1181   -6.5978   24.3326 C   0  0  0  0  0  0  0  0  0  0  0  0
  -25.6846  -10.5437   20.1545 C   0  0  0  0  0  0  0  0  0  0  0  0
  -27.4854  -10.9464   18.9587 C   0  0  0  0  0  0  0  0  0  0  0  0
  -24.9789  -23.2206   18.5373 C   0  0  0  0  0  0  0  0  0  0  0  0
  -24.1292  -22.4156   17.6589 C   0  0  0  0  0  0  0  0  0  0  0  0
  -25.0376  -24.5307   18.8376 C   0  0  0  0  0  0  0  0  0  1  0  0
  -26.5480   -8.6509   18.6422 C   0  0  0  0  0  0  0  0  0  0  0  0
  -25.1681  -30.7666   23.0768 C   0  0  0  0  0  0  0  0  0  0  0  0
  -22.2917  -31.1842   21.6365 C   0  0  0  0  0  0  0  0  0  0  0  0
  -20.0051  -30.0780   19.3573 C   0  0  0  0  0  0  0  0  0  0  0  0
  -27.2991  -16.9095   19.2943 C   0  0  0  0  0  0  0  0  0  0  0  0
  -26.4797  -34.2725   26.5476 C   0  0  0  0  0  0  0  0  0  0  0  0
  -25.8031  -30.6451   20.6400 C   0  0  0  0  0  0  0  0  0  0  0  0
  -23.4402  -28.9725   21.2432 C   0  0  0  0  0  0  0  0  0  0  0  0
  -25.7211  -21.9627   18.9266 C   0  0  0  0  0  0  0  0  0  0  0  0
  -25.1738  -33.6373   26.0770 C   0  0  0  0  0  0  0  0  0  0  0  0
  -29.5774  -14.7521   20.9773 C   0  0  0  0  0  0  0  0  0  0  0  0
  -25.3047  -32.1181   26.0326 C   0  0  0  0  0  0  0  0  0  0  0  0
  -28.9206  -13.3742   20.8670 C   0  0  0  0  0  0  0  0  0  0  0  0
  -28.5431  -15.8594   21.1718 C   0  0  0  0  0  0  0  0  0  0  0  0
  -26.8076  -14.5054   20.0654 C   0  0  0  0  0  0  0  0  0  0  0  0
  -26.3902  -31.6867   25.0391 C   0  0  1  0  0  0  0  0  0  0  0  0
  -24.7567  -31.0729   21.6644 C   0  0  1  0  0  0  0  0  0  0  0  0
  -27.8050  -13.3651   19.8036 C   0  0  2  0  0  0  0  0  0  0  0  0
  -17.7332  -30.6053   18.4311 C   0  0  0  0  0  0  0  0  0  0  0  0
  -21.0034  -30.0644   24.1656 C   0  0  0  0  0  0  0  0  0  0  0  0
  -18.8948  -29.7274   22.8585 C   0  0  0  0  0  0  0  0  0  0  0  0
  -19.8137  -32.0256   23.1693 C   0  0  0  0  0  0  0  0  0  0  0  0
  -21.0793  -30.4587   16.6260 C   0  0  0  0  0  0  0  0  0  0  0  0
  -20.9893  -30.4213   21.6085 C   0  0  1  0  0  0  0  0  0  0  0  0
  -19.2324  -30.8049   18.2715 C   0  0  2  0  0  0  0  0  0  0  0  0
  -20.1997  -30.5478   22.9419 C   0  0  0  0  0  0  0  0  0  0  0  0
  -26.0183  -11.7992   20.4647 N   0  0  0  0  0  0  0  0  0  0  0  0
  -27.1172  -12.0152   19.7218 N   0  0  0  0  0  0  0  0  0  0  0  0
  -24.8034  -21.2959   18.0200 N   0  0  0  0  0  0  0  0  0  0  0  0
  -23.4588  -30.4302   21.4489 N   0  0  0  0  0  0  0  0  0  0  0  0
  -27.5204  -15.7911   20.1256 N   0  0  0  0  0  0  0  0  0  0  0  0
  -28.5670  -10.9929   18.1522 N   0  0  0  0  0  0  0  0  0  0  0  0
  -25.5302   -7.7652   19.0218 N   0  0  0  0  0  0  0  0  0  0  0  0
  -26.3253  -16.7162   18.3150 N   0  0  0  0  0  0  0  0  0  0  0  0
  -25.8962  -31.7734   23.6816 N   0  0  0  0  0  0  0  0  0  0  0  0
  -20.2627  -30.8970   20.4363 N   0  0  0  0  0  0  0  0  0  0  0  0
  -19.6328  -30.3032   16.9265 N   0  3  0  0  0  0  0  0  0  0  0  0
  -23.2079  -22.6485   16.9043 O   0  0  0  0  0  0  0  0  0  0  0  0
  -27.4205   -8.2697   17.8255 O   0  0  0  0  0  0  0  0  0  0  0  0
  -24.8474  -29.6968   23.5810 O   0  0  0  0  0  0  0  0  0  0  0  0
  -22.2737  -32.4052   21.8110 O   0  0  0  0  0  0  0  0  0  0  0  0
  -20.3429  -28.9003   19.2598 O   0  0  0  0  0  0  0  0  0  0  0  0
  -27.9462  -17.9519   19.4229 O   0  0  0  0  0  0  0  0  0  0  0  0
  -21.2036   -8.1671   22.5081 O   0  0  0  0  0  0  0  0  0  0  0  0
  -25.9452  -25.0584   19.7125 O   0  0  0  0  0  0  0  0  0  1  0  0
  -21.7271   -3.0114   24.3918 F   0  0  0  0  0  0  0  0  0  0  0  0
  -22.8176  -17.9440   15.2726 F   0  0  0  0  0  0  0  0  0  0  0  0
  -20.7802   -7.5823   25.1767 F   0  0  0  0  0  0  0  0  0  0  0  0
  1  2  1  0  0  0  0
  1  5  2  0  0  0  0
  2  6  2  0  0  0  0
  3  8  2  0  0  0  0
  3 18  1  0  0  0  0
  4  9  1  0  0  0  0
  4 18  2  0  0  0  0
  5 20  1  0  0  0  0
  6 22  1  0  0  0  0
  7 10  2  0  0  0  0
  7 21  1  0  0  0  0
  8 26  1  0  0  0  0
  9 26  2  0  0  0  0
 10 27  1  0  0  0  0
 11 12  2  0  0  0  0
 11 28  1  0  0  0  0
 12 29  1  0  0  0  0
 13 23  1  0  0  0  0
 13 27  2  0  0  0  0
 14 24  2  0  0  0  0
 14 25  1  0  0  0  0
 15 24  1  0  0  0  0
 15 30  2  0  0  0  0
 16 25  2  0  0  0  0
 16 30  1  0  0  0  0
 17 29  2  0  0  0  0
 17 31  1  0  0  0  0
 18 32  1  0  0  0  0
 19 32  1  0  0  0  0
 19 33  2  0  0  0  0
 19 37  1  0  0  0  0
 20 22  2  0  0  0  0
 20 42  1  0  0  0  0
 21 23  2  0  0  0  0
 21 43  1  0  0  0  0
 22 52  1  0  0  0  0
 23 44  1  0  0  0  0
 24 65  1  0  0  0  0
 25 70  1  0  0  0  0
 26 80  1  0  0  0  0
 27 81  1  0  0  0  0
 28 31  2  0  0  0  0
 28 80  1  0  0  0  0
 29 82  1  0  0  0  0
 30 83  1  0  0  0  0
 31 84  1  0  0  0  0
 32 63  2  0  0  0  0
 33 64  1  0  0  0  0
 33 68  1  0  0  0  0
 34 35  1  0  0  0  0
 34 36  2  0  0  0  0
 34 45  1  0  0  0  0
 35 65  1  0  0  0  0
 35 74  2  0  0  0  0
 36 81  1  0  0  0  0
 37 69  1  0  0  0  0
 37 75  2  0  0  0  0
 38 53  1  0  0  0  0
 38 71  1  0  0  0  0
 38 76  2  0  0  0  0
 39 60  1  0  0  0  0
 39 66  1  0  0  0  0
 39 77  2  0  0  0  0
 40 61  1  0  0  0  0
 40 72  1  0  0  0  0
 40 78  2  0  0  0  0
 41 67  1  0  0  0  0
 41 70  1  0  0  0  0
 41 79  2  0  0  0  0
 42 46  1  0  0  0  0
 43 53  1  0  0  0  0
 44 66  1  0  0  0  0
 45 65  1  0  0  0  0
 46 48  1  0  0  0  0
 47 49  1  0  0  0  0
 47 50  1  0  0  0  0
 48 52  1  0  0  0  0
 49 54  1  0  0  0  0
 50 67  1  0  0  0  0
 51 54  1  0  0  0  0
 51 67  1  0  0  0  0
 52 71  1  0  0  0  0
 53 66  1  0  0  0  0
 54 64  1  0  0  0  0
 55 61  1  0  0  0  0
 56 62  1  0  0  0  0
 57 62  1  0  0  0  0
 58 62  1  0  0  0  0
 59 73  1  0  0  0  0
 60 62  1  0  0  0  0
 60 72  1  0  0  0  0
 61 73  1  0  0  0  0
 63 64  1  0  0  0  0
M  CHG  1  73   1
M  ISO  4  36 101  41 100  70 100  81 101
M  END
> <Batch ID>
0083

> <Smiles>
CNC(C)C(=O)NC(C(=O)N1Cc2cc([101O:1][101CH:1]=C3CN(c4cc(F)cc([100NH:0][100C:0](=O)N5CCCC(n6nc(-c7ccc(Oc8ccc(F)cc8F)cc7)c(C(N)=O)c6N)C5)c4)C3=O)ccc2CC1C(=O)NC1CCCc2ccccc21)C(C)(C)C

> <Shape>
0.267

> <Color>
0.087

> <Negative vol penalty>
0.000

$$$$

  -OEChem-04052300093D

 85 94  0     1  0  0  0  0  0999 V2000
  -31.1452  -35.1915   21.1787 C   0  0  0  0  0  0  0  0  0  0  0  0
  -30.9271  -33.9049   20.6965 C   0  0  0  0  0  0  0  0  0  0  0  0
  -24.7817  -18.8369   17.6953 C   0  0  0  0  0  0  0  0  0  0  0  0
  -24.7509   -8.7863   21.5838 C   0  0  0  0  0  0  0  0  0  0  0  0
  -23.1968  -10.2559   20.4603 C   0  0  0  0  0  0  0  0  0  0  0  0
  -30.5527  -35.5965   22.3741 C   0  0  0  0  0  0  0  0  0  0  0  0
  -30.1171  -33.0222   21.4100 C   0  0  0  0  0  0  0  0  0  0  0  0
  -26.3824  -28.7587   19.0904 C   0  0  0  0  0  0  0  0  0  0  0  0
  -25.3558  -19.9913   18.2276 C   0  0  0  0  0  0  0  0  0  0  0  0
  -25.4395  -17.6125   17.8137 C   0  0  0  0  0  0  0  0  0  0  0  0
  -23.7296   -8.3526   22.4291 C   0  0  0  0  0  0  0  0  0  0  0  0
  -22.1755   -9.8221   21.3055 C   0  0  0  0  0  0  0  0  0  0  0  0
  -26.5297  -27.3853   18.9010 C   0  0  0  0  0  0  0  0  0  0  0  0
  -21.1154   -6.2130   22.2832 C   0  0  0  0  0  0  0  0  0  0  0  0
  -21.0057   -4.8423   22.5168 C   0  0  0  0  0  0  0  0  0  0  0  0
  -25.3953  -26.9816   20.9913 C   0  0  0  0  0  0  0  0  0  0  0  0
  -27.2453  -18.6971   18.9967 C   0  0  0  0  0  0  0  0  0  0  0  0
  -21.3391   -5.2184   24.8800 C   0  0  0  0  0  0  0  0  0  0  0  0
  -24.4845   -9.7381   20.5994 C   0  0  0  0  0  0  0  0  0  0  0  0
  -25.9105   -9.6324   18.4869 C   0  0  0  0  0  0  0  0  0  0  0  0
  -29.7273  -34.7214   23.0976 C   0  0  0  0  0  0  0  0  0  0  0  0
  -25.7490  -29.2550   20.2388 C   0  0  0  0  0  0  0  0  0  0  0  0
  -29.5141  -33.4154   22.6169 C   0  0  0  0  0  0  0  0  0  0  0  0
  -25.2389  -28.3616   21.1916 C   0  0  0  0  0  0  0  0  0  0  0  0
  -26.5876  -19.9214   18.8783 C   0  0  0  0  0  0  0  0  0  0  0  0
  -26.6713  -17.5426   18.4644 C   0  0  0  0  0  0  0  0  0  0  0  0
  -22.4419   -8.8704   22.2899 C   0  0  0  0  0  0  0  0  0  0  0  0
  -26.0387  -26.4966   19.8529 C   0  0  0  0  0  0  0  0  0  0  0  0
  -21.3371   -7.0865   23.3479 C   0  0  0  0  0  0  0  0  0  0  0  0
  -21.1175   -4.3450   23.8152 C   0  0  0  0  0  0  0  0  0  0  0  0
  -21.4489   -6.5892   24.6463 C   0  0  0  0  0  0  0  0  0  0  0  0
  -25.5391  -10.1870   19.7263 C   0  0  0  0  0  0  0  0  0  0  0  0
  -26.9564  -10.4139   18.0606 C   0  0  0  0  0  0  0  0  0  0  0  0
  -27.5508  -23.2510   20.0419 C   0  0  0  0  0  0  0  0  0  0  0  0
  -28.6823  -22.4877   20.5052 C   0  0  0  0  0  0  0  0  0  0  0  0
  -26.5850  -22.3543   19.3476 C   0  0  0  0  0  0  0  0  0  0  0  0
  -29.7591  -22.9198   21.1703 C   0  0  0  0  0  0  0  0  0  0  0  0
  -27.3071  -24.5560   20.1626 C   0  0  0  0  0  0  0  0  0  1  0  0
  -25.3593   -8.5110   17.7837 C   0  0  0  0  0  0  0  0  0  0  0  0
  -26.6384  -31.0959   22.6727 C   0  0  0  0  0  0  0  0  0  0  0  0
  -23.4978  -30.9009   23.4607 C   0  0  0  0  0  0  0  0  0  0  0  0
  -20.5572  -29.1828   23.2422 C   0  0  0  0  0  0  0  0  0  0  0  0
  -28.5664  -16.0545   19.1994 C   0  0  0  0  0  0  0  0  0  0  0  0
  -29.1467  -35.1887   24.4089 C   0  0  0  0  0  0  0  0  0  0  0  0
  -25.5743  -30.7385   20.4153 C   0  0  0  0  0  0  0  0  0  0  0  0
  -24.5330  -28.8429   22.4320 C   0  0  0  0  0  0  0  0  0  0  0  0
  -28.4462  -21.0635   20.1023 C   0  0  0  0  0  0  0  0  0  0  0  0
  -27.9999  -34.3162   24.9127 C   0  0  0  0  0  0  0  0  0  0  0  0
  -30.5266  -13.1309   19.7358 C   0  0  0  0  0  0  0  0  0  0  0  0
  -28.3666  -32.8393   24.8071 C   0  0  0  0  0  0  0  0  0  0  0  0
  -29.5047  -11.9932   19.6754 C   0  0  0  0  0  0  0  0  0  0  0  0
  -29.9488  -14.3773   20.4040 C   0  0  0  0  0  0  0  0  0  0  0  0
  -27.6598  -13.7175   19.7758 C   0  0  0  0  0  0  0  0  0  0  0  0
  -28.6218  -32.4370   23.3495 C   0  0  1  0  0  0  0  0  0  0  0  0
  -25.3688  -31.1470   21.8707 C   0  0  1  0  0  0  0  0  0  0  0  0
  -28.1751  -12.4624   19.0528 C   0  0  2  0  0  0  0  0  0  0  0  0
  -18.1731  -29.2509   24.0227 C   0  0  0  0  0  0  0  0  0  0  0  0
  -24.3789  -29.9604   26.2264 C   0  0  0  0  0  0  0  0  0  0  0  0
  -22.0418  -29.1530   26.6198 C   0  0  0  0  0  0  0  0  0  0  0  0
  -22.4728  -31.5794   26.2333 C   0  0  0  0  0  0  0  0  0  0  0  0
  -19.5325  -29.3407   20.4702 C   0  0  0  0  0  0  0  0  0  0  0  0
  -22.6619  -29.9634   24.2982 C   0  0  1  0  0  0  0  0  0  0  0  0
  -19.1456  -29.6389   22.9197 C   0  0  2  0  0  0  0  0  0  0  0  0
  -22.9038  -30.1547   25.8221 C   0  0  0  0  0  0  0  0  0  0  0  0
  -26.2883  -11.2394   20.0655 N   0  0  0  0  0  0  0  0  0  0  0  0
  -27.1410  -11.3523   19.0329 N   0  0  0  0  0  0  0  0  0  0  0  0
  -27.1593  -21.0732   19.4095 N   0  0  0  0  0  0  0  0  0  0  0  0
  -24.3926  -30.3026   22.5623 N   0  0  0  0  0  0  0  0  0  0  0  0
  -28.6925  -14.7654   19.7590 N   0  0  0  0  0  0  0  0  0  0  0  0
  -27.7271  -10.3830   16.9527 N   0  0  0  0  0  0  0  0  0  0  0  0
  -24.2871   -7.8198   18.3642 N   0  0  0  0  0  0  0  0  0  0  0  0
  -27.3388  -16.2986   18.5845 N   0  0  0  0  0  0  0  0  0  0  0  0
  -27.3689  -32.2684   22.6450 N   0  0  0  0  0  0  0  0  0  0  0  0
  -21.2785  -30.1681   23.8825 N   0  0  0  0  0  0  0  0  0  0  0  0
  -18.6807  -29.0226   21.6450 N   0  3  0  0  0  0  0  0  0  0  0  0
  -25.5276  -22.6934   18.8431 O   0  0  0  0  0  0  0  0  0  0  0  0
  -25.8149   -8.1232   16.6812 O   0  0  0  0  0  0  0  0  0  0  0  0
  -26.9326  -30.0691   23.2735 O   0  0  0  0  0  0  0  0  0  0  0  0
  -23.3567  -32.1191   23.5936 O   0  0  0  0  0  0  0  0  0  0  0  0
  -20.9766  -28.0630   22.9581 O   0  0  0  0  0  0  0  0  0  0  0  0
  -29.4900  -16.8715   19.2371 O   0  0  0  0  0  0  0  0  0  0  0  0
  -21.4451   -8.4472   23.1144 O   0  0  0  0  0  0  0  0  0  0  0  0
  -26.1817  -25.1556   19.6709 O   0  0  0  0  0  0  0  0  0  1  0  0
  -21.0105   -3.0288   24.0397 F   0  0  0  0  0  0  0  0  0  0  0  0
  -21.6607   -7.4235   25.6734 F   0  0  0  0  0  0  0  0  0  0  0  0
  1  2  1  0  0  0  0
  1  6  2  0  0  0  0
  2  7  2  0  0  0  0
  3  9  2  0  0  0  0
  3 10  1  0  0  0  0
  4 11  2  0  0  0  0
  4 19  1  0  0  0  0
  5 12  1  0  0  0  0
  5 19  2  0  0  0  0
  6 21  1  0  0  0  0
  7 23  1  0  0  0  0
  8 13  2  0  0  0  0
  8 22  1  0  0  0  0
  9 25  1  0  0  0  0
 10 26  2  0  0  0  0
 11 27  1  0  0  0  0
 12 27  2  0  0  0  0
 13 28  1  0  0  0  0
 14 15  2  0  0  0  0
 14 29  1  0  0  0  0
 15 30  1  0  0  0  0
 16 24  1  0  0  0  0
 16 28  2  0  0  0  0
 17 25  2  0  0  0  0
 17 26  1  0  0  0  0
 18 30  2  0  0  0  0
 18 31  1  0  0  0  0
 19 32  1  0  0  0  0
 20 32  1  0  0  0  0
 20 33  2  0  0  0  0
 20 39  1  0  0  0  0
 21 23  2  0  0  0  0
 21 44  1  0  0  0  0
 22 24  2  0  0  0  0
 22 45  1  0  0  0  0
 23 54  1  0  0  0  0
 24 46  1  0  0  0  0
 25 67  1  0  0  0  0
 26 72  1  0  0  0  0
 27 82  1  0  0  0  0
 28 83  1  0  0  0  0
 29 31  2  0  0  0  0
 29 82  1  0  0  0  0
 30 84  1  0  0  0  0
 31 85  1  0  0  0  0
 32 65  2  0  0  0  0
 33 66  1  0  0  0  0
 33 70  1  0  0  0  0
 34 35  1  0  0  0  0
 34 36  1  0  0  0  0
 34 38  2  0  0  0  0
 35 37  2  0  0  0  0
 35 47  1  0  0  0  0
 36 67  1  0  0  0  0
 36 76  2  0  0  0  0
 38 83  1  0  0  0  0
 39 71  1  0  0  0  0
 39 77  2  0  0  0  0
 40 55  1  0  0  0  0
 40 73  1  0  0  0  0
 40 78  2  0  0  0  0
 41 62  1  0  0  0  0
 41 68  1  0  0  0  0
 41 79  2  0  0  0  0
 42 63  1  0  0  0  0
 42 74  1  0  0  0  0
 42 80  2  0  0  0  0
 43 69  1  0  0  0  0
 43 72  1  0  0  0  0
 43 81  2  0  0  0  0
 44 48  1  0  0  0  0
 45 55  1  0  0  0  0
 46 68  1  0  0  0  0
 47 67  1  0  0  0  0
 48 50  1  0  0  0  0
 49 51  1  0  0  0  0
 49 52  1  0  0  0  0
 50 54  1  0  0  0  0
 51 56  1  0  0  0  0
 52 69  1  0  0  0  0
 53 56  1  0  0  0  0
 53 69  1  0  0  0  0
 54 73  1  0  0  0  0
 55 68  1  0  0  0  0
 56 66  1  0  0  0  0
 57 63  1  0  0  0  0
 58 64  1  0  0  0  0
 59 64  1  0  0  0  0
 60 64  1  0  0  0  0
 61 75  1  0  0  0  0
 62 64  1  0  0  0  0
 62 74  1  0  0  0  0
 63 75  1  0  0  0  0
 65 66  1  0  0  0  0
M  CHG  1  75   1
M  ISO  4  38 101  43 100  72 100  83 101
M  END
> <Batch ID>
0083

> <Smiles>
C=C1CN(c2cccc([100NH:0][100C:0](=O)N3CCCC(n4nc(-c5ccc(Oc6ccc(F)cc6F)cc5)c(C(N)=O)c4N)C3)c2)C(=O)C1=[101CH:1][101O:1]c1ccc2c(c1)CN(C(=O)C(NC(=O)C(C)NC)C(C)(C)C)C(C(=O)NC1CCCc3ccccc31)C2

> <Shape>
0.275

> <Color>
0.105

> <Negative vol penalty>
0.000

$$$$

  -OEChem-04052300093D

 81 89  0     1  0  0  0  0  0999 V2000
  -23.2274  -28.3068   15.8436 C   0  0  0  0  0  0  0  0  0  0  0  0
  -23.6147  -27.4586   16.8760 C   0  0  0  0  0  0  0  0  0  0  0  0
  -32.4055  -18.4844   21.9822 C   0  0  0  0  0  0  0  0  0  0  0  0
  -22.9984   -9.8963   19.9817 C   0  0  0  0  0  0  0  0  0  0  0  0
  -23.7239   -9.9459   22.2856 C   0  0  0  0  0  0  0  0  0  0  0  0
  -31.6239  -19.3306   22.7687 C   0  0  0  0  0  0  0  0  0  0  0  0
  -22.7682  -27.7735   14.6400 C   0  0  0  0  0  0  0  0  0  0  0  0
  -23.5420  -26.0765   16.7059 C   0  0  0  0  0  0  0  0  0  0  0  0
  -27.6841  -23.6924   18.3805 C   0  0  0  0  0  0  0  0  0  0  0  0
  -31.8939  -17.2590   21.5553 C   0  0  0  0  0  0  0  0  0  0  0  0
  -22.2307   -8.7626   20.2478 C   0  0  0  0  0  0  0  0  0  0  0  0
  -22.9561   -8.8122   22.5518 C   0  0  0  0  0  0  0  0  0  0  0  0
  -27.8004  -23.5094   19.7578 C   0  0  0  0  0  0  0  0  0  0  0  0
  -23.1967   -5.4731   22.0791 C   0  0  0  0  0  0  0  0  0  0  0  0
  -23.7832   -4.4551   22.8309 C   0  0  0  0  0  0  0  0  0  0  0  0
  -29.8190  -17.7259   22.7015 C   0  0  0  0  0  0  0  0  0  0  0  0
  -27.0395  -21.2333   19.5136 C   0  0  0  0  0  0  0  0  0  0  0  0
  -22.0597   -4.6995   24.5064 C   0  0  0  0  0  0  0  0  0  0  0  0
  -23.7451  -10.4879   21.0006 C   0  0  0  0  0  0  0  0  0  0  0  0
  -30.3307  -18.9514   23.1284 C   0  0  0  0  0  0  0  0  0  0  0  0
  -24.1332  -13.0031   20.8251 C   0  0  0  0  0  0  0  0  0  0  0  0
  -22.6989  -26.3841   14.4515 C   0  0  0  0  0  0  0  0  0  0  0  0
  -27.2334  -22.6488   17.5594 C   0  0  0  0  0  0  0  0  0  0  0  0
  -23.0802  -25.5241   15.4991 C   0  0  0  0  0  0  0  0  0  0  0  0
  -26.9207  -21.4048   18.1259 C   0  0  0  0  0  0  0  0  0  0  0  0
  -30.6007  -16.8797   21.9150 C   0  0  0  0  0  0  0  0  0  0  0  0
  -22.2095   -8.2205   21.5329 C   0  0  0  0  0  0  0  0  0  0  0  0
  -27.4753  -22.2807   20.3249 C   0  0  0  0  0  0  0  0  0  0  0  0
  -22.0417   -6.1044   22.5410 C   0  0  0  0  0  0  0  0  0  0  0  0
  -23.2147   -4.0683   24.0446 C   0  0  0  0  0  0  0  0  0  0  0  0
  -21.4732   -5.7176   23.7546 C   0  0  0  0  0  0  0  0  0  0  0  0
  -24.5388  -11.6587   20.7261 C   0  0  0  0  0  0  0  0  0  0  0  0
  -25.2437  -13.7245   20.4607 C   0  0  0  0  0  0  0  0  0  0  0  0
  -29.6036  -19.6819   25.2921 C   0  0  0  0  0  0  0  0  0  0  0  0
  -28.6162  -20.8701   23.4189 C   0  0  0  0  0  0  0  0  0  0  0  0
  -28.4354  -21.1268   22.1186 C   0  0  0  0  0  0  0  0  0  1  0  0
  -29.5037  -19.8488   23.9610 C   0  0  0  0  0  0  0  0  0  0  0  0
  -22.8659  -13.5508   21.2118 C   0  0  0  0  0  0  0  0  0  0  0  0
  -24.7366  -22.2241   15.6387 C   0  0  0  0  0  0  0  0  0  0  0  0
  -26.2736  -19.4667   14.8928 C   0  0  0  0  0  0  0  0  0  0  0  0
  -28.2030  -16.5339   15.7254 C   0  0  0  0  0  0  0  0  0  0  0  0
  -30.7243  -14.6795   20.6943 C   0  0  0  0  0  0  0  0  0  0  0  0
  -22.1512  -25.8545   13.1499 C   0  0  0  0  0  0  0  0  0  0  0  0
  -27.1389  -22.8539   16.0724 C   0  0  0  0  0  0  0  0  0  0  0  0
  -26.4517  -20.2462   17.2857 C   0  0  0  0  0  0  0  0  0  0  0  0
  -22.4586  -24.3777   12.9157 C   0  0  0  0  0  0  0  0  0  0  0  0
  -29.6030  -12.2284   18.3679 C   0  0  0  0  0  0  0  0  0  0  0  0
  -22.1612  -23.5648   14.1716 C   0  0  0  0  0  0  0  0  0  0  0  0
  -28.1522  -11.9723   18.7822 C   0  0  0  0  0  0  0  0  0  0  0  0
  -30.5039  -12.4705   19.5777 C   0  0  0  0  0  0  0  0  0  0  0  0
  -28.5896  -13.2612   20.9116 C   0  0  0  0  0  0  0  0  0  0  0  0
  -23.0392  -24.0193   15.3438 C   0  0  1  0  0  0  0  0  0  0  0  0
  -26.1789  -21.8809   15.3948 C   0  0  1  0  0  0  0  0  0  0  0  0
  -27.6316  -13.0762   19.7234 C   0  0  2  0  0  0  0  0  0  0  0  0
  -29.1349  -14.7234   14.2587 C   0  0  0  0  0  0  0  0  0  0  0  0
  -23.6897  -17.9906   15.5668 C   0  0  0  0  0  0  0  0  0  0  0  0
  -25.0124  -15.8676   15.6742 C   0  0  0  0  0  0  0  0  0  0  0  0
  -24.8756  -17.1430   13.5347 C   0  0  0  0  0  0  0  0  0  0  0  0
  -30.9478  -16.9586   16.7474 C   0  0  0  0  0  0  0  0  0  0  0  0
  -26.2674  -18.0584   15.4366 C   0  0  1  0  0  0  0  0  0  0  0  0
  -29.4321  -16.0182   14.9990 C   0  0  2  0  0  0  0  0  0  0  0  0
  -24.9682  -17.2872   15.0694 C   0  0  0  0  0  0  0  0  0  0  0  0
  -25.8079  -11.5309   20.3298 N   0  0  0  0  0  0  0  0  0  0  0  0
  -26.2093  -12.8042   20.1764 N   0  0  0  0  0  0  0  0  0  0  0  0
  -26.3696  -20.4982   15.8375 N   0  0  0  0  0  0  0  0  0  0  0  0
  -29.9502  -13.5319   20.4213 N   0  0  0  0  0  0  0  0  0  0  0  0
  -25.4786  -15.0500   20.3589 N   0  0  0  0  0  0  0  0  0  0  0  0
  -21.8331  -12.6678   21.5553 N   0  0  0  0  0  0  0  0  0  0  0  0
  -30.0811  -15.6352   21.4801 N   0  0  0  0  0  0  0  0  0  0  0  0
  -24.3783  -23.4874   15.2083 N   0  0  0  0  0  0  0  0  0  0  0  0
  -27.4922  -17.4293   14.9546 N   0  0  0  0  0  0  0  0  0  0  0  0
  -30.5368  -15.7636   15.9663 N   0  3  0  0  0  0  0  0  0  0  0  0
  -22.6505  -14.7864   21.2359 O   0  0  0  0  0  0  0  0  0  0  0  0
  -24.0027  -21.4030   16.1762 O   0  0  0  0  0  0  0  0  0  0  0  0
  -26.2034  -19.6447   13.6741 O   0  0  0  0  0  0  0  0  0  0  0  0
  -27.9014  -16.1752   16.8616 O   0  0  0  0  0  0  0  0  0  0  0  0
  -31.8630  -14.8173   20.2402 O   0  0  0  0  0  0  0  0  0  0  0  0
  -21.4602   -7.1144   21.7930 O   0  0  0  0  0  0  0  0  0  0  0  0
  -27.5873  -22.0996   21.6689 O   0  0  0  0  0  0  0  0  0  1  0  0
  -23.7771   -3.0896   24.7657 F   0  0  0  0  0  0  0  0  0  0  0  0
  -20.3631   -6.3196   24.2028 F   0  0  0  0  0  0  0  0  0  0  0  0
  1  2  1  0  0  0  0
  1  7  2  0  0  0  0
  2  8  2  0  0  0  0
  3  6  2  0  0  0  0
  3 10  1  0  0  0  0
  4 11  2  0  0  0  0
  4 19  1  0  0  0  0
  5 12  1  0  0  0  0
  5 19  2  0  0  0  0
  6 20  1  0  0  0  0
  7 22  1  0  0  0  0
  8 24  1  0  0  0  0
  9 13  2  0  0  0  0
  9 23  1  0  0  0  0
 10 26  2  0  0  0  0
 11 27  1  0  0  0  0
 12 27  2  0  0  0  0
 13 28  1  0  0  0  0
 14 15  2  0  0  0  0
 14 29  1  0  0  0  0
 15 30  1  0  0  0  0
 16 20  2  0  0  0  0
 16 26  1  0  0  0  0
 17 25  1  0  0  0  0
 17 28  2  0  0  0  0
 18 30  2  0  0  0  0
 18 31  1  0  0  0  0
 19 32  1  0  0  0  0
 20 37  1  0  0  0  0
 21 32  1  0  0  0  0
 21 33  2  0  0  0  0
 21 38  1  0  0  0  0
 22 24  2  0  0  0  0
 22 43  1  0  0  0  0
 23 25  2  0  0  0  0
 23 44  1  0  0  0  0
 24 52  1  0  0  0  0
 25 45  1  0  0  0  0
 26 69  1  0  0  0  0
 27 78  1  0  0  0  0
 28 79  1  0  0  0  0
 29 31  2  0  0  0  0
 29 78  1  0  0  0  0
 30 80  1  0  0  0  0
 31 81  1  0  0  0  0
 32 63  2  0  0  0  0
 33 64  1  0  0  0  0
 33 67  1  0  0  0  0
 34 37  2  0  0  0  0
 35 36  2  0  0  0  0
 35 37  1  0  0  0  0
 36 79  1  0  0  0  0
 38 68  1  0  0  0  0
 38 73  2  0  0  0  0
 39 53  1  0  0  0  0
 39 70  1  0  0  0  0
 39 74  2  0  0  0  0
 40 60  1  0  0  0  0
 40 65  1  0  0  0  0
 40 75  2  0  0  0  0
 41 61  1  0  0  0  0
 41 71  1  0  0  0  0
 41 76  2  0  0  0  0
 42 66  1  0  0  0  0
 42 69  1  0  0  0  0
 42 77  2  0  0  0  0
 43 46  1  0  0  0  0
 44 53  1  0  0  0  0
 45 65  1  0  0  0  0
 46 48  1  0  0  0  0
 47 49  1  0  0  0  0
 47 50  1  0  0  0  0
 48 52  1  0  0  0  0
 49 54  1  0  0  0  0
 50 66  1  0  0  0  0
 51 54  1  0  0  0  0
 51 66  1  0  0  0  0
 52 70  1  0  0  0  0
 53 65  1  0  0  0  0
 54 64  1  0  0  0  0
 55 61  1  0  0  0  0
 56 62  1  0  0  0  0
 57 62  1  0  0  0  0
 58 62  1  0  0  0  0
 59 72  1  0  0  0  0
 60 62  1  0  0  0  0
 60 71  1  0  0  0  0
 61 72  1  0  0  0  0
 63 64  1  0  0  0  0
M  CHG  1  72   1
M  ISO  4  36 101  42 100  69 100  79 101
M  END
> <Batch ID>
0083

> <Smiles>
C=C(C=[101CH:1][101O:1]c1ccc2c(c1)CN(C(=O)C(NC(=O)C(C)NC)C(C)(C)C)C(C(=O)NC1CCCc3ccccc31)C2)c1cccc([100NH:0][100C:0](=O)N2CCCC(n3nc(-c4ccc(Oc5ccc(F)cc5F)cc4)c(C(N)=O)c3N)C2)c1

> <Shape>
0.200

> <Color>
0.202

> <Negative vol penalty>
0.000

$$$$

  -OEChem-04052300093D

 88 97  0     1  0  0  0  0  0999 V2000
  -29.9872  -36.1416   19.0611 C   0  0  0  0  0  0  0  0  0  0  0  0
  -30.2131  -34.7690   19.0784 C   0  0  0  0  0  0  0  0  0  0  0  0
  -23.3910   -9.7217   19.9084 C   0  0  0  0  0  0  0  0  0  0  0  0
  -23.9970   -9.8636   22.2428 C   0  0  0  0  0  0  0  0  0  0  0  0
  -29.0661  -36.7065   19.9423 C   0  0  0  0  0  0  0  0  0  0  0  0
  -29.5187  -33.9605   19.9777 C   0  0  0  0  0  0  0  0  0  0  0  0
  -27.5855  -28.2259   19.0382 C   0  0  0  0  0  0  0  0  0  0  0  0
  -29.7480  -19.7917   21.2068 C   0  0  0  0  0  0  0  0  0  0  0  0
  -29.6694  -18.4015   21.1249 C   0  0  0  0  0  0  0  0  0  0  0  0
  -22.7761   -8.4919   20.1427 C   0  0  0  0  0  0  0  0  0  0  0  0
  -23.3820   -8.6337   22.4772 C   0  0  0  0  0  0  0  0  0  0  0  0
  -28.1143  -26.9870   19.3979 C   0  0  0  0  0  0  0  0  0  0  0  0
  -20.2407   -7.4624   22.9025 C   0  0  0  0  0  0  0  0  0  0  0  0
  -19.4210   -7.3530   24.0257 C   0  0  0  0  0  0  0  0  0  0  0  0
  -26.6933  -26.9533   21.3470 C   0  0  0  0  0  0  0  0  0  0  0  0
  -30.6500  -18.2164   23.3252 C   0  0  0  0  0  0  0  0  0  0  0  0
  -20.8359   -5.5942   24.8871 C   0  0  0  0  0  0  0  0  0  0  0  0
  -24.0015  -10.4076   20.9584 C   0  0  0  0  0  0  0  0  0  0  0  0
  -24.0456  -12.9529   20.7932 C   0  0  0  0  0  0  0  0  0  0  0  0
  -28.3530  -35.9033   20.8462 C   0  0  0  0  0  0  0  0  0  0  0  0
  -26.6129  -28.8438   19.8373 C   0  0  0  0  0  0  0  0  0  0  0  0
  -28.5882  -34.5154   20.8727 C   0  0  0  0  0  0  0  0  0  0  0  0
  -26.1519  -28.1988   20.9938 C   0  0  0  0  0  0  0  0  0  0  0  0
  -30.2777  -20.3943   22.3479 C   0  0  0  0  0  0  0  0  0  0  0  0
  -30.1204  -17.6138   22.1841 C   0  0  0  0  0  0  0  0  0  0  0  0
  -22.7715   -7.9479   21.4271 C   0  0  0  0  0  0  0  0  0  0  0  0
  -27.6702  -26.3518   20.5540 C   0  0  0  0  0  0  0  0  0  0  0  0
  -21.3580   -6.6376   22.7715 C   0  0  0  0  0  0  0  0  0  0  0  0
  -19.7186   -6.4190   25.0180 C   0  0  0  0  0  0  0  0  0  0  0  0
  -30.7287  -19.6066   23.4071 C   0  0  0  0  0  0  0  0  0  0  0  0
  -21.6556   -5.7036   23.7638 C   0  0  0  0  0  0  0  0  0  0  0  0
  -24.6374  -11.6778   20.7169 C   0  0  0  0  0  0  0  0  0  0  0  0
  -25.0612  -13.8221   20.4777 C   0  0  0  0  0  0  0  0  0  0  0  0
  -29.8785  -23.9995   22.1181 C   0  0  0  0  0  0  0  0  0  0  0  0
  -31.0665  -23.9213   22.9791 C   0  0  0  0  0  0  0  0  0  0  0  0
  -29.4351  -22.6333   21.7739 C   0  0  0  0  0  0  0  0  0  0  0  0
  -29.2249  -15.7872   24.3134 C   0  0  0  0  0  0  0  0  0  0  0  0
  -29.2912  -25.1245   21.7103 C   0  0  0  0  0  0  0  0  0  1  0  0
  -29.8743  -15.3761   23.2221 C   0  0  0  0  0  0  0  0  0  0  0  0
  -22.6985  -13.3188   21.1202 C   0  0  0  0  0  0  0  0  0  0  0  0
  -26.4547  -31.5604   21.4803 C   0  0  0  0  0  0  0  0  0  0  0  0
  -23.3730  -30.6538   21.9312 C   0  0  0  0  0  0  0  0  0  0  0  0
  -21.0853  -28.1243   22.0526 C   0  0  0  0  0  0  0  0  0  0  0  0
  -30.2910  -15.5437   20.8506 C   0  0  0  0  0  0  0  0  0  0  0  0
  -27.4022  -36.5653   21.8118 C   0  0  0  0  0  0  0  0  0  0  0  0
  -26.0333  -30.1680   19.4212 C   0  0  0  0  0  0  0  0  0  0  0  0
  -25.0948  -28.8106   21.8751 C   0  0  0  0  0  0  0  0  0  0  0  0
  -31.4033  -22.4759   23.1984 C   0  0  0  0  0  0  0  0  0  0  0  0
  -26.4334  -35.5912   22.4771 C   0  0  0  0  0  0  0  0  0  0  0  0
  -29.6603  -12.9749   18.5720 C   0  0  0  0  0  0  0  0  0  0  0  0
  -27.1770  -34.3567   22.9772 C   0  0  0  0  0  0  0  0  0  0  0  0
  -28.2516  -12.5020   18.9297 C   0  0  0  0  0  0  0  0  0  0  0  0
  -30.4666  -13.2899   19.8267 C   0  0  0  0  0  0  0  0  0  0  0  0
  -28.4094  -13.8377   21.0881 C   0  0  0  0  0  0  0  0  0  0  0  0
  -27.8364  -33.6021   21.8165 C   0  0  1  0  0  0  0  0  0  0  0  0
  -25.4195  -30.9431   20.5831 C   0  0  1  0  0  0  0  0  0  0  0  0
  -27.5472  -13.5127   19.8518 C   0  0  2  0  0  0  0  0  0  0  0  0
  -18.6514  -27.6884   22.4811 C   0  0  0  0  0  0  0  0  0  0  0  0
  -23.8411  -30.9986   24.9265 C   0  0  0  0  0  0  0  0  0  0  0  0
  -21.7580  -29.6710   25.3342 C   0  0  0  0  0  0  0  0  0  0  0  0
  -21.6320  -31.8419   24.1120 C   0  0  0  0  0  0  0  0  0  0  0  0
  -20.6819  -27.0350   19.3305 C   0  0  0  0  0  0  0  0  0  0  0  0
  -22.6412  -29.8290   22.9623 C   0  0  1  0  0  0  0  0  0  0  0  0
  -19.7092  -27.9799   21.4281 C   0  0  2  0  0  0  0  0  0  0  0  0
  -22.4894  -30.5742   24.3184 C   0  0  0  0  0  0  0  0  0  0  0  0
  -25.9287  -11.7280   20.3792 N   0  0  0  0  0  0  0  0  0  0  0  0
  -26.1567  -13.0451   20.2404 N   0  0  0  0  0  0  0  0  0  0  0  0
  -30.3551  -21.7829   22.4269 N   0  0  0  0  0  0  0  0  0  0  0  0
  -24.5635  -30.1092   21.4293 N   0  0  0  0  0  0  0  0  0  0  0  0
  -29.7621  -14.2491   20.6781 N   0  0  0  0  0  0  0  0  0  0  0  0
  -25.1149  -15.1677   20.3827 N   0  0  0  0  0  0  0  0  0  0  0  0
  -21.7832  -12.3003   21.4189 N   0  0  0  0  0  0  0  0  0  0  0  0
  -26.8516  -32.8263   21.0936 N   0  0  0  0  0  0  0  0  0  0  0  0
  -21.3758  -29.4390   22.3499 N   0  0  0  0  0  0  0  0  0  0  0  0
  -30.0387  -16.1702   22.0987 N   0  0  0  0  0  0  0  0  0  0  0  0
  -19.7045  -26.8672   20.4366 N   0  3  0  0  0  0  0  0  0  0  0  0
  -31.6768  -24.8713   23.4383 O   0  0  0  0  0  0  0  0  0  0  0  0
  -28.4788  -22.3450   21.0756 O   0  0  0  0  0  0  0  0  0  0  0  0
  -22.3135  -14.5126   21.1307 O   0  0  0  0  0  0  0  0  0  0  0  0
  -26.8621  -30.9351   22.4522 O   0  0  0  0  0  0  0  0  0  0  0  0
  -22.9018  -31.7380   21.5787 O   0  0  0  0  0  0  0  0  0  0  0  0
  -21.8267  -27.1662   22.2597 O   0  0  0  0  0  0  0  0  0  0  0  0
  -30.9588  -16.0973   19.9675 O   0  0  0  0  0  0  0  0  0  0  0  0
  -22.1714   -6.7479   21.6562 O   0  0  0  0  0  0  0  0  0  0  0  0
  -28.1851  -25.1429   20.9078 O   0  0  0  0  0  0  0  0  0  1  0  0
  -18.9321   -6.3151   26.0973 F   0  0  0  0  0  0  0  0  0  0  0  0
  -31.2402  -20.1749   24.5085 F   0  0  0  0  0  0  0  0  0  0  0  0
  -22.7283   -4.9093   23.6441 F   0  0  0  0  0  0  0  0  0  0  0  0
  1  2  1  0  0  0  0
  1  5  2  0  0  0  0
  2  6  2  0  0  0  0
  3 10  2  0  0  0  0
  3 18  1  0  0  0  0
  4 11  1  0  0  0  0
  4 18  2  0  0  0  0
  5 20  1  0  0  0  0
  6 22  1  0  0  0  0
  7 12  2  0  0  0  0
  7 21  1  0  0  0  0
  8  9  2  0  0  0  0
  8 24  1  0  0  0  0
  9 25  1  0  0  0  0
 10 26  1  0  0  0  0
 11 26  2  0  0  0  0
 12 27  1  0  0  0  0
 13 14  2  0  0  0  0
 13 28  1  0  0  0  0
 14 29  1  0  0  0  0
 15 23  1  0  0  0  0
 15 27  2  0  0  0  0
 16 25  2  0  0  0  0
 16 30  1  0  0  0  0
 17 29  2  0  0  0  0
 17 31  1  0  0  0  0
 18 32  1  0  0  0  0
 19 32  1  0  0  0  0
 19 33  2  0  0  0  0
 19 40  1  0  0  0  0
 20 22  2  0  0  0  0
 20 45  1  0  0  0  0
 21 23  2  0  0  0  0
 21 46  1  0  0  0  0
 22 55  1  0  0  0  0
 23 47  1  0  0  0  0
 24 30  2  0  0  0  0
 24 68  1  0  0  0  0
 25 75  1  0  0  0  0
 26 84  1  0  0  0  0
 27 85  1  0  0  0  0
 28 31  2  0  0  0  0
 28 84  1  0  0  0  0
 29 86  1  0  0  0  0
 30 87  1  0  0  0  0
 31 88  1  0  0  0  0
 32 66  2  0  0  0  0
 33 67  1  0  0  0  0
 33 71  1  0  0  0  0
 34 35  1  0  0  0  0
 34 36  1  0  0  0  0
 34 38  2  0  0  0  0
 35 48  1  0  0  0  0
 35 77  2  0  0  0  0
 36 68  1  0  0  0  0
 36 78  2  0  0  0  0
 37 39  2  0  0  0  0
 38 85  1  0  0  0  0
 39 75  1  0  0  0  0
 40 72  1  0  0  0  0
 40 79  2  0  0  0  0
 41 56  1  0  0  0  0
 41 73  1  0  0  0  0
 41 80  2  0  0  0  0
 42 63  1  0  0  0  0
 42 69  1  0  0  0  0
 42 81  2  0  0  0  0
 43 64  1  0  0  0  0
 43 74  1  0  0  0  0
 43 82  2  0  0  0  0
 44 70  1  0  0  0  0
 44 75  1  0  0  0  0
 44 83  2  0  0  0  0
 45 49  1  0  0  0  0
 46 56  1  0  0  0  0
 47 69  1  0  0  0  0
 48 68  1  0  0  0  0
 49 51  1  0  0  0  0
 50 52  1  0  0  0  0
 50 53  1  0  0  0  0
 51 55  1  0  0  0  0
 52 57  1  0  0  0  0
 53 70  1  0  0  0  0
 54 57  1  0  0  0  0
 54 70  1  0  0  0  0
 55 73  1  0  0  0  0
 56 69  1  0  0  0  0
 57 67  1  0  0  0  0
 58 64  1  0  0  0  0
 59 65  1  0  0  0  0
 60 65  1  0  0  0  0
 61 65  1  0  0  0  0
 62 76  1  0  0  0  0
 63 65  1  0  0  0  0
 63 74  1  0  0  0  0
 64 76  1  0  0  0  0
 66 67  1  0  0  0  0
M  CHG  1  76   1
M  ISO  4  38 101  44 100  75 100  85 101
M  END
> <Batch ID>
0083

> <Smiles>
C=C[100N:0](c1ccc(N2CC(=O)C(=[101CH:1][101O:1]c3ccc4c(c3)CN(C(=O)C(NC(=O)C(C)NC)C(C)(C)C)C(C(=O)NC3CCCc5ccccc53)C4)C2=O)c(F)c1)[100C:0](=O)N1CCCC(n2nc(-c3ccc(Oc4ccc(F)cc4F)cc3)c(C(N)=O)c2N)C1

> <Shape>
0.341

> <Color>
0.196

> <Negative vol penalty>
0.000

$$$$

  -OEChem-04052300093D

 84 92  0     1  0  0  0  0  0999 V2000
  -27.9691  -35.6757   18.5827 C   0  0  0  0  0  0  0  0  0  0  0  0
  -28.2634  -34.3951   19.0398 C   0  0  0  0  0  0  0  0  0  0  0  0
  -22.8945  -15.9650   22.8729 C   0  0  0  0  0  0  0  0  0  0  0  0
  -21.6222  -15.5945   20.8528 C   0  0  0  0  0  0  0  0  0  0  0  0
  -26.8265  -36.3318   19.0385 C   0  0  0  0  0  0  0  0  0  0  0  0
  -27.4156  -33.7703   19.9539 C   0  0  0  0  0  0  0  0  0  0  0  0
  -26.4780  -28.9422   18.7478 C   0  0  0  0  0  0  0  0  0  0  0  0
  -30.6804  -21.5334   19.0676 C   0  0  0  0  0  0  0  0  0  0  0  0
  -21.8161  -16.6559   23.4254 C   0  0  0  0  0  0  0  0  0  0  0  0
  -20.5438  -16.2855   21.4052 C   0  0  0  0  0  0  0  0  0  0  0  0
  -27.4707  -28.0082   19.0411 C   0  0  0  0  0  0  0  0  0  0  0  0
  -19.6455  -19.5047   21.9154 C   0  0  0  0  0  0  0  0  0  0  0  0
  -18.9943  -20.4399   21.1110 C   0  0  0  0  0  0  0  0  0  0  0  0
  -31.1293  -20.2944   19.5247 C   0  0  0  0  0  0  0  0  0  0  0  0
  -26.2652  -27.3597   21.0274 C   0  0  0  0  0  0  0  0  0  0  0  0
  -28.7410  -21.3584   20.4977 C   0  0  0  0  0  0  0  0  0  0  0  0
  -16.9331  -19.2003   21.3385 C   0  0  0  0  0  0  0  0  0  0  0  0
  -22.7976  -15.4343   21.5866 C   0  0  0  0  0  0  0  0  0  0  0  0
  -24.1723  -13.3403   21.1037 C   0  0  0  0  0  0  0  0  0  0  0  0
  -25.9592  -35.7110   19.9511 C   0  0  0  0  0  0  0  0  0  0  0  0
  -25.3750  -29.0998   19.5992 C   0  0  0  0  0  0  0  0  0  0  0  0
  -26.2610  -34.4193   20.4232 C   0  0  0  0  0  0  0  0  0  0  0  0
  -25.2585  -28.2946   20.7413 C   0  0  0  0  0  0  0  0  0  0  0  0
  -29.4863  -22.0654   19.5542 C   0  0  0  0  0  0  0  0  0  0  0  0
  -20.6408  -16.8162   22.6916 C   0  0  0  0  0  0  0  0  0  0  0  0
  -27.3659  -27.2189   20.1826 C   0  0  0  0  0  0  0  0  0  0  0  0
  -18.9405  -18.4173   22.4313 C   0  0  0  0  0  0  0  0  0  0  0  0
  -17.6381  -20.2877   20.8226 C   0  0  0  0  0  0  0  0  0  0  0  0
  -29.1899  -20.1193   20.9548 C   0  0  0  0  0  0  0  0  0  0  0  0
  -17.5843  -18.2651   22.1429 C   0  0  0  0  0  0  0  0  0  0  0  0
  -30.3841  -19.5873   20.4683 C   0  0  0  0  0  0  0  0  0  0  0  0
  -23.9114  -14.7209   21.0151 C   0  0  0  0  0  0  0  0  0  0  0  0
  -25.3388  -13.1655   20.4001 C   0  0  0  0  0  0  0  0  0  0  0  0
  -29.4387  -24.3407   19.7696 C   0  0  0  0  0  0  0  0  0  0  0  0
  -23.4268  -12.3082   21.7630 C   0  0  0  0  0  0  0  0  0  0  0  0
  -24.2198  -31.4839   21.3557 C   0  0  0  0  0  0  0  0  0  0  0  0
  -21.7753  -29.4116   21.8581 C   0  0  0  0  0  0  0  0  0  0  0  0
  -20.6899  -26.1772   21.9420 C   0  0  0  0  0  0  0  0  0  0  0  0
  -29.8681  -16.8892   19.0981 C   0  0  0  0  0  0  0  0  0  0  0  0
  -24.7611  -36.4785   20.4513 C   0  0  0  0  0  0  0  0  0  0  0  0
  -24.2993  -30.0929   19.2545 C   0  0  0  0  0  0  0  0  0  0  0  0
  -24.0841  -28.4106   21.6770 C   0  0  0  0  0  0  0  0  0  0  0  0
  -23.7158  -35.5995   21.1332 C   0  0  0  0  0  0  0  0  0  0  0  0
  -27.8557  -15.0233   16.7857 C   0  0  0  0  0  0  0  0  0  0  0  0
  -24.3824  -34.6425   22.1164 C   0  0  0  0  0  0  0  0  0  0  0  0
  -26.6312  -14.6258   17.6099 C   0  0  0  0  0  0  0  0  0  0  0  0
  -28.3617  -16.4109   17.1686 C   0  0  0  0  0  0  0  0  0  0  0  0
  -27.4297  -16.1747   19.4494 C   0  0  0  0  0  0  0  0  0  0  0  0
  -25.3528  -33.6987   21.3958 C   0  0  1  0  0  0  0  0  0  0  0  0
  -23.4782  -30.5283   20.4643 C   0  0  1  0  0  0  0  0  0  0  0  0
  -26.9079  -14.7658   19.1176 C   0  0  1  0  0  0  0  0  0  0  0  0
  -18.6510  -24.7953   22.4225 C   0  0  0  0  0  0  0  0  0  0  0  0
  -22.1953  -29.8366   24.8502 C   0  0  0  0  0  0  0  0  0  0  0  0
  -20.8317  -27.7780   25.2633 C   0  0  0  0  0  0  0  0  0  0  0  0
  -19.8004  -29.7493   24.1350 C   0  0  0  0  0  0  0  0  0  0  0  0
  -20.6370  -25.0885   19.1905 C   0  0  0  0  0  0  0  0  0  0  0  0
  -29.0292  -25.7264   19.3691 C   0  0  0  0  0  0  0  0  0  1  0  0
  -21.4768  -28.3368   22.8753 C   0  0  1  0  0  0  0  0  0  0  0  0
  -19.4595  -25.5119   21.3521 C   0  0  2  0  0  0  0  0  0  0  0  0
  -21.0993  -28.9241   24.2646 C   0  0  0  0  0  0  0  0  0  0  0  0
  -24.8377  -15.3766   20.3108 N   0  0  0  0  0  0  0  0  0  0  0  0
  -29.9507  -16.9304   20.4336 N   0  5  0  0  0  0  0  0  0  0  0  0
  -29.0349  -23.3144   19.0950 N   0  0  0  0  0  0  0  0  0  0  0  0
  -25.6921  -14.4038   19.9506 N   0  0  0  0  0  0  0  0  0  0  0  0
  -23.0615  -29.4005   21.3002 N   0  0  0  0  0  0  0  0  0  0  0  0
  -28.5986  -16.5021   18.6119 N   0  0  0  0  0  0  0  0  0  0  0  0
  -26.0866  -12.0750   20.1282 N   0  0  0  0  0  0  0  0  0  0  0  0
  -22.2512  -12.6613   22.4395 N   0  0  0  0  0  0  0  0  0  0  0  0
  -24.6257  -32.6435   20.7233 N   0  0  0  0  0  0  0  0  0  0  0  0
  -20.4459  -27.4904   22.2843 N   0  0  0  0  0  0  0  0  0  0  0  0
  -19.8553  -24.5160   20.3166 N   0  3  0  0  0  0  0  0  0  0  0  0
  -23.8011  -11.1110   21.7664 O   0  0  0  0  0  0  0  0  0  0  0  0
  -24.4085  -31.1914   22.5307 O   0  0  0  0  0  0  0  0  0  0  0  0
  -20.8972  -30.2265   21.5639 O   0  0  0  0  0  0  0  0  0  0  0  0
  -21.7593  -25.5894   22.0883 O   0  0  0  0  0  0  0  0  0  0  0  0
  -30.7872  -17.1537   18.3167 O   0  0  0  0  0  0  0  0  0  0  0  0
  -32.3281  -17.9277   20.5229 O   0  0  0  0  0  0  0  0  0  0  0  0
  -30.8993  -18.1396   22.5071 O   0  0  0  0  0  0  0  0  0  0  0  0
  -19.5882  -17.4902   23.2305 O   0  0  0  0  0  0  0  0  0  0  0  0
  -28.3338  -26.3070   20.4717 O   0  0  0  0  0  0  0  0  0  1  0  0
  -17.0126  -21.1866   20.0513 F   0  0  0  0  0  0  0  0  0  0  0  0
  -28.4648  -19.4488   21.8609 F   0  0  0  0  0  0  0  0  0  0  0  0
  -16.9014  -17.2231   22.6367 F   0  0  0  0  0  0  0  0  0  0  0  0
  -30.9688  -17.9872   21.0555 S   0  0  0  0  0  0  0  0  0  0  0  0
  1  2  1  0  0  0  0
  1  5  2  0  0  0  0
  2  6  2  0  0  0  0
  3  9  2  0  0  0  0
  3 18  1  0  0  0  0
  4 10  1  0  0  0  0
  4 18  2  0  0  0  0
  5 20  1  0  0  0  0
  6 22  1  0  0  0  0
  7 11  2  0  0  0  0
  7 21  1  0  0  0  0
  8 14  2  0  0  0  0
  8 24  1  0  0  0  0
  9 25  1  0  0  0  0
 10 25  2  0  0  0  0
 11 26  1  0  0  0  0
 12 13  2  0  0  0  0
 12 27  1  0  0  0  0
 13 28  1  0  0  0  0
 14 31  1  0  0  0  0
 15 23  1  0  0  0  0
 15 26  2  0  0  0  0
 16 24  2  0  0  0  0
 16 29  1  0  0  0  0
 17 28  2  0  0  0  0
 17 30  1  0  0  0  0
 18 32  1  0  0  0  0
 19 32  1  0  0  0  0
 19 33  2  0  0  0  0
 19 35  1  0  0  0  0
 20 22  2  0  0  0  0
 20 40  1  0  0  0  0
 21 23  2  0  0  0  0
 21 41  1  0  0  0  0
 22 49  1  0  0  0  0
 23 42  1  0  0  0  0
 24 63  1  0  0  0  0
 25 79  1  0  0  0  0
 26 80  1  0  0  0  0
 27 30  2  0  0  0  0
 27 79  1  0  0  0  0
 28 81  1  0  0  0  0
 29 31  2  0  0  0  0
 29 82  1  0  0  0  0
 30 83  1  0  0  0  0
 31 84  1  0  0  0  0
 32 61  2  0  0  0  0
 33 64  1  0  0  0  0
 33 67  1  0  0  0  0
 34 57  1  0  0  0  0
 34 63  2  0  0  0  0
 35 68  1  0  0  0  0
 35 72  2  0  0  0  0
 36 50  1  0  0  0  0
 36 69  1  0  0  0  0
 36 73  2  0  0  0  0
 37 58  1  0  0  0  0
 37 65  1  0  0  0  0
 37 74  2  0  0  0  0
 38 59  1  0  0  0  0
 38 70  1  0  0  0  0
 38 75  2  0  0  0  0
 39 62  1  0  0  0  0
 39 66  1  0  0  0  0
 39 76  2  0  0  0  0
 40 43  1  0  0  0  0
 41 50  1  0  0  0  0
 42 65  1  0  0  0  0
 43 45  1  0  0  0  0
 44 46  1  0  0  0  0
 44 47  1  0  0  0  0
 45 49  1  0  0  0  0
 46 51  1  0  0  0  0
 47 66  1  0  0  0  0
 48 51  1  0  0  0  0
 48 66  1  0  0  0  0
 49 69  1  0  0  0  0
 50 65  1  0  0  0  0
 51 64  1  0  0  0  0
 52 59  1  0  0  0  0
 53 60  1  0  0  0  0
 54 60  1  0  0  0  0
 55 60  1  0  0  0  0
 56 71  1  0  0  0  0
 57 80  1  0  0  0  0
 58 60  1  0  0  0  0
 58 70  1  0  0  0  0
 59 71  1  0  0  0  0
 61 64  1  0  0  0  0
 62 84  1  0  0  0  0
 77 84  2  0  0  0  0
 78 84  2  0  0  0  0
M  CHG  2  62  -1  71   1
M  ISO  4  39 100  57 101  62 100  80 101
M  END
> <Batch ID>
0083

> <Smiles>
CNC(C)C(=O)NC(C(=O)N1Cc2cc([101O:1][101CH:1]=CNc3ccc(S(=O)(=O)[100NH:0][100C:0](=O)N4CCCC(n5nc(-c6ccc(Oc7ccc(F)cc7F)cc6)c(C(N)=O)c5N)C4)c(F)c3)ccc2CC1C(=O)NC1CCCc2ccccc21)C(C)(C)C

> <Shape>
0.244

> <Color>
0.097

> <Negative vol penalty>
0.000

$$$$

  -OEChem-04052300093D

 85 93  0     1  0  0  0  0  0999 V2000
  -33.4684  -29.4444   24.1632 C   0  0  0  0  0  0  0  0  0  0  0  0
  -32.9053  -29.9910   23.0145 C   0  0  0  0  0  0  0  0  0  0  0  0
  -26.1646  -12.6129   21.4762 C   0  0  0  0  0  0  0  0  0  0  0  0
  -25.9632  -13.0420   19.1072 C   0  0  0  0  0  0  0  0  0  0  0  0
  -27.7004  -20.9254   14.7929 C   0  0  0  0  0  0  0  0  0  0  0  0
  -27.5795  -22.8661   16.2269 C   0  0  0  0  0  0  0  0  0  0  0  0
  -33.1376  -28.1465   24.5506 C   0  0  0  0  0  0  0  0  0  0  0  0
  -32.0119  -29.2396   22.2518 C   0  0  0  0  0  0  0  0  0  0  0  0
  -26.2057  -29.9751   18.1211 C   0  0  0  0  0  0  0  0  0  0  0  0
  -28.1733  -20.1647   15.8622 C   0  0  0  0  0  0  0  0  0  0  0  0
  -28.0523  -22.1054   17.2962 C   0  0  0  0  0  0  0  0  0  0  0  0
  -24.9757  -11.8842   21.4453 C   0  0  0  0  0  0  0  0  0  0  0  0
  -24.7742  -12.3132   19.0763 C   0  0  0  0  0  0  0  0  0  0  0  0
  -25.7347  -29.6328   16.8543 C   0  0  0  0  0  0  0  0  0  0  0  0
  -23.9727   -8.7924   20.5137 C   0  0  0  0  0  0  0  0  0  0  0  0
  -23.9445   -7.5694   21.1837 C   0  0  0  0  0  0  0  0  0  0  0  0
  -25.1763  -27.4300   17.6636 C   0  0  0  0  0  0  0  0  0  0  0  0
  -22.1544   -8.3804   22.5890 C   0  0  0  0  0  0  0  0  0  0  0  0
  -26.6583  -13.1919   20.3071 C   0  0  0  0  0  0  0  0  0  0  0  0
  -27.4036  -22.2761   14.9752 C   0  0  0  0  0  0  0  0  0  0  0  0
  -29.1902  -13.4543   20.1384 C   0  0  0  0  0  0  0  0  0  0  0  0
  -32.2324  -27.3823   23.7976 C   0  0  0  0  0  0  0  0  0  0  0  0
  -26.1755  -29.0422   19.1677 C   0  0  0  0  0  0  0  0  0  0  0  0
  -31.6698  -27.9298   22.6287 C   0  0  0  0  0  0  0  0  0  0  0  0
  -25.6451  -27.7637   18.9434 C   0  0  0  0  0  0  0  0  0  0  0  0
  -28.3492  -20.7547   17.1138 C   0  0  0  0  0  0  0  0  0  0  0  0
  -24.2805  -11.7343   20.2454 C   0  0  0  0  0  0  0  0  0  0  0  0
  -25.2226  -28.3592   16.6246 C   0  0  0  0  0  0  0  0  0  0  0  0
  -23.0918   -9.8096   20.8815 C   0  0  0  0  0  0  0  0  0  0  0  0
  -23.0353   -7.3633   22.2213 C   0  0  0  0  0  0  0  0  0  0  0  0
  -22.1826   -9.6035   21.9191 C   0  0  0  0  0  0  0  0  0  0  0  0
  -27.8861  -13.9454   20.3385 C   0  0  0  0  0  0  0  0  0  0  0  0
  -29.9967  -14.5584   20.2690 C   0  0  0  0  0  0  0  0  0  0  0  0
  -25.3602  -26.9763   14.7433 C   0  0  0  0  0  0  0  0  0  1  0  0
  -26.9003  -23.0861   13.8367 C   0  0  0  0  0  0  0  0  0  0  0  0
  -29.6330  -12.1194   19.8595 C   0  0  0  0  0  0  0  0  0  0  0  0
  -24.7303  -26.1737   13.8709 C   0  0  0  0  0  0  0  0  0  0  0  0
  -25.5626  -25.0766   13.2613 C   0  0  0  0  0  0  0  0  0  0  0  0
  -28.3729  -27.6391   20.9859 C   0  0  0  0  0  0  0  0  0  0  0  0
  -25.7776  -26.4667   22.5391 C   0  0  0  0  0  0  0  0  0  0  0  0
  -22.4662  -25.6472   22.4381 C   0  0  0  0  0  0  0  0  0  0  0  0
  -29.0606  -20.4104   19.5059 C   0  0  0  0  0  0  0  0  0  0  0  0
  -31.9419  -25.9669   24.2300 C   0  0  0  0  0  0  0  0  0  0  0  0
  -26.6626  -29.4357   20.5353 C   0  0  0  0  0  0  0  0  0  0  0  0
  -25.5717  -26.7324   20.0386 C   0  0  0  0  0  0  0  0  0  0  0  0
  -30.6992  -25.3720   23.5725 C   0  0  0  0  0  0  0  0  0  0  0  0
  -30.2029  -18.8057   22.4718 C   0  0  0  0  0  0  0  0  0  0  0  0
  -30.7050  -25.6483   22.0724 C   0  0  0  0  0  0  0  0  0  0  0  0
  -29.8626  -17.3316   22.2405 C   0  0  0  0  0  0  0  0  0  0  0  0
  -29.1336  -19.7318   21.8952 C   0  0  0  0  0  0  0  0  0  0  0  0
  -28.4637  -18.0226   20.2524 C   0  0  0  0  0  0  0  0  0  0  0  0
  -30.6777  -27.1550   21.7888 C   0  0  1  0  0  0  0  0  0  0  0  0
  -27.0579  -28.2396   21.3957 C   0  0  1  0  0  0  0  0  0  0  0  0
  -29.5439  -17.0526   20.7586 C   0  0  2  0  0  0  0  0  0  0  0  0
  -23.2860  -26.3459   13.5041 C   0  0  0  0  0  0  0  0  0  0  0  0
  -20.6337  -24.6746   23.8499 C   0  0  0  0  0  0  0  0  0  0  0  0
  -26.9563  -23.6801   22.1450 C   0  0  0  0  0  0  0  0  0  0  0  0
  -24.7071  -22.7271   22.6939 C   0  0  0  0  0  0  0  0  0  0  0  0
  -25.9382  -24.0735   24.3951 C   0  0  0  0  0  0  0  0  0  0  0  0
  -20.8494  -28.1187   22.2476 C   0  0  0  0  0  0  0  0  0  0  0  0
  -24.9127  -25.2374   22.3987 C   0  0  1  0  0  0  0  0  0  0  0  0
  -21.3242  -25.9496   23.3914 C   0  0  2  0  0  0  0  0  0  0  0  0
  -25.6316  -23.9481   22.8869 C   0  0  0  0  0  0  0  0  0  0  0  0
  -27.8610  -15.2591   20.5781 N   0  0  0  0  0  0  0  0  0  0  0  0
  -29.1593  -15.6029   20.5295 N   0  0  0  0  0  0  0  0  0  0  0  0
  -26.0662  -27.1629   21.3568 N   0  0  0  0  0  0  0  0  0  0  0  0
  -28.8873  -19.4118   20.4875 N   0  0  0  0  0  0  0  0  0  0  0  0
  -31.3333  -14.7279   20.1853 N   0  0  0  0  0  0  0  0  0  0  0  0
  -28.6720  -11.1042   19.7581 N   0  0  0  0  0  0  0  0  0  0  0  0
  -28.8295  -19.9810   18.1994 N   0  0  0  0  0  0  0  0  0  0  0  0
  -26.1032  -24.1787   14.1803 N   0  0  0  0  0  0  0  0  0  0  0  0
  -29.3412  -27.6795   21.9709 N   0  0  0  0  0  0  0  0  0  0  0  0
  -23.6689  -25.5309   23.1025 N   0  0  0  0  0  0  0  0  0  0  0  0
  -20.3123  -26.8196   22.7280 N   0  3  0  0  0  0  0  0  0  0  0  0
  -27.2264  -22.7756   12.6943 O   0  0  0  0  0  0  0  0  0  0  0  0
  -30.8462  -11.8324   19.7210 O   0  0  0  0  0  0  0  0  0  0  0  0
  -25.7314  -25.0012   12.0449 O   0  0  0  0  0  0  0  0  0  0  0  0
  -28.4992  -27.1722   19.8600 O   0  0  0  0  0  0  0  0  0  0  0  0
  -26.1763  -26.8012   23.6575 O   0  0  0  0  0  0  0  0  0  0  0  0
  -22.3068  -25.5226   21.2259 O   0  0  0  0  0  0  0  0  0  0  0  0
  -29.4162  -21.5546   19.7998 O   0  0  0  0  0  0  0  0  0  0  0  0
  -23.1205  -11.0230   20.2148 O   0  0  0  0  0  0  0  0  0  0  0  0
  -24.7629  -28.0223   15.3889 O   0  0  0  0  0  0  0  0  0  1  0  0
  -23.0073   -6.1882   22.8636 F   0  0  0  0  0  0  0  0  0  0  0  0
  -21.3331  -10.5765   22.2760 F   0  0  0  0  0  0  0  0  0  0  0  0
  1  2  1  0  0  0  0
  1  7  2  0  0  0  0
  2  8  2  0  0  0  0
  3 12  2  0  0  0  0
  3 19  1  0  0  0  0
  4 13  1  0  0  0  0
  4 19  2  0  0  0  0
  5 10  2  0  0  0  0
  5 20  1  0  0  0  0
  6 11  1  0  0  0  0
  6 20  2  0  0  0  0
  7 22  1  0  0  0  0
  8 24  1  0  0  0  0
  9 14  2  0  0  0  0
  9 23  1  0  0  0  0
 10 26  1  0  0  0  0
 11 26  2  0  0  0  0
 12 27  1  0  0  0  0
 13 27  2  0  0  0  0
 14 28  1  0  0  0  0
 15 16  2  0  0  0  0
 15 29  1  0  0  0  0
 16 30  1  0  0  0  0
 17 25  1  0  0  0  0
 17 28  2  0  0  0  0
 18 30  2  0  0  0  0
 18 31  1  0  0  0  0
 19 32  1  0  0  0  0
 20 35  1  0  0  0  0
 21 32  1  0  0  0  0
 21 33  2  0  0  0  0
 21 36  1  0  0  0  0
 22 24  2  0  0  0  0
 22 43  1  0  0  0  0
 23 25  2  0  0  0  0
 23 44  1  0  0  0  0
 24 52  1  0  0  0  0
 25 45  1  0  0  0  0
 26 70  1  0  0  0  0
 27 82  1  0  0  0  0
 28 83  1  0  0  0  0
 29 31  2  0  0  0  0
 29 82  1  0  0  0  0
 30 84  1  0  0  0  0
 31 85  1  0  0  0  0
 32 64  2  0  0  0  0
 33 65  1  0  0  0  0
 33 68  1  0  0  0  0
 34 37  2  0  0  0  0
 34 83  1  0  0  0  0
 35 71  1  0  0  0  0
 35 75  2  0  0  0  0
 36 69  1  0  0  0  0
 36 76  2  0  0  0  0
 37 38  1  0  0  0  0
 37 55  1  0  0  0  0
 38 71  1  0  0  0  0
 38 77  2  0  0  0  0
 39 53  1  0  0  0  0
 39 72  1  0  0  0  0
 39 78  2  0  0  0  0
 40 61  1  0  0  0  0
 40 66  1  0  0  0  0
 40 79  2  0  0  0  0
 41 62  1  0  0  0  0
 41 73  1  0  0  0  0
 41 80  2  0  0  0  0
 42 67  1  0  0  0  0
 42 70  1  0  0  0  0
 42 81  2  0  0  0  0
 43 46  1  0  0  0  0
 44 53  1  0  0  0  0
 45 66  1  0  0  0  0
 46 48  1  0  0  0  0
 47 49  1  0  0  0  0
 47 50  1  0  0  0  0
 48 52  1  0  0  0  0
 49 54  1  0  0  0  0
 50 67  1  0  0  0  0
 51 54  1  0  0  0  0
 51 67  1  0  0  0  0
 52 72  1  0  0  0  0
 53 66  1  0  0  0  0
 54 65  1  0  0  0  0
 56 62  1  0  0  0  0
 57 63  1  0  0  0  0
 58 63  1  0  0  0  0
 59 63  1  0  0  0  0
 60 74  1  0  0  0  0
 61 63  1  0  0  0  0
 61 73  1  0  0  0  0
 62 74  1  0  0  0  0
 64 65  1  0  0  0  0
M  CHG  1  74   1
M  ISO  4  34 101  42 100  70 100  83 101
M  END
> <Batch ID>
0083

> <Smiles>
CNC(C)C(=O)NC(C(=O)N1Cc2cc([101O:1][101CH:1]=C(C)C(=O)NC(=O)c3ccc([100NH:0][100C:0](=O)N4CCCC(n5nc(-c6ccc(Oc7ccc(F)cc7F)cc6)c(C(N)=O)c5N)C4)cc3)ccc2CC1C(=O)NC1CCCc2ccccc21)C(C)(C)C

> <Shape>
0.215

> <Color>
0.079

> <Negative vol penalty>
0.000

$$$$

  -OEChem-04052300093D

 86 94  0     1  0  0  0  0  0999 V2000
  -27.7464  -37.7686   21.9345 C   0  0  0  0  0  0  0  0  0  0  0  0
  -28.2584  -36.5443   21.5169 C   0  0  0  0  0  0  0  0  0  0  0  0
  -23.3887  -10.8528   22.6953 C   0  0  0  0  0  0  0  0  0  0  0  0
  -22.9658  -13.2098   22.3745 C   0  0  0  0  0  0  0  0  0  0  0  0
  -26.7469  -37.8103   22.9056 C   0  0  0  0  0  0  0  0  0  0  0  0
  -27.7718  -35.3609   22.0711 C   0  0  0  0  0  0  0  0  0  0  0  0
  -27.0768  -29.9793   19.2319 C   0  0  0  0  0  0  0  0  0  0  0  0
  -22.5293  -10.8481   23.7939 C   0  0  0  0  0  0  0  0  0  0  0  0
  -22.1062  -13.2050   23.4730 C   0  0  0  0  0  0  0  0  0  0  0  0
  -27.8641  -28.8292   19.1958 C   0  0  0  0  0  0  0  0  0  0  0  0
  -18.9290  -12.2693   24.1437 C   0  0  0  0  0  0  0  0  0  0  0  0
  -17.7061  -12.9269   24.0107 C   0  0  0  0  0  0  0  0  0  0  0  0
  -28.8671  -18.2861   19.4674 C   0  0  0  0  0  0  0  0  0  0  0  0
  -30.5226  -19.9564   18.9140 C   0  0  0  0  0  0  0  0  0  0  0  0
  -26.5274  -27.8661   20.9578 C   0  0  0  0  0  0  0  0  0  0  0  0
  -31.1953  -17.6663   19.2880 C   0  0  0  0  0  0  0  0  0  0  0  0
  -18.2954  -14.3926   25.8387 C   0  0  0  0  0  0  0  0  0  0  0  0
  -23.6070  -12.0337   21.9856 C   0  0  0  0  0  0  0  0  0  0  0  0
  -29.1947  -19.6062   19.1583 C   0  0  0  0  0  0  0  0  0  0  0  0
  -24.1578  -11.7959   19.5061 C   0  0  0  0  0  0  0  0  0  0  0  0
  -26.2410  -36.6263   23.4650 C   0  0  0  0  0  0  0  0  0  0  0  0
  -26.0139  -30.0859   20.1403 C   0  0  0  0  0  0  0  0  0  0  0  0
  -26.7655  -35.3868   23.0516 C   0  0  0  0  0  0  0  0  0  0  0  0
  -25.7265  -29.0175   21.0017 C   0  0  0  0  0  0  0  0  0  0  0  0
  -29.8674  -17.3161   19.5323 C   0  0  0  0  0  0  0  0  0  0  0  0
  -21.8880  -12.0242   24.1827 C   0  0  0  0  0  0  0  0  0  0  0  0
  -27.5913  -27.7736   20.0609 C   0  0  0  0  0  0  0  0  0  0  0  0
  -19.8351  -12.6733   25.1242 C   0  0  0  0  0  0  0  0  0  0  0  0
  -31.5229  -18.9864   18.9789 C   0  0  0  0  0  0  0  0  0  0  0  0
  -17.3893  -13.9885   24.8581 C   0  0  0  0  0  0  0  0  0  0  0  0
  -19.5183  -13.7349   25.9717 C   0  0  0  0  0  0  0  0  0  0  0  0
  -24.4952  -12.0393   20.8510 C   0  0  0  0  0  0  0  0  0  0  0  0
  -25.3454  -11.9174   18.8269 C   0  0  0  0  0  0  0  0  0  0  0  0
  -28.4113  -24.3048   19.6870 C   0  0  0  0  0  0  0  0  0  0  0  0
  -27.7473  -25.4616   19.7429 C   0  0  0  0  0  0  0  0  0  1  0  0
  -28.1300  -20.6392   19.0879 C   0  0  0  0  0  0  0  0  0  0  0  0
  -22.8848  -11.4876   18.9230 C   0  0  0  0  0  0  0  0  0  0  0  0
  -27.6830  -23.0462   19.3712 C   0  0  0  0  0  0  0  0  0  0  0  0
  -25.3211  -32.0208   22.5652 C   0  0  0  0  0  0  0  0  0  0  0  0
  -22.5125  -30.3978   22.5488 C   0  0  0  0  0  0  0  0  0  0  0  0
  -20.8162  -27.5510   21.7334 C   0  0  0  0  0  0  0  0  0  0  0  0
  -30.4052  -14.8908   19.9505 C   0  0  0  0  0  0  0  0  0  0  0  0
  -25.1938  -36.7237   24.5460 C   0  0  0  0  0  0  0  0  0  0  0  0
  -25.1574  -31.3224   20.1482 C   0  0  0  0  0  0  0  0  0  0  0  0
  -24.5841  -29.0741   21.9816 C   0  0  0  0  0  0  0  0  0  0  0  0
  -24.4688  -35.4070   24.8122 C   0  0  0  0  0  0  0  0  0  0  0  0
  -30.0682  -11.3867   19.4167 C   0  0  0  0  0  0  0  0  0  0  0  0
  -25.4682  -34.2597   24.9205 C   0  0  0  0  0  0  0  0  0  0  0  0
  -28.5692  -11.1352   19.5956 C   0  0  0  0  0  0  0  0  0  0  0  0
  -30.5842  -12.4505   20.3841 C   0  0  0  0  0  0  0  0  0  0  0  0
  -28.3460  -13.4678   20.5424 C   0  0  0  0  0  0  0  0  0  0  0  0
  -26.2460  -34.0802   23.6112 C   0  0  1  0  0  0  0  0  0  0  0  0
  -24.4200  -31.5300   21.4675 C   0  0  1  0  0  0  0  0  0  0  0  0
  -27.7672  -12.4505   19.5455 C   0  0  2  0  0  0  0  0  0  0  0  0
  -18.5403  -26.5037   21.8796 C   0  0  0  0  0  0  0  0  0  0  0  0
  -22.9650  -29.8339   25.5131 C   0  0  0  0  0  0  0  0  0  0  0  0
  -21.2204  -28.0441   25.3676 C   0  0  0  0  0  0  0  0  0  0  0  0
  -20.6095  -30.4191   24.9102 C   0  0  0  0  0  0  0  0  0  0  0  0
  -20.5909  -27.3526   18.7891 C   0  0  0  0  0  0  0  0  0  0  0  0
  -33.7904  -18.2863   18.8233 C   0  0  0  0  0  0  0  0  0  0  0  0
  -21.9958  -29.1484   23.2204 C   0  0  1  0  0  0  0  0  0  0  0  0
  -19.4881  -27.3362   21.0302 C   0  0  2  0  0  0  0  0  0  0  0  0
  -21.7205  -29.3608   24.7358 C   0  0  0  0  0  0  0  0  0  0  0  0
  -25.7953  -12.2959   21.0182 N   0  0  0  0  0  0  0  0  0  0  0  0
  -26.2853  -12.2143   19.7695 N   0  0  0  0  0  0  0  0  0  0  0  0
  -23.7797  -30.3069   21.9556 N   0  0  0  0  0  0  0  0  0  0  0  0
  -29.7793  -13.6694   20.2779 N   0  0  0  0  0  0  0  0  0  0  0  0
  -25.6669  -11.7981   17.5212 N   0  0  0  0  0  0  0  0  0  0  0  0
  -21.7676  -11.4010   19.7649 N   0  0  0  0  0  0  0  0  0  0  0  0
  -29.5345  -15.9749   19.8457 N   0  0  0  0  0  0  0  0  0  0  0  0
  -28.5373  -21.9453   19.3571 N   0  0  0  0  0  0  0  0  0  0  0  0
  -25.4317  -33.3967   22.6292 N   0  0  0  0  0  0  0  0  0  0  0  0
  -20.8282  -28.7263   22.4543 N   0  0  0  0  0  0  0  0  0  0  0  0
  -19.6967  -26.6335   19.7327 N   0  3  0  0  0  0  0  0  0  0  0  0
  -26.9795  -20.2946   18.8316 O   0  0  0  0  0  0  0  0  0  0  0  0
  -22.7451  -11.2785   17.6941 O   0  0  0  0  0  0  0  0  0  0  0  0
  -26.4760  -23.0221   19.1531 O   0  0  0  0  0  0  0  0  0  0  0  0
  -25.8738  -31.2111   23.3005 O   0  0  0  0  0  0  0  0  0  0  0  0
  -21.8144  -31.4148   22.5443 O   0  0  0  0  0  0  0  0  0  0  0  0
  -21.7483  -26.7538   21.6544 O   0  0  0  0  0  0  0  0  0  0  0  0
  -31.6201  -14.9638   19.7492 O   0  0  0  0  0  0  0  0  0  0  0  0
  -21.0491  -12.0199   25.2545 O   0  0  0  0  0  0  0  0  0  0  0  0
  -28.3586  -26.6502   20.0282 O   0  0  0  0  0  0  0  0  0  1  0  0
  -32.8186  -19.3277   18.7403 O   0  0  0  0  0  0  0  0  0  0  0  0
  -16.2156  -14.6209   24.7293 F   0  0  0  0  0  0  0  0  0  0  0  0
  -20.3852  -14.1283   26.9148 F   0  0  0  0  0  0  0  0  0  0  0  0
  1  2  1  0  0  0  0
  1  5  2  0  0  0  0
  2  6  2  0  0  0  0
  3  8  2  0  0  0  0
  3 18  1  0  0  0  0
  4  9  1  0  0  0  0
  4 18  2  0  0  0  0
  5 21  1  0  0  0  0
  6 23  1  0  0  0  0
  7 10  2  0  0  0  0
  7 22  1  0  0  0  0
  8 26  1  0  0  0  0
  9 26  2  0  0  0  0
 10 27  1  0  0  0  0
 11 12  2  0  0  0  0
 11 28  1  0  0  0  0
 12 30  1  0  0  0  0
 13 19  1  0  0  0  0
 13 25  2  0  0  0  0
 14 19  2  0  0  0  0
 14 29  1  0  0  0  0
 15 24  1  0  0  0  0
 15 27  2  0  0  0  0
 16 25  1  0  0  0  0
 16 29  2  0  0  0  0
 17 30  2  0  0  0  0
 17 31  1  0  0  0  0
 18 32  1  0  0  0  0
 19 36  1  0  0  0  0
 20 32  1  0  0  0  0
 20 33  2  0  0  0  0
 20 37  1  0  0  0  0
 21 23  2  0  0  0  0
 21 43  1  0  0  0  0
 22 24  2  0  0  0  0
 22 44  1  0  0  0  0
 23 52  1  0  0  0  0
 24 45  1  0  0  0  0
 25 70  1  0  0  0  0
 26 82  1  0  0  0  0
 27 83  1  0  0  0  0
 28 31  2  0  0  0  0
 28 82  1  0  0  0  0
 29 84  1  0  0  0  0
 30 85  1  0  0  0  0
 31 86  1  0  0  0  0
 32 64  2  0  0  0  0
 33 65  1  0  0  0  0
 33 68  1  0  0  0  0
 34 35  2  0  0  0  0
 34 38  1  0  0  0  0
 35 83  1  0  0  0  0
 36 71  1  0  0  0  0
 36 75  2  0  0  0  0
 37 69  1  0  0  0  0
 37 76  2  0  0  0  0
 38 71  1  0  0  0  0
 38 77  2  0  0  0  0
 39 53  1  0  0  0  0
 39 72  1  0  0  0  0
 39 78  2  0  0  0  0
 40 61  1  0  0  0  0
 40 66  1  0  0  0  0
 40 79  2  0  0  0  0
 41 62  1  0  0  0  0
 41 73  1  0  0  0  0
 41 80  2  0  0  0  0
 42 67  1  0  0  0  0
 42 70  1  0  0  0  0
 42 81  2  0  0  0  0
 43 46  1  0  0  0  0
 44 53  1  0  0  0  0
 45 66  1  0  0  0  0
 46 48  1  0  0  0  0
 47 49  1  0  0  0  0
 47 50  1  0  0  0  0
 48 52  1  0  0  0  0
 49 54  1  0  0  0  0
 50 67  1  0  0  0  0
 51 54  1  0  0  0  0
 51 67  1  0  0  0  0
 52 72  1  0  0  0  0
 53 66  1  0  0  0  0
 54 65  1  0  0  0  0
 55 62  1  0  0  0  0
 56 63  1  0  0  0  0
 57 63  1  0  0  0  0
 58 63  1  0  0  0  0
 59 74  1  0  0  0  0
 60 84  1  0  0  0  0
 61 63  1  0  0  0  0
 61 73  1  0  0  0  0
 62 74  1  0  0  0  0
 64 65  1  0  0  0  0
M  CHG  1  74   1
M  ISO  4  35 101  42 100  70 100  83 101
M  END
> <Batch ID>
0083

> <Smiles>
CNC(C)C(=O)NC(C(=O)N1Cc2cc([101O:1][101CH:1]=CC(=O)NC(=O)c3cc([100NH:0][100C:0](=O)N4CCCC(n5nc(-c6ccc(Oc7ccc(F)cc7F)cc6)c(C(N)=O)c5N)C4)cc(OC)c3)ccc2CC1C(=O)NC1CCCc2ccccc21)C(C)(C)C

> <Shape>
0.303

> <Color>
0.103

> <Negative vol penalty>
0.000

$$$$

  -OEChem-04052300093D

 87 96  0     1  0  0  0  0  0999 V2000
  -29.7429  -35.5697   16.8774 C   0  0  0  0  0  0  0  0  0  0  0  0
  -29.5016  -34.2005   16.9280 C   0  0  0  0  0  0  0  0  0  0  0  0
  -22.8906  -10.9852   19.1179 C   0  0  0  0  0  0  0  0  0  0  0  0
  -23.1279   -9.7827   21.1999 C   0  0  0  0  0  0  0  0  0  0  0  0
  -28.3831  -18.0891   19.2962 C   0  0  0  0  0  0  0  0  0  0  0  0
  -29.6095  -36.3429   18.0300 C   0  0  0  0  0  0  0  0  0  0  0  0
  -29.1279  -33.6035   18.1314 C   0  0  0  0  0  0  0  0  0  0  0  0
  -25.2890  -28.8888   18.8660 C   0  0  0  0  0  0  0  0  0  0  0  0
  -27.5025  -19.1690   19.3596 C   0  0  0  0  0  0  0  0  0  0  0  0
  -21.8864  -10.1018   18.7221 C   0  0  0  0  0  0  0  0  0  0  0  0
  -22.1237   -8.8992   20.8041 C   0  0  0  0  0  0  0  0  0  0  0  0
  -25.5044  -27.5239   19.0518 C   0  0  0  0  0  0  0  0  0  0  0  0
  -18.7476   -8.8729   20.6565 C   0  0  0  0  0  0  0  0  0  0  0  0
  -17.7670   -8.5470   21.5934 C   0  0  0  0  0  0  0  0  0  0  0  0
  -30.0376  -19.3672   20.5069 C   0  0  0  0  0  0  0  0  0  0  0  0
  -25.3043  -27.8232   21.4371 C   0  0  0  0  0  0  0  0  0  0  0  0
  -25.1807  -22.6346   20.4663 C   0  0  0  0  0  0  0  0  0  0  0  0
  -18.3898   -6.2180   21.4351 C   0  0  0  0  0  0  0  0  0  0  0  0
  -27.2210  -22.6534   19.5140 C   0  0  0  0  0  0  0  0  0  0  0  0
  -23.5114  -10.8257   20.3568 C   0  0  0  0  0  0  0  0  0  0  0  0
  -29.6507  -18.1882   19.8699 C   0  0  0  0  0  0  0  0  0  0  0  0
  -24.3908  -12.9409   21.4793 C   0  0  0  0  0  0  0  0  0  0  0  0
  -29.2246  -35.7566   19.2460 C   0  0  0  0  0  0  0  0  0  0  0  0
  -25.0901  -29.7343   19.9669 C   0  0  0  0  0  0  0  0  0  0  0  0
  -28.9906  -34.3693   19.3016 C   0  0  0  0  0  0  0  0  0  0  0  0
  -25.0840  -29.1980   21.2624 C   0  0  0  0  0  0  0  0  0  0  0  0
  -26.1130  -23.4339   19.7598 C   0  0  0  0  0  0  0  0  0  0  0  0
  -27.8895  -20.3480   19.9966 C   0  0  0  0  0  0  0  0  0  0  0  0
  -29.1571  -20.4471   20.5703 C   0  0  0  0  0  0  0  0  0  0  0  0
  -21.5029   -9.0588   19.5652 C   0  0  0  0  0  0  0  0  0  0  0  0
  -25.5150  -26.9914   20.3377 C   0  0  0  0  0  0  0  0  0  0  0  0
  -19.5493   -7.8714   20.1088 C   0  0  0  0  0  0  0  0  0  0  0  0
  -17.5881   -7.2195   21.9827 C   0  0  0  0  0  0  0  0  0  0  0  0
  -19.3704   -6.5439   20.4981 C   0  0  0  0  0  0  0  0  0  0  0  0
  -24.5492  -11.7376   20.7660 C   0  0  0  0  0  0  0  0  0  0  0  0
  -25.6673  -13.4291   21.6167 C   0  0  0  0  0  0  0  0  0  0  0  0
  -25.7475  -21.3900   20.6309 C   0  0  0  0  0  0  0  0  0  0  0  0
  -30.5881  -17.0378   19.8012 C   0  0  0  0  0  0  0  0  0  0  0  0
  -23.1967  -13.5618   21.9735 C   0  0  0  0  0  0  0  0  0  0  0  0
  -26.6296  -32.2365   21.1804 C   0  0  0  0  0  0  0  0  0  0  0  0
  -24.0687  -32.3550   23.1679 C   0  0  0  0  0  0  0  0  0  0  0  0
  -21.4768  -30.7065   24.6551 C   0  0  0  0  0  0  0  0  0  0  0  0
  -30.6929  -14.5749   19.5850 C   0  0  0  0  0  0  0  0  0  0  0  0
  -29.1394  -36.6254   20.4759 C   0  0  0  0  0  0  0  0  0  0  0  0
  -24.8325  -31.1999   19.7480 C   0  0  0  0  0  0  0  0  0  0  0  0
  -24.8553  -30.0597   22.4763 C   0  0  0  0  0  0  0  0  0  0  0  0
  -28.3755  -35.9773   21.6278 C   0  0  0  0  0  0  0  0  0  0  0  0
  -30.1464  -11.2582   20.6793 C   0  0  0  0  0  0  0  0  0  0  0  0
  -28.8357  -34.5371   21.8302 C   0  0  0  0  0  0  0  0  0  0  0  0
  -28.6285  -11.1853   20.8669 C   0  0  0  0  0  0  0  0  0  0  0  0
  -30.5281  -12.1042   19.4655 C   0  0  0  0  0  0  0  0  0  0  0  0
  -28.4238  -13.3718   19.6173 C   0  0  0  0  0  0  0  0  0  0  0  0
  -28.5592  -33.6891   20.5828 C   0  0  1  0  0  0  0  0  0  0  0  0
  -25.1530  -32.0523   20.9720 C   0  0  1  0  0  0  0  0  0  0  0  0
  -27.9906  -12.5890   20.8674 C   0  0  1  0  0  0  0  0  0  0  0  0
  -19.5783  -31.0593   26.2578 C   0  0  0  0  0  0  0  0  0  0  0  0
  -26.0355  -32.3252   25.5004 C   0  0  0  0  0  0  0  0  0  0  0  0
  -24.1298  -31.7241   27.0088 C   0  0  0  0  0  0  0  0  0  0  0  0
  -24.1089  -33.8950   25.7803 C   0  0  0  0  0  0  0  0  0  0  0  0
  -19.4627  -29.9947   22.6068 C   0  0  0  0  0  0  0  0  0  0  0  0
  -25.9289  -24.8664   19.3532 C   0  0  0  0  0  0  0  0  0  1  0  0
  -23.7245  -31.7458   24.5056 C   0  0  1  0  0  0  0  0  0  0  0  0
  -20.0077  -31.0608   24.7989 C   0  0  2  0  0  0  0  0  0  0  0  0
  -24.5059  -32.4063   25.6763 C   0  0  0  0  0  0  0  0  0  0  0  0
  -25.8256  -11.4773   20.4708 N   0  0  0  0  0  0  0  0  0  0  0  0
  -26.9878  -21.4131   20.0483 N   0  0  0  0  0  0  0  0  0  0  0  0
  -26.4808  -12.5240   21.0011 N   0  0  0  0  0  0  0  0  0  0  0  0
  -24.6141  -31.4876   22.2108 N   0  0  0  0  0  0  0  0  0  0  0  0
  -29.8919  -13.4203   19.5466 N   0  0  0  0  0  0  0  0  0  0  0  0
  -29.5723  -21.6306   21.2225 N   0  0  0  0  0  0  0  0  0  0  0  0
  -26.1618  -14.5401   22.2028 N   0  0  0  0  0  0  0  0  0  0  0  0
  -21.9691  -12.9254   21.7450 N   0  0  0  0  0  0  0  0  0  0  0  0
  -29.9921  -15.7801   19.7057 N   0  0  0  0  0  0  0  0  0  0  0  0
  -27.1595  -33.3272   20.5178 N   0  0  0  0  0  0  0  0  0  0  0  0
  -22.2736  -31.8316   24.6320 N   0  0  0  0  0  0  0  0  0  0  0  0
  -19.1636  -30.0801   24.0595 N   0  3  0  0  0  0  0  0  0  0  0  0
  -31.7973  -17.2515   19.7922 O   0  0  0  0  0  0  0  0  0  0  0  0
  -23.2161  -14.6570   22.5849 O   0  0  0  0  0  0  0  0  0  0  0  0
  -27.2424  -31.4484   21.8910 O   0  0  0  0  0  0  0  0  0  0  0  0
  -23.8547  -33.5547   22.9767 O   0  0  0  0  0  0  0  0  0  0  0  0
  -21.8778  -29.5475   24.5752 O   0  0  0  0  0  0  0  0  0  0  0  0
  -31.9269  -14.5345   19.5533 O   0  0  0  0  0  0  0  0  0  0  0  0
  -25.2767  -20.3001   21.2249 O   0  0  0  0  0  0  0  0  0  0  0  0
  -20.5229   -8.1967   19.1794 O   0  0  0  0  0  0  0  0  0  0  0  0
  -25.7257  -25.6596   20.5219 O   0  0  0  0  0  0  0  0  0  1  0  0
  -16.6475   -6.9069   22.8836 F   0  0  0  0  0  0  0  0  0  0  0  0
  -20.1383   -5.5776   19.9763 F   0  0  0  0  0  0  0  0  0  0  0  0
  1  2  1  0  0  0  0
  1  6  2  0  0  0  0
  2  7  2  0  0  0  0
  3 10  2  0  0  0  0
  3 20  1  0  0  0  0
  4 11  1  0  0  0  0
  4 20  2  0  0  0  0
  5  9  2  0  0  0  0
  5 21  1  0  0  0  0
  6 23  1  0  0  0  0
  7 25  1  0  0  0  0
  8 12  2  0  0  0  0
  8 24  1  0  0  0  0
  9 28  1  0  0  0  0
 10 30  1  0  0  0  0
 11 30  2  0  0  0  0
 12 31  1  0  0  0  0
 13 14  2  0  0  0  0
 13 32  1  0  0  0  0
 14 33  1  0  0  0  0
 15 21  2  0  0  0  0
 15 29  1  0  0  0  0
 16 26  1  0  0  0  0
 16 31  2  0  0  0  0
 17 27  1  0  0  0  0
 17 37  2  0  0  0  0
 18 33  2  0  0  0  0
 18 34  1  0  0  0  0
 19 27  2  0  0  0  0
 19 66  1  0  0  0  0
 20 35  1  0  0  0  0
 21 38  1  0  0  0  0
 22 35  1  0  0  0  0
 22 36  2  0  0  0  0
 22 39  1  0  0  0  0
 23 25  2  0  0  0  0
 23 44  1  0  0  0  0
 24 26  2  0  0  0  0
 24 45  1  0  0  0  0
 25 53  1  0  0  0  0
 26 46  1  0  0  0  0
 27 61  1  0  0  0  0
 28 29  2  0  0  0  0
 28 66  1  0  0  0  0
 29 70  1  0  0  0  0
 30 84  1  0  0  0  0
 31 85  1  0  0  0  0
 32 34  2  0  0  0  0
 32 84  1  0  0  0  0
 33 86  1  0  0  0  0
 34 87  1  0  0  0  0
 35 65  2  0  0  0  0
 36 67  1  0  0  0  0
 36 71  1  0  0  0  0
 37 66  1  0  0  0  0
 37 83  1  0  0  0  0
 38 73  1  0  0  0  0
 38 77  2  0  0  0  0
 39 72  1  0  0  0  0
 39 78  2  0  0  0  0
 40 54  1  0  0  0  0
 40 74  1  0  0  0  0
 40 79  2  0  0  0  0
 41 62  1  0  0  0  0
 41 68  1  0  0  0  0
 41 80  2  0  0  0  0
 42 63  1  0  0  0  0
 42 75  1  0  0  0  0
 42 81  2  0  0  0  0
 43 69  1  0  0  0  0
 43 73  1  0  0  0  0
 43 82  2  0  0  0  0
 44 47  1  0  0  0  0
 45 54  1  0  0  0  0
 46 68  1  0  0  0  0
 47 49  1  0  0  0  0
 48 50  1  0  0  0  0
 48 51  1  0  0  0  0
 49 53  1  0  0  0  0
 50 55  1  0  0  0  0
 51 69  1  0  0  0  0
 52 55  1  0  0  0  0
 52 69  1  0  0  0  0
 53 74  1  0  0  0  0
 54 68  1  0  0  0  0
 55 67  1  0  0  0  0
 56 63  1  0  0  0  0
 57 64  1  0  0  0  0
 58 64  1  0  0  0  0
 59 64  1  0  0  0  0
 60 76  1  0  0  0  0
 61 85  1  0  0  0  0
 62 64  1  0  0  0  0
 62 75  1  0  0  0  0
 63 76  1  0  0  0  0
 65 67  1  0  0  0  0
M  CHG  1  76   1
M  ISO  4  43 100  61 101  73 100  85 101
M  END
> <Batch ID>
0083

> <Smiles>
CNC(C)C(=O)NC(C(=O)N1Cc2cc([101O:1][101CH2:1]C3=CN(c4ccc(C(=O)[100NH:0][100C:0](=O)N5CCCC(n6nc(-c7ccc(Oc8ccc(F)cc8F)cc7)c(C(N)=O)c6N)C5)cc4N)C(=O)C3)ccc2CC1C(=O)NC1CCCc2ccccc21)C(C)(C)C

> <Shape>
0.264

> <Color>
0.103

> <Negative vol penalty>
0.000

$$$$

  -OEChem-04052300093D

 87 96  0     1  0  0  0  0  0999 V2000
  -30.1575  -33.1965   24.7619 C   0  0  0  0  0  0  0  0  0  0  0  0
  -29.7385  -31.9082   24.4457 C   0  0  0  0  0  0  0  0  0  0  0  0
  -22.9035  -10.0057   19.9967 C   0  0  0  0  0  0  0  0  0  0  0  0
  -24.6070   -9.2114   21.5148 C   0  0  0  0  0  0  0  0  0  0  0  0
  -29.2153  -34.1994   24.9862 C   0  0  0  0  0  0  0  0  0  0  0  0
  -28.3768  -31.6217   24.3548 C   0  0  0  0  0  0  0  0  0  0  0  0
  -27.2464  -28.8318   20.2825 C   0  0  0  0  0  0  0  0  0  0  0  0
  -21.9174   -9.4550   20.8151 C   0  0  0  0  0  0  0  0  0  0  0  0
  -23.6208   -8.6608   22.3333 C   0  0  0  0  0  0  0  0  0  0  0  0
  -27.5217  -27.4668   20.3494 C   0  0  0  0  0  0  0  0  0  0  0  0
  -21.6678   -5.9012   22.3693 C   0  0  0  0  0  0  0  0  0  0  0  0
  -21.8727   -4.6082   22.8508 C   0  0  0  0  0  0  0  0  0  0  0  0
  -25.2000  -27.0285   20.8360 C   0  0  0  0  0  0  0  0  0  0  0  0
  -25.5311  -20.3597   19.9463 C   0  0  0  0  0  0  0  0  0  0  0  0
  -25.4542  -18.1071   19.0764 C   0  0  0  0  0  0  0  0  0  0  0  0
  -27.3910  -18.8608   20.3084 C   0  0  0  0  0  0  0  0  0  0  0  0
  -21.7782   -5.4377   25.1180 C   0  0  0  0  0  0  0  0  0  0  0  0
  -24.2484   -9.8838   20.3465 C   0  0  0  0  0  0  0  0  0  0  0  0
  -25.5270  -10.1376   18.1537 C   0  0  0  0  0  0  0  0  0  0  0  0
  -27.8415  -33.9274   24.8884 C   0  0  0  0  0  0  0  0  0  0  0  0
  -25.9457  -29.3072   20.5029 C   0  0  0  0  0  0  0  0  0  0  0  0
  -27.4153  -32.6216   24.5793 C   0  0  0  0  0  0  0  0  0  0  0  0
  -24.9103  -28.3998   20.7687 C   0  0  0  0  0  0  0  0  0  0  0  0
  -24.8599  -19.3577   19.2456 C   0  0  0  0  0  0  0  0  0  0  0  0
  -26.7967  -20.1113   20.4776 C   0  0  0  0  0  0  0  0  0  0  0  0
  -26.7197  -17.8587   19.6078 C   0  0  0  0  0  0  0  0  0  0  0  0
  -22.2760   -8.7826   21.9834 C   0  0  0  0  0  0  0  0  0  0  0  0
  -26.4990  -26.5651   20.6291 C   0  0  0  0  0  0  0  0  0  0  0  0
  -21.5181   -6.9624   23.2621 C   0  0  0  0  0  0  0  0  0  0  0  0
  -21.9279   -4.3765   24.2252 C   0  0  0  0  0  0  0  0  0  0  0  0
  -21.5733   -6.7307   24.6364 C   0  0  0  0  0  0  0  0  0  0  0  0
  -25.2676  -10.4519   19.5012 C   0  0  0  0  0  0  0  0  0  0  0  0
  -26.5847  -10.9438   17.8105 C   0  0  0  0  0  0  0  0  0  0  0  0
  -28.0099  -23.5106   21.7806 C   0  0  0  0  0  0  0  0  0  0  0  0
  -28.9672  -23.0597   22.7771 C   0  0  0  0  0  0  0  0  0  0  0  0
  -27.2910  -22.5128   20.8990 C   0  0  0  0  0  0  0  0  0  0  0  0
  -30.0553  -23.7501   23.1544 C   0  0  0  0  0  0  0  0  0  0  0  0
  -27.6701  -24.8024   21.6253 C   0  0  0  0  0  0  0  0  0  1  0  0
  -24.8705   -9.2007   17.2894 C   0  0  0  0  0  0  0  0  0  0  0  0
  -24.5934  -31.2330   22.6398 C   0  0  0  0  0  0  0  0  0  0  0  0
  -21.9872  -30.8664   20.7435 C   0  0  0  0  0  0  0  0  0  0  0  0
  -20.3227  -28.9761   18.4407 C   0  0  0  0  0  0  0  0  0  0  0  0
  -28.5735  -16.1776   19.8979 C   0  0  0  0  0  0  0  0  0  0  0  0
  -26.8596  -35.0328   25.1860 C   0  0  0  0  0  0  0  0  0  0  0  0
  -25.6599  -30.7804   20.4007 C   0  0  0  0  0  0  0  0  0  0  0  0
  -23.4929  -28.8574   20.9930 C   0  0  0  0  0  0  0  0  0  0  0  0
  -28.6716  -21.7006   23.3252 C   0  0  0  0  0  0  0  0  0  0  0  0
  -25.4427  -34.7355   24.7021 C   0  0  0  0  0  0  0  0  0  0  0  0
  -30.3999  -13.1270   19.7110 C   0  0  0  0  0  0  0  0  0  0  0  0
  -25.0299  -33.3208   25.0959 C   0  0  0  0  0  0  0  0  0  0  0  0
  -29.3152  -12.0669   19.5072 C   0  0  0  0  0  0  0  0  0  0  0  0
  -28.5185  -20.7252   22.1709 C   0  0  0  0  0  0  0  0  0  0  0  0
  -29.9361  -14.2401   20.6489 C   0  0  0  0  0  0  0  0  0  0  0  0
  -27.5785  -13.8125   20.0763 C   0  0  0  0  0  0  0  0  0  0  0  0
  -25.9475  -32.2776   24.4470 C   0  0  1  0  0  0  0  0  0  0  0  0
  -24.3985  -31.1978   21.1504 C   0  0  1  0  0  0  0  0  0  0  0  0
  -27.9760  -12.7043   19.0876 C   0  0  2  0  0  0  0  0  0  0  0  0
  -23.5072  -19.6242   18.6764 C   0  0  0  0  0  0  0  0  0  0  0  0
  -18.1985  -28.9163   17.1059 C   0  0  0  0  0  0  0  0  0  0  0  0
  -20.4466  -30.0203   23.2376 C   0  0  0  0  0  0  0  0  0  0  0  0
  -18.6730  -29.0835   21.7393 C   0  0  0  0  0  0  0  0  0  0  0  0
  -19.1824  -31.5250   21.6909 C   0  0  0  0  0  0  0  0  0  0  0  0
  -21.7968  -29.0325   15.8751 C   0  0  0  0  0  0  0  0  0  0  0  0
  -20.8337  -29.8941   20.6880 C   0  0  1  0  0  0  0  0  0  0  0  0
  -19.6578  -29.3440   17.1266 C   0  0  2  0  0  0  0  0  0  0  0  0
  -19.8109  -30.1219   21.8367 C   0  0  0  0  0  0  0  0  0  0  0  0
  -26.0940  -11.3849   19.9813 N   0  0  0  0  0  0  0  0  0  0  0  0
  -26.8831  -11.6637   18.9298 N   0  0  0  0  0  0  0  0  0  0  0  0
  -27.4922  -21.1507   21.2039 N   0  0  0  0  0  0  0  0  0  0  0  0
  -23.2652  -30.3082   20.8889 N   0  0  0  0  0  0  0  0  0  0  0  0
  -28.6641  -14.7994   20.1863 N   0  0  0  0  0  0  0  0  0  0  0  0
  -27.2793  -11.1000   16.6636 N   0  0  0  0  0  0  0  0  0  0  0  0
  -25.3504   -7.8847   17.2431 N   0  0  0  0  0  0  0  0  0  0  0  0
  -27.3240  -16.5888   19.4347 N   0  0  0  0  0  0  0  0  0  0  0  0
  -25.5947  -32.0895   23.0561 N   0  0  0  0  0  0  0  0  0  0  0  0
  -20.2650  -30.0114   19.3496 N   0  0  0  0  0  0  0  0  0  0  0  0
  -20.3575  -28.6826   15.9890 N   0  3  0  0  0  0  0  0  0  0  0  0
  -26.6065  -22.9275   19.9616 O   0  0  0  0  0  0  0  0  0  0  0  0
  -23.8977   -9.5253   16.5670 O   0  0  0  0  0  0  0  0  0  0  0  0
  -23.8866  -30.5359   23.3583 O   0  0  0  0  0  0  0  0  0  0  0  0
  -21.7634  -32.0761   20.6537 O   0  0  0  0  0  0  0  0  0  0  0  0
  -20.8381  -27.8787   18.6422 O   0  0  0  0  0  0  0  0  0  0  0  0
  -29.5412  -16.9322   20.0247 O   0  0  0  0  0  0  0  0  0  0  0  0
  -21.3139   -8.2453   22.7824 O   0  0  0  0  0  0  0  0  0  0  0  0
  -26.7652  -25.2322   20.6957 O   0  0  0  0  0  0  0  0  0  1  0  0
  -22.1232   -3.1346   24.6875 F   0  0  0  0  0  0  0  0  0  0  0  0
  -21.4290   -7.7460   25.4990 F   0  0  0  0  0  0  0  0  0  0  0  0
  1  2  1  0  0  0  0
  1  5  2  0  0  0  0
  2  6  2  0  0  0  0
  3  8  2  0  0  0  0
  3 18  1  0  0  0  0
  4  9  1  0  0  0  0
  4 18  2  0  0  0  0
  5 20  1  0  0  0  0
  6 22  1  0  0  0  0
  7 10  2  0  0  0  0
  7 21  1  0  0  0  0
  8 27  1  0  0  0  0
  9 27  2  0  0  0  0
 10 28  1  0  0  0  0
 11 12  2  0  0  0  0
 11 29  1  0  0  0  0
 12 30  1  0  0  0  0
 13 23  1  0  0  0  0
 13 28  2  0  0  0  0
 14 24  2  0  0  0  0
 14 25  1  0  0  0  0
 15 24  1  0  0  0  0
 15 26  2  0  0  0  0
 16 25  2  0  0  0  0
 16 26  1  0  0  0  0
 17 30  2  0  0  0  0
 17 31  1  0  0  0  0
 18 32  1  0  0  0  0
 19 32  1  0  0  0  0
 19 33  2  0  0  0  0
 19 39  1  0  0  0  0
 20 22  2  0  0  0  0
 20 44  1  0  0  0  0
 21 23  2  0  0  0  0
 21 45  1  0  0  0  0
 22 55  1  0  0  0  0
 23 46  1  0  0  0  0
 24 58  1  0  0  0  0
 25 69  1  0  0  0  0
 26 74  1  0  0  0  0
 27 84  1  0  0  0  0
 28 85  1  0  0  0  0
 29 31  2  0  0  0  0
 29 84  1  0  0  0  0
 30 86  1  0  0  0  0
 31 87  1  0  0  0  0
 32 67  2  0  0  0  0
 33 68  1  0  0  0  0
 33 72  1  0  0  0  0
 34 35  1  0  0  0  0
 34 36  1  0  0  0  0
 34 38  2  0  0  0  0
 35 37  2  0  0  0  0
 35 47  1  0  0  0  0
 36 69  1  0  0  0  0
 36 78  2  0  0  0  0
 38 85  1  0  0  0  0
 39 73  1  0  0  0  0
 39 79  2  0  0  0  0
 40 56  1  0  0  0  0
 40 75  1  0  0  0  0
 40 80  2  0  0  0  0
 41 64  1  0  0  0  0
 41 70  1  0  0  0  0
 41 81  2  0  0  0  0
 42 65  1  0  0  0  0
 42 76  1  0  0  0  0
 42 82  2  0  0  0  0
 43 71  1  0  0  0  0
 43 74  1  0  0  0  0
 43 83  2  0  0  0  0
 44 48  1  0  0  0  0
 45 56  1  0  0  0  0
 46 70  1  0  0  0  0
 47 52  1  0  0  0  0
 48 50  1  0  0  0  0
 49 51  1  0  0  0  0
 49 53  1  0  0  0  0
 50 55  1  0  0  0  0
 51 57  1  0  0  0  0
 52 69  1  0  0  0  0
 53 71  1  0  0  0  0
 54 57  1  0  0  0  0
 54 71  1  0  0  0  0
 55 75  1  0  0  0  0
 56 70  1  0  0  0  0
 57 68  1  0  0  0  0
 59 65  1  0  0  0  0
 60 66  1  0  0  0  0
 61 66  1  0  0  0  0
 62 66  1  0  0  0  0
 63 77  1  0  0  0  0
 64 66  1  0  0  0  0
 64 76  1  0  0  0  0
 65 77  1  0  0  0  0
 67 68  1  0  0  0  0
M  CHG  1  77   1
M  ISO  4  38 101  43 100  74 100  85 101
M  END
> <Batch ID>
0083

> <Smiles>
C=C1CCN(c2cc(C)cc([100NH:0][100C:0](=O)N3CCCC(n4nc(-c5ccc(Oc6ccc(F)cc6F)cc5)c(C(N)=O)c4N)C3)c2)C(=O)C1=[101CH:1][101O:1]c1ccc2c(c1)CN(C(=O)C(NC(=O)C(C)NC)C(C)(C)C)C(C(=O)NC1CCCc3ccccc31)C2

> <Shape>
0.287

> <Color>
0.097

> <Negative vol penalty>
0.000

$$$$

  -OEChem-04052300093D

 86 95  0     1  0  0  0  0  0999 V2000
  -15.7068  -26.0805   23.0165 C   0  0  0  0  0  0  0  0  0  0  0  0
  -16.8814  -25.7717   22.3381 C   0  0  0  0  0  0  0  0  0  0  0  0
  -23.0617   -9.9164   19.9872 C   0  0  0  0  0  0  0  0  0  0  0  0
  -23.4673  -10.1083   22.3612 C   0  0  0  0  0  0  0  0  0  0  0  0
  -15.5679  -27.3205   23.6386 C   0  0  0  0  0  0  0  0  0  0  0  0
  -17.9174  -26.7032   22.2804 C   0  0  0  0  0  0  0  0  0  0  0  0
  -22.4487  -24.6273   23.1765 C   0  0  0  0  0  0  0  0  0  0  0  0
  -22.2295   -8.8210   20.2179 C   0  0  0  0  0  0  0  0  0  0  0  0
  -22.6350   -9.0129   22.5919 C   0  0  0  0  0  0  0  0  0  0  0  0
  -23.0404  -23.9155   22.1339 C   0  0  0  0  0  0  0  0  0  0  0  0
  -22.8327   -5.6447   22.3753 C   0  0  0  0  0  0  0  0  0  0  0  0
  -23.2788   -4.6680   23.2656 C   0  0  0  0  0  0  0  0  0  0  0  0
  -24.4266  -25.8232   21.6260 C   0  0  0  0  0  0  0  0  0  0  0  0
  -21.3514   -5.0654   24.6673 C   0  0  0  0  0  0  0  0  0  0  0  0
  -23.6806  -10.5600   21.0589 C   0  0  0  0  0  0  0  0  0  0  0  0
  -24.1680  -13.0479   20.7754 C   0  0  0  0  0  0  0  0  0  0  0  0
  -16.6065  -28.2640   23.5967 C   0  0  0  0  0  0  0  0  0  0  0  0
  -22.8345  -25.9484   23.4452 C   0  0  0  0  0  0  0  0  0  0  0  0
  -17.7917  -27.9575   22.9013 C   0  0  0  0  0  0  0  0  0  0  0  0
  -23.8401  -26.5488   22.6742 C   0  0  0  0  0  0  0  0  0  0  0  0
  -22.0162   -8.3693   21.5202 C   0  0  0  0  0  0  0  0  0  0  0  0
  -24.0274  -24.5144   21.3567 C   0  0  0  0  0  0  0  0  0  0  0  0
  -21.6460   -6.3318   22.6310 C   0  0  0  0  0  0  0  0  0  0  0  0
  -22.5382   -4.3783   24.4116 C   0  0  0  0  0  0  0  0  0  0  0  0
  -20.9053   -6.0421   23.7770 C   0  0  0  0  0  0  0  0  0  0  0  0
  -24.5408  -11.6912   20.8212 C   0  0  0  0  0  0  0  0  0  0  0  0
  -25.3399  -13.7178   20.5219 C   0  0  0  0  0  0  0  0  0  0  0  0
  -27.3743  -18.1735   17.5149 C   0  0  0  0  0  0  0  0  0  0  0  0
  -27.8671  -17.0104   17.0787 C   0  0  0  0  0  0  0  0  0  0  0  0
  -28.4939  -18.5723   19.7025 C   0  0  0  0  0  0  0  0  0  0  0  0
  -29.4933  -16.3799   18.9962 C   0  0  0  0  0  0  0  0  0  0  0  0
  -27.6475  -18.9179   18.7221 C   0  0  0  0  0  0  0  0  0  0  0  0
  -29.3331  -17.4139   19.8251 C   0  0  0  0  0  0  0  0  0  0  0  0
  -28.8602  -16.0932   17.6890 C   0  0  0  0  0  0  0  0  0  0  0  0
  -25.8689  -21.9049   19.7228 C   0  0  0  0  0  0  0  0  0  0  0  0
  -26.5819  -20.6479   20.0668 C   0  0  0  0  0  0  0  0  0  0  0  0
  -25.2653  -22.6637   20.6403 C   0  0  0  0  0  0  0  0  0  1  0  0
  -22.8776  -13.6490   20.9468 C   0  0  0  0  0  0  0  0  0  0  0  0
  -21.3591  -28.7639   23.4270 C   0  0  0  0  0  0  0  0  0  0  0  0
  -24.1786  -29.8109   24.6422 C   0  0  0  0  0  0  0  0  0  0  0  0
  -27.5400  -29.3333   24.9883 C   0  0  0  0  0  0  0  0  0  0  0  0
  -30.0857  -14.1574   17.5959 C   0  0  0  0  0  0  0  0  0  0  0  0
  -16.3917  -29.6093   24.2439 C   0  0  0  0  0  0  0  0  0  0  0  0
  -22.2055  -26.6936   24.5904 C   0  0  0  0  0  0  0  0  0  0  0  0
  -24.3043  -27.9577   22.9347 C   0  0  0  0  0  0  0  0  0  0  0  0
  -25.9292  -22.1421   18.2483 C   0  0  0  0  0  0  0  0  0  0  0  0
  -17.6823  -30.3968   24.4546 C   0  0  0  0  0  0  0  0  0  0  0  0
  -30.1329  -12.1283   20.5838 C   0  0  0  0  0  0  0  0  0  0  0  0
  -18.5382  -30.3667   23.1923 C   0  0  0  0  0  0  0  0  0  0  0  0
  -28.6494  -11.9160   20.8835 C   0  0  0  0  0  0  0  0  0  0  0  0
  -26.5037  -20.8421   17.7022 C   0  0  0  0  0  0  0  0  0  0  0  0
  -30.3987  -12.1794   19.0826 C   0  0  0  0  0  0  0  0  0  0  0  0
  -28.0953  -12.9962   18.6590 C   0  0  0  0  0  0  0  0  0  0  0  0
  -18.9477  -28.9321   22.8375 C   0  0  1  0  0  0  0  0  0  0  0  0
  -22.3118  -28.2088   24.4477 C   0  0  1  0  0  0  0  0  0  0  0  0
  -27.7848  -12.9674   20.1655 C   0  0  1  0  0  0  0  0  0  0  0  0
  -29.5837  -30.3770   26.0039 C   0  0  0  0  0  0  0  0  0  0  0  0
  -24.2335  -31.8794   22.3998 C   0  0  0  0  0  0  0  0  0  0  0  0
  -26.6658  -32.2310   22.8782 C   0  0  0  0  0  0  0  0  0  0  0  0
  -24.9655  -32.7399   24.6310 C   0  0  0  0  0  0  0  0  0  0  0  0
  -28.0236  -26.9811   26.7182 C   0  0  0  0  0  0  0  0  0  0  0  0
  -25.4688  -30.3301   24.0550 C   0  0  1  0  0  0  0  0  0  0  0  0
  -28.4452  -29.3891   26.2057 C   0  0  2  0  0  0  0  0  0  0  0  0
  -25.3235  -31.7692   23.4846 C   0  0  0  0  0  0  0  0  0  0  0  0
  -25.8475  -11.5083   20.6132 N   0  0  0  0  0  0  0  0  0  0  0  0
  -29.1615  -15.0218   17.0394 N   0  0  0  0  0  0  0  0  0  0  0  0
  -26.3059  -12.7589   20.4343 N   0  0  0  0  0  0  0  0  0  0  0  0
  -26.9585  -20.0885   18.8501 N   0  0  0  0  0  0  0  0  0  0  0  0
  -23.6545  -28.6472   24.0615 N   0  0  0  0  0  0  0  0  0  0  0  0
  -29.5362  -13.1637   18.4272 N   0  0  0  0  0  0  0  0  0  0  0  0
  -25.6282  -15.0275   20.3675 N   0  0  0  0  0  0  0  0  0  0  0  0
  -21.7804  -12.8148   21.2009 N   0  0  0  0  0  0  0  0  0  0  0  0
  -20.0305  -28.4902   23.6900 N   0  0  0  0  0  0  0  0  0  0  0  0
  -26.4752  -30.2017   25.1035 N   0  0  0  0  0  0  0  0  0  0  0  0
  -29.0311  -28.0460   26.4775 N   0  3  0  0  0  0  0  0  0  0  0  0
  -26.7757  -20.2362   21.1987 O   0  0  0  0  0  0  0  0  0  0  0  0
  -22.7000  -14.8877   20.8604 O   0  0  0  0  0  0  0  0  0  0  0  0
  -21.7970  -29.3951   22.4722 O   0  0  0  0  0  0  0  0  0  0  0  0
  -23.6588  -30.4114   25.5860 O   0  0  0  0  0  0  0  0  0  0  0  0
  -27.7579  -28.5960   24.0294 O   0  0  0  0  0  0  0  0  0  0  0  0
  -31.3007  -14.2290   17.3957 O   0  0  0  0  0  0  0  0  0  0  0  0
  -21.2040   -7.3006   21.7457 O   0  0  0  0  0  0  0  0  0  0  0  0
  -24.6061  -23.8220   20.3380 O   0  0  0  0  0  0  0  0  0  1  0  0
  -22.9659   -3.4393   25.2657 F   0  0  0  0  0  0  0  0  0  0  0  0
  -19.7639   -6.6980   24.0273 F   0  0  0  0  0  0  0  0  0  0  0  0
  -30.0698  -17.3870   20.9640 F   0  0  0  0  0  0  0  0  0  0  0  0
  1  2  1  0  0  0  0
  1  5  2  0  0  0  0
  2  6  2  0  0  0  0
  3  8  2  0  0  0  0
  3 15  1  0  0  0  0
  4  9  1  0  0  0  0
  4 15  2  0  0  0  0
  5 17  1  0  0  0  0
  6 19  1  0  0  0  0
  7 10  2  0  0  0  0
  7 18  1  0  0  0  0
  8 21  1  0  0  0  0
  9 21  2  0  0  0  0
 10 22  1  0  0  0  0
 11 12  2  0  0  0  0
 11 23  1  0  0  0  0
 12 24  1  0  0  0  0
 13 20  1  0  0  0  0
 13 22  2  0  0  0  0
 14 24  2  0  0  0  0
 14 25  1  0  0  0  0
 15 26  1  0  0  0  0
 16 26  1  0  0  0  0
 16 27  2  0  0  0  0
 16 38  1  0  0  0  0
 17 19  2  0  0  0  0
 17 43  1  0  0  0  0
 18 20  2  0  0  0  0
 18 44  1  0  0  0  0
 19 54  1  0  0  0  0
 20 45  1  0  0  0  0
 21 82  1  0  0  0  0
 22 83  1  0  0  0  0
 23 25  2  0  0  0  0
 23 82  1  0  0  0  0
 24 84  1  0  0  0  0
 25 85  1  0  0  0  0
 26 65  2  0  0  0  0
 27 67  1  0  0  0  0
 27 71  1  0  0  0  0
 28 29  2  0  0  0  0
 28 32  1  0  0  0  0
 29 34  1  0  0  0  0
 30 32  2  0  0  0  0
 30 33  1  0  0  0  0
 31 33  2  0  0  0  0
 31 34  1  0  0  0  0
 32 68  1  0  0  0  0
 33 86  1  0  0  0  0
 34 66  2  0  0  0  0
 35 36  1  0  0  0  0
 35 37  2  0  0  0  0
 35 46  1  0  0  0  0
 36 68  1  0  0  0  0
 36 76  2  0  0  0  0
 37 83  1  0  0  0  0
 38 72  1  0  0  0  0
 38 77  2  0  0  0  0
 39 55  1  0  0  0  0
 39 73  1  0  0  0  0
 39 78  2  0  0  0  0
 40 62  1  0  0  0  0
 40 69  1  0  0  0  0
 40 79  2  0  0  0  0
 41 63  1  0  0  0  0
 41 74  1  0  0  0  0
 41 80  2  0  0  0  0
 42 66  1  0  0  0  0
 42 70  1  0  0  0  0
 42 81  2  0  0  0  0
 43 47  1  0  0  0  0
 44 55  1  0  0  0  0
 45 69  1  0  0  0  0
 46 51  1  0  0  0  0
 47 49  1  0  0  0  0
 48 50  1  0  0  0  0
 48 52  1  0  0  0  0
 49 54  1  0  0  0  0
 50 56  1  0  0  0  0
 51 68  1  0  0  0  0
 52 70  1  0  0  0  0
 53 56  1  0  0  0  0
 53 70  1  0  0  0  0
 54 73  1  0  0  0  0
 55 69  1  0  0  0  0
 56 67  1  0  0  0  0
 57 63  1  0  0  0  0
 58 64  1  0  0  0  0
 59 64  1  0  0  0  0
 60 64  1  0  0  0  0
 61 75  1  0  0  0  0
 62 64  1  0  0  0  0
 62 74  1  0  0  0  0
 63 75  1  0  0  0  0
 65 67  1  0  0  0  0
M  CHG  1  75   1
M  ISO  4  37 101  42 100  66 100  83 101
M  END
> <Batch ID>
0083

> <Smiles>
CNC(C)C(=O)NC(C(=O)N1Cc2cc([101O:1][101CH:1]=C3CCN(c4ccc(=[100N:0][100C:0](=O)N5CCCC(n6nc(-c7ccc(Oc8ccc(F)cc8F)cc7)c(C(N)=O)c6N)C5)cc(F)c4)C3=O)ccc2CC1C(=O)NC1CCCc2ccccc21)C(C)(C)C

> <Shape>
0.328

> <Color>
0.195

> <Negative vol penalty>
0.000

$$$$

  -OEChem-04052300093D

 86 95  0     1  0  0  0  0  0999 V2000
  -22.4081   -8.4758   20.7304 C   0  0  0  0  0  0  0  0  0  0  0  0
  -21.8128   -9.7323   20.7773 C   0  0  0  0  0  0  0  0  0  0  0  0
  -18.0392  -27.7961   22.0346 C   0  0  0  0  0  0  0  0  0  0  0  0
  -29.9858  -28.4441   20.6715 C   0  0  0  0  0  0  0  0  0  0  0  0
  -28.5956  -27.3070   22.2874 C   0  0  0  0  0  0  0  0  0  0  0  0
  -18.1746  -26.4310   22.2870 C   0  0  0  0  0  0  0  0  0  0  0  0
  -23.7133   -8.3064   21.1905 C   0  0  0  0  0  0  0  0  0  0  0  0
  -22.5219  -10.8200   21.2856 C   0  0  0  0  0  0  0  0  0  0  0  0
  -22.1897  -16.6372   19.4002 C   0  0  0  0  0  0  0  0  0  0  0  0
  -19.1433  -28.6402   22.1533 C   0  0  0  0  0  0  0  0  0  0  0  0
  -31.1233  -28.0695   21.3865 C   0  0  0  0  0  0  0  0  0  0  0  0
  -29.7331  -26.9323   23.0024 C   0  0  0  0  0  0  0  0  0  0  0  0
  -21.4948  -17.7431   19.8879 C   0  0  0  0  0  0  0  0  0  0  0  0
  -32.1576  -24.5893   22.7731 C   0  0  0  0  0  0  0  0  0  0  0  0
  -32.2363  -23.2695   23.2177 C   0  0  0  0  0  0  0  0  0  0  0  0
  -20.5182  -26.7541   22.7770 C   0  0  0  0  0  0  0  0  0  0  0  0
  -23.4625  -18.4383   21.0979 C   0  0  0  0  0  0  0  0  0  0  0  0
  -32.3711  -24.0468   25.5013 C   0  0  0  0  0  0  0  0  0  0  0  0
  -28.7219  -28.0630   21.1220 C   0  0  0  0  0  0  0  0  0  0  0  0
  -19.4141  -25.9100   22.6583 C   0  0  0  0  0  0  0  0  0  0  0  0
  -27.2351  -28.1263   19.0500 C   0  0  0  0  0  0  0  0  0  0  0  0
  -24.4422   -9.3945   21.6958 C   0  0  0  0  0  0  0  0  0  0  0  0
  -23.5252  -16.4173   19.7669 C   0  0  0  0  0  0  0  0  0  0  0  0
  -23.8376  -10.6647   21.7542 C   0  0  0  0  0  0  0  0  0  0  0  0
  -24.1729  -17.3303   20.6113 C   0  0  0  0  0  0  0  0  0  0  0  0
  -20.3828  -28.1193   22.5245 C   0  0  0  0  0  0  0  0  0  0  0  0
  -30.9970  -27.3135   22.5519 C   0  0  0  0  0  0  0  0  0  0  0  0
  -22.1303  -18.6423   20.7392 C   0  0  0  0  0  0  0  0  0  0  0  0
  -32.1858  -25.6378   23.6926 C   0  0  0  0  0  0  0  0  0  0  0  0
  -32.3430  -22.9983   24.5818 C   0  0  0  0  0  0  0  0  0  0  0  0
  -32.2925  -25.3666   25.0567 C   0  0  0  0  0  0  0  0  0  0  0  0
  -27.5464  -28.4502   20.3842 C   0  0  0  0  0  0  0  0  0  0  0  0
  -26.0208  -28.7274   18.8251 C   0  0  0  0  0  0  0  0  0  0  0  0
  -20.4107  -22.7048   19.7749 C   0  0  0  0  0  0  0  0  0  0  0  0
  -20.2676  -21.7153   20.6600 C   0  0  0  0  0  0  0  0  0  0  0  0
  -20.1546  -23.9696   20.4889 C   0  0  0  0  0  0  0  0  0  0  0  0
  -19.5554  -24.4709   22.9240 C   0  0  0  0  0  0  0  0  0  0  0  0
  -27.9773  -27.3514   18.0990 C   0  0  0  0  0  0  0  0  0  0  0  0
  -25.0746  -14.1198   21.3239 C   0  0  0  0  0  0  0  0  0  0  0  0
  -27.6892  -15.8335   20.4582 C   0  0  0  0  0  0  0  0  0  0  0  0
  -29.0056  -18.8452   19.5397 C   0  0  0  0  0  0  0  0  0  0  0  0
  -21.5414  -30.3542   22.4298 C   0  0  0  0  0  0  0  0  0  0  0  0
  -25.8335   -9.1530   22.2254 C   0  0  0  0  0  0  0  0  0  0  0  0
  -24.2690  -15.2341   19.2108 C   0  0  0  0  0  0  0  0  0  0  0  0
  -25.6116  -17.1505   21.0190 C   0  0  0  0  0  0  0  0  0  0  0  0
  -19.9149  -22.2038   22.0194 C   0  0  0  0  0  0  0  0  0  0  0  0
  -26.6484  -10.4317   22.4022 C   0  0  0  0  0  0  0  0  0  0  0  0
  -23.3760  -32.4657   20.2268 C   0  0  0  0  0  0  0  0  0  0  0  0
  -25.8181  -11.5011   23.1048 C   0  0  0  0  0  0  0  0  0  0  0  0
  -24.6224  -31.6436   19.8909 C   0  0  0  0  0  0  0  0  0  0  0  0
  -22.9388  -32.2661   21.6769 C   0  0  0  0  0  0  0  0  0  0  0  0
  -24.0019  -30.0449   21.7473 C   0  0  0  0  0  0  0  0  0  0  0  0
  -24.5832  -11.8740   22.2756 C   0  0  1  0  0  0  0  0  0  0  0  0
  -25.4700  -14.8303   20.0604 C   0  0  1  0  0  0  0  0  0  0  0  0
  -24.4423  -30.1629   20.2790 C   0  0  2  0  0  0  0  0  0  0  0  0
  -31.1797  -19.9425   18.9343 C   0  0  0  0  0  0  0  0  0  0  0  0
  -28.4955  -15.8541   23.4009 C   0  0  0  0  0  0  0  0  0  0  0  0
  -30.0913  -17.7112   22.8787 C   0  0  0  0  0  0  0  0  0  0  0  0
  -30.3836  -15.4789   21.8045 C   0  0  0  0  0  0  0  0  0  0  0  0
  -28.0257  -19.5619   16.8406 C   0  0  0  0  0  0  0  0  0  0  0  0
  -20.4244  -20.2621   20.3899 C   0  0  0  0  0  0  0  0  0  1  0  0
  -28.4757  -16.9669   21.0712 C   0  0  1  0  0  0  0  0  0  0  0  0
  -29.9415  -19.2327   18.4091 C   0  0  2  0  0  0  0  0  0  0  0  0
  -29.3338  -16.5054   22.2829 C   0  0  0  0  0  0  0  0  0  0  0  0
  -26.6057  -29.1989   20.9660 N   0  0  0  0  0  0  0  0  0  0  0  0
  -25.6915  -29.3507   19.9927 N   0  0  0  0  0  0  0  0  0  0  0  0
  -19.8957  -23.6412   21.8408 N   0  0  0  0  0  0  0  0  0  0  0  0
  -26.2943  -15.9748   20.4541 N   0  0  0  0  0  0  0  0  0  0  0  0
  -22.7842  -30.8398   21.9710 N   0  0  0  0  0  0  0  0  0  0  0  0
  -25.2132  -28.7783   17.7445 N   0  0  0  0  0  0  0  0  0  0  0  0
  -27.7474  -25.9702   18.0377 N   0  0  0  0  0  0  0  0  0  0  0  0
  -21.5043  -28.9769   22.6448 N   0  0  0  0  0  0  0  0  0  0  0  0
  -24.9528  -12.7504   21.1849 N   0  0  0  0  0  0  0  0  0  0  0  0
  -29.2467  -17.5629   19.9855 N   0  0  0  0  0  0  0  0  0  0  0  0
  -29.2492  -20.1415   17.4520 N   0  3  0  0  0  0  0  0  0  0  0  0
  -20.1717  -25.0572   19.9360 O   0  0  0  0  0  0  0  0  0  0  0  0
  -19.3489  -24.0820   24.0719 O   0  0  0  0  0  0  0  0  0  0  0  0
  -28.8312  -27.8661   17.3377 O   0  0  0  0  0  0  0  0  0  0  0  0
  -24.8949  -14.7660   22.3495 O   0  0  0  0  0  0  0  0  0  0  0  0
  -28.2907  -14.8620   19.9934 O   0  0  0  0  0  0  0  0  0  0  0  0
  -28.1489  -19.6054   19.9855 O   0  0  0  0  0  0  0  0  0  0  0  0
  -20.5728  -31.1009   22.5922 O   0  0  0  0  0  0  0  0  0  0  0  0
  -32.1068  -26.9475   23.2497 O   0  0  0  0  0  0  0  0  0  0  0  0
  -21.4541  -19.7222   21.2172 O   0  0  0  0  0  0  0  0  0  1  0  0
  -32.4169  -21.7308   25.0087 F   0  0  0  0  0  0  0  0  0  0  0  0
  -32.3188  -26.3697   25.9449 F   0  0  0  0  0  0  0  0  0  0  0  0
  1  2  1  0  0  0  0
  1  7  2  0  0  0  0
  2  8  2  0  0  0  0
  3  6  2  0  0  0  0
  3 10  1  0  0  0  0
  4 11  2  0  0  0  0
  4 19  1  0  0  0  0
  5 12  1  0  0  0  0
  5 19  2  0  0  0  0
  6 20  1  0  0  0  0
  7 22  1  0  0  0  0
  8 24  1  0  0  0  0
  9 13  2  0  0  0  0
  9 23  1  0  0  0  0
 10 26  2  0  0  0  0
 11 27  1  0  0  0  0
 12 27  2  0  0  0  0
 13 28  1  0  0  0  0
 14 15  2  0  0  0  0
 14 29  1  0  0  0  0
 15 30  1  0  0  0  0
 16 20  2  0  0  0  0
 16 26  1  0  0  0  0
 17 25  1  0  0  0  0
 17 28  2  0  0  0  0
 18 30  2  0  0  0  0
 18 31  1  0  0  0  0
 19 32  1  0  0  0  0
 20 37  1  0  0  0  0
 21 32  1  0  0  0  0
 21 33  2  0  0  0  0
 21 38  1  0  0  0  0
 22 24  2  0  0  0  0
 22 43  1  0  0  0  0
 23 25  2  0  0  0  0
 23 44  1  0  0  0  0
 24 53  1  0  0  0  0
 25 45  1  0  0  0  0
 26 72  1  0  0  0  0
 27 83  1  0  0  0  0
 28 84  1  0  0  0  0
 29 31  2  0  0  0  0
 29 83  1  0  0  0  0
 30 85  1  0  0  0  0
 31 86  1  0  0  0  0
 32 65  2  0  0  0  0
 33 66  1  0  0  0  0
 33 70  1  0  0  0  0
 34 35  2  0  0  0  0
 34 36  1  0  0  0  0
 35 46  1  0  0  0  0
 35 61  1  0  0  0  0
 36 67  1  0  0  0  0
 36 76  2  0  0  0  0
 37 67  1  0  0  0  0
 37 77  2  0  0  0  0
 38 71  1  0  0  0  0
 38 78  2  0  0  0  0
 39 54  1  0  0  0  0
 39 73  1  0  0  0  0
 39 79  2  0  0  0  0
 40 62  1  0  0  0  0
 40 68  1  0  0  0  0
 40 80  2  0  0  0  0
 41 63  1  0  0  0  0
 41 74  1  0  0  0  0
 41 81  2  0  0  0  0
 42 69  1  0  0  0  0
 42 72  1  0  0  0  0
 42 82  2  0  0  0  0
 43 47  1  0  0  0  0
 44 54  1  0  0  0  0
 45 68  1  0  0  0  0
 46 67  1  0  0  0  0
 47 49  1  0  0  0  0
 48 50  1  0  0  0  0
 48 51  1  0  0  0  0
 49 53  1  0  0  0  0
 50 55  1  0  0  0  0
 51 69  1  0  0  0  0
 52 55  1  0  0  0  0
 52 69  1  0  0  0  0
 53 73  1  0  0  0  0
 54 68  1  0  0  0  0
 55 66  1  0  0  0  0
 56 63  1  0  0  0  0
 57 64  1  0  0  0  0
 58 64  1  0  0  0  0
 59 64  1  0  0  0  0
 60 75  1  0  0  0  0
 61 84  1  0  0  0  0
 62 64  1  0  0  0  0
 62 74  1  0  0  0  0
 63 75  1  0  0  0  0
 65 66  1  0  0  0  0
M  CHG  1  75   1
M  ISO  4  42 100  61 101  72 100  84 101
M  END
> <Batch ID>
0083

> <Smiles>
CNC(C)C(=O)NC(C(=O)N1Cc2cc([101O:1][101CH2:1]C3=CC(=O)N(C(=O)c4cccc([100NH:0][100C:0](=O)N5CCCC(n6nc(-c7ccc(Oc8ccc(F)cc8F)cc7)c(C(N)=O)c6N)C5)c4)C3)ccc2CC1C(=O)NC1CCCc2ccccc21)C(C)(C)C

> <Shape>
0.238

> <Color>
0.061

> <Negative vol penalty>
0.000

$$$$

  -OEChem-04052300093D

 85 94  0     1  0  0  0  0  0999 V2000
  -29.1274  -35.4435   22.5744 C   0  0  0  0  0  0  0  0  0  0  0  0
  -29.1305  -34.0534   22.5180 C   0  0  0  0  0  0  0  0  0  0  0  0
  -22.5906  -12.8389   18.5324 C   0  0  0  0  0  0  0  0  0  0  0  0
  -22.4499  -11.5765   20.5876 C   0  0  0  0  0  0  0  0  0  0  0  0
  -31.3458  -19.3830   20.4804 C   0  0  0  0  0  0  0  0  0  0  0  0
  -29.5100  -18.5304   19.1615 C   0  0  0  0  0  0  0  0  0  0  0  0
  -27.9760  -36.1213   22.9729 C   0  0  0  0  0  0  0  0  0  0  0  0
  -27.9824  -33.3403   22.8613 C   0  0  0  0  0  0  0  0  0  0  0  0
  -26.9553  -29.6180   19.5849 C   0  0  0  0  0  0  0  0  0  0  0  0
  -30.7260  -20.6313   20.5363 C   0  0  0  0  0  0  0  0  0  0  0  0
  -28.8901  -19.7788   19.2174 C   0  0  0  0  0  0  0  0  0  0  0  0
  -21.4361  -12.2097   18.0668 C   0  0  0  0  0  0  0  0  0  0  0  0
  -21.2953  -10.9473   20.1220 C   0  0  0  0  0  0  0  0  0  0  0  0
  -27.7060  -28.4483   19.6944 C   0  0  0  0  0  0  0  0  0  0  0  0
  -18.5146   -8.7454   19.3287 C   0  0  0  0  0  0  0  0  0  0  0  0
  -18.4136   -7.3651   19.5021 C   0  0  0  0  0  0  0  0  0  0  0  0
  -25.8883  -27.4005   20.8850 C   0  0  0  0  0  0  0  0  0  0  0  0
  -20.4082   -7.0524   18.1751 C   0  0  0  0  0  0  0  0  0  0  0  0
  -23.0976  -12.5222   19.7928 C   0  0  0  0  0  0  0  0  0  0  0  0
  -30.7378  -18.3326   19.7930 C   0  0  0  0  0  0  0  0  0  0  0  0
  -24.3684  -14.3666   21.0138 C   0  0  0  0  0  0  0  0  0  0  0  0
  -26.8103  -35.4165   23.3120 C   0  0  0  0  0  0  0  0  0  0  0  0
  -25.6676  -29.6915   20.1351 C   0  0  0  0  0  0  0  0  0  0  0  0
  -26.8148  -34.0092   23.2661 C   0  0  0  0  0  0  0  0  0  0  0  0
  -25.1224  -28.5715   20.7789 C   0  0  0  0  0  0  0  0  0  0  0  0
  -29.4982  -20.8292   19.9048 C   0  0  0  0  0  0  0  0  0  0  0  0
  -20.7884  -11.2639   18.8616 C   0  0  0  0  0  0  0  0  0  0  0  0
  -27.1736  -27.3402   20.3471 C   0  0  0  0  0  0  0  0  0  0  0  0
  -19.5624   -9.2793   18.5784 C   0  0  0  0  0  0  0  0  0  0  0  0
  -19.3604   -6.5186   18.9254 C   0  0  0  0  0  0  0  0  0  0  0  0
  -20.5092   -8.4328   18.0016 C   0  0  0  0  0  0  0  0  0  0  0  0
  -24.2905  -13.1714   20.2741 C   0  0  0  0  0  0  0  0  0  0  0  0
  -25.7129  -14.5544   21.2222 C   0  0  0  0  0  0  0  0  0  0  0  0
  -28.0325  -23.8694   19.9497 C   0  0  0  0  0  0  0  0  0  0  0  0
  -27.7210  -22.5289   19.4521 C   0  0  0  0  0  0  0  0  0  0  0  0
  -27.3981  -25.0548   19.9029 C   0  0  0  0  0  0  0  0  0  1  0  0
  -31.3980  -17.0031   19.7333 C   0  0  0  0  0  0  0  0  0  0  0  0
  -23.3192  -15.2299   21.4717 C   0  0  0  0  0  0  0  0  0  0  0  0
  -24.2881  -31.4604   22.3871 C   0  0  0  0  0  0  0  0  0  0  0  0
  -21.6028  -29.9381   21.3900 C   0  0  0  0  0  0  0  0  0  0  0  0
  -20.2089  -27.2191   19.8700 C   0  0  0  0  0  0  0  0  0  0  0  0
  -30.9628  -14.5835   19.4513 C   0  0  0  0  0  0  0  0  0  0  0  0
  -25.6046  -36.1909   23.7823 C   0  0  0  0  0  0  0  0  0  0  0  0
  -24.8604  -30.9518   19.9851 C   0  0  0  0  0  0  0  0  0  0  0  0
  -23.7368  -28.5924   21.3690 C   0  0  0  0  0  0  0  0  0  0  0  0
  -29.3299  -23.3310   20.5079 C   0  0  0  0  0  0  0  0  0  0  0  0
  -24.3140  -35.3758   23.7695 C   0  0  0  0  0  0  0  0  0  0  0  0
  -29.6377  -11.4539   20.4244 C   0  0  0  0  0  0  0  0  0  0  0  0
  -24.5422  -34.0048   24.3980 C   0  0  0  0  0  0  0  0  0  0  0  0
  -28.1343  -11.7190   20.5416 C   0  0  0  0  0  0  0  0  0  0  0  0
  -30.2585  -12.2148   19.2537 C   0  0  0  0  0  0  0  0  0  0  0  0
  -28.4841  -13.9180   19.3474 C   0  0  0  0  0  0  0  0  0  0  0  0
  -25.5814  -33.2013   23.6068 C   0  0  1  0  0  0  0  0  0  0  0  0
  -23.7588  -31.0840   21.0322 C   0  0  1  0  0  0  0  0  0  0  0  0
  -27.8255  -13.2296   20.5539 C   0  0  1  0  0  0  0  0  0  0  0  0
  -17.9870  -26.2405   19.2353 C   0  0  0  0  0  0  0  0  0  0  0  0
  -21.1280  -29.1379   24.2959 C   0  0  0  0  0  0  0  0  0  0  0  0
  -19.4941  -27.4235   23.4839 C   0  0  0  0  0  0  0  0  0  0  0  0
  -19.0725  -29.8452   23.0594 C   0  0  0  0  0  0  0  0  0  0  0  0
  -20.8873  -27.2505   16.9894 C   0  0  0  0  0  0  0  0  0  0  0  0
  -20.8952  -28.6597   21.7694 C   0  0  1  0  0  0  0  0  0  0  0  0
  -19.1555  -27.1024   18.7832 C   0  0  2  0  0  0  0  0  0  0  0  0
  -20.1743  -28.7665   23.1429 C   0  0  0  0  0  0  0  0  0  0  0  0
  -25.4900  -12.6376   20.0289 N   0  0  0  0  0  0  0  0  0  0  0  0
  -26.3344  -13.5015   20.6179 N   0  0  0  0  0  0  0  0  0  0  0  0
  -28.8876  -22.0606   19.9606 N   0  0  0  0  0  0  0  0  0  0  0  0
  -22.9895  -29.8498   21.2021 N   0  0  0  0  0  0  0  0  0  0  0  0
  -29.9278  -13.6381   19.3439 N   0  0  0  0  0  0  0  0  0  0  0  0
  -26.4123  -15.5159   21.8616 N   0  0  0  0  0  0  0  0  0  0  0  0
  -21.9937  -14.8885   21.1703 N   0  0  0  0  0  0  0  0  0  0  0  0
  -30.5425  -15.9125   19.5750 N   0  0  0  0  0  0  0  0  0  0  0  0
  -24.9883  -32.6516   22.4066 N   0  0  0  0  0  0  0  0  0  0  0  0
  -20.0119  -28.3357   20.6545 N   0  0  0  0  0  0  0  0  0  0  0  0
  -19.7422  -26.4927   17.5564 N   0  3  0  0  0  0  0  0  0  0  0  0
  -26.8051  -22.0346   18.8283 O   0  0  0  0  0  0  0  0  0  0  0  0
  -32.6234  -16.9411   19.7845 O   0  0  0  0  0  0  0  0  0  0  0  0
  -23.5512  -16.2818   22.1145 O   0  0  0  0  0  0  0  0  0  0  0  0
  -24.0756  -30.7254   23.3443 O   0  0  0  0  0  0  0  0  0  0  0  0
  -20.9483  -30.9753   21.2580 O   0  0  0  0  0  0  0  0  0  0  0  0
  -21.1137  -26.3994   20.0113 O   0  0  0  0  0  0  0  0  0  0  0  0
  -32.1568  -14.2687   19.4738 O   0  0  0  0  0  0  0  0  0  0  0  0
  -19.6617  -10.6499   18.4077 O   0  0  0  0  0  0  0  0  0  0  0  0
  -27.9044  -26.1974   20.4559 O   0  0  0  0  0  0  0  0  0  1  0  0
  -19.2642   -5.1932   19.0933 F   0  0  0  0  0  0  0  0  0  0  0  0
  -21.5186   -8.9399   17.2807 F   0  0  0  0  0  0  0  0  0  0  0  0
  1  2  1  0  0  0  0
  1  7  2  0  0  0  0
  2  8  2  0  0  0  0
  3 12  2  0  0  0  0
  3 19  1  0  0  0  0
  4 13  1  0  0  0  0
  4 19  2  0  0  0  0
  5 10  2  0  0  0  0
  5 20  1  0  0  0  0
  6 11  1  0  0  0  0
  6 20  2  0  0  0  0
  7 22  1  0  0  0  0
  8 24  1  0  0  0  0
  9 14  2  0  0  0  0
  9 23  1  0  0  0  0
 10 26  1  0  0  0  0
 11 26  2  0  0  0  0
 12 27  1  0  0  0  0
 13 27  2  0  0  0  0
 14 28  1  0  0  0  0
 15 16  2  0  0  0  0
 15 29  1  0  0  0  0
 16 30  1  0  0  0  0
 17 25  1  0  0  0  0
 17 28  2  0  0  0  0
 18 30  2  0  0  0  0
 18 31  1  0  0  0  0
 19 32  1  0  0  0  0
 20 37  1  0  0  0  0
 21 32  1  0  0  0  0
 21 33  2  0  0  0  0
 21 38  1  0  0  0  0
 22 24  2  0  0  0  0
 22 43  1  0  0  0  0
 23 25  2  0  0  0  0
 23 44  1  0  0  0  0
 24 53  1  0  0  0  0
 25 45  1  0  0  0  0
 26 66  1  0  0  0  0
 27 82  1  0  0  0  0
 28 83  1  0  0  0  0
 29 31  2  0  0  0  0
 29 82  1  0  0  0  0
 30 84  1  0  0  0  0
 31 85  1  0  0  0  0
 32 64  2  0  0  0  0
 33 65  1  0  0  0  0
 33 69  1  0  0  0  0
 34 35  1  0  0  0  0
 34 36  2  0  0  0  0
 34 46  1  0  0  0  0
 35 66  1  0  0  0  0
 35 75  2  0  0  0  0
 36 83  1  0  0  0  0
 37 71  1  0  0  0  0
 37 76  2  0  0  0  0
 38 70  1  0  0  0  0
 38 77  2  0  0  0  0
 39 54  1  0  0  0  0
 39 72  1  0  0  0  0
 39 78  2  0  0  0  0
 40 61  1  0  0  0  0
 40 67  1  0  0  0  0
 40 79  2  0  0  0  0
 41 62  1  0  0  0  0
 41 73  1  0  0  0  0
 41 80  2  0  0  0  0
 42 68  1  0  0  0  0
 42 71  1  0  0  0  0
 42 81  2  0  0  0  0
 43 47  1  0  0  0  0
 44 54  1  0  0  0  0
 45 67  1  0  0  0  0
 46 66  1  0  0  0  0
 47 49  1  0  0  0  0
 48 50  1  0  0  0  0
 48 51  1  0  0  0  0
 49 53  1  0  0  0  0
 50 55  1  0  0  0  0
 51 68  1  0  0  0  0
 52 55  1  0  0  0  0
 52 68  1  0  0  0  0
 53 72  1  0  0  0  0
 54 67  1  0  0  0  0
 55 65  1  0  0  0  0
 56 62  1  0  0  0  0
 57 63  1  0  0  0  0
 58 63  1  0  0  0  0
 59 63  1  0  0  0  0
 60 74  1  0  0  0  0
 61 63  1  0  0  0  0
 61 73  1  0  0  0  0
 62 74  1  0  0  0  0
 64 65  1  0  0  0  0
M  CHG  1  74   1
M  ISO  4  36 101  42 100  71 100  83 101
M  END
> <Batch ID>
0083

> <Smiles>
CNC(C)C(=O)NC(C(=O)N1Cc2cc([101O:1][101CH:1]=C3CN(c4ccc(C(=O)[100NH:0][100C:0](=O)N5CCCC(n6nc(-c7ccc(Oc8ccc(F)cc8F)cc7)c(C(N)=O)c6N)C5)cc4)C3=O)ccc2CC1C(=O)NC1CCCc2ccccc21)C(C)(C)C

> <Shape>
0.299

> <Color>
0.081

> <Negative vol penalty>
0.000

$$$$

  -OEChem-04052300093D

 83 92  0     1  0  0  0  0  0999 V2000
  -16.4543  -29.2222   23.8246 C   0  0  0  0  0  0  0  0  0  0  0  0
  -17.2134  -28.0564   23.8203 C   0  0  0  0  0  0  0  0  0  0  0  0
  -23.0891  -10.6229   20.7601 C   0  0  0  0  0  0  0  0  0  0  0  0
  -24.3608   -9.1423   22.1840 C   0  0  0  0  0  0  0  0  0  0  0  0
  -28.9280  -16.5777   20.6302 C   0  0  0  0  0  0  0  0  0  0  0  0
  -17.0358  -30.4328   23.4500 C   0  0  0  0  0  0  0  0  0  0  0  0
  -18.5544  -28.1004   23.4404 C   0  0  0  0  0  0  0  0  0  0  0  0
  -23.1310  -24.7090   25.6895 C   0  0  0  0  0  0  0  0  0  0  0  0
  -28.2738  -17.6216   21.2841 C   0  0  0  0  0  0  0  0  0  0  0  0
  -22.0994   -9.6485   20.6308 C   0  0  0  0  0  0  0  0  0  0  0  0
  -23.3711   -8.1679   22.0548 C   0  0  0  0  0  0  0  0  0  0  0  0
  -23.7530  -23.5492   25.2292 C   0  0  0  0  0  0  0  0  0  0  0  0
  -20.3200   -7.5304   23.3606 C   0  0  0  0  0  0  0  0  0  0  0  0
  -19.9112   -6.8666   24.5172 C   0  0  0  0  0  0  0  0  0  0  0  0
  -25.4852  -24.8877   24.2157 C   0  0  0  0  0  0  0  0  0  0  0  0
  -27.9534  -18.7455   19.1697 C   0  0  0  0  0  0  0  0  0  0  0  0
  -20.5996   -4.7613   23.5524 C   0  0  0  0  0  0  0  0  0  0  0  0
  -24.2198  -10.3698   21.5367 C   0  0  0  0  0  0  0  0  0  0  0  0
  -29.0950  -16.6176   19.2459 C   0  0  0  0  0  0  0  0  0  0  0  0
  -25.3208  -12.3841   22.6494 C   0  0  0  0  0  0  0  0  0  0  0  0
  -18.3871  -30.4932   23.0745 C   0  0  0  0  0  0  0  0  0  0  0  0
  -23.6766  -25.9695   25.4066 C   0  0  0  0  0  0  0  0  0  0  0  0
  -19.1542  -29.3126   23.0591 C   0  0  0  0  0  0  0  0  0  0  0  0
  -24.8697  -26.0618   24.6758 C   0  0  0  0  0  0  0  0  0  0  0  0
  -27.7865  -18.7056   20.5539 C   0  0  0  0  0  0  0  0  0  0  0  0
  -28.6077  -17.7015   18.5157 C   0  0  0  0  0  0  0  0  0  0  0  0
  -22.2404   -8.4211   21.2782 C   0  0  0  0  0  0  0  0  0  0  0  0
  -24.9287  -23.6386   24.4897 C   0  0  0  0  0  0  0  0  0  0  0  0
  -20.8686   -6.8096   22.2998 C   0  0  0  0  0  0  0  0  0  0  0  0
  -20.0510   -5.4821   24.6132 C   0  0  0  0  0  0  0  0  0  0  0  0
  -21.0084   -5.4251   22.3957 C   0  0  0  0  0  0  0  0  0  0  0  0
  -25.2428  -11.3757   21.6702 C   0  0  0  0  0  0  0  0  0  0  0  0
  -26.4686  -13.0730   22.3421 C   0  0  0  0  0  0  0  0  0  0  0  0
  -26.2865  -21.2846   22.1323 C   0  0  0  0  0  0  0  0  0  0  0  0
  -26.5786  -20.8856   20.7549 C   0  0  0  0  0  0  0  0  0  0  0  0
  -25.6996  -22.3591   22.6899 C   0  0  0  0  0  0  0  0  0  1  0  0
  -29.7874  -15.5021   18.5878 C   0  0  0  0  0  0  0  0  0  0  0  0
  -24.4350  -12.6722   23.7394 C   0  0  0  0  0  0  0  0  0  0  0  0
  -22.6870  -28.5356   23.8130 C   0  0  0  0  0  0  0  0  0  0  0  0
  -25.4202  -29.8343   24.9815 C   0  0  0  0  0  0  0  0  0  0  0  0
  -28.5715  -29.3452   26.1967 C   0  0  0  0  0  0  0  0  0  0  0  0
  -18.9591  -31.8167   22.6321 C   0  0  0  0  0  0  0  0  0  0  0  0
  -23.0079  -27.2097   25.9332 C   0  0  0  0  0  0  0  0  0  0  0  0
  -25.5069  -27.3900   24.3624 C   0  0  0  0  0  0  0  0  0  0  0  0
  -26.9194  -19.9979   22.6103 C   0  0  0  0  0  0  0  0  0  0  0  0
  -20.4851  -31.8415   22.6027 C   0  0  0  0  0  0  0  0  0  0  0  0
  -30.2062  -11.9959   19.1099 C   0  0  0  0  0  0  0  0  0  0  0  0
  -21.0262  -30.5913   21.9162 C   0  0  0  0  0  0  0  0  0  0  0  0
  -28.9497  -11.5978   19.8863 C   0  0  0  0  0  0  0  0  0  0  0  0
  -29.9119  -13.0858   18.0822 C   0  0  0  0  0  0  0  0  0  0  0  0
  -27.9926  -13.8914   19.4134 C   0  0  0  0  0  0  0  0  0  0  0  0
  -20.6184  -29.3239   22.6770 C   0  0  1  0  0  0  0  0  0  0  0  0
  -23.3739  -28.4652   25.1475 C   0  0  1  0  0  0  0  0  0  0  0  0
  -28.2560  -12.8309   20.4950 C   0  0  1  0  0  0  0  0  0  0  0  0
  -30.5775  -30.6005   27.0320 C   0  0  0  0  0  0  0  0  0  0  0  0
  -26.1415  -30.5853   22.1134 C   0  0  0  0  0  0  0  0  0  0  0  0
  -28.4979  -30.9515   22.8758 C   0  0  0  0  0  0  0  0  0  0  0  0
  -26.6546  -32.3463   23.8134 C   0  0  0  0  0  0  0  0  0  0  0  0
  -28.4081  -28.0651   28.8601 C   0  0  0  0  0  0  0  0  0  0  0  0
  -26.8503  -29.9227   24.5060 C   0  0  1  0  0  0  0  0  0  0  0  0
  -29.2794  -29.9076   27.4161 C   0  0  2  0  0  0  0  0  0  0  0  0
  -27.0233  -30.9263   23.3312 C   0  0  0  0  0  0  0  0  0  0  0  0
  -26.2599  -11.4168   20.8054 N   0  0  0  0  0  0  0  0  0  0  0  0
  -26.9879  -12.4595   21.2402 N   0  0  0  0  0  0  0  0  0  0  0  0
  -27.1412  -19.7347   21.1995 N   0  0  0  0  0  0  0  0  0  0  0  0
  -29.2407  -14.2226   18.7114 N   0  0  0  0  0  0  0  0  0  0  0  0
  -24.8119  -28.5741   24.8938 N   0  0  0  0  0  0  0  0  0  0  0  0
  -28.7653  -17.7605   17.1130 N   0  0  0  0  0  0  0  0  0  0  0  0
  -27.0742  -14.1377   22.9096 N   0  0  0  0  0  0  0  0  0  0  0  0
  -23.3020  -11.8652   23.9108 N   0  0  0  0  0  0  0  0  0  0  0  0
  -21.4491  -29.1487   23.8491 N   0  0  0  0  0  0  0  0  0  0  0  0
  -27.6531  -30.2363   25.6831 N   0  0  0  0  0  0  0  0  0  0  0  0
  -29.5966  -28.8163   28.3801 N   0  3  0  0  0  0  0  0  0  0  0  0
  -26.4051  -21.3812   19.6610 O   0  0  0  0  0  0  0  0  0  0  0  0
  -30.8182  -15.7855   17.9792 O   0  0  0  0  0  0  0  0  0  0  0  0
  -24.6333  -13.6274   24.5278 O   0  0  0  0  0  0  0  0  0  0  0  0
  -23.2398  -28.0696   22.8236 O   0  0  0  0  0  0  0  0  0  0  0  0
  -24.8656  -30.8446   25.4213 O   0  0  0  0  0  0  0  0  0  0  0  0
  -28.8121  -28.2287   25.7427 O   0  0  0  0  0  0  0  0  0  0  0  0
  -21.2747   -7.4701   21.1524 O   0  0  0  0  0  0  0  0  0  0  0  0
  -25.5375  -22.5082   24.0387 O   0  0  0  0  0  0  0  0  0  1  0  0
  -19.6598   -4.8450   25.7246 F   0  0  0  0  0  0  0  0  0  0  0  0
  -21.5358   -4.7274   21.3803 F   0  0  0  0  0  0  0  0  0  0  0  0
  1  2  1  0  0  0  0
  1  6  2  0  0  0  0
  2  7  2  0  0  0  0
  3 10  2  0  0  0  0
  3 18  1  0  0  0  0
  4 11  1  0  0  0  0
  4 18  2  0  0  0  0
  5  9  2  0  0  0  0
  5 19  1  0  0  0  0
  6 21  1  0  0  0  0
  7 23  1  0  0  0  0
  8 12  2  0  0  0  0
  8 22  1  0  0  0  0
  9 25  1  0  0  0  0
 10 27  1  0  0  0  0
 11 27  2  0  0  0  0
 12 28  1  0  0  0  0
 13 14  2  0  0  0  0
 13 29  1  0  0  0  0
 14 30  1  0  0  0  0
 15 24  1  0  0  0  0
 15 28  2  0  0  0  0
 16 25  2  0  0  0  0
 16 26  1  0  0  0  0
 17 30  2  0  0  0  0
 17 31  1  0  0  0  0
 18 32  1  0  0  0  0
 19 26  2  0  0  0  0
 19 37  1  0  0  0  0
 20 32  1  0  0  0  0
 20 33  2  0  0  0  0
 20 38  1  0  0  0  0
 21 23  2  0  0  0  0
 21 42  1  0  0  0  0
 22 24  2  0  0  0  0
 22 43  1  0  0  0  0
 23 52  1  0  0  0  0
 24 44  1  0  0  0  0
 25 65  1  0  0  0  0
 26 68  1  0  0  0  0
 27 80  1  0  0  0  0
 28 81  1  0  0  0  0
 29 31  2  0  0  0  0
 29 80  1  0  0  0  0
 30 82  1  0  0  0  0
 31 83  1  0  0  0  0
 32 63  2  0  0  0  0
 33 64  1  0  0  0  0
 33 69  1  0  0  0  0
 34 35  1  0  0  0  0
 34 36  2  0  0  0  0
 34 45  1  0  0  0  0
 35 65  1  0  0  0  0
 35 74  2  0  0  0  0
 36 81  1  0  0  0  0
 37 66  1  0  0  0  0
 37 75  2  0  0  0  0
 38 70  1  0  0  0  0
 38 76  2  0  0  0  0
 39 53  1  0  0  0  0
 39 71  1  0  0  0  0
 39 77  2  0  0  0  0
 40 60  1  0  0  0  0
 40 67  1  0  0  0  0
 40 78  2  0  0  0  0
 41 61  1  0  0  0  0
 41 72  1  0  0  0  0
 41 79  2  0  0  0  0
 42 46  1  0  0  0  0
 43 53  1  0  0  0  0
 44 67  1  0  0  0  0
 45 65  1  0  0  0  0
 46 48  1  0  0  0  0
 47 49  1  0  0  0  0
 47 50  1  0  0  0  0
 48 52  1  0  0  0  0
 49 54  1  0  0  0  0
 50 66  1  0  0  0  0
 51 54  1  0  0  0  0
 51 66  1  0  0  0  0
 52 71  1  0  0  0  0
 53 67  1  0  0  0  0
 54 64  1  0  0  0  0
 55 61  1  0  0  0  0
 56 62  1  0  0  0  0
 57 62  1  0  0  0  0
 58 62  1  0  0  0  0
 59 73  1  0  0  0  0
 60 62  1  0  0  0  0
 60 72  1  0  0  0  0
 61 73  1  0  0  0  0
 63 64  1  0  0  0  0
M  CHG  1  73   1
M  ISO  4  19 100  36 101  37 100  81 101
M  END
> <Batch ID>
0083

> <Smiles>
CNC(C)C(=O)NC(C(=O)N1Cc2cc([101O:1][101CH:1]=C3CN(c4cc[100c:0]([100C:0](=O)N5CCCC(n6nc(-c7ccc(Oc8ccc(F)cc8F)cc7)c(C(N)=O)c6N)C5)c(N)c4)C3=O)ccc2CC1C(=O)NC1CCCc2ccccc21)C(C)(C)C

> <Shape>
0.255

> <Color>
0.095

> <Negative vol penalty>
0.000

$$$$

  -OEChem-04052300093D

 84 93  0     1  0  0  0  0  0999 V2000
  -29.8555  -35.4118   21.2388 C   0  0  0  0  0  0  0  0  0  0  0  0
  -29.8038  -34.0221   21.2798 C   0  0  0  0  0  0  0  0  0  0  0  0
  -22.6392  -11.7461   19.2494 C   0  0  0  0  0  0  0  0  0  0  0  0
  -22.9570  -10.5066   21.2987 C   0  0  0  0  0  0  0  0  0  0  0  0
  -31.0102  -19.1705   19.7785 C   0  0  0  0  0  0  0  0  0  0  0  0
  -28.8789  -18.3251   19.0170 C   0  0  0  0  0  0  0  0  0  0  0  0
  -28.8606  -36.1639   21.8618 C   0  0  0  0  0  0  0  0  0  0  0  0
  -28.7576  -33.3838   21.9449 C   0  0  0  0  0  0  0  0  0  0  0  0
  -26.8362  -29.5230   19.2903 C   0  0  0  0  0  0  0  0  0  0  0  0
  -30.4607  -20.4468   19.8994 C   0  0  0  0  0  0  0  0  0  0  0  0
  -28.3294  -19.6014   19.1379 C   0  0  0  0  0  0  0  0  0  0  0  0
  -21.5143  -10.9748   18.9574 C   0  0  0  0  0  0  0  0  0  0  0  0
  -21.8321   -9.7353   21.0067 C   0  0  0  0  0  0  0  0  0  0  0  0
  -27.5559  -28.3289   19.2915 C   0  0  0  0  0  0  0  0  0  0  0  0
  -21.0562   -7.1155   19.0155 C   0  0  0  0  0  0  0  0  0  0  0  0
  -21.1524   -5.7355   19.1941 C   0  0  0  0  0  0  0  0  0  0  0  0
  -26.0635  -27.4381   20.9644 C   0  0  0  0  0  0  0  0  0  0  0  0
  -19.3518   -5.8182   20.8028 C   0  0  0  0  0  0  0  0  0  0  0  0
  -23.3606  -11.5120   20.4201 C   0  0  0  0  0  0  0  0  0  0  0  0
  -30.2193  -18.1096   19.3373 C   0  0  0  0  0  0  0  0  0  0  0  0
  -24.5623  -13.5147   21.4460 C   0  0  0  0  0  0  0  0  0  0  0  0
  -27.7964  -35.5345   22.5267 C   0  0  0  0  0  0  0  0  0  0  0  0
  -25.7295  -29.6878   20.1355 C   0  0  0  0  0  0  0  0  0  0  0  0
  -27.7482  -34.1283   22.5786 C   0  0  0  0  0  0  0  0  0  0  0  0
  -25.3299  -28.6343   20.9702 C   0  0  0  0  0  0  0  0  0  0  0  0
  -29.1203  -20.6623   19.5791 C   0  0  0  0  0  0  0  0  0  0  0  0
  -21.1107   -9.9694   19.8360 C   0  0  0  0  0  0  0  0  0  0  0  0
  -27.1713  -27.2873   20.1307 C   0  0  0  0  0  0  0  0  0  0  0  0
  -20.1078   -7.8469   19.7306 C   0  0  0  0  0  0  0  0  0  0  0  0
  -20.3002   -5.0868   20.0878 C   0  0  0  0  0  0  0  0  0  0  0  0
  -19.2556   -7.1982   20.6242 C   0  0  0  0  0  0  0  0  0  0  0  0
  -24.5230  -12.3080   20.7220 C   0  0  0  0  0  0  0  0  0  0  0  0
  -25.8898  -13.8671   21.4542 C   0  0  0  0  0  0  0  0  0  0  0  0
  -27.8019  -23.7633   19.7746 C   0  0  0  0  0  0  0  0  0  0  0  0
  -27.3369  -22.4111   19.4636 C   0  0  0  0  0  0  0  0  0  0  0  0
  -30.7998  -16.7611   19.2094 C   0  0  0  0  0  0  0  0  0  0  0  0
  -27.2108  -24.9715   19.8042 C   0  0  0  0  0  0  0  0  0  1  0  0
  -23.4944  -14.2512   22.0565 C   0  0  0  0  0  0  0  0  0  0  0  0
  -25.0087  -31.6492   22.5307 C   0  0  0  0  0  0  0  0  0  0  0  0
  -22.1161  -30.1939   22.3368 C   0  0  0  0  0  0  0  0  0  0  0  0
  -20.3078  -27.4551   21.4008 C   0  0  0  0  0  0  0  0  0  0  0  0
  -30.7075  -14.5172   18.7118 C   0  0  0  0  0  0  0  0  0  0  0  0
  -26.7697  -36.3898   23.2259 C   0  0  0  0  0  0  0  0  0  0  0  0
  -24.9476  -30.9724   20.1030 C   0  0  0  0  0  0  0  0  0  0  0  0
  -24.1369  -28.7535   21.8817 C   0  0  0  0  0  0  0  0  0  0  0  0
  -29.1813  -23.2008   20.0304 C   0  0  0  0  0  0  0  0  0  0  0  0
  -25.4935  -35.6350   23.5891 C   0  0  0  0  0  0  0  0  0  0  0  0
  -30.0078  -11.2682   20.1116 C   0  0  0  0  0  0  0  0  0  0  0  0
  -25.8314  -34.2950   24.2351 C   0  0  0  0  0  0  0  0  0  0  0  0
  -28.5126  -11.3386   20.4216 C   0  0  0  0  0  0  0  0  0  0  0  0
  -30.3554  -12.0513   18.8493 C   0  0  0  0  0  0  0  0  0  0  0  0
  -28.4109  -13.5514   19.1917 C   0  0  0  0  0  0  0  0  0  0  0  0
  -26.6160  -33.3991   23.2690 C   0  0  1  0  0  0  0  0  0  0  0  0
  -24.1469  -31.2170   21.3782 C   0  0  1  0  0  0  0  0  0  0  0  0
  -28.0275  -12.7982   20.4769 C   0  0  1  0  0  0  0  0  0  0  0  0
  -17.9701  -26.5426   21.4049 C   0  0  0  0  0  0  0  0  0  0  0  0
  -22.3591  -29.5914   25.3180 C   0  0  0  0  0  0  0  0  0  0  0  0
  -20.5248  -27.9077   25.0562 C   0  0  0  0  0  0  0  0  0  0  0  0
  -20.0815  -30.3163   24.5825 C   0  0  0  0  0  0  0  0  0  0  0  0
  -20.2456  -27.2833   18.4469 C   0  0  0  0  0  0  0  0  0  0  0  0
  -21.4887  -28.9740   22.9670 C   0  0  1  0  0  0  0  0  0  0  0  0
  -19.0133  -27.3218   20.6192 C   0  0  2  0  0  0  0  0  0  0  0  0
  -21.1372  -29.1955   24.4653 C   0  0  0  0  0  0  0  0  0  0  0  0
  -25.7296  -11.9199   20.3007 N   0  0  0  0  0  0  0  0  0  0  0  0
  -30.0973  -15.7533   18.8066 N   0  0  0  0  0  0  0  0  0  0  0  0
  -26.5396  -12.8884   20.7613 N   0  0  0  0  0  0  0  0  0  0  0  0
  -28.5794  -21.9214   19.6988 N   0  0  0  0  0  0  0  0  0  0  0  0
  -23.4086  -30.0314   21.8182 N   0  0  0  0  0  0  0  0  0  0  0  0
  -29.8496  -13.4225   18.9248 N   0  0  0  0  0  0  0  0  0  0  0  0
  -26.5530  -14.9157   21.9863 N   0  0  0  0  0  0  0  0  0  0  0  0
  -22.1907  -13.7473   21.9530 N   0  0  0  0  0  0  0  0  0  0  0  0
  -25.7261  -32.8062   22.2939 N   0  0  0  0  0  0  0  0  0  0  0  0
  -20.3457  -28.6245   22.1304 N   0  0  0  0  0  0  0  0  0  0  0  0
  -19.2568  -26.6137   19.3307 N   0  3  0  0  0  0  0  0  0  0  0  0
  -26.2802  -21.9226   19.1214 O   0  0  0  0  0  0  0  0  0  0  0  0
  -23.6882  -15.3329   22.6614 O   0  0  0  0  0  0  0  0  0  0  0  0
  -25.0206  -30.9832   23.5593 O   0  0  0  0  0  0  0  0  0  0  0  0
  -21.4800  -31.2501   22.2993 O   0  0  0  0  0  0  0  0  0  0  0  0
  -21.1949  -26.6050   21.3704 O   0  0  0  0  0  0  0  0  0  0  0  0
  -31.9037  -14.3587   18.4567 O   0  0  0  0  0  0  0  0  0  0  0  0
  -20.0129   -9.2168   19.5515 O   0  0  0  0  0  0  0  0  0  0  0  0
  -27.8724  -26.1209   20.1343 O   0  0  0  0  0  0  0  0  0  1  0  0
  -20.3917   -3.7614   20.2581 F   0  0  0  0  0  0  0  0  0  0  0  0
  -18.3417   -7.8953   21.3131 F   0  0  0  0  0  0  0  0  0  0  0  0
  1  2  1  0  0  0  0
  1  7  2  0  0  0  0
  2  8  2  0  0  0  0
  3 12  2  0  0  0  0
  3 19  1  0  0  0  0
  4 13  1  0  0  0  0
  4 19  2  0  0  0  0
  5 10  2  0  0  0  0
  5 20  1  0  0  0  0
  6 11  1  0  0  0  0
  6 20  2  0  0  0  0
  7 22  1  0  0  0  0
  8 24  1  0  0  0  0
  9 14  2  0  0  0  0
  9 23  1  0  0  0  0
 10 26  1  0  0  0  0
 11 26  2  0  0  0  0
 12 27  1  0  0  0  0
 13 27  2  0  0  0  0
 14 28  1  0  0  0  0
 15 16  2  0  0  0  0
 15 29  1  0  0  0  0
 16 30  1  0  0  0  0
 17 25  1  0  0  0  0
 17 28  2  0  0  0  0
 18 30  2  0  0  0  0
 18 31  1  0  0  0  0
 19 32  1  0  0  0  0
 20 36  1  0  0  0  0
 21 32  1  0  0  0  0
 21 33  2  0  0  0  0
 21 38  1  0  0  0  0
 22 24  2  0  0  0  0
 22 43  1  0  0  0  0
 23 25  2  0  0  0  0
 23 44  1  0  0  0  0
 24 53  1  0  0  0  0
 25 45  1  0  0  0  0
 26 67  1  0  0  0  0
 27 81  1  0  0  0  0
 28 82  1  0  0  0  0
 29 31  2  0  0  0  0
 29 81  1  0  0  0  0
 30 83  1  0  0  0  0
 31 84  1  0  0  0  0
 32 64  2  0  0  0  0
 33 66  1  0  0  0  0
 33 70  1  0  0  0  0
 34 35  1  0  0  0  0
 34 37  2  0  0  0  0
 34 46  1  0  0  0  0
 35 67  1  0  0  0  0
 35 75  2  0  0  0  0
 36 65  2  0  0  0  0
 37 82  1  0  0  0  0
 38 71  1  0  0  0  0
 38 76  2  0  0  0  0
 39 54  1  0  0  0  0
 39 72  1  0  0  0  0
 39 77  2  0  0  0  0
 40 61  1  0  0  0  0
 40 68  1  0  0  0  0
 40 78  2  0  0  0  0
 41 62  1  0  0  0  0
 41 73  1  0  0  0  0
 41 79  2  0  0  0  0
 42 65  1  0  0  0  0
 42 69  1  0  0  0  0
 42 80  2  0  0  0  0
 43 47  1  0  0  0  0
 44 54  1  0  0  0  0
 45 68  1  0  0  0  0
 46 67  1  0  0  0  0
 47 49  1  0  0  0  0
 48 50  1  0  0  0  0
 48 51  1  0  0  0  0
 49 53  1  0  0  0  0
 50 55  1  0  0  0  0
 51 69  1  0  0  0  0
 52 55  1  0  0  0  0
 52 69  1  0  0  0  0
 53 72  1  0  0  0  0
 54 68  1  0  0  0  0
 55 66  1  0  0  0  0
 56 62  1  0  0  0  0
 57 63  1  0  0  0  0
 58 63  1  0  0  0  0
 59 63  1  0  0  0  0
 60 74  1  0  0  0  0
 61 63  1  0  0  0  0
 61 73  1  0  0  0  0
 62 74  1  0  0  0  0
 64 66  1  0  0  0  0
M  CHG  1  74   1
M  ISO  4  37 101  42 100  65 100  82 101
M  END
> <Batch ID>
0083

> <Smiles>
CNC(C)C(=O)NC(C(=O)N1Cc2cc([101O:1][101CH:1]=C3CN(c4ccc(C=[100N:0][100C:0](=O)N5CCCC(n6nc(-c7ccc(Oc8ccc(F)cc8F)cc7)c(C(N)=O)c6N)C5)cc4)C3=O)ccc2CC1C(=O)NC1CCCc2ccccc21)C(C)(C)C

> <Shape>
0.320

> <Color>
0.107

> <Negative vol penalty>
0.000

$$$$

  -OEChem-04052300093D

 83 92  0     1  0  0  0  0  0999 V2000
  -27.3729  -37.7403   23.8585 C   0  0  0  0  0  0  0  0  0  0  0  0
  -27.9612  -36.7968   23.0223 C   0  0  0  0  0  0  0  0  0  0  0  0
  -24.1832   -9.2989   22.1961 C   0  0  0  0  0  0  0  0  0  0  0  0
  -22.9187  -11.2805   21.6381 C   0  0  0  0  0  0  0  0  0  0  0  0
  -26.4863  -37.3315   24.8538 C   0  0  0  0  0  0  0  0  0  0  0  0
  -27.6639  -35.4438   23.1816 C   0  0  0  0  0  0  0  0  0  0  0  0
  -26.9108  -29.4097   19.3950 C   0  0  0  0  0  0  0  0  0  0  0  0
  -26.2900  -19.4108   19.1188 C   0  0  0  0  0  0  0  0  0  0  0  0
  -28.5680  -19.7811   19.8335 C   0  0  0  0  0  0  0  0  0  0  0  0
  -26.5572  -18.0497   18.9723 C   0  0  0  0  0  0  0  0  0  0  0  0
  -28.8352  -18.4200   19.6870 C   0  0  0  0  0  0  0  0  0  0  0  0
  -23.3146   -9.0434   23.2572 C   0  0  0  0  0  0  0  0  0  0  0  0
  -22.0500  -11.0249   22.6991 C   0  0  0  0  0  0  0  0  0  0  0  0
  -27.3645  -28.0916   19.3675 C   0  0  0  0  0  0  0  0  0  0  0  0
  -20.2248   -7.7394   23.6883 C   0  0  0  0  0  0  0  0  0  0  0  0
  -19.7686   -6.4315   23.8521 C   0  0  0  0  0  0  0  0  0  0  0  0
  -25.7574  -27.5093   21.0697 C   0  0  0  0  0  0  0  0  0  0  0  0
  -20.7596   -6.3615   26.0544 C   0  0  0  0  0  0  0  0  0  0  0  0
  -23.9853  -10.4175   21.3866 C   0  0  0  0  0  0  0  0  0  0  0  0
  -24.7597  -10.2303   18.9632 C   0  0  0  0  0  0  0  0  0  0  0  0
  -26.1706  -35.9737   25.0192 C   0  0  0  0  0  0  0  0  0  0  0  0
  -25.8827  -29.7904   20.2693 C   0  0  0  0  0  0  0  0  0  0  0  0
  -26.7733  -35.0163   24.1810 C   0  0  0  0  0  0  0  0  0  0  0  0
  -25.2907  -28.8322   21.1045 C   0  0  0  0  0  0  0  0  0  0  0  0
  -27.2954  -20.2766   19.5494 C   0  0  0  0  0  0  0  0  0  0  0  0
  -27.8298  -17.5542   19.2564 C   0  0  0  0  0  0  0  0  0  0  0  0
  -22.2480   -9.9064   23.5087 C   0  0  0  0  0  0  0  0  0  0  0  0
  -26.7898  -27.1419   20.2070 C   0  0  0  0  0  0  0  0  0  0  0  0
  -20.9485   -8.3584   24.7076 C   0  0  0  0  0  0  0  0  0  0  0  0
  -20.0360   -5.7425   25.0351 C   0  0  0  0  0  0  0  0  0  0  0  0
  -21.2158   -7.6695   25.8906 C   0  0  0  0  0  0  0  0  0  0  0  0
  -24.8825  -10.6823   20.2908 C   0  0  0  0  0  0  0  0  0  0  0  0
  -25.8566  -10.7503   18.3206 C   0  0  0  0  0  0  0  0  0  0  0  0
  -26.6583  -23.5814   19.8048 C   0  0  0  0  0  0  0  0  0  0  0  0
  -25.9143  -22.3602   19.4939 C   0  0  0  0  0  0  0  0  0  0  0  0
  -26.3363  -24.8738   19.8593 C   0  0  0  0  0  0  0  0  0  1  0  0
  -23.7448   -9.4135   18.3645 C   0  0  0  0  0  0  0  0  0  0  0  0
  -25.6432  -31.8258   22.6991 C   0  0  0  0  0  0  0  0  0  0  0  0
  -22.5065  -31.0099   22.5654 C   0  0  0  0  0  0  0  0  0  0  0  0
  -20.1442  -28.7228   21.6514 C   0  0  0  0  0  0  0  0  0  0  0  0
  -29.3097  -15.5176   19.3472 C   0  0  0  0  0  0  0  0  0  0  0  0
  -25.2430  -35.5754   26.1397 C   0  0  0  0  0  0  0  0  0  0  0  0
  -25.3864  -31.2103   20.2678 C   0  0  0  0  0  0  0  0  0  0  0  0
  -24.1702  -29.1854   22.0469 C   0  0  0  0  0  0  0  0  0  0  0  0
  -27.8953  -22.7401   20.0210 C   0  0  0  0  0  0  0  0  0  0  0  0
  -24.6926  -34.1584   26.0001 C   0  0  0  0  0  0  0  0  0  0  0  0
  -30.3709  -12.1255   19.1350 C   0  0  0  0  0  0  0  0  0  0  0  0
  -25.8120  -33.1829   25.6507 C   0  0  0  0  0  0  0  0  0  0  0  0
  -29.0720  -11.3295   19.2804 C   0  0  0  0  0  0  0  0  0  0  0  0
  -30.3730  -13.3735   20.0161 C   0  0  0  0  0  0  0  0  0  0  0  0
  -27.9109  -13.4581   19.9933 C   0  0  0  0  0  0  0  0  0  0  0  0
  -26.4569  -33.5418   24.3065 C   0  0  1  0  0  0  0  0  0  0  0  0
  -24.6840  -31.5992   21.5650 C   0  0  1  0  0  0  0  0  0  0  0  0
  -27.8354  -12.2266   19.0761 C   0  0  2  0  0  0  0  0  0  0  0  0
  -17.6680  -28.3190   21.7065 C   0  0  0  0  0  0  0  0  0  0  0  0
  -22.6861  -30.3286   25.5342 C   0  0  0  0  0  0  0  0  0  0  0  0
  -20.5345  -29.0693   25.3040 C   0  0  0  0  0  0  0  0  0  0  0  0
  -20.5943  -31.5237   24.8628 C   0  0  0  0  0  0  0  0  0  0  0  0
  -19.9799  -28.6087   18.6986 C   0  0  0  0  0  0  0  0  0  0  0  0
  -21.6523  -29.9395   23.2005 C   0  0  1  0  0  0  0  0  0  0  0  0
  -18.8329  -28.8738   20.9015 C   0  0  2  0  0  0  0  0  0  0  0  0
  -21.3892  -30.2087   24.7091 C   0  0  0  0  0  0  0  0  0  0  0  0
  -25.9716  -11.4316   20.4817 N   0  0  0  0  0  0  0  0  0  0  0  0
  -26.5432  -11.4544   19.2656 N   0  0  0  0  0  0  0  0  0  0  0  0
  -27.0321  -21.6190   19.6936 N   0  0  0  0  0  0  0  0  0  0  0  0
  -23.7242  -30.5881   22.0130 N   0  0  0  0  0  0  0  0  0  0  0  0
  -29.1744  -14.1767   19.7649 N   0  0  0  0  0  0  0  0  0  0  0  0
  -26.2911  -10.6692   17.0450 N   0  0  0  0  0  0  0  0  0  0  0  0
  -22.6880   -8.9646   19.1682 N   0  0  0  0  0  0  0  0  0  0  0  0
  -28.1016  -16.1716   19.1076 N   0  0  0  0  0  0  0  0  0  0  0  0
  -25.6162  -33.1090   23.2110 N   0  0  0  0  0  0  0  0  0  0  0  0
  -20.4426  -29.8482   22.3901 N   0  0  0  0  0  0  0  0  0  0  0  0
  -18.8934  -28.1484   19.6011 N   0  3  0  0  0  0  0  0  0  0  0  0
  -24.7713  -22.1075   19.1743 O   0  0  0  0  0  0  0  0  0  0  0  0
  -23.7829   -9.0777   17.1565 O   0  0  0  0  0  0  0  0  0  0  0  0
  -26.3541  -30.9041   23.0824 O   0  0  0  0  0  0  0  0  0  0  0  0
  -22.1048  -32.1761   22.5533 O   0  0  0  0  0  0  0  0  0  0  0  0
  -20.8328  -27.7066   21.5911 O   0  0  0  0  0  0  0  0  0  0  0  0
  -30.4163  -16.0384   19.1856 O   0  0  0  0  0  0  0  0  0  0  0  0
  -21.4000   -9.6572   24.5438 O   0  0  0  0  0  0  0  0  0  0  0  0
  -27.2312  -25.8548   20.1826 O   0  0  0  0  0  0  0  0  0  1  0  0
  -19.5965   -4.4871   25.1928 F   0  0  0  0  0  0  0  0  0  0  0  0
  -21.9096   -8.2593   26.8738 F   0  0  0  0  0  0  0  0  0  0  0  0
  1  2  1  0  0  0  0
  1  5  2  0  0  0  0
  2  6  2  0  0  0  0
  3 12  2  0  0  0  0
  3 19  1  0  0  0  0
  4 13  1  0  0  0  0
  4 19  2  0  0  0  0
  5 21  1  0  0  0  0
  6 23  1  0  0  0  0
  7 14  2  0  0  0  0
  7 22  1  0  0  0  0
  8 10  2  0  0  0  0
  8 25  1  0  0  0  0
  9 11  1  0  0  0  0
  9 25  2  0  0  0  0
 10 26  1  0  0  0  0
 11 26  2  0  0  0  0
 12 27  1  0  0  0  0
 13 27  2  0  0  0  0
 14 28  1  0  0  0  0
 15 16  2  0  0  0  0
 15 29  1  0  0  0  0
 16 30  1  0  0  0  0
 17 24  1  0  0  0  0
 17 28  2  0  0  0  0
 18 30  2  0  0  0  0
 18 31  1  0  0  0  0
 19 32  1  0  0  0  0
 20 32  1  0  0  0  0
 20 33  2  0  0  0  0
 20 37  1  0  0  0  0
 21 23  2  0  0  0  0
 21 42  1  0  0  0  0
 22 24  2  0  0  0  0
 22 43  1  0  0  0  0
 23 52  1  0  0  0  0
 24 44  1  0  0  0  0
 25 65  1  0  0  0  0
 26 70  1  0  0  0  0
 27 80  1  0  0  0  0
 28 81  1  0  0  0  0
 29 31  2  0  0  0  0
 29 80  1  0  0  0  0
 30 82  1  0  0  0  0
 31 83  1  0  0  0  0
 32 63  2  0  0  0  0
 33 64  1  0  0  0  0
 33 68  1  0  0  0  0
 34 35  1  0  0  0  0
 34 36  2  0  0  0  0
 34 45  1  0  0  0  0
 35 65  1  0  0  0  0
 35 74  2  0  0  0  0
 36 81  1  0  0  0  0
 37 69  1  0  0  0  0
 37 75  2  0  0  0  0
 38 53  1  0  0  0  0
 38 71  1  0  0  0  0
 38 76  2  0  0  0  0
 39 60  1  0  0  0  0
 39 66  1  0  0  0  0
 39 77  2  0  0  0  0
 40 61  1  0  0  0  0
 40 72  1  0  0  0  0
 40 78  2  0  0  0  0
 41 67  1  0  0  0  0
 41 70  1  0  0  0  0
 41 79  2  0  0  0  0
 42 46  1  0  0  0  0
 43 53  1  0  0  0  0
 44 66  1  0  0  0  0
 45 65  1  0  0  0  0
 46 48  1  0  0  0  0
 47 49  1  0  0  0  0
 47 50  1  0  0  0  0
 48 52  1  0  0  0  0
 49 54  1  0  0  0  0
 50 67  1  0  0  0  0
 51 54  1  0  0  0  0
 51 67  1  0  0  0  0
 52 71  1  0  0  0  0
 53 66  1  0  0  0  0
 54 64  1  0  0  0  0
 55 61  1  0  0  0  0
 56 62  1  0  0  0  0
 57 62  1  0  0  0  0
 58 62  1  0  0  0  0
 59 73  1  0  0  0  0
 60 62  1  0  0  0  0
 60 72  1  0  0  0  0
 61 73  1  0  0  0  0
 63 64  1  0  0  0  0
M  CHG  1  73   1
M  ISO  4  36 101  41 100  70 100  81 101
M  END
> <Batch ID>
0083

> <Smiles>
CNC(C)C(=O)NC(C(=O)N1Cc2cc([101O:1][101CH:1]=C3CN(c4ccc([100NH:0][100C:0](=O)N5CCCC(n6nc(-c7ccc(Oc8ccc(F)cc8F)cc7)c(C(N)=O)c6N)C5)cc4)C3=O)ccc2CC1C(=O)NC1CCCc2ccccc21)C(C)(C)C

> <Shape>
0.292

> <Color>
0.088

> <Negative vol penalty>
0.000

$$$$

  -OEChem-04052300093D

 84 93  0     1  0  0  0  0  0999 V2000
  -30.0714  -33.9049   25.3942 C   0  0  0  0  0  0  0  0  0  0  0  0
  -30.0414  -32.6906   24.7161 C   0  0  0  0  0  0  0  0  0  0  0  0
  -24.6617   -9.2278   21.9601 C   0  0  0  0  0  0  0  0  0  0  0  0
  -23.2817  -10.0402   20.1510 C   0  0  0  0  0  0  0  0  0  0  0  0
  -28.9065  -34.4088   25.9713 C   0  0  0  0  0  0  0  0  0  0  0  0
  -28.8466  -31.9788   24.6156 C   0  0  0  0  0  0  0  0  0  0  0  0
  -26.9879  -28.5540   19.8910 C   0  0  0  0  0  0  0  0  0  0  0  0
  -23.5439   -8.6344   22.5464 C   0  0  0  0  0  0  0  0  0  0  0  0
  -22.1638   -9.4467   20.7373 C   0  0  0  0  0  0  0  0  0  0  0  0
  -27.0243  -27.1801   19.6567 C   0  0  0  0  0  0  0  0  0  0  0  0
  -21.6890   -5.8414   22.1088 C   0  0  0  0  0  0  0  0  0  0  0  0
  -21.8225   -4.5374   22.5857 C   0  0  0  0  0  0  0  0  0  0  0  0
  -24.7549  -26.9904   20.4523 C   0  0  0  0  0  0  0  0  0  0  0  0
  -23.7901  -19.6211   16.6258 C   0  0  0  0  0  0  0  0  0  0  0  0
  -25.5530  -19.0225   18.1654 C   0  0  0  0  0  0  0  0  0  0  0  0
  -24.5438  -17.3301   16.7675 C   0  0  0  0  0  0  0  0  0  0  0  0
  -21.2515   -5.2920   24.8087 C   0  0  0  0  0  0  0  0  0  0  0  0
  -24.5307   -9.9308   20.7624 C   0  0  0  0  0  0  0  0  0  0  0  0
  -26.5654   -9.9639   19.2240 C   0  0  0  0  0  0  0  0  0  0  0  0
  -27.6947  -33.7075   25.8695 C   0  0  0  0  0  0  0  0  0  0  0  0
  -25.8365  -29.1557   20.4188 C   0  0  0  0  0  0  0  0  0  0  0  0
  -27.6646  -32.4730   25.1930 C   0  0  0  0  0  0  0  0  0  0  0  0
  -24.7055  -28.3725   20.6899 C   0  0  0  0  0  0  0  0  0  0  0  0
  -24.7141  -19.9857   17.6050 C   0  0  0  0  0  0  0  0  0  0  0  0
  -23.7049  -18.2933   16.2071 C   0  0  0  0  0  0  0  0  0  0  0  0
  -25.4679  -17.6947   17.7467 C   0  0  0  0  0  0  0  0  0  0  0  0
  -22.2949   -8.7438   21.9350 C   0  0  0  0  0  0  0  0  0  0  0  0
  -25.9087  -26.3976   19.9401 C   0  0  0  0  0  0  0  0  0  0  0  0
  -21.3368   -6.8707   22.9819 C   0  0  0  0  0  0  0  0  0  0  0  0
  -21.6038   -4.2627   23.9356 C   0  0  0  0  0  0  0  0  0  0  0  0
  -21.1181   -6.5960   24.3318 C   0  0  0  0  0  0  0  0  0  0  0  0
  -25.6850  -10.5445   20.1566 C   0  0  0  0  0  0  0  0  0  0  0  0
  -27.4865  -10.9485   18.9624 C   0  0  0  0  0  0  0  0  0  0  0  0
  -24.9760  -23.2196   18.5355 C   0  0  0  0  0  0  0  0  0  0  0  0
  -24.1273  -22.4158   17.6551 C   0  0  0  0  0  0  0  0  0  0  0  0
  -25.0355  -24.5296   18.8360 C   0  0  0  0  0  0  0  0  0  1  0  0
  -26.5517   -8.6519   18.6460 C   0  0  0  0  0  0  0  0  0  0  0  0
  -25.1637  -30.7650   23.0761 C   0  0  0  0  0  0  0  0  0  0  0  0
  -22.2910  -31.1860   21.6295 C   0  0  0  0  0  0  0  0  0  0  0  0
  -20.0082  -30.0827   19.3451 C   0  0  0  0  0  0  0  0  0  0  0  0
  -27.2940  -16.9115   19.2953 C   0  0  0  0  0  0  0  0  0  0  0  0
  -26.4715  -34.2690   26.5502 C   0  0  0  0  0  0  0  0  0  0  0  0
  -25.8040  -30.6431   20.6407 C   0  0  0  0  0  0  0  0  0  0  0  0
  -23.4379  -28.9730   21.2385 C   0  0  0  0  0  0  0  0  0  0  0  0
  -25.7159  -21.9609   18.9263 C   0  0  0  0  0  0  0  0  0  0  0  0
  -25.1660  -33.6354   26.0766 C   0  0  0  0  0  0  0  0  0  0  0  0
  -29.5727  -14.7571   20.9815 C   0  0  0  0  0  0  0  0  0  0  0  0
  -25.2952  -32.1161   26.0323 C   0  0  0  0  0  0  0  0  0  0  0  0
  -28.9174  -13.3785   20.8711 C   0  0  0  0  0  0  0  0  0  0  0  0
  -28.5372  -15.8635   21.1745 C   0  0  0  0  0  0  0  0  0  0  0  0
  -26.8042  -14.5073   20.0669 C   0  0  0  0  0  0  0  0  0  0  0  0
  -26.3825  -31.6836   25.0412 C   0  0  1  0  0  0  0  0  0  0  0  0
  -24.7559  -31.0719   21.6629 C   0  0  1  0  0  0  0  0  0  0  0  0
  -27.8029  -13.3679   19.8066 C   0  0  2  0  0  0  0  0  0  0  0  0
  -17.7390  -30.6126   18.4139 C   0  0  0  0  0  0  0  0  0  0  0  0
  -20.9958  -30.0674   24.1555 C   0  0  0  0  0  0  0  0  0  0  0  0
  -18.8897  -29.7330   22.8437 C   0  0  0  0  0  0  0  0  0  0  0  0
  -19.8105  -32.0301   23.1568 C   0  0  0  0  0  0  0  0  0  0  0  0
  -21.0889  -30.4624   16.6162 C   0  0  0  0  0  0  0  0  0  0  0  0
  -20.9878  -30.4246   21.5985 C   0  0  1  0  0  0  0  0  0  0  0  0
  -19.2387  -30.8105   18.2577 C   0  0  2  0  0  0  0  0  0  0  0  0
  -20.1954  -30.5518   22.9301 C   0  0  0  0  0  0  0  0  0  0  0  0
  -26.0171  -11.8005   20.4666 N   0  0  0  0  0  0  0  0  0  0  0  0
  -27.1165  -12.0173   19.7247 N   0  0  0  0  0  0  0  0  0  0  0  0
  -24.7994  -21.2952   18.0176 N   0  0  0  0  0  0  0  0  0  0  0  0
  -23.4577  -30.4307   21.4443 N   0  0  0  0  0  0  0  0  0  0  0  0
  -27.5156  -15.7938   20.1273 N   0  0  0  0  0  0  0  0  0  0  0  0
  -22.7708  -17.9240   15.2170 N   0  0  0  0  0  0  0  0  0  0  0  0
  -28.5689  -10.9957   18.1570 N   0  0  0  0  0  0  0  0  0  0  0  0
  -25.5344   -7.7654   19.0249 N   0  0  0  0  0  0  0  0  0  0  0  0
  -26.3214  -16.7169   18.3151 N   0  0  0  0  0  0  0  0  0  0  0  0
  -25.8916  -31.7709   23.6826 N   0  0  0  0  0  0  0  0  0  0  0  0
  -20.2644  -30.9012   20.4247 N   0  0  0  0  0  0  0  0  0  0  0  0
  -19.6415  -30.3085   16.9135 N   0  3  0  0  0  0  0  0  0  0  0  0
  -23.2080  -22.6497   16.8984 O   0  0  0  0  0  0  0  0  0  0  0  0
  -27.4254   -8.2713   17.8303 O   0  0  0  0  0  0  0  0  0  0  0  0
  -24.8407  -29.6955   23.5795 O   0  0  0  0  0  0  0  0  0  0  0  0
  -22.2740  -32.4070   21.8041 O   0  0  0  0  0  0  0  0  0  0  0  0
  -20.3449  -28.9046   19.2482 O   0  0  0  0  0  0  0  0  0  0  0  0
  -27.9401  -17.9546   19.4241 O   0  0  0  0  0  0  0  0  0  0  0  0
  -21.2039   -8.1646   22.5067 O   0  0  0  0  0  0  0  0  0  0  0  0
  -25.9418  -25.0563   19.7130 O   0  0  0  0  0  0  0  0  0  1  0  0
  -21.7305   -3.0102   24.3932 F   0  0  0  0  0  0  0  0  0  0  0  0
  -20.7784   -7.5805   25.1751 F   0  0  0  0  0  0  0  0  0  0  0  0
  1  2  1  0  0  0  0
  1  5  2  0  0  0  0
  2  6  2  0  0  0  0
  3  8  2  0  0  0  0
  3 18  1  0  0  0  0
  4  9  1  0  0  0  0
  4 18  2  0  0  0  0
  5 20  1  0  0  0  0
  6 22  1  0  0  0  0
  7 10  2  0  0  0  0
  7 21  1  0  0  0  0
  8 27  1  0  0  0  0
  9 27  2  0  0  0  0
 10 28  1  0  0  0  0
 11 12  2  0  0  0  0
 11 29  1  0  0  0  0
 12 30  1  0  0  0  0
 13 23  1  0  0  0  0
 13 28  2  0  0  0  0
 14 24  1  0  0  0  0
 14 25  2  0  0  0  0
 15 24  2  0  0  0  0
 15 26  1  0  0  0  0
 16 25  1  0  0  0  0
 16 26  2  0  0  0  0
 17 30  2  0  0  0  0
 17 31  1  0  0  0  0
 18 32  1  0  0  0  0
 19 32  1  0  0  0  0
 19 33  2  0  0  0  0
 19 37  1  0  0  0  0
 20 22  2  0  0  0  0
 20 42  1  0  0  0  0
 21 23  2  0  0  0  0
 21 43  1  0  0  0  0
 22 52  1  0  0  0  0
 23 44  1  0  0  0  0
 24 65  1  0  0  0  0
 25 68  1  0  0  0  0
 26 71  1  0  0  0  0
 27 81  1  0  0  0  0
 28 82  1  0  0  0  0
 29 31  2  0  0  0  0
 29 81  1  0  0  0  0
 30 83  1  0  0  0  0
 31 84  1  0  0  0  0
 32 63  2  0  0  0  0
 33 64  1  0  0  0  0
 33 69  1  0  0  0  0
 34 35  1  0  0  0  0
 34 36  2  0  0  0  0
 34 45  1  0  0  0  0
 35 65  1  0  0  0  0
 35 75  2  0  0  0  0
 36 82  1  0  0  0  0
 37 70  1  0  0  0  0
 37 76  2  0  0  0  0
 38 53  1  0  0  0  0
 38 72  1  0  0  0  0
 38 77  2  0  0  0  0
 39 60  1  0  0  0  0
 39 66  1  0  0  0  0
 39 78  2  0  0  0  0
 40 61  1  0  0  0  0
 40 73  1  0  0  0  0
 40 79  2  0  0  0  0
 41 67  1  0  0  0  0
 41 71  1  0  0  0  0
 41 80  2  0  0  0  0
 42 46  1  0  0  0  0
 43 53  1  0  0  0  0
 44 66  1  0  0  0  0
 45 65  1  0  0  0  0
 46 48  1  0  0  0  0
 47 49  1  0  0  0  0
 47 50  1  0  0  0  0
 48 52  1  0  0  0  0
 49 54  1  0  0  0  0
 50 67  1  0  0  0  0
 51 54  1  0  0  0  0
 51 67  1  0  0  0  0
 52 72  1  0  0  0  0
 53 66  1  0  0  0  0
 54 64  1  0  0  0  0
 55 61  1  0  0  0  0
 56 62  1  0  0  0  0
 57 62  1  0  0  0  0
 58 62  1  0  0  0  0
 59 74  1  0  0  0  0
 60 62  1  0  0  0  0
 60 73  1  0  0  0  0
 61 74  1  0  0  0  0
 63 64  1  0  0  0  0
M  CHG  1  74   1
M  ISO  4  36 101  41 100  71 100  82 101
M  END
> <Batch ID>
0083

> <Smiles>
CNC(C)C(=O)NC(C(=O)N1Cc2cc([101O:1][101CH:1]=C3CN(c4cc(N)cc([100NH:0][100C:0](=O)N5CCCC(n6nc(-c7ccc(Oc8ccc(F)cc8F)cc7)c(C(N)=O)c6N)C5)c4)C3=O)ccc2CC1C(=O)NC1CCCc2ccccc21)C(C)(C)C

> <Shape>
0.267

> <Color>
0.084

> <Negative vol penalty>
0.000

$$$$

  -OEChem-04052300093D

 86 95  0     1  0  0  0  0  0999 V2000
  -19.8830  -12.6185   18.8799 C   0  0  0  0  0  0  0  0  0  0  0  0
  -20.3677  -13.8740   18.5273 C   0  0  0  0  0  0  0  0  0  0  0  0
  -32.1520  -27.4280   19.3607 C   0  0  0  0  0  0  0  0  0  0  0  0
  -23.4892  -23.5342   19.8459 C   0  0  0  0  0  0  0  0  0  0  0  0
  -21.2760  -24.4190   20.2408 C   0  0  0  0  0  0  0  0  0  0  0  0
  -31.4623  -28.5343   19.8565 C   0  0  0  0  0  0  0  0  0  0  0  0
  -20.5310  -11.8736   19.8644 C   0  0  0  0  0  0  0  0  0  0  0  0
  -21.5000  -14.3858   19.1600 C   0  0  0  0  0  0  0  0  0  0  0  0
  -27.2024  -18.5350   17.9015 C   0  0  0  0  0  0  0  0  0  0  0  0
  -31.6210  -26.1476   19.5168 C   0  0  0  0  0  0  0  0  0  0  0  0
  -23.0816  -22.2946   20.3389 C   0  0  0  0  0  0  0  0  0  0  0  0
  -20.8684  -23.1794   20.7338 C   0  0  0  0  0  0  0  0  0  0  0  0
  -27.8601  -19.6486   18.4221 C   0  0  0  0  0  0  0  0  0  0  0  0
  -22.7224  -18.9969   21.8286 C   0  0  0  0  0  0  0  0  0  0  0  0
  -23.5720  -18.3400   22.7186 C   0  0  0  0  0  0  0  0  0  0  0  0
  -29.7104  -27.0800   20.6646 C   0  0  0  0  0  0  0  0  0  0  0  0
  -28.9437  -18.2390   20.0524 C   0  0  0  0  0  0  0  0  0  0  0  0
  -23.4113  -20.2038   24.2476 C   0  0  0  0  0  0  0  0  0  0  0  0
  -22.5864  -24.5964   19.7969 C   0  0  0  0  0  0  0  0  0  0  0  0
  -30.2415  -28.3603   20.5085 C   0  0  0  0  0  0  0  0  0  0  0  0
  -22.9471  -26.3235   17.9544 C   0  0  0  0  0  0  0  0  0  0  0  0
  -21.6775  -12.3725   20.5025 C   0  0  0  0  0  0  0  0  0  0  0  0
  -27.4025  -17.2645   18.4603 C   0  0  0  0  0  0  0  0  0  0  0  0
  -22.1632  -13.6475   20.1549 C   0  0  0  0  0  0  0  0  0  0  0  0
  -28.2894  -17.1104   19.5354 C   0  0  0  0  0  0  0  0  0  0  0  0
  -30.4002  -25.9736   20.1687 C   0  0  0  0  0  0  0  0  0  0  0  0
  -21.7712  -22.1172   20.7828 C   0  0  0  0  0  0  0  0  0  0  0  0
  -28.7286  -19.5012   19.4996 C   0  0  0  0  0  0  0  0  0  0  0  0
  -22.2172  -20.2573   22.1480 C   0  0  0  0  0  0  0  0  0  0  0  0
  -23.9165  -18.9434   23.9281 C   0  0  0  0  0  0  0  0  0  0  0  0
  -22.5616  -20.8607   23.3575 C   0  0  0  0  0  0  0  0  0  0  0  0
  -23.0069  -25.8772   19.2882 C   0  0  0  0  0  0  0  0  0  0  0  0
  -23.4622  -27.5961   17.9948 C   0  0  0  0  0  0  0  0  0  0  0  0
  -29.0841  -22.8783   20.4510 C   0  0  0  0  0  0  0  0  0  0  0  0
  -30.3181  -23.4842   19.9494 C   0  0  0  0  0  0  0  0  0  0  0  0
  -29.5080  -29.5395   21.0360 C   0  0  0  0  0  0  0  0  0  0  0  0
  -22.4687  -25.6481   16.7837 C   0  0  0  0  0  0  0  0  0  0  0  0
  -28.6124  -21.6103   20.5040 C   0  0  0  0  0  0  0  0  0  1  0  0
  -25.5392  -15.1270   19.8965 C   0  0  0  0  0  0  0  0  0  0  0  0
  -28.2130  -13.2942   19.7785 C   0  0  0  0  0  0  0  0  0  0  0  0
  -31.6166  -13.1448   19.5784 C   0  0  0  0  0  0  0  0  0  0  0  0
  -27.2548  -30.3676   21.6371 C   0  0  0  0  0  0  0  0  0  0  0  0
  -22.3163  -11.5508   21.5941 C   0  0  0  0  0  0  0  0  0  0  0  0
  -26.7060  -16.0691   17.8700 C   0  0  0  0  0  0  0  0  0  0  0  0
  -28.5543  -15.7650   20.1583 C   0  0  0  0  0  0  0  0  0  0  0  0
  -28.6065  -24.2535   20.8579 C   0  0  0  0  0  0  0  0  0  0  0  0
  -23.7289  -12.0058   21.9515 C   0  0  0  0  0  0  0  0  0  0  0  0
  -23.9344  -31.3548   20.9320 C   0  0  0  0  0  0  0  0  0  0  0  0
  -23.7772  -13.5221   22.1106 C   0  0  0  0  0  0  0  0  0  0  0  0
  -23.3150  -30.1085   20.2936 C   0  0  0  0  0  0  0  0  0  0  0  0
  -24.8947  -30.9944   22.0646 C   0  0  0  0  0  0  0  0  0  0  0  0
  -25.3153  -28.7791   21.0780 C   0  0  0  0  0  0  0  0  0  0  0  0
  -23.4033  -14.2264   20.8008 C   0  0  1  0  0  0  0  0  0  0  0  0
  -26.5902  -14.9026   18.8464 C   0  0  1  0  0  0  0  0  0  0  0  0
  -24.3945  -29.0859   19.8859 C   0  0  1  0  0  0  0  0  0  0  0  0
  -27.2863  -21.2250   21.0786 C   0  0  0  0  0  0  0  0  0  0  0  0
  -33.5178  -11.5073   19.5415 C   0  0  0  0  0  0  0  0  0  0  0  0
  -27.9073  -12.8752   22.7853 C   0  0  0  0  0  0  0  0  0  0  0  0
  -30.2767  -12.0685   22.8434 C   0  0  0  0  0  0  0  0  0  0  0  0
  -28.5716  -10.8295   21.5092 C   0  0  0  0  0  0  0  0  0  0  0  0
  -32.4811  -14.0319   16.8905 C   0  0  0  0  0  0  0  0  0  0  0  0
  -29.3983  -13.0728   20.6868 C   0  0  1  0  0  0  0  0  0  0  0  0
  -32.5387  -12.3149   18.7036 C   0  0  2  0  0  0  0  0  0  0  0  0
  -29.0322  -12.2373   21.9459 C   0  0  0  0  0  0  0  0  0  0  0  0
  -23.5197  -26.7919   20.1155 N   0  0  0  0  0  0  0  0  0  0  0  0
  -23.7868  -27.8256   19.2994 N   0  0  0  0  0  0  0  0  0  0  0  0
  -29.8765  -24.7109   20.3222 N   0  0  0  0  0  0  0  0  0  0  0  0
  -27.8447  -14.6276   19.5498 N   0  0  0  0  0  0  0  0  0  0  0  0
  -25.8908  -30.0299   21.5948 N   0  0  0  0  0  0  0  0  0  0  0  0
  -23.6646  -28.5299   17.0411 N   0  0  0  0  0  0  0  0  0  0  0  0
  -21.9727  -24.3444   16.9202 N   0  0  0  0  0  0  0  0  0  0  0  0
  -28.1232  -29.3963   21.1265 N   0  0  0  0  0  0  0  0  0  0  0  0
  -24.5162  -14.1982   19.8761 N   0  0  0  0  0  0  0  0  0  0  0  0
  -30.4421  -12.4789   19.8583 N   0  0  0  0  0  0  0  0  0  0  0  0
  -33.3184  -13.1970   17.7898 N   0  3  0  0  0  0  0  0  0  0  0  0
  -31.3219  -23.0690   19.4086 O   0  0  0  0  0  0  0  0  0  0  0  0
  -30.1426  -30.5295   21.3897 O   0  0  0  0  0  0  0  0  0  0  0  0
  -22.4959  -26.1787   15.6474 O   0  0  0  0  0  0  0  0  0  0  0  0
  -25.6490  -16.0718   20.6691 O   0  0  0  0  0  0  0  0  0  0  0  0
  -27.6396  -12.3202   19.2843 O   0  0  0  0  0  0  0  0  0  0  0  0
  -31.9105  -14.2697   19.9769 O   0  0  0  0  0  0  0  0  0  0  0  0
  -27.6621  -31.4551   22.0575 O   0  0  0  0  0  0  0  0  0  0  0  0
  -21.3731  -20.9078   21.2637 O   0  0  0  0  0  0  0  0  0  0  0  0
  -29.3713  -20.5866   20.0101 O   0  0  0  0  0  0  0  0  0  1  0  0
  -24.7312  -18.3118   24.7834 F   0  0  0  0  0  0  0  0  0  0  0  0
  -22.0785  -22.0708   23.6704 F   0  0  0  0  0  0  0  0  0  0  0  0
  1  2  1  0  0  0  0
  1  7  2  0  0  0  0
  2  8  2  0  0  0  0
  3  6  1  0  0  0  0
  3 10  2  0  0  0  0
  4 11  2  0  0  0  0
  4 19  1  0  0  0  0
  5 12  1  0  0  0  0
  5 19  2  0  0  0  0
  6 20  2  0  0  0  0
  7 22  1  0  0  0  0
  8 24  1  0  0  0  0
  9 13  2  0  0  0  0
  9 23  1  0  0  0  0
 10 26  1  0  0  0  0
 11 27  1  0  0  0  0
 12 27  2  0  0  0  0
 13 28  1  0  0  0  0
 14 15  2  0  0  0  0
 14 29  1  0  0  0  0
 15 30  1  0  0  0  0
 16 20  1  0  0  0  0
 16 26  2  0  0  0  0
 17 25  1  0  0  0  0
 17 28  2  0  0  0  0
 18 30  2  0  0  0  0
 18 31  1  0  0  0  0
 19 32  1  0  0  0  0
 20 36  1  0  0  0  0
 21 32  1  0  0  0  0
 21 33  2  0  0  0  0
 21 37  1  0  0  0  0
 22 24  2  0  0  0  0
 22 43  1  0  0  0  0
 23 25  2  0  0  0  0
 23 44  1  0  0  0  0
 24 53  1  0  0  0  0
 25 45  1  0  0  0  0
 26 67  1  0  0  0  0
 27 83  1  0  0  0  0
 28 84  1  0  0  0  0
 29 31  2  0  0  0  0
 29 83  1  0  0  0  0
 30 85  1  0  0  0  0
 31 86  1  0  0  0  0
 32 65  2  0  0  0  0
 33 66  1  0  0  0  0
 33 70  1  0  0  0  0
 34 35  1  0  0  0  0
 34 38  2  0  0  0  0
 34 46  1  0  0  0  0
 35 67  1  0  0  0  0
 35 76  2  0  0  0  0
 36 72  1  0  0  0  0
 36 77  2  0  0  0  0
 37 71  1  0  0  0  0
 37 78  2  0  0  0  0
 38 56  1  0  0  0  0
 38 84  1  0  0  0  0
 39 54  1  0  0  0  0
 39 73  1  0  0  0  0
 39 79  2  0  0  0  0
 40 62  1  0  0  0  0
 40 68  1  0  0  0  0
 40 80  2  0  0  0  0
 41 63  1  0  0  0  0
 41 74  1  0  0  0  0
 41 81  2  0  0  0  0
 42 69  1  0  0  0  0
 42 72  1  0  0  0  0
 42 82  2  0  0  0  0
 43 47  1  0  0  0  0
 44 54  1  0  0  0  0
 45 68  1  0  0  0  0
 46 67  1  0  0  0  0
 47 49  1  0  0  0  0
 48 50  1  0  0  0  0
 48 51  1  0  0  0  0
 49 53  1  0  0  0  0
 50 55  1  0  0  0  0
 51 69  1  0  0  0  0
 52 55  1  0  0  0  0
 52 69  1  0  0  0  0
 53 73  1  0  0  0  0
 54 68  1  0  0  0  0
 55 66  1  0  0  0  0
 57 63  1  0  0  0  0
 58 64  1  0  0  0  0
 59 64  1  0  0  0  0
 60 64  1  0  0  0  0
 61 75  1  0  0  0  0
 62 64  1  0  0  0  0
 62 74  1  0  0  0  0
 63 75  1  0  0  0  0
 65 66  1  0  0  0  0
M  CHG  1  75   1
M  ISO  4  38 101  42 100  72 100  84 101
M  END
> <Batch ID>
0083

> <Smiles>
CNC(C)C(=O)NC(C(=O)N1Cc2cc([101O:1][101C:1](C)=C3CN(c4cccc(C(=O)[100NH:0][100C:0](=O)N5CCCC(n6nc(-c7ccc(Oc8ccc(F)cc8F)cc7)c(C(N)=O)c6N)C5)c4)C3=O)ccc2CC1C(=O)NC1CCCc2ccccc21)C(C)(C)C

> <Shape>
0.242

> <Color>
0.062

> <Negative vol penalty>
0.000

$$$$

  -OEChem-04052300093D

 84 93  0     1  0  0  0  0  0999 V2000
  -30.3259  -34.7037   18.2368 C   0  0  0  0  0  0  0  0  0  0  0  0
  -30.1451  -33.4079   18.7097 C   0  0  0  0  0  0  0  0  0  0  0  0
  -23.1238  -10.1987   20.5861 C   0  0  0  0  0  0  0  0  0  0  0  0
  -24.1915   -8.8886   22.3126 C   0  0  0  0  0  0  0  0  0  0  0  0
  -29.6227  -35.7598   18.8147 C   0  0  0  0  0  0  0  0  0  0  0  0
  -29.2618  -33.1676   19.7616 C   0  0  0  0  0  0  0  0  0  0  0  0
  -26.3002  -29.1447   18.9312 C   0  0  0  0  0  0  0  0  0  0  0  0
  -22.1798   -9.1883   20.4032 C   0  0  0  0  0  0  0  0  0  0  0  0
  -23.2473   -7.8782   22.1298 C   0  0  0  0  0  0  0  0  0  0  0  0
  -26.8661  -27.8859   19.1284 C   0  0  0  0  0  0  0  0  0  0  0  0
  -20.0457   -7.2713   23.0252 C   0  0  0  0  0  0  0  0  0  0  0  0
  -19.4791   -6.7018   24.1655 C   0  0  0  0  0  0  0  0  0  0  0  0
  -27.3876  -18.1446   20.5900 C   0  0  0  0  0  0  0  0  0  0  0  0
  -26.7251  -19.3326   21.0141 C   0  0  0  0  0  0  0  0  0  0  0  0
  -25.8068  -27.7553   21.2918 C   0  0  0  0  0  0  0  0  0  0  0  0
  -20.3364   -4.5397   23.5116 C   0  0  0  0  0  0  0  0  0  0  0  0
  -24.1297  -10.0488   21.5408 C   0  0  0  0  0  0  0  0  0  0  0  0
  -25.0209  -12.1855   22.6123 C   0  0  0  0  0  0  0  0  0  0  0  0
  -28.7231  -35.5311   19.8678 C   0  0  0  0  0  0  0  0  0  0  0  0
  -25.4908  -29.7240   19.9191 C   0  0  0  0  0  0  0  0  0  0  0  0
  -28.5470  -34.2219   20.3551 C   0  0  0  0  0  0  0  0  0  0  0  0
  -25.2298  -29.0205   21.1036 C   0  0  0  0  0  0  0  0  0  0  0  0
  -22.2415   -8.0281   21.1750 C   0  0  0  0  0  0  0  0  0  0  0  0
  -26.6218  -27.1922   20.3100 C   0  0  0  0  0  0  0  0  0  0  0  0
  -20.7577   -6.4750   22.1281 C   0  0  0  0  0  0  0  0  0  0  0  0
  -19.6244   -5.3360   24.4087 C   0  0  0  0  0  0  0  0  0  0  0  0
  -20.9030   -5.1092   22.3713 C   0  0  0  0  0  0  0  0  0  0  0  0
  -25.1056  -11.0919   21.7298 C   0  0  0  0  0  0  0  0  0  0  0  0
  -28.6808  -18.3901   20.1838 C   0  0  0  0  0  0  0  0  0  0  0  0
  -26.1909  -12.8773   22.4150 C   0  0  0  0  0  0  0  0  0  0  0  0
  -27.5373  -20.4410   20.9162 C   0  0  0  0  0  0  0  0  0  0  0  0
  -26.7654  -23.6475   20.9071 C   0  0  0  0  0  0  0  0  0  0  0  0
  -26.0981  -22.3660   21.1395 C   0  0  0  0  0  0  0  0  0  0  0  0
  -26.3324  -24.9049   20.7041 C   0  0  0  0  0  0  0  0  0  1  0  0
  -23.9779  -12.5438   23.5285 C   0  0  0  0  0  0  0  0  0  0  0  0
  -29.6964  -17.4321   19.6764 C   0  0  0  0  0  0  0  0  0  0  0  0
  -25.6602  -32.3499   21.7022 C   0  0  0  0  0  0  0  0  0  0  0  0
  -22.6920  -31.4356   22.6384 C   0  0  0  0  0  0  0  0  0  0  0  0
  -20.4252  -28.9143   23.0278 C   0  0  0  0  0  0  0  0  0  0  0  0
  -30.0694  -15.0523   19.1097 C   0  0  0  0  0  0  0  0  0  0  0  0
  -28.0211  -36.7110   20.4921 C   0  0  0  0  0  0  0  0  0  0  0  0
  -24.8662  -31.0712   19.6797 C   0  0  0  0  0  0  0  0  0  0  0  0
  -24.3515  -29.5896   22.1867 C   0  0  0  0  0  0  0  0  0  0  0  0
  -28.0974  -22.9375   20.9883 C   0  0  0  0  0  0  0  0  0  0  0  0
  -26.8232  -36.3208   21.3541 C   0  0  0  0  0  0  0  0  0  0  0  0
  -30.3791  -11.6124   19.8631 C   0  0  0  0  0  0  0  0  0  0  0  0
  -27.1860  -35.1642   22.2800 C   0  0  0  0  0  0  0  0  0  0  0  0
  -29.0309  -11.2586   20.4966 C   0  0  0  0  0  0  0  0  0  0  0  0
  -30.2228  -12.6096   18.7159 C   0  0  0  0  0  0  0  0  0  0  0  0
  -28.1265  -13.4706   19.6761 C   0  0  0  0  0  0  0  0  0  0  0  0
  -27.5791  -33.9177   21.4779 C   0  0  1  0  0  0  0  0  0  0  0  0
  -24.4756  -31.7863   20.9695 C   0  0  1  0  0  0  0  0  0  0  0  0
  -28.2376  -12.5235   20.8818 C   0  0  1  0  0  0  0  0  0  0  0  0
  -18.0976  -28.4680   23.8528 C   0  0  0  0  0  0  0  0  0  0  0  0
  -23.6807  -31.6181   25.5192 C   0  0  0  0  0  0  0  0  0  0  0  0
  -21.6822  -30.2808   26.2163 C   0  0  0  0  0  0  0  0  0  0  0  0
  -21.3755  -32.5143   25.1486 C   0  0  0  0  0  0  0  0  0  0  0  0
  -19.5375  -27.9735   20.3659 C   0  0  0  0  0  0  0  0  0  0  0  0
  -22.1399  -30.5606   23.7378 C   0  0  1  0  0  0  0  0  0  0  0  0
  -18.9594  -28.8100   22.6473 C   0  0  2  0  0  0  0  0  0  0  0  0
  -22.2378  -31.2333   25.1361 C   0  0  0  0  0  0  0  0  0  0  0  0
  -26.2397  -11.0853   21.0243 N   0  0  0  0  0  0  0  0  0  0  0  0
  -26.8783  -12.1833   21.4632 N   0  0  0  0  0  0  0  0  0  0  0  0
  -27.3008  -21.7440   21.2120 N   0  0  0  0  0  0  0  0  0  0  0  0
  -23.7689  -30.9127   21.9084 N   0  0  0  0  0  0  0  0  0  0  0  0
  -29.4697  -13.7820   19.1646 N   0  0  0  0  0  0  0  0  0  0  0  0
  -26.6884  -14.0056   22.9644 N   0  0  0  0  0  0  0  0  0  0  0  0
  -22.8446  -11.7227   23.6051 N   0  0  0  0  0  0  0  0  0  0  0  0
  -29.2842  -16.1014   19.6007 N   0  0  0  0  0  0  0  0  0  0  0  0
  -26.3998  -33.2544   20.9645 N   0  0  0  0  0  0  0  0  0  0  0  0
  -20.7817  -30.2099   23.3371 N   0  0  0  0  0  0  0  0  0  0  0  0
  -18.7660  -27.7518   21.6159 N   0  3  0  0  0  0  0  0  0  0  0  0
  -24.9423  -21.9960   21.1631 O   0  0  0  0  0  0  0  0  0  0  0  0
  -24.0414  -13.5710   24.2457 O   0  0  0  0  0  0  0  0  0  0  0  0
  -30.7943  -17.8550   19.3247 O   0  0  0  0  0  0  0  0  0  0  0  0
  -25.8856  -31.9918   22.8523 O   0  0  0  0  0  0  0  0  0  0  0  0
  -22.1819  -32.5392   22.4302 O   0  0  0  0  0  0  0  0  0  0  0  0
  -21.1778  -27.9430   23.0522 O   0  0  0  0  0  0  0  0  0  0  0  0
  -31.2187  -15.2322   18.6950 O   0  0  0  0  0  0  0  0  0  0  0  0
  -21.3203   -7.0420   20.9969 O   0  0  0  0  0  0  0  0  0  0  0  0
  -27.1734  -25.9637   20.5054 O   0  0  0  0  0  0  0  0  0  1  0  0
  -19.0815   -4.7895   25.5045 F   0  0  0  0  0  0  0  0  0  0  0  0
  -21.5868   -4.3394   21.5137 F   0  0  0  0  0  0  0  0  0  0  0  0
  -29.0916  -20.0474   20.3147 S   0  0  0  0  0  0  0  0  0  0  0  0
  1  2  1  0  0  0  0
  1  5  2  0  0  0  0
  2  6  2  0  0  0  0
  3  8  2  0  0  0  0
  3 17  1  0  0  0  0
  4  9  1  0  0  0  0
  4 17  2  0  0  0  0
  5 19  1  0  0  0  0
  6 21  1  0  0  0  0
  7 10  2  0  0  0  0
  7 20  1  0  0  0  0
  8 23  1  0  0  0  0
  9 23  2  0  0  0  0
 10 24  1  0  0  0  0
 11 12  2  0  0  0  0
 11 25  1  0  0  0  0
 12 26  1  0  0  0  0
 13 14  1  0  0  0  0
 13 29  2  0  0  0  0
 14 31  2  0  0  0  0
 15 22  1  0  0  0  0
 15 24  2  0  0  0  0
 16 26  2  0  0  0  0
 16 27  1  0  0  0  0
 17 28  1  0  0  0  0
 18 28  1  0  0  0  0
 18 30  2  0  0  0  0
 18 35  1  0  0  0  0
 19 21  2  0  0  0  0
 19 41  1  0  0  0  0
 20 22  2  0  0  0  0
 20 42  1  0  0  0  0
 21 51  1  0  0  0  0
 22 43  1  0  0  0  0
 23 80  1  0  0  0  0
 24 81  1  0  0  0  0
 25 27  2  0  0  0  0
 25 80  1  0  0  0  0
 26 82  1  0  0  0  0
 27 83  1  0  0  0  0
 28 62  2  0  0  0  0
 29 36  1  0  0  0  0
 29 84  1  0  0  0  0
 30 63  1  0  0  0  0
 30 67  1  0  0  0  0
 31 64  1  0  0  0  0
 31 84  1  0  0  0  0
 32 33  1  0  0  0  0
 32 34  2  0  0  0  0
 32 44  1  0  0  0  0
 33 64  1  0  0  0  0
 33 73  2  0  0  0  0
 34 81  1  0  0  0  0
 35 68  1  0  0  0  0
 35 74  2  0  0  0  0
 36 69  1  0  0  0  0
 36 75  2  0  0  0  0
 37 52  1  0  0  0  0
 37 70  1  0  0  0  0
 37 76  2  0  0  0  0
 38 59  1  0  0  0  0
 38 65  1  0  0  0  0
 38 77  2  0  0  0  0
 39 60  1  0  0  0  0
 39 71  1  0  0  0  0
 39 78  2  0  0  0  0
 40 66  1  0  0  0  0
 40 69  1  0  0  0  0
 40 79  2  0  0  0  0
 41 45  1  0  0  0  0
 42 52  1  0  0  0  0
 43 65  1  0  0  0  0
 44 64  1  0  0  0  0
 45 47  1  0  0  0  0
 46 48  1  0  0  0  0
 46 49  1  0  0  0  0
 47 51  1  0  0  0  0
 48 53  1  0  0  0  0
 49 66  1  0  0  0  0
 50 53  1  0  0  0  0
 50 66  1  0  0  0  0
 51 70  1  0  0  0  0
 52 65  1  0  0  0  0
 53 63  1  0  0  0  0
 54 60  1  0  0  0  0
 55 61  1  0  0  0  0
 56 61  1  0  0  0  0
 57 61  1  0  0  0  0
 58 72  1  0  0  0  0
 59 61  1  0  0  0  0
 59 71  1  0  0  0  0
 60 72  1  0  0  0  0
 62 63  1  0  0  0  0
M  CHG  1  72   1
M  ISO  4  34 101  40 100  69 100  81 101
M  END
> <Batch ID>
0083

> <Smiles>
CNC(C)C(=O)NC(C(=O)N1Cc2cc([101O:1][101CH:1]=C3CN(c4ccc(C(=O)[100NH:0][100C:0](=O)N5CCCC(n6nc(-c7ccc(Oc8ccc(F)cc8F)cc7)c(C(N)=O)c6N)C5)s4)C3=O)ccc2CC1C(=O)NC1CCCc2ccccc21)C(C)(C)C

> <Shape>
0.276

> <Color>
0.118

> <Negative vol penalty>
0.000

$$$$

  -OEChem-04052300093D

 83 91  0     1  0  0  0  0  0999 V2000
  -28.8763  -11.6149   20.6791 C   0  0  0  0  0  0  0  0  0  0  0  0
  -29.0821  -12.9324   20.2825 C   0  0  0  0  0  0  0  0  0  0  0  0
  -30.0028  -27.1865   19.1864 C   0  0  0  0  0  0  0  0  0  0  0  0
  -23.1112  -30.1402   21.8122 C   0  0  0  0  0  0  0  0  0  0  0  0
  -25.0485  -28.9845   20.9473 C   0  0  0  0  0  0  0  0  0  0  0  0
  -30.1843  -25.8274   18.9307 C   0  0  0  0  0  0  0  0  0  0  0  0
  -29.5400  -27.6058   20.4337 C   0  0  0  0  0  0  0  0  0  0  0  0
  -27.5789  -11.1173   20.7938 C   0  0  0  0  0  0  0  0  0  0  0  0
  -27.9906  -13.7527   19.9993 C   0  0  0  0  0  0  0  0  0  0  0  0
  -28.4427  -18.3630   22.0453 C   0  0  0  0  0  0  0  0  0  0  0  0
  -22.2963  -29.0894   21.3910 C   0  0  0  0  0  0  0  0  0  0  0  0
  -24.2336  -27.9336   20.5261 C   0  0  0  0  0  0  0  0  0  0  0  0
  -29.2819  -19.2679   21.3967 C   0  0  0  0  0  0  0  0  0  0  0  0
  -22.1389  -27.2822   17.9535 C   0  0  0  0  0  0  0  0  0  0  0  0
  -22.3501  -26.7714   16.6729 C   0  0  0  0  0  0  0  0  0  0  0  0
  -29.4398  -25.3068   21.1694 C   0  0  0  0  0  0  0  0  0  0  0  0
  -27.3598  -20.3123   20.3799 C   0  0  0  0  0  0  0  0  0  0  0  0
  -22.8302  -24.6004   17.6179 C   0  0  0  0  0  0  0  0  0  0  0  0
  -24.4873  -30.0878   21.5903 C   0  0  0  0  0  0  0  0  0  0  0  0
  -29.9028  -24.8875   19.9222 C   0  0  0  0  0  0  0  0  0  0  0  0
  -29.2584  -26.6659   21.4252 C   0  0  0  0  0  0  0  0  0  0  0  0
  -25.2549  -32.5203   21.6228 C   0  0  0  0  0  0  0  0  0  0  0  0
  -26.4707  -11.9347   20.5212 C   0  0  0  0  0  0  0  0  0  0  0  0
  -27.0542  -18.4192   21.8572 C   0  0  0  0  0  0  0  0  0  0  0  0
  -26.6772  -13.2651   20.1092 C   0  0  0  0  0  0  0  0  0  0  0  0
  -26.5049  -19.4086   21.0293 C   0  0  0  0  0  0  0  0  0  0  0  0
  -22.8575  -27.9861   20.7480 C   0  0  0  0  0  0  0  0  0  0  0  0
  -28.7407  -20.2410   20.5616 C   0  0  0  0  0  0  0  0  0  0  0  0
  -22.2734  -26.4521   19.0664 C   0  0  0  0  0  0  0  0  0  0  0  0
  -22.6957  -25.4305   16.5050 C   0  0  0  0  0  0  0  0  0  0  0  0
  -22.6191  -25.1112   18.8986 C   0  0  0  0  0  0  0  0  0  0  0  0
  -25.3296  -31.1732   22.0246 C   0  0  0  0  0  0  0  0  0  0  0  0
  -26.2653  -33.1416   22.3154 C   0  0  0  0  0  0  0  0  0  0  0  0
  -30.0926  -23.4704   19.6543 C   0  0  0  0  0  0  0  0  0  0  0  0
  -29.3760  -22.4614   20.1922 C   0  0  0  0  0  0  0  0  0  1  0  0
  -26.6757  -26.3271   23.1522 C   0  0  0  0  0  0  0  0  0  0  0  0
  -28.7686  -27.1110   22.7444 C   0  0  0  0  0  0  0  0  0  0  0  0
  -24.3528  -33.1535   20.7058 C   0  0  0  0  0  0  0  0  0  0  0  0
  -24.8691  -16.4379   20.6723 C   0  0  0  0  0  0  0  0  0  0  0  0
  -22.8058  -18.7153   21.7107 C   0  0  0  0  0  0  0  0  0  0  0  0
  -22.2777  -21.9809   22.5497 C   0  0  0  0  0  0  0  0  0  0  0  0
  -28.6120  -28.6963   24.7490 C   0  0  0  0  0  0  0  0  0  0  0  0
  -25.0885  -11.3383   20.6135 C   0  0  0  0  0  0  0  0  0  0  0  0
  -26.1606  -17.4526   22.5850 C   0  0  0  0  0  0  0  0  0  0  0  0
  -25.0194  -19.5242   20.8099 C   0  0  0  0  0  0  0  0  0  0  0  0
  -23.9761  -12.3828   20.6572 C   0  0  0  0  0  0  0  0  0  0  0  0
  -27.0858  -31.6291   26.2709 C   0  0  0  0  0  0  0  0  0  0  0  0
  -24.1994  -13.4456   19.5861 C   0  0  0  0  0  0  0  0  0  0  0  0
  -27.5866  -32.7825   25.4075 C   0  0  0  0  0  0  0  0  0  0  0  0
  -28.1142  -30.5093   26.3435 C   0  0  0  0  0  0  0  0  0  0  0  0
  -28.9832  -31.1063   24.0871 C   0  0  0  0  0  0  0  0  0  0  0  0
  -25.5182  -14.1933   19.8172 C   0  0  1  0  0  0  0  0  0  0  0  0
  -24.8004  -17.2771   21.9168 C   0  0  1  0  0  0  0  0  0  0  0  0
  -28.0403  -32.3248   24.0116 C   0  0  1  0  0  0  0  0  0  0  0  0
  -25.6948  -25.4060   23.8050 C   0  0  0  0  0  0  0  0  0  0  0  0
  -20.4787  -23.5496   23.3244 C   0  0  0  0  0  0  0  0  0  0  0  0
  -21.6404  -18.7675   18.8913 C   0  0  0  0  0  0  0  0  0  0  0  0
  -20.5490  -20.9483   19.4579 C   0  0  0  0  0  0  0  0  0  0  0  0
  -19.9430  -18.8862   20.7241 C   0  0  0  0  0  0  0  0  0  0  0  0
  -23.7326  -22.5985   25.0518 C   0  0  0  0  0  0  0  0  0  0  0  0
  -22.1984  -19.9609   21.1118 C   0  0  1  0  0  0  0  0  0  0  0  0
  -21.6004  -22.6155   23.7509 C   0  0  2  0  0  0  0  0  0  0  0  0
  -21.1109  -19.6376   20.0487 C   0  0  0  0  0  0  0  0  0  0  0  0
  -26.3100  -30.9509   22.9040 N   0  0  0  0  0  0  0  0  0  0  0  0
  -27.9427  -26.2168   23.3876 N   0  0  0  0  0  0  0  0  0  0  0  0
  -26.8607  -32.1668   23.0605 N   0  0  0  0  0  0  0  0  0  0  0  0
  -24.1877  -18.5522   21.5386 N   0  0  0  0  0  0  0  0  0  0  0  0
  -28.5336  -30.0637   25.0164 N   0  0  0  0  0  0  0  0  0  0  0  0
  -26.6936  -34.4213   22.3535 N   0  0  0  0  0  0  0  0  0  0  0  0
  -24.7106  -33.2155   19.3521 N   0  0  0  0  0  0  0  0  0  0  0  0
  -25.3684  -15.1660   20.8782 N   0  0  0  0  0  0  0  0  0  0  0  0
  -21.7185  -20.7609   22.2334 N   0  0  0  0  0  0  0  0  0  0  0  0
  -29.1257  -28.1995   23.3327 N   0  3  0  0  0  0  0  0  0  0  0  0
  -22.5867  -23.3985   24.5479 N   0  3  0  0  0  0  0  0  0  0  0  0
  -23.2694  -33.6642   21.0784 O   0  0  0  0  0  0  0  0  0  0  0  0
  -24.4954  -16.9090   19.6045 O   0  0  0  0  0  0  0  0  0  0  0  0
  -22.0821  -17.9202   22.3153 O   0  0  0  0  0  0  0  0  0  0  0  0
  -23.2073  -22.5159   21.9494 O   0  0  0  0  0  0  0  0  0  0  0  0
  -28.3566  -27.7951   25.5396 O   0  0  0  0  0  0  0  0  0  0  0  0
  -22.0627  -26.9605   20.3372 O   0  0  0  0  0  0  0  0  0  0  0  0
  -29.5629  -21.1309   19.9227 O   0  0  0  0  0  0  0  0  0  1  0  0
  -22.8970  -24.9398   15.2751 F   0  0  0  0  0  0  0  0  0  0  0  0
  -22.7487  -24.3085   19.9639 F   0  0  0  0  0  0  0  0  0  0  0  0
  1  2  1  0  0  0  0
  1  8  2  0  0  0  0
  2  9  2  0  0  0  0
  3  6  1  0  0  0  0
  3  7  2  0  0  0  0
  4 11  2  0  0  0  0
  4 19  1  0  0  0  0
  5 12  1  0  0  0  0
  5 19  2  0  0  0  0
  6 20  2  0  0  0  0
  7 21  1  0  0  0  0
  8 23  1  0  0  0  0
  9 25  1  0  0  0  0
 10 13  2  0  0  0  0
 10 24  1  0  0  0  0
 11 27  1  0  0  0  0
 12 27  2  0  0  0  0
 13 28  1  0  0  0  0
 14 15  2  0  0  0  0
 14 29  1  0  0  0  0
 15 30  1  0  0  0  0
 16 20  1  0  0  0  0
 16 21  2  0  0  0  0
 17 26  1  0  0  0  0
 17 28  2  0  0  0  0
 18 30  2  0  0  0  0
 18 31  1  0  0  0  0
 19 32  1  0  0  0  0
 20 34  1  0  0  0  0
 21 37  1  0  0  0  0
 22 32  1  0  0  0  0
 22 33  2  0  0  0  0
 22 38  1  0  0  0  0
 23 25  2  0  0  0  0
 23 43  1  0  0  0  0
 24 26  2  0  0  0  0
 24 44  1  0  0  0  0
 25 52  1  0  0  0  0
 26 45  1  0  0  0  0
 27 80  1  0  0  0  0
 28 81  1  0  0  0  0
 29 31  2  0  0  0  0
 29 80  1  0  0  0  0
 30 82  1  0  0  0  0
 31 83  1  0  0  0  0
 32 64  2  0  0  0  0
 33 66  1  0  0  0  0
 33 69  1  0  0  0  0
 34 35  2  0  0  0  0
 35 81  1  0  0  0  0
 36 55  1  0  0  0  0
 36 65  2  0  0  0  0
 37 65  1  0  0  0  0
 37 73  2  0  0  0  0
 38 70  1  0  0  0  0
 38 75  2  0  0  0  0
 39 53  1  0  0  0  0
 39 71  1  0  0  0  0
 39 76  2  0  0  0  0
 40 61  1  0  0  0  0
 40 67  1  0  0  0  0
 40 77  2  0  0  0  0
 41 62  1  0  0  0  0
 41 72  1  0  0  0  0
 41 78  2  0  0  0  0
 42 68  1  0  0  0  0
 42 73  1  0  0  0  0
 42 79  2  0  0  0  0
 43 46  1  0  0  0  0
 44 53  1  0  0  0  0
 45 67  1  0  0  0  0
 46 48  1  0  0  0  0
 47 49  1  0  0  0  0
 47 50  1  0  0  0  0
 48 52  1  0  0  0  0
 49 54  1  0  0  0  0
 50 68  1  0  0  0  0
 51 54  1  0  0  0  0
 51 68  1  0  0  0  0
 52 71  1  0  0  0  0
 53 67  1  0  0  0  0
 54 66  1  0  0  0  0
 56 62  1  0  0  0  0
 57 63  1  0  0  0  0
 58 63  1  0  0  0  0
 59 63  1  0  0  0  0
 60 74  1  0  0  0  0
 61 63  1  0  0  0  0
 61 72  1  0  0  0  0
 62 74  1  0  0  0  0
 64 66  1  0  0  0  0
M  CHG  2  73   1  74   1
M  ISO  4  35 101  42 100  73 100  81 101
M  END
> <Batch ID>
0083

> <Smiles>
C=CN=C([100NH:0][100C:0](=O)N1CCCC(n2nc(-c3ccc(Oc4ccc(F)cc4F)cc3)c(C(N)=O)c2N)C1)c1cccc(C=[101CH:1][101O:1]c2ccc3c(c2)CN(C(=O)C(NC(=O)C(C)NC)C(C)(C)C)C(C(=O)NC2CCCc4ccccc42)C3)c1

> <Shape>
0.222

> <Color>
0.061

> <Negative vol penalty>
0.000

$$$$

  -OEChem-04052300093D

 85 93  0     1  0  0  0  0  0999 V2000
  -22.2223  -29.7085   29.7105 C   0  0  0  0  0  0  0  0  0  0  0  0
  -23.0834  -30.0986   28.6899 C   0  0  0  0  0  0  0  0  0  0  0  0
  -31.0248  -23.6175   17.4772 C   0  0  0  0  0  0  0  0  0  0  0  0
  -26.7916  -12.9149   21.1070 C   0  0  0  0  0  0  0  0  0  0  0  0
  -26.5183  -13.4460   18.7660 C   0  0  0  0  0  0  0  0  0  0  0  0
  -30.6993  -24.9439   17.7605 C   0  0  0  0  0  0  0  0  0  0  0  0
  -21.6348  -28.4444   29.6803 C   0  0  0  0  0  0  0  0  0  0  0  0
  -23.3584  -29.2244   27.6389 C   0  0  0  0  0  0  0  0  0  0  0  0
  -24.3595  -30.7080   21.7821 C   0  0  0  0  0  0  0  0  0  0  0  0
  -30.2114  -22.5848   17.9440 C   0  0  0  0  0  0  0  0  0  0  0  0
  -26.1997  -11.6701   20.8938 C   0  0  0  0  0  0  0  0  0  0  0  0
  -25.9264  -12.2011   18.5527 C   0  0  0  0  0  0  0  0  0  0  0  0
  -25.5302  -30.8697   21.0424 C   0  0  0  0  0  0  0  0  0  0  0  0
  -23.0789  -10.4284   20.5156 C   0  0  0  0  0  0  0  0  0  0  0  0
  -22.1174  -10.0031   21.4323 C   0  0  0  0  0  0  0  0  0  0  0  0
  -28.7473  -24.2051   18.9775 C   0  0  0  0  0  0  0  0  0  0  0  0
  -25.3322  -28.6018   20.2446 C   0  0  0  0  0  0  0  0  0  0  0  0
  -23.4697   -8.0702   21.9539 C   0  0  0  0  0  0  0  0  0  0  0  0
  -26.9508  -13.8030   20.0431 C   0  0  0  0  0  0  0  0  0  0  0  0
  -29.5606  -25.2377   18.5106 C   0  0  0  0  0  0  0  0  0  0  0  0
  -28.9304  -15.4066   20.1749 C   0  0  0  0  0  0  0  0  0  0  0  0
  -21.8952  -27.5579   28.6235 C   0  0  0  0  0  0  0  0  0  0  0  0
  -23.6712  -29.4863   21.7672 C   0  0  0  0  0  0  0  0  0  0  0  0
  -22.7749  -27.9467   27.5953 C   0  0  0  0  0  0  0  0  0  0  0  0
  -24.1517  -28.4279   20.9830 C   0  0  0  0  0  0  0  0  0  0  0  0
  -29.0728  -22.8786   18.6941 C   0  0  0  0  0  0  0  0  0  0  0  0
  -25.7671  -11.3131   19.6166 C   0  0  0  0  0  0  0  0  0  0  0  0
  -26.0183  -29.8156   20.2758 C   0  0  0  0  0  0  0  0  0  0  0  0
  -24.2357   -9.6744   20.3180 C   0  0  0  0  0  0  0  0  0  0  0  0
  -22.3128   -8.8241   22.1515 C   0  0  0  0  0  0  0  0  0  0  0  0
  -24.4311   -8.4954   21.0372 C   0  0  0  0  0  0  0  0  0  0  0  0
  -27.5617  -15.0893   20.2629 C   0  0  0  0  0  0  0  0  0  0  0  0
  -28.9920  -16.7464   20.4708 C   0  0  0  0  0  0  0  0  0  0  0  0
  -27.0921  -29.8100   18.1979 C   0  0  0  0  0  0  0  0  0  1  0  0
  -29.2152  -26.6510   18.8115 C   0  0  0  0  0  0  0  0  0  0  0  0
  -30.0463  -14.5655   19.8542 C   0  0  0  0  0  0  0  0  0  0  0  0
  -28.1017  -29.3652   17.4314 C   0  0  0  0  0  0  0  0  0  0  0  0
  -22.9147  -27.3111   23.9580 C   0  0  0  0  0  0  0  0  0  0  0  0
  -21.2544  -25.9865   21.5062 C   0  0  0  0  0  0  0  0  0  0  0  0
  -20.8545  -25.6317   18.1356 C   0  0  0  0  0  0  0  0  0  0  0  0
  -27.0816  -21.9480   19.9252 C   0  0  0  0  0  0  0  0  0  0  0  0
  -21.2738  -26.1841   28.6586 C   0  0  0  0  0  0  0  0  0  0  0  0
  -22.3953  -29.3366   22.5496 C   0  0  0  0  0  0  0  0  0  0  0  0
  -23.4390  -27.1027   20.9170 C   0  0  0  0  0  0  0  0  0  0  0  0
  -21.3237  -25.4585   27.3164 C   0  0  0  0  0  0  0  0  0  0  0  0
  -25.4737  -19.8739   22.3315 C   0  0  0  0  0  0  0  0  0  0  0  0
  -22.7143  -25.5718   26.6998 C   0  0  0  0  0  0  0  0  0  0  0  0
  -25.9862  -18.4704   22.0006 C   0  0  0  0  0  0  0  0  0  0  0  0
  -25.2571  -20.7103   21.0716 C   0  0  0  0  0  0  0  0  0  0  0  0
  -26.9262  -19.3820   19.8391 C   0  0  0  0  0  0  0  0  0  0  0  0
  -23.0785  -27.0359   26.4255 C   0  0  1  0  0  0  0  0  0  0  0  0
  -22.0556  -27.8834   22.8662 C   0  0  1  0  0  0  0  0  0  0  0  0
  -27.2212  -18.5238   21.0801 C   0  0  2  0  0  0  0  0  0  0  0  0
  -27.9651  -29.2089   15.9393 C   0  0  0  0  0  0  0  0  0  0  0  0
  -30.5992  -29.8233   17.5170 C   0  0  0  0  0  0  0  0  0  0  0  0
  -19.4352  -24.4547   16.4334 C   0  0  0  0  0  0  0  0  0  0  0  0
  -22.7392  -23.3819   22.0728 C   0  0  0  0  0  0  0  0  0  0  0  0
  -22.0183  -22.5620   19.8198 C   0  0  0  0  0  0  0  0  0  0  0  0
  -20.3086  -23.1053   21.5532 C   0  0  0  0  0  0  0  0  0  0  0  0
  -19.9085  -28.1893   16.9855 C   0  0  0  0  0  0  0  0  0  0  0  0
  -29.4320  -29.0071   18.0648 C   0  0  2  0  0  0  0  0  0  0  0  0
  -21.5670  -24.9838   20.4219 C   0  0  1  0  0  0  0  0  0  0  0  0
  -19.6233  -25.7223   17.2523 C   0  0  2  0  0  0  0  0  0  0  0  0
  -21.6730  -23.5325   20.9695 C   0  0  0  0  0  0  0  0  0  0  0  0
  -26.8081  -16.1427   20.5894 N   0  0  0  0  0  0  0  0  0  0  0  0
  -27.7065  -17.1350   20.7091 N   0  0  0  0  0  0  0  0  0  0  0  0
  -22.1990  -27.0035   21.7045 N   0  0  0  0  0  0  0  0  0  0  0  0
  -26.4699  -20.7189   20.2508 N   0  0  0  0  0  0  0  0  0  0  0  0
  -30.0198  -17.6183   20.5478 N   0  0  0  0  0  0  0  0  0  0  0  0
  -29.8055  -13.2130   19.5763 N   0  0  0  0  0  0  0  0  0  0  0  0
  -28.2466  -21.8295   19.1679 N   0  0  0  0  0  0  0  0  0  0  0  0
  -29.6662  -27.5928   17.8988 N   0  0  0  0  0  0  0  0  0  0  0  0
  -22.4123  -27.5072   25.2303 N   0  0  0  0  0  0  0  0  0  0  0  0
  -20.5463  -25.1618   19.3948 N   0  0  0  0  0  0  0  0  0  0  0  0
  -19.7422  -26.8743   16.3145 N   0  3  0  0  0  0  0  0  0  0  0  0
  -28.5846  -26.9101   19.8332 O   0  0  0  0  0  0  0  0  0  0  0  0
  -31.2241  -14.9966   19.8314 O   0  0  0  0  0  0  0  0  0  0  0  0
  -23.9555  -26.7331   23.6677 O   0  0  0  0  0  0  0  0  0  0  0  0
  -20.2072  -25.8758   22.1486 O   0  0  0  0  0  0  0  0  0  0  0  0
  -21.9780  -25.9429   17.7463 O   0  0  0  0  0  0  0  0  0  0  0  0
  -26.6220  -23.0247   20.3142 O   0  0  0  0  0  0  0  0  0  0  0  0
  -25.1897  -10.0983   19.4081 O   0  0  0  0  0  0  0  0  0  0  0  0
  -27.1610  -29.9706   19.5533 O   0  0  0  0  0  0  0  0  0  1  0  0
  -21.3901   -8.4167   23.0329 F   0  0  0  0  0  0  0  0  0  0  0  0
  -25.5410   -7.7675   20.8525 F   0  0  0  0  0  0  0  0  0  0  0  0
  1  2  1  0  0  0  0
  1  7  2  0  0  0  0
  2  8  2  0  0  0  0
  3  6  2  0  0  0  0
  3 10  1  0  0  0  0
  4 11  2  0  0  0  0
  4 19  1  0  0  0  0
  5 12  1  0  0  0  0
  5 19  2  0  0  0  0
  6 20  1  0  0  0  0
  7 22  1  0  0  0  0
  8 24  1  0  0  0  0
  9 13  2  0  0  0  0
  9 23  1  0  0  0  0
 10 26  2  0  0  0  0
 11 27  1  0  0  0  0
 12 27  2  0  0  0  0
 13 28  1  0  0  0  0
 14 15  2  0  0  0  0
 14 29  1  0  0  0  0
 15 30  1  0  0  0  0
 16 20  2  0  0  0  0
 16 26  1  0  0  0  0
 17 25  1  0  0  0  0
 17 28  2  0  0  0  0
 18 30  2  0  0  0  0
 18 31  1  0  0  0  0
 19 32  1  0  0  0  0
 20 35  1  0  0  0  0
 21 32  1  0  0  0  0
 21 33  2  0  0  0  0
 21 36  1  0  0  0  0
 22 24  2  0  0  0  0
 22 42  1  0  0  0  0
 23 25  2  0  0  0  0
 23 43  1  0  0  0  0
 24 51  1  0  0  0  0
 25 44  1  0  0  0  0
 26 71  1  0  0  0  0
 27 82  1  0  0  0  0
 28 83  1  0  0  0  0
 29 31  2  0  0  0  0
 29 82  1  0  0  0  0
 30 84  1  0  0  0  0
 31 85  1  0  0  0  0
 32 65  2  0  0  0  0
 33 66  1  0  0  0  0
 33 69  1  0  0  0  0
 34 37  2  0  0  0  0
 34 83  1  0  0  0  0
 35 72  1  0  0  0  0
 35 76  2  0  0  0  0
 36 70  1  0  0  0  0
 36 77  2  0  0  0  0
 37 54  1  0  0  0  0
 37 61  1  0  0  0  0
 38 52  1  0  0  0  0
 38 73  1  0  0  0  0
 38 78  2  0  0  0  0
 39 62  1  0  0  0  0
 39 67  1  0  0  0  0
 39 79  2  0  0  0  0
 40 63  1  0  0  0  0
 40 74  1  0  0  0  0
 40 80  2  0  0  0  0
 41 68  1  0  0  0  0
 41 71  1  0  0  0  0
 41 81  2  0  0  0  0
 42 45  1  0  0  0  0
 43 52  1  0  0  0  0
 44 67  1  0  0  0  0
 45 47  1  0  0  0  0
 46 48  1  0  0  0  0
 46 49  1  0  0  0  0
 47 51  1  0  0  0  0
 48 53  1  0  0  0  0
 49 68  1  0  0  0  0
 50 53  1  0  0  0  0
 50 68  1  0  0  0  0
 51 73  1  0  0  0  0
 52 67  1  0  0  0  0
 53 66  1  0  0  0  0
 55 61  1  0  0  0  0
 56 63  1  0  0  0  0
 57 64  1  0  0  0  0
 58 64  1  0  0  0  0
 59 64  1  0  0  0  0
 60 75  1  0  0  0  0
 61 72  1  0  0  0  0
 62 64  1  0  0  0  0
 62 74  1  0  0  0  0
 63 75  1  0  0  0  0
 65 66  1  0  0  0  0
M  CHG  1  75   1
M  ISO  4  34 101  41 100  71 100  83 101
M  END
> <Batch ID>
0083

> <Smiles>
CNC(C)C(=O)NC(C(=O)N1Cc2cc([101O:1][101CH:1]=C(C)C(C)NC(=O)c3cccc([100NH:0][100C:0](=O)N4CCCC(n5nc(-c6ccc(Oc7ccc(F)cc7F)cc6)c(C(N)=O)c5N)C4)c3)ccc2CC1C(=O)NC1CCCc2ccccc21)C(C)(C)C

> <Shape>
0.215

> <Color>
0.079

> <Negative vol penalty>
0.000

$$$$

  -OEChem-04052300093D

 84 93  0     1  0  0  0  0  0999 V2000
  -26.1924  -35.2504   23.5086 C   0  0  0  0  0  0  0  0  0  0  0  0
  -26.7100  -33.9865   23.2438 C   0  0  0  0  0  0  0  0  0  0  0  0
  -23.9529  -14.0981   19.3211 C   0  0  0  0  0  0  0  0  0  0  0  0
  -25.7856  -14.7695   20.7450 C   0  0  0  0  0  0  0  0  0  0  0  0
  -24.8839  -35.3837   23.9710 C   0  0  0  0  0  0  0  0  0  0  0  0
  -25.9195  -32.8551   23.4422 C   0  0  0  0  0  0  0  0  0  0  0  0
  -26.2530  -29.5565   19.6142 C   0  0  0  0  0  0  0  0  0  0  0  0
  -29.7671  -24.4366   18.3383 C   0  0  0  0  0  0  0  0  0  0  0  0
  -29.1130  -23.4005   17.6718 C   0  0  0  0  0  0  0  0  0  0  0  0
  -24.2493  -12.7583   19.5713 C   0  0  0  0  0  0  0  0  0  0  0  0
  -26.0819  -13.4296   20.9953 C   0  0  0  0  0  0  0  0  0  0  0  0
  -27.3873  -28.7472   19.5682 C   0  0  0  0  0  0  0  0  0  0  0  0
  -24.2986   -9.1653   20.1223 C   0  0  0  0  0  0  0  0  0  0  0  0
  -23.2360   -8.3090   20.4103 C   0  0  0  0  0  0  0  0  0  0  0  0
  -26.1246  -26.9329   20.5341 C   0  0  0  0  0  0  0  0  0  0  0  0
  -30.4734  -22.8879   20.0528 C   0  0  0  0  0  0  0  0  0  0  0  0
  -22.6722   -9.6559   22.3352 C   0  0  0  0  0  0  0  0  0  0  0  0
  -24.7211  -15.1037   19.9079 C   0  0  0  0  0  0  0  0  0  0  0  0
  -23.5443  -17.3172   20.3804 C   0  0  0  0  0  0  0  0  0  0  0  0
  -24.0738  -34.2540   24.1660 C   0  0  0  0  0  0  0  0  0  0  0  0
  -25.0468  -29.0627   20.1315 C   0  0  0  0  0  0  0  0  0  0  0  0
  -24.5993  -32.9733   23.9089 C   0  0  0  0  0  0  0  0  0  0  0  0
  -24.9757  -27.7372   20.5833 C   0  0  0  0  0  0  0  0  0  0  0  0
  -30.4474  -24.1803   19.5288 C   0  0  0  0  0  0  0  0  0  0  0  0
  -29.1391  -22.1081   18.1958 C   0  0  0  0  0  0  0  0  0  0  0  0
  -25.3137  -12.4240   20.4085 C   0  0  0  0  0  0  0  0  0  0  0  0
  -27.3240  -27.4360   20.0308 C   0  0  0  0  0  0  0  0  0  0  0  0
  -24.5481  -10.2670   20.9408 C   0  0  0  0  0  0  0  0  0  0  0  0
  -22.4227   -8.5542   21.5167 C   0  0  0  0  0  0  0  0  0  0  0  0
  -29.8193  -21.8517   19.3863 C   0  0  0  0  0  0  0  0  0  0  0  0
  -23.7349  -10.5123   22.0472 C   0  0  0  0  0  0  0  0  0  0  0  0
  -24.4158  -16.4879   19.6493 C   0  0  0  0  0  0  0  0  0  0  0  0
  -23.6021  -18.5288   19.7361 C   0  0  0  0  0  0  0  0  0  0  0  0
  -31.9554  -26.5567   21.3492 C   0  0  0  0  0  0  0  0  0  0  0  0
  -30.6843  -26.3448   20.7086 C   0  0  0  0  0  0  0  0  0  0  0  0
  -32.5054  -27.4994   22.1119 C   0  0  0  0  0  0  0  0  0  0  0  0
  -29.5371  -27.0469   20.6799 C   0  0  0  0  0  0  0  0  0  1  0  0
  -22.7532  -17.0189   21.5384 C   0  0  0  0  0  0  0  0  0  0  0  0
  -23.1756  -29.8319   22.5831 C   0  0  0  0  0  0  0  0  0  0  0  0
  -21.2199  -27.5899   21.2905 C   0  0  0  0  0  0  0  0  0  0  0  0
  -20.8918  -24.8098   19.3385 C   0  0  0  0  0  0  0  0  0  0  0  0
  -27.7531  -21.1448   16.3257 C   0  0  0  0  0  0  0  0  0  0  0  0
  -22.6811  -34.4449   24.7124 C   0  0  0  0  0  0  0  0  0  0  0  0
  -23.8253  -29.9401   20.1496 C   0  0  0  0  0  0  0  0  0  0  0  0
  -23.6995  -27.1528   21.1292 C   0  0  0  0  0  0  0  0  0  0  0  0
  -32.4001  -25.2502   20.7932 C   0  0  0  0  0  0  0  0  0  0  0  0
  -21.7858  -33.2206   24.5394 C   0  0  0  0  0  0  0  0  0  0  0  0
  -24.3843  -20.4386   15.4146 C   0  0  0  0  0  0  0  0  0  0  0  0
  -22.5252  -31.9547   24.9607 C   0  0  0  0  0  0  0  0  0  0  0  0
  -23.9288  -19.4254   16.4673 C   0  0  0  0  0  0  0  0  0  0  0  0
  -25.8457  -20.2300   15.0217 C   0  0  0  0  0  0  0  0  0  0  0  0
  -26.3363  -19.1829   17.1970 C   0  0  0  0  0  0  0  0  0  0  0  0
  -23.7648  -31.7236   24.0882 C   0  0  1  0  0  0  0  0  0  0  0  0
  -22.7845  -29.4945   21.1722 C   0  0  1  0  0  0  0  0  0  0  0  0
  -24.8895  -19.3942   17.6722 C   0  0  2  0  0  0  0  0  0  0  0  0
  -19.1747  -23.1834   18.4994 C   0  0  0  0  0  0  0  0  0  0  0  0
  -21.1615  -26.2430   24.0278 C   0  0  0  0  0  0  0  0  0  0  0  0
  -20.2583  -24.1876   22.9198 C   0  0  0  0  0  0  0  0  0  0  0  0
  -18.9551  -26.3136   22.8526 C   0  0  0  0  0  0  0  0  0  0  0  0
  -21.4253  -25.5241   16.5165 C   0  0  0  0  0  0  0  0  0  0  0  0
  -21.0492  -26.0987   21.4524 C   0  0  1  0  0  0  0  0  0  0  0  0
  -19.9257  -24.4752   18.2164 C   0  0  2  0  0  0  0  0  0  0  0  0
  -20.3807  -25.7220   22.8047 C   0  0  0  0  0  0  0  0  0  0  0  0
  -24.9855  -17.1193   18.6193 N   0  0  0  0  0  0  0  0  0  0  0  0
  -24.4707  -18.3582   18.6985 N   0  0  0  0  0  0  0  0  0  0  0  0
  -31.0974  -25.2092   20.1902 N   0  0  0  0  0  0  0  0  0  0  0  0
  -22.5340  -28.0523   21.1318 N   0  0  0  0  0  0  0  0  0  0  0  0
  -26.6969  -20.2159   16.2134 N   0  0  0  0  0  0  0  0  0  0  0  0
  -22.9941  -19.7128   19.9616 N   0  0  0  0  0  0  0  0  0  0  0  0
  -22.8117  -15.7243   22.0722 N   0  0  0  0  0  0  0  0  0  0  0  0
  -28.4733  -21.0578   17.5166 N   0  0  0  0  0  0  0  0  0  0  0  0
  -23.3835  -31.1804   22.8021 N   0  0  0  0  0  0  0  0  0  0  0  0
  -20.3171  -25.6416   20.2762 N   0  0  0  0  0  0  0  0  0  0  0  0
  -20.6607  -24.3192   16.9294 N   0  3  0  0  0  0  0  0  0  0  0  0
  -22.0037  -17.8705   22.0738 O   0  0  0  0  0  0  0  0  0  0  0  0
  -23.2794  -28.9355   23.4122 O   0  0  0  0  0  0  0  0  0  0  0  0
  -20.2234  -28.3169   21.2972 O   0  0  0  0  0  0  0  0  0  0  0  0
  -22.0400  -24.3737   19.3811 O   0  0  0  0  0  0  0  0  0  0  0  0
  -27.9832  -21.9755   15.4431 O   0  0  0  0  0  0  0  0  0  0  0  0
  -25.6031  -11.1167   20.6531 O   0  0  0  0  0  0  0  0  0  0  0  0
  -28.4298  -26.6441   19.9876 O   0  0  0  0  0  0  0  0  0  1  0  0
  -21.4014   -7.7326   21.7923 F   0  0  0  0  0  0  0  0  0  0  0  0
  -29.8505  -20.6134   19.8992 F   0  0  0  0  0  0  0  0  0  0  0  0
  -23.9689  -11.5697   22.8365 F   0  0  0  0  0  0  0  0  0  0  0  0
  1  2  1  0  0  0  0
  1  5  2  0  0  0  0
  2  6  2  0  0  0  0
  3 10  2  0  0  0  0
  3 18  1  0  0  0  0
  4 11  1  0  0  0  0
  4 18  2  0  0  0  0
  5 20  1  0  0  0  0
  6 22  1  0  0  0  0
  7 12  2  0  0  0  0
  7 21  1  0  0  0  0
  8  9  2  0  0  0  0
  8 24  1  0  0  0  0
  9 25  1  0  0  0  0
 10 26  1  0  0  0  0
 11 26  2  0  0  0  0
 12 27  1  0  0  0  0
 13 14  2  0  0  0  0
 13 28  1  0  0  0  0
 14 29  1  0  0  0  0
 15 23  1  0  0  0  0
 15 27  2  0  0  0  0
 16 24  2  0  0  0  0
 16 30  1  0  0  0  0
 17 29  2  0  0  0  0
 17 31  1  0  0  0  0
 18 32  1  0  0  0  0
 19 32  1  0  0  0  0
 19 33  2  0  0  0  0
 19 38  1  0  0  0  0
 20 22  2  0  0  0  0
 20 43  1  0  0  0  0
 21 23  2  0  0  0  0
 21 44  1  0  0  0  0
 22 53  1  0  0  0  0
 23 45  1  0  0  0  0
 24 66  1  0  0  0  0
 25 30  2  0  0  0  0
 25 71  1  0  0  0  0
 26 80  1  0  0  0  0
 27 81  1  0  0  0  0
 28 31  2  0  0  0  0
 28 80  1  0  0  0  0
 29 82  1  0  0  0  0
 30 83  1  0  0  0  0
 31 84  1  0  0  0  0
 32 64  2  0  0  0  0
 33 65  1  0  0  0  0
 33 69  1  0  0  0  0
 34 35  1  0  0  0  0
 34 36  2  0  0  0  0
 34 46  1  0  0  0  0
 35 37  2  0  0  0  0
 35 66  1  0  0  0  0
 37 81  1  0  0  0  0
 38 70  1  0  0  0  0
 38 75  2  0  0  0  0
 39 54  1  0  0  0  0
 39 72  1  0  0  0  0
 39 76  2  0  0  0  0
 40 61  1  0  0  0  0
 40 67  1  0  0  0  0
 40 77  2  0  0  0  0
 41 62  1  0  0  0  0
 41 73  1  0  0  0  0
 41 78  2  0  0  0  0
 42 68  1  0  0  0  0
 42 71  1  0  0  0  0
 42 79  2  0  0  0  0
 43 47  1  0  0  0  0
 44 54  1  0  0  0  0
 45 67  1  0  0  0  0
 46 66  1  0  0  0  0
 47 49  1  0  0  0  0
 48 50  1  0  0  0  0
 48 51  1  0  0  0  0
 49 53  1  0  0  0  0
 50 55  1  0  0  0  0
 51 68  1  0  0  0  0
 52 55  1  0  0  0  0
 52 68  1  0  0  0  0
 53 72  1  0  0  0  0
 54 67  1  0  0  0  0
 55 65  1  0  0  0  0
 56 62  1  0  0  0  0
 57 63  1  0  0  0  0
 58 63  1  0  0  0  0
 59 63  1  0  0  0  0
 60 74  1  0  0  0  0
 61 63  1  0  0  0  0
 61 73  1  0  0  0  0
 62 74  1  0  0  0  0
 64 65  1  0  0  0  0
M  CHG  1  74   1
M  ISO  4  37 101  42 100  71 100  81 101
M  END
> <Batch ID>
0083

> <Smiles>
C=C1CN(c2ccc([100NH:0][100C:0](=O)N3CCCC(n4nc(-c5ccc(Oc6ccc(F)cc6F)cc5)c(C(N)=O)c4N)C3)c(F)c2)C1=[101CH:1][101O:1]c1ccc2c(c1)CN(C(=O)C(NC(=O)C(C)NC)C(C)(C)C)C(C(=O)NC1CCCc3ccccc31)C2

> <Shape>
0.260

> <Color>
0.094

> <Negative vol penalty>
0.000

$$$$

  -OEChem-04052300093D

 86 95  0     1  0  0  0  0  0999 V2000
  -26.8110  -36.3970   21.4556 C   0  0  0  0  0  0  0  0  0  0  0  0
  -27.6348  -35.2764   21.4235 C   0  0  0  0  0  0  0  0  0  0  0  0
  -23.6322   -9.7797   21.9601 C   0  0  0  0  0  0  0  0  0  0  0  0
  -24.4986  -11.1086   23.7823 C   0  0  0  0  0  0  0  0  0  0  0  0
  -25.4739  -36.2674   21.8288 C   0  0  0  0  0  0  0  0  0  0  0  0
  -27.1221  -34.0256   21.7657 C   0  0  0  0  0  0  0  0  0  0  0  0
  -28.6806  -28.6204   19.3447 C   0  0  0  0  0  0  0  0  0  0  0  0
  -31.7715  -19.2844   19.5998 C   0  0  0  0  0  0  0  0  0  0  0  0
  -31.3114  -17.9865   19.3783 C   0  0  0  0  0  0  0  0  0  0  0  0
  -23.1339   -8.8513   22.8740 C   0  0  0  0  0  0  0  0  0  0  0  0
  -24.0003  -10.1802   24.6963 C   0  0  0  0  0  0  0  0  0  0  0  0
  -29.5478  -27.6161   19.7725 C   0  0  0  0  0  0  0  0  0  0  0  0
  -20.4711   -8.5707   24.9388 C   0  0  0  0  0  0  0  0  0  0  0  0
  -19.1724   -8.1009   24.7430 C   0  0  0  0  0  0  0  0  0  0  0  0
  -27.6870  -26.4352   20.7531 C   0  0  0  0  0  0  0  0  0  0  0  0
  -29.5029  -20.0244   19.9775 C   0  0  0  0  0  0  0  0  0  0  0  0
  -20.0175   -5.8460   24.5474 C   0  0  0  0  0  0  0  0  0  0  0  0
  -24.3146  -10.9084   22.4142 C   0  0  0  0  0  0  0  0  0  0  0  0
  -24.1665  -12.9996   20.9608 C   0  0  0  0  0  0  0  0  0  0  0  0
  -24.9421  -35.0128   22.1664 C   0  0  0  0  0  0  0  0  0  0  0  0
  -27.3092  -28.5449   19.6279 C   0  0  0  0  0  0  0  0  0  0  0  0
  -25.7770  -33.8793   22.1451 C   0  0  0  0  0  0  0  0  0  0  0  0
  -26.8040  -27.4385   20.3257 C   0  0  0  0  0  0  0  0  0  0  0  0
  -30.8673  -20.3034   19.8995 C   0  0  0  0  0  0  0  0  0  0  0  0
  -29.9469  -17.7074   19.4563 C   0  0  0  0  0  0  0  0  0  0  0  0
  -23.3180   -9.0515   24.2421 C   0  0  0  0  0  0  0  0  0  0  0  0
  -29.0516  -26.5247   20.4793 C   0  0  0  0  0  0  0  0  0  0  0  0
  -21.5430   -7.6781   24.9389 C   0  0  0  0  0  0  0  0  0  0  0  0
  -18.9456   -6.7386   24.5473 C   0  0  0  0  0  0  0  0  0  0  0  0
  -29.0427  -18.7264   19.7559 C   0  0  0  0  0  0  0  0  0  0  0  0
  -21.3162   -6.3158   24.7433 C   0  0  0  0  0  0  0  0  0  0  0  0
  -24.8300  -11.8675   21.4706 C   0  0  0  0  0  0  0  0  0  0  0  0
  -25.0764  -13.5762   20.1088 C   0  0  0  0  0  0  0  0  0  0  0  0
  -32.6252  -23.3917   20.6967 C   0  0  0  0  0  0  0  0  0  0  0  0
  -31.4753  -23.8827   20.2394 C   0  0  0  0  0  0  0  0  0  0  0  0
  -32.5603  -21.9243   20.6425 C   0  0  0  0  0  0  0  0  0  0  0  0
  -30.6141  -22.7499   19.8481 C   0  0  0  0  0  0  0  0  0  0  0  0
  -22.8457  -13.4865   21.2332 C   0  0  0  0  0  0  0  0  0  0  0  0
  -25.2589  -30.3243   21.2813 C   0  0  0  0  0  0  0  0  0  0  0  0
  -23.0787  -28.2606   20.0521 C   0  0  0  0  0  0  0  0  0  0  0  0
  -22.4246  -25.1781   18.7417 C   0  0  0  0  0  0  0  0  0  0  0  0
  -30.2482  -15.2640   18.9223 C   0  0  0  0  0  0  0  0  0  0  0  0
  -23.5028  -34.9298   22.6091 C   0  0  0  0  0  0  0  0  0  0  0  0
  -26.3830  -29.6232   19.1363 C   0  0  0  0  0  0  0  0  0  0  0  0
  -25.3371  -27.3000   20.6375 C   0  0  0  0  0  0  0  0  0  0  0  0
  -22.9423  -33.5099   22.5954 C   0  0  0  0  0  0  0  0  0  0  0  0
  -29.4846  -11.8372   18.3298 C   0  0  0  0  0  0  0  0  0  0  0  0
  -23.9231  -32.5425   23.2503 C   0  0  0  0  0  0  0  0  0  0  0  0
  -28.1510  -11.6327   19.0521 C   0  0  0  0  0  0  0  0  0  0  0  0
  -30.4030  -12.7897   19.0933 C   0  0  0  0  0  0  0  0  0  0  0  0
  -28.4702  -13.8801   20.1630 C   0  0  0  0  0  0  0  0  0  0  0  0
  -25.2515  -32.5016   22.4855 C   0  0  1  0  0  0  0  0  0  0  0  0
  -25.0805  -29.6983   19.9270 C   0  0  1  0  0  0  0  0  0  0  0  0
  -27.4860  -12.9791   19.3994 C   0  0  2  0  0  0  0  0  0  0  0  0
  -20.5418  -23.7692   17.8657 C   0  0  0  0  0  0  0  0  0  0  0  0
  -22.1270  -27.7611   22.9077 C   0  0  0  0  0  0  0  0  0  0  0  0
  -20.9532  -25.7091   22.0834 C   0  0  0  0  0  0  0  0  0  0  0  0
  -20.2951  -27.9535   21.2162 C   0  0  0  0  0  0  0  0  0  0  0  0
  -23.6754  -24.9632   16.0681 C   0  0  0  0  0  0  0  0  0  0  0  0
  -31.0558  -25.3010   20.1033 C   0  0  0  0  0  0  0  0  0  1  0  0
  -22.4933  -26.9391   20.4878 C   0  0  1  0  0  0  0  0  0  0  0  0
  -21.6467  -24.7517   17.5098 C   0  0  2  0  0  0  0  0  0  0  0  0
  -21.4951  -27.0940   21.6698 C   0  0  0  0  0  0  0  0  0  0  0  0
  -26.0660  -11.7312   20.9830 N   0  0  0  0  0  0  0  0  0  0  0  0
  -26.1863  -12.7851   20.1578 N   0  0  0  0  0  0  0  0  0  0  0  0
  -31.3257  -21.5974   20.1197 N   0  0  0  0  0  0  0  0  0  0  0  0
  -24.4726  -28.3834   20.1411 N   0  0  0  0  0  0  0  0  0  0  0  0
  -29.7071  -14.0453   19.3836 N   0  0  0  0  0  0  0  0  0  0  0  0
  -25.0274  -14.6777   19.3298 N   0  0  0  0  0  0  0  0  0  0  0  0
  -22.0432  -12.7731   22.1340 N   0  0  0  0  0  0  0  0  0  0  0  0
  -29.4824  -16.3880   19.2303 N   0  0  0  0  0  0  0  0  0  0  0  0
  -25.1209  -31.6992   21.2882 N   0  0  0  0  0  0  0  0  0  0  0  0
  -21.9149  -26.3349   19.2924 N   0  0  0  0  0  0  0  0  0  0  0  0
  -22.5547  -24.1008   16.5235 N   0  3  0  0  0  0  0  0  0  0  0  0
  -33.4661  -21.1922   21.0067 O   0  0  0  0  0  0  0  0  0  0  0  0
  -29.4927  -22.8683   19.3807 O   0  0  0  0  0  0  0  0  0  0  0  0
  -22.3847  -14.5143   20.6812 O   0  0  0  0  0  0  0  0  0  0  0  0
  -25.5022  -29.6124   22.2486 O   0  0  0  0  0  0  0  0  0  0  0  0
  -22.3277  -29.1486   19.6410 O   0  0  0  0  0  0  0  0  0  0  0  0
  -23.3857  -24.5461   19.1745 O   0  0  0  0  0  0  0  0  0  0  0  0
  -31.2984  -15.3045   18.2763 O   0  0  0  0  0  0  0  0  0  0  0  0
  -22.8317   -8.1459   25.1343 O   0  0  0  0  0  0  0  0  0  0  0  0
  -29.8960  -25.5434   20.8986 O   0  0  0  0  0  0  0  0  0  1  0  0
  -17.6982   -6.2875   24.3608 F   0  0  0  0  0  0  0  0  0  0  0  0
  -27.7288  -18.4701   19.8321 F   0  0  0  0  0  0  0  0  0  0  0  0
  -22.3418   -5.4533   24.7435 F   0  0  0  0  0  0  0  0  0  0  0  0
  1  2  1  0  0  0  0
  1  5  2  0  0  0  0
  2  6  2  0  0  0  0
  3 10  2  0  0  0  0
  3 18  1  0  0  0  0
  4 11  1  0  0  0  0
  4 18  2  0  0  0  0
  5 20  1  0  0  0  0
  6 22  1  0  0  0  0
  7 12  2  0  0  0  0
  7 21  1  0  0  0  0
  8  9  2  0  0  0  0
  8 24  1  0  0  0  0
  9 25  1  0  0  0  0
 10 26  1  0  0  0  0
 11 26  2  0  0  0  0
 12 27  1  0  0  0  0
 13 14  2  0  0  0  0
 13 28  1  0  0  0  0
 14 29  1  0  0  0  0
 15 23  1  0  0  0  0
 15 27  2  0  0  0  0
 16 24  2  0  0  0  0
 16 30  1  0  0  0  0
 17 29  2  0  0  0  0
 17 31  1  0  0  0  0
 18 32  1  0  0  0  0
 19 32  1  0  0  0  0
 19 33  2  0  0  0  0
 19 38  1  0  0  0  0
 20 22  2  0  0  0  0
 20 43  1  0  0  0  0
 21 23  2  0  0  0  0
 21 44  1  0  0  0  0
 22 52  1  0  0  0  0
 23 45  1  0  0  0  0
 24 66  1  0  0  0  0
 25 30  2  0  0  0  0
 25 71  1  0  0  0  0
 26 82  1  0  0  0  0
 27 83  1  0  0  0  0
 28 31  2  0  0  0  0
 28 82  1  0  0  0  0
 29 84  1  0  0  0  0
 30 85  1  0  0  0  0
 31 86  1  0  0  0  0
 32 64  2  0  0  0  0
 33 65  1  0  0  0  0
 33 69  1  0  0  0  0
 34 35  2  0  0  0  0
 34 36  1  0  0  0  0
 35 37  1  0  0  0  0
 35 60  1  0  0  0  0
 36 66  1  0  0  0  0
 36 75  2  0  0  0  0
 37 66  1  0  0  0  0
 37 76  2  0  0  0  0
 38 70  1  0  0  0  0
 38 77  2  0  0  0  0
 39 53  1  0  0  0  0
 39 72  1  0  0  0  0
 39 78  2  0  0  0  0
 40 61  1  0  0  0  0
 40 67  1  0  0  0  0
 40 79  2  0  0  0  0
 41 62  1  0  0  0  0
 41 73  1  0  0  0  0
 41 80  2  0  0  0  0
 42 68  1  0  0  0  0
 42 71  1  0  0  0  0
 42 81  2  0  0  0  0
 43 46  1  0  0  0  0
 44 53  1  0  0  0  0
 45 67  1  0  0  0  0
 46 48  1  0  0  0  0
 47 49  1  0  0  0  0
 47 50  1  0  0  0  0
 48 52  1  0  0  0  0
 49 54  1  0  0  0  0
 50 68  1  0  0  0  0
 51 54  1  0  0  0  0
 51 68  1  0  0  0  0
 52 72  1  0  0  0  0
 53 67  1  0  0  0  0
 54 65  1  0  0  0  0
 55 62  1  0  0  0  0
 56 63  1  0  0  0  0
 57 63  1  0  0  0  0
 58 63  1  0  0  0  0
 59 74  1  0  0  0  0
 60 83  1  0  0  0  0
 61 63  1  0  0  0  0
 61 73  1  0  0  0  0
 62 74  1  0  0  0  0
 64 65  1  0  0  0  0
M  CHG  1  74   1
M  ISO  4  42 100  60 101  71 100  83 101
M  END
> <Batch ID>
0083

> <Smiles>
CNC(C)C(=O)NC(C(=O)N1Cc2cc([101O:1][101CH2:1]C3=CC(=O)N(c4ccc([100NH:0][100C:0](=O)N5CCCC(n6nc(-c7ccc(Oc8ccc(F)cc8F)cc7)c(C(N)=O)c6N)C5)c(F)c4)C3=O)ccc2CC1C(=O)NC1CCCc2ccccc21)C(C)(C)C

> <Shape>
0.295

> <Color>
0.132

> <Negative vol penalty>
0.000

$$$$

  -OEChem-04052300093D

 84 93  0     1  0  0  0  0  0999 V2000
  -31.9667  -36.5933   17.3638 C   0  0  0  0  0  0  0  0  0  0  0  0
  -31.7918  -35.2248   17.1853 C   0  0  0  0  0  0  0  0  0  0  0  0
  -24.4348   -8.2687   21.3129 C   0  0  0  0  0  0  0  0  0  0  0  0
  -24.0937  -10.0301   22.9310 C   0  0  0  0  0  0  0  0  0  0  0  0
  -31.6957  -37.1739   18.6021 C   0  0  0  0  0  0  0  0  0  0  0  0
  -31.3468  -34.4358   18.2455 C   0  0  0  0  0  0  0  0  0  0  0  0
  -27.7032  -29.5253   17.9038 C   0  0  0  0  0  0  0  0  0  0  0  0
  -26.5013  -19.7385   18.5856 C   0  0  0  0  0  0  0  0  0  0  0  0
  -28.8679  -19.9819   19.0064 C   0  0  0  0  0  0  0  0  0  0  0  0
  -26.6477  -18.3516   18.5641 C   0  0  0  0  0  0  0  0  0  0  0  0
  -29.0143  -18.5949   18.9849 C   0  0  0  0  0  0  0  0  0  0  0  0
  -24.0291   -7.3241   22.2555 C   0  0  0  0  0  0  0  0  0  0  0  0
  -23.6879   -9.0854   23.8737 C   0  0  0  0  0  0  0  0  0  0  0  0
  -27.9708  -28.1570   17.9015 C   0  0  0  0  0  0  0  0  0  0  0  0
  -21.1195   -6.1867   23.5491 C   0  0  0  0  0  0  0  0  0  0  0  0
  -20.2261   -5.1991   23.1341 C   0  0  0  0  0  0  0  0  0  0  0  0
  -27.5515  -28.0771   20.2757 C   0  0  0  0  0  0  0  0  0  0  0  0
  -21.8415   -3.4967   23.7081 C   0  0  0  0  0  0  0  0  0  0  0  0
  -24.4672   -9.6217   21.6506 C   0  0  0  0  0  0  0  0  0  0  0  0
  -24.0727  -11.2857   19.7577 C   0  0  0  0  0  0  0  0  0  0  0  0
  -31.2379  -36.3932   19.6752 C   0  0  0  0  0  0  0  0  0  0  0  0
  -27.3677  -30.1829   19.0961 C   0  0  0  0  0  0  0  0  0  0  0  0
  -31.0707  -35.0063   19.4997 C   0  0  0  0  0  0  0  0  0  0  0  0
  -27.2775  -29.4533   20.2901 C   0  0  0  0  0  0  0  0  0  0  0  0
  -27.6114  -20.5537   18.8067 C   0  0  0  0  0  0  0  0  0  0  0  0
  -27.9042  -17.7797   18.7638 C   0  0  0  0  0  0  0  0  0  0  0  0
  -23.6556   -7.7324   23.5359 C   0  0  0  0  0  0  0  0  0  0  0  0
  -27.8978  -27.4333   19.0881 C   0  0  0  0  0  0  0  0  0  0  0  0
  -22.3739   -5.8293   24.0435 C   0  0  0  0  0  0  0  0  0  0  0  0
  -20.5871   -3.8541   23.2136 C   0  0  0  0  0  0  0  0  0  0  0  0
  -22.7349   -4.4843   24.1231 C   0  0  0  0  0  0  0  0  0  0  0  0
  -24.8868  -10.5980   20.6775 C   0  0  0  0  0  0  0  0  0  0  0  0
  -24.9426  -12.0918   19.0649 C   0  0  0  0  0  0  0  0  0  0  0  0
  -27.2587  -23.9004   18.8578 C   0  0  0  0  0  0  0  0  0  0  0  0
  -26.3914  -22.7428   18.6676 C   0  0  0  0  0  0  0  0  0  0  0  0
  -28.3490  -22.9437   19.0157 C   0  0  0  0  0  0  0  0  0  0  0  0
  -27.1178  -25.2382   18.8782 C   0  0  0  0  0  0  0  0  0  1  0  0
  -22.6567  -11.2033   19.5482 C   0  0  0  0  0  0  0  0  0  0  0  0
  -28.6682  -32.5232   20.8094 C   0  0  0  0  0  0  0  0  0  0  0  0
  -25.9432  -32.2387   22.5460 C   0  0  0  0  0  0  0  0  0  0  0  0
  -23.3201  -30.2857   23.5217 C   0  0  0  0  0  0  0  0  0  0  0  0
  -29.2290  -15.6428   18.9223 C   0  0  0  0  0  0  0  0  0  0  0  0
  -31.0033  -37.0581   21.0085 C   0  0  0  0  0  0  0  0  0  0  0  0
  -27.0558  -31.6542   19.0770 C   0  0  0  0  0  0  0  0  0  0  0  0
  -26.9018  -30.1083   21.5932 C   0  0  0  0  0  0  0  0  0  0  0  0
  -30.1771  -36.2122   21.9739 C   0  0  0  0  0  0  0  0  0  0  0  0
  -30.0031  -12.1680   18.9775 C   0  0  0  0  0  0  0  0  0  0  0  0
  -30.6907  -34.7761   21.9994 C   0  0  0  0  0  0  0  0  0  0  0  0
  -28.6741  -11.5063   19.3490 C   0  0  0  0  0  0  0  0  0  0  0  0
  -30.2000  -13.4948   19.7085 C   0  0  0  0  0  0  0  0  0  0  0  0
  -27.7650  -13.7891   19.9402 C   0  0  0  0  0  0  0  0  0  0  0  0
  -30.5659  -34.1211   20.6185 C   0  0  1  0  0  0  0  0  0  0  0  0
  -27.2263  -32.3188   20.4396 C   0  0  1  0  0  0  0  0  0  0  0  0
  -27.4924  -12.4812   19.1794 C   0  0  2  0  0  0  0  0  0  0  0  0
  -21.2754  -30.3164   24.9763 C   0  0  0  0  0  0  0  0  0  0  0  0
  -27.7012  -31.9222   25.0198 C   0  0  0  0  0  0  0  0  0  0  0  0
  -25.7058  -31.0255   26.2374 C   0  0  0  0  0  0  0  0  0  0  0  0
  -25.6805  -33.3577   25.3527 C   0  0  0  0  0  0  0  0  0  0  0  0
  -21.5282  -29.8244   21.2120 C   0  0  0  0  0  0  0  0  0  0  0  0
  -25.5167  -31.4181   23.7392 C   0  0  1  0  0  0  0  0  0  0  0  0
  -21.8280  -30.5589   23.5804 C   0  0  2  0  0  0  0  0  0  0  0  0
  -26.1600  -31.9186   25.0632 C   0  0  0  0  0  0  0  0  0  0  0  0
  -26.1750  -10.9374   20.5803 N   0  0  0  0  0  0  0  0  0  0  0  0
  -26.1769  -11.8472   19.5912 N   0  0  0  0  0  0  0  0  0  0  0  0
  -27.4674  -21.9207   18.8276 N   0  0  0  0  0  0  0  0  0  0  0  0
  -26.6122  -31.5501   21.5242 N   0  0  0  0  0  0  0  0  0  0  0  0
  -29.0435  -14.3686   19.4991 N   0  0  0  0  0  0  0  0  0  0  0  0
  -24.7646  -12.9788   18.0630 N   0  0  0  0  0  0  0  0  0  0  0  0
  -21.9132  -10.3241   20.3473 N   0  0  0  0  0  0  0  0  0  0  0  0
  -28.0533  -16.3708   18.7420 N   0  0  0  0  0  0  0  0  0  0  0  0
  -29.1971  -33.7219   20.3703 N   0  0  0  0  0  0  0  0  0  0  0  0
  -24.0578  -31.4296   23.7421 N   0  0  0  0  0  0  0  0  0  0  0  0
  -21.1015  -29.6734   22.6269 N   0  3  0  0  0  0  0  0  0  0  0  0
  -25.2091  -22.5718   18.4556 O   0  0  0  0  0  0  0  0  0  0  0  0
  -29.5415  -23.0166   19.2260 O   0  0  0  0  0  0  0  0  0  0  0  0
  -22.0706  -11.8769   18.6672 O   0  0  0  0  0  0  0  0  0  0  0  0
  -29.2569  -31.6581   21.4472 O   0  0  0  0  0  0  0  0  0  0  0  0
  -25.6858  -33.4448   22.5184 O   0  0  0  0  0  0  0  0  0  0  0  0
  -23.7848  -29.1685   23.3061 O   0  0  0  0  0  0  0  0  0  0  0  0
  -30.3451  -16.0468   18.5861 O   0  0  0  0  0  0  0  0  0  0  0  0
  -23.2594   -6.8109   24.4559 O   0  0  0  0  0  0  0  0  0  0  0  0
  -28.1592  -26.0978   19.0887 O   0  0  0  0  0  0  0  0  0  1  0  0
  -19.7286   -2.9058   22.8165 F   0  0  0  0  0  0  0  0  0  0  0  0
  -23.9381   -4.1348   24.5983 F   0  0  0  0  0  0  0  0  0  0  0  0
  1  2  1  0  0  0  0
  1  5  2  0  0  0  0
  2  6  2  0  0  0  0
  3 12  2  0  0  0  0
  3 19  1  0  0  0  0
  4 13  1  0  0  0  0
  4 19  2  0  0  0  0
  5 21  1  0  0  0  0
  6 23  1  0  0  0  0
  7 14  2  0  0  0  0
  7 22  1  0  0  0  0
  8 10  2  0  0  0  0
  8 25  1  0  0  0  0
  9 11  1  0  0  0  0
  9 25  2  0  0  0  0
 10 26  1  0  0  0  0
 11 26  2  0  0  0  0
 12 27  1  0  0  0  0
 13 27  2  0  0  0  0
 14 28  1  0  0  0  0
 15 16  2  0  0  0  0
 15 29  1  0  0  0  0
 16 30  1  0  0  0  0
 17 24  1  0  0  0  0
 17 28  2  0  0  0  0
 18 30  2  0  0  0  0
 18 31  1  0  0  0  0
 19 32  1  0  0  0  0
 20 32  1  0  0  0  0
 20 33  2  0  0  0  0
 20 38  1  0  0  0  0
 21 23  2  0  0  0  0
 21 43  1  0  0  0  0
 22 24  2  0  0  0  0
 22 44  1  0  0  0  0
 23 52  1  0  0  0  0
 24 45  1  0  0  0  0
 25 65  1  0  0  0  0
 26 70  1  0  0  0  0
 27 81  1  0  0  0  0
 28 82  1  0  0  0  0
 29 31  2  0  0  0  0
 29 81  1  0  0  0  0
 30 83  1  0  0  0  0
 31 84  1  0  0  0  0
 32 63  2  0  0  0  0
 33 64  1  0  0  0  0
 33 68  1  0  0  0  0
 34 35  1  0  0  0  0
 34 36  1  0  0  0  0
 34 37  2  0  0  0  0
 35 65  1  0  0  0  0
 35 74  2  0  0  0  0
 36 65  1  0  0  0  0
 36 75  2  0  0  0  0
 37 82  1  0  0  0  0
 38 69  1  0  0  0  0
 38 76  2  0  0  0  0
 39 53  1  0  0  0  0
 39 71  1  0  0  0  0
 39 77  2  0  0  0  0
 40 60  1  0  0  0  0
 40 66  1  0  0  0  0
 40 78  2  0  0  0  0
 41 61  1  0  0  0  0
 41 72  1  0  0  0  0
 41 79  2  0  0  0  0
 42 67  1  0  0  0  0
 42 70  1  0  0  0  0
 42 80  2  0  0  0  0
 43 46  1  0  0  0  0
 44 53  1  0  0  0  0
 45 66  1  0  0  0  0
 46 48  1  0  0  0  0
 47 49  1  0  0  0  0
 47 50  1  0  0  0  0
 48 52  1  0  0  0  0
 49 54  1  0  0  0  0
 50 67  1  0  0  0  0
 51 54  1  0  0  0  0
 51 67  1  0  0  0  0
 52 71  1  0  0  0  0
 53 66  1  0  0  0  0
 54 64  1  0  0  0  0
 55 61  1  0  0  0  0
 56 62  1  0  0  0  0
 57 62  1  0  0  0  0
 58 62  1  0  0  0  0
 59 73  1  0  0  0  0
 60 62  1  0  0  0  0
 60 72  1  0  0  0  0
 61 73  1  0  0  0  0
 63 64  1  0  0  0  0
M  CHG  1  73   1
M  ISO  4  37 101  42 100  70 100  82 101
M  END
> <Batch ID>
0083

> <Smiles>
CNC(C)C(=O)NC(C(=O)N1Cc2cc([101O:1][101CH:1]=C3C(=O)N(c4ccc([100NH:0][100C:0](=O)N5CCCC(n6nc(-c7ccc(Oc8ccc(F)cc8F)cc7)c(C(N)=O)c6N)C5)cc4)C3=O)ccc2CC1C(=O)NC1CCCc2ccccc21)C(C)(C)C

> <Shape>
0.262

> <Color>
0.109

> <Negative vol penalty>
0.000

$$$$

  -OEChem-04052300093D

 86 95  0     1  0  0  0  0  0999 V2000
  -25.5205  -38.7895   20.3635 C   0  0  0  0  0  0  0  0  0  0  0  0
  -26.2485  -37.7848   19.7343 C   0  0  0  0  0  0  0  0  0  0  0  0
  -23.2648  -10.2966   21.5740 C   0  0  0  0  0  0  0  0  0  0  0  0
  -24.7297   -8.4057   21.2337 C   0  0  0  0  0  0  0  0  0  0  0  0
  -24.9063  -38.5400   21.5901 C   0  0  0  0  0  0  0  0  0  0  0  0
  -26.3638  -36.5302   20.3319 C   0  0  0  0  0  0  0  0  0  0  0  0
  -26.9002  -29.5828   18.6700 C   0  0  0  0  0  0  0  0  0  0  0  0
  -28.2943  -20.2838   18.5717 C   0  0  0  0  0  0  0  0  0  0  0  0
  -29.6163  -19.8062   20.5367 C   0  0  0  0  0  0  0  0  0  0  0  0
  -28.2274  -18.9203   18.2853 C   0  0  0  0  0  0  0  0  0  0  0  0
  -29.5493  -18.4427   20.2504 C   0  0  0  0  0  0  0  0  0  0  0  0
  -22.1826   -9.4303   21.7285 C   0  0  0  0  0  0  0  0  0  0  0  0
  -23.6475   -7.5394   21.3882 C   0  0  0  0  0  0  0  0  0  0  0  0
  -27.6993  -28.4710   18.9330 C   0  0  0  0  0  0  0  0  0  0  0  0
  -21.8364   -6.2479   23.9323 C   0  0  0  0  0  0  0  0  0  0  0  0
  -22.0166   -5.1260   24.7413 C   0  0  0  0  0  0  0  0  0  0  0  0
  -26.5296  -28.1304   21.0151 C   0  0  0  0  0  0  0  0  0  0  0  0
  -21.5158   -3.6912   22.8632 C   0  0  0  0  0  0  0  0  0  0  0  0
  -24.5384   -9.7843   21.3265 C   0  0  0  0  0  0  0  0  0  0  0  0
  -26.5122  -11.1594   22.1757 C   0  0  0  0  0  0  0  0  0  0  0  0
  -25.0060  -37.2788   22.1984 C   0  0  0  0  0  0  0  0  0  0  0  0
  -25.9154  -29.9838   19.5843 C   0  0  0  0  0  0  0  0  0  0  0  0
  -25.7515  -36.2640   21.5684 C   0  0  0  0  0  0  0  0  0  0  0  0
  -25.7176  -29.2461   20.7601 C   0  0  0  0  0  0  0  0  0  0  0  0
  -28.9888  -20.7268   19.6974 C   0  0  0  0  0  0  0  0  0  0  0  0
  -28.8548  -17.9998   19.1246 C   0  0  0  0  0  0  0  0  0  0  0  0
  -22.3739   -8.0518   21.6356 C   0  0  0  0  0  0  0  0  0  0  0  0
  -27.5160  -27.7463   20.1070 C   0  0  0  0  0  0  0  0  0  0  0  0
  -21.4958   -6.0914   22.5887 C   0  0  0  0  0  0  0  0  0  0  0  0
  -21.8563   -3.8477   24.2068 C   0  0  0  0  0  0  0  0  0  0  0  0
  -21.3356   -4.8131   22.0541 C   0  0  0  0  0  0  0  0  0  0  0  0
  -25.6567  -10.6786   21.1663 C   0  0  0  0  0  0  0  0  0  0  0  0
  -27.4036  -11.9681   21.5139 C   0  0  0  0  0  0  0  0  0  0  0  0
  -28.5462  -24.3120   20.1255 C   0  0  0  0  0  0  0  0  0  0  0  0
  -28.0667  -22.9983   19.6442 C   0  0  0  0  0  0  0  0  0  0  0  0
  -30.1252  -22.6906   20.6427 C   0  0  0  0  0  0  0  0  0  0  0  0
  -27.8647  -25.4405   19.9277 C   0  0  0  0  0  0  0  0  0  1  0  0
  -26.5020  -10.8984   23.5854 C   0  0  0  0  0  0  0  0  0  0  0  0
  -25.3984  -32.5941   21.3228 C   0  0  0  0  0  0  0  0  0  0  0  0
  -22.6236  -31.0828   22.0569 C   0  0  0  0  0  0  0  0  0  0  0  0
  -20.9089  -28.1447   22.3288 C   0  0  0  0  0  0  0  0  0  0  0  0
  -28.0906  -16.1097   17.6968 C   0  0  0  0  0  0  0  0  0  0  0  0
  -24.3645  -37.0707   23.5474 C   0  0  0  0  0  0  0  0  0  0  0  0
  -25.0438  -31.1695   19.2733 C   0  0  0  0  0  0  0  0  0  0  0  0
  -24.6606  -29.6231   21.7645 C   0  0  0  0  0  0  0  0  0  0  0  0
  -29.8452  -24.1616   20.8225 C   0  0  0  0  0  0  0  0  0  0  0  0
  -24.2217  -35.6008   23.9338 C   0  0  0  0  0  0  0  0  0  0  0  0
  -28.2680  -12.5983   16.5794 C   0  0  0  0  0  0  0  0  0  0  0  0
  -25.5214  -34.8493   23.6640 C   0  0  0  0  0  0  0  0  0  0  0  0
  -27.6130  -11.8404   17.7329 C   0  0  0  0  0  0  0  0  0  0  0  0
  -27.7078  -14.0105   16.4384 C   0  0  0  0  0  0  0  0  0  0  0  0
  -27.1307  -14.0572   18.8457 C   0  0  0  0  0  0  0  0  0  0  0  0
  -25.8787  -34.8826   22.1732 C   0  0  1  0  0  0  0  0  0  0  0  0
  -24.4163  -31.7923   20.5165 C   0  0  1  0  0  0  0  0  0  0  0  0
  -27.7045  -12.6456   19.0406 C   0  0  1  0  0  0  0  0  0  0  0  0
  -18.6697  -27.2246   22.9896 C   0  0  0  0  0  0  0  0  0  0  0  0
  -23.3312  -31.4797   24.9982 C   0  0  0  0  0  0  0  0  0  0  0  0
  -21.6083  -29.7566   25.5732 C   0  0  0  0  0  0  0  0  0  0  0  0
  -20.9248  -31.8722   24.4421 C   0  0  0  0  0  0  0  0  0  0  0  0
  -29.6503  -15.6724   19.5799 C   0  0  0  0  0  0  0  0  0  0  0  0
  -20.4410  -27.0284   19.6281 C   0  0  0  0  0  0  0  0  0  0  0  0
  -22.1842  -30.1161   23.1298 C   0  0  1  0  0  0  0  0  0  0  0  0
  -19.5301  -27.7345   21.8440 C   0  0  2  0  0  0  0  0  0  0  0  0
  -22.0334  -30.7999   24.5180 C   0  0  0  0  0  0  0  0  0  0  0  0
  -25.9759  -11.1432   19.9554 N   0  0  0  0  0  0  0  0  0  0  0  0
  -27.0417  -11.9245   20.1996 N   0  0  0  0  0  0  0  0  0  0  0  0
  -29.0561  -22.0883   19.9834 N   0  0  0  0  0  0  0  0  0  0  0  0
  -23.8379  -30.7939   21.4182 N   0  0  0  0  0  0  0  0  0  0  0  0
  -27.7649  -14.7385   17.7066 N   0  0  0  0  0  0  0  0  0  0  0  0
  -28.4537  -12.7052   21.9338 N   0  0  0  0  0  0  0  0  0  0  0  0
  -25.5172  -10.0438   24.0996 N   0  0  0  0  0  0  0  0  0  0  0  0
  -25.0719  -33.9318   21.4387 N   0  0  0  0  0  0  0  0  0  0  0  0
  -20.9631  -29.4874   22.6377 N   0  0  0  0  0  0  0  0  0  0  0  0
  -28.7857  -16.5883   18.8285 N   0  0  0  0  0  0  0  0  0  0  0  0
  -19.6401  -26.6551   20.8223 N   0  3  0  0  0  0  0  0  0  0  0  0
  -27.0112  -22.8011   19.0646 O   0  0  0  0  0  0  0  0  0  0  0  0
  -31.1487  -22.1474   21.0418 O   0  0  0  0  0  0  0  0  0  0  0  0
  -27.3312  -11.4207   24.3684 O   0  0  0  0  0  0  0  0  0  0  0  0
  -26.3790  -32.0399   21.8054 O   0  0  0  0  0  0  0  0  0  0  0  0
  -21.9120  -32.0545   21.7901 O   0  0  0  0  0  0  0  0  0  0  0  0
  -21.8433  -27.3524   22.4274 O   0  0  0  0  0  0  0  0  0  0  0  0
  -27.8087  -16.8404   16.7396 O   0  0  0  0  0  0  0  0  0  0  0  0
  -21.3181   -7.2062   21.7866 O   0  0  0  0  0  0  0  0  0  0  0  0
  -28.2951  -26.6611   20.3665 O   0  0  0  0  0  0  0  0  0  1  0  0
  -22.0309   -2.7704   24.9834 F   0  0  0  0  0  0  0  0  0  0  0  0
  -21.0096   -4.6564   20.7638 F   0  0  0  0  0  0  0  0  0  0  0  0
  1  2  1  0  0  0  0
  1  5  2  0  0  0  0
  2  6  2  0  0  0  0
  3 12  2  0  0  0  0
  3 19  1  0  0  0  0
  4 13  1  0  0  0  0
  4 19  2  0  0  0  0
  5 21  1  0  0  0  0
  6 23  1  0  0  0  0
  7 14  2  0  0  0  0
  7 22  1  0  0  0  0
  8 10  2  0  0  0  0
  8 25  1  0  0  0  0
  9 11  1  0  0  0  0
  9 25  2  0  0  0  0
 10 26  1  0  0  0  0
 11 26  2  0  0  0  0
 12 27  1  0  0  0  0
 13 27  2  0  0  0  0
 14 28  1  0  0  0  0
 15 16  2  0  0  0  0
 15 29  1  0  0  0  0
 16 30  1  0  0  0  0
 17 24  1  0  0  0  0
 17 28  2  0  0  0  0
 18 30  2  0  0  0  0
 18 31  1  0  0  0  0
 19 32  1  0  0  0  0
 20 32  1  0  0  0  0
 20 33  2  0  0  0  0
 20 38  1  0  0  0  0
 21 23  2  0  0  0  0
 21 43  1  0  0  0  0
 22 24  2  0  0  0  0
 22 44  1  0  0  0  0
 23 53  1  0  0  0  0
 24 45  1  0  0  0  0
 25 67  1  0  0  0  0
 26 74  1  0  0  0  0
 27 83  1  0  0  0  0
 28 84  1  0  0  0  0
 29 31  2  0  0  0  0
 29 83  1  0  0  0  0
 30 85  1  0  0  0  0
 31 86  1  0  0  0  0
 32 65  2  0  0  0  0
 33 66  1  0  0  0  0
 33 70  1  0  0  0  0
 34 35  1  0  0  0  0
 34 37  2  0  0  0  0
 34 46  1  0  0  0  0
 35 67  1  0  0  0  0
 35 76  2  0  0  0  0
 36 46  1  0  0  0  0
 36 67  1  0  0  0  0
 36 77  2  0  0  0  0
 37 84  1  0  0  0  0
 38 71  1  0  0  0  0
 38 78  2  0  0  0  0
 39 54  1  0  0  0  0
 39 72  1  0  0  0  0
 39 79  2  0  0  0  0
 40 62  1  0  0  0  0
 40 68  1  0  0  0  0
 40 80  2  0  0  0  0
 41 63  1  0  0  0  0
 41 73  1  0  0  0  0
 41 81  2  0  0  0  0
 42 69  1  0  0  0  0
 42 74  1  0  0  0  0
 42 82  2  0  0  0  0
 43 47  1  0  0  0  0
 44 54  1  0  0  0  0
 45 68  1  0  0  0  0
 47 49  1  0  0  0  0
 48 50  1  0  0  0  0
 48 51  1  0  0  0  0
 49 53  1  0  0  0  0
 50 55  1  0  0  0  0
 51 69  1  0  0  0  0
 52 55  1  0  0  0  0
 52 69  1  0  0  0  0
 53 72  1  0  0  0  0
 54 68  1  0  0  0  0
 55 66  1  0  0  0  0
 56 63  1  0  0  0  0
 57 64  1  0  0  0  0
 58 64  1  0  0  0  0
 59 64  1  0  0  0  0
 60 74  1  0  0  0  0
 61 75  1  0  0  0  0
 62 64  1  0  0  0  0
 62 73  1  0  0  0  0
 63 75  1  0  0  0  0
 65 66  1  0  0  0  0
M  CHG  1  75   1
M  ISO  4  37 101  42 100  74 100  84 101
M  END
> <Batch ID>
0083

> <Smiles>
CNC(C)C(=O)NC(C(=O)N1Cc2cc([101O:1][101CH:1]=C3CC(=O)N(c4ccc([100N:0](C)[100C:0](=O)N5CCCC(n6nc(-c7ccc(Oc8ccc(F)cc8F)cc7)c(C(N)=O)c6N)C5)cc4)C3=O)ccc2CC1C(=O)NC1CCCc2ccccc21)C(C)(C)C

> <Shape>
0.339

> <Color>
0.113

> <Negative vol penalty>
0.000

$$$$

  -OEChem-04052300093D

 85 93  0     1  0  0  0  0  0999 V2000
  -35.2132  -27.0687   19.9646 C   0  0  0  0  0  0  0  0  0  0  0  0
  -34.3678  -26.5155   20.9210 C   0  0  0  0  0  0  0  0  0  0  0  0
  -23.4745   -9.4803   20.6994 C   0  0  0  0  0  0  0  0  0  0  0  0
  -23.9206  -10.2714   22.9382 C   0  0  0  0  0  0  0  0  0  0  0  0
  -31.5777  -19.1286   22.5472 C   0  0  0  0  0  0  0  0  0  0  0  0
  -29.2536  -19.7809   22.6458 C   0  0  0  0  0  0  0  0  0  0  0  0
  -35.1822  -28.4407   19.7184 C   0  0  0  0  0  0  0  0  0  0  0  0
  -33.4917  -27.3342   21.6327 C   0  0  0  0  0  0  0  0  0  0  0  0
  -28.8401  -25.3628   21.9806 C   0  0  0  0  0  0  0  0  0  0  0  0
  -31.2175  -17.9415   21.9095 C   0  0  0  0  0  0  0  0  0  0  0  0
  -28.8933  -18.5938   22.0081 C   0  0  0  0  0  0  0  0  0  0  0  0
  -22.8399   -8.3543   21.2237 C   0  0  0  0  0  0  0  0  0  0  0  0
  -23.2860   -9.1454   23.4626 C   0  0  0  0  0  0  0  0  0  0  0  0
  -28.6460  -24.3510   22.9199 C   0  0  0  0  0  0  0  0  0  0  0  0
  -20.1182   -8.0908   23.9855 C   0  0  0  0  0  0  0  0  0  0  0  0
  -19.2234   -8.2842   25.0378 C   0  0  0  0  0  0  0  0  0  0  0  0
  -27.6785  -25.9554   24.4395 C   0  0  0  0  0  0  0  0  0  0  0  0
  -20.5690   -6.8536   26.4450 C   0  0  0  0  0  0  0  0  0  0  0  0
  -24.0149  -10.4389   21.5566 C   0  0  0  0  0  0  0  0  0  0  0  0
  -30.5957  -20.0483   22.9154 C   0  0  0  0  0  0  0  0  0  0  0  0
  -24.0808  -12.8395   20.6961 C   0  0  0  0  0  0  0  0  0  0  0  0
  -34.2984  -29.2752   20.4206 C   0  0  0  0  0  0  0  0  0  0  0  0
  -28.4642  -26.6828   22.2684 C   0  0  0  0  0  0  0  0  0  0  0  0
  -33.4497  -28.7189   21.3966 C   0  0  0  0  0  0  0  0  0  0  0  0
  -27.8666  -26.9817   23.5011 C   0  0  0  0  0  0  0  0  0  0  0  0
  -29.8754  -17.6741   21.6399 C   0  0  0  0  0  0  0  0  0  0  0  0
  -22.7456   -8.1868   22.6053 C   0  0  0  0  0  0  0  0  0  0  0  0
  -28.0678  -24.6477   24.1507 C   0  0  0  0  0  0  0  0  0  0  0  0
  -21.2384   -7.2787   24.1628 C   0  0  0  0  0  0  0  0  0  0  0  0
  -19.4488   -7.6657   26.2676 C   0  0  0  0  0  0  0  0  0  0  0  0
  -21.4638   -6.6602   25.3926 C   0  0  0  0  0  0  0  0  0  0  0  0
  -24.6711  -11.6020   21.0156 C   0  0  0  0  0  0  0  0  0  0  0  0
  -25.1191  -13.6025   20.2205 C   0  0  0  0  0  0  0  0  0  0  0  0
  -30.9792  -21.3121   23.5945 C   0  0  0  0  0  0  0  0  0  0  0  0
  -22.7160  -13.2615   20.8185 C   0  0  0  0  0  0  0  0  0  0  0  0
  -30.0080  -29.4495   22.5250 C   0  0  0  0  0  0  0  0  0  0  0  0
  -27.0093  -30.6483   22.8306 C   0  0  0  0  0  0  0  0  0  0  0  0
  -23.7460  -30.1104   23.6719 C   0  0  0  0  0  0  0  0  0  0  0  0
  -30.1766  -23.0345   25.1733 C   0  0  0  0  0  0  0  0  0  0  0  0
  -30.3606  -15.4501   20.5607 C   0  0  0  0  0  0  0  0  0  0  0  0
  -34.3343  -30.7592   20.1534 C   0  0  0  0  0  0  0  0  0  0  0  0
  -28.6558  -27.7579   21.2342 C   0  0  0  0  0  0  0  0  0  0  0  0
  -27.4269  -28.3790   23.8512 C   0  0  0  0  0  0  0  0  0  0  0  0
  -33.1123  -31.5036   20.6851 C   0  0  0  0  0  0  0  0  0  0  0  0
  -29.8483  -12.3111   18.9602 C   0  0  0  0  0  0  0  0  0  0  0  0
  -32.8004  -31.0665   22.1128 C   0  0  0  0  0  0  0  0  0  0  0  0
  -28.4072  -11.9486   19.3260 C   0  0  0  0  0  0  0  0  0  0  0  0
  -30.5656  -13.0148   20.1109 C   0  0  0  0  0  0  0  0  0  0  0  0
  -28.4239  -13.8218   21.0225 C   0  0  0  0  0  0  0  0  0  0  0  0
  -32.4679  -29.5706   22.1716 C   0  0  1  0  0  0  0  0  0  0  0  0
  -28.7063  -29.1604   21.8325 C   0  0  1  0  0  0  0  0  0  0  0  0
  -27.6403  -13.1690   19.8720 C   0  0  2  0  0  0  0  0  0  0  0  0
  -21.5389  -31.2905   23.8562 C   0  0  0  0  0  0  0  0  0  0  0  0
  -29.1704  -24.7004   26.7975 C   0  0  0  0  0  0  0  0  0  0  0  0
  -28.4932  -22.2725   26.8945 C   0  0  0  0  0  0  0  0  0  0  0  0
  -27.9398  -31.9800   25.4133 C   0  0  0  0  0  0  0  0  0  0  0  0
  -25.5352  -32.3230   26.0207 C   0  0  0  0  0  0  0  0  0  0  0  0
  -26.4698  -33.4042   23.9761 C   0  0  0  0  0  0  0  0  0  0  0  0
  -22.4957  -28.3314   21.6642 C   0  0  0  0  0  0  0  0  0  0  0  0
  -26.0741  -30.9071   23.9870 C   0  0  1  0  0  0  0  0  0  0  0  0
  -22.4513  -30.4646   22.9627 C   0  0  2  0  0  0  0  0  0  0  0  0
  -28.9386  -23.4221   25.9934 C   0  0  0  0  0  0  0  0  0  1  0  0
  -26.5147  -32.1275   24.8437 C   0  0  0  0  0  0  0  0  0  0  0  0
  -25.9826  -11.5760   20.7640 N   0  0  0  0  0  0  0  0  0  0  0  0
  -26.2250  -12.8066   20.2813 N   0  0  0  0  0  0  0  0  0  0  0  0
  -27.6412  -29.3968   22.8092 N   0  0  0  0  0  0  0  0  0  0  0  0
  -29.7829  -14.1629   20.5734 N   0  0  0  0  0  0  0  0  0  0  0  0
  -25.1848  -14.8699   19.7603 N   0  0  0  0  0  0  0  0  0  0  0  0
  -21.7783  -12.3519   21.3260 N   0  0  0  0  0  0  0  0  0  0  0  0
  -29.5106  -16.4679   20.9919 N   0  0  0  0  0  0  0  0  0  0  0  0
  -30.0064  -21.8699   24.4227 N   0  0  0  0  0  0  0  0  0  0  0  0
  -31.1171  -29.3345   21.7089 N   0  0  0  0  0  0  0  0  0  0  0  0
  -24.7389  -31.0312   23.4124 N   0  0  0  0  0  0  0  0  0  0  0  0
  -21.7237  -29.2267   22.5639 N   0  3  0  0  0  0  0  0  0  0  0  0
  -32.1056  -21.7680   23.4172 O   0  0  0  0  0  0  0  0  0  0  0  0
  -22.3362  -14.4058   20.4722 O   0  0  0  0  0  0  0  0  0  0  0  0
  -30.0061  -29.7556   23.7116 O   0  0  0  0  0  0  0  0  0  0  0  0
  -27.1677  -31.5215   21.9738 O   0  0  0  0  0  0  0  0  0  0  0  0
  -23.8634  -29.1183   24.3878 O   0  0  0  0  0  0  0  0  0  0  0  0
  -31.2066  -23.7076   25.1931 O   0  0  0  0  0  0  0  0  0  0  0  0
  -31.5149  -15.6394   20.1685 O   0  0  0  0  0  0  0  0  0  0  0  0
  -22.1263   -7.0883   23.1173 O   0  0  0  0  0  0  0  0  0  0  0  0
  -27.8778  -23.6620   25.0695 O   0  0  0  0  0  0  0  0  0  1  0  0
  -18.5903   -7.8528   27.2785 F   0  0  0  0  0  0  0  0  0  0  0  0
  -22.5388   -5.8799   25.5693 F   0  0  0  0  0  0  0  0  0  0  0  0
  1  2  1  0  0  0  0
  1  7  2  0  0  0  0
  2  8  2  0  0  0  0
  3 12  2  0  0  0  0
  3 19  1  0  0  0  0
  4 13  1  0  0  0  0
  4 19  2  0  0  0  0
  5 10  2  0  0  0  0
  5 20  1  0  0  0  0
  6 11  1  0  0  0  0
  6 20  2  0  0  0  0
  7 22  1  0  0  0  0
  8 24  1  0  0  0  0
  9 14  2  0  0  0  0
  9 23  1  0  0  0  0
 10 26  1  0  0  0  0
 11 26  2  0  0  0  0
 12 27  1  0  0  0  0
 13 27  2  0  0  0  0
 14 28  1  0  0  0  0
 15 16  2  0  0  0  0
 15 29  1  0  0  0  0
 16 30  1  0  0  0  0
 17 25  1  0  0  0  0
 17 28  2  0  0  0  0
 18 30  2  0  0  0  0
 18 31  1  0  0  0  0
 19 32  1  0  0  0  0
 20 34  1  0  0  0  0
 21 32  1  0  0  0  0
 21 33  2  0  0  0  0
 21 35  1  0  0  0  0
 22 24  2  0  0  0  0
 22 41  1  0  0  0  0
 23 25  2  0  0  0  0
 23 42  1  0  0  0  0
 24 50  1  0  0  0  0
 25 43  1  0  0  0  0
 26 70  1  0  0  0  0
 27 82  1  0  0  0  0
 28 83  1  0  0  0  0
 29 31  2  0  0  0  0
 29 82  1  0  0  0  0
 30 84  1  0  0  0  0
 31 85  1  0  0  0  0
 32 64  2  0  0  0  0
 33 65  1  0  0  0  0
 33 68  1  0  0  0  0
 34 71  1  0  0  0  0
 34 75  2  0  0  0  0
 35 69  1  0  0  0  0
 35 76  2  0  0  0  0
 36 51  1  0  0  0  0
 36 72  1  0  0  0  0
 36 77  2  0  0  0  0
 37 60  1  0  0  0  0
 37 66  1  0  0  0  0
 37 78  2  0  0  0  0
 38 61  1  0  0  0  0
 38 73  1  0  0  0  0
 38 79  2  0  0  0  0
 39 62  1  0  0  0  0
 39 71  1  0  0  0  0
 39 80  2  0  0  0  0
 40 67  1  0  0  0  0
 40 70  1  0  0  0  0
 40 81  2  0  0  0  0
 41 44  1  0  0  0  0
 42 51  1  0  0  0  0
 43 66  1  0  0  0  0
 44 46  1  0  0  0  0
 45 47  1  0  0  0  0
 45 48  1  0  0  0  0
 46 50  1  0  0  0  0
 47 52  1  0  0  0  0
 48 67  1  0  0  0  0
 49 52  1  0  0  0  0
 49 67  1  0  0  0  0
 50 72  1  0  0  0  0
 51 66  1  0  0  0  0
 52 65  1  0  0  0  0
 53 61  1  0  0  0  0
 54 62  1  0  0  0  0
 55 62  1  0  0  0  0
 56 63  1  0  0  0  0
 57 63  1  0  0  0  0
 58 63  1  0  0  0  0
 59 74  1  0  0  0  0
 60 63  1  0  0  0  0
 60 73  1  0  0  0  0
 61 74  1  0  0  0  0
 62 83  1  0  0  0  0
 64 65  1  0  0  0  0
M  CHG  1  74   1
M  ISO  4  40 100  62 101  70 100  83 101
M  END
> <Batch ID>
0083

> <Smiles>
CNC(C)C(=O)NC(C(=O)N1Cc2cc([101O:1][101C:1](C)(C)C(=O)NC(=O)c3ccc([100NH:0][100C:0](=O)N4CCCC(n5nc(-c6ccc(Oc7ccc(F)cc7F)cc6)c(C(N)=O)c5N)C4)cc3)ccc2CC1C(=O)NC1CCCc2ccccc21)C(C)(C)C

> <Shape>
0.251

> <Color>
0.149

> <Negative vol penalty>
0.000

$$$$

  -OEChem-04052300093D

 88 97  0     1  0  0  0  0  0999 V2000
  -36.7491  -30.7514   20.2981 C   0  0  0  0  0  0  0  0  0  0  0  0
  -36.3354  -29.4237   20.2585 C   0  0  0  0  0  0  0  0  0  0  0  0
  -34.0573  -16.0638   24.1400 C   0  0  0  0  0  0  0  0  0  0  0  0
  -23.2800   -9.7753   19.9316 C   0  0  0  0  0  0  0  0  0  0  0  0
  -23.7396   -9.9371   22.2980 C   0  0  0  0  0  0  0  0  0  0  0  0
  -35.9169  -31.7234   20.8519 C   0  0  0  0  0  0  0  0  0  0  0  0
  -35.0896  -29.0671   20.7736 C   0  0  0  0  0  0  0  0  0  0  0  0
  -31.3412  -24.7106   18.6580 C   0  0  0  0  0  0  0  0  0  0  0  0
  -33.5084  -14.7835   24.2113 C   0  0  0  0  0  0  0  0  0  0  0  0
  -33.3556  -17.0892   23.5061 C   0  0  0  0  0  0  0  0  0  0  0  0
  -22.5565   -8.6034   20.1522 C   0  0  0  0  0  0  0  0  0  0  0  0
  -23.0160   -8.7652   22.5186 C   0  0  0  0  0  0  0  0  0  0  0  0
  -31.1139  -23.3940   19.0565 C   0  0  0  0  0  0  0  0  0  0  0  0
  -19.7714   -7.8506   22.7562 C   0  0  0  0  0  0  0  0  0  0  0  0
  -18.8731   -7.8366   23.8232 C   0  0  0  0  0  0  0  0  0  0  0  0
  -29.2275  -24.1241   20.3711 C   0  0  0  0  0  0  0  0  0  0  0  0
  -31.5560  -15.5539   23.0148 C   0  0  0  0  0  0  0  0  0  0  0  0
  -20.0858   -5.9999   24.8199 C   0  0  0  0  0  0  0  0  0  0  0  0
  -23.8716  -10.4422   21.0045 C   0  0  0  0  0  0  0  0  0  0  0  0
  -24.1259  -12.9708   20.7831 C   0  0  0  0  0  0  0  0  0  0  0  0
  -34.6563  -31.3800   21.3652 C   0  0  0  0  0  0  0  0  0  0  0  0
  -30.5186  -25.7470   19.1225 C   0  0  0  0  0  0  0  0  0  0  0  0
  -34.2404  -30.0352   21.3359 C   0  0  0  0  0  0  0  0  0  0  0  0
  -29.4450  -25.4525   19.9749 C   0  0  0  0  0  0  0  0  0  0  0  0
  -32.2577  -14.5285   23.6487 C   0  0  0  0  0  0  0  0  0  0  0  0
  -32.1050  -16.8342   22.9435 C   0  0  0  0  0  0  0  0  0  0  0  0
  -22.4244   -8.0984   21.4457 C   0  0  0  0  0  0  0  0  0  0  0  0
  -30.0587  -23.1010   19.9155 C   0  0  0  0  0  0  0  0  0  0  0  0
  -20.8268   -6.9393   22.7210 C   0  0  0  0  0  0  0  0  0  0  0  0
  -19.0303   -6.9113   24.8551 C   0  0  0  0  0  0  0  0  0  0  0  0
  -20.9840   -6.0140   23.7529 C   0  0  0  0  0  0  0  0  0  0  0  0
  -24.6197  -11.6525   20.7772 C   0  0  0  0  0  0  0  0  0  0  0  0
  -25.2251  -13.7503   20.5172 C   0  0  0  0  0  0  0  0  0  0  0  0
  -30.7193  -19.9088   21.4137 C   0  0  0  0  0  0  0  0  0  0  0  0
  -31.8094  -19.2128   22.1479 C   0  0  0  0  0  0  0  0  0  0  0  0
  -30.9873  -12.0842   25.9857 C   0  0  0  0  0  0  0  0  0  0  0  0
  -30.8294  -21.1678   20.9831 C   0  0  0  0  0  0  0  0  0  1  0  0
  -30.8184  -12.9697   24.9951 C   0  0  0  0  0  0  0  0  0  0  0  0
  -22.7929  -13.4481   21.0089 C   0  0  0  0  0  0  0  0  0  0  0  0
  -30.9779  -28.3659   20.8643 C   0  0  0  0  0  0  0  0  0  0  0  0
  -27.8736  -28.9367   20.1160 C   0  0  0  0  0  0  0  0  0  0  0  0
  -24.8412  -27.6820   19.1793 C   0  0  0  0  0  0  0  0  0  0  0  0
  -31.1006  -12.9242   21.3216 C   0  0  0  0  0  0  0  0  0  0  0  0
  -33.8115  -32.4581   21.9967 C   0  0  0  0  0  0  0  0  0  0  0  0
  -30.7608  -27.1582   18.6620 C   0  0  0  0  0  0  0  0  0  0  0  0
  -28.5205  -26.5262   20.4857 C   0  0  0  0  0  0  0  0  0  0  0  0
  -29.5567  -18.9973   21.2306 C   0  0  0  0  0  0  0  0  0  0  0  0
  -32.3502  -32.0569   22.1815 C   0  0  0  0  0  0  0  0  0  0  0  0
  -29.4388  -13.6344   18.2539 C   0  0  0  0  0  0  0  0  0  0  0  0
  -32.2525  -30.6600   22.7864 C   0  0  0  0  0  0  0  0  0  0  0  0
  -27.9707  -13.3260   18.5533 C   0  0  0  0  0  0  0  0  0  0  0  0
  -30.1139  -17.6416   21.6323 C   0  0  0  0  0  0  0  0  0  0  0  0
  -30.3764  -12.6627   18.9671 C   0  0  0  0  0  0  0  0  0  0  0  0
  -28.6972  -12.2456   20.7221 C   0  0  0  0  0  0  0  0  0  0  0  0
  -32.8857  -29.6130   21.8621 C   0  0  1  0  0  0  0  0  0  0  0  0
  -30.1739  -28.2036   19.6054 C   0  0  1  0  0  0  0  0  0  0  0  0
  -27.7151  -13.2335   20.0696 C   0  0  2  0  0  0  0  0  0  0  0  0
  -22.4850  -28.3888   18.6833 C   0  0  0  0  0  0  0  0  0  0  0  0
  -32.7951  -12.0875   23.5986 C   0  0  0  0  0  0  0  0  0  0  0  0
  -27.3414  -29.2511   23.1040 C   0  0  0  0  0  0  0  0  0  0  0  0
  -24.8967  -29.0037   22.6237 C   0  0  0  0  0  0  0  0  0  0  0  0
  -26.1689  -30.9180   21.6544 C   0  0  0  0  0  0  0  0  0  0  0  0
  -25.0071  -26.6914   16.3954 C   0  0  0  0  0  0  0  0  0  0  0  0
  -26.5427  -28.5911   20.7391 C   0  0  1  0  0  0  0  0  0  0  0  0
  -23.8626  -28.1121   18.1015 C   0  0  2  0  0  0  0  0  0  0  0  0
  -31.6713  -13.1596   23.7253 C   0  0  2  0  0  0  0  0  0  0  0  0
  -26.2559  -29.4208   22.0224 C   0  0  0  0  0  0  0  0  0  0  0  0
  -25.9304  -11.5939   20.5271 N   0  0  0  0  0  0  0  0  0  0  0  0
  -26.2696  -12.8852   20.3734 N   0  0  0  0  0  0  0  0  0  0  0  0
  -31.3857  -17.8856   22.2945 N   0  0  0  0  0  0  0  0  0  0  0  0
  -28.8022  -27.8914   20.0120 N   0  0  0  0  0  0  0  0  0  0  0  0
  -30.0827  -12.6232   20.4017 N   0  0  0  0  0  0  0  0  0  0  0  0
  -25.3903  -15.0845   20.3947 N   0  0  0  0  0  0  0  0  0  0  0  0
  -21.7829  -12.5117   21.2683 N   0  0  0  0  0  0  0  0  0  0  0  0
  -31.9926  -29.2989   20.7676 N   0  0  0  0  0  0  0  0  0  0  0  0
  -25.5450  -28.7535   19.6872 N   0  0  0  0  0  0  0  0  0  0  0  0
  -30.7362  -12.8696   22.6613 N   0  0  0  0  0  0  0  0  0  0  0  0
  -23.7307  -27.0475   17.0670 N   0  3  0  0  0  0  0  0  0  0  0  0
  -32.8361  -19.7664   22.5047 O   0  0  0  0  0  0  0  0  0  0  0  0
  -22.5029  -14.6677   20.9652 O   0  0  0  0  0  0  0  0  0  0  0  0
  -30.6974  -27.6954   21.8510 O   0  0  0  0  0  0  0  0  0  0  0  0
  -28.0790  -30.0899   19.7291 O   0  0  0  0  0  0  0  0  0  0  0  0
  -24.9660  -26.5130   19.5378 O   0  0  0  0  0  0  0  0  0  0  0  0
  -32.2478  -13.2250   20.9744 O   0  0  0  0  0  0  0  0  0  0  0  0
  -21.7182   -6.9550   21.6614 O   0  0  0  0  0  0  0  0  0  0  0  0
  -29.8350  -21.8169   20.3066 O   0  0  0  0  0  0  0  0  0  1  0  0
  -18.1685   -6.8989   25.8805 F   0  0  0  0  0  0  0  0  0  0  0  0
  -21.9967   -5.1368   23.7251 F   0  0  0  0  0  0  0  0  0  0  0  0
  1  2  1  0  0  0  0
  1  6  2  0  0  0  0
  2  7  2  0  0  0  0
  3  9  2  0  0  0  0
  3 10  1  0  0  0  0
  4 11  2  0  0  0  0
  4 19  1  0  0  0  0
  5 12  1  0  0  0  0
  5 19  2  0  0  0  0
  6 21  1  0  0  0  0
  7 23  1  0  0  0  0
  8 13  2  0  0  0  0
  8 22  1  0  0  0  0
  9 25  1  0  0  0  0
 10 26  2  0  0  0  0
 11 27  1  0  0  0  0
 12 27  2  0  0  0  0
 13 28  1  0  0  0  0
 14 15  2  0  0  0  0
 14 29  1  0  0  0  0
 15 30  1  0  0  0  0
 16 24  1  0  0  0  0
 16 28  2  0  0  0  0
 17 25  2  0  0  0  0
 17 26  1  0  0  0  0
 18 30  2  0  0  0  0
 18 31  1  0  0  0  0
 19 32  1  0  0  0  0
 20 32  1  0  0  0  0
 20 33  2  0  0  0  0
 20 39  1  0  0  0  0
 21 23  2  0  0  0  0
 21 44  1  0  0  0  0
 22 24  2  0  0  0  0
 22 45  1  0  0  0  0
 23 55  1  0  0  0  0
 24 46  1  0  0  0  0
 25 66  1  0  0  0  0
 26 70  1  0  0  0  0
 27 85  1  0  0  0  0
 28 86  1  0  0  0  0
 29 31  2  0  0  0  0
 29 85  1  0  0  0  0
 30 87  1  0  0  0  0
 31 88  1  0  0  0  0
 32 68  2  0  0  0  0
 33 69  1  0  0  0  0
 33 73  1  0  0  0  0
 34 35  1  0  0  0  0
 34 37  2  0  0  0  0
 34 47  1  0  0  0  0
 35 70  1  0  0  0  0
 35 79  2  0  0  0  0
 36 38  2  0  0  0  0
 37 86  1  0  0  0  0
 38 66  1  0  0  0  0
 39 74  1  0  0  0  0
 39 80  2  0  0  0  0
 40 56  1  0  0  0  0
 40 75  1  0  0  0  0
 40 81  2  0  0  0  0
 41 64  1  0  0  0  0
 41 71  1  0  0  0  0
 41 82  2  0  0  0  0
 42 65  1  0  0  0  0
 42 76  1  0  0  0  0
 42 83  2  0  0  0  0
 43 72  1  0  0  0  0
 43 77  1  0  0  0  0
 43 84  2  0  0  0  0
 44 48  1  0  0  0  0
 45 56  1  0  0  0  0
 46 71  1  0  0  0  0
 47 52  1  0  0  0  0
 48 50  1  0  0  0  0
 49 51  1  0  0  0  0
 49 53  1  0  0  0  0
 50 55  1  0  0  0  0
 51 57  1  0  0  0  0
 52 70  1  0  0  0  0
 53 72  1  0  0  0  0
 54 57  1  0  0  0  0
 54 72  1  0  0  0  0
 55 75  1  0  0  0  0
 56 71  1  0  0  0  0
 57 69  1  0  0  0  0
 58 65  1  0  0  0  0
 59 66  1  0  0  0  0
 60 67  1  0  0  0  0
 61 67  1  0  0  0  0
 62 67  1  0  0  0  0
 63 78  1  0  0  0  0
 64 67  1  0  0  0  0
 64 76  1  0  0  0  0
 65 78  1  0  0  0  0
 66 77  1  0  0  0  0
 68 69  1  0  0  0  0
M  CHG  1  78   1
M  ISO  4  37 101  43 100  77 100  86 101
M  END
> <Batch ID>
0083

> <Smiles>
C=CC(C)([100NH:0][100C:0](=O)N1CCCC(n2nc(-c3ccc(Oc4ccc(F)cc4F)cc3)c(C(N)=O)c2N)C1)c1cccc(N2CCC(=[101CH:1][101O:1]c3ccc4c(c3)CN(C(=O)C(NC(=O)C(C)NC)C(C)(C)C)C(C(=O)NC3CCCc5ccccc53)C4)C2=O)c1

> <Shape>
0.287

> <Color>
0.173

> <Negative vol penalty>
0.000

$$$$

  -OEChem-04052300093D

 82 90  0     1  0  0  0  0  0999 V2000
  -30.4057  -35.9088   23.7155 C   0  0  0  0  0  0  0  0  0  0  0  0
  -30.4364  -34.9706   22.6888 C   0  0  0  0  0  0  0  0  0  0  0  0
  -24.0040   -9.0049   19.8282 C   0  0  0  0  0  0  0  0  0  0  0  0
  -23.1521  -10.5711   21.4587 C   0  0  0  0  0  0  0  0  0  0  0  0
  -29.1928  -20.5895   20.8450 C   0  0  0  0  0  0  0  0  0  0  0  0
  -29.7162  -35.6281   24.8944 C   0  0  0  0  0  0  0  0  0  0  0  0
  -29.7786  -33.7505   22.8409 C   0  0  0  0  0  0  0  0  0  0  0  0
  -26.2365  -28.8077   19.0543 C   0  0  0  0  0  0  0  0  0  0  0  0
  -29.3079  -19.2091   20.6813 C   0  0  0  0  0  0  0  0  0  0  0  0
  -23.2759   -7.9800   20.4322 C   0  0  0  0  0  0  0  0  0  0  0  0
  -22.4240   -9.5461   22.0627 C   0  0  0  0  0  0  0  0  0  0  0  0
  -26.2298  -27.4340   18.8160 C   0  0  0  0  0  0  0  0  0  0  0  0
  -20.0762   -6.8875   20.4738 C   0  0  0  0  0  0  0  0  0  0  0  0
  -19.3658   -6.0206   19.6434 C   0  0  0  0  0  0  0  0  0  0  0  0
  -27.1188  -20.5636   19.6061 C   0  0  0  0  0  0  0  0  0  0  0  0
  -25.0044  -27.0905   20.8653 C   0  0  0  0  0  0  0  0  0  0  0  0
  -20.6451   -4.1564   20.4952 C   0  0  0  0  0  0  0  0  0  0  0  0
  -23.9422  -10.3005   20.3414 C   0  0  0  0  0  0  0  0  0  0  0  0
  -28.0982  -21.2667   20.3075 C   0  0  0  0  0  0  0  0  0  0  0  0
  -24.2672  -12.2086   18.6797 C   0  0  0  0  0  0  0  0  0  0  0  0
  -29.0416  -34.4079   25.0572 C   0  0  0  0  0  0  0  0  0  0  0  0
  -25.6356  -29.3329   20.2073 C   0  0  0  0  0  0  0  0  0  0  0  0
  -29.0806  -33.4526   24.0236 C   0  0  0  0  0  0  0  0  0  0  0  0
  -25.0025  -28.4714   21.1146 C   0  0  0  0  0  0  0  0  0  0  0  0
  -28.3285  -18.5059   19.9799 C   0  0  0  0  0  0  0  0  0  0  0  0
  -22.4859   -8.2505   21.5495 C   0  0  0  0  0  0  0  0  0  0  0  0
  -25.6163  -26.5749   19.7230 C   0  0  0  0  0  0  0  0  0  0  0  0
  -21.0712   -6.3889   21.3148 C   0  0  0  0  0  0  0  0  0  0  0  0
  -19.6502   -4.6551   19.6542 C   0  0  0  0  0  0  0  0  0  0  0  0
  -27.2339  -19.1832   19.4423 C   0  0  0  0  0  0  0  0  0  0  0  0
  -21.3555   -5.0234   21.3255 C   0  0  0  0  0  0  0  0  0  0  0  0
  -24.6945  -11.3596   19.7182 C   0  0  0  0  0  0  0  0  0  0  0  0
  -25.3399  -13.0345   18.4481 C   0  0  0  0  0  0  0  0  0  0  0  0
  -26.7045  -24.5819   20.0355 C   0  0  0  0  0  0  0  0  0  1  0  0
  -27.9754  -22.7429   20.4826 C   0  0  0  0  0  0  0  0  0  0  0  0
  -23.0128  -12.2472   17.9865 C   0  0  0  0  0  0  0  0  0  0  0  0
  -26.6690  -30.9713   22.7276 C   0  0  0  0  0  0  0  0  0  0  0  0
  -23.5079  -31.1131   23.4418 C   0  0  0  0  0  0  0  0  0  0  0  0
  -20.3960  -29.7554   23.0967 C   0  0  0  0  0  0  0  0  0  0  0  0
  -29.4726  -16.2824   20.2853 C   0  0  0  0  0  0  0  0  0  0  0  0
  -28.3494  -34.1304   26.3682 C   0  0  0  0  0  0  0  0  0  0  0  0
  -25.6280  -30.8195   20.4364 C   0  0  0  0  0  0  0  0  0  0  0  0
  -24.3256  -28.9869   22.3574 C   0  0  0  0  0  0  0  0  0  0  0  0
  -27.3645  -32.9659   26.3024 C   0  0  0  0  0  0  0  0  0  0  0  0
  -30.1114  -12.7836   20.1189 C   0  0  0  0  0  0  0  0  0  0  0  0
  -27.9939  -31.7741   25.5880 C   0  0  0  0  0  0  0  0  0  0  0  0
  -28.7239  -12.1711   19.9144 C   0  0  0  0  0  0  0  0  0  0  0  0
  -30.0655  -13.9937   21.0503 C   0  0  0  0  0  0  0  0  0  0  0  0
  -27.7096  -14.4186   20.4685 C   0  0  0  0  0  0  0  0  0  0  0  0
  -28.3586  -32.1279   24.1412 C   0  0  1  0  0  0  0  0  0  0  0  0
  -25.4342  -31.1973   21.9017 C   0  0  1  0  0  0  0  0  0  0  0  0
  -27.6953  -13.2360   19.4861 C   0  0  2  0  0  0  0  0  0  0  0  0
  -18.0167  -30.0712   23.8293 C   0  0  0  0  0  0  0  0  0  0  0  0
  -24.2054  -29.9798   26.1876 C   0  0  0  0  0  0  0  0  0  0  0  0
  -21.7820  -29.4347   26.5011 C   0  0  0  0  0  0  0  0  0  0  0  0
  -22.4983  -31.8072   26.2162 C   0  0  0  0  0  0  0  0  0  0  0  0
  -19.4662  -30.1287   20.3119 C   0  0  0  0  0  0  0  0  0  0  0  0
  -22.5492  -30.2495   24.2254 C   0  0  1  0  0  0  0  0  0  0  0  0
  -19.0547  -30.3828   22.7624 C   0  0  2  0  0  0  0  0  0  0  0  0
  -22.7731  -30.3576   25.7602 C   0  0  0  0  0  0  0  0  0  0  0  0
  -25.9415  -11.6218   20.1185 N   0  0  0  0  0  0  0  0  0  0  0  0
  -26.8561  -23.3103   19.9119 N   0  0  0  0  0  0  0  0  0  0  0  0
  -26.3070  -12.6449   19.3274 N   0  0  0  0  0  0  0  0  0  0  0  0
  -24.3504  -30.4475   22.5401 N   0  0  0  0  0  0  0  0  0  0  0  0
  -29.0725  -14.9617   20.5796 N   0  0  0  0  0  0  0  0  0  0  0  0
  -25.5409  -14.0486   17.5800 N   0  0  0  0  0  0  0  0  0  0  0  0
  -22.0198  -11.3274   18.3502 N   0  0  0  0  0  0  0  0  0  0  0  0
  -28.4486  -17.1038   19.8147 N   0  0  0  0  0  0  0  0  0  0  0  0
  -27.1771  -32.1191   23.3055 N   0  0  0  0  0  0  0  0  0  0  0  0
  -21.2094  -30.6275   23.7890 N   0  0  0  0  0  0  0  0  0  0  0  0
  -18.5542  -29.8699   21.4557 N   0  3  0  0  0  0  0  0  0  0  0  0
  -28.8510  -23.3389   21.1039 O   0  0  0  0  0  0  0  0  0  0  0  0
  -22.7851  -13.0623   17.0605 O   0  0  0  0  0  0  0  0  0  0  0  0
  -27.1260  -29.8393   22.8338 O   0  0  0  0  0  0  0  0  0  0  0  0
  -23.5044  -32.3340   23.6179 O   0  0  0  0  0  0  0  0  0  0  0  0
  -20.6911  -28.6054   22.7790 O   0  0  0  0  0  0  0  0  0  0  0  0
  -30.6434  -16.6496   20.4135 O   0  0  0  0  0  0  0  0  0  0  0  0
  -21.7750   -7.2507   22.1391 O   0  0  0  0  0  0  0  0  0  0  0  0
  -25.6090  -25.2337   19.4931 O   0  0  0  0  0  0  0  0  0  1  0  0
  -18.9669   -3.8226   18.8579 F   0  0  0  0  0  0  0  0  0  0  0  0
  -26.2865  -18.5179   18.7657 F   0  0  0  0  0  0  0  0  0  0  0  0
  -22.3094   -4.5383   22.1321 F   0  0  0  0  0  0  0  0  0  0  0  0
  1  2  1  0  0  0  0
  1  6  2  0  0  0  0
  2  7  2  0  0  0  0
  3 10  2  0  0  0  0
  3 18  1  0  0  0  0
  4 11  1  0  0  0  0
  4 18  2  0  0  0  0
  5  9  2  0  0  0  0
  5 19  1  0  0  0  0
  6 21  1  0  0  0  0
  7 23  1  0  0  0  0
  8 12  2  0  0  0  0
  8 22  1  0  0  0  0
  9 25  1  0  0  0  0
 10 26  1  0  0  0  0
 11 26  2  0  0  0  0
 12 27  1  0  0  0  0
 13 14  2  0  0  0  0
 13 28  1  0  0  0  0
 14 29  1  0  0  0  0
 15 19  2  0  0  0  0
 15 30  1  0  0  0  0
 16 24  1  0  0  0  0
 16 27  2  0  0  0  0
 17 29  2  0  0  0  0
 17 31  1  0  0  0  0
 18 32  1  0  0  0  0
 19 35  1  0  0  0  0
 20 32  1  0  0  0  0
 20 33  2  0  0  0  0
 20 36  1  0  0  0  0
 21 23  2  0  0  0  0
 21 41  1  0  0  0  0
 22 24  2  0  0  0  0
 22 42  1  0  0  0  0
 23 50  1  0  0  0  0
 24 43  1  0  0  0  0
 25 30  2  0  0  0  0
 25 68  1  0  0  0  0
 26 78  1  0  0  0  0
 27 79  1  0  0  0  0
 28 31  2  0  0  0  0
 28 78  1  0  0  0  0
 29 80  1  0  0  0  0
 30 81  1  0  0  0  0
 31 82  1  0  0  0  0
 32 61  2  0  0  0  0
 33 63  1  0  0  0  0
 33 66  1  0  0  0  0
 34 62  2  0  0  0  0
 34 79  1  0  0  0  0
 35 62  1  0  0  0  0
 35 72  2  0  0  0  0
 36 67  1  0  0  0  0
 36 73  2  0  0  0  0
 37 51  1  0  0  0  0
 37 69  1  0  0  0  0
 37 74  2  0  0  0  0
 38 58  1  0  0  0  0
 38 64  1  0  0  0  0
 38 75  2  0  0  0  0
 39 59  1  0  0  0  0
 39 70  1  0  0  0  0
 39 76  2  0  0  0  0
 40 65  1  0  0  0  0
 40 68  1  0  0  0  0
 40 77  2  0  0  0  0
 41 44  1  0  0  0  0
 42 51  1  0  0  0  0
 43 64  1  0  0  0  0
 44 46  1  0  0  0  0
 45 47  1  0  0  0  0
 45 48  1  0  0  0  0
 46 50  1  0  0  0  0
 47 52  1  0  0  0  0
 48 65  1  0  0  0  0
 49 52  1  0  0  0  0
 49 65  1  0  0  0  0
 50 69  1  0  0  0  0
 51 64  1  0  0  0  0
 52 63  1  0  0  0  0
 53 59  1  0  0  0  0
 54 60  1  0  0  0  0
 55 60  1  0  0  0  0
 56 60  1  0  0  0  0
 57 71  1  0  0  0  0
 58 60  1  0  0  0  0
 58 70  1  0  0  0  0
 59 71  1  0  0  0  0
 61 63  1  0  0  0  0
M  CHG  1  71   1
M  ISO  4  34 101  40 100  68 100  79 101
M  END
> <Batch ID>
0083

> <Smiles>
CNC(C)C(=O)NC(C(=O)N1Cc2cc([101O:1][101CH:1]=NC(=O)c3ccc([100NH:0][100C:0](=O)N4CCCC(n5nc(-c6ccc(Oc7ccc(F)cc7F)cc6)c(C(N)=O)c5N)C4)c(F)c3)ccc2CC1C(=O)NC1CCCc2ccccc21)C(C)(C)C

> <Shape>
0.289

> <Color>
0.108

> <Negative vol penalty>
0.000

$$$$

  -OEChem-04052300093D

 85 94  0     1  0  0  0  0  0999 V2000
  -29.8867  -37.2586   23.0597 C   0  0  0  0  0  0  0  0  0  0  0  0
  -30.1169  -36.0585   22.3947 C   0  0  0  0  0  0  0  0  0  0  0  0
  -23.1587  -10.1786   21.1469 C   0  0  0  0  0  0  0  0  0  0  0  0
  -24.6927   -8.6630   22.2363 C   0  0  0  0  0  0  0  0  0  0  0  0
  -29.0119  -37.2963   24.1447 C   0  0  0  0  0  0  0  0  0  0  0  0
  -29.4731  -34.8952   22.8150 C   0  0  0  0  0  0  0  0  0  0  0  0
  -27.5084  -30.2936   19.2835 C   0  0  0  0  0  0  0  0  0  0  0  0
  -29.2050  -20.6165   20.3106 C   0  0  0  0  0  0  0  0  0  0  0  0
  -29.4105  -19.2437   20.4475 C   0  0  0  0  0  0  0  0  0  0  0  0
  -22.2634   -9.1280   20.9459 C   0  0  0  0  0  0  0  0  0  0  0  0
  -23.7974   -7.6124   22.0353 C   0  0  0  0  0  0  0  0  0  0  0  0
  -28.0587  -29.0519   18.9687 C   0  0  0  0  0  0  0  0  0  0  0  0
  -20.9528   -6.4609   23.4505 C   0  0  0  0  0  0  0  0  0  0  0  0
  -20.7162   -5.5992   24.5215 C   0  0  0  0  0  0  0  0  0  0  0  0
  -26.7426  -28.0328   20.7147 C   0  0  0  0  0  0  0  0  0  0  0  0
  -27.1535  -20.1895   19.1081 C   0  0  0  0  0  0  0  0  0  0  0  0
  -21.5226   -3.7411   23.2047 C   0  0  0  0  0  0  0  0  0  0  0  0
  -24.3734   -9.9460   21.7920 C   0  0  0  0  0  0  0  0  0  0  0  0
  -25.3625  -11.8933   23.1102 C   0  0  0  0  0  0  0  0  0  0  0  0
  -28.3497  -36.1348   24.5725 C   0  0  0  0  0  0  0  0  0  0  0  0
  -26.5777  -30.4163   20.3252 C   0  0  0  0  0  0  0  0  0  0  0  0
  -28.5897  -34.9172   23.9076 C   0  0  0  0  0  0  0  0  0  0  0  0
  -26.1801  -29.2768   21.0391 C   0  0  0  0  0  0  0  0  0  0  0  0
  -27.3591  -18.8167   19.2449 C   0  0  0  0  0  0  0  0  0  0  0  0
  -28.0765  -21.0894   19.6409 C   0  0  0  0  0  0  0  0  0  0  0  0
  -28.4876  -18.3438   19.9146 C   0  0  0  0  0  0  0  0  0  0  0  0
  -22.5828   -7.8449   21.3901 C   0  0  0  0  0  0  0  0  0  0  0  0
  -27.6780  -27.9217   19.6862 C   0  0  0  0  0  0  0  0  0  0  0  0
  -21.4742   -5.9627   22.2565 C   0  0  0  0  0  0  0  0  0  0  0  0
  -21.0012   -4.2393   24.3987 C   0  0  0  0  0  0  0  0  0  0  0  0
  -21.7592   -4.6028   22.1336 C   0  0  0  0  0  0  0  0  0  0  0  0
  -25.2988  -11.0307   21.9994 C   0  0  0  0  0  0  0  0  0  0  0  0
  -26.4042  -12.7423   22.8264 C   0  0  0  0  0  0  0  0  0  0  0  0
  -27.6098  -24.4060   19.2222 C   0  0  0  0  0  0  0  0  0  0  0  0
  -26.8886  -23.1687   18.9215 C   0  0  0  0  0  0  0  0  0  0  0  0
  -27.3659  -25.7093   18.9945 C   0  0  0  0  0  0  0  0  0  1  0  0
  -24.5525  -11.9242   24.2928 C   0  0  0  0  0  0  0  0  0  0  0  0
  -26.4991  -31.9821   23.0903 C   0  0  0  0  0  0  0  0  0  0  0  0
  -23.4479  -30.8846   23.1788 C   0  0  0  0  0  0  0  0  0  0  0  0
  -21.1765  -28.5535   22.1523 C   0  0  0  0  0  0  0  0  0  0  0  0
  -28.8548  -16.0801   18.9472 C   0  0  0  0  0  0  0  0  0  0  0  0
  -27.4494  -36.2154   25.7798 C   0  0  0  0  0  0  0  0  0  0  0  0
  -25.9733  -31.7584   20.6348 C   0  0  0  0  0  0  0  0  0  0  0  0
  -25.1693  -29.3516   22.1532 C   0  0  0  0  0  0  0  0  0  0  0  0
  -28.6986  -23.5817   19.8702 C   0  0  0  0  0  0  0  0  0  0  0  0
  -26.5197  -35.0138   25.9276 C   0  0  0  0  0  0  0  0  0  0  0  0
  -29.9319  -12.5621   19.2186 C   0  0  0  0  0  0  0  0  0  0  0  0
  -27.2918  -33.7136   25.7277 C   0  0  0  0  0  0  0  0  0  0  0  0
  -28.7902  -11.9159   20.0014 C   0  0  0  0  0  0  0  0  0  0  0  0
  -29.4483  -13.7425   18.3814 C   0  0  0  0  0  0  0  0  0  0  0  0
  -27.5733  -14.1299   19.9513 C   0  0  0  0  0  0  0  0  0  0  0  0
  -27.8912  -33.6390   24.3181 C   0  0  1  0  0  0  0  0  0  0  0  0
  -25.4196  -31.8515   22.0533 C   0  0  1  0  0  0  0  0  0  0  0  0
  -28.0364  -12.9641   20.8381 C   0  0  1  0  0  0  0  0  0  0  0  0
  -26.3532  -17.8754   18.6661 C   0  0  0  0  0  0  0  0  0  0  0  0
  -18.7698  -27.8959   22.4219 C   0  0  0  0  0  0  0  0  0  0  0  0
  -24.0724  -29.7391   25.9370 C   0  0  0  0  0  0  0  0  0  0  0  0
  -22.0173  -28.3232   25.7375 C   0  0  0  0  0  0  0  0  0  0  0  0
  -21.8212  -30.8100   25.7374 C   0  0  0  0  0  0  0  0  0  0  0  0
  -29.0513  -16.4125   21.4009 C   0  0  0  0  0  0  0  0  0  0  0  0
  -20.6330  -28.9180   19.2660 C   0  0  0  0  0  0  0  0  0  0  0  0
  -22.7737  -29.6417   23.7077 C   0  0  1  0  0  0  0  0  0  0  0  0
  -19.7698  -28.6932   21.5990 C   0  0  2  0  0  0  0  0  0  0  0  0
  -22.6917  -29.6271   25.2602 C   0  0  0  0  0  0  0  0  0  0  0  0
  -26.2261  -11.3066   21.0786 N   0  0  0  0  0  0  0  0  0  0  0  0
  -26.8823  -12.3521   21.6101 N   0  0  0  0  0  0  0  0  0  0  0  0
  -27.8726  -22.4434   19.5084 N   0  0  0  0  0  0  0  0  0  0  0  0
  -24.6117  -30.6873   22.4222 N   0  0  0  0  0  0  0  0  0  0  0  0
  -28.6959  -14.7012   19.1916 N   0  0  0  0  0  0  0  0  0  0  0  0
  -26.9486  -13.7771   23.5010 N   0  0  0  0  0  0  0  0  0  0  0  0
  -23.5252  -10.9799   24.4239 N   0  0  0  0  0  0  0  0  0  0  0  0
  -26.8716  -33.2865   23.3534 N   0  0  0  0  0  0  0  0  0  0  0  0
  -21.4788  -29.5643   23.0401 N   0  0  0  0  0  0  0  0  0  0  0  0
  -28.7178  -16.9267   20.0685 N   0  0  0  0  0  0  0  0  0  0  0  0
  -19.7158  -28.2051   20.1920 N   0  3  0  0  0  0  0  0  0  0  0  0
  -25.8459  -22.8949   18.3645 O   0  0  0  0  0  0  0  0  0  0  0  0
  -24.7238  -12.7748   25.1987 O   0  0  0  0  0  0  0  0  0  0  0  0
  -26.9589  -30.9742   23.6140 O   0  0  0  0  0  0  0  0  0  0  0  0
  -22.9559  -31.9894   23.4218 O   0  0  0  0  0  0  0  0  0  0  0  0
  -21.9304  -27.6372   21.8320 O   0  0  0  0  0  0  0  0  0  0  0  0
  -29.1271  -16.5162   17.8223 O   0  0  0  0  0  0  0  0  0  0  0  0
  -21.7093   -6.8196   21.1944 O   0  0  0  0  0  0  0  0  0  0  0  0
  -28.2140  -26.7086   19.3815 O   0  0  0  0  0  0  0  0  0  1  0  0
  -20.7754   -3.4122   25.4278 F   0  0  0  0  0  0  0  0  0  0  0  0
  -22.2614   -4.1185   20.9895 F   0  0  0  0  0  0  0  0  0  0  0  0
  1  2  1  0  0  0  0
  1  5  2  0  0  0  0
  2  6  2  0  0  0  0
  3 10  2  0  0  0  0
  3 18  1  0  0  0  0
  4 11  1  0  0  0  0
  4 18  2  0  0  0  0
  5 20  1  0  0  0  0
  6 22  1  0  0  0  0
  7 12  2  0  0  0  0
  7 21  1  0  0  0  0
  8  9  2  0  0  0  0
  8 25  1  0  0  0  0
  9 26  1  0  0  0  0
 10 27  1  0  0  0  0
 11 27  2  0  0  0  0
 12 28  1  0  0  0  0
 13 14  2  0  0  0  0
 13 29  1  0  0  0  0
 14 30  1  0  0  0  0
 15 23  1  0  0  0  0
 15 28  2  0  0  0  0
 16 24  1  0  0  0  0
 16 25  2  0  0  0  0
 17 30  2  0  0  0  0
 17 31  1  0  0  0  0
 18 32  1  0  0  0  0
 19 32  1  0  0  0  0
 19 33  2  0  0  0  0
 19 37  1  0  0  0  0
 20 22  2  0  0  0  0
 20 42  1  0  0  0  0
 21 23  2  0  0  0  0
 21 43  1  0  0  0  0
 22 52  1  0  0  0  0
 23 44  1  0  0  0  0
 24 26  2  0  0  0  0
 24 55  1  0  0  0  0
 25 67  1  0  0  0  0
 26 74  1  0  0  0  0
 27 82  1  0  0  0  0
 28 83  1  0  0  0  0
 29 31  2  0  0  0  0
 29 82  1  0  0  0  0
 30 84  1  0  0  0  0
 31 85  1  0  0  0  0
 32 65  2  0  0  0  0
 33 66  1  0  0  0  0
 33 70  1  0  0  0  0
 34 35  1  0  0  0  0
 34 36  2  0  0  0  0
 34 45  1  0  0  0  0
 35 67  1  0  0  0  0
 35 76  2  0  0  0  0
 36 83  1  0  0  0  0
 37 71  1  0  0  0  0
 37 77  2  0  0  0  0
 38 53  1  0  0  0  0
 38 72  1  0  0  0  0
 38 78  2  0  0  0  0
 39 62  1  0  0  0  0
 39 68  1  0  0  0  0
 39 79  2  0  0  0  0
 40 63  1  0  0  0  0
 40 73  1  0  0  0  0
 40 80  2  0  0  0  0
 41 69  1  0  0  0  0
 41 74  1  0  0  0  0
 41 81  2  0  0  0  0
 42 46  1  0  0  0  0
 43 53  1  0  0  0  0
 44 68  1  0  0  0  0
 45 67  1  0  0  0  0
 46 48  1  0  0  0  0
 47 49  1  0  0  0  0
 47 50  1  0  0  0  0
 48 52  1  0  0  0  0
 49 54  1  0  0  0  0
 50 69  1  0  0  0  0
 51 54  1  0  0  0  0
 51 69  1  0  0  0  0
 52 72  1  0  0  0  0
 53 68  1  0  0  0  0
 54 66  1  0  0  0  0
 56 63  1  0  0  0  0
 57 64  1  0  0  0  0
 58 64  1  0  0  0  0
 59 64  1  0  0  0  0
 60 74  1  0  0  0  0
 61 75  1  0  0  0  0
 62 64  1  0  0  0  0
 62 73  1  0  0  0  0
 63 75  1  0  0  0  0
 65 66  1  0  0  0  0
M  CHG  1  75   1
M  ISO  4  36 101  41 100  74 100  83 101
M  END
> <Batch ID>
0083

> <Smiles>
CNC(C)C(=O)NC(C(=O)N1Cc2cc([101O:1][101CH:1]=C3CN(c4ccc([100N:0](C)[100C:0](=O)N5CCCC(n6nc(-c7ccc(Oc8ccc(F)cc8F)cc7)c(C(N)=O)c6N)C5)c(C)c4)C3=O)ccc2CC1C(=O)NC1CCCc2ccccc21)C(C)(C)C

> <Shape>
0.329

> <Color>
0.124

> <Negative vol penalty>
0.000

$$$$

  -OEChem-04052300093D

 83 91  0     1  0  0  0  0  0999 V2000
  -21.3412  -30.5680   14.4984 C   0  0  0  0  0  0  0  0  0  0  0  0
  -22.5384  -30.0804   15.0125 C   0  0  0  0  0  0  0  0  0  0  0  0
  -23.9636   -9.6631   21.9471 C   0  0  0  0  0  0  0  0  0  0  0  0
  -24.6499  -11.0908   23.7714 C   0  0  0  0  0  0  0  0  0  0  0  0
  -31.0768  -19.9703   19.6383 C   0  0  0  0  0  0  0  0  0  0  0  0
  -28.7348  -20.4620   19.9702 C   0  0  0  0  0  0  0  0  0  0  0  0
  -20.7960  -31.7476   15.0035 C   0  0  0  0  0  0  0  0  0  0  0  0
  -23.1918  -30.7729   16.0314 C   0  0  0  0  0  0  0  0  0  0  0  0
  -24.8367  -27.7126   19.7156 C   0  0  0  0  0  0  0  0  0  0  0  0
  -30.7643  -18.6285   19.4205 C   0  0  0  0  0  0  0  0  0  0  0  0
  -28.4222  -19.1202   19.7523 C   0  0  0  0  0  0  0  0  0  0  0  0
  -23.5513   -8.6935   22.8611 C   0  0  0  0  0  0  0  0  0  0  0  0
  -24.2376  -10.1211   24.6854 C   0  0  0  0  0  0  0  0  0  0  0  0
  -26.0028  -26.9893   19.4693 C   0  0  0  0  0  0  0  0  0  0  0  0
  -20.8972   -8.1443   24.8827 C   0  0  0  0  0  0  0  0  0  0  0  0
  -19.6600   -7.5366   24.6692 C   0  0  0  0  0  0  0  0  0  0  0  0
  -27.2642  -28.5985   20.7493 C   0  0  0  0  0  0  0  0  0  0  0  0
  -20.7450   -5.3839   24.5091 C   0  0  0  0  0  0  0  0  0  0  0  0
  -24.5129  -10.8618   22.4023 C   0  0  0  0  0  0  0  0  0  0  0  0
  -30.0621  -20.8870   19.9132 C   0  0  0  0  0  0  0  0  0  0  0  0
  -24.1678  -12.9142   20.9271 C   0  0  0  0  0  0  0  0  0  0  0  0
  -21.4380  -32.4498   16.0356 C   0  0  0  0  0  0  0  0  0  0  0  0
  -24.8773  -28.8922   20.4728 C   0  0  0  0  0  0  0  0  0  0  0  0
  -22.6553  -31.9638   16.5498 C   0  0  0  0  0  0  0  0  0  0  0  0
  -26.0967  -29.3336   21.0060 C   0  0  0  0  0  0  0  0  0  0  0  0
  -29.4370  -18.2034   19.4775 C   0  0  0  0  0  0  0  0  0  0  0  0
  -23.6883   -8.9224   24.2302 C   0  0  0  0  0  0  0  0  0  0  0  0
  -27.2173  -27.4337   19.9838 C   0  0  0  0  0  0  0  0  0  0  0  0
  -22.0584   -7.3718   24.9094 C   0  0  0  0  0  0  0  0  0  0  0  0
  -19.5839   -6.1564   24.4824 C   0  0  0  0  0  0  0  0  0  0  0  0
  -21.9823   -5.9916   24.7226 C   0  0  0  0  0  0  0  0  0  0  0  0
  -24.9395  -11.8637   21.4587 C   0  0  0  0  0  0  0  0  0  0  0  0
  -25.0259  -13.5787   20.0854 C   0  0  0  0  0  0  0  0  0  0  0  0
  -30.3949  -22.3157   20.1453 C   0  0  0  0  0  0  0  0  0  0  0  0
  -22.7978  -13.2587   21.1724 C   0  0  0  0  0  0  0  0  0  0  0  0
  -24.2009  -31.9459   19.9060 C   0  0  0  0  0  0  0  0  0  0  0  0
  -24.7706  -32.2578   23.0841 C   0  0  0  0  0  0  0  0  0  0  0  0
  -29.4908  -24.6091   20.0106 C   0  0  0  0  0  0  0  0  0  0  0  0
  -26.3007  -31.0504   25.8854 C   0  0  0  0  0  0  0  0  0  0  0  0
  -30.0076  -15.8024   18.9715 C   0  0  0  0  0  0  0  0  0  0  0  0
  -20.8346  -33.7456   16.5167 C   0  0  0  0  0  0  0  0  0  0  0  0
  -23.6063  -29.6466   20.7519 C   0  0  0  0  0  0  0  0  0  0  0  0
  -26.1908  -30.5828   21.8421 C   0  0  0  0  0  0  0  0  0  0  0  0
  -21.3970  -34.2198   17.8543 C   0  0  0  0  0  0  0  0  0  0  0  0
  -29.6262  -12.3092   18.3980 C   0  0  0  0  0  0  0  0  0  0  0  0
  -22.9194  -34.1239   17.8575 C   0  0  0  0  0  0  0  0  0  0  0  0
  -28.3094  -11.9683   19.0994 C   0  0  0  0  0  0  0  0  0  0  0  0
  -30.4235  -13.3604   19.1681 C   0  0  0  0  0  0  0  0  0  0  0  0
  -28.3661  -14.2452   20.1946 C   0  0  0  0  0  0  0  0  0  0  0  0
  -23.3811  -32.6734   17.6722 C   0  0  1  0  0  0  0  0  0  0  0  0
  -23.8460  -31.1115   21.1041 C   0  0  1  0  0  0  0  0  0  0  0  0
  -27.4980  -13.2381   19.4227 C   0  0  2  0  0  0  0  0  0  0  0  0
  -26.6127  -31.5414   28.3265 C   0  0  0  0  0  0  0  0  0  0  0  0
  -26.7601  -34.4626   22.3838 C   0  0  0  0  0  0  0  0  0  0  0  0
  -27.7055  -34.2467   24.6920 C   0  0  0  0  0  0  0  0  0  0  0  0
  -25.3306  -34.9426   24.3789 C   0  0  0  0  0  0  0  0  0  0  0  0
  -25.0226  -28.5021   26.6802 C   0  0  0  0  0  0  0  0  0  0  0  0
  -28.2260  -25.3190   19.5757 C   0  0  0  0  0  0  0  0  0  1  0  0
  -25.9887  -32.5434   23.9289 C   0  0  1  0  0  0  0  0  0  0  0  0
  -25.7806  -30.8026   27.2899 C   0  0  2  0  0  0  0  0  0  0  0  0
  -26.4451  -34.0263   23.8286 C   0  0  0  0  0  0  0  0  0  0  0  0
  -26.1916  -11.8570   20.9935 N   0  0  0  0  0  0  0  0  0  0  0  0
  -26.2131  -12.9116   20.1607 N   0  0  0  0  0  0  0  0  0  0  0  0
  -24.9215  -31.2891   22.0818 N   0  0  0  0  0  0  0  0  0  0  0  0
  -29.5921  -14.5362   19.4349 N   0  0  0  0  0  0  0  0  0  0  0  0
  -24.8732  -14.6628   19.2954 N   0  0  0  0  0  0  0  0  0  0  0  0
  -22.0603  -12.4701   22.0660 N   0  0  0  0  0  0  0  0  0  0  0  0
  -29.1206  -16.8401   19.2559 N   0  0  0  0  0  0  0  0  0  0  0  0
  -29.3878  -23.2282   19.8356 N   0  0  0  0  0  0  0  0  0  0  0  0
  -23.2427  -31.9368   18.9103 N   0  0  0  0  0  0  0  0  0  0  0  0
  -25.6575  -32.1104   25.2821 N   0  0  0  0  0  0  0  0  0  0  0  0
  -25.8188  -29.3470   27.6072 N   0  3  0  0  0  0  0  0  0  0  0  0
  -31.4945  -22.6058   20.6087 O   0  0  0  0  0  0  0  0  0  0  0  0
  -22.2394  -14.2270   20.6031 O   0  0  0  0  0  0  0  0  0  0  0  0
  -25.2645  -32.5541   19.8869 O   0  0  0  0  0  0  0  0  0  0  0  0
  -23.7217  -32.8666   23.3099 O   0  0  0  0  0  0  0  0  0  0  0  0
  -30.4679  -25.2051   20.4553 O   0  0  0  0  0  0  0  0  0  0  0  0
  -27.1913  -30.3738   25.3759 O   0  0  0  0  0  0  0  0  0  0  0  0
  -31.0589  -15.9506   18.3431 O   0  0  0  0  0  0  0  0  0  0  0  0
  -23.2858   -7.9765   25.1223 O   0  0  0  0  0  0  0  0  0  0  0  0
  -28.3571  -26.7300   19.7443 O   0  0  0  0  0  0  0  0  0  1  0  0
  -18.3956   -5.5728   24.2788 F   0  0  0  0  0  0  0  0  0  0  0  0
  -23.0942   -5.2441   24.7483 F   0  0  0  0  0  0  0  0  0  0  0  0
  1  2  1  0  0  0  0
  1  7  2  0  0  0  0
  2  8  2  0  0  0  0
  3 12  2  0  0  0  0
  3 19  1  0  0  0  0
  4 13  1  0  0  0  0
  4 19  2  0  0  0  0
  5 10  2  0  0  0  0
  5 20  1  0  0  0  0
  6 11  1  0  0  0  0
  6 20  2  0  0  0  0
  7 22  1  0  0  0  0
  8 24  1  0  0  0  0
  9 14  2  0  0  0  0
  9 23  1  0  0  0  0
 10 26  1  0  0  0  0
 11 26  2  0  0  0  0
 12 27  1  0  0  0  0
 13 27  2  0  0  0  0
 14 28  1  0  0  0  0
 15 16  2  0  0  0  0
 15 29  1  0  0  0  0
 16 30  1  0  0  0  0
 17 25  1  0  0  0  0
 17 28  2  0  0  0  0
 18 30  2  0  0  0  0
 18 31  1  0  0  0  0
 19 32  1  0  0  0  0
 20 34  1  0  0  0  0
 21 32  1  0  0  0  0
 21 33  2  0  0  0  0
 21 35  1  0  0  0  0
 22 24  2  0  0  0  0
 22 41  1  0  0  0  0
 23 25  2  0  0  0  0
 23 42  1  0  0  0  0
 24 50  1  0  0  0  0
 25 43  1  0  0  0  0
 26 68  1  0  0  0  0
 27 80  1  0  0  0  0
 28 81  1  0  0  0  0
 29 31  2  0  0  0  0
 29 80  1  0  0  0  0
 30 82  1  0  0  0  0
 31 83  1  0  0  0  0
 32 62  2  0  0  0  0
 33 63  1  0  0  0  0
 33 66  1  0  0  0  0
 34 69  1  0  0  0  0
 34 73  2  0  0  0  0
 35 67  1  0  0  0  0
 35 74  2  0  0  0  0
 36 51  1  0  0  0  0
 36 70  1  0  0  0  0
 36 75  2  0  0  0  0
 37 59  1  0  0  0  0
 37 64  1  0  0  0  0
 37 76  2  0  0  0  0
 38 58  1  0  0  0  0
 38 69  1  0  0  0  0
 38 77  2  0  0  0  0
 39 60  1  0  0  0  0
 39 71  1  0  0  0  0
 39 78  2  0  0  0  0
 40 65  1  0  0  0  0
 40 68  1  0  0  0  0
 40 79  2  0  0  0  0
 41 44  1  0  0  0  0
 42 51  1  0  0  0  0
 43 64  1  0  0  0  0
 44 46  1  0  0  0  0
 45 47  1  0  0  0  0
 45 48  1  0  0  0  0
 46 50  1  0  0  0  0
 47 52  1  0  0  0  0
 48 65  1  0  0  0  0
 49 52  1  0  0  0  0
 49 65  1  0  0  0  0
 50 70  1  0  0  0  0
 51 64  1  0  0  0  0
 52 63  1  0  0  0  0
 53 60  1  0  0  0  0
 54 61  1  0  0  0  0
 55 61  1  0  0  0  0
 56 61  1  0  0  0  0
 57 72  1  0  0  0  0
 58 81  1  0  0  0  0
 59 61  1  0  0  0  0
 59 71  1  0  0  0  0
 60 72  1  0  0  0  0
 62 63  1  0  0  0  0
M  CHG  1  72   1
M  ISO  4  40 100  58 101  68 100  81 101
M  END
> <Batch ID>
0083

> <Smiles>
CNC(C)C(=O)NC(C(=O)N1Cc2cc([101O:1][101CH2:1]C(=O)NC(=O)c3ccc([100NH:0][100C:0](=O)N4CCCC(n5nc(-c6ccc(Oc7ccc(F)cc7F)cc6)c(C(N)=O)c5N)C4)cc3)ccc2CC1C(=O)NC1CCCc2ccccc21)C(C)(C)C

> <Shape>
0.330

> <Color>
0.168

> <Negative vol penalty>
0.000

$$$$

  -OEChem-04052300093D

 86 95  0     1  0  0  0  0  0999 V2000
  -27.7180  -37.2321   22.7103 C   0  0  0  0  0  0  0  0  0  0  0  0
  -28.2204  -36.0202   22.2471 C   0  0  0  0  0  0  0  0  0  0  0  0
  -22.4832  -12.8755   19.9272 C   0  0  0  0  0  0  0  0  0  0  0  0
  -22.9061  -11.6670   21.9761 C   0  0  0  0  0  0  0  0  0  0  0  0
  -31.4059  -19.4146   19.3314 C   0  0  0  0  0  0  0  0  0  0  0  0
  -26.6420  -37.2461   23.5968 C   0  0  0  0  0  0  0  0  0  0  0  0
  -27.6477  -34.8216   22.6711 C   0  0  0  0  0  0  0  0  0  0  0  0
  -27.0077  -29.6861   19.3966 C   0  0  0  0  0  0  0  0  0  0  0  0
  -30.8248  -20.6686   19.5195 C   0  0  0  0  0  0  0  0  0  0  0  0
  -21.2479  -12.2390   19.8067 C   0  0  0  0  0  0  0  0  0  0  0  0
  -21.6707  -11.0304   21.8555 C   0  0  0  0  0  0  0  0  0  0  0  0
  -27.7546  -28.5101   19.3406 C   0  0  0  0  0  0  0  0  0  0  0  0
  -20.3505   -8.4678   20.0891 C   0  0  0  0  0  0  0  0  0  0  0  0
  -20.3054   -7.0922   20.3154 C   0  0  0  0  0  0  0  0  0  0  0  0
  -26.2408  -27.4810   20.9118 C   0  0  0  0  0  0  0  0  0  0  0  0
  -28.7333  -19.8303   18.6479 C   0  0  0  0  0  0  0  0  0  0  0  0
  -18.7415   -7.4408   22.1236 C   0  0  0  0  0  0  0  0  0  0  0  0
  -23.3123  -12.5895   21.0119 C   0  0  0  0  0  0  0  0  0  0  0  0
  -30.6507  -18.3684   18.8014 C   0  0  0  0  0  0  0  0  0  0  0  0
  -24.8594  -14.4597   21.7969 C   0  0  0  0  0  0  0  0  0  0  0  0
  -26.0496  -36.0474   24.0244 C   0  0  0  0  0  0  0  0  0  0  0  0
  -25.8761  -29.7720   20.2204 C   0  0  0  0  0  0  0  0  0  0  0  0
  -26.5636  -34.8196   23.5653 C   0  0  0  0  0  0  0  0  0  0  0  0
  -25.4798  -28.6583   20.9745 C   0  0  0  0  0  0  0  0  0  0  0  0
  -29.4885  -20.8765   19.1778 C   0  0  0  0  0  0  0  0  0  0  0  0
  -20.8417  -11.3165   20.7708 C   0  0  0  0  0  0  0  0  0  0  0  0
  -27.3729  -27.4083   20.1005 C   0  0  0  0  0  0  0  0  0  0  0  0
  -19.5911   -9.3300   20.8801 C   0  0  0  0  0  0  0  0  0  0  0  0
  -19.5009   -6.5787   21.3326 C   0  0  0  0  0  0  0  0  0  0  0  0
  -29.3144  -18.5762   18.4597 C   0  0  0  0  0  0  0  0  0  0  0  0
  -18.7866   -8.8165   21.8973 C   0  0  0  0  0  0  0  0  0  0  0  0
  -24.5887  -13.2462   21.1367 C   0  0  0  0  0  0  0  0  0  0  0  0
  -26.2097  -14.6476   21.6300 C   0  0  0  0  0  0  0  0  0  0  0  0
  -28.0939  -23.9293   19.5361 C   0  0  0  0  0  0  0  0  0  0  0  0
  -27.6686  -22.5903   19.1264 C   0  0  0  0  0  0  0  0  0  0  0  0
  -27.4744  -25.1200   19.6272 C   0  0  0  0  0  0  0  0  0  1  0  0
  -31.2746  -17.0353   18.6002 C   0  0  0  0  0  0  0  0  0  0  0  0
  -23.9698  -15.3385   22.4983 C   0  0  0  0  0  0  0  0  0  0  0  0
  -25.0488  -31.5581   22.7161 C   0  0  0  0  0  0  0  0  0  0  0  0
  -22.1967  -30.0566   22.3508 C   0  0  0  0  0  0  0  0  0  0  0  0
  -20.4770  -27.3461   21.1923 C   0  0  0  0  0  0  0  0  0  0  0  0
  -30.7872  -14.6109   18.5087 C   0  0  0  0  0  0  0  0  0  0  0  0
  -24.9188  -36.1113   25.0203 C   0  0  0  0  0  0  0  0  0  0  0  0
  -25.0658  -31.0389   20.2491 C   0  0  0  0  0  0  0  0  0  0  0  0
  -24.2614  -28.6925   21.8592 C   0  0  0  0  0  0  0  0  0  0  0  0
  -29.4790  -23.3811   19.7926 C   0  0  0  0  0  0  0  0  0  0  0  0
  -24.1284  -34.8099   25.1287 C   0  0  0  0  0  0  0  0  0  0  0  0
  -29.7838  -11.5125   19.8835 C   0  0  0  0  0  0  0  0  0  0  0  0
  -25.0744  -33.6179   25.2338 C   0  0  0  0  0  0  0  0  0  0  0  0
  -28.3669  -11.7863   20.3950 C   0  0  0  0  0  0  0  0  0  0  0  0
  -30.0634  -12.2407   18.5695 C   0  0  0  0  0  0  0  0  0  0  0  0
  -28.3745  -13.9525   19.0943 C   0  0  0  0  0  0  0  0  0  0  0  0
  -25.9534  -33.4993   23.9829 C   0  0  1  0  0  0  0  0  0  0  0  0
  -24.2272  -31.1831   21.5153 C   0  0  1  0  0  0  0  0  0  0  0  0
  -28.0680  -13.2979   20.4511 C   0  0  1  0  0  0  0  0  0  0  0  0
  -18.1618  -26.3851   21.0744 C   0  0  0  0  0  0  0  0  0  0  0  0
  -22.3771  -29.2676   25.2927 C   0  0  0  0  0  0  0  0  0  0  0  0
  -20.5896  -27.5654   24.8737 C   0  0  0  0  0  0  0  0  0  0  0  0
  -20.1028  -29.9896   24.5438 C   0  0  0  0  0  0  0  0  0  0  0  0
  -20.4946  -27.3647   18.2329 C   0  0  0  0  0  0  0  0  0  0  0  0
  -21.5818  -28.7853   22.8842 C   0  0  1  0  0  0  0  0  0  0  0  0
  -19.2064  -27.2359   20.3689 C   0  0  2  0  0  0  0  0  0  0  0  0
  -21.1869  -28.9016   24.3835 C   0  0  0  0  0  0  0  0  0  0  0  0
  -25.6794  -12.7017   20.5909 N   0  0  0  0  0  0  0  0  0  0  0  0
  -26.6486  -13.5771   20.9078 N   0  0  0  0  0  0  0  0  0  0  0  0
  -28.9156  -22.1132   19.3634 N   0  0  0  0  0  0  0  0  0  0  0  0
  -23.5055  -29.9559   21.8582 N   0  0  0  0  0  0  0  0  0  0  0  0
  -29.7647  -13.6671   18.7088 N   0  0  0  0  0  0  0  0  0  0  0  0
  -27.0525  -15.6226   22.0320 N   0  0  0  0  0  0  0  0  0  0  0  0
  -22.6132  -14.9946   22.5745 N   0  0  0  0  0  0  0  0  0  0  0  0
  -30.4116  -15.9443   18.7068 N   0  0  0  0  0  0  0  0  0  0  0  0
  -25.2016  -32.9204   22.8900 N   0  0  0  0  0  0  0  0  0  0  0  0
  -20.4690  -28.4663   21.9963 N   0  0  0  0  0  0  0  0  0  0  0  0
  -19.4993  -26.6182   19.0447 N   0  3  0  0  0  0  0  0  0  0  0  0
  -26.6325  -22.1024   18.7251 O   0  0  0  0  0  0  0  0  0  0  0  0
  -32.4685  -16.9699   18.3206 O   0  0  0  0  0  0  0  0  0  0  0  0
  -24.3632  -16.4057   23.0274 O   0  0  0  0  0  0  0  0  0  0  0  0
  -25.5087  -30.6769   23.4327 O   0  0  0  0  0  0  0  0  0  0  0  0
  -21.5374  -31.0991   22.3640 O   0  0  0  0  0  0  0  0  0  0  0  0
  -21.3840  -26.5190   21.1314 O   0  0  0  0  0  0  0  0  0  0  0  0
  -31.9440  -14.2922   18.2163 O   0  0  0  0  0  0  0  0  0  0  0  0
  -19.6363  -10.6954   20.6537 O   0  0  0  0  0  0  0  0  0  0  0  0
  -28.1005  -26.2595   20.0482 O   0  0  0  0  0  0  0  0  0  1  0  0
  -19.4566   -5.2575   21.5488 F   0  0  0  0  0  0  0  0  0  0  0  0
  -28.5791  -17.5781   17.9492 F   0  0  0  0  0  0  0  0  0  0  0  0
  -18.0539   -9.6397   22.6597 F   0  0  0  0  0  0  0  0  0  0  0  0
  1  2  1  0  0  0  0
  1  6  2  0  0  0  0
  2  7  2  0  0  0  0
  3 10  2  0  0  0  0
  3 18  1  0  0  0  0
  4 11  1  0  0  0  0
  4 18  2  0  0  0  0
  5  9  2  0  0  0  0
  5 19  1  0  0  0  0
  6 21  1  0  0  0  0
  7 23  1  0  0  0  0
  8 12  2  0  0  0  0
  8 22  1  0  0  0  0
  9 25  1  0  0  0  0
 10 26  1  0  0  0  0
 11 26  2  0  0  0  0
 12 27  1  0  0  0  0
 13 14  2  0  0  0  0
 13 28  1  0  0  0  0
 14 29  1  0  0  0  0
 15 24  1  0  0  0  0
 15 27  2  0  0  0  0
 16 25  2  0  0  0  0
 16 30  1  0  0  0  0
 17 29  2  0  0  0  0
 17 31  1  0  0  0  0
 18 32  1  0  0  0  0
 19 30  2  0  0  0  0
 19 37  1  0  0  0  0
 20 32  1  0  0  0  0
 20 33  2  0  0  0  0
 20 38  1  0  0  0  0
 21 23  2  0  0  0  0
 21 43  1  0  0  0  0
 22 24  2  0  0  0  0
 22 44  1  0  0  0  0
 23 53  1  0  0  0  0
 24 45  1  0  0  0  0
 25 66  1  0  0  0  0
 26 82  1  0  0  0  0
 27 83  1  0  0  0  0
 28 31  2  0  0  0  0
 28 82  1  0  0  0  0
 29 84  1  0  0  0  0
 30 85  1  0  0  0  0
 31 86  1  0  0  0  0
 32 64  2  0  0  0  0
 33 65  1  0  0  0  0
 33 69  1  0  0  0  0
 34 35  1  0  0  0  0
 34 36  2  0  0  0  0
 34 46  1  0  0  0  0
 35 66  1  0  0  0  0
 35 75  2  0  0  0  0
 36 83  1  0  0  0  0
 37 71  1  0  0  0  0
 37 76  2  0  0  0  0
 38 70  1  0  0  0  0
 38 77  2  0  0  0  0
 39 54  1  0  0  0  0
 39 72  1  0  0  0  0
 39 78  2  0  0  0  0
 40 61  1  0  0  0  0
 40 67  1  0  0  0  0
 40 79  2  0  0  0  0
 41 62  1  0  0  0  0
 41 73  1  0  0  0  0
 41 80  2  0  0  0  0
 42 68  1  0  0  0  0
 42 71  1  0  0  0  0
 42 81  2  0  0  0  0
 43 47  1  0  0  0  0
 44 54  1  0  0  0  0
 45 67  1  0  0  0  0
 46 66  1  0  0  0  0
 47 49  1  0  0  0  0
 48 50  1  0  0  0  0
 48 51  1  0  0  0  0
 49 53  1  0  0  0  0
 50 55  1  0  0  0  0
 51 68  1  0  0  0  0
 52 55  1  0  0  0  0
 52 68  1  0  0  0  0
 53 72  1  0  0  0  0
 54 67  1  0  0  0  0
 55 65  1  0  0  0  0
 56 62  1  0  0  0  0
 57 63  1  0  0  0  0
 58 63  1  0  0  0  0
 59 63  1  0  0  0  0
 60 74  1  0  0  0  0
 61 63  1  0  0  0  0
 61 73  1  0  0  0  0
 62 74  1  0  0  0  0
 64 65  1  0  0  0  0
M  CHG  1  74   1
M  ISO  4  36 101  42 100  71 100  83 101
M  END
> <Batch ID>
0083

> <Smiles>
CNC(C)C(=O)NC(C(=O)N1Cc2cc([101O:1][101CH:1]=C3CN(c4ccc(C(=O)[100NH:0][100C:0](=O)N5CCCC(n6nc(-c7ccc(Oc8ccc(F)cc8F)cc7)c(C(N)=O)c6N)C5)c(F)c4)C3=O)ccc2CC1C(=O)NC1CCCc2ccccc21)C(C)(C)C

> <Shape>
0.314

> <Color>
0.077

> <Negative vol penalty>
0.000

$$$$

  -OEChem-04052300093D

 85 94  0     1  0  0  0  0  0999 V2000
  -29.1274  -35.4435   22.5744 C   0  0  0  0  0  0  0  0  0  0  0  0
  -29.1305  -34.0534   22.5180 C   0  0  0  0  0  0  0  0  0  0  0  0
  -22.5906  -12.8389   18.5324 C   0  0  0  0  0  0  0  0  0  0  0  0
  -22.4499  -11.5765   20.5876 C   0  0  0  0  0  0  0  0  0  0  0  0
  -31.3458  -19.3830   20.4804 C   0  0  0  0  0  0  0  0  0  0  0  0
  -29.5100  -18.5304   19.1615 C   0  0  0  0  0  0  0  0  0  0  0  0
  -27.9760  -36.1213   22.9729 C   0  0  0  0  0  0  0  0  0  0  0  0
  -27.9824  -33.3403   22.8613 C   0  0  0  0  0  0  0  0  0  0  0  0
  -26.9553  -29.6180   19.5849 C   0  0  0  0  0  0  0  0  0  0  0  0
  -30.7260  -20.6313   20.5363 C   0  0  0  0  0  0  0  0  0  0  0  0
  -28.8901  -19.7788   19.2174 C   0  0  0  0  0  0  0  0  0  0  0  0
  -21.4361  -12.2097   18.0668 C   0  0  0  0  0  0  0  0  0  0  0  0
  -21.2953  -10.9473   20.1220 C   0  0  0  0  0  0  0  0  0  0  0  0
  -27.7060  -28.4483   19.6944 C   0  0  0  0  0  0  0  0  0  0  0  0
  -18.5146   -8.7454   19.3287 C   0  0  0  0  0  0  0  0  0  0  0  0
  -18.4136   -7.3651   19.5021 C   0  0  0  0  0  0  0  0  0  0  0  0
  -25.8883  -27.4005   20.8850 C   0  0  0  0  0  0  0  0  0  0  0  0
  -20.4082   -7.0524   18.1751 C   0  0  0  0  0  0  0  0  0  0  0  0
  -23.0976  -12.5222   19.7928 C   0  0  0  0  0  0  0  0  0  0  0  0
  -30.7378  -18.3326   19.7930 C   0  0  0  0  0  0  0  0  0  0  0  0
  -24.3684  -14.3666   21.0138 C   0  0  0  0  0  0  0  0  0  0  0  0
  -26.8103  -35.4165   23.3120 C   0  0  0  0  0  0  0  0  0  0  0  0
  -25.6676  -29.6915   20.1351 C   0  0  0  0  0  0  0  0  0  0  0  0
  -26.8148  -34.0092   23.2661 C   0  0  0  0  0  0  0  0  0  0  0  0
  -25.1224  -28.5715   20.7789 C   0  0  0  0  0  0  0  0  0  0  0  0
  -29.4982  -20.8292   19.9048 C   0  0  0  0  0  0  0  0  0  0  0  0
  -20.7884  -11.2639   18.8616 C   0  0  0  0  0  0  0  0  0  0  0  0
  -27.1736  -27.3402   20.3471 C   0  0  0  0  0  0  0  0  0  0  0  0
  -19.5624   -9.2793   18.5784 C   0  0  0  0  0  0  0  0  0  0  0  0
  -19.3604   -6.5186   18.9254 C   0  0  0  0  0  0  0  0  0  0  0  0
  -20.5092   -8.4328   18.0016 C   0  0  0  0  0  0  0  0  0  0  0  0
  -24.2905  -13.1714   20.2741 C   0  0  0  0  0  0  0  0  0  0  0  0
  -25.7129  -14.5544   21.2222 C   0  0  0  0  0  0  0  0  0  0  0  0
  -28.0325  -23.8694   19.9497 C   0  0  0  0  0  0  0  0  0  0  0  0
  -27.7210  -22.5289   19.4521 C   0  0  0  0  0  0  0  0  0  0  0  0
  -27.3981  -25.0548   19.9029 C   0  0  0  0  0  0  0  0  0  1  0  0
  -31.3980  -17.0031   19.7333 C   0  0  0  0  0  0  0  0  0  0  0  0
  -23.3192  -15.2299   21.4717 C   0  0  0  0  0  0  0  0  0  0  0  0
  -24.2881  -31.4604   22.3871 C   0  0  0  0  0  0  0  0  0  0  0  0
  -21.6028  -29.9381   21.3900 C   0  0  0  0  0  0  0  0  0  0  0  0
  -20.2089  -27.2191   19.8700 C   0  0  0  0  0  0  0  0  0  0  0  0
  -30.9628  -14.5835   19.4513 C   0  0  0  0  0  0  0  0  0  0  0  0
  -25.6046  -36.1909   23.7823 C   0  0  0  0  0  0  0  0  0  0  0  0
  -24.8604  -30.9518   19.9851 C   0  0  0  0  0  0  0  0  0  0  0  0
  -23.7368  -28.5924   21.3690 C   0  0  0  0  0  0  0  0  0  0  0  0
  -29.3299  -23.3310   20.5079 C   0  0  0  0  0  0  0  0  0  0  0  0
  -24.3140  -35.3758   23.7695 C   0  0  0  0  0  0  0  0  0  0  0  0
  -29.6377  -11.4539   20.4244 C   0  0  0  0  0  0  0  0  0  0  0  0
  -24.5422  -34.0048   24.3980 C   0  0  0  0  0  0  0  0  0  0  0  0
  -28.1343  -11.7190   20.5416 C   0  0  0  0  0  0  0  0  0  0  0  0
  -30.2585  -12.2148   19.2537 C   0  0  0  0  0  0  0  0  0  0  0  0
  -28.4841  -13.9180   19.3474 C   0  0  0  0  0  0  0  0  0  0  0  0
  -25.5814  -33.2013   23.6068 C   0  0  1  0  0  0  0  0  0  0  0  0
  -23.7588  -31.0840   21.0322 C   0  0  1  0  0  0  0  0  0  0  0  0
  -27.8255  -13.2296   20.5539 C   0  0  1  0  0  0  0  0  0  0  0  0
  -17.9870  -26.2405   19.2353 C   0  0  0  0  0  0  0  0  0  0  0  0
  -21.1280  -29.1379   24.2959 C   0  0  0  0  0  0  0  0  0  0  0  0
  -19.4941  -27.4235   23.4839 C   0  0  0  0  0  0  0  0  0  0  0  0
  -19.0725  -29.8452   23.0594 C   0  0  0  0  0  0  0  0  0  0  0  0
  -20.8873  -27.2505   16.9894 C   0  0  0  0  0  0  0  0  0  0  0  0
  -20.8952  -28.6597   21.7694 C   0  0  1  0  0  0  0  0  0  0  0  0
  -19.1555  -27.1024   18.7832 C   0  0  2  0  0  0  0  0  0  0  0  0
  -20.1743  -28.7665   23.1429 C   0  0  0  0  0  0  0  0  0  0  0  0
  -25.4900  -12.6376   20.0289 N   0  0  0  0  0  0  0  0  0  0  0  0
  -26.3344  -13.5015   20.6179 N   0  0  0  0  0  0  0  0  0  0  0  0
  -28.8876  -22.0606   19.9606 N   0  0  0  0  0  0  0  0  0  0  0  0
  -22.9895  -29.8498   21.2021 N   0  0  0  0  0  0  0  0  0  0  0  0
  -29.9278  -13.6381   19.3439 N   0  0  0  0  0  0  0  0  0  0  0  0
  -26.4123  -15.5159   21.8616 N   0  0  0  0  0  0  0  0  0  0  0  0
  -21.9937  -14.8885   21.1703 N   0  0  0  0  0  0  0  0  0  0  0  0
  -30.5425  -15.9125   19.5750 N   0  0  0  0  0  0  0  0  0  0  0  0
  -24.9883  -32.6516   22.4066 N   0  0  0  0  0  0  0  0  0  0  0  0
  -20.0119  -28.3357   20.6545 N   0  0  0  0  0  0  0  0  0  0  0  0
  -19.7422  -26.4927   17.5564 N   0  3  0  0  0  0  0  0  0  0  0  0
  -26.8051  -22.0346   18.8283 O   0  0  0  0  0  0  0  0  0  0  0  0
  -32.6234  -16.9411   19.7845 O   0  0  0  0  0  0  0  0  0  0  0  0
  -23.5512  -16.2818   22.1145 O   0  0  0  0  0  0  0  0  0  0  0  0
  -24.0756  -30.7254   23.3443 O   0  0  0  0  0  0  0  0  0  0  0  0
  -20.9483  -30.9753   21.2580 O   0  0  0  0  0  0  0  0  0  0  0  0
  -21.1137  -26.3994   20.0113 O   0  0  0  0  0  0  0  0  0  0  0  0
  -32.1568  -14.2687   19.4738 O   0  0  0  0  0  0  0  0  0  0  0  0
  -19.6617  -10.6499   18.4077 O   0  0  0  0  0  0  0  0  0  0  0  0
  -27.9044  -26.1974   20.4559 O   0  0  0  0  0  0  0  0  0  1  0  0
  -19.2642   -5.1932   19.0933 F   0  0  0  0  0  0  0  0  0  0  0  0
  -21.5186   -8.9399   17.2807 F   0  0  0  0  0  0  0  0  0  0  0  0
  1  2  1  0  0  0  0
  1  7  2  0  0  0  0
  2  8  2  0  0  0  0
  3 12  2  0  0  0  0
  3 19  1  0  0  0  0
  4 13  1  0  0  0  0
  4 19  2  0  0  0  0
  5 10  2  0  0  0  0
  5 20  1  0  0  0  0
  6 11  1  0  0  0  0
  6 20  2  0  0  0  0
  7 22  1  0  0  0  0
  8 24  1  0  0  0  0
  9 14  2  0  0  0  0
  9 23  1  0  0  0  0
 10 26  1  0  0  0  0
 11 26  2  0  0  0  0
 12 27  1  0  0  0  0
 13 27  2  0  0  0  0
 14 28  1  0  0  0  0
 15 16  2  0  0  0  0
 15 29  1  0  0  0  0
 16 30  1  0  0  0  0
 17 25  1  0  0  0  0
 17 28  2  0  0  0  0
 18 30  2  0  0  0  0
 18 31  1  0  0  0  0
 19 32  1  0  0  0  0
 20 37  1  0  0  0  0
 21 32  1  0  0  0  0
 21 33  2  0  0  0  0
 21 38  1  0  0  0  0
 22 24  2  0  0  0  0
 22 43  1  0  0  0  0
 23 25  2  0  0  0  0
 23 44  1  0  0  0  0
 24 53  1  0  0  0  0
 25 45  1  0  0  0  0
 26 66  1  0  0  0  0
 27 82  1  0  0  0  0
 28 83  1  0  0  0  0
 29 31  2  0  0  0  0
 29 82  1  0  0  0  0
 30 84  1  0  0  0  0
 31 85  1  0  0  0  0
 32 64  2  0  0  0  0
 33 65  1  0  0  0  0
 33 69  1  0  0  0  0
 34 35  1  0  0  0  0
 34 36  2  0  0  0  0
 34 46  1  0  0  0  0
 35 66  1  0  0  0  0
 35 75  2  0  0  0  0
 36 83  1  0  0  0  0
 37 71  1  0  0  0  0
 37 76  2  0  0  0  0
 38 70  1  0  0  0  0
 38 77  2  0  0  0  0
 39 54  1  0  0  0  0
 39 72  1  0  0  0  0
 39 78  2  0  0  0  0
 40 61  1  0  0  0  0
 40 67  1  0  0  0  0
 40 79  2  0  0  0  0
 41 62  1  0  0  0  0
 41 73  1  0  0  0  0
 41 80  2  0  0  0  0
 42 68  1  0  0  0  0
 42 71  1  0  0  0  0
 42 81  2  0  0  0  0
 43 47  1  0  0  0  0
 44 54  1  0  0  0  0
 45 67  1  0  0  0  0
 46 66  1  0  0  0  0
 47 49  1  0  0  0  0
 48 50  1  0  0  0  0
 48 51  1  0  0  0  0
 49 53  1  0  0  0  0
 50 55  1  0  0  0  0
 51 68  1  0  0  0  0
 52 55  1  0  0  0  0
 52 68  1  0  0  0  0
 53 72  1  0  0  0  0
 54 67  1  0  0  0  0
 55 65  1  0  0  0  0
 56 62  1  0  0  0  0
 57 63  1  0  0  0  0
 58 63  1  0  0  0  0
 59 63  1  0  0  0  0
 60 74  1  0  0  0  0
 61 63  1  0  0  0  0
 61 73  1  0  0  0  0
 62 74  1  0  0  0  0
 64 65  1  0  0  0  0
M  CHG  1  74   1
M  ISO  4  36 101  42 100  71 100  83 101
M  END
> <Batch ID>
0083

> <Smiles>
CNC(C)C(=O)NC(C(=O)N1Cc2cc([101O:1][101CH:1]=C3CN(c4ccc(C(=O)[100NH:0][100C:0](=O)N5CCCC(n6nc(-c7ccc(Oc8ccc(F)cc8F)cc7)c(C(N)=O)c6N)C5)cc4)C3=O)ccc2CC1C(=O)NC1CCCc2ccccc21)C(C)(C)C

> <Shape>
0.299

> <Color>
0.081

> <Negative vol penalty>
0.000

$$$$

  -OEChem-04052300093D

 85 94  0     1  0  0  0  0  0999 V2000
  -26.8522  -36.3739   21.5521 C   0  0  0  0  0  0  0  0  0  0  0  0
  -27.6733  -35.2510   21.5322 C   0  0  0  0  0  0  0  0  0  0  0  0
  -23.5756   -9.7808   21.9248 C   0  0  0  0  0  0  0  0  0  0  0  0
  -24.4152  -11.1015   23.7654 C   0  0  0  0  0  0  0  0  0  0  0  0
  -25.5077  -36.2468   21.8990 C   0  0  0  0  0  0  0  0  0  0  0  0
  -27.1507  -34.0006   21.8603 C   0  0  0  0  0  0  0  0  0  0  0  0
  -28.7406  -28.5989   19.4519 C   0  0  0  0  0  0  0  0  0  0  0  0
  -31.8003  -19.2535   19.7356 C   0  0  0  0  0  0  0  0  0  0  0  0
  -29.5269  -19.9983   20.0729 C   0  0  0  0  0  0  0  0  0  0  0  0
  -31.3410  -17.9573   19.5020 C   0  0  0  0  0  0  0  0  0  0  0  0
  -29.0676  -18.7021   19.8392 C   0  0  0  0  0  0  0  0  0  0  0  0
  -23.0561   -8.8530   22.8274 C   0  0  0  0  0  0  0  0  0  0  0  0
  -23.8957  -10.1737   24.6681 C   0  0  0  0  0  0  0  0  0  0  0  0
  -29.5967  -27.5908   19.8930 C   0  0  0  0  0  0  0  0  0  0  0  0
  -24.2124   -6.3006   24.7176 C   0  0  0  0  0  0  0  0  0  0  0  0
  -24.4203   -4.9480   24.4474 C   0  0  0  0  0  0  0  0  0  0  0  0
  -27.7140  -26.4119   20.8337 C   0  0  0  0  0  0  0  0  0  0  0  0
  -22.0313   -4.5968   24.3672 C   0  0  0  0  0  0  0  0  0  0  0  0
  -24.2552  -10.9050   22.3937 C   0  0  0  0  0  0  0  0  0  0  0  0
  -24.1442  -13.0000   20.9423 C   0  0  0  0  0  0  0  0  0  0  0  0
  -24.9661  -34.9926   22.2222 C   0  0  0  0  0  0  0  0  0  0  0  0
  -27.3639  -28.5263   19.7084 C   0  0  0  0  0  0  0  0  0  0  0  0
  -25.7981  -33.8568   22.2132 C   0  0  0  0  0  0  0  0  0  0  0  0
  -26.8423  -27.4191   20.3926 C   0  0  0  0  0  0  0  0  0  0  0  0
  -30.8932  -20.2740   20.0212 C   0  0  0  0  0  0  0  0  0  0  0  0
  -29.9747  -17.6816   19.5537 C   0  0  0  0  0  0  0  0  0  0  0  0
  -23.2161   -9.0494   24.1991 C   0  0  0  0  0  0  0  0  0  0  0  0
  -29.0839  -26.4985   20.5865 C   0  0  0  0  0  0  0  0  0  0  0  0
  -22.9139   -6.8012   24.8127 C   0  0  0  0  0  0  0  0  0  0  0  0
  -23.3298   -4.0961   24.2721 C   0  0  0  0  0  0  0  0  0  0  0  0
  -21.8234   -5.9493   24.6375 C   0  0  0  0  0  0  0  0  0  0  0  0
  -24.7926  -11.8635   21.4617 C   0  0  0  0  0  0  0  0  0  0  0  0
  -25.0724  -13.5737   20.1083 C   0  0  0  0  0  0  0  0  0  0  0  0
  -32.6440  -23.3547   20.8624 C   0  0  0  0  0  0  0  0  0  0  0  0
  -31.5044  -23.8504   20.3846 C   0  0  0  0  0  0  0  0  0  0  0  0
  -32.5760  -21.8877   20.8021 C   0  0  0  0  0  0  0  0  0  0  0  0
  -30.6478  -22.7213   19.9730 C   0  0  0  0  0  0  0  0  0  0  0  0
  -22.8211  -13.4929   21.1916 C   0  0  0  0  0  0  0  0  0  0  0  0
  -25.2869  -30.3061   21.3277 C   0  0  0  0  0  0  0  0  0  0  0  0
  -23.1252  -28.2526   20.0499 C   0  0  0  0  0  0  0  0  0  0  0  0
  -22.4879  -25.1763   18.7170 C   0  0  0  0  0  0  0  0  0  0  0  0
  -30.2733  -15.2378   19.0201 C   0  0  0  0  0  0  0  0  0  0  0  0
  -23.5183  -34.9122   22.6367 C   0  0  0  0  0  0  0  0  0  0  0  0
  -26.4503  -29.6089   19.2026 C   0  0  0  0  0  0  0  0  0  0  0  0
  -25.3692  -27.2838   20.6756 C   0  0  0  0  0  0  0  0  0  0  0  0
  -22.9542  -33.4940   22.6075 C   0  0  0  0  0  0  0  0  0  0  0  0
  -29.5036  -11.8161   18.4063 C   0  0  0  0  0  0  0  0  0  0  0  0
  -23.9195  -32.5217   23.2780 C   0  0  0  0  0  0  0  0  0  0  0  0
  -28.1560  -11.6169   19.1038 C   0  0  0  0  0  0  0  0  0  0  0  0
  -30.4126  -12.7625   19.1885 C   0  0  0  0  0  0  0  0  0  0  0  0
  -28.4661  -13.8604   20.2251 C   0  0  0  0  0  0  0  0  0  0  0  0
  -25.2624  -32.4795   22.5388 C   0  0  1  0  0  0  0  0  0  0  0  0
  -25.1330  -29.6851   19.9682 C   0  0  1  0  0  0  0  0  0  0  0  0
  -27.4915  -12.9659   19.4417 C   0  0  2  0  0  0  0  0  0  0  0  0
  -20.6185  -23.7755   17.8001 C   0  0  0  0  0  0  0  0  0  0  0  0
  -22.1172  -27.7465   22.8850 C   0  0  0  0  0  0  0  0  0  0  0  0
  -20.9538  -25.7005   22.0314 C   0  0  0  0  0  0  0  0  0  0  0  0
  -20.3188  -27.9496   21.1591 C   0  0  0  0  0  0  0  0  0  0  0  0
  -23.7895  -24.9666   16.0673 C   0  0  0  0  0  0  0  0  0  0  0  0
  -31.0916  -25.2703   20.2452 C   0  0  0  0  0  0  0  0  0  1  0  0
  -22.5279  -26.9314   20.4699 C   0  0  1  0  0  0  0  0  0  0  0  0
  -21.7328  -24.7561   17.4689 C   0  0  2  0  0  0  0  0  0  0  0  0
  -21.5075  -27.0852   21.6329 C   0  0  0  0  0  0  0  0  0  0  0  0
  -26.0366  -11.7220   20.9964 N   0  0  0  0  0  0  0  0  0  0  0  0
  -26.1772  -12.7769   20.1759 N   0  0  0  0  0  0  0  0  0  0  0  0
  -31.3509  -21.5659   20.2545 N   0  0  0  0  0  0  0  0  0  0  0  0
  -24.5174  -28.3712   20.1662 N   0  0  0  0  0  0  0  0  0  0  0  0
  -29.7179  -14.0209   19.4688 N   0  0  0  0  0  0  0  0  0  0  0  0
  -25.0431  -14.6770   19.3309 N   0  0  0  0  0  0  0  0  0  0  0  0
  -21.9987  -12.7818   22.0760 N   0  0  0  0  0  0  0  0  0  0  0  0
  -29.5078  -16.3650   19.3164 N   0  0  0  0  0  0  0  0  0  0  0  0
  -25.1526  -31.6814   21.3365 N   0  0  0  0  0  0  0  0  0  0  0  0
  -21.9709  -26.3328   19.2616 N   0  0  0  0  0  0  0  0  0  0  0  0
  -22.6579  -24.1058   16.4982 N   0  3  0  0  0  0  0  0  0  0  0  0
  -33.4726  -21.1518   21.1813 O   0  0  0  0  0  0  0  0  0  0  0  0
  -29.5360  -22.8444   19.4845 O   0  0  0  0  0  0  0  0  0  0  0  0
  -22.3754  -14.5242   20.6335 O   0  0  0  0  0  0  0  0  0  0  0  0
  -25.5095  -29.5904   22.2972 O   0  0  0  0  0  0  0  0  0  0  0  0
  -22.3847  -29.1441   19.6274 O   0  0  0  0  0  0  0  0  0  0  0  0
  -23.4388  -24.5401   19.1661 O   0  0  0  0  0  0  0  0  0  0  0  0
  -31.3354  -15.2744   18.3934 O   0  0  0  0  0  0  0  0  0  0  0  0
  -22.7091   -8.1444   25.0802 O   0  0  0  0  0  0  0  0  0  0  0  0
  -29.9173  -25.5134   21.0187 O   0  0  0  0  0  0  0  0  0  1  0  0
  -23.5297   -2.7976   24.0111 F   0  0  0  0  0  0  0  0  0  0  0  0
  -20.5736   -6.4247   24.7265 F   0  0  0  0  0  0  0  0  0  0  0  0
  1  2  1  0  0  0  0
  1  5  2  0  0  0  0
  2  6  2  0  0  0  0
  3 12  2  0  0  0  0
  3 19  1  0  0  0  0
  4 13  1  0  0  0  0
  4 19  2  0  0  0  0
  5 21  1  0  0  0  0
  6 23  1  0  0  0  0
  7 14  2  0  0  0  0
  7 22  1  0  0  0  0
  8 10  2  0  0  0  0
  8 25  1  0  0  0  0
  9 11  1  0  0  0  0
  9 25  2  0  0  0  0
 10 26  1  0  0  0  0
 11 26  2  0  0  0  0
 12 27  1  0  0  0  0
 13 27  2  0  0  0  0
 14 28  1  0  0  0  0
 15 16  2  0  0  0  0
 15 29  1  0  0  0  0
 16 30  1  0  0  0  0
 17 24  1  0  0  0  0
 17 28  2  0  0  0  0
 18 30  2  0  0  0  0
 18 31  1  0  0  0  0
 19 32  1  0  0  0  0
 20 32  1  0  0  0  0
 20 33  2  0  0  0  0
 20 38  1  0  0  0  0
 21 23  2  0  0  0  0
 21 43  1  0  0  0  0
 22 24  2  0  0  0  0
 22 44  1  0  0  0  0
 23 52  1  0  0  0  0
 24 45  1  0  0  0  0
 25 66  1  0  0  0  0
 26 71  1  0  0  0  0
 27 82  1  0  0  0  0
 28 83  1  0  0  0  0
 29 31  2  0  0  0  0
 29 82  1  0  0  0  0
 30 84  1  0  0  0  0
 31 85  1  0  0  0  0
 32 64  2  0  0  0  0
 33 65  1  0  0  0  0
 33 69  1  0  0  0  0
 34 35  2  0  0  0  0
 34 36  1  0  0  0  0
 35 37  1  0  0  0  0
 35 60  1  0  0  0  0
 36 66  1  0  0  0  0
 36 75  2  0  0  0  0
 37 66  1  0  0  0  0
 37 76  2  0  0  0  0
 38 70  1  0  0  0  0
 38 77  2  0  0  0  0
 39 53  1  0  0  0  0
 39 72  1  0  0  0  0
 39 78  2  0  0  0  0
 40 61  1  0  0  0  0
 40 67  1  0  0  0  0
 40 79  2  0  0  0  0
 41 62  1  0  0  0  0
 41 73  1  0  0  0  0
 41 80  2  0  0  0  0
 42 68  1  0  0  0  0
 42 71  1  0  0  0  0
 42 81  2  0  0  0  0
 43 46  1  0  0  0  0
 44 53  1  0  0  0  0
 45 67  1  0  0  0  0
 46 48  1  0  0  0  0
 47 49  1  0  0  0  0
 47 50  1  0  0  0  0
 48 52  1  0  0  0  0
 49 54  1  0  0  0  0
 50 68  1  0  0  0  0
 51 54  1  0  0  0  0
 51 68  1  0  0  0  0
 52 72  1  0  0  0  0
 53 67  1  0  0  0  0
 54 65  1  0  0  0  0
 55 62  1  0  0  0  0
 56 63  1  0  0  0  0
 57 63  1  0  0  0  0
 58 63  1  0  0  0  0
 59 74  1  0  0  0  0
 60 83  1  0  0  0  0
 61 63  1  0  0  0  0
 61 73  1  0  0  0  0
 62 74  1  0  0  0  0
 64 65  1  0  0  0  0
M  CHG  1  74   1
M  ISO  4  42 100  60 101  71 100  83 101
M  END
> <Batch ID>
0083

> <Smiles>
CNC(C)C(=O)NC(C(=O)N1Cc2cc([101O:1][101CH2:1]C3=CC(=O)N(c4ccc([100NH:0][100C:0](=O)N5CCCC(n6nc(-c7ccc(Oc8ccc(F)cc8F)cc7)c(C(N)=O)c6N)C5)cc4)C3=O)ccc2CC1C(=O)NC1CCCc2ccccc21)C(C)(C)C

> <Shape>
0.296

> <Color>
0.133

> <Negative vol penalty>
0.000

$$$$

  -OEChem-04052300093D

 85 94  0     1  0  0  0  0  0999 V2000
  -28.8500  -33.0029   26.2817 C   0  0  0  0  0  0  0  0  0  0  0  0
  -28.7938  -31.8166   25.5573 C   0  0  0  0  0  0  0  0  0  0  0  0
  -22.3249  -14.1523   21.2023 C   0  0  0  0  0  0  0  0  0  0  0  0
  -23.5108  -15.9664   22.2700 C   0  0  0  0  0  0  0  0  0  0  0  0
  -27.6710  -33.6280   26.6859 C   0  0  0  0  0  0  0  0  0  0  0  0
  -27.5586  -31.2540   25.2376 C   0  0  0  0  0  0  0  0  0  0  0  0
  -27.3238  -29.6881   20.4274 C   0  0  0  0  0  0  0  0  0  0  0  0
  -21.4525  -14.0833   22.2885 C   0  0  0  0  0  0  0  0  0  0  0  0
  -22.6384  -15.8974   23.3562 C   0  0  0  0  0  0  0  0  0  0  0  0
  -27.9459  -28.4788   20.1204 C   0  0  0  0  0  0  0  0  0  0  0  0
  -21.4736  -12.8193   25.4232 C   0  0  0  0  0  0  0  0  0  0  0  0
  -21.1707  -11.5560   25.9309 C   0  0  0  0  0  0  0  0  0  0  0  0
  -30.2513  -21.1297   19.2233 C   0  0  0  0  0  0  0  0  0  0  0  0
  -25.8074  -27.3654   20.1993 C   0  0  0  0  0  0  0  0  0  0  0  0
  -18.8315  -11.9244   25.4517 C   0  0  0  0  0  0  0  0  0  0  0  0
  -28.6729  -19.9954   20.4977 C   0  0  0  0  0  0  0  0  0  0  0  0
  -23.3541  -15.0938   21.1930 C   0  0  0  0  0  0  0  0  0  0  0  0
  -29.7682  -19.8668   19.6723 C   0  0  0  0  0  0  0  0  0  0  0  0
  -23.9235  -15.4259   18.7287 C   0  0  0  0  0  0  0  0  0  0  0  0
  -26.4206  -33.0779   26.3627 C   0  0  0  0  0  0  0  0  0  0  0  0
  -25.9378  -29.7432   20.6338 C   0  0  0  0  0  0  0  0  0  0  0  0
  -26.3619  -31.8715   25.6390 C   0  0  0  0  0  0  0  0  0  0  0  0
  -25.1697  -28.5771   20.5063 C   0  0  0  0  0  0  0  0  0  0  0  0
  -21.6092  -14.9558   23.3654 C   0  0  0  0  0  0  0  0  0  0  0  0
  -27.1881  -27.3167   20.0091 C   0  0  0  0  0  0  0  0  0  0  0  0
  -20.4555  -13.6353   24.9298 C   0  0  0  0  0  0  0  0  0  0  0  0
  -19.8496  -11.1085   25.9451 C   0  0  0  0  0  0  0  0  0  0  0  0
  -19.1344  -13.1878   24.9440 C   0  0  0  0  0  0  0  0  0  0  0  0
  -24.2559  -15.1652   20.0716 C   0  0  0  0  0  0  0  0  0  0  0  0
  -25.1246  -15.3857   18.0637 C   0  0  0  0  0  0  0  0  0  0  0  0
  -29.5066  -22.1757   19.7225 C   0  0  0  0  0  0  0  0  0  0  0  0
  -29.2359  -24.5020   20.5389 C   0  0  0  0  0  0  0  0  0  0  0  0
  -30.3485  -18.5445   19.3160 C   0  0  0  0  0  0  0  0  0  0  0  0
  -22.6435  -15.6816   18.1355 C   0  0  0  0  0  0  0  0  0  0  0  0
  -24.0635  -30.5212   23.0803 C   0  0  0  0  0  0  0  0  0  0  0  0
  -21.7035  -30.1486   20.8863 C   0  0  0  0  0  0  0  0  0  0  0  0
  -19.7087  -29.3241   18.2428 C   0  0  0  0  0  0  0  0  0  0  0  0
  -30.7305  -16.3300   19.8327 C   0  0  0  0  0  0  0  0  0  0  0  0
  -25.1743  -33.7648   26.8622 C   0  0  0  0  0  0  0  0  0  0  0  0
  -25.2783  -31.0604   20.9380 C   0  0  0  0  0  0  0  0  0  0  0  0
  -23.6759  -28.5866   20.6984 C   0  0  0  0  0  0  0  0  0  0  0  0
  -23.9005  -33.3014   26.1601 C   0  0  0  0  0  0  0  0  0  0  0  0
  -30.0370  -25.4718   17.8942 C   0  0  0  0  0  0  0  0  0  0  0  0
  -29.4656  -13.3818   18.2617 C   0  0  0  0  0  0  0  0  0  0  0  0
  -23.8622  -31.7790   26.0736 C   0  0  0  0  0  0  0  0  0  0  0  0
  -30.1073  -26.4157   19.0763 C   0  0  0  0  0  0  0  0  0  0  0  0
  -27.9520  -13.5175   18.4395 C   0  0  0  0  0  0  0  0  0  0  0  0
  -30.3800  -24.0631   18.3480 C   0  0  0  0  0  0  0  0  0  0  0  0
  -30.2246  -13.9162   19.4735 C   0  0  0  0  0  0  0  0  0  0  0  0
  -28.3603  -15.4491   20.0234 C   0  0  0  0  0  0  0  0  0  0  0  0
  -25.0408  -31.2434   25.2515 C   0  0  1  0  0  0  0  0  0  0  0  0
  -29.1359  -25.9662   20.1472 C   0  0  1  0  0  0  0  0  0  1  0  0
  -23.9296  -30.9066   21.6342 C   0  0  1  0  0  0  0  0  0  0  0  0
  -27.5615  -14.9623   18.8030 C   0  0  2  0  0  0  0  0  0  0  0  0
  -31.0266  -18.4040   17.9670 C   0  0  0  0  0  0  0  0  0  0  0  0
  -17.2960  -29.1426   17.5769 C   0  0  0  0  0  0  0  0  0  0  0  0
  -21.4627  -27.5545   22.4746 C   0  0  0  0  0  0  0  0  0  0  0  0
  -19.4837  -26.9555   21.0629 C   0  0  0  0  0  0  0  0  0  0  0  0
  -19.4150  -28.9900   22.5046 C   0  0  0  0  0  0  0  0  0  0  0  0
  -20.0262  -31.3469   16.1059 C   0  0  0  0  0  0  0  0  0  0  0  0
  -20.8481  -28.9947   20.4218 C   0  0  1  0  0  0  0  0  0  0  0  0
  -18.5256  -30.0368   17.6129 C   0  0  2  0  0  0  0  0  0  0  0  0
  -20.3275  -28.1293   21.6040 C   0  0  0  0  0  0  0  0  0  0  0  0
  -25.5655  -14.9734   20.2507 N   0  0  0  0  0  0  0  0  0  0  0  0
  -30.2251  -17.5672   20.1662 N   0  0  0  0  0  0  0  0  0  0  0  0
  -26.0666  -15.1137   19.0116 N   0  0  0  0  0  0  0  0  0  0  0  0
  -29.6351  -23.6045   19.5329 N   0  0  0  0  0  0  0  0  0  0  0  0
  -23.0782  -29.8977   21.0005 N   0  0  0  0  0  0  0  0  0  0  0  0
  -29.7993  -15.2794   19.7891 N   0  0  0  0  0  0  0  0  0  0  0  0
  -25.4562  -15.5569   16.7663 N   0  0  0  0  0  0  0  0  0  0  0  0
  -22.1967  -17.0077   18.0563 N   0  0  0  0  0  0  0  0  0  0  0  0
  -24.7917  -31.4195   23.8368 N   0  0  0  0  0  0  0  0  0  0  0  0
  -19.7942  -29.5743   19.5961 N   0  0  0  0  0  0  0  0  0  0  0  0
  -18.8505  -30.4455   16.2170 N   0  3  0  0  0  0  0  0  0  0  0  0
  -28.9167  -24.1882   21.6896 O   0  0  0  0  0  0  0  0  0  0  0  0
  -21.9103  -14.7600   17.7037 O   0  0  0  0  0  0  0  0  0  0  0  0
  -23.5434  -29.4862   23.4804 O   0  0  0  0  0  0  0  0  0  0  0  0
  -21.1725  -31.2346   21.1317 O   0  0  0  0  0  0  0  0  0  0  0  0
  -20.4777  -28.6132   17.5995 O   0  0  0  0  0  0  0  0  0  0  0  0
  -31.9303  -16.1594   19.6115 O   0  0  0  0  0  0  0  0  0  0  0  0
  -20.7580  -14.8889   24.4253 O   0  0  0  0  0  0  0  0  0  0  0  0
  -27.7930  -26.1349   19.7102 O   0  0  0  0  0  0  0  0  0  1  0  0
  -19.5590   -9.8947   26.4312 F   0  0  0  0  0  0  0  0  0  0  0  0
  -18.1522  -13.9666   24.4703 F   0  0  0  0  0  0  0  0  0  0  0  0
  -28.2311  -21.6338   20.7283 S   0  0  0  0  0  0  0  0  0  0  0  0
  1  2  1  0  0  0  0
  1  5  2  0  0  0  0
  2  6  2  0  0  0  0
  3  8  2  0  0  0  0
  3 17  1  0  0  0  0
  4  9  1  0  0  0  0
  4 17  2  0  0  0  0
  5 20  1  0  0  0  0
  6 22  1  0  0  0  0
  7 10  2  0  0  0  0
  7 21  1  0  0  0  0
  8 24  1  0  0  0  0
  9 24  2  0  0  0  0
 10 25  1  0  0  0  0
 11 12  2  0  0  0  0
 11 26  1  0  0  0  0
 12 27  1  0  0  0  0
 13 18  1  0  0  0  0
 13 31  2  0  0  0  0
 14 23  1  0  0  0  0
 14 25  2  0  0  0  0
 15 27  2  0  0  0  0
 15 28  1  0  0  0  0
 16 18  2  0  0  0  0
 16 85  1  0  0  0  0
 17 29  1  0  0  0  0
 18 33  1  0  0  0  0
 19 29  1  0  0  0  0
 19 30  2  0  0  0  0
 19 34  1  0  0  0  0
 20 22  2  0  0  0  0
 20 39  1  0  0  0  0
 21 23  2  0  0  0  0
 21 40  1  0  0  0  0
 22 51  1  0  0  0  0
 23 41  1  0  0  0  0
 24 81  1  0  0  0  0
 25 82  1  0  0  0  0
 26 28  2  0  0  0  0
 26 81  1  0  0  0  0
 27 83  1  0  0  0  0
 28 84  1  0  0  0  0
 29 64  2  0  0  0  0
 30 66  1  0  0  0  0
 30 70  1  0  0  0  0
 31 67  1  0  0  0  0
 31 85  1  0  0  0  0
 32 52  1  0  0  0  0
 32 67  1  0  0  0  0
 32 75  2  0  0  0  0
 33 55  1  0  0  0  0
 33 65  2  0  0  0  0
 34 71  1  0  0  0  0
 34 76  2  0  0  0  0
 35 53  1  0  0  0  0
 35 72  1  0  0  0  0
 35 77  2  0  0  0  0
 36 61  1  0  0  0  0
 36 68  1  0  0  0  0
 36 78  2  0  0  0  0
 37 62  1  0  0  0  0
 37 73  1  0  0  0  0
 37 79  2  0  0  0  0
 38 65  1  0  0  0  0
 38 69  1  0  0  0  0
 38 80  2  0  0  0  0
 39 42  1  0  0  0  0
 40 53  1  0  0  0  0
 41 68  1  0  0  0  0
 42 45  1  0  0  0  0
 43 46  1  0  0  0  0
 43 48  1  0  0  0  0
 44 47  1  0  0  0  0
 44 49  1  0  0  0  0
 45 51  1  0  0  0  0
 46 52  1  0  0  0  0
 47 54  1  0  0  0  0
 48 67  1  0  0  0  0
 49 69  1  0  0  0  0
 50 54  1  0  0  0  0
 50 69  1  0  0  0  0
 51 72  1  0  0  0  0
 52 82  1  0  0  0  0
 53 68  1  0  0  0  0
 54 66  1  0  0  0  0
 56 62  1  0  0  0  0
 57 63  1  0  0  0  0
 58 63  1  0  0  0  0
 59 63  1  0  0  0  0
 60 74  1  0  0  0  0
 61 63  1  0  0  0  0
 61 73  1  0  0  0  0
 62 74  1  0  0  0  0
 64 66  1  0  0  0  0
M  CHG  1  74   1
M  ISO  4  38 100  52 101  65 100  82 101
M  END
> <Batch ID>
0083

> <Smiles>
C=C([100NH:0][100C:0](=O)N1CCCC(n2nc(-c3ccc(Oc4ccc(F)cc4F)cc3)c(C(N)=O)c2N)C1)c1csc(N2CCC[101CH:1]([101O:1]c3ccc4c(c3)CN(C(=O)C(NC(=O)C(C)NC)C(C)(C)C)C(C(=O)NC3CCCc5ccccc53)C4)C2=O)c1

> <Shape>
0.289

> <Color>
0.087

> <Negative vol penalty>
0.000

$$$$

  -OEChem-04052300093D

 81 90  0     1  0  0  0  0  0999 V2000
  -28.9760  -35.7742   17.4628 C   0  0  0  0  0  0  0  0  0  0  0  0
  -28.9211  -34.3876   17.3642 C   0  0  0  0  0  0  0  0  0  0  0  0
  -22.4748  -10.5593   21.1702 C   0  0  0  0  0  0  0  0  0  0  0  0
  -24.4946   -9.2894   21.5512 C   0  0  0  0  0  0  0  0  0  0  0  0
  -28.7909  -36.3919   18.6990 C   0  0  0  0  0  0  0  0  0  0  0  0
  -28.6821  -33.6177   18.5020 C   0  0  0  0  0  0  0  0  0  0  0  0
  -25.5384  -28.3707   18.8033 C   0  0  0  0  0  0  0  0  0  0  0  0
  -21.7391   -9.3752   21.1235 C   0  0  0  0  0  0  0  0  0  0  0  0
  -23.7589   -8.1053   21.5046 C   0  0  0  0  0  0  0  0  0  0  0  0
  -25.9409  -27.0360   18.8267 C   0  0  0  0  0  0  0  0  0  0  0  0
  -21.7338   -6.3502   23.5635 C   0  0  0  0  0  0  0  0  0  0  0  0
  -21.9903   -5.3906   24.5428 C   0  0  0  0  0  0  0  0  0  0  0  0
  -25.8240  -17.3849   18.8417 C   0  0  0  0  0  0  0  0  0  0  0  0
  -25.2569  -18.5620   19.4094 C   0  0  0  0  0  0  0  0  0  0  0  0
  -25.8058  -27.0439   21.2352 C   0  0  0  0  0  0  0  0  0  0  0  0
  -22.6152   -3.8077   22.8279 C   0  0  0  0  0  0  0  0  0  0  0  0
  -23.8526  -10.5165   21.3840 C   0  0  0  0  0  0  0  0  0  0  0  0
  -24.4459  -12.8099   22.3304 C   0  0  0  0  0  0  0  0  0  0  0  0
  -28.5400  -35.6297   19.8509 C   0  0  0  0  0  0  0  0  0  0  0  0
  -25.2766  -29.0562   19.9982 C   0  0  0  0  0  0  0  0  0  0  0  0
  -28.4949  -34.2257   19.7550 C   0  0  0  0  0  0  0  0  0  0  0  0
  -25.3976  -28.3864   21.2241 C   0  0  0  0  0  0  0  0  0  0  0  0
  -22.3811   -8.1482   21.2907 C   0  0  0  0  0  0  0  0  0  0  0  0
  -26.0775  -26.3733   20.0430 C   0  0  0  0  0  0  0  0  0  0  0  0
  -21.9179   -6.0385   22.2164 C   0  0  0  0  0  0  0  0  0  0  0  0
  -22.4310   -4.1194   24.1750 C   0  0  0  0  0  0  0  0  0  0  0  0
  -22.3586   -4.7673   21.8486 C   0  0  0  0  0  0  0  0  0  0  0  0
  -24.6132  -11.7393   21.4318 C   0  0  0  0  0  0  0  0  0  0  0  0
  -27.1691  -17.5312   18.5830 C   0  0  0  0  0  0  0  0  0  0  0  0
  -25.4057  -13.7207   21.9619 C   0  0  0  0  0  0  0  0  0  0  0  0
  -26.1903  -19.5635   19.5634 C   0  0  0  0  0  0  0  0  0  0  0  0
  -25.7748  -22.8005   20.0391 C   0  0  0  0  0  0  0  0  0  0  0  0
  -24.9533  -21.5901   19.9990 C   0  0  0  0  0  0  0  0  0  0  0  0
  -25.5044  -24.1057   20.0200 C   0  0  0  0  0  0  0  0  0  1  0  0
  -23.5070  -12.9670   23.4025 C   0  0  0  0  0  0  0  0  0  0  0  0
  -28.1074  -16.5599   18.0060 C   0  0  0  0  0  0  0  0  0  0  0  0
  -26.5211  -31.5985   21.4446 C   0  0  0  0  0  0  0  0  0  0  0  0
  -24.0551  -31.1487   23.5036 C   0  0  0  0  0  0  0  0  0  0  0  0
  -21.7716  -29.0094   24.8658 C   0  0  0  0  0  0  0  0  0  0  0  0
  -28.3933  -36.3396   21.1734 C   0  0  0  0  0  0  0  0  0  0  0  0
  -24.8175  -30.4879   19.9545 C   0  0  0  0  0  0  0  0  0  0  0  0
  -25.1090  -29.0715   22.5340 C   0  0  0  0  0  0  0  0  0  0  0  0
  -27.0080  -21.9287   20.1005 C   0  0  0  0  0  0  0  0  0  0  0  0
  -27.7725  -35.4718   22.2651 C   0  0  0  0  0  0  0  0  0  0  0  0
  -29.3220  -13.2963   18.7902 C   0  0  0  0  0  0  0  0  0  0  0  0
  -28.4282  -34.0947   22.2896 C   0  0  0  0  0  0  0  0  0  0  0  0
  -28.1846  -12.6780   19.6051 C   0  0  0  0  0  0  0  0  0  0  0  0
  -28.7931  -14.2069   17.6849 C   0  0  0  0  0  0  0  0  0  0  0  0
  -26.7268  -14.6447   18.9669 C   0  0  0  0  0  0  0  0  0  0  0  0
  -28.2133  -33.3576   20.9622 C   0  0  1  0  0  0  0  0  0  0  0  0
  -25.0744  -31.2378   21.2580 C   0  0  1  0  0  0  0  0  0  0  0  0
  -27.2183  -13.7595   20.1239 C   0  0  1  0  0  0  0  0  0  0  0  0
  -19.9139  -28.9228   26.5507 C   0  0  0  0  0  0  0  0  0  0  0  0
  -26.1071  -31.1346   25.7617 C   0  0  0  0  0  0  0  0  0  0  0  0
  -24.3649  -30.1181   27.2447 C   0  0  0  0  0  0  0  0  0  0  0  0
  -24.0031  -32.3864   26.2719 C   0  0  0  0  0  0  0  0  0  0  0  0
  -19.7834  -28.2559   22.8071 C   0  0  0  0  0  0  0  0  0  0  0  0
  -23.8528  -30.3563   24.7725 C   0  0  1  0  0  0  0  0  0  0  0  0
  -20.2760  -29.1417   25.0899 C   0  0  2  0  0  0  0  0  0  0  0  0
  -24.5894  -30.9862   25.9883 C   0  0  0  0  0  0  0  0  0  0  0  0
  -25.6014  -11.9491   20.5580 N   0  0  0  0  0  0  0  0  0  0  0  0
  -26.0636  -13.1621   20.9058 N   0  0  0  0  0  0  0  0  0  0  0  0
  -26.0691  -20.8217   20.0568 N   0  0  0  0  0  0  0  0  0  0  0  0
  -27.8708  -15.2017   18.2313 N   0  0  0  0  0  0  0  0  0  0  0  0
  -24.6691  -30.4733   22.4393 N   0  0  0  0  0  0  0  0  0  0  0  0
  -25.7425  -14.9368   22.4413 N   0  0  0  0  0  0  0  0  0  0  0  0
  -23.8678  -12.5133   24.6785 N   0  0  0  0  0  0  0  0  0  0  0  0
  -26.8725  -32.8169   20.8956 N   0  0  0  0  0  0  0  0  0  0  0  0
  -22.4102  -30.2287   24.9484 N   0  0  0  0  0  0  0  0  0  0  0  0
  -19.5385  -28.1411   24.2678 N   0  3  0  0  0  0  0  0  0  0  0  0
  -23.7674  -21.3657   19.8709 O   0  0  0  0  0  0  0  0  0  0  0  0
  -22.3750  -13.4793   23.2305 O   0  0  0  0  0  0  0  0  0  0  0  0
  -29.0502  -17.0273   17.3690 O   0  0  0  0  0  0  0  0  0  0  0  0
  -27.2632  -30.8290   22.0437 O   0  0  0  0  0  0  0  0  0  0  0  0
  -23.6757  -32.3215   23.4560 O   0  0  0  0  0  0  0  0  0  0  0  0
  -22.3191  -27.9317   24.6436 O   0  0  0  0  0  0  0  0  0  0  0  0
  -21.6635   -6.9926   21.2454 O   0  0  0  0  0  0  0  0  0  0  0  0
  -26.4709  -25.0708   20.0687 O   0  0  0  0  0  0  0  0  0  1  0  0
  -22.6788   -3.1985   25.1156 F   0  0  0  0  0  0  0  0  0  0  0  0
  -22.5384   -4.4623   20.5561 F   0  0  0  0  0  0  0  0  0  0  0  0
  -27.7429  -19.0830   19.0242 S   0  0  0  0  0  0  0  0  0  0  0  0
  1  2  1  0  0  0  0
  1  5  2  0  0  0  0
  2  6  2  0  0  0  0
  3  8  2  0  0  0  0
  3 17  1  0  0  0  0
  4  9  1  0  0  0  0
  4 17  2  0  0  0  0
  5 19  1  0  0  0  0
  6 21  1  0  0  0  0
  7 10  2  0  0  0  0
  7 20  1  0  0  0  0
  8 23  1  0  0  0  0
  9 23  2  0  0  0  0
 10 24  1  0  0  0  0
 11 12  2  0  0  0  0
 11 25  1  0  0  0  0
 12 26  1  0  0  0  0
 13 14  1  0  0  0  0
 13 29  2  0  0  0  0
 14 31  2  0  0  0  0
 15 22  1  0  0  0  0
 15 24  2  0  0  0  0
 16 26  2  0  0  0  0
 16 27  1  0  0  0  0
 17 28  1  0  0  0  0
 18 28  1  0  0  0  0
 18 30  2  0  0  0  0
 18 35  1  0  0  0  0
 19 21  2  0  0  0  0
 19 40  1  0  0  0  0
 20 22  2  0  0  0  0
 20 41  1  0  0  0  0
 21 50  1  0  0  0  0
 22 42  1  0  0  0  0
 23 77  1  0  0  0  0
 24 78  1  0  0  0  0
 25 27  2  0  0  0  0
 25 77  1  0  0  0  0
 26 79  1  0  0  0  0
 27 80  1  0  0  0  0
 28 61  2  0  0  0  0
 29 36  1  0  0  0  0
 29 81  1  0  0  0  0
 30 62  1  0  0  0  0
 30 66  1  0  0  0  0
 31 63  1  0  0  0  0
 31 81  1  0  0  0  0
 32 33  1  0  0  0  0
 32 34  2  0  0  0  0
 32 43  1  0  0  0  0
 33 63  1  0  0  0  0
 33 71  2  0  0  0  0
 34 78  1  0  0  0  0
 35 67  1  0  0  0  0
 35 72  2  0  0  0  0
 36 64  1  0  0  0  0
 36 73  2  0  0  0  0
 37 51  1  0  0  0  0
 37 68  1  0  0  0  0
 37 74  2  0  0  0  0
 38 58  1  0  0  0  0
 38 65  1  0  0  0  0
 38 75  2  0  0  0  0
 39 59  1  0  0  0  0
 39 69  1  0  0  0  0
 39 76  2  0  0  0  0
 40 44  1  0  0  0  0
 41 51  1  0  0  0  0
 42 65  1  0  0  0  0
 43 63  1  0  0  0  0
 44 46  1  0  0  0  0
 45 47  1  0  0  0  0
 45 48  1  0  0  0  0
 46 50  1  0  0  0  0
 47 52  1  0  0  0  0
 48 64  1  0  0  0  0
 49 52  1  0  0  0  0
 49 64  1  0  0  0  0
 50 68  1  0  0  0  0
 51 65  1  0  0  0  0
 52 62  1  0  0  0  0
 53 59  1  0  0  0  0
 54 60  1  0  0  0  0
 55 60  1  0  0  0  0
 56 60  1  0  0  0  0
 57 70  1  0  0  0  0
 58 60  1  0  0  0  0
 58 69  1  0  0  0  0
 59 70  1  0  0  0  0
 61 62  1  0  0  0  0
M  CHG  1  70   1
M  ISO  4  29 100  34 101  36 100  78 101
M  END
> <Batch ID>
0083

> <Smiles>
CNC(C)C(=O)NC(C(=O)N1Cc2cc([101O:1][101CH:1]=C3CN(c4cc[100c:0]([100C:0](=O)N5CCCC(n6nc(-c7ccc(Oc8ccc(F)cc8F)cc7)c(C(N)=O)c6N)C5)s4)C3=O)ccc2CC1C(=O)NC1CCCc2ccccc21)C(C)(C)C

> <Shape>
0.253

> <Color>
0.129

> <Negative vol penalty>
0.000

$$$$

  -OEChem-04052300093D

 86 95  0     1  0  0  0  0  0999 V2000
  -16.9649  -29.1211   24.6877 C   0  0  0  0  0  0  0  0  0  0  0  0
  -17.7154  -28.0182   24.2930 C   0  0  0  0  0  0  0  0  0  0  0  0
  -18.4048  -16.4987   22.9645 C   0  0  0  0  0  0  0  0  0  0  0  0
  -27.0639  -18.2892   19.4634 C   0  0  0  0  0  0  0  0  0  0  0  0
  -28.8660  -16.8947   18.6605 C   0  0  0  0  0  0  0  0  0  0  0  0
  -18.8990  -15.1944   22.9748 C   0  0  0  0  0  0  0  0  0  0  0  0
  -17.1357  -30.3457   24.0435 C   0  0  0  0  0  0  0  0  0  0  0  0
  -18.6365  -28.1391   23.2531 C   0  0  0  0  0  0  0  0  0  0  0  0
  -23.0626  -25.9170   24.3101 C   0  0  0  0  0  0  0  0  0  0  0  0
  -19.2873  -17.5788   22.9396 C   0  0  0  0  0  0  0  0  0  0  0  0
  -27.9816  -19.2879   19.7887 C   0  0  0  0  0  0  0  0  0  0  0  0
  -29.7838  -17.8934   18.9858 C   0  0  0  0  0  0  0  0  0  0  0  0
  -23.1224  -24.5291   24.1921 C   0  0  0  0  0  0  0  0  0  0  0  0
  -29.7231  -21.6932   18.1716 C   0  0  0  0  0  0  0  0  0  0  0  0
  -29.4089  -23.0040   17.8131 C   0  0  0  0  0  0  0  0  0  0  0  0
  -21.1581  -16.0501   22.9354 C   0  0  0  0  0  0  0  0  0  0  0  0
  -24.1770  -24.7639   22.0353 C   0  0  0  0  0  0  0  0  0  0  0  0
  -29.4982  -23.6610   20.1363 C   0  0  0  0  0  0  0  0  0  0  0  0
  -27.5061  -17.0925   18.8994 C   0  0  0  0  0  0  0  0  0  0  0  0
  -20.2756  -14.9701   22.9603 C   0  0  0  0  0  0  0  0  0  0  0  0
  -25.8832  -15.8915   17.3401 C   0  0  0  0  0  0  0  0  0  0  0  0
  -18.0663  -30.4841   23.0016 C   0  0  0  0  0  0  0  0  0  0  0  0
  -23.5504  -26.7401   23.2850 C   0  0  0  0  0  0  0  0  0  0  0  0
  -18.8190  -29.3664   22.5935 C   0  0  0  0  0  0  0  0  0  0  0  0
  -24.1245  -26.1620   22.1438 C   0  0  0  0  0  0  0  0  0  0  0  0
  -20.6639  -17.3544   22.9251 C   0  0  0  0  0  0  0  0  0  0  0  0
  -29.3416  -19.0901   19.5499 C   0  0  0  0  0  0  0  0  0  0  0  0
  -23.6771  -23.9523   23.0533 C   0  0  0  0  0  0  0  0  0  0  0  0
  -29.9248  -21.3662   19.5126 C   0  0  0  0  0  0  0  0  0  0  0  0
  -29.2965  -23.9879   18.7954 C   0  0  0  0  0  0  0  0  0  0  0  0
  -29.8123  -22.3501   20.4949 C   0  0  0  0  0  0  0  0  0  0  0  0
  -26.5586  -16.0602   18.5636 C   0  0  0  0  0  0  0  0  0  0  0  0
  -25.1048  -14.7757   17.5285 C   0  0  0  0  0  0  0  0  0  0  0  0
  -22.5020  -20.5684   22.8553 C   0  0  0  0  0  0  0  0  0  0  0  0
  -21.2184  -19.8179   22.8862 C   0  0  0  0  0  0  0  0  0  0  0  0
  -22.5627  -21.8979   22.9624 C   0  0  0  0  0  0  0  0  0  1  0  0
  -20.8005  -13.5804   22.9712 C   0  0  0  0  0  0  0  0  0  0  0  0
  -25.9532  -16.6735   16.1404 C   0  0  0  0  0  0  0  0  0  0  0  0
  -22.2673  -28.9088   21.3474 C   0  0  0  0  0  0  0  0  0  0  0  0
  -25.3518  -29.3658   20.4532 C   0  0  0  0  0  0  0  0  0  0  0  0
  -28.5135  -28.1054   20.2054 C   0  0  0  0  0  0  0  0  0  0  0  0
  -22.7453  -12.1898   22.3325 C   0  0  0  0  0  0  0  0  0  0  0  0
  -18.1819  -31.8161   22.3038 C   0  0  0  0  0  0  0  0  0  0  0  0
  -23.5027  -28.2356   23.4394 C   0  0  0  0  0  0  0  0  0  0  0  0
  -24.6807  -27.0016   21.0239 C   0  0  0  0  0  0  0  0  0  0  0  0
  -23.6468  -19.6270   22.7172 C   0  0  0  0  0  0  0  0  0  0  0  0
  -19.4472  -31.9544   21.4609 C   0  0  0  0  0  0  0  0  0  0  0  0
  -24.9618  -10.6862   20.0253 C   0  0  0  0  0  0  0  0  0  0  0  0
  -19.6595  -30.7075   20.6083 C   0  0  0  0  0  0  0  0  0  0  0  0
  -25.5522  -11.8761   19.2637 C   0  0  0  0  0  0  0  0  0  0  0  0
  -23.0086  -18.2690   22.9581 C   0  0  0  0  0  0  0  0  0  0  0  0
  -24.7595  -11.0042   21.5061 C   0  0  0  0  0  0  0  0  0  0  0  0
  -24.5865  -13.4114   21.0228 C   0  0  0  0  0  0  0  0  0  0  0  0
  -19.8459  -29.4640   21.4862 C   0  0  1  0  0  0  0  0  0  0  0  0
  -23.5620  -28.9760   22.1069 C   0  0  1  0  0  0  0  0  0  0  0  0
  -24.7437  -13.1650   19.5136 C   0  0  1  0  0  0  0  0  0  0  0  0
  -30.8136  -28.7003   19.3973 C   0  0  0  0  0  0  0  0  0  0  0  0
  -24.4506  -28.9250   17.5716 C   0  0  0  0  0  0  0  0  0  0  0  0
  -26.8510  -28.5844   16.9466 C   0  0  0  0  0  0  0  0  0  0  0  0
  -26.1048  -30.7758   17.8759 C   0  0  0  0  0  0  0  0  0  0  0  0
  -29.6676  -27.8117   22.9148 C   0  0  0  0  0  0  0  0  0  0  0  0
  -26.2609  -28.7693   19.4060 C   0  0  1  0  0  0  0  0  0  0  0  0
  -29.8629  -28.6885   20.5842 C   0  0  2  0  0  0  0  0  0  0  0  0
  -25.9047  -29.2475   17.9701 C   0  0  0  0  0  0  0  0  0  0  0  0
  -26.2373  -15.1264   19.4630 N   0  0  0  0  0  0  0  0  0  0  0  0
  -25.3514  -14.3602   18.8040 N   0  0  0  0  0  0  0  0  0  0  0  0
  -21.5681  -18.4614   22.8993 N   0  0  0  0  0  0  0  0  0  0  0  0
  -24.6053  -28.4589   21.2189 N   0  0  0  0  0  0  0  0  0  0  0  0
  -23.9774  -12.2325   21.6569 N   0  0  0  0  0  0  0  0  0  0  0  0
  -24.2402  -14.1192   16.7261 N   0  0  0  0  0  0  0  0  0  0  0  0
  -26.8037  -17.7872   16.1174 N   0  0  0  0  0  0  0  0  0  0  0  0
  -22.0549  -13.4058   22.3860 N   0  0  0  0  0  0  0  0  0  0  0  0
  -21.1854  -29.4275   22.0329 N   0  0  0  0  0  0  0  0  0  0  0  0
  -27.6235  -29.0855   19.8203 N   0  0  0  0  0  0  0  0  0  0  0  0
  -30.4849  -27.8881   21.6766 N   0  3  0  0  0  0  0  0  0  0  0  0
  -20.1259  -20.3602   22.9030 O   0  0  0  0  0  0  0  0  0  0  0  0
  -20.1418  -12.6966   23.5123 O   0  0  0  0  0  0  0  0  0  0  0  0
  -25.2690  -16.4025   15.1245 O   0  0  0  0  0  0  0  0  0  0  0  0
  -22.2513  -28.4236   20.2222 O   0  0  0  0  0  0  0  0  0  0  0  0
  -25.3110  -30.5908   20.5918 O   0  0  0  0  0  0  0  0  0  0  0  0
  -28.2742  -26.9004   20.2436 O   0  0  0  0  0  0  0  0  0  0  0  0
  -22.2816  -11.1510   22.8133 O   0  0  0  0  0  0  0  0  0  0  0  0
  -30.2374  -20.0646   19.8669 O   0  0  0  0  0  0  0  0  0  0  0  0
  -23.7362  -22.5979   22.9353 O   0  0  0  0  0  0  0  0  0  1  0  0
  -28.9963  -25.2470   18.4507 F   0  0  0  0  0  0  0  0  0  0  0  0
  -30.0061  -22.0423   21.7847 F   0  0  0  0  0  0  0  0  0  0  0  0
  1  2  1  0  0  0  0
  1  7  2  0  0  0  0
  2  8  2  0  0  0  0
  3  6  1  0  0  0  0
  3 10  2  0  0  0  0
  4 11  2  0  0  0  0
  4 19  1  0  0  0  0
  5 12  1  0  0  0  0
  5 19  2  0  0  0  0
  6 20  2  0  0  0  0
  7 22  1  0  0  0  0
  8 24  1  0  0  0  0
  9 13  2  0  0  0  0
  9 23  1  0  0  0  0
 10 26  1  0  0  0  0
 11 27  1  0  0  0  0
 12 27  2  0  0  0  0
 13 28  1  0  0  0  0
 14 15  2  0  0  0  0
 14 29  1  0  0  0  0
 15 30  1  0  0  0  0
 16 20  1  0  0  0  0
 16 26  2  0  0  0  0
 17 25  1  0  0  0  0
 17 28  2  0  0  0  0
 18 30  2  0  0  0  0
 18 31  1  0  0  0  0
 19 32  1  0  0  0  0
 20 37  1  0  0  0  0
 21 32  1  0  0  0  0
 21 33  2  0  0  0  0
 21 38  1  0  0  0  0
 22 24  2  0  0  0  0
 22 43  1  0  0  0  0
 23 25  2  0  0  0  0
 23 44  1  0  0  0  0
 24 54  1  0  0  0  0
 25 45  1  0  0  0  0
 26 67  1  0  0  0  0
 27 83  1  0  0  0  0
 28 84  1  0  0  0  0
 29 31  2  0  0  0  0
 29 83  1  0  0  0  0
 30 85  1  0  0  0  0
 31 86  1  0  0  0  0
 32 65  2  0  0  0  0
 33 66  1  0  0  0  0
 33 70  1  0  0  0  0
 34 35  1  0  0  0  0
 34 36  2  0  0  0  0
 34 46  1  0  0  0  0
 35 67  1  0  0  0  0
 35 76  2  0  0  0  0
 36 84  1  0  0  0  0
 37 72  1  0  0  0  0
 37 77  2  0  0  0  0
 38 71  1  0  0  0  0
 38 78  2  0  0  0  0
 39 55  1  0  0  0  0
 39 73  1  0  0  0  0
 39 79  2  0  0  0  0
 40 62  1  0  0  0  0
 40 68  1  0  0  0  0
 40 80  2  0  0  0  0
 41 63  1  0  0  0  0
 41 74  1  0  0  0  0
 41 81  2  0  0  0  0
 42 69  1  0  0  0  0
 42 72  1  0  0  0  0
 42 82  2  0  0  0  0
 43 47  1  0  0  0  0
 44 55  1  0  0  0  0
 45 68  1  0  0  0  0
 46 51  1  0  0  0  0
 47 49  1  0  0  0  0
 48 50  1  0  0  0  0
 48 52  1  0  0  0  0
 49 54  1  0  0  0  0
 50 56  1  0  0  0  0
 51 67  1  0  0  0  0
 52 69  1  0  0  0  0
 53 56  1  0  0  0  0
 53 69  1  0  0  0  0
 54 73  1  0  0  0  0
 55 68  1  0  0  0  0
 56 66  1  0  0  0  0
 57 63  1  0  0  0  0
 58 64  1  0  0  0  0
 59 64  1  0  0  0  0
 60 64  1  0  0  0  0
 61 75  1  0  0  0  0
 62 64  1  0  0  0  0
 62 74  1  0  0  0  0
 63 75  1  0  0  0  0
 65 66  1  0  0  0  0
M  CHG  1  75   1
M  ISO  4  36 101  42 100  72 100  84 101
M  END
> <Batch ID>
0083

> <Smiles>
CNC(C)C(=O)NC(C(=O)N1Cc2cc([101O:1][101CH:1]=C3CCN(c4cccc(C(=O)[100NH:0][100C:0](=O)N5CCCC(n6nc(-c7ccc(Oc8ccc(F)cc8F)cc7)c(C(N)=O)c6N)C5)c4)C3=O)ccc2CC1C(=O)NC1CCCc2ccccc21)C(C)(C)C

> <Shape>
0.212

> <Color>
0.085

> <Negative vol penalty>
0.000

$$$$

  -OEChem-04052300093D

 86 95  0     1  0  0  0  0  0999 V2000
  -32.8791  -36.5412   18.7654 C   0  0  0  0  0  0  0  0  0  0  0  0
  -32.7806  -35.1734   18.5311 C   0  0  0  0  0  0  0  0  0  0  0  0
  -23.8254   -9.7787   21.8935 C   0  0  0  0  0  0  0  0  0  0  0  0
  -24.7488  -11.0947   23.6970 C   0  0  0  0  0  0  0  0  0  0  0  0
  -32.3937  -37.0800   19.9562 C   0  0  0  0  0  0  0  0  0  0  0  0
  -32.1977  -34.3434   19.4880 C   0  0  0  0  0  0  0  0  0  0  0  0
  -28.8211  -29.3395   18.4558 C   0  0  0  0  0  0  0  0  0  0  0  0
  -29.1175  -20.3185   19.8555 C   0  0  0  0  0  0  0  0  0  0  0  0
  -28.7023  -19.0072   19.6235 C   0  0  0  0  0  0  0  0  0  0  0  0
  -23.4254   -8.8051   22.8088 C   0  0  0  0  0  0  0  0  0  0  0  0
  -24.3488  -10.1211   24.6123 C   0  0  0  0  0  0  0  0  0  0  0  0
  -29.1309  -27.9803   18.4666 C   0  0  0  0  0  0  0  0  0  0  0  0
  -20.9128   -8.3527   25.0258 C   0  0  0  0  0  0  0  0  0  0  0  0
  -19.6252   -7.8320   24.8971 C   0  0  0  0  0  0  0  0  0  0  0  0
  -28.3388  -27.8241   20.7398 C   0  0  0  0  0  0  0  0  0  0  0  0
  -30.9733  -18.3835   19.0844 C   0  0  0  0  0  0  0  0  0  0  0  0
  -20.5502   -5.6223   24.5829 C   0  0  0  0  0  0  0  0  0  0  0  0
  -24.4871  -10.9235   22.3376 C   0  0  0  0  0  0  0  0  0  0  0  0
  -24.1595  -13.0446   20.9587 C   0  0  0  0  0  0  0  0  0  0  0  0
  -31.7958  -36.2576   20.9241 C   0  0  0  0  0  0  0  0  0  0  0  0
  -28.2770  -29.9547   19.5924 C   0  0  0  0  0  0  0  0  0  0  0  0
  -31.7051  -34.8716   20.6935 C   0  0  0  0  0  0  0  0  0  0  0  0
  -28.0206  -29.1908   20.7400 C   0  0  0  0  0  0  0  0  0  0  0  0
  -30.4606  -20.6623   19.7019 C   0  0  0  0  0  0  0  0  0  0  0  0
  -29.6302  -18.0397   19.2380 C   0  0  0  0  0  0  0  0  0  0  0  0
  -23.6871   -8.9763   24.1682 C   0  0  0  0  0  0  0  0  0  0  0  0
  -28.8925  -27.2229   19.6097 C   0  0  0  0  0  0  0  0  0  0  0  0
  -22.0191   -7.5082   24.9329 C   0  0  0  0  0  0  0  0  0  0  0  0
  -19.4439   -6.4668   24.6757 C   0  0  0  0  0  0  0  0  0  0  0  0
  -31.3885  -19.6948   19.3164 C   0  0  0  0  0  0  0  0  0  0  0  0
  -21.8378   -6.1430   24.7115 C   0  0  0  0  0  0  0  0  0  0  0  0
  -24.9010  -11.9293   21.3926 C   0  0  0  0  0  0  0  0  0  0  0  0
  -24.9886  -13.6832   20.0692 C   0  0  0  0  0  0  0  0  0  0  0  0
  -30.8490  -24.2558   20.0832 C   0  0  0  0  0  0  0  0  0  0  0  0
  -32.1788  -23.8010   20.5121 C   0  0  0  0  0  0  0  0  0  0  0  0
  -30.0272  -23.0840   19.7187 C   0  0  0  0  0  0  0  0  0  0  0  0
  -30.4452  -25.5251   20.0305 C   0  0  0  0  0  0  0  0  0  1  0  0
  -22.8393  -13.4656   21.3268 C   0  0  0  0  0  0  0  0  0  0  0  0
  -29.2073  -32.2849   21.5439 C   0  0  0  0  0  0  0  0  0  0  0  0
  -26.2499  -31.8742   22.8118 C   0  0  0  0  0  0  0  0  0  0  0  0
  -23.5705  -29.8197   23.3087 C   0  0  0  0  0  0  0  0  0  0  0  0
  -29.9994  -15.6271   18.6143 C   0  0  0  0  0  0  0  0  0  0  0  0
  -31.3284  -36.8791   22.2163 C   0  0  0  0  0  0  0  0  0  0  0  0
  -27.9235  -31.4162   19.5556 C   0  0  0  0  0  0  0  0  0  0  0  0
  -27.4191  -29.7991   21.9795 C   0  0  0  0  0  0  0  0  0  0  0  0
  -32.2233  -22.3041   20.4237 C   0  0  0  0  0  0  0  0  0  0  0  0
  -30.3865  -35.9837   23.0171 C   0  0  0  0  0  0  0  0  0  0  0  0
  -29.3446  -12.1873   17.9692 C   0  0  0  0  0  0  0  0  0  0  0  0
  -30.9367  -34.5631   23.0935 C   0  0  0  0  0  0  0  0  0  0  0  0
  -28.0692  -11.9053   18.7666 C   0  0  0  0  0  0  0  0  0  0  0  0
  -30.2686  -13.1583   18.7020 C   0  0  0  0  0  0  0  0  0  0  0  0
  -28.3633  -14.1339   19.9216 C   0  0  0  0  0  0  0  0  0  0  0  0
  -31.0569  -33.9421   21.6966 C   0  0  1  0  0  0  0  0  0  0  0  0
  -27.8509  -32.0485   20.9421 C   0  0  1  0  0  0  0  0  0  0  0  0
  -27.3715  -13.2114   19.1942 C   0  0  2  0  0  0  0  0  0  0  0  0
  -21.3190  -29.7514   24.4148 C   0  0  0  0  0  0  0  0  0  0  0  0
  -27.5976  -31.5426   25.5291 C   0  0  0  0  0  0  0  0  0  0  0  0
  -25.4635  -30.5554   26.3891 C   0  0  0  0  0  0  0  0  0  0  0  0
  -25.5032  -32.9089   25.5632 C   0  0  0  0  0  0  0  0  0  0  0  0
  -22.1888  -29.3687   20.7306 C   0  0  0  0  0  0  0  0  0  0  0  0
  -25.6648  -31.0096   23.9023 C   0  0  1  0  0  0  0  0  0  0  0  0
  -22.0801  -30.0475   23.1319 C   0  0  2  0  0  0  0  0  0  0  0  0
  -26.0704  -31.4927   25.3234 C   0  0  0  0  0  0  0  0  0  0  0  0
  -26.1083  -11.8604   20.8253 N   0  0  0  0  0  0  0  0  0  0  0  0
  -26.1317  -12.9404   20.0258 N   0  0  0  0  0  0  0  0  0  0  0  0
  -30.8724  -21.9726   19.9343 N   0  0  0  0  0  0  0  0  0  0  0  0
  -27.0966  -31.2332   21.8963 N   0  0  0  0  0  0  0  0  0  0  0  0
  -29.5404  -14.3739   19.0721 N   0  0  0  0  0  0  0  0  0  0  0  0
  -24.8441  -14.8020   19.3277 N   0  0  0  0  0  0  0  0  0  0  0  0
  -22.1262  -12.6938   22.2542 N   0  0  0  0  0  0  0  0  0  0  0  0
  -29.2082  -16.7078   19.0023 N   0  0  0  0  0  0  0  0  0  0  0  0
  -29.7597  -33.5100   21.2222 N   0  0  0  0  0  0  0  0  0  0  0  0
  -24.2249  -30.9784   23.6701 N   0  0  0  0  0  0  0  0  0  0  0  0
  -21.5457  -29.1673   22.0546 N   0  3  0  0  0  0  0  0  0  0  0  0
  -33.0931  -24.5193   20.8781 O   0  0  0  0  0  0  0  0  0  0  0  0
  -28.8751  -23.1122   19.3226 O   0  0  0  0  0  0  0  0  0  0  0  0
  -22.3015  -14.4867   20.8351 O   0  0  0  0  0  0  0  0  0  0  0  0
  -29.7143  -31.4205   22.2492 O   0  0  0  0  0  0  0  0  0  0  0  0
  -25.9604  -33.0725   22.7694 O   0  0  0  0  0  0  0  0  0  0  0  0
  -24.1005  -28.7228   23.1464 O   0  0  0  0  0  0  0  0  0  0  0  0
  -31.0040  -15.7309   17.9058 O   0  0  0  0  0  0  0  0  0  0  0  0
  -23.2968   -8.0266   25.0616 O   0  0  0  0  0  0  0  0  0  0  0  0
  -29.1945  -25.8961   19.6233 O   0  0  0  0  0  0  0  0  0  1  0  0
  -18.2073   -5.9667   24.5537 F   0  0  0  0  0  0  0  0  0  0  0  0
  -32.6820  -20.0140   19.1651 F   0  0  0  0  0  0  0  0  0  0  0  0
  -22.8968   -5.3266   24.6225 F   0  0  0  0  0  0  0  0  0  0  0  0
  1  2  1  0  0  0  0
  1  5  2  0  0  0  0
  2  6  2  0  0  0  0
  3 10  2  0  0  0  0
  3 18  1  0  0  0  0
  4 11  1  0  0  0  0
  4 18  2  0  0  0  0
  5 20  1  0  0  0  0
  6 22  1  0  0  0  0
  7 12  2  0  0  0  0
  7 21  1  0  0  0  0
  8  9  2  0  0  0  0
  8 24  1  0  0  0  0
  9 25  1  0  0  0  0
 10 26  1  0  0  0  0
 11 26  2  0  0  0  0
 12 27  1  0  0  0  0
 13 14  2  0  0  0  0
 13 28  1  0  0  0  0
 14 29  1  0  0  0  0
 15 23  1  0  0  0  0
 15 27  2  0  0  0  0
 16 25  2  0  0  0  0
 16 30  1  0  0  0  0
 17 29  2  0  0  0  0
 17 31  1  0  0  0  0
 18 32  1  0  0  0  0
 19 32  1  0  0  0  0
 19 33  2  0  0  0  0
 19 38  1  0  0  0  0
 20 22  2  0  0  0  0
 20 43  1  0  0  0  0
 21 23  2  0  0  0  0
 21 44  1  0  0  0  0
 22 53  1  0  0  0  0
 23 45  1  0  0  0  0
 24 30  2  0  0  0  0
 24 66  1  0  0  0  0
 25 71  1  0  0  0  0
 26 82  1  0  0  0  0
 27 83  1  0  0  0  0
 28 31  2  0  0  0  0
 28 82  1  0  0  0  0
 29 84  1  0  0  0  0
 30 85  1  0  0  0  0
 31 86  1  0  0  0  0
 32 64  2  0  0  0  0
 33 65  1  0  0  0  0
 33 69  1  0  0  0  0
 34 35  1  0  0  0  0
 34 36  1  0  0  0  0
 34 37  2  0  0  0  0
 35 46  1  0  0  0  0
 35 75  2  0  0  0  0
 36 66  1  0  0  0  0
 36 76  2  0  0  0  0
 37 83  1  0  0  0  0
 38 70  1  0  0  0  0
 38 77  2  0  0  0  0
 39 54  1  0  0  0  0
 39 72  1  0  0  0  0
 39 78  2  0  0  0  0
 40 61  1  0  0  0  0
 40 67  1  0  0  0  0
 40 79  2  0  0  0  0
 41 62  1  0  0  0  0
 41 73  1  0  0  0  0
 41 80  2  0  0  0  0
 42 68  1  0  0  0  0
 42 71  1  0  0  0  0
 42 81  2  0  0  0  0
 43 47  1  0  0  0  0
 44 54  1  0  0  0  0
 45 67  1  0  0  0  0
 46 66  1  0  0  0  0
 47 49  1  0  0  0  0
 48 50  1  0  0  0  0
 48 51  1  0  0  0  0
 49 53  1  0  0  0  0
 50 55  1  0  0  0  0
 51 68  1  0  0  0  0
 52 55  1  0  0  0  0
 52 68  1  0  0  0  0
 53 72  1  0  0  0  0
 54 67  1  0  0  0  0
 55 65  1  0  0  0  0
 56 62  1  0  0  0  0
 57 63  1  0  0  0  0
 58 63  1  0  0  0  0
 59 63  1  0  0  0  0
 60 74  1  0  0  0  0
 61 63  1  0  0  0  0
 61 73  1  0  0  0  0
 62 74  1  0  0  0  0
 64 65  1  0  0  0  0
M  CHG  1  74   1
M  ISO  4  37 101  42 100  71 100  83 101
M  END
> <Batch ID>
0083

> <Smiles>
CNC(C)C(=O)NC(C(=O)N1Cc2cc([101O:1][101CH:1]=C3C(=O)CN(c4ccc([100NH:0][100C:0](=O)N5CCCC(n6nc(-c7ccc(Oc8ccc(F)cc8F)cc7)c(C(N)=O)c6N)C5)cc4F)C3=O)ccc2CC1C(=O)NC1CCCc2ccccc21)C(C)(C)C

> <Shape>
0.288

> <Color>
0.162

> <Negative vol penalty>
0.000

$$$$

  -OEChem-04052300093D

 84 93  0     1  0  0  0  0  0999 V2000
  -22.2378  -11.7866   18.8495 C   0  0  0  0  0  0  0  0  0  0  0  0
  -21.8310  -13.0851   19.1391 C   0  0  0  0  0  0  0  0  0  0  0  0
  -26.3503  -26.8051   15.5563 C   0  0  0  0  0  0  0  0  0  0  0  0
  -28.4451  -26.4656   16.7111 C   0  0  0  0  0  0  0  0  0  0  0  0
  -23.4725  -11.3262   19.3050 C   0  0  0  0  0  0  0  0  0  0  0  0
  -22.6582  -13.9236   19.8855 C   0  0  0  0  0  0  0  0  0  0  0  0
  -22.9745  -18.5837   17.9291 C   0  0  0  0  0  0  0  0  0  0  0  0
  -27.0115  -26.7180   14.3312 C   0  0  0  0  0  0  0  0  0  0  0  0
  -29.1063  -26.3784   15.4860 C   0  0  0  0  0  0  0  0  0  0  0  0
  -21.9036  -19.4457   18.1611 C   0  0  0  0  0  0  0  0  0  0  0  0
  -31.2904  -25.7064   12.6582 C   0  0  0  0  0  0  0  0  0  0  0  0
  -32.2221  -24.6814   12.4948 C   0  0  0  0  0  0  0  0  0  0  0  0
  -18.7235  -27.2518   23.5778 C   0  0  0  0  0  0  0  0  0  0  0  0
  -18.4296  -26.0411   22.9063 C   0  0  0  0  0  0  0  0  0  0  0  0
  -23.1490  -20.5060   19.9342 C   0  0  0  0  0  0  0  0  0  0  0  0
  -30.4908  -23.0442   12.8940 C   0  0  0  0  0  0  0  0  0  0  0  0
  -27.0671  -26.6790   16.7463 C   0  0  0  0  0  0  0  0  0  0  0  0
  -25.8098  -25.7143   18.7453 C   0  0  0  0  0  0  0  0  0  0  0  0
  -24.3195  -12.1626   20.0490 C   0  0  0  0  0  0  0  0  0  0  0  0
  -24.1385  -18.6694   18.7064 C   0  0  0  0  0  0  0  0  0  0  0  0
  -23.9048  -13.4735   20.3525 C   0  0  0  0  0  0  0  0  0  0  0  0
  -24.2343  -19.6456   19.7084 C   0  0  0  0  0  0  0  0  0  0  0  0
  -28.3895  -26.5046   14.2961 C   0  0  0  0  0  0  0  0  0  0  0  0
  -21.9896  -20.4051   19.1657 C   0  0  0  0  0  0  0  0  0  0  0  0
  -29.9589  -25.4004   12.9396 C   0  0  0  0  0  0  0  0  0  0  0  0
  -31.8223  -23.3502   12.6127 C   0  0  0  0  0  0  0  0  0  0  0  0
  -29.5591  -24.0693   13.0575 C   0  0  0  0  0  0  0  0  0  0  0  0
  -26.3848  -26.7696   18.0121 C   0  0  0  0  0  0  0  0  0  0  0  0
  -19.8175  -27.7873   22.9387 C   0  0  0  0  0  0  0  0  0  0  0  0
  -25.2911  -26.3169   19.8652 C   0  0  0  0  0  0  0  0  0  0  0  0
  -19.3647  -25.9232   21.9044 C   0  0  0  0  0  0  0  0  0  0  0  0
  -20.4974  -23.5086   19.9649 C   0  0  0  0  0  0  0  0  0  0  0  0
  -20.5313  -24.9707   20.0176 C   0  0  0  0  0  0  0  0  0  0  0  0
  -21.1613  -22.5904   19.2629 C   0  0  0  0  0  0  0  0  0  1  0  0
  -25.7500  -24.3144   18.4412 C   0  0  0  0  0  0  0  0  0  0  0  0
  -20.5849  -29.0360   23.1808 C   0  0  0  0  0  0  0  0  0  0  0  0
  -25.6587  -16.7078   20.6927 C   0  0  0  0  0  0  0  0  0  0  0  0
  -27.8826  -19.0693   20.7013 C   0  0  0  0  0  0  0  0  0  0  0  0
  -28.6029  -22.3724   20.2352 C   0  0  0  0  0  0  0  0  0  0  0  0
  -22.4769  -30.3946   22.3453 C   0  0  0  0  0  0  0  0  0  0  0  0
  -25.6243  -11.6050   20.5601 C   0  0  0  0  0  0  0  0  0  0  0  0
  -25.2952  -17.7498   18.4259 C   0  0  0  0  0  0  0  0  0  0  0  0
  -25.4697  -19.7920   20.5574 C   0  0  0  0  0  0  0  0  0  0  0  0
  -19.4105  -23.5232   21.0152 C   0  0  0  0  0  0  0  0  0  0  0  0
  -26.6048  -12.6785   21.0256 C   0  0  0  0  0  0  0  0  0  0  0  0
  -25.8879  -31.0170   21.6561 C   0  0  0  0  0  0  0  0  0  0  0  0
  -25.8972  -13.7005   21.9097 C   0  0  0  0  0  0  0  0  0  0  0  0
  -26.2795  -29.8766   20.7124 C   0  0  0  0  0  0  0  0  0  0  0  0
  -24.4690  -31.5154   21.3855 C   0  0  0  0  0  0  0  0  0  0  0  0
  -23.8266  -29.3393   20.4317 C   0  0  0  0  0  0  0  0  0  0  0  0
  -24.7850  -14.4212   21.1382 C   0  0  1  0  0  0  0  0  0  0  0  0
  -26.2327  -17.5878   19.6185 C   0  0  1  0  0  0  0  0  0  0  0  0
  -25.2211  -28.7553   20.7104 C   0  0  1  0  0  0  0  0  0  0  0  0
  -30.0053  -24.4431   20.0281 C   0  0  0  0  0  0  0  0  0  0  0  0
  -27.6976  -19.0612   23.7469 C   0  0  0  0  0  0  0  0  0  0  0  0
  -28.8454  -21.2862   23.7530 C   0  0  0  0  0  0  0  0  0  0  0  0
  -30.0191  -19.2817   22.8434 C   0  0  0  0  0  0  0  0  0  0  0  0
  -29.0372  -21.9289   17.3415 C   0  0  0  0  0  0  0  0  0  0  0  0
  -28.1211  -20.3102   21.5273 C   0  0  1  0  0  0  0  0  0  0  0  0
  -29.7126  -23.0621   19.4624 C   0  0  2  0  0  0  0  0  0  0  0  0
  -28.6466  -19.9810   22.9531 C   0  0  0  0  0  0  0  0  0  0  0  0
  -26.2446  -27.9529   18.6154 N   0  0  0  0  0  0  0  0  0  0  0  0
  -25.5755  -27.6449   19.7394 N   0  0  0  0  0  0  0  0  0  0  0  0
  -19.5573  -24.9670   20.9611 N   0  0  0  0  0  0  0  0  0  0  0  0
  -26.5713  -18.8654   20.2488 N   0  0  0  0  0  0  0  0  0  0  0  0
  -23.5266  -30.3953   21.4102 N   0  0  0  0  0  0  0  0  0  0  0  0
  -24.6239  -25.8352   20.9353 N   0  0  0  0  0  0  0  0  0  0  0  0
  -26.3334  -23.8641   17.2491 N   0  0  0  0  0  0  0  0  0  0  0  0
  -21.6572  -29.2609   22.3171 N   0  0  0  0  0  0  0  0  0  0  0  0
  -25.3468  -15.4308   20.2668 N   0  0  0  0  0  0  0  0  0  0  0  0
  -29.0126  -21.1576   20.7428 N   0  0  0  0  0  0  0  0  0  0  0  0
  -29.3303  -23.2123   18.0299 N   0  3  0  0  0  0  0  0  0  0  0  0
  -21.1209  -25.8348   19.4021 O   0  0  0  0  0  0  0  0  0  0  0  0
  -25.1814  -23.4897   19.1962 O   0  0  0  0  0  0  0  0  0  0  0  0
  -20.2218  -29.7976   24.0730 O   0  0  0  0  0  0  0  0  0  0  0  0
  -25.5112  -17.1539   21.8244 O   0  0  0  0  0  0  0  0  0  0  0  0
  -28.8265  -18.3126   20.4603 O   0  0  0  0  0  0  0  0  0  0  0  0
  -27.4855  -22.8640   20.3778 O   0  0  0  0  0  0  0  0  0  0  0  0
  -22.3067  -31.3065   23.1607 O   0  0  0  0  0  0  0  0  0  0  0  0
  -20.2144  -26.9836   21.9174 O   0  0  0  0  0  0  0  0  0  0  0  0
  -29.0350  -26.4192   13.1008 O   0  0  0  0  0  0  0  0  0  0  0  0
  -20.9455  -21.2473   19.3947 O   0  0  0  0  0  0  0  0  0  1  0  0
  -32.7168  -22.3659   12.4542 F   0  0  0  0  0  0  0  0  0  0  0  0
  -28.2811  -23.7691   13.3265 F   0  0  0  0  0  0  0  0  0  0  0  0
  1  2  1  0  0  0  0
  1  5  2  0  0  0  0
  2  6  2  0  0  0  0
  3  8  2  0  0  0  0
  3 17  1  0  0  0  0
  4  9  1  0  0  0  0
  4 17  2  0  0  0  0
  5 19  1  0  0  0  0
  6 21  1  0  0  0  0
  7 10  2  0  0  0  0
  7 20  1  0  0  0  0
  8 23  1  0  0  0  0
  9 23  2  0  0  0  0
 10 24  1  0  0  0  0
 11 12  2  0  0  0  0
 11 25  1  0  0  0  0
 12 26  1  0  0  0  0
 13 14  1  0  0  0  0
 13 29  2  0  0  0  0
 14 31  2  0  0  0  0
 15 22  1  0  0  0  0
 15 24  2  0  0  0  0
 16 26  2  0  0  0  0
 16 27  1  0  0  0  0
 17 28  1  0  0  0  0
 18 28  1  0  0  0  0
 18 30  2  0  0  0  0
 18 35  1  0  0  0  0
 19 21  2  0  0  0  0
 19 41  1  0  0  0  0
 20 22  2  0  0  0  0
 20 42  1  0  0  0  0
 21 51  1  0  0  0  0
 22 43  1  0  0  0  0
 23 81  1  0  0  0  0
 24 82  1  0  0  0  0
 25 27  2  0  0  0  0
 25 81  1  0  0  0  0
 26 83  1  0  0  0  0
 27 84  1  0  0  0  0
 28 62  2  0  0  0  0
 29 36  1  0  0  0  0
 29 80  1  0  0  0  0
 30 63  1  0  0  0  0
 30 67  1  0  0  0  0
 31 64  1  0  0  0  0
 31 80  1  0  0  0  0
 32 33  1  0  0  0  0
 32 34  2  0  0  0  0
 32 44  1  0  0  0  0
 33 64  1  0  0  0  0
 33 73  2  0  0  0  0
 34 82  1  0  0  0  0
 35 68  1  0  0  0  0
 35 74  2  0  0  0  0
 36 69  1  0  0  0  0
 36 75  2  0  0  0  0
 37 52  1  0  0  0  0
 37 70  1  0  0  0  0
 37 76  2  0  0  0  0
 38 59  1  0  0  0  0
 38 65  1  0  0  0  0
 38 77  2  0  0  0  0
 39 60  1  0  0  0  0
 39 71  1  0  0  0  0
 39 78  2  0  0  0  0
 40 66  1  0  0  0  0
 40 69  1  0  0  0  0
 40 79  2  0  0  0  0
 41 45  1  0  0  0  0
 42 52  1  0  0  0  0
 43 65  1  0  0  0  0
 44 64  1  0  0  0  0
 45 47  1  0  0  0  0
 46 48  1  0  0  0  0
 46 49  1  0  0  0  0
 47 51  1  0  0  0  0
 48 53  1  0  0  0  0
 49 66  1  0  0  0  0
 50 53  1  0  0  0  0
 50 66  1  0  0  0  0
 51 70  1  0  0  0  0
 52 65  1  0  0  0  0
 53 63  1  0  0  0  0
 54 60  1  0  0  0  0
 55 61  1  0  0  0  0
 56 61  1  0  0  0  0
 57 61  1  0  0  0  0
 58 72  1  0  0  0  0
 59 61  1  0  0  0  0
 59 71  1  0  0  0  0
 60 72  1  0  0  0  0
 62 63  1  0  0  0  0
M  CHG  1  72   1
M  ISO  4  34 101  40 100  69 100  82 101
M  END
> <Batch ID>
0083

> <Smiles>
CNC(C)C(=O)NC(C(=O)N1Cc2cc([101O:1][101CH:1]=C3CN(c4ccc(C(=O)[100NH:0][100C:0](=O)N5CCCC(n6nc(-c7ccc(Oc8ccc(F)cc8F)cc7)c(C(N)=O)c6N)C5)o4)C3=O)ccc2CC1C(=O)NC1CCCc2ccccc21)C(C)(C)C

> <Shape>
0.213

> <Color>
0.081

> <Negative vol penalty>
0.000

$$$$

  -OEChem-04052300093D

 84 93  0     1  0  0  0  0  0999 V2000
  -16.6402  -28.9256   24.2157 C   0  0  0  0  0  0  0  0  0  0  0  0
  -17.5335  -27.8592   24.2070 C   0  0  0  0  0  0  0  0  0  0  0  0
  -32.5357  -18.4685   21.6484 C   0  0  0  0  0  0  0  0  0  0  0  0
  -23.0566   -9.9662   21.5324 C   0  0  0  0  0  0  0  0  0  0  0  0
  -23.7558  -10.9675   23.6171 C   0  0  0  0  0  0  0  0  0  0  0  0
  -16.8949  -30.0533   23.4364 C   0  0  0  0  0  0  0  0  0  0  0  0
  -18.6816  -27.9194   23.4179 C   0  0  0  0  0  0  0  0  0  0  0  0
  -24.1774  -25.5559   24.7281 C   0  0  0  0  0  0  0  0  0  0  0  0
  -31.7206  -19.5643   21.9320 C   0  0  0  0  0  0  0  0  0  0  0  0
  -31.9693  -17.2759   21.1983 C   0  0  0  0  0  0  0  0  0  0  0  0
  -22.3069   -9.0239   22.2364 C   0  0  0  0  0  0  0  0  0  0  0  0
  -23.0060  -10.0252   24.3211 C   0  0  0  0  0  0  0  0  0  0  0  0
  -24.8069  -24.3740   24.3399 C   0  0  0  0  0  0  0  0  0  0  0  0
  -22.8729   -6.1599   23.9397 C   0  0  0  0  0  0  0  0  0  0  0  0
  -22.9649   -4.8276   23.5370 C   0  0  0  0  0  0  0  0  0  0  0  0
  -25.9416  -25.5651   22.5755 C   0  0  0  0  0  0  0  0  0  0  0  0
  -20.5904   -4.7981   23.0920 C   0  0  0  0  0  0  0  0  0  0  0  0
  -23.7811  -10.9380   22.2228 C   0  0  0  0  0  0  0  0  0  0  0  0
  -24.1249  -13.1701   21.0365 C   0  0  0  0  0  0  0  0  0  0  0  0
  -18.0516  -30.1313   22.6448 C   0  0  0  0  0  0  0  0  0  0  0  0
  -24.4173  -26.7510   24.0349 C   0  0  0  0  0  0  0  0  0  0  0  0
  -18.9514  -29.0486   22.6261 C   0  0  0  0  0  0  0  0  0  0  0  0
  -25.3158  -26.7612   22.9585 C   0  0  0  0  0  0  0  0  0  0  0  0
  -30.3391  -19.4675   21.7656 C   0  0  0  0  0  0  0  0  0  0  0  0
  -30.5878  -17.1791   21.0319 C   0  0  0  0  0  0  0  0  0  0  0  0
  -22.2816   -9.0534   23.6307 C   0  0  0  0  0  0  0  0  0  0  0  0
  -25.6869  -24.3779   23.2617 C   0  0  0  0  0  0  0  0  0  0  0  0
  -21.6396   -6.8113   23.9186 C   0  0  0  0  0  0  0  0  0  0  0  0
  -21.8237   -4.1467   23.1131 C   0  0  0  0  0  0  0  0  0  0  0  0
  -20.4984   -6.1304   23.4947 C   0  0  0  0  0  0  0  0  0  0  0  0
  -29.7726  -18.2749   21.3155 C   0  0  0  0  0  0  0  0  0  0  0  0
  -24.5562  -11.9113   21.4962 C   0  0  0  0  0  0  0  0  0  0  0  0
  -25.2259  -13.7033   20.4121 C   0  0  0  0  0  0  0  0  0  0  0  0
  -28.3814  -22.1027   22.5505 C   0  0  0  0  0  0  0  0  0  0  0  0
  -29.8123  -21.8028   22.4873 C   0  0  0  0  0  0  0  0  0  0  0  0
  -27.6681  -23.1867   22.9055 C   0  0  0  0  0  0  0  0  0  1  0  0
  -22.8436  -13.8009   21.1627 C   0  0  0  0  0  0  0  0  0  0  0  0
  -22.6255  -28.7672   22.3532 C   0  0  0  0  0  0  0  0  0  0  0  0
  -25.3493  -30.5280   22.2961 C   0  0  0  0  0  0  0  0  0  0  0  0
  -28.7542  -30.6053   22.5132 C   0  0  0  0  0  0  0  0  0  0  0  0
  -30.6851  -14.7866   20.2492 C   0  0  0  0  0  0  0  0  0  0  0  0
  -18.2602  -31.3511   21.7826 C   0  0  0  0  0  0  0  0  0  0  0  0
  -23.7508  -28.0228   24.4829 C   0  0  0  0  0  0  0  0  0  0  0  0
  -25.6231  -28.0220   22.1940 C   0  0  0  0  0  0  0  0  0  0  0  0
  -28.0940  -20.7020   22.0604 C   0  0  0  0  0  0  0  0  0  0  0  0
  -19.6885  -31.4924   21.2627 C   0  0  0  0  0  0  0  0  0  0  0  0
  -29.6346  -11.5761   19.1237 C   0  0  0  0  0  0  0  0  0  0  0  0
  -20.1894  -30.1620   20.7095 C   0  0  0  0  0  0  0  0  0  0  0  0
  -28.1843  -11.4807   19.6028 C   0  0  0  0  0  0  0  0  0  0  0  0
  -30.5176  -12.3101   20.1314 C   0  0  0  0  0  0  0  0  0  0  0  0
  -28.5746  -13.5355   21.0213 C   0  0  0  0  0  0  0  0  0  0  0  0
  -20.2203  -29.0867   21.8024 C   0  0  1  0  0  0  0  0  0  0  0  0
  -23.6749  -29.0772   23.3830 C   0  0  1  0  0  0  0  0  0  0  0  0
  -27.6332  -12.8613   20.0099 C   0  0  2  0  0  0  0  0  0  0  0  0
  -30.7007  -32.1844   22.3891 C   0  0  0  0  0  0  0  0  0  0  0  0
  -25.0770  -30.6210   19.2585 C   0  0  0  0  0  0  0  0  0  0  0  0
  -27.4686  -31.3513   19.1362 C   0  0  0  0  0  0  0  0  0  0  0  0
  -25.7898  -32.7760   20.3085 C   0  0  0  0  0  0  0  0  0  0  0  0
  -29.5741  -29.9968   25.2911 C   0  0  0  0  0  0  0  0  0  0  0  0
  -26.5468  -30.6154   21.3811 C   0  0  1  0  0  0  0  0  0  0  0  0
  -29.6932  -31.5012   23.3007 C   0  0  2  0  0  0  0  0  0  0  0  0
  -26.2135  -31.3166   20.0340 C   0  0  0  0  0  0  0  0  0  0  0  0
  -25.8317  -11.6598   21.1898 N   0  0  0  0  0  0  0  0  0  0  0  0
  -26.2113  -12.7679   20.5308 N   0  0  0  0  0  0  0  0  0  0  0  0
  -29.5382  -20.5502   22.0460 N   0  0  0  0  0  0  0  0  0  0  0  0
  -24.9417  -29.2386   22.6664 N   0  0  0  0  0  0  0  0  0  0  0  0
  -29.9353  -13.6113   20.4666 N   0  0  0  0  0  0  0  0  0  0  0  0
  -25.4376  -14.8764   19.7785 N   0  0  0  0  0  0  0  0  0  0  0  0
  -21.8235  -13.1133   21.8342 N   0  0  0  0  0  0  0  0  0  0  0  0
  -30.0160  -15.9659   20.5746 N   0  0  0  0  0  0  0  0  0  0  0  0
  -21.3739  -29.2679   22.6572 N   0  0  0  0  0  0  0  0  0  0  0  0
  -27.6011  -31.2682   22.1497 N   0  0  0  0  0  0  0  0  0  0  0  0
  -30.4411  -30.7043   24.3140 N   0  3  0  0  0  0  0  0  0  0  0  0
  -30.8307  -22.4132   22.7381 O   0  0  0  0  0  0  0  0  0  0  0  0
  -22.6053  -14.9338   20.6796 O   0  0  0  0  0  0  0  0  0  0  0  0
  -22.9292  -28.1230   21.3561 O   0  0  0  0  0  0  0  0  0  0  0  0
  -24.8002  -31.5658   22.6743 O   0  0  0  0  0  0  0  0  0  0  0  0
  -29.0190  -29.4357   22.2440 O   0  0  0  0  0  0  0  0  0  0  0  0
  -31.8261  -14.7511   19.7813 O   0  0  0  0  0  0  0  0  0  0  0  0
  -21.5500   -8.1342   24.3180 O   0  0  0  0  0  0  0  0  0  0  0  0
  -26.3022  -23.2256   22.8803 O   0  0  0  0  0  0  0  0  0  1  0  0
  -21.9125   -2.8678   22.7250 F   0  0  0  0  0  0  0  0  0  0  0  0
  -19.3110   -6.7512   23.4712 F   0  0  0  0  0  0  0  0  0  0  0  0
  -28.4434  -18.1816   21.1564 F   0  0  0  0  0  0  0  0  0  0  0  0
  1  2  1  0  0  0  0
  1  6  2  0  0  0  0
  2  7  2  0  0  0  0
  3  9  2  0  0  0  0
  3 10  1  0  0  0  0
  4 11  2  0  0  0  0
  4 18  1  0  0  0  0
  5 12  1  0  0  0  0
  5 18  2  0  0  0  0
  6 20  1  0  0  0  0
  7 22  1  0  0  0  0
  8 13  2  0  0  0  0
  8 21  1  0  0  0  0
  9 24  1  0  0  0  0
 10 25  2  0  0  0  0
 11 26  1  0  0  0  0
 12 26  2  0  0  0  0
 13 27  1  0  0  0  0
 14 15  2  0  0  0  0
 14 28  1  0  0  0  0
 15 29  1  0  0  0  0
 16 23  1  0  0  0  0
 16 27  2  0  0  0  0
 17 29  2  0  0  0  0
 17 30  1  0  0  0  0
 18 32  1  0  0  0  0
 19 32  1  0  0  0  0
 19 33  2  0  0  0  0
 19 37  1  0  0  0  0
 20 22  2  0  0  0  0
 20 42  1  0  0  0  0
 21 23  2  0  0  0  0
 21 43  1  0  0  0  0
 22 52  1  0  0  0  0
 23 44  1  0  0  0  0
 24 31  2  0  0  0  0
 24 65  1  0  0  0  0
 25 31  1  0  0  0  0
 25 70  1  0  0  0  0
 26 80  1  0  0  0  0
 27 81  1  0  0  0  0
 28 30  2  0  0  0  0
 28 80  1  0  0  0  0
 29 82  1  0  0  0  0
 30 83  1  0  0  0  0
 31 84  1  0  0  0  0
 32 63  2  0  0  0  0
 33 64  1  0  0  0  0
 33 68  1  0  0  0  0
 34 35  1  0  0  0  0
 34 36  2  0  0  0  0
 34 45  1  0  0  0  0
 35 65  1  0  0  0  0
 35 74  2  0  0  0  0
 36 81  1  0  0  0  0
 37 69  1  0  0  0  0
 37 75  2  0  0  0  0
 38 53  1  0  0  0  0
 38 71  1  0  0  0  0
 38 76  2  0  0  0  0
 39 60  1  0  0  0  0
 39 66  1  0  0  0  0
 39 77  2  0  0  0  0
 40 61  1  0  0  0  0
 40 72  1  0  0  0  0
 40 78  2  0  0  0  0
 41 67  1  0  0  0  0
 41 70  1  0  0  0  0
 41 79  2  0  0  0  0
 42 46  1  0  0  0  0
 43 53  1  0  0  0  0
 44 66  1  0  0  0  0
 45 65  1  0  0  0  0
 46 48  1  0  0  0  0
 47 49  1  0  0  0  0
 47 50  1  0  0  0  0
 48 52  1  0  0  0  0
 49 54  1  0  0  0  0
 50 67  1  0  0  0  0
 51 54  1  0  0  0  0
 51 67  1  0  0  0  0
 52 71  1  0  0  0  0
 53 66  1  0  0  0  0
 54 64  1  0  0  0  0
 55 61  1  0  0  0  0
 56 62  1  0  0  0  0
 57 62  1  0  0  0  0
 58 62  1  0  0  0  0
 59 73  1  0  0  0  0
 60 62  1  0  0  0  0
 60 72  1  0  0  0  0
 61 73  1  0  0  0  0
 63 64  1  0  0  0  0
M  CHG  1  73   1
M  ISO  4  36 101  41 100  70 100  81 101
M  END
> <Batch ID>
0083

> <Smiles>
CNC(C)C(=O)NC(C(=O)N1Cc2cc([101O:1][101CH:1]=C3CN(c4cccc([100NH:0][100C:0](=O)N5CCCC(n6nc(-c7ccc(Oc8ccc(F)cc8F)cc7)c(C(N)=O)c6N)C5)c4F)C3=O)ccc2CC1C(=O)NC1CCCc2ccccc21)C(C)(C)C

> <Shape>
0.281

> <Color>
0.190

> <Negative vol penalty>
0.000

$$$$

  -OEChem-04052300093D

 87 96  0     1  0  0  0  0  0999 V2000
  -28.2486  -11.2870   20.6577 C   0  0  0  0  0  0  0  0  0  0  0  0
  -28.8215  -12.4977   20.2818 C   0  0  0  0  0  0  0  0  0  0  0  0
  -31.0361  -29.7394   17.4242 C   0  0  0  0  0  0  0  0  0  0  0  0
  -23.4117  -27.1061   22.8339 C   0  0  0  0  0  0  0  0  0  0  0  0
  -22.3438  -28.1449   20.9320 C   0  0  0  0  0  0  0  0  0  0  0  0
  -26.8614  -11.1652   20.7269 C   0  0  0  0  0  0  0  0  0  0  0  0
  -28.0075  -13.5872   19.9739 C   0  0  0  0  0  0  0  0  0  0  0  0
  -29.1922  -19.4946   21.0715 C   0  0  0  0  0  0  0  0  0  0  0  0
  -31.0576  -28.4166   16.9824 C   0  0  0  0  0  0  0  0  0  0  0  0
  -31.2516  -30.0283   18.7718 C   0  0  0  0  0  0  0  0  0  0  0  0
  -22.1677  -26.9424   23.4431 C   0  0  0  0  0  0  0  0  0  0  0  0
  -21.0997  -27.9812   21.5412 C   0  0  0  0  0  0  0  0  0  0  0  0
  -29.6892  -20.5172   20.2647 C   0  0  0  0  0  0  0  0  0  0  0  0
  -19.2893  -29.5032   23.9571 C   0  0  0  0  0  0  0  0  0  0  0  0
  -18.4092  -30.5851   23.9344 C   0  0  0  0  0  0  0  0  0  0  0  0
  -27.4348  -21.2425   19.8056 C   0  0  0  0  0  0  0  0  0  0  0  0
  -31.5099  -27.6713   19.2357 C   0  0  0  0  0  0  0  0  0  0  0  0
  -16.7965  -29.2479   22.7309 C   0  0  0  0  0  0  0  0  0  0  0  0
  -23.4998  -27.7074   21.5784 C   0  0  0  0  0  0  0  0  0  0  0  0
  -25.4361  -26.9729   20.0888 C   0  0  0  0  0  0  0  0  0  0  0  0
  -26.0302  -12.2565   20.4291 C   0  0  0  0  0  0  0  0  0  0  0  0
  -27.8100  -19.3312   21.2430 C   0  0  0  0  0  0  0  0  0  0  0  0
  -26.6078  -13.4795   20.0379 C   0  0  0  0  0  0  0  0  0  0  0  0
  -26.9229  -20.2185   20.6171 C   0  0  0  0  0  0  0  0  0  0  0  0
  -31.2944  -27.3826   17.8881 C   0  0  0  0  0  0  0  0  0  0  0  0
  -31.4884  -28.9942   19.6775 C   0  0  0  0  0  0  0  0  0  0  0  0
  -21.0117  -27.3800   22.7968 C   0  0  0  0  0  0  0  0  0  0  0  0
  -28.8104  -21.3896   19.6293 C   0  0  0  0  0  0  0  0  0  0  0  0
  -18.9230  -28.2937   23.3667 C   0  0  0  0  0  0  0  0  0  0  0  0
  -17.1628  -30.4575   23.3213 C   0  0  0  0  0  0  0  0  0  0  0  0
  -17.6766  -28.1660   22.7537 C   0  0  0  0  0  0  0  0  0  0  0  0
  -24.7847  -27.8772   20.9488 C   0  0  0  0  0  0  0  0  0  0  0  0
  -26.6165  -27.5962   19.7654 C   0  0  0  0  0  0  0  0  0  0  0  0
  -31.4697  -23.3974   16.5271 C   0  0  0  0  0  0  0  0  0  0  0  0
  -31.7245  -25.7562   16.1421 C   0  0  0  0  0  0  0  0  0  0  0  0
  -31.0588  -23.5954   17.7869 C   0  0  0  0  0  0  0  0  0  0  0  0
  -31.8013  -24.5055   15.6784 C   0  0  0  0  0  0  0  0  0  0  0  0
  -30.9230  -25.0025   18.3149 C   0  0  0  0  0  0  0  0  0  0  0  0
  -25.0122  -25.6846   19.6238 C   0  0  0  0  0  0  0  0  0  0  0  0
  -25.7243  -17.0263   20.5790 C   0  0  0  0  0  0  0  0  0  0  0  0
  -23.6717  -18.9560   22.1869 C   0  0  0  0  0  0  0  0  0  0  0  0
  -22.8825  -22.1018   23.2491 C   0  0  0  0  0  0  0  0  0  0  0  0
  -31.1435  -30.4050   21.7224 C   0  0  0  0  0  0  0  0  0  0  0  0
  -24.5350  -12.0633   20.4722 C   0  0  0  0  0  0  0  0  0  0  0  0
  -27.2907  -18.2396   22.1380 C   0  0  0  0  0  0  0  0  0  0  0  0
  -25.4309  -20.0984   20.7850 C   0  0  0  0  0  0  0  0  0  0  0  0
  -23.7518  -13.3734   20.4928 C   0  0  0  0  0  0  0  0  0  0  0  0
  -28.2070  -32.3222   20.5416 C   0  0  0  0  0  0  0  0  0  0  0  0
  -24.2936  -14.3358   19.4405 C   0  0  0  0  0  0  0  0  0  0  0  0
  -27.0923  -31.2778   20.5549 C   0  0  0  0  0  0  0  0  0  0  0  0
  -29.2764  -32.0224   21.5876 C   0  0  0  0  0  0  0  0  0  0  0  0
  -28.7431  -29.6047   21.4808 C   0  0  0  0  0  0  0  0  0  0  0  0
  -25.7588  -14.6913   19.7203 C   0  0  1  0  0  0  0  0  0  0  0  0
  -25.8484  -17.8497   21.8297 C   0  0  1  0  0  0  0  0  0  0  0  0
  -27.6738  -29.8619   20.4085 C   0  0  1  0  0  0  0  0  0  0  0  0
  -21.1233  -23.3719   24.5097 C   0  0  0  0  0  0  0  0  0  0  0  0
  -21.8308  -18.8122   19.7579 C   0  0  0  0  0  0  0  0  0  0  0  0
  -20.6001  -20.7971   20.6602 C   0  0  0  0  0  0  0  0  0  0  0  0
  -20.6605  -18.6709   21.9635 C   0  0  0  0  0  0  0  0  0  0  0  0
  -32.7703  -28.5656   21.7664 C   0  0  0  0  0  0  0  0  0  0  0  0
  -24.8164  -22.9511   25.3222 C   0  0  0  0  0  0  0  0  0  0  0  0
  -30.7105  -22.4841   18.7086 C   0  0  0  0  0  0  0  0  0  1  0  0
  -22.7483  -20.0881   21.8064 C   0  0  1  0  0  0  0  0  0  0  0  0
  -22.4459  -22.6273   24.6047 C   0  0  2  0  0  0  0  0  0  0  0  0
  -21.4879  -19.5934   21.0421 C   0  0  0  0  0  0  0  0  0  0  0  0
  -25.4926  -28.9903   21.1586 N   0  0  0  0  0  0  0  0  0  0  0  0
  -26.6011  -28.7894   20.4259 N   0  0  0  0  0  0  0  0  0  0  0  0
  -31.3164  -26.0510   17.4424 N   0  0  0  0  0  0  0  0  0  0  0  0
  -24.9719  -19.0111   21.6651 N   0  0  0  0  0  0  0  0  0  0  0  0
  -29.7776  -30.6518   21.4742 N   0  0  0  0  0  0  0  0  0  0  0  0
  -27.6558  -27.2346   18.9834 N   0  0  0  0  0  0  0  0  0  0  0  0
  -23.7715  -25.1942   20.0535 N   0  0  0  0  0  0  0  0  0  0  0  0
  -25.8477  -15.6657   20.7866 N   0  0  0  0  0  0  0  0  0  0  0  0
  -22.4544  -20.8077   23.0409 N   0  0  0  0  0  0  0  0  0  0  0  0
  -31.7113  -29.2936   21.0709 N   0  0  0  0  0  0  0  0  0  0  0  0
  -23.4713  -23.5589   25.1538 N   0  3  0  0  0  0  0  0  0  0  0  0
  -30.5056  -25.1836   19.4602 O   0  0  0  0  0  0  0  0  0  0  0  0
  -25.7200  -24.9818   18.8631 O   0  0  0  0  0  0  0  0  0  0  0  0
  -25.5295  -17.5840   19.5054 O   0  0  0  0  0  0  0  0  0  0  0  0
  -23.2569  -18.0597   22.9260 O   0  0  0  0  0  0  0  0  0  0  0  0
  -23.5347  -22.7734   22.4528 O   0  0  0  0  0  0  0  0  0  0  0  0
  -31.7997  -31.0936   22.5136 O   0  0  0  0  0  0  0  0  0  0  0  0
  -32.1996  -24.1805   14.4046 O   0  0  0  0  0  0  0  0  0  0  0  0
  -19.7975  -27.2202   23.3908 O   0  0  0  0  0  0  0  0  0  0  0  0
  -29.2928  -22.3882   18.8407 O   0  0  0  0  0  0  0  0  0  1  0  0
  -16.3171  -31.4961   23.3009 F   0  0  0  0  0  0  0  0  0  0  0  0
  -17.3186  -27.0062   22.1858 F   0  0  0  0  0  0  0  0  0  0  0  0
  1  2  1  0  0  0  0
  1  6  2  0  0  0  0
  2  7  2  0  0  0  0
  3  9  2  0  0  0  0
  3 10  1  0  0  0  0
  4 11  2  0  0  0  0
  4 19  1  0  0  0  0
  5 12  1  0  0  0  0
  5 19  2  0  0  0  0
  6 21  1  0  0  0  0
  7 23  1  0  0  0  0
  8 13  2  0  0  0  0
  8 22  1  0  0  0  0
  9 25  1  0  0  0  0
 10 26  2  0  0  0  0
 11 27  1  0  0  0  0
 12 27  2  0  0  0  0
 13 28  1  0  0  0  0
 14 15  2  0  0  0  0
 14 29  1  0  0  0  0
 15 30  1  0  0  0  0
 16 24  1  0  0  0  0
 16 28  2  0  0  0  0
 17 25  2  0  0  0  0
 17 26  1  0  0  0  0
 18 30  2  0  0  0  0
 18 31  1  0  0  0  0
 19 32  1  0  0  0  0
 20 32  1  0  0  0  0
 20 33  2  0  0  0  0
 20 39  1  0  0  0  0
 21 23  2  0  0  0  0
 21 44  1  0  0  0  0
 22 24  2  0  0  0  0
 22 45  1  0  0  0  0
 23 53  1  0  0  0  0
 24 46  1  0  0  0  0
 25 68  1  0  0  0  0
 26 75  1  0  0  0  0
 27 84  1  0  0  0  0
 28 85  1  0  0  0  0
 29 31  2  0  0  0  0
 29 84  1  0  0  0  0
 30 86  1  0  0  0  0
 31 87  1  0  0  0  0
 32 66  2  0  0  0  0
 33 67  1  0  0  0  0
 33 71  1  0  0  0  0
 34 36  2  0  0  0  0
 34 37  1  0  0  0  0
 35 37  2  0  0  0  0
 35 68  1  0  0  0  0
 36 38  1  0  0  0  0
 36 62  1  0  0  0  0
 37 83  1  0  0  0  0
 38 68  1  0  0  0  0
 38 77  2  0  0  0  0
 39 72  1  0  0  0  0
 39 78  2  0  0  0  0
 40 54  1  0  0  0  0
 40 73  1  0  0  0  0
 40 79  2  0  0  0  0
 41 63  1  0  0  0  0
 41 69  1  0  0  0  0
 41 80  2  0  0  0  0
 42 64  1  0  0  0  0
 42 74  1  0  0  0  0
 42 81  2  0  0  0  0
 43 70  1  0  0  0  0
 43 75  1  0  0  0  0
 43 82  2  0  0  0  0
 44 47  1  0  0  0  0
 45 54  1  0  0  0  0
 46 69  1  0  0  0  0
 47 49  1  0  0  0  0
 48 50  1  0  0  0  0
 48 51  1  0  0  0  0
 49 53  1  0  0  0  0
 50 55  1  0  0  0  0
 51 70  1  0  0  0  0
 52 55  1  0  0  0  0
 52 70  1  0  0  0  0
 53 73  1  0  0  0  0
 54 69  1  0  0  0  0
 55 67  1  0  0  0  0
 56 64  1  0  0  0  0
 57 65  1  0  0  0  0
 58 65  1  0  0  0  0
 59 65  1  0  0  0  0
 60 75  1  0  0  0  0
 61 76  1  0  0  0  0
 62 85  1  0  0  0  0
 63 65  1  0  0  0  0
 63 74  1  0  0  0  0
 64 76  1  0  0  0  0
 66 67  1  0  0  0  0
M  CHG  1  76   1
M  ISO  4  43 100  62 101  75 100  85 101
M  END
> <Batch ID>
0083

> <Smiles>
CNC(C)C(=O)NC(C(=O)N1Cc2cc([101O:1][101CH:1]=C3CC(=O)CN(c4cccc([100N:0](C)[100C:0](=O)N5CCCC(n6nc(-c7ccc(Oc8ccc(F)cc8F)cc7)c(C(N)=O)c6N)C5)c4)C3=O)ccc2CC1C(=O)NC1CCCc2ccccc21)C(C)(C)C

> <Shape>
0.235

> <Color>
0.085

> <Negative vol penalty>
0.000

$$$$

  -OEChem-04052300093D

 84 93  0     1  0  0  0  0  0999 V2000
  -27.3783  -37.7506   23.8460 C   0  0  0  0  0  0  0  0  0  0  0  0
  -27.9648  -36.8071   23.0086 C   0  0  0  0  0  0  0  0  0  0  0  0
  -24.1859   -9.2995   22.2135 C   0  0  0  0  0  0  0  0  0  0  0  0
  -22.9231  -11.2834   21.6598 C   0  0  0  0  0  0  0  0  0  0  0  0
  -26.4957  -37.3416   24.8447 C   0  0  0  0  0  0  0  0  0  0  0  0
  -27.6698  -35.4538   23.1702 C   0  0  0  0  0  0  0  0  0  0  0  0
  -26.9110  -29.4153   19.3918 C   0  0  0  0  0  0  0  0  0  0  0  0
  -26.2998  -19.4060   19.1256 C   0  0  0  0  0  0  0  0  0  0  0  0
  -26.5644  -18.0444   18.9786 C   0  0  0  0  0  0  0  0  0  0  0  0
  -23.3208   -9.0459   23.2778 C   0  0  0  0  0  0  0  0  0  0  0  0
  -22.0579  -11.0298   22.7241 C   0  0  0  0  0  0  0  0  0  0  0  0
  -27.3662  -28.0978   19.3639 C   0  0  0  0  0  0  0  0  0  0  0  0
  -20.2302   -7.7480   23.7209 C   0  0  0  0  0  0  0  0  0  0  0  0
  -19.7721   -6.4410   23.8866 C   0  0  0  0  0  0  0  0  0  0  0  0
  -25.7657  -27.5151   21.0721 C   0  0  0  0  0  0  0  0  0  0  0  0
  -28.8456  -18.4116   19.6847 C   0  0  0  0  0  0  0  0  0  0  0  0
  -20.7712   -6.3696   26.0852 C   0  0  0  0  0  0  0  0  0  0  0  0
  -23.9871  -10.4183   21.4045 C   0  0  0  0  0  0  0  0  0  0  0  0
  -24.7521  -10.2291   18.9782 C   0  0  0  0  0  0  0  0  0  0  0  0
  -26.1822  -35.9836   25.0125 C   0  0  0  0  0  0  0  0  0  0  0  0
  -25.8855  -29.7956   20.2693 C   0  0  0  0  0  0  0  0  0  0  0  0
  -26.7831  -35.0262   24.1730 C   0  0  0  0  0  0  0  0  0  0  0  0
  -25.2975  -28.8374   21.1073 C   0  0  0  0  0  0  0  0  0  0  0  0
  -27.3081  -20.2704   19.5521 C   0  0  0  0  0  0  0  0  0  0  0  0
  -27.8373  -17.5472   19.2582 C   0  0  0  0  0  0  0  0  0  0  0  0
  -22.2568   -9.9110   23.5331 C   0  0  0  0  0  0  0  0  0  0  0  0
  -26.7956  -27.1481   20.2062 C   0  0  0  0  0  0  0  0  0  0  0  0
  -20.9588   -8.3658   24.7373 C   0  0  0  0  0  0  0  0  0  0  0  0
  -20.0426   -5.7518   25.0688 C   0  0  0  0  0  0  0  0  0  0  0  0
  -28.5810  -19.7732   19.8317 C   0  0  0  0  0  0  0  0  0  0  0  0
  -21.2293   -7.6766   25.9194 C   0  0  0  0  0  0  0  0  0  0  0  0
  -24.8808  -10.6812   20.3052 C   0  0  0  0  0  0  0  0  0  0  0  0
  -25.8475  -10.7468   18.3314 C   0  0  0  0  0  0  0  0  0  0  0  0
  -26.6694  -23.5750   19.8071 C   0  0  0  0  0  0  0  0  0  0  0  0
  -25.9252  -22.3530   19.4998 C   0  0  0  0  0  0  0  0  0  0  0  0
  -26.3437  -24.8791   19.8622 C   0  0  0  0  0  0  0  0  0  1  0  0
  -23.7334   -9.4141   18.3835 C   0  0  0  0  0  0  0  0  0  0  0  0
  -25.6518  -31.8329   22.6980 C   0  0  0  0  0  0  0  0  0  0  0  0
  -22.5157  -31.0131   22.5759 C   0  0  0  0  0  0  0  0  0  0  0  0
  -20.1531  -28.7222   21.6721 C   0  0  0  0  0  0  0  0  0  0  0  0
  -29.3136  -15.5077   19.3439 C   0  0  0  0  0  0  0  0  0  0  0  0
  -25.2589  -35.5851   26.1365 C   0  0  0  0  0  0  0  0  0  0  0  0
  -25.3875  -31.2149   20.2681 C   0  0  0  0  0  0  0  0  0  0  0  0
  -24.1798  -29.1901   22.0533 C   0  0  0  0  0  0  0  0  0  0  0  0
  -27.9078  -22.7348   20.0196 C   0  0  0  0  0  0  0  0  0  0  0  0
  -24.7098  -34.1674   26.0001 C   0  0  0  0  0  0  0  0  0  0  0  0
  -30.3676  -12.1136   19.1285 C   0  0  0  0  0  0  0  0  0  0  0  0
  -25.8291  -33.1929   25.6477 C   0  0  0  0  0  0  0  0  0  0  0  0
  -29.0676  -11.3201   19.2790 C   0  0  0  0  0  0  0  0  0  0  0  0
  -30.3753  -13.3618   20.0093 C   0  0  0  0  0  0  0  0  0  0  0  0
  -27.9134  -13.4510   19.9957 C   0  0  0  0  0  0  0  0  0  0  0  0
  -26.4690  -33.5514   24.3010 C   0  0  1  0  0  0  0  0  0  0  0  0
  -24.6890  -31.6041   21.5674 C   0  0  1  0  0  0  0  0  0  0  0  0
  -27.8320  -12.2195   19.0791 C   0  0  2  0  0  0  0  0  0  0  0  0
  -17.6776  -28.3154   21.7361 C   0  0  0  0  0  0  0  0  0  0  0  0
  -22.7064  -30.3347   25.5446 C   0  0  0  0  0  0  0  0  0  0  0  0
  -20.5556  -29.0725   25.3230 C   0  0  0  0  0  0  0  0  0  0  0  0
  -20.6109  -31.5266   24.8793 C   0  0  0  0  0  0  0  0  0  0  0  0
  -19.9788  -28.6052   18.7200 C   0  0  0  0  0  0  0  0  0  0  0  0
  -21.6650  -29.9422   23.2149 C   0  0  1  0  0  0  0  0  0  0  0  0
  -18.8391  -28.8709   20.9266 C   0  0  2  0  0  0  0  0  0  0  0  0
  -21.4068  -30.2125   24.7241 C   0  0  0  0  0  0  0  0  0  0  0  0
  -25.9720  -11.4284   20.4918 N   0  0  0  0  0  0  0  0  0  0  0  0
  -26.5390  -11.4499   19.2736 N   0  0  0  0  0  0  0  0  0  0  0  0
  -27.0443  -21.6128   19.6962 N   0  0  0  0  0  0  0  0  0  0  0  0
  -23.7320  -30.5922   22.0197 N   0  0  0  0  0  0  0  0  0  0  0  0
  -29.1773  -14.1672   19.7625 N   0  0  0  0  0  0  0  0  0  0  0  0
  -26.2771  -10.6647   17.0542 N   0  0  0  0  0  0  0  0  0  0  0  0
  -22.6788   -8.9674   19.1913 N   0  0  0  0  0  0  0  0  0  0  0  0
  -28.1059  -16.1640   19.1087 N   0  0  0  0  0  0  0  0  0  0  0  0
  -25.6250  -33.1165   23.2088 N   0  0  0  0  0  0  0  0  0  0  0  0
  -20.4527  -29.8487   22.4087 N   0  0  0  0  0  0  0  0  0  0  0  0
  -18.8959  -28.1444   19.6267 N   0  3  0  0  0  0  0  0  0  0  0  0
  -24.7813  -22.0992   19.1844 O   0  0  0  0  0  0  0  0  0  0  0  0
  -23.7663   -9.0780   17.1754 O   0  0  0  0  0  0  0  0  0  0  0  0
  -26.3652  -30.9125   23.0797 O   0  0  0  0  0  0  0  0  0  0  0  0
  -22.1125  -32.1788   22.5641 O   0  0  0  0  0  0  0  0  0  0  0  0
  -20.8427  -27.7068   21.6104 O   0  0  0  0  0  0  0  0  0  0  0  0
  -30.4206  -16.0264   19.1781 O   0  0  0  0  0  0  0  0  0  0  0  0
  -21.4123   -9.6637   24.5715 O   0  0  0  0  0  0  0  0  0  0  0  0
  -27.2384  -25.8616   20.1816 O   0  0  0  0  0  0  0  0  0  1  0  0
  -19.6013   -4.4972   25.2284 F   0  0  0  0  0  0  0  0  0  0  0  0
  -29.5580  -20.5949   20.2417 F   0  0  0  0  0  0  0  0  0  0  0  0
  -21.9278   -8.2654   26.8999 F   0  0  0  0  0  0  0  0  0  0  0  0
  1  2  1  0  0  0  0
  1  5  2  0  0  0  0
  2  6  2  0  0  0  0
  3 10  2  0  0  0  0
  3 18  1  0  0  0  0
  4 11  1  0  0  0  0
  4 18  2  0  0  0  0
  5 20  1  0  0  0  0
  6 22  1  0  0  0  0
  7 12  2  0  0  0  0
  7 21  1  0  0  0  0
  8  9  2  0  0  0  0
  8 24  1  0  0  0  0
  9 25  1  0  0  0  0
 10 26  1  0  0  0  0
 11 26  2  0  0  0  0
 12 27  1  0  0  0  0
 13 14  2  0  0  0  0
 13 28  1  0  0  0  0
 14 29  1  0  0  0  0
 15 23  1  0  0  0  0
 15 27  2  0  0  0  0
 16 25  2  0  0  0  0
 16 30  1  0  0  0  0
 17 29  2  0  0  0  0
 17 31  1  0  0  0  0
 18 32  1  0  0  0  0
 19 32  1  0  0  0  0
 19 33  2  0  0  0  0
 19 37  1  0  0  0  0
 20 22  2  0  0  0  0
 20 42  1  0  0  0  0
 21 23  2  0  0  0  0
 21 43  1  0  0  0  0
 22 52  1  0  0  0  0
 23 44  1  0  0  0  0
 24 30  2  0  0  0  0
 24 65  1  0  0  0  0
 25 70  1  0  0  0  0
 26 80  1  0  0  0  0
 27 81  1  0  0  0  0
 28 31  2  0  0  0  0
 28 80  1  0  0  0  0
 29 82  1  0  0  0  0
 30 83  1  0  0  0  0
 31 84  1  0  0  0  0
 32 63  2  0  0  0  0
 33 64  1  0  0  0  0
 33 68  1  0  0  0  0
 34 35  1  0  0  0  0
 34 36  2  0  0  0  0
 34 45  1  0  0  0  0
 35 65  1  0  0  0  0
 35 74  2  0  0  0  0
 36 81  1  0  0  0  0
 37 69  1  0  0  0  0
 37 75  2  0  0  0  0
 38 53  1  0  0  0  0
 38 71  1  0  0  0  0
 38 76  2  0  0  0  0
 39 60  1  0  0  0  0
 39 66  1  0  0  0  0
 39 77  2  0  0  0  0
 40 61  1  0  0  0  0
 40 72  1  0  0  0  0
 40 78  2  0  0  0  0
 41 67  1  0  0  0  0
 41 70  1  0  0  0  0
 41 79  2  0  0  0  0
 42 46  1  0  0  0  0
 43 53  1  0  0  0  0
 44 66  1  0  0  0  0
 45 65  1  0  0  0  0
 46 48  1  0  0  0  0
 47 49  1  0  0  0  0
 47 50  1  0  0  0  0
 48 52  1  0  0  0  0
 49 54  1  0  0  0  0
 50 67  1  0  0  0  0
 51 54  1  0  0  0  0
 51 67  1  0  0  0  0
 52 71  1  0  0  0  0
 53 66  1  0  0  0  0
 54 64  1  0  0  0  0
 55 61  1  0  0  0  0
 56 62  1  0  0  0  0
 57 62  1  0  0  0  0
 58 62  1  0  0  0  0
 59 73  1  0  0  0  0
 60 62  1  0  0  0  0
 60 72  1  0  0  0  0
 61 73  1  0  0  0  0
 63 64  1  0  0  0  0
M  CHG  1  73   1
M  ISO  4  36 101  41 100  70 100  81 101
M  END
> <Batch ID>
0083

> <Smiles>
CNC(C)C(=O)NC(C(=O)N1Cc2cc([101O:1][101CH:1]=C3CN(c4ccc([100NH:0][100C:0](=O)N5CCCC(n6nc(-c7ccc(Oc8ccc(F)cc8F)cc7)c(C(N)=O)c6N)C5)cc4F)C3=O)ccc2CC1C(=O)NC1CCCc2ccccc21)C(C)(C)C

> <Shape>
0.297

> <Color>
0.088

> <Negative vol penalty>
0.000

$$$$

  -OEChem-04052300093D

 87 96  0     1  0  0  0  0  0999 V2000
  -27.0076  -36.2137   21.7124 C   0  0  0  0  0  0  0  0  0  0  0  0
  -27.7939  -35.0876   21.9341 C   0  0  0  0  0  0  0  0  0  0  0  0
  -23.2409   -9.6456   20.2652 C   0  0  0  0  0  0  0  0  0  0  0  0
  -23.8516  -10.0745   22.5631 C   0  0  0  0  0  0  0  0  0  0  0  0
  -25.6179  -36.1132   21.7631 C   0  0  0  0  0  0  0  0  0  0  0  0
  -27.1908  -33.8605   22.2078 C   0  0  0  0  0  0  0  0  0  0  0  0
  -29.1746  -28.3225   20.5047 C   0  0  0  0  0  0  0  0  0  0  0  0
  -22.5472   -8.5027   20.6629 C   0  0  0  0  0  0  0  0  0  0  0  0
  -23.1578   -8.9317   22.9608 C   0  0  0  0  0  0  0  0  0  0  0  0
  -29.8963  -27.3370   21.1768 C   0  0  0  0  0  0  0  0  0  0  0  0
  -19.5607   -7.7636   22.0656 C   0  0  0  0  0  0  0  0  0  0  0  0
  -18.2919   -7.5546   21.5252 C   0  0  0  0  0  0  0  0  0  0  0  0
  -27.8337  -26.2229   21.7456 C   0  0  0  0  0  0  0  0  0  0  0  0
  -29.3306  -18.2965   22.0826 C   0  0  0  0  0  0  0  0  0  0  0  0
  -31.4854  -17.8409   21.0896 C   0  0  0  0  0  0  0  0  0  0  0  0
  -19.0407   -5.4627   20.5762 C   0  0  0  0  0  0  0  0  0  0  0  0
  -23.8932  -10.4315   21.2153 C   0  0  0  0  0  0  0  0  0  0  0  0
  -24.1026  -12.9203   20.6960 C   0  0  0  0  0  0  0  0  0  0  0  0
  -24.9973  -34.8822   22.0280 C   0  0  0  0  0  0  0  0  0  0  0  0
  -27.7740  -28.2713   20.4572 C   0  0  0  0  0  0  0  0  0  0  0  0
  -25.7915  -33.7437   22.2634 C   0  0  0  0  0  0  0  0  0  0  0  0
  -27.0967  -27.2075   21.0701 C   0  0  0  0  0  0  0  0  0  0  0  0
  -31.0073  -20.0332   21.9853 C   0  0  0  0  0  0  0  0  0  0  0  0
  -30.2082  -17.4139   21.4531 C   0  0  0  0  0  0  0  0  0  0  0  0
  -29.7301  -19.6062   22.3487 C   0  0  0  0  0  0  0  0  0  0  0  0
  -22.5056   -8.1458   22.0107 C   0  0  0  0  0  0  0  0  0  0  0  0
  -29.2257  -26.2886   21.7999 C   0  0  0  0  0  0  0  0  0  0  0  0
  -20.5696   -6.8222   21.8613 C   0  0  0  0  0  0  0  0  0  0  0  0
  -18.0319   -6.4041   20.7805 C   0  0  0  0  0  0  0  0  0  0  0  0
  -31.8850  -19.1506   21.3558 C   0  0  0  0  0  0  0  0  0  0  0  0
  -20.3096   -5.6718   21.1166 C   0  0  0  0  0  0  0  0  0  0  0  0
  -24.6105  -11.6119   20.8050 C   0  0  0  0  0  0  0  0  0  0  0  0
  -25.1728  -13.6698   20.2725 C   0  0  0  0  0  0  0  0  0  0  0  0
  -32.5851  -23.1484   23.0196 C   0  0  0  0  0  0  0  0  0  0  0  0
  -31.5860  -23.6216   22.2777 C   0  0  0  0  0  0  0  0  0  0  0  0
  -32.5067  -21.6807   23.0262 C   0  0  0  0  0  0  0  0  0  0  0  0
  -30.8205  -22.4750   21.7510 C   0  0  0  0  0  0  0  0  0  0  0  0
  -22.7816  -13.4140   20.9544 C   0  0  0  0  0  0  0  0  0  0  0  0
  -25.4247  -30.1507   21.4830 C   0  0  0  0  0  0  0  0  0  0  0  0
  -23.5589  -28.0382   19.8773 C   0  0  0  0  0  0  0  0  0  0  0  0
  -23.1749  -24.8939   18.6073 C   0  0  0  0  0  0  0  0  0  0  0  0
  -30.5510  -15.0815   20.5649 C   0  0  0  0  0  0  0  0  0  0  0  0
  -23.4927  -34.8326   22.1194 C   0  0  0  0  0  0  0  0  0  0  0  0
  -27.0116  -29.3276   19.7053 C   0  0  0  0  0  0  0  0  0  0  0  0
  -25.5952  -27.0958   21.0309 C   0  0  0  0  0  0  0  0  0  0  0  0
  -22.9243  -33.4178   22.0450 C   0  0  0  0  0  0  0  0  0  0  0  0
  -29.7242  -12.2477   18.5741 C   0  0  0  0  0  0  0  0  0  0  0  0
  -23.7031  -32.4807   22.9626 C   0  0  0  0  0  0  0  0  0  0  0  0
  -28.2783  -11.9373   18.9681 C   0  0  0  0  0  0  0  0  0  0  0  0
  -30.5469  -12.7276   19.7685 C   0  0  0  0  0  0  0  0  0  0  0  0
  -28.5188  -13.5420   20.9056 C   0  0  0  0  0  0  0  0  0  0  0  0
  -25.1740  -32.3898   22.5386 C   0  0  1  0  0  0  0  0  0  0  0  0
  -25.5605  -29.4539   20.1587 C   0  0  1  0  0  0  0  0  0  0  0  0
  -27.6341  -13.1170   19.7223 C   0  0  2  0  0  0  0  0  0  0  0  0
  -21.5268  -23.4522   17.3816 C   0  0  0  0  0  0  0  0  0  0  0  0
  -21.9480  -27.6997   22.4464 C   0  0  0  0  0  0  0  0  0  0  0  0
  -20.9638  -25.6140   21.4719 C   0  0  0  0  0  0  0  0  0  0  0  0
  -20.5733  -27.8127   20.3602 C   0  0  0  0  0  0  0  0  0  0  0  0
  -25.0195  -24.5269   16.3222 C   0  0  0  0  0  0  0  0  0  0  0  0
  -31.2381  -25.0332   21.9739 C   0  0  0  0  0  0  0  0  0  1  0  0
  -22.8616  -26.7460   20.2279 C   0  0  1  0  0  0  0  0  0  0  0  0
  -22.7033  -24.4068   17.2492 C   0  0  2  0  0  0  0  0  0  0  0  0
  -21.6149  -26.9709   21.1292 C   0  0  0  0  0  0  0  0  0  0  0  0
  -25.9028  -11.5314   20.4772 N   0  0  0  0  0  0  0  0  0  0  0  0
  -26.2159  -12.7987   20.1578 N   0  0  0  0  0  0  0  0  0  0  0  0
  -31.4252  -21.3341   22.2421 N   0  0  0  0  0  0  0  0  0  0  0  0
  -24.8940  -28.1565   20.2887 N   0  0  0  0  0  0  0  0  0  0  0  0
  -29.8773  -13.8490   20.4311 N   0  0  0  0  0  0  0  0  0  0  0  0
  -28.8249  -20.4836   22.9873 N   0  0  0  0  0  0  0  0  0  0  0  0
  -25.3139  -14.9825   19.9907 N   0  0  0  0  0  0  0  0  0  0  0  0
  -21.8017  -12.5082   21.3831 N   0  0  0  0  0  0  0  0  0  0  0  0
  -29.8029  -16.0834   21.1822 N   0  0  0  0  0  0  0  0  0  0  0  0
  -25.3155  -31.5249   21.3870 N   0  0  0  0  0  0  0  0  0  0  0  0
  -22.5716  -26.0821   18.9616 N   0  0  0  0  0  0  0  0  0  0  0  0
  -23.8065  -23.6977   16.5414 N   0  3  0  0  0  0  0  0  0  0  0  0
  -33.2861  -20.9633   23.6320 O   0  0  0  0  0  0  0  0  0  0  0  0
  -29.8443  -22.5754   21.0250 O   0  0  0  0  0  0  0  0  0  0  0  0
  -22.4748  -14.6197   20.7937 O   0  0  0  0  0  0  0  0  0  0  0  0
  -25.4180  -29.4905   22.5153 O   0  0  0  0  0  0  0  0  0  0  0  0
  -22.9439  -28.9077   19.2548 O   0  0  0  0  0  0  0  0  0  0  0  0
  -23.9937  -24.2798   19.2878 O   0  0  0  0  0  0  0  0  0  0  0  0
  -31.6966  -15.2447   20.1372 O   0  0  0  0  0  0  0  0  0  0  0  0
  -21.8285   -7.0308   22.3991 O   0  0  0  0  0  0  0  0  0  0  0  0
  -29.9277  -25.3258   22.4572 O   0  0  0  0  0  0  0  0  0  1  0  0
  -16.8130   -6.2028   20.2629 F   0  0  0  0  0  0  0  0  0  0  0  0
  -33.1152  -19.5493   21.0019 F   0  0  0  0  0  0  0  0  0  0  0  0
  -21.2744   -4.7632   20.9179 F   0  0  0  0  0  0  0  0  0  0  0  0
  1  2  1  0  0  0  0
  1  5  2  0  0  0  0
  2  6  2  0  0  0  0
  3  8  2  0  0  0  0
  3 17  1  0  0  0  0
  4  9  1  0  0  0  0
  4 17  2  0  0  0  0
  5 19  1  0  0  0  0
  6 21  1  0  0  0  0
  7 10  2  0  0  0  0
  7 20  1  0  0  0  0
  8 26  1  0  0  0  0
  9 26  2  0  0  0  0
 10 27  1  0  0  0  0
 11 12  2  0  0  0  0
 11 28  1  0  0  0  0
 12 29  1  0  0  0  0
 13 22  1  0  0  0  0
 13 27  2  0  0  0  0
 14 24  1  0  0  0  0
 14 25  2  0  0  0  0
 15 24  2  0  0  0  0
 15 30  1  0  0  0  0
 16 29  2  0  0  0  0
 16 31  1  0  0  0  0
 17 32  1  0  0  0  0
 18 32  1  0  0  0  0
 18 33  2  0  0  0  0
 18 38  1  0  0  0  0
 19 21  2  0  0  0  0
 19 43  1  0  0  0  0
 20 22  2  0  0  0  0
 20 44  1  0  0  0  0
 21 52  1  0  0  0  0
 22 45  1  0  0  0  0
 23 25  1  0  0  0  0
 23 30  2  0  0  0  0
 23 66  1  0  0  0  0
 24 72  1  0  0  0  0
 25 69  1  0  0  0  0
 26 83  1  0  0  0  0
 27 84  1  0  0  0  0
 28 31  2  0  0  0  0
 28 83  1  0  0  0  0
 29 85  1  0  0  0  0
 30 86  1  0  0  0  0
 31 87  1  0  0  0  0
 32 64  2  0  0  0  0
 33 65  1  0  0  0  0
 33 70  1  0  0  0  0
 34 35  2  0  0  0  0
 34 36  1  0  0  0  0
 35 37  1  0  0  0  0
 35 60  1  0  0  0  0
 36 66  1  0  0  0  0
 36 76  2  0  0  0  0
 37 66  1  0  0  0  0
 37 77  2  0  0  0  0
 38 71  1  0  0  0  0
 38 78  2  0  0  0  0
 39 53  1  0  0  0  0
 39 73  1  0  0  0  0
 39 79  2  0  0  0  0
 40 61  1  0  0  0  0
 40 67  1  0  0  0  0
 40 80  2  0  0  0  0
 41 62  1  0  0  0  0
 41 74  1  0  0  0  0
 41 81  2  0  0  0  0
 42 68  1  0  0  0  0
 42 72  1  0  0  0  0
 42 82  2  0  0  0  0
 43 46  1  0  0  0  0
 44 53  1  0  0  0  0
 45 67  1  0  0  0  0
 46 48  1  0  0  0  0
 47 49  1  0  0  0  0
 47 50  1  0  0  0  0
 48 52  1  0  0  0  0
 49 54  1  0  0  0  0
 50 68  1  0  0  0  0
 51 54  1  0  0  0  0
 51 68  1  0  0  0  0
 52 73  1  0  0  0  0
 53 67  1  0  0  0  0
 54 65  1  0  0  0  0
 55 62  1  0  0  0  0
 56 63  1  0  0  0  0
 57 63  1  0  0  0  0
 58 63  1  0  0  0  0
 59 75  1  0  0  0  0
 60 84  1  0  0  0  0
 61 63  1  0  0  0  0
 61 74  1  0  0  0  0
 62 75  1  0  0  0  0
 64 65  1  0  0  0  0
M  CHG  1  75   1
M  ISO  4  42 100  60 101  72 100  84 101
M  END
> <Batch ID>
0083

> <Smiles>
CNC(C)C(=O)NC(C(=O)N1Cc2cc([101O:1][101CH2:1]C3=CC(=O)N(c4c(N)cc([100NH:0][100C:0](=O)N5CCCC(n6nc(-c7ccc(Oc8ccc(F)cc8F)cc7)c(C(N)=O)c6N)C5)cc4F)C3=O)ccc2CC1C(=O)NC1CCCc2ccccc21)C(C)(C)C

> <Shape>
0.288

> <Color>
0.176

> <Negative vol penalty>
0.000

$$$$

  -OEChem-04052300093D

 85 93  0     1  0  0  0  0  0999 V2000
  -36.1551  -34.1355   19.5908 C   0  0  0  0  0  0  0  0  0  0  0  0
  -35.3353  -33.0191   19.7209 C   0  0  0  0  0  0  0  0  0  0  0  0
  -23.9362   -9.6435   21.5636 C   0  0  0  0  0  0  0  0  0  0  0  0
  -24.4989  -10.7909   23.6140 C   0  0  0  0  0  0  0  0  0  0  0  0
  -31.1736  -20.1152   21.2198 C   0  0  0  0  0  0  0  0  0  0  0  0
  -36.0466  -35.1883   20.4984 C   0  0  0  0  0  0  0  0  0  0  0  0
  -34.4072  -32.9543   20.7596 C   0  0  0  0  0  0  0  0  0  0  0  0
  -29.8750  -31.3052   19.2152 C   0  0  0  0  0  0  0  0  0  0  0  0
  -30.8757  -18.8213   20.7925 C   0  0  0  0  0  0  0  0  0  0  0  0
  -23.4662   -8.5567   22.3008 C   0  0  0  0  0  0  0  0  0  0  0  0
  -24.0287   -9.7041   24.3512 C   0  0  0  0  0  0  0  0  0  0  0  0
  -29.7321  -29.9334   19.0116 C   0  0  0  0  0  0  0  0  0  0  0  0
  -20.6856   -7.7458   24.0454 C   0  0  0  0  0  0  0  0  0  0  0  0
  -19.4661   -7.1846   23.6669 C   0  0  0  0  0  0  0  0  0  0  0  0
  -28.8149  -20.5769   21.4663 C   0  0  0  0  0  0  0  0  0  0  0  0
  -28.6605  -29.7319   21.1634 C   0  0  0  0  0  0  0  0  0  0  0  0
  -20.5625   -5.0682   23.2722 C   0  0  0  0  0  0  0  0  0  0  0  0
  -24.4526  -10.7606   22.2202 C   0  0  0  0  0  0  0  0  0  0  0  0
  -30.1432  -20.9930   21.5567 C   0  0  0  0  0  0  0  0  0  0  0  0
  -24.2023  -13.0051   21.0339 C   0  0  0  0  0  0  0  0  0  0  0  0
  -35.1100  -35.1406   21.5430 C   0  0  0  0  0  0  0  0  0  0  0  0
  -29.4208  -31.9000   20.4011 C   0  0  0  0  0  0  0  0  0  0  0  0
  -34.2870  -34.0069   21.6829 C   0  0  0  0  0  0  0  0  0  0  0  0
  -28.7965  -31.1118   21.3785 C   0  0  0  0  0  0  0  0  0  0  0  0
  -29.5474  -18.4051   20.7021 C   0  0  0  0  0  0  0  0  0  0  0  0
  -23.5124   -8.5870   23.6945 C   0  0  0  0  0  0  0  0  0  0  0  0
  -29.1274  -29.1460   19.9871 C   0  0  0  0  0  0  0  0  0  0  0  0
  -21.8437   -6.9683   24.0373 C   0  0  0  0  0  0  0  0  0  0  0  0
  -19.4045   -5.8458   23.2803 C   0  0  0  0  0  0  0  0  0  0  0  0
  -28.5170  -19.2829   21.0390 C   0  0  0  0  0  0  0  0  0  0  0  0
  -21.7821   -5.6295   23.6507 C   0  0  0  0  0  0  0  0  0  0  0  0
  -24.9389  -11.8834   21.4593 C   0  0  0  0  0  0  0  0  0  0  0  0
  -25.1129  -13.7761   20.3536 C   0  0  0  0  0  0  0  0  0  0  0  0
  -29.5066  -25.6320   20.5786 C   0  0  0  0  0  0  0  0  0  0  0  0
  -29.5845  -26.9601   20.6824 C   0  0  0  0  0  0  0  0  0  1  0  0
  -30.4578  -22.3636   22.0095 C   0  0  0  0  0  0  0  0  0  0  0  0
  -22.8186  -13.3219   21.2358 C   0  0  0  0  0  0  0  0  0  0  0  0
  -30.1825  -24.7889   21.5844 C   0  0  0  0  0  0  0  0  0  0  0  0
  -30.7993  -33.4858   22.7862 C   0  0  0  0  0  0  0  0  0  0  0  0
  -27.7337  -33.9119   23.7572 C   0  0  0  0  0  0  0  0  0  0  0  0
  -24.5000  -32.8221   23.7051 C   0  0  0  0  0  0  0  0  0  0  0  0
  -30.1538  -16.0964   19.8967 C   0  0  0  0  0  0  0  0  0  0  0  0
  -35.0621  -36.2821   22.5276 C   0  0  0  0  0  0  0  0  0  0  0  0
  -29.5584  -33.3853   20.5939 C   0  0  0  0  0  0  0  0  0  0  0  0
  -28.2736  -31.7049   22.6604 C   0  0  0  0  0  0  0  0  0  0  0  0
  -33.7945  -36.3001   23.3780 C   0  0  0  0  0  0  0  0  0  0  0  0
  -29.8162  -12.7238   18.8065 C   0  0  0  0  0  0  0  0  0  0  0  0
  -33.4965  -34.9064   23.9216 C   0  0  0  0  0  0  0  0  0  0  0  0
  -28.4566  -12.2968   19.3645 C   0  0  0  0  0  0  0  0  0  0  0  0
  -30.5594  -13.6481   19.7693 C   0  0  0  0  0  0  0  0  0  0  0  0
  -28.4376  -14.3937   20.7750 C   0  0  0  0  0  0  0  0  0  0  0  0
  -33.2509  -33.9105   22.7817 C   0  0  1  0  0  0  0  0  0  0  0  0
  -29.5224  -33.8033   22.0607 C   0  0  1  0  0  0  0  0  0  0  0  0
  -27.6237  -13.5139   19.8121 C   0  0  2  0  0  0  0  0  0  0  0  0
  -22.2268  -33.3544   24.6251 C   0  0  0  0  0  0  0  0  0  0  0  0
  -28.5635  -32.7696   26.4621 C   0  0  0  0  0  0  0  0  0  0  0  0
  -26.1381  -32.4411   26.9892 C   0  0  0  0  0  0  0  0  0  0  0  0
  -27.0256  -34.7377   26.5883 C   0  0  0  0  0  0  0  0  0  0  0  0
  -23.3720  -33.2267   20.9990 C   0  0  0  0  0  0  0  0  0  0  0  0
  -26.7754  -33.1478   24.6385 C   0  0  1  0  0  0  0  0  0  0  0  0
  -23.1931  -33.5571   23.4684 C   0  0  2  0  0  0  0  0  0  0  0  0
  -27.1371  -33.2622   26.1463 C   0  0  0  0  0  0  0  0  0  0  0  0
  -26.2188  -11.9333   21.0807 N   0  0  0  0  0  0  0  0  0  0  0  0
  -26.2936  -13.0956   20.4103 N   0  0  0  0  0  0  0  0  0  0  0  0
  -28.4373  -33.1609   22.8050 N   0  0  0  0  0  0  0  0  0  0  0  0
  -29.7105  -14.7804   20.1464 N   0  0  0  0  0  0  0  0  0  0  0  0
  -25.0109  -14.9628   19.7183 N   0  0  0  0  0  0  0  0  0  0  0  0
  -22.0250  -12.4198   21.9575 N   0  0  0  0  0  0  0  0  0  0  0  0
  -29.2483  -17.0899   20.2679 N   0  0  0  0  0  0  0  0  0  0  0  0
  -29.9784  -23.3917   21.2946 N   0  0  0  0  0  0  0  0  0  0  0  0
  -31.9200  -34.0812   22.2394 N   0  0  0  0  0  0  0  0  0  0  0  0
  -25.4401  -33.6324   24.3059 N   0  0  0  0  0  0  0  0  0  0  0  0
  -31.2048  -22.4986   23.1050 N   0  3  0  0  0  0  0  0  0  0  0  0
  -22.5419  -33.0670   22.2206 N   0  3  0  0  0  0  0  0  0  0  0  0
  -22.2974  -14.3658   20.7754 O   0  0  0  0  0  0  0  0  0  0  0  0
  -30.8321  -25.1821   22.5387 O   0  0  0  0  0  0  0  0  0  0  0  0
  -30.7697  -32.7560   23.7702 O   0  0  0  0  0  0  0  0  0  0  0  0
  -27.8483  -35.1314   23.9033 O   0  0  0  0  0  0  0  0  0  0  0  0
  -24.6689  -31.6456   23.3920 O   0  0  0  0  0  0  0  0  0  0  0  0
  -31.2439  -16.3243   19.3661 O   0  0  0  0  0  0  0  0  0  0  0  0
  -23.0535   -7.5267   24.4142 O   0  0  0  0  0  0  0  0  0  0  0  0
  -28.9872  -27.8067   19.7912 O   0  0  0  0  0  0  0  0  0  1  0  0
  -18.2331   -5.3065   22.9183 F   0  0  0  0  0  0  0  0  0  0  0  0
  -27.2368  -18.8941   20.9545 F   0  0  0  0  0  0  0  0  0  0  0  0
  -22.8911   -4.8772   23.6421 F   0  0  0  0  0  0  0  0  0  0  0  0
  1  2  1  0  0  0  0
  1  6  2  0  0  0  0
  2  7  2  0  0  0  0
  3 10  2  0  0  0  0
  3 18  1  0  0  0  0
  4 11  1  0  0  0  0
  4 18  2  0  0  0  0
  5  9  2  0  0  0  0
  5 19  1  0  0  0  0
  6 21  1  0  0  0  0
  7 23  1  0  0  0  0
  8 12  2  0  0  0  0
  8 22  1  0  0  0  0
  9 25  1  0  0  0  0
 10 26  1  0  0  0  0
 11 26  2  0  0  0  0
 12 27  1  0  0  0  0
 13 14  2  0  0  0  0
 13 28  1  0  0  0  0
 14 29  1  0  0  0  0
 15 19  2  0  0  0  0
 15 30  1  0  0  0  0
 16 24  1  0  0  0  0
 16 27  2  0  0  0  0
 17 29  2  0  0  0  0
 17 31  1  0  0  0  0
 18 32  1  0  0  0  0
 19 36  1  0  0  0  0
 20 32  1  0  0  0  0
 20 33  2  0  0  0  0
 20 37  1  0  0  0  0
 21 23  2  0  0  0  0
 21 43  1  0  0  0  0
 22 24  2  0  0  0  0
 22 44  1  0  0  0  0
 23 52  1  0  0  0  0
 24 45  1  0  0  0  0
 25 30  2  0  0  0  0
 25 69  1  0  0  0  0
 26 81  1  0  0  0  0
 27 82  1  0  0  0  0
 28 31  2  0  0  0  0
 28 81  1  0  0  0  0
 29 83  1  0  0  0  0
 30 84  1  0  0  0  0
 31 85  1  0  0  0  0
 32 63  2  0  0  0  0
 33 64  1  0  0  0  0
 33 67  1  0  0  0  0
 34 35  2  0  0  0  0
 34 38  1  0  0  0  0
 35 82  1  0  0  0  0
 36 70  1  0  0  0  0
 36 73  2  0  0  0  0
 37 68  1  0  0  0  0
 37 75  2  0  0  0  0
 38 70  1  0  0  0  0
 38 76  2  0  0  0  0
 39 53  1  0  0  0  0
 39 71  1  0  0  0  0
 39 77  2  0  0  0  0
 40 60  1  0  0  0  0
 40 65  1  0  0  0  0
 40 78  2  0  0  0  0
 41 61  1  0  0  0  0
 41 72  1  0  0  0  0
 41 79  2  0  0  0  0
 42 66  1  0  0  0  0
 42 69  1  0  0  0  0
 42 80  2  0  0  0  0
 43 46  1  0  0  0  0
 44 53  1  0  0  0  0
 45 65  1  0  0  0  0
 46 48  1  0  0  0  0
 47 49  1  0  0  0  0
 47 50  1  0  0  0  0
 48 52  1  0  0  0  0
 49 54  1  0  0  0  0
 50 66  1  0  0  0  0
 51 54  1  0  0  0  0
 51 66  1  0  0  0  0
 52 71  1  0  0  0  0
 53 65  1  0  0  0  0
 54 64  1  0  0  0  0
 55 61  1  0  0  0  0
 56 62  1  0  0  0  0
 57 62  1  0  0  0  0
 58 62  1  0  0  0  0
 59 74  1  0  0  0  0
 60 62  1  0  0  0  0
 60 72  1  0  0  0  0
 61 74  1  0  0  0  0
 63 64  1  0  0  0  0
M  CHG  2  73   1  74   1
M  ISO  4  35 101  42 100  69 100  82 101
M  END
> <Batch ID>
0083

> <Smiles>
CNC(C)C(=O)NC(C(=O)N1Cc2cc([101O:1][101CH:1]=CC(=O)NC(=N)c3ccc([100NH:0][100C:0](=O)N4CCCC(n5nc(-c6ccc(Oc7ccc(F)cc7F)cc6)c(C(N)=O)c5N)C4)c(F)c3)ccc2CC1C(=O)NC1CCCc2ccccc21)C(C)(C)C

> <Shape>
0.244

> <Color>
0.128

> <Negative vol penalty>
0.000

$$$$

  -OEChem-04052300093D

 84 93  0     1  0  0  0  0  0999 V2000
  -27.3760  -37.7449   23.8602 C   0  0  0  0  0  0  0  0  0  0  0  0
  -27.9646  -36.8012   23.0246 C   0  0  0  0  0  0  0  0  0  0  0  0
  -24.1838   -9.2870   22.1900 C   0  0  0  0  0  0  0  0  0  0  0  0
  -22.9184  -11.2676   21.6306 C   0  0  0  0  0  0  0  0  0  0  0  0
  -26.4881  -37.3366   24.8546 C   0  0  0  0  0  0  0  0  0  0  0  0
  -27.6666  -35.4483   23.1837 C   0  0  0  0  0  0  0  0  0  0  0  0
  -26.9147  -29.4144   19.3965 C   0  0  0  0  0  0  0  0  0  0  0  0
  -28.5675  -19.7717   19.8358 C   0  0  0  0  0  0  0  0  0  0  0  0
  -28.8333  -18.4103   19.6890 C   0  0  0  0  0  0  0  0  0  0  0  0
  -23.3139   -9.0306   23.2498 C   0  0  0  0  0  0  0  0  0  0  0  0
  -22.0485  -11.0112   22.6904 C   0  0  0  0  0  0  0  0  0  0  0  0
  -27.3679  -28.0962   19.3695 C   0  0  0  0  0  0  0  0  0  0  0  0
  -20.2247   -7.7239   23.6765 C   0  0  0  0  0  0  0  0  0  0  0  0
  -19.7694   -6.4156   23.8394 C   0  0  0  0  0  0  0  0  0  0  0  0
  -25.7587  -27.5146   21.0700 C   0  0  0  0  0  0  0  0  0  0  0  0
  -26.2900  -19.4044   19.1180 C   0  0  0  0  0  0  0  0  0  0  0  0
  -20.7574   -6.3460   26.0430 C   0  0  0  0  0  0  0  0  0  0  0  0
  -23.9860  -10.4056   21.3804 C   0  0  0  0  0  0  0  0  0  0  0  0
  -24.7639  -10.2195   18.9581 C   0  0  0  0  0  0  0  0  0  0  0  0
  -26.1716  -35.9789   25.0197 C   0  0  0  0  0  0  0  0  0  0  0  0
  -25.8859  -29.7956   20.2697 C   0  0  0  0  0  0  0  0  0  0  0  0
  -26.7747  -35.0213   24.1821 C   0  0  0  0  0  0  0  0  0  0  0  0
  -25.2926  -28.8377   21.1043 C   0  0  0  0  0  0  0  0  0  0  0  0
  -27.2958  -20.2688   19.5503 C   0  0  0  0  0  0  0  0  0  0  0  0
  -27.8275  -17.5460   19.2567 C   0  0  0  0  0  0  0  0  0  0  0  0
  -22.2463   -9.8926   23.5000 C   0  0  0  0  0  0  0  0  0  0  0  0
  -26.7918  -27.1467   20.2083 C   0  0  0  0  0  0  0  0  0  0  0  0
  -20.9465   -8.3433   24.6969 C   0  0  0  0  0  0  0  0  0  0  0  0
  -20.0357   -5.7266   25.0226 C   0  0  0  0  0  0  0  0  0  0  0  0
  -26.5558  -18.0430   18.9712 C   0  0  0  0  0  0  0  0  0  0  0  0
  -21.2128   -7.6544   25.8801 C   0  0  0  0  0  0  0  0  0  0  0  0
  -24.8846  -10.6713   20.2859 C   0  0  0  0  0  0  0  0  0  0  0  0
  -25.8612  -10.7405   18.3170 C   0  0  0  0  0  0  0  0  0  0  0  0
  -26.6615  -23.5741   19.8055 C   0  0  0  0  0  0  0  0  0  0  0  0
  -25.9167  -22.3537   19.4937 C   0  0  0  0  0  0  0  0  0  0  0  0
  -26.3377  -24.8788   19.8603 C   0  0  0  0  0  0  0  0  0  1  0  0
  -23.7505   -9.4020   18.3578 C   0  0  0  0  0  0  0  0  0  0  0  0
  -25.6448  -31.8311   22.6991 C   0  0  0  0  0  0  0  0  0  0  0  0
  -22.5079  -31.0167   22.5622 C   0  0  0  0  0  0  0  0  0  0  0  0
  -20.1455  -28.7306   21.6459 C   0  0  0  0  0  0  0  0  0  0  0  0
  -29.3089  -15.5105   19.3492 C   0  0  0  0  0  0  0  0  0  0  0  0
  -25.2427  -35.5810   26.1393 C   0  0  0  0  0  0  0  0  0  0  0  0
  -25.3902  -31.2158   20.2676 C   0  0  0  0  0  0  0  0  0  0  0  0
  -24.1713  -29.1915   22.0455 C   0  0  0  0  0  0  0  0  0  0  0  0
  -27.8975  -22.7317   20.0228 C   0  0  0  0  0  0  0  0  0  0  0  0
  -24.6918  -34.1643   25.9992 C   0  0  0  0  0  0  0  0  0  0  0  0
  -30.3733  -12.1194   19.1378 C   0  0  0  0  0  0  0  0  0  0  0  0
  -25.8111  -33.1882   25.6509 C   0  0  0  0  0  0  0  0  0  0  0  0
  -29.0748  -11.3223   19.2813 C   0  0  0  0  0  0  0  0  0  0  0  0
  -30.3731  -13.3672   20.0192 C   0  0  0  0  0  0  0  0  0  0  0  0
  -27.9110  -13.4497   19.9930 C   0  0  0  0  0  0  0  0  0  0  0  0
  -26.4576  -33.5469   24.3074 C   0  0  1  0  0  0  0  0  0  0  0  0
  -24.6866  -31.6050   21.5640 C   0  0  1  0  0  0  0  0  0  0  0  0
  -27.8378  -12.2183   19.0754 C   0  0  2  0  0  0  0  0  0  0  0  0
  -17.6691  -28.3279   21.6984 C   0  0  0  0  0  0  0  0  0  0  0  0
  -22.6841  -30.3354   25.5312 C   0  0  0  0  0  0  0  0  0  0  0  0
  -20.5322  -29.0770   25.2988 C   0  0  0  0  0  0  0  0  0  0  0  0
  -20.5935  -31.5314   24.8576 C   0  0  0  0  0  0  0  0  0  0  0  0
  -19.9842  -28.6165   18.6929 C   0  0  0  0  0  0  0  0  0  0  0  0
  -21.6525  -29.9466   23.1965 C   0  0  1  0  0  0  0  0  0  0  0  0
  -18.8351  -28.8822   20.8946 C   0  0  2  0  0  0  0  0  0  0  0  0
  -21.3880  -30.2160   24.7048 C   0  0  0  0  0  0  0  0  0  0  0  0
  -25.9728  -11.4216   20.4784 N   0  0  0  0  0  0  0  0  0  0  0  0
  -26.5459  -11.4450   19.2630 N   0  0  0  0  0  0  0  0  0  0  0  0
  -27.0337  -21.6114   19.6944 N   0  0  0  0  0  0  0  0  0  0  0  0
  -23.7259  -30.5943   22.0111 N   0  0  0  0  0  0  0  0  0  0  0  0
  -29.1742  -14.1695   19.7665 N   0  0  0  0  0  0  0  0  0  0  0  0
  -26.2976  -10.6601   17.0420 N   0  0  0  0  0  0  0  0  0  0  0  0
  -22.6930   -8.9520   19.1600 N   0  0  0  0  0  0  0  0  0  0  0  0
  -28.1006  -16.1636   19.1081 N   0  0  0  0  0  0  0  0  0  0  0  0
  -25.6178  -33.1144   23.2110 N   0  0  0  0  0  0  0  0  0  0  0  0
  -20.4436  -29.8559   22.3848 N   0  0  0  0  0  0  0  0  0  0  0  0
  -18.8966  -28.1567   19.5943 N   0  3  0  0  0  0  0  0  0  0  0  0
  -24.7738  -22.1021   19.1729 O   0  0  0  0  0  0  0  0  0  0  0  0
  -23.7905   -9.0664   17.1497 O   0  0  0  0  0  0  0  0  0  0  0  0
  -26.3549  -30.9092   23.0832 O   0  0  0  0  0  0  0  0  0  0  0  0
  -22.1067  -32.1831   22.5497 O   0  0  0  0  0  0  0  0  0  0  0  0
  -20.8337  -27.7141   21.5863 O   0  0  0  0  0  0  0  0  0  0  0  0
  -30.4153  -16.0323   19.1893 O   0  0  0  0  0  0  0  0  0  0  0  0
  -21.3971   -9.6425   24.5339 O   0  0  0  0  0  0  0  0  0  0  0  0
  -27.2326  -25.8594   20.1845 O   0  0  0  0  0  0  0  0  0  1  0  0
  -19.5971   -4.4708   25.1795 F   0  0  0  0  0  0  0  0  0  0  0  0
  -25.5817  -17.2218   18.5536 F   0  0  0  0  0  0  0  0  0  0  0  0
  -21.9047   -8.2446   26.8644 F   0  0  0  0  0  0  0  0  0  0  0  0
  1  2  1  0  0  0  0
  1  5  2  0  0  0  0
  2  6  2  0  0  0  0
  3 10  2  0  0  0  0
  3 18  1  0  0  0  0
  4 11  1  0  0  0  0
  4 18  2  0  0  0  0
  5 20  1  0  0  0  0
  6 22  1  0  0  0  0
  7 12  2  0  0  0  0
  7 21  1  0  0  0  0
  8  9  2  0  0  0  0
  8 24  1  0  0  0  0
  9 25  1  0  0  0  0
 10 26  1  0  0  0  0
 11 26  2  0  0  0  0
 12 27  1  0  0  0  0
 13 14  2  0  0  0  0
 13 28  1  0  0  0  0
 14 29  1  0  0  0  0
 15 23  1  0  0  0  0
 15 27  2  0  0  0  0
 16 24  2  0  0  0  0
 16 30  1  0  0  0  0
 17 29  2  0  0  0  0
 17 31  1  0  0  0  0
 18 32  1  0  0  0  0
 19 32  1  0  0  0  0
 19 33  2  0  0  0  0
 19 37  1  0  0  0  0
 20 22  2  0  0  0  0
 20 42  1  0  0  0  0
 21 23  2  0  0  0  0
 21 43  1  0  0  0  0
 22 52  1  0  0  0  0
 23 44  1  0  0  0  0
 24 65  1  0  0  0  0
 25 30  2  0  0  0  0
 25 70  1  0  0  0  0
 26 80  1  0  0  0  0
 27 81  1  0  0  0  0
 28 31  2  0  0  0  0
 28 80  1  0  0  0  0
 29 82  1  0  0  0  0
 30 83  1  0  0  0  0
 31 84  1  0  0  0  0
 32 63  2  0  0  0  0
 33 64  1  0  0  0  0
 33 68  1  0  0  0  0
 34 35  1  0  0  0  0
 34 36  2  0  0  0  0
 34 45  1  0  0  0  0
 35 65  1  0  0  0  0
 35 74  2  0  0  0  0
 36 81  1  0  0  0  0
 37 69  1  0  0  0  0
 37 75  2  0  0  0  0
 38 53  1  0  0  0  0
 38 71  1  0  0  0  0
 38 76  2  0  0  0  0
 39 60  1  0  0  0  0
 39 66  1  0  0  0  0
 39 77  2  0  0  0  0
 40 61  1  0  0  0  0
 40 72  1  0  0  0  0
 40 78  2  0  0  0  0
 41 67  1  0  0  0  0
 41 70  1  0  0  0  0
 41 79  2  0  0  0  0
 42 46  1  0  0  0  0
 43 53  1  0  0  0  0
 44 66  1  0  0  0  0
 45 65  1  0  0  0  0
 46 48  1  0  0  0  0
 47 49  1  0  0  0  0
 47 50  1  0  0  0  0
 48 52  1  0  0  0  0
 49 54  1  0  0  0  0
 50 67  1  0  0  0  0
 51 54  1  0  0  0  0
 51 67  1  0  0  0  0
 52 71  1  0  0  0  0
 53 66  1  0  0  0  0
 54 64  1  0  0  0  0
 55 61  1  0  0  0  0
 56 62  1  0  0  0  0
 57 62  1  0  0  0  0
 58 62  1  0  0  0  0
 59 73  1  0  0  0  0
 60 62  1  0  0  0  0
 60 72  1  0  0  0  0
 61 73  1  0  0  0  0
 63 64  1  0  0  0  0
M  CHG  1  73   1
M  ISO  4  36 101  41 100  70 100  81 101
M  END
> <Batch ID>
0083

> <Smiles>
CNC(C)C(=O)NC(C(=O)N1Cc2cc([101O:1][101CH:1]=C3CN(c4ccc([100NH:0][100C:0](=O)N5CCCC(n6nc(-c7ccc(Oc8ccc(F)cc8F)cc7)c(C(N)=O)c6N)C5)c(F)c4)C3=O)ccc2CC1C(=O)NC1CCCc2ccccc21)C(C)(C)C

> <Shape>
0.291

> <Color>
0.088

> <Negative vol penalty>
0.000

$$$$

  -OEChem-04052300093D

 89 98  0     1  0  0  0  0  0999 V2000
  -30.1449  -33.1917   24.7786 C   0  0  0  0  0  0  0  0  0  0  0  0
  -29.7275  -31.9034   24.4600 C   0  0  0  0  0  0  0  0  0  0  0  0
  -22.9043  -10.0054   19.9956 C   0  0  0  0  0  0  0  0  0  0  0  0
  -24.6071   -9.2116   21.5146 C   0  0  0  0  0  0  0  0  0  0  0  0
  -29.2014  -34.1937   25.0017 C   0  0  0  0  0  0  0  0  0  0  0  0
  -28.3662  -31.6161   24.3653 C   0  0  0  0  0  0  0  0  0  0  0  0
  -27.2477  -28.8300   20.2872 C   0  0  0  0  0  0  0  0  0  0  0  0
  -21.9177   -9.4555   20.8141 C   0  0  0  0  0  0  0  0  0  0  0  0
  -23.6205   -8.6617   22.3331 C   0  0  0  0  0  0  0  0  0  0  0  0
  -27.5238  -27.4650   20.3534 C   0  0  0  0  0  0  0  0  0  0  0  0
  -21.6667   -5.9027   22.3703 C   0  0  0  0  0  0  0  0  0  0  0  0
  -21.8712   -4.6100   22.8527 C   0  0  0  0  0  0  0  0  0  0  0  0
  -25.5329  -20.3574   19.9423 C   0  0  0  0  0  0  0  0  0  0  0  0
  -25.4574  -18.1054   19.0710 C   0  0  0  0  0  0  0  0  0  0  0  0
  -25.2012  -27.0247   20.8337 C   0  0  0  0  0  0  0  0  0  0  0  0
  -27.3932  -18.8591   20.3046 C   0  0  0  0  0  0  0  0  0  0  0  0
  -21.7764   -5.4409   25.1194 C   0  0  0  0  0  0  0  0  0  0  0  0
  -24.2490   -9.8834   20.3458 C   0  0  0  0  0  0  0  0  0  0  0  0
  -24.8625  -19.3555   19.2406 C   0  0  0  0  0  0  0  0  0  0  0  0
  -25.5282  -10.1355   18.1532 C   0  0  0  0  0  0  0  0  0  0  0  0
  -27.8281  -33.9209   24.9002 C   0  0  0  0  0  0  0  0  0  0  0  0
  -25.9462  -29.3043   20.5049 C   0  0  0  0  0  0  0  0  0  0  0  0
  -27.4035  -32.6151   24.5886 C   0  0  0  0  0  0  0  0  0  0  0  0
  -24.9107  -28.3959   20.7672 C   0  0  0  0  0  0  0  0  0  0  0  0
  -26.7983  -20.1092   20.4743 C   0  0  0  0  0  0  0  0  0  0  0  0
  -26.7228  -17.8571   19.6030 C   0  0  0  0  0  0  0  0  0  0  0  0
  -22.2759   -8.7837   21.9829 C   0  0  0  0  0  0  0  0  0  0  0  0
  -26.5010  -26.5624   20.6295 C   0  0  0  0  0  0  0  0  0  0  0  0
  -21.5172   -6.9645   23.2624 C   0  0  0  0  0  0  0  0  0  0  0  0
  -21.9260   -4.3791   24.2272 C   0  0  0  0  0  0  0  0  0  0  0  0
  -21.5720   -6.7336   24.6369 C   0  0  0  0  0  0  0  0  0  0  0  0
  -25.2685  -10.4507   19.5004 C   0  0  0  0  0  0  0  0  0  0  0  0
  -26.5862  -10.9412   17.8098 C   0  0  0  0  0  0  0  0  0  0  0  0
  -28.0106  -23.5074   21.7809 C   0  0  0  0  0  0  0  0  0  0  0  0
  -28.9675  -23.0557   22.7774 C   0  0  0  0  0  0  0  0  0  0  0  0
  -27.2922  -22.5104   20.8981 C   0  0  0  0  0  0  0  0  0  0  0  0
  -30.0554  -23.7458   23.1558 C   0  0  0  0  0  0  0  0  0  0  0  0
  -27.6708  -24.7994   21.6267 C   0  0  0  0  0  0  0  0  0  1  0  0
  -23.5433  -19.6143   18.6862 C   0  0  0  0  0  0  0  0  0  0  0  0
  -24.8716   -9.1983   17.2893 C   0  0  0  0  0  0  0  0  0  0  0  0
  -24.5873  -31.2268   22.6406 C   0  0  0  0  0  0  0  0  0  0  0  0
  -21.9862  -30.8606   20.7374 C   0  0  0  0  0  0  0  0  0  0  0  0
  -20.3285  -28.9717   18.4284 C   0  0  0  0  0  0  0  0  0  0  0  0
  -28.5760  -16.1757   19.8945 C   0  0  0  0  0  0  0  0  0  0  0  0
  -26.8448  -35.0253   25.1965 C   0  0  0  0  0  0  0  0  0  0  0  0
  -25.6597  -30.7774   20.4036 C   0  0  0  0  0  0  0  0  0  0  0  0
  -23.4926  -28.8523   20.9885 C   0  0  0  0  0  0  0  0  0  0  0  0
  -28.6718  -21.6960   23.3241 C   0  0  0  0  0  0  0  0  0  0  0  0
  -25.4292  -34.7276   24.7088 C   0  0  0  0  0  0  0  0  0  0  0  0
  -30.4016  -13.1245   19.7099 C   0  0  0  0  0  0  0  0  0  0  0  0
  -25.0164  -33.3122   25.1001 C   0  0  0  0  0  0  0  0  0  0  0  0
  -29.3166  -12.0645   19.5065 C   0  0  0  0  0  0  0  0  0  0  0  0
  -28.5193  -20.7217   22.1689 C   0  0  0  0  0  0  0  0  0  0  0  0
  -29.9379  -14.2382   20.6471 C   0  0  0  0  0  0  0  0  0  0  0  0
  -27.5803  -13.8110   20.0741 C   0  0  0  0  0  0  0  0  0  0  0  0
  -25.9363  -32.2703   24.4523 C   0  0  1  0  0  0  0  0  0  0  0  0
  -24.3962  -31.1931   21.1506 C   0  0  1  0  0  0  0  0  0  0  0  0
  -27.9777  -12.7020   19.0862 C   0  0  2  0  0  0  0  0  0  0  0  0
  -18.2078  -28.9120   17.0882 C   0  0  0  0  0  0  0  0  0  0  0  0
  -20.4399  -30.0108   23.2267 C   0  0  0  0  0  0  0  0  0  0  0  0
  -18.6706  -29.0745   21.7230 C   0  0  0  0  0  0  0  0  0  0  0  0
  -19.1786  -31.5163   21.6785 C   0  0  0  0  0  0  0  0  0  0  0  0
  -21.8090  -29.0319   15.8665 C   0  0  0  0  0  0  0  0  0  0  0  0
  -20.8334  -29.8876   20.6780 C   0  0  1  0  0  0  0  0  0  0  0  0
  -19.6667  -29.3406   17.1130 C   0  0  2  0  0  0  0  0  0  0  0  0
  -19.8076  -30.1135   21.8244 C   0  0  0  0  0  0  0  0  0  0  0  0
  -26.0951  -11.3837   19.9802 N   0  0  0  0  0  0  0  0  0  0  0  0
  -26.8846  -11.6617   18.9287 N   0  0  0  0  0  0  0  0  0  0  0  0
  -27.4934  -21.1480   21.2018 N   0  0  0  0  0  0  0  0  0  0  0  0
  -23.2641  -30.3031   20.8854 N   0  0  0  0  0  0  0  0  0  0  0  0
  -28.6662  -14.7977   20.1838 N   0  0  0  0  0  0  0  0  0  0  0  0
  -27.2812  -11.0965   16.6629 N   0  0  0  0  0  0  0  0  0  0  0  0
  -22.9942  -20.8779   18.8838 N   0  0  0  0  0  0  0  0  0  0  0  0
  -25.3512   -7.8821   17.2439 N   0  0  0  0  0  0  0  0  0  0  0  0
  -27.3268  -16.5869   19.4308 N   0  0  0  0  0  0  0  0  0  0  0  0
  -25.5870  -32.0835   23.0603 N   0  0  0  0  0  0  0  0  0  0  0  0
  -20.2680  -30.0060   19.3383 N   0  0  0  0  0  0  0  0  0  0  0  0
  -20.3697  -28.6810   15.9765 N   0  3  0  0  0  0  0  0  0  0  0  0
  -26.6081  -22.9259   19.9608 O   0  0  0  0  0  0  0  0  0  0  0  0
  -22.9150  -18.7353   18.0703 O   0  0  0  0  0  0  0  0  0  0  0  0
  -23.8991   -9.5227   16.5664 O   0  0  0  0  0  0  0  0  0  0  0  0
  -23.8792  -30.5285   23.3565 O   0  0  0  0  0  0  0  0  0  0  0  0
  -21.7618  -32.0702   20.6483 O   0  0  0  0  0  0  0  0  0  0  0  0
  -20.8442  -27.8744   18.6300 O   0  0  0  0  0  0  0  0  0  0  0  0
  -29.5439  -16.9301   20.0211 O   0  0  0  0  0  0  0  0  0  0  0  0
  -21.3134   -8.2472   22.7820 O   0  0  0  0  0  0  0  0  0  0  0  0
  -26.7679  -25.2296   20.6953 O   0  0  0  0  0  0  0  0  0  1  0  0
  -22.1208   -3.1374   24.6903 F   0  0  0  0  0  0  0  0  0  0  0  0
  -21.4277   -7.7495   25.4989 F   0  0  0  0  0  0  0  0  0  0  0  0
  1  2  1  0  0  0  0
  1  5  2  0  0  0  0
  2  6  2  0  0  0  0
  3  8  2  0  0  0  0
  3 18  1  0  0  0  0
  4  9  1  0  0  0  0
  4 18  2  0  0  0  0
  5 21  1  0  0  0  0
  6 23  1  0  0  0  0
  7 10  2  0  0  0  0
  7 22  1  0  0  0  0
  8 27  1  0  0  0  0
  9 27  2  0  0  0  0
 10 28  1  0  0  0  0
 11 12  2  0  0  0  0
 11 29  1  0  0  0  0
 12 30  1  0  0  0  0
 13 19  1  0  0  0  0
 13 25  2  0  0  0  0
 14 19  2  0  0  0  0
 14 26  1  0  0  0  0
 15 24  1  0  0  0  0
 15 28  2  0  0  0  0
 16 25  1  0  0  0  0
 16 26  2  0  0  0  0
 17 30  2  0  0  0  0
 17 31  1  0  0  0  0
 18 32  1  0  0  0  0
 19 39  1  0  0  0  0
 20 32  1  0  0  0  0
 20 33  2  0  0  0  0
 20 40  1  0  0  0  0
 21 23  2  0  0  0  0
 21 45  1  0  0  0  0
 22 24  2  0  0  0  0
 22 46  1  0  0  0  0
 23 56  1  0  0  0  0
 24 47  1  0  0  0  0
 25 69  1  0  0  0  0
 26 75  1  0  0  0  0
 27 86  1  0  0  0  0
 28 87  1  0  0  0  0
 29 31  2  0  0  0  0
 29 86  1  0  0  0  0
 30 88  1  0  0  0  0
 31 89  1  0  0  0  0
 32 67  2  0  0  0  0
 33 68  1  0  0  0  0
 33 72  1  0  0  0  0
 34 35  1  0  0  0  0
 34 36  1  0  0  0  0
 34 38  2  0  0  0  0
 35 37  2  0  0  0  0
 35 48  1  0  0  0  0
 36 69  1  0  0  0  0
 36 79  2  0  0  0  0
 38 87  1  0  0  0  0
 39 73  1  0  0  0  0
 39 80  2  0  0  0  0
 40 74  1  0  0  0  0
 40 81  2  0  0  0  0
 41 57  1  0  0  0  0
 41 76  1  0  0  0  0
 41 82  2  0  0  0  0
 42 64  1  0  0  0  0
 42 70  1  0  0  0  0
 42 83  2  0  0  0  0
 43 65  1  0  0  0  0
 43 77  1  0  0  0  0
 43 84  2  0  0  0  0
 44 71  1  0  0  0  0
 44 75  1  0  0  0  0
 44 85  2  0  0  0  0
 45 49  1  0  0  0  0
 46 57  1  0  0  0  0
 47 70  1  0  0  0  0
 48 53  1  0  0  0  0
 49 51  1  0  0  0  0
 50 52  1  0  0  0  0
 50 54  1  0  0  0  0
 51 56  1  0  0  0  0
 52 58  1  0  0  0  0
 53 69  1  0  0  0  0
 54 71  1  0  0  0  0
 55 58  1  0  0  0  0
 55 71  1  0  0  0  0
 56 76  1  0  0  0  0
 57 70  1  0  0  0  0
 58 68  1  0  0  0  0
 59 65  1  0  0  0  0
 60 66  1  0  0  0  0
 61 66  1  0  0  0  0
 62 66  1  0  0  0  0
 63 78  1  0  0  0  0
 64 66  1  0  0  0  0
 64 77  1  0  0  0  0
 65 78  1  0  0  0  0
 67 68  1  0  0  0  0
M  CHG  1  78   1
M  ISO  4  38 101  44 100  75 100  87 101
M  END
> <Batch ID>
0083

> <Smiles>
C=C1CCN(c2cc([100NH:0][100C:0](=O)N3CCCC(n4nc(-c5ccc(Oc6ccc(F)cc6F)cc5)c(C(N)=O)c4N)C3)cc(C(N)=O)c2)C(=O)C1=[101CH:1][101O:1]c1ccc2c(c1)CN(C(=O)C(NC(=O)C(C)NC)C(C)(C)C)C(C(=O)NC1CCCc3ccccc31)C2

> <Shape>
0.284

> <Color>
0.094

> <Negative vol penalty>
0.000

$$$$

  -OEChem-04052300093D

 86 95  0     1  0  0  0  0  0999 V2000
  -16.9649  -29.1211   24.6877 C   0  0  0  0  0  0  0  0  0  0  0  0
  -17.7154  -28.0182   24.2930 C   0  0  0  0  0  0  0  0  0  0  0  0
  -18.4048  -16.4987   22.9645 C   0  0  0  0  0  0  0  0  0  0  0  0
  -27.0639  -18.2892   19.4634 C   0  0  0  0  0  0  0  0  0  0  0  0
  -28.8660  -16.8947   18.6605 C   0  0  0  0  0  0  0  0  0  0  0  0
  -18.8990  -15.1944   22.9748 C   0  0  0  0  0  0  0  0  0  0  0  0
  -17.1357  -30.3457   24.0435 C   0  0  0  0  0  0  0  0  0  0  0  0
  -18.6365  -28.1391   23.2531 C   0  0  0  0  0  0  0  0  0  0  0  0
  -23.0626  -25.9170   24.3101 C   0  0  0  0  0  0  0  0  0  0  0  0
  -19.2873  -17.5788   22.9396 C   0  0  0  0  0  0  0  0  0  0  0  0
  -27.9816  -19.2879   19.7887 C   0  0  0  0  0  0  0  0  0  0  0  0
  -29.7838  -17.8934   18.9858 C   0  0  0  0  0  0  0  0  0  0  0  0
  -23.1224  -24.5291   24.1921 C   0  0  0  0  0  0  0  0  0  0  0  0
  -29.7231  -21.6932   18.1716 C   0  0  0  0  0  0  0  0  0  0  0  0
  -29.4089  -23.0040   17.8131 C   0  0  0  0  0  0  0  0  0  0  0  0
  -21.1581  -16.0501   22.9354 C   0  0  0  0  0  0  0  0  0  0  0  0
  -24.1770  -24.7639   22.0353 C   0  0  0  0  0  0  0  0  0  0  0  0
  -29.4982  -23.6610   20.1363 C   0  0  0  0  0  0  0  0  0  0  0  0
  -27.5061  -17.0925   18.8994 C   0  0  0  0  0  0  0  0  0  0  0  0
  -20.2756  -14.9701   22.9603 C   0  0  0  0  0  0  0  0  0  0  0  0
  -25.8832  -15.8915   17.3401 C   0  0  0  0  0  0  0  0  0  0  0  0
  -18.0663  -30.4841   23.0016 C   0  0  0  0  0  0  0  0  0  0  0  0
  -23.5504  -26.7401   23.2850 C   0  0  0  0  0  0  0  0  0  0  0  0
  -18.8190  -29.3664   22.5935 C   0  0  0  0  0  0  0  0  0  0  0  0
  -24.1245  -26.1620   22.1438 C   0  0  0  0  0  0  0  0  0  0  0  0
  -20.6639  -17.3544   22.9251 C   0  0  0  0  0  0  0  0  0  0  0  0
  -29.3416  -19.0901   19.5499 C   0  0  0  0  0  0  0  0  0  0  0  0
  -23.6771  -23.9523   23.0533 C   0  0  0  0  0  0  0  0  0  0  0  0
  -29.9248  -21.3662   19.5126 C   0  0  0  0  0  0  0  0  0  0  0  0
  -29.2965  -23.9879   18.7954 C   0  0  0  0  0  0  0  0  0  0  0  0
  -29.8123  -22.3501   20.4949 C   0  0  0  0  0  0  0  0  0  0  0  0
  -26.5586  -16.0602   18.5636 C   0  0  0  0  0  0  0  0  0  0  0  0
  -25.1048  -14.7757   17.5285 C   0  0  0  0  0  0  0  0  0  0  0  0
  -22.5020  -20.5684   22.8553 C   0  0  0  0  0  0  0  0  0  0  0  0
  -21.2184  -19.8179   22.8862 C   0  0  0  0  0  0  0  0  0  0  0  0
  -22.5627  -21.8979   22.9624 C   0  0  0  0  0  0  0  0  0  1  0  0
  -20.8005  -13.5804   22.9712 C   0  0  0  0  0  0  0  0  0  0  0  0
  -25.9532  -16.6735   16.1404 C   0  0  0  0  0  0  0  0  0  0  0  0
  -22.2673  -28.9088   21.3474 C   0  0  0  0  0  0  0  0  0  0  0  0
  -25.3518  -29.3658   20.4532 C   0  0  0  0  0  0  0  0  0  0  0  0
  -28.5135  -28.1054   20.2054 C   0  0  0  0  0  0  0  0  0  0  0  0
  -22.7453  -12.1898   22.3325 C   0  0  0  0  0  0  0  0  0  0  0  0
  -18.1819  -31.8161   22.3038 C   0  0  0  0  0  0  0  0  0  0  0  0
  -23.5027  -28.2356   23.4394 C   0  0  0  0  0  0  0  0  0  0  0  0
  -24.6807  -27.0016   21.0239 C   0  0  0  0  0  0  0  0  0  0  0  0
  -23.6468  -19.6270   22.7172 C   0  0  0  0  0  0  0  0  0  0  0  0
  -19.4472  -31.9544   21.4609 C   0  0  0  0  0  0  0  0  0  0  0  0
  -24.9618  -10.6862   20.0253 C   0  0  0  0  0  0  0  0  0  0  0  0
  -19.6595  -30.7075   20.6083 C   0  0  0  0  0  0  0  0  0  0  0  0
  -25.5522  -11.8761   19.2637 C   0  0  0  0  0  0  0  0  0  0  0  0
  -23.0086  -18.2690   22.9581 C   0  0  0  0  0  0  0  0  0  0  0  0
  -24.7595  -11.0042   21.5061 C   0  0  0  0  0  0  0  0  0  0  0  0
  -24.5865  -13.4114   21.0228 C   0  0  0  0  0  0  0  0  0  0  0  0
  -19.8459  -29.4640   21.4862 C   0  0  1  0  0  0  0  0  0  0  0  0
  -23.5620  -28.9760   22.1069 C   0  0  1  0  0  0  0  0  0  0  0  0
  -24.7437  -13.1650   19.5136 C   0  0  1  0  0  0  0  0  0  0  0  0
  -30.8136  -28.7003   19.3973 C   0  0  0  0  0  0  0  0  0  0  0  0
  -24.4506  -28.9250   17.5716 C   0  0  0  0  0  0  0  0  0  0  0  0
  -26.8510  -28.5844   16.9466 C   0  0  0  0  0  0  0  0  0  0  0  0
  -26.1048  -30.7758   17.8759 C   0  0  0  0  0  0  0  0  0  0  0  0
  -29.6676  -27.8117   22.9148 C   0  0  0  0  0  0  0  0  0  0  0  0
  -26.2609  -28.7693   19.4060 C   0  0  1  0  0  0  0  0  0  0  0  0
  -29.8629  -28.6885   20.5842 C   0  0  2  0  0  0  0  0  0  0  0  0
  -25.9047  -29.2475   17.9701 C   0  0  0  0  0  0  0  0  0  0  0  0
  -26.2373  -15.1264   19.4630 N   0  0  0  0  0  0  0  0  0  0  0  0
  -25.3514  -14.3602   18.8040 N   0  0  0  0  0  0  0  0  0  0  0  0
  -21.5681  -18.4614   22.8993 N   0  0  0  0  0  0  0  0  0  0  0  0
  -24.6053  -28.4589   21.2189 N   0  0  0  0  0  0  0  0  0  0  0  0
  -23.9774  -12.2325   21.6569 N   0  0  0  0  0  0  0  0  0  0  0  0
  -24.2402  -14.1192   16.7261 N   0  0  0  0  0  0  0  0  0  0  0  0
  -26.8037  -17.7872   16.1174 N   0  0  0  0  0  0  0  0  0  0  0  0
  -22.0549  -13.4058   22.3860 N   0  0  0  0  0  0  0  0  0  0  0  0
  -21.1854  -29.4275   22.0329 N   0  0  0  0  0  0  0  0  0  0  0  0
  -27.6235  -29.0855   19.8203 N   0  0  0  0  0  0  0  0  0  0  0  0
  -30.4849  -27.8881   21.6766 N   0  3  0  0  0  0  0  0  0  0  0  0
  -20.1259  -20.3602   22.9030 O   0  0  0  0  0  0  0  0  0  0  0  0
  -20.1418  -12.6966   23.5123 O   0  0  0  0  0  0  0  0  0  0  0  0
  -25.2690  -16.4025   15.1245 O   0  0  0  0  0  0  0  0  0  0  0  0
  -22.2513  -28.4236   20.2222 O   0  0  0  0  0  0  0  0  0  0  0  0
  -25.3110  -30.5908   20.5918 O   0  0  0  0  0  0  0  0  0  0  0  0
  -28.2742  -26.9004   20.2436 O   0  0  0  0  0  0  0  0  0  0  0  0
  -22.2816  -11.1510   22.8133 O   0  0  0  0  0  0  0  0  0  0  0  0
  -30.2374  -20.0646   19.8669 O   0  0  0  0  0  0  0  0  0  0  0  0
  -23.7362  -22.5979   22.9353 O   0  0  0  0  0  0  0  0  0  1  0  0
  -28.9963  -25.2470   18.4507 F   0  0  0  0  0  0  0  0  0  0  0  0
  -30.0061  -22.0423   21.7847 F   0  0  0  0  0  0  0  0  0  0  0  0
  1  2  1  0  0  0  0
  1  7  2  0  0  0  0
  2  8  2  0  0  0  0
  3  6  1  0  0  0  0
  3 10  2  0  0  0  0
  4 11  2  0  0  0  0
  4 19  1  0  0  0  0
  5 12  1  0  0  0  0
  5 19  2  0  0  0  0
  6 20  2  0  0  0  0
  7 22  1  0  0  0  0
  8 24  1  0  0  0  0
  9 13  2  0  0  0  0
  9 23  1  0  0  0  0
 10 26  1  0  0  0  0
 11 27  1  0  0  0  0
 12 27  2  0  0  0  0
 13 28  1  0  0  0  0
 14 15  2  0  0  0  0
 14 29  1  0  0  0  0
 15 30  1  0  0  0  0
 16 20  1  0  0  0  0
 16 26  2  0  0  0  0
 17 25  1  0  0  0  0
 17 28  2  0  0  0  0
 18 30  2  0  0  0  0
 18 31  1  0  0  0  0
 19 32  1  0  0  0  0
 20 37  1  0  0  0  0
 21 32  1  0  0  0  0
 21 33  2  0  0  0  0
 21 38  1  0  0  0  0
 22 24  2  0  0  0  0
 22 43  1  0  0  0  0
 23 25  2  0  0  0  0
 23 44  1  0  0  0  0
 24 54  1  0  0  0  0
 25 45  1  0  0  0  0
 26 67  1  0  0  0  0
 27 83  1  0  0  0  0
 28 84  1  0  0  0  0
 29 31  2  0  0  0  0
 29 83  1  0  0  0  0
 30 85  1  0  0  0  0
 31 86  1  0  0  0  0
 32 65  2  0  0  0  0
 33 66  1  0  0  0  0
 33 70  1  0  0  0  0
 34 35  1  0  0  0  0
 34 36  2  0  0  0  0
 34 46  1  0  0  0  0
 35 67  1  0  0  0  0
 35 76  2  0  0  0  0
 36 84  1  0  0  0  0
 37 72  1  0  0  0  0
 37 77  2  0  0  0  0
 38 71  1  0  0  0  0
 38 78  2  0  0  0  0
 39 55  1  0  0  0  0
 39 73  1  0  0  0  0
 39 79  2  0  0  0  0
 40 62  1  0  0  0  0
 40 68  1  0  0  0  0
 40 80  2  0  0  0  0
 41 63  1  0  0  0  0
 41 74  1  0  0  0  0
 41 81  2  0  0  0  0
 42 69  1  0  0  0  0
 42 72  1  0  0  0  0
 42 82  2  0  0  0  0
 43 47  1  0  0  0  0
 44 55  1  0  0  0  0
 45 68  1  0  0  0  0
 46 51  1  0  0  0  0
 47 49  1  0  0  0  0
 48 50  1  0  0  0  0
 48 52  1  0  0  0  0
 49 54  1  0  0  0  0
 50 56  1  0  0  0  0
 51 67  1  0  0  0  0
 52 69  1  0  0  0  0
 53 56  1  0  0  0  0
 53 69  1  0  0  0  0
 54 73  1  0  0  0  0
 55 68  1  0  0  0  0
 56 66  1  0  0  0  0
 57 63  1  0  0  0  0
 58 64  1  0  0  0  0
 59 64  1  0  0  0  0
 60 64  1  0  0  0  0
 61 75  1  0  0  0  0
 62 64  1  0  0  0  0
 62 74  1  0  0  0  0
 63 75  1  0  0  0  0
 65 66  1  0  0  0  0
M  CHG  1  75   1
M  ISO  4  36 101  42 100  72 100  84 101
M  END
> <Batch ID>
0083

> <Smiles>
CNC(C)C(=O)NC(C(=O)N1Cc2cc([101O:1][101CH:1]=C3CCN(c4cccc(C(=O)[100NH:0][100C:0](=O)N5CCCC(n6nc(-c7ccc(Oc8ccc(F)cc8F)cc7)c(C(N)=O)c6N)C5)c4)C3=O)ccc2CC1C(=O)NC1CCCc2ccccc21)C(C)(C)C

> <Shape>
0.212

> <Color>
0.085

> <Negative vol penalty>
0.000

$$$$

  -OEChem-04052300093D

 84 93  0     1  0  0  0  0  0999 V2000
  -26.7633  -34.5401   24.7505 C   0  0  0  0  0  0  0  0  0  0  0  0
  -27.1701  -33.3037   24.2591 C   0  0  0  0  0  0  0  0  0  0  0  0
  -24.8044   -8.6979   21.2766 C   0  0  0  0  0  0  0  0  0  0  0  0
  -23.1939  -10.4673   20.9409 C   0  0  0  0  0  0  0  0  0  0  0  0
  -25.4668  -34.7033   25.2368 C   0  0  0  0  0  0  0  0  0  0  0  0
  -26.2809  -32.2296   24.2548 C   0  0  0  0  0  0  0  0  0  0  0  0
  -26.3620  -29.6578   19.8931 C   0  0  0  0  0  0  0  0  0  0  0  0
  -28.5310  -20.8674   21.7066 C   0  0  0  0  0  0  0  0  0  0  0  0
  -28.2511  -20.0150   19.4633 C   0  0  0  0  0  0  0  0  0  0  0  0
  -28.5643  -19.5625   22.1983 C   0  0  0  0  0  0  0  0  0  0  0  0
  -28.2844  -18.7101   19.9550 C   0  0  0  0  0  0  0  0  0  0  0  0
  -23.7652   -7.7759   21.4024 C   0  0  0  0  0  0  0  0  0  0  0  0
  -22.1548   -9.5454   21.0667 C   0  0  0  0  0  0  0  0  0  0  0  0
  -27.4209  -28.7727   19.6954 C   0  0  0  0  0  0  0  0  0  0  0  0
  -21.5255   -5.0159   22.1702 C   0  0  0  0  0  0  0  0  0  0  0  0
  -21.6010   -4.0893   23.2100 C   0  0  0  0  0  0  0  0  0  0  0  0
  -25.9932  -26.9333   20.3257 C   0  0  0  0  0  0  0  0  0  0  0  0
  -21.6292   -5.8939   24.8162 C   0  0  0  0  0  0  0  0  0  0  0  0
  -24.5187  -10.0436   21.0459 C   0  0  0  0  0  0  0  0  0  0  0  0
  -26.2541  -11.3752   19.7334 C   0  0  0  0  0  0  0  0  0  0  0  0
  -24.5583  -33.6332   25.2295 C   0  0  0  0  0  0  0  0  0  0  0  0
  -25.1116  -29.1878   20.3198 C   0  0  0  0  0  0  0  0  0  0  0  0
  -24.9715  -32.3783   24.7428 C   0  0  0  0  0  0  0  0  0  0  0  0
  -24.9193  -27.8142   20.5256 C   0  0  0  0  0  0  0  0  0  0  0  0
  -28.3743  -21.0936   20.3391 C   0  0  0  0  0  0  0  0  0  0  0  0
  -28.4410  -18.4839   21.3225 C   0  0  0  0  0  0  0  0  0  0  0  0
  -22.4404   -8.1997   21.2975 C   0  0  0  0  0  0  0  0  0  0  0  0
  -27.2374  -27.4106   19.9145 C   0  0  0  0  0  0  0  0  0  0  0  0
  -21.5019   -6.3816   22.4534 C   0  0  0  0  0  0  0  0  0  0  0  0
  -21.6528   -4.5283   24.5330 C   0  0  0  0  0  0  0  0  0  0  0  0
  -21.5537   -6.8206   23.7763 C   0  0  0  0  0  0  0  0  0  0  0  0
  -25.5917  -10.9965   20.9164 C   0  0  0  0  0  0  0  0  0  0  0  0
  -27.1839  -12.3001   20.1415 C   0  0  0  0  0  0  0  0  0  0  0  0
  -28.1982  -24.2583   19.1785 C   0  0  0  0  0  0  0  0  0  0  0  0
  -28.4347  -23.5905   20.4590 C   0  0  0  0  0  0  0  0  0  0  0  0
  -26.0474  -10.9308   18.3860 C   0  0  0  0  0  0  0  0  0  0  0  0
  -28.1142  -25.5538   18.7945 C   0  0  0  0  0  0  0  0  0  1  0  0
  -23.2902  -29.6657   22.8806 C   0  0  0  0  0  0  0  0  0  0  0  0
  -21.1579  -27.8753   21.2161 C   0  0  0  0  0  0  0  0  0  0  0  0
  -20.6063  -25.5323   18.7968 C   0  0  0  0  0  0  0  0  0  0  0  0
  -28.6235  -16.7590   23.1496 C   0  0  0  0  0  0  0  0  0  0  0  0
  -23.1822  -33.8453   25.8093 C   0  0  0  0  0  0  0  0  0  0  0  0
  -23.9721  -30.1523   20.5027 C   0  0  0  0  0  0  0  0  0  0  0  0
  -23.5909  -27.2565   20.9645 C   0  0  0  0  0  0  0  0  0  0  0  0
  -28.0944  -22.9012   18.5210 C   0  0  0  0  0  0  0  0  0  0  0  0
  -22.1843  -32.7564   25.4235 C   0  0  0  0  0  0  0  0  0  0  0  0
  -28.7188  -13.5988   24.7868 C   0  0  0  0  0  0  0  0  0  0  0  0
  -22.8048  -31.3748   25.6055 C   0  0  0  0  0  0  0  0  0  0  0  0
  -27.9683  -12.6712   23.8285 C   0  0  0  0  0  0  0  0  0  0  0  0
  -28.1031  -14.9964   24.8220 C   0  0  0  0  0  0  0  0  0  0  0  0
  -27.1899  -14.7088   22.5521 C   0  0  0  0  0  0  0  0  0  0  0  0
  -24.0283  -31.1957   24.6985 C   0  0  1  0  0  0  0  0  0  0  0  0
  -22.8856  -29.6238   21.4341 C   0  0  1  0  0  0  0  0  0  0  0  0
  -27.8128  -13.3082   22.4337 C   0  0  2  0  0  0  0  0  0  0  0  0
  -27.8584  -26.0047   17.3914 C   0  0  0  0  0  0  0  0  0  0  0  0
  -18.7613  -24.2423   17.6881 C   0  0  0  0  0  0  0  0  0  0  0  0
  -20.9526  -26.0681   23.6660 C   0  0  0  0  0  0  0  0  0  0  0  0
  -19.8832  -24.3341   22.2108 C   0  0  0  0  0  0  0  0  0  0  0  0
  -18.7733  -26.5444   22.5354 C   0  0  0  0  0  0  0  0  0  0  0  0
  -21.2299  -26.6930   16.1468 C   0  0  0  0  0  0  0  0  0  0  0  0
  -20.8548  -26.4004   21.1075 C   0  0  1  0  0  0  0  0  0  0  0  0
  -19.6261  -25.4922   17.6383 C   0  0  2  0  0  0  0  0  0  0  0  0
  -20.1417  -25.8472   22.3735 C   0  0  0  0  0  0  0  0  0  0  0  0
  -26.0609  -11.6289   21.9952 N   0  0  0  0  0  0  0  0  0  0  0  0
  -27.0282  -12.4144   21.4916 N   0  0  0  0  0  0  0  0  0  0  0  0
  -28.3411  -22.3805   19.8540 N   0  0  0  0  0  0  0  0  0  0  0  0
  -22.5093  -28.2405   21.1359 N   0  0  0  0  0  0  0  0  0  0  0  0
  -27.9909  -15.5382   23.4661 N   0  0  0  0  0  0  0  0  0  0  0  0
  -28.1114  -13.0185   19.4736 N   0  0  0  0  0  0  0  0  0  0  0  0
  -25.0504   -9.9763   18.1428 N   0  0  0  0  0  0  0  0  0  0  0  0
  -28.4748  -17.1582   21.8217 N   0  0  0  0  0  0  0  0  0  0  0  0
  -23.6139  -30.9289   23.3378 N   0  0  0  0  0  0  0  0  0  0  0  0
  -20.0975  -26.2293   19.8723 N   0  0  0  0  0  0  0  0  0  0  0  0
  -20.3579  -25.5060   16.3401 N   0  3  0  0  0  0  0  0  0  0  0  0
  -28.6235  -23.9596   21.5994 O   0  0  0  0  0  0  0  0  0  0  0  0
  -26.7377  -11.3552   17.4284 O   0  0  0  0  0  0  0  0  0  0  0  0
  -23.3059  -28.6290   23.5338 O   0  0  0  0  0  0  0  0  0  0  0  0
  -20.2294  -28.6746   21.3595 O   0  0  0  0  0  0  0  0  0  0  0  0
  -21.7111  -24.9957   18.7536 O   0  0  0  0  0  0  0  0  0  0  0  0
  -29.2738  -17.3893   23.9874 O   0  0  0  0  0  0  0  0  0  0  0  0
  -21.4262   -7.3003   21.4200 O   0  0  0  0  0  0  0  0  0  0  0  0
  -28.2695  -26.5446   19.7229 O   0  0  0  0  0  0  0  0  0  1  0  0
  -21.7237   -3.6382   25.5315 F   0  0  0  0  0  0  0  0  0  0  0  0
  -21.5302   -8.1312   24.0546 F   0  0  0  0  0  0  0  0  0  0  0  0
  1  2  1  0  0  0  0
  1  5  2  0  0  0  0
  2  6  2  0  0  0  0
  3 12  2  0  0  0  0
  3 19  1  0  0  0  0
  4 13  1  0  0  0  0
  4 19  2  0  0  0  0
  5 21  1  0  0  0  0
  6 23  1  0  0  0  0
  7 14  2  0  0  0  0
  7 22  1  0  0  0  0
  8 10  2  0  0  0  0
  8 25  1  0  0  0  0
  9 11  1  0  0  0  0
  9 25  2  0  0  0  0
 10 26  1  0  0  0  0
 11 26  2  0  0  0  0
 12 27  1  0  0  0  0
 13 27  2  0  0  0  0
 14 28  1  0  0  0  0
 15 16  2  0  0  0  0
 15 29  1  0  0  0  0
 16 30  1  0  0  0  0
 17 24  1  0  0  0  0
 17 28  2  0  0  0  0
 18 30  2  0  0  0  0
 18 31  1  0  0  0  0
 19 32  1  0  0  0  0
 20 32  1  0  0  0  0
 20 33  2  0  0  0  0
 20 36  1  0  0  0  0
 21 23  2  0  0  0  0
 21 42  1  0  0  0  0
 22 24  2  0  0  0  0
 22 43  1  0  0  0  0
 23 52  1  0  0  0  0
 24 44  1  0  0  0  0
 25 66  1  0  0  0  0
 26 71  1  0  0  0  0
 27 81  1  0  0  0  0
 28 82  1  0  0  0  0
 29 31  2  0  0  0  0
 29 81  1  0  0  0  0
 30 83  1  0  0  0  0
 31 84  1  0  0  0  0
 32 64  2  0  0  0  0
 33 65  1  0  0  0  0
 33 69  1  0  0  0  0
 34 35  1  0  0  0  0
 34 37  2  0  0  0  0
 34 45  1  0  0  0  0
 35 66  1  0  0  0  0
 35 75  2  0  0  0  0
 36 70  1  0  0  0  0
 36 76  2  0  0  0  0
 37 55  1  0  0  0  0
 37 82  1  0  0  0  0
 38 53  1  0  0  0  0
 38 72  1  0  0  0  0
 38 77  2  0  0  0  0
 39 61  1  0  0  0  0
 39 67  1  0  0  0  0
 39 78  2  0  0  0  0
 40 62  1  0  0  0  0
 40 73  1  0  0  0  0
 40 79  2  0  0  0  0
 41 68  1  0  0  0  0
 41 71  1  0  0  0  0
 41 80  2  0  0  0  0
 42 46  1  0  0  0  0
 43 53  1  0  0  0  0
 44 67  1  0  0  0  0
 45 66  1  0  0  0  0
 46 48  1  0  0  0  0
 47 49  1  0  0  0  0
 47 50  1  0  0  0  0
 48 52  1  0  0  0  0
 49 54  1  0  0  0  0
 50 68  1  0  0  0  0
 51 54  1  0  0  0  0
 51 68  1  0  0  0  0
 52 72  1  0  0  0  0
 53 67  1  0  0  0  0
 54 65  1  0  0  0  0
 56 62  1  0  0  0  0
 57 63  1  0  0  0  0
 58 63  1  0  0  0  0
 59 63  1  0  0  0  0
 60 74  1  0  0  0  0
 61 63  1  0  0  0  0
 61 73  1  0  0  0  0
 62 74  1  0  0  0  0
 64 65  1  0  0  0  0
M  CHG  1  74   1
M  ISO  4  37 101  41 100  71 100  82 101
M  END
> <Batch ID>
0083

> <Smiles>
CNC(C)C(=O)NC(C(=O)N1Cc2cc([101O:1][101C:1](C)=C3CN(c4ccc([100NH:0][100C:0](=O)N5CCCC(n6nc(-c7ccc(Oc8ccc(F)cc8F)cc7)c(C(N)=O)c6N)C5)cc4)C3=O)ccc2CC1C(=O)NC1CCCc2ccccc21)C(C)(C)C

> <Shape>
0.320

> <Color>
0.113

> <Negative vol penalty>
0.000

$$$$

  -OEChem-04052300093D

 83 91  0     1  0  0  0  0  0999 V2000
  -31.8493  -29.9503   14.1541 C   0  0  0  0  0  0  0  0  0  0  0  0
  -31.3907  -28.7429   14.6709 C   0  0  0  0  0  0  0  0  0  0  0  0
  -22.9107  -10.2142   19.9228 C   0  0  0  0  0  0  0  0  0  0  0  0
  -23.8350   -9.9036   22.1333 C   0  0  0  0  0  0  0  0  0  0  0  0
  -31.8819  -31.0858   14.9624 C   0  0  0  0  0  0  0  0  0  0  0  0
  -30.9653  -28.6700   15.9968 C   0  0  0  0  0  0  0  0  0  0  0  0
  -26.4380  -25.1996   18.2253 C   0  0  0  0  0  0  0  0  0  0  0  0
  -22.1131   -9.0834   20.0974 C   0  0  0  0  0  0  0  0  0  0  0  0
  -23.0373   -8.7728   22.3079 C   0  0  0  0  0  0  0  0  0  0  0  0
  -26.4349  -23.9682   18.8791 C   0  0  0  0  0  0  0  0  0  0  0  0
  -19.8164   -8.0925   23.0719 C   0  0  0  0  0  0  0  0  0  0  0  0
  -19.1460   -7.9556   24.2874 C   0  0  0  0  0  0  0  0  0  0  0  0
  -29.4724  -17.6165   23.5877 C   0  0  0  0  0  0  0  0  0  0  0  0
  -28.8233  -18.8762   23.7358 C   0  0  0  0  0  0  0  0  0  0  0  0
  -26.3658  -25.1045   21.0059 C   0  0  0  0  0  0  0  0  0  0  0  0
  -20.3081   -5.8768   24.6942 C   0  0  0  0  0  0  0  0  0  0  0  0
  -23.7718  -10.6243   20.9407 C   0  0  0  0  0  0  0  0  0  0  0  0
  -24.2689  -13.1223   21.0848 C   0  0  0  0  0  0  0  0  0  0  0  0
  -31.4476  -31.0291   16.2961 C   0  0  0  0  0  0  0  0  0  0  0  0
  -26.4160  -26.3948   18.9584 C   0  0  0  0  0  0  0  0  0  0  0  0
  -30.9933  -29.8055   16.8242 C   0  0  0  0  0  0  0  0  0  0  0  0
  -26.3661  -26.3497   20.3589 C   0  0  0  0  0  0  0  0  0  0  0  0
  -22.1763   -8.3627   21.2900 C   0  0  0  0  0  0  0  0  0  0  0  0
  -26.4017  -23.9205   20.2697 C   0  0  0  0  0  0  0  0  0  0  0  0
  -20.7326   -7.1215   22.6675 C   0  0  0  0  0  0  0  0  0  0  0  0
  -19.3919   -6.8478   25.0986 C   0  0  0  0  0  0  0  0  0  0  0  0
  -20.9784   -6.0137   23.4786 C   0  0  0  0  0  0  0  0  0  0  0  0
  -24.5964  -11.7920   20.7607 C   0  0  0  0  0  0  0  0  0  0  0  0
  -30.3536  -17.6097   22.5289 C   0  0  0  0  0  0  0  0  0  0  0  0
  -29.2333  -19.7844   22.7845 C   0  0  0  0  0  0  0  0  0  0  0  0
  -25.3784  -13.8468   20.7236 C   0  0  0  0  0  0  0  0  0  0  0  0
  -27.5610  -21.2927   22.3913 C   0  0  0  0  0  0  0  0  0  0  0  0
  -23.0690  -13.6553   21.6609 C   0  0  0  0  0  0  0  0  0  0  0  0
  -28.3811  -28.8742   19.2659 C   0  0  0  0  0  0  0  0  0  0  0  0
  -32.2573  -16.0575   23.0951 C   0  0  0  0  0  0  0  0  0  0  0  0
  -25.9412  -30.0924   21.0224 C   0  0  0  0  0  0  0  0  0  0  0  0
  -23.1671  -29.5104   22.9230 C   0  0  0  0  0  0  0  0  0  0  0  0
  -30.9163  -14.5241   20.5871 C   0  0  0  0  0  0  0  0  0  0  0  0
  -31.5458  -32.2718   17.1450 C   0  0  0  0  0  0  0  0  0  0  0  0
  -26.3927  -27.7147   18.2374 C   0  0  0  0  0  0  0  0  0  0  0  0
  -26.3209  -27.6039   21.1917 C   0  0  0  0  0  0  0  0  0  0  0  0
  -30.7256  -32.1979   18.4303 C   0  0  0  0  0  0  0  0  0  0  0  0
  -29.4533  -12.5106   18.0410 C   0  0  0  0  0  0  0  0  0  0  0  0
  -30.9522  -30.8626   19.1321 C   0  0  0  0  0  0  0  0  0  0  0  0
  -28.0352  -12.2490   18.5513 C   0  0  0  0  0  0  0  0  0  0  0  0
  -30.4682  -12.5339   19.1818 C   0  0  0  0  0  0  0  0  0  0  0  0
  -28.7250  -13.2001   20.7914 C   0  0  0  0  0  0  0  0  0  0  0  0
  -30.5002  -29.6923   18.2504 C   0  0  1  0  0  0  0  0  0  0  0  0
  -26.8881  -28.8737   19.0968 C   0  0  1  0  0  0  0  0  0  0  0  0
  -27.6580  -13.2232   19.6836 C   0  0  2  0  0  0  0  0  0  0  0  0
  -32.2323  -14.6484   23.6319 C   0  0  0  0  0  0  0  0  0  0  0  0
  -21.4056  -30.7030   24.2543 C   0  0  0  0  0  0  0  0  0  0  0  0
  -27.9537  -30.5513   23.2695 C   0  0  0  0  0  0  0  0  0  0  0  0
  -26.0271  -30.8315   24.8435 C   0  0  0  0  0  0  0  0  0  0  0  0
  -26.3183  -32.4139   22.9373 C   0  0  0  0  0  0  0  0  0  0  0  0
  -20.9968  -28.4729   21.1988 C   0  0  0  0  0  0  0  0  0  0  0  0
  -27.0040  -22.6718   22.2020 C   0  0  0  0  0  0  0  0  0  1  0  0
  -31.2133  -16.5040   22.0537 C   0  0  1  0  0  0  0  0  0  0  0  0
  -25.5475  -30.0500   22.4792 C   0  0  1  0  0  0  0  0  0  0  0  0
  -21.7806  -30.1282   22.8972 C   0  0  2  0  0  0  0  0  0  0  0  0
  -26.4644  -30.9379   23.3670 C   0  0  0  0  0  0  0  0  0  0  0  0
  -25.8183  -11.6755   20.2340 N   0  0  0  0  0  0  0  0  0  0  0  0
  -28.8225  -21.1173   22.6140 N   0  0  0  0  0  0  0  0  0  0  0  0
  -26.2683  -12.9419   20.2243 N   0  0  0  0  0  0  0  0  0  0  0  0
  -26.3062  -28.8700   20.4406 N   0  0  0  0  0  0  0  0  0  0  0  0
  -30.0526  -13.4784   20.2215 N   0  0  0  0  0  0  0  0  0  0  0  0
  -25.6698  -15.1634   20.7875 N   0  0  0  0  0  0  0  0  0  0  0  0
  -22.0270  -12.7710   21.9715 N   0  0  0  0  0  0  0  0  0  0  0  0
  -29.0588  -29.5648   18.2795 N   0  0  0  0  0  0  0  0  0  0  0  0
  -24.1348  -30.4109   22.5308 N   0  0  0  0  0  0  0  0  0  0  0  0
  -30.4425  -15.3779   21.5757 N   0  0  0  0  0  0  0  0  0  0  0  0
  -20.7643  -29.1044   22.5233 N   0  3  0  0  0  0  0  0  0  0  0  0
  -22.9188  -14.8816   21.8781 O   0  0  0  0  0  0  0  0  0  0  0  0
  -28.8811  -28.2923   20.2215 O   0  0  0  0  0  0  0  0  0  0  0  0
  -33.1292  -16.8457   23.4716 O   0  0  0  0  0  0  0  0  0  0  0  0
  -25.9187  -31.1691   20.4210 O   0  0  0  0  0  0  0  0  0  0  0  0
  -23.3715  -28.3466   23.2610 O   0  0  0  0  0  0  0  0  0  0  0  0
  -32.0251  -14.6881   20.0669 O   0  0  0  0  0  0  0  0  0  0  0  0
  -21.3979   -7.2593   21.4608 O   0  0  0  0  0  0  0  0  0  0  0  0
  -26.3993  -22.7200   20.9104 O   0  0  0  0  0  0  0  0  0  1  0  0
  -18.7492   -6.7172   26.2665 F   0  0  0  0  0  0  0  0  0  0  0  0
  -21.8584   -5.0783   23.0959 F   0  0  0  0  0  0  0  0  0  0  0  0
  -30.3959  -19.1177   21.7186 S   0  0  0  0  0  0  0  0  0  0  0  0
  1  2  1  0  0  0  0
  1  5  2  0  0  0  0
  2  6  2  0  0  0  0
  3  8  2  0  0  0  0
  3 17  1  0  0  0  0
  4  9  1  0  0  0  0
  4 17  2  0  0  0  0
  5 19  1  0  0  0  0
  6 21  1  0  0  0  0
  7 10  2  0  0  0  0
  7 20  1  0  0  0  0
  8 23  1  0  0  0  0
  9 23  2  0  0  0  0
 10 24  1  0  0  0  0
 11 12  2  0  0  0  0
 11 25  1  0  0  0  0
 12 26  1  0  0  0  0
 13 14  1  0  0  0  0
 13 29  2  0  0  0  0
 14 30  2  0  0  0  0
 15 22  1  0  0  0  0
 15 24  2  0  0  0  0
 16 26  2  0  0  0  0
 16 27  1  0  0  0  0
 17 28  1  0  0  0  0
 18 28  1  0  0  0  0
 18 31  2  0  0  0  0
 18 33  1  0  0  0  0
 19 21  2  0  0  0  0
 19 39  1  0  0  0  0
 20 22  2  0  0  0  0
 20 40  1  0  0  0  0
 21 48  1  0  0  0  0
 22 41  1  0  0  0  0
 23 79  1  0  0  0  0
 24 80  1  0  0  0  0
 25 27  2  0  0  0  0
 25 79  1  0  0  0  0
 26 81  1  0  0  0  0
 27 82  1  0  0  0  0
 28 62  2  0  0  0  0
 29 58  1  0  0  0  0
 29 83  1  0  0  0  0
 30 63  1  0  0  0  0
 30 83  1  0  0  0  0
 31 64  1  0  0  0  0
 31 67  1  0  0  0  0
 32 57  1  0  0  0  0
 32 63  2  0  0  0  0
 33 68  1  0  0  0  0
 33 73  2  0  0  0  0
 34 49  1  0  0  0  0
 34 69  1  0  0  0  0
 34 74  2  0  0  0  0
 35 51  1  0  0  0  0
 35 58  1  0  0  0  0
 35 75  2  0  0  0  0
 36 59  1  0  0  0  0
 36 65  1  0  0  0  0
 36 76  2  0  0  0  0
 37 60  1  0  0  0  0
 37 70  1  0  0  0  0
 37 77  2  0  0  0  0
 38 66  1  0  0  0  0
 38 71  1  0  0  0  0
 38 78  2  0  0  0  0
 39 42  1  0  0  0  0
 40 49  1  0  0  0  0
 41 65  1  0  0  0  0
 42 44  1  0  0  0  0
 43 45  1  0  0  0  0
 43 46  1  0  0  0  0
 44 48  1  0  0  0  0
 45 50  1  0  0  0  0
 46 66  1  0  0  0  0
 47 50  1  0  0  0  0
 47 66  1  0  0  0  0
 48 69  1  0  0  0  0
 49 65  1  0  0  0  0
 50 64  1  0  0  0  0
 52 60  1  0  0  0  0
 53 61  1  0  0  0  0
 54 61  1  0  0  0  0
 55 61  1  0  0  0  0
 56 72  1  0  0  0  0
 57 80  1  0  0  0  0
 58 71  1  0  0  0  0
 59 61  1  0  0  0  0
 59 70  1  0  0  0  0
 60 72  1  0  0  0  0
 62 64  1  0  0  0  0
M  CHG  1  72   1
M  ISO  4  38 100  57 101  71 100  80 101
M  END
> <Batch ID>
0083

> <Smiles>
CNC(C)C(=O)NC(C(=O)N1Cc2cc([101O:1][101CH2:1]C=Nc3ccc(C([100NH:0][100C:0](=O)N4CCCC(n5nc(-c6ccc(Oc7ccc(F)cc7F)cc6)c(C(N)=O)c5N)C4)C(C)=O)s3)ccc2CC1C(=O)NC1CCCc2ccccc21)C(C)(C)C

> <Shape>
0.306

> <Color>
0.224

> <Negative vol penalty>
0.000

$$$$

  -OEChem-04052300093D

 85 94  0     1  0  0  0  0  0999 V2000
  -29.5030  -31.0175   25.5086 C   0  0  0  0  0  0  0  0  0  0  0  0
  -29.2702  -29.9690   24.6244 C   0  0  0  0  0  0  0  0  0  0  0  0
  -29.6250  -18.8855   15.4014 C   0  0  0  0  0  0  0  0  0  0  0  0
  -23.0222  -10.4855   19.8608 C   0  0  0  0  0  0  0  0  0  0  0  0
  -23.8432   -9.7281   22.0031 C   0  0  0  0  0  0  0  0  0  0  0  0
  -28.4466  -31.5586   26.2401 C   0  0  0  0  0  0  0  0  0  0  0  0
  -27.9809  -29.4602   24.4720 C   0  0  0  0  0  0  0  0  0  0  0  0
  -26.7455  -28.7209   19.6169 C   0  0  0  0  0  0  0  0  0  0  0  0
  -29.1350  -20.0852   15.9173 C   0  0  0  0  0  0  0  0  0  0  0  0
  -29.6371  -17.7383   16.1948 C   0  0  0  0  0  0  0  0  0  0  0  0
  -22.1843   -9.3727   19.7885 C   0  0  0  0  0  0  0  0  0  0  0  0
  -23.0053   -8.6153   21.9308 C   0  0  0  0  0  0  0  0  0  0  0  0
  -27.2598  -27.5841   18.9950 C   0  0  0  0  0  0  0  0  0  0  0  0
  -19.7362   -7.9240   22.4366 C   0  0  0  0  0  0  0  0  0  0  0  0
  -19.0116   -7.5850   23.5792 C   0  0  0  0  0  0  0  0  0  0  0  0
  -25.1502  -26.4599   19.3187 C   0  0  0  0  0  0  0  0  0  0  0  0
  -28.6693  -18.9907   18.0202 C   0  0  0  0  0  0  0  0  0  0  0  0
  -20.0926   -5.4247   23.6236 C   0  0  0  0  0  0  0  0  0  0  0  0
  -23.8518  -10.6631   20.9681 C   0  0  0  0  0  0  0  0  0  0  0  0
  -24.4173  -13.0684   21.6027 C   0  0  0  0  0  0  0  0  0  0  0  0
  -27.1420  -31.0626   26.0894 C   0  0  0  0  0  0  0  0  0  0  0  0
  -25.4309  -28.7320   20.1049 C   0  0  0  0  0  0  0  0  0  0  0  0
  -26.9063  -29.9943   25.2031 C   0  0  0  0  0  0  0  0  0  0  0  0
  -24.6207  -27.5990   19.9441 C   0  0  0  0  0  0  0  0  0  0  0  0
  -28.6572  -20.1378   17.2267 C   0  0  0  0  0  0  0  0  0  0  0  0
  -29.1593  -17.7909   17.5043 C   0  0  0  0  0  0  0  0  0  0  0  0
  -22.1758   -8.4377   20.8235 C   0  0  0  0  0  0  0  0  0  0  0  0
  -26.4631  -26.4523   18.8484 C   0  0  0  0  0  0  0  0  0  0  0  0
  -20.6389   -7.0134   21.8874 C   0  0  0  0  0  0  0  0  0  0  0  0
  -19.1899   -6.3353   24.1728 C   0  0  0  0  0  0  0  0  0  0  0  0
  -20.8171   -5.7638   22.4809 C   0  0  0  0  0  0  0  0  0  0  0  0
  -24.7180  -11.8121   21.0431 C   0  0  0  0  0  0  0  0  0  0  0  0
  -25.5622  -13.8061   21.4257 C   0  0  0  0  0  0  0  0  0  0  0  0
  -27.4741  -23.0332   18.4695 C   0  0  0  0  0  0  0  0  0  0  0  0
  -27.6553  -21.6664   18.9470 C   0  0  0  0  0  0  0  0  0  0  0  0
  -28.0403  -22.5707   17.2069 C   0  0  0  0  0  0  0  0  0  0  0  0
  -27.0056  -24.1800   18.9618 C   0  0  0  0  0  0  0  0  0  1  0  0
  -23.2109  -13.5274   22.2269 C   0  0  0  0  0  0  0  0  0  0  0  0
  -24.1060  -29.0773   22.9736 C   0  0  0  0  0  0  0  0  0  0  0  0
  -21.3455  -29.0628   21.2702 C   0  0  0  0  0  0  0  0  0  0  0  0
  -19.7032  -28.1467   18.4223 C   0  0  0  0  0  0  0  0  0  0  0  0
  -29.6616  -15.3750   17.8301 C   0  0  0  0  0  0  0  0  0  0  0  0
  -26.0403  -31.6483   26.9367 C   0  0  0  0  0  0  0  0  0  0  0  0
  -24.8823  -29.9755   20.7495 C   0  0  0  0  0  0  0  0  0  0  0  0
  -23.1963  -27.5668   20.4325 C   0  0  0  0  0  0  0  0  0  0  0  0
  -24.6395  -31.3012   26.4394 C   0  0  0  0  0  0  0  0  0  0  0  0
  -30.1986  -12.4251   19.9796 C   0  0  0  0  0  0  0  0  0  0  0  0
  -24.5424  -29.8146   26.1118 C   0  0  0  0  0  0  0  0  0  0  0  0
  -28.7834  -12.0740   20.4355 C   0  0  0  0  0  0  0  0  0  0  0  0
  -30.2035  -13.0849   18.6038 C   0  0  0  0  0  0  0  0  0  0  0  0
  -27.9056  -13.9327   18.9658 C   0  0  0  0  0  0  0  0  0  0  0  0
  -25.5174  -29.4316   24.9918 C   0  0  1  0  0  0  0  0  0  0  0  0
  -23.6964  -29.6987   21.6683 C   0  0  1  0  0  0  0  0  0  0  0  0
  -27.8636  -13.3053   20.3674 C   0  0  1  0  0  0  0  0  0  0  0  0
  -17.4438  -28.2409   17.3344 C   0  0  0  0  0  0  0  0  0  0  0  0
  -20.3713  -26.8284   23.1054 C   0  0  0  0  0  0  0  0  0  0  0  0
  -18.5800  -26.3277   21.4295 C   0  0  0  0  0  0  0  0  0  0  0  0
  -18.6459  -28.5530   22.5549 C   0  0  0  0  0  0  0  0  0  0  0  0
  -28.8972  -16.7404   19.7591 C   0  0  0  0  0  0  0  0  0  0  0  0
  -20.7385  -29.7243   16.1423 C   0  0  0  0  0  0  0  0  0  0  0  0
  -20.3828  -27.9978   20.8036 C   0  0  1  0  0  0  0  0  0  0  0  0
  -18.7930  -28.9253   17.4897 C   0  0  2  0  0  0  0  0  0  0  0  0
  -19.5224  -27.4263   21.9658 C   0  0  0  0  0  0  0  0  0  0  0  0
  -25.9568  -11.7516   20.5475 N   0  0  0  0  0  0  0  0  0  0  0  0
  -26.4447  -12.9792   20.7950 N   0  0  0  0  0  0  0  0  0  0  0  0
  -28.1740  -21.3205   17.7343 N   0  0  0  0  0  0  0  0  0  0  0  0
  -22.7078  -28.8050   21.0616 N   0  0  0  0  0  0  0  0  0  0  0  0
  -29.2870  -14.2246   18.5530 N   0  0  0  0  0  0  0  0  0  0  0  0
  -25.8902  -15.0749   21.7494 N   0  0  0  0  0  0  0  0  0  0  0  0
  -22.1306  -12.6400   22.3263 N   0  0  0  0  0  0  0  0  0  0  0  0
  -24.9954  -29.8407   23.7055 N   0  0  0  0  0  0  0  0  0  0  0  0
  -19.6059  -28.5949   19.7227 N   0  0  0  0  0  0  0  0  0  0  0  0
  -29.1720  -16.6031   18.3251 N   0  0  0  0  0  0  0  0  0  0  0  0
  -19.4157  -29.0481   16.1413 N   0  3  0  0  0  0  0  0  0  0  0  0
  -27.4391  -21.0755   19.9842 O   0  0  0  0  0  0  0  0  0  0  0  0
  -28.2911  -23.0767   16.1332 O   0  0  0  0  0  0  0  0  0  0  0  0
  -23.0887  -14.6952   22.6682 O   0  0  0  0  0  0  0  0  0  0  0  0
  -23.6479  -27.9868   23.2937 O   0  0  0  0  0  0  0  0  0  0  0  0
  -20.9047  -30.0891   21.7938 O   0  0  0  0  0  0  0  0  0  0  0  0
  -20.4252  -27.2300   18.0366 O   0  0  0  0  0  0  0  0  0  0  0  0
  -30.3992  -15.3115   16.8394 O   0  0  0  0  0  0  0  0  0  0  0  0
  -21.3581   -7.3519   20.7534 O   0  0  0  0  0  0  0  0  0  0  0  0
  -26.9629  -25.3411   18.2423 O   0  0  0  0  0  0  0  0  0  1  0  0
  -18.4952   -6.0105   25.2710 F   0  0  0  0  0  0  0  0  0  0  0  0
  -21.6838   -4.8853   21.9586 F   0  0  0  0  0  0  0  0  0  0  0  0
  1  2  1  0  0  0  0
  1  6  2  0  0  0  0
  2  7  2  0  0  0  0
  3  9  2  0  0  0  0
  3 10  1  0  0  0  0
  4 11  2  0  0  0  0
  4 19  1  0  0  0  0
  5 12  1  0  0  0  0
  5 19  2  0  0  0  0
  6 21  1  0  0  0  0
  7 23  1  0  0  0  0
  8 13  2  0  0  0  0
  8 22  1  0  0  0  0
  9 25  1  0  0  0  0
 10 26  2  0  0  0  0
 11 27  1  0  0  0  0
 12 27  2  0  0  0  0
 13 28  1  0  0  0  0
 14 15  2  0  0  0  0
 14 29  1  0  0  0  0
 15 30  1  0  0  0  0
 16 24  1  0  0  0  0
 16 28  2  0  0  0  0
 17 25  2  0  0  0  0
 17 26  1  0  0  0  0
 18 30  2  0  0  0  0
 18 31  1  0  0  0  0
 19 32  1  0  0  0  0
 20 32  1  0  0  0  0
 20 33  2  0  0  0  0
 20 38  1  0  0  0  0
 21 23  2  0  0  0  0
 21 43  1  0  0  0  0
 22 24  2  0  0  0  0
 22 44  1  0  0  0  0
 23 52  1  0  0  0  0
 24 45  1  0  0  0  0
 25 66  1  0  0  0  0
 26 73  1  0  0  0  0
 27 82  1  0  0  0  0
 28 83  1  0  0  0  0
 29 31  2  0  0  0  0
 29 82  1  0  0  0  0
 30 84  1  0  0  0  0
 31 85  1  0  0  0  0
 32 64  2  0  0  0  0
 33 65  1  0  0  0  0
 33 69  1  0  0  0  0
 34 35  1  0  0  0  0
 34 36  1  0  0  0  0
 34 37  2  0  0  0  0
 35 66  1  0  0  0  0
 35 75  2  0  0  0  0
 36 66  1  0  0  0  0
 36 76  2  0  0  0  0
 37 83  1  0  0  0  0
 38 70  1  0  0  0  0
 38 77  2  0  0  0  0
 39 53  1  0  0  0  0
 39 71  1  0  0  0  0
 39 78  2  0  0  0  0
 40 61  1  0  0  0  0
 40 67  1  0  0  0  0
 40 79  2  0  0  0  0
 41 62  1  0  0  0  0
 41 72  1  0  0  0  0
 41 80  2  0  0  0  0
 42 68  1  0  0  0  0
 42 73  1  0  0  0  0
 42 81  2  0  0  0  0
 43 46  1  0  0  0  0
 44 53  1  0  0  0  0
 45 67  1  0  0  0  0
 46 48  1  0  0  0  0
 47 49  1  0  0  0  0
 47 50  1  0  0  0  0
 48 52  1  0  0  0  0
 49 54  1  0  0  0  0
 50 68  1  0  0  0  0
 51 54  1  0  0  0  0
 51 68  1  0  0  0  0
 52 71  1  0  0  0  0
 53 67  1  0  0  0  0
 54 65  1  0  0  0  0
 55 62  1  0  0  0  0
 56 63  1  0  0  0  0
 57 63  1  0  0  0  0
 58 63  1  0  0  0  0
 59 73  1  0  0  0  0
 60 74  1  0  0  0  0
 61 63  1  0  0  0  0
 61 72  1  0  0  0  0
 62 74  1  0  0  0  0
 64 65  1  0  0  0  0
M  CHG  1  74   1
M  ISO  4  37 101  42 100  73 100  83 101
M  END
> <Batch ID>
0083

> <Smiles>
CNC(C)C(=O)NC(C(=O)N1Cc2cc([101O:1][101CH:1]=C3C(=O)N(c4cccc([100N:0](C)[100C:0](=O)N5CCCC(n6nc(-c7ccc(Oc8ccc(F)cc8F)cc7)c(C(N)=O)c6N)C5)c4)C3=O)ccc2CC1C(=O)NC1CCCc2ccccc21)C(C)(C)C

> <Shape>
0.307

> <Color>
0.122

> <Negative vol penalty>
0.000

$$$$

  -OEChem-04052300093D

 84 92  0     1  0  0  0  0  0999 V2000
  -15.3840  -24.4171   21.3109 C   0  0  0  0  0  0  0  0  0  0  0  0
  -16.7089  -23.9942   21.3468 C   0  0  0  0  0  0  0  0  0  0  0  0
  -32.6985  -17.4412   23.4456 C   0  0  0  0  0  0  0  0  0  0  0  0
  -23.0628   -9.8876   19.9431 C   0  0  0  0  0  0  0  0  0  0  0  0
  -23.8343   -9.8787   22.2326 C   0  0  0  0  0  0  0  0  0  0  0  0
  -31.9091  -18.3085   24.2006 C   0  0  0  0  0  0  0  0  0  0  0  0
  -15.0667  -25.7390   21.6204 C   0  0  0  0  0  0  0  0  0  0  0  0
  -17.7174  -24.8934   21.6913 C   0  0  0  0  0  0  0  0  0  0  0  0
  -21.0423  -22.9234   24.9638 C   0  0  0  0  0  0  0  0  0  0  0  0
  -32.1014  -16.5647   22.5396 C   0  0  0  0  0  0  0  0  0  0  0  0
  -22.3136   -8.7374   20.1911 C   0  0  0  0  0  0  0  0  0  0  0  0
  -23.0851   -8.7285   22.4806 C   0  0  0  0  0  0  0  0  0  0  0  0
  -22.0031  -22.0539   24.4495 C   0  0  0  0  0  0  0  0  0  0  0  0
  -19.8556   -7.9461   23.0956 C   0  0  0  0  0  0  0  0  0  0  0  0
  -19.1043   -7.9045   24.2701 C   0  0  0  0  0  0  0  0  0  0  0  0
  -29.9252  -17.4227   23.1438 C   0  0  0  0  0  0  0  0  0  0  0  0
  -23.6189  -23.8450   24.4562 C   0  0  0  0  0  0  0  0  0  0  0  0
  -20.3384   -5.9564   24.9905 C   0  0  0  0  0  0  0  0  0  0  0  0
  -23.8232  -10.4582   20.9639 C   0  0  0  0  0  0  0  0  0  0  0  0
  -30.5224  -18.2993   24.0498 C   0  0  0  0  0  0  0  0  0  0  0  0
  -24.1788  -12.9819   20.8548 C   0  0  0  0  0  0  0  0  0  0  0  0
  -16.0708  -26.6524   21.9782 C   0  0  0  0  0  0  0  0  0  0  0  0
  -21.3601  -24.2652   25.2184 C   0  0  0  0  0  0  0  0  0  0  0  0
  -17.4134  -26.2292   22.0046 C   0  0  0  0  0  0  0  0  0  0  0  0
  -22.6610  -24.7289   24.9762 C   0  0  0  0  0  0  0  0  0  0  0  0
  -30.7147  -16.5554   22.3887 C   0  0  0  0  0  0  0  0  0  0  0  0
  -22.3248   -8.1579   21.4598 C   0  0  0  0  0  0  0  0  0  0  0  0
  -23.2908  -22.5153   24.1929 C   0  0  0  0  0  0  0  0  0  0  0  0
  -20.8482   -6.9927   22.8685 C   0  0  0  0  0  0  0  0  0  0  0  0
  -19.3458   -6.9097   25.2176 C   0  0  0  0  0  0  0  0  0  0  0  0
  -21.0896   -5.9979   23.8159 C   0  0  0  0  0  0  0  0  0  0  0  0
  -24.5978  -11.6459   20.7082 C   0  0  0  0  0  0  0  0  0  0  0  0
  -25.2734  -13.7270   20.4897 C   0  0  0  0  0  0  0  0  0  0  0  0
  -26.3442  -20.6469   24.0179 C   0  0  0  0  0  0  0  0  0  0  0  0
  -25.3643  -21.4578   24.4233 C   0  0  0  0  0  0  0  0  0  1  0  0
  -29.6831  -19.2233   24.8543 C   0  0  0  0  0  0  0  0  0  0  0  0
  -22.9134  -13.5028   21.2827 C   0  0  0  0  0  0  0  0  0  0  0  0
  -27.5530  -20.4628   24.8658 C   0  0  0  0  0  0  0  0  0  0  0  0
  -20.3278  -27.0628   24.1175 C   0  0  0  0  0  0  0  0  0  0  0  0
  -22.2770  -28.2483   26.4235 C   0  0  0  0  0  0  0  0  0  0  0  0
  -24.9896  -27.7882   28.4426 C   0  0  0  0  0  0  0  0  0  0  0  0
  -30.7463  -14.7406   20.6418 C   0  0  0  0  0  0  0  0  0  0  0  0
  -15.6844  -28.0830   22.2586 C   0  0  0  0  0  0  0  0  0  0  0  0
  -20.3197  -25.1838   25.7983 C   0  0  0  0  0  0  0  0  0  0  0  0
  -23.0586  -26.1553   25.2514 C   0  0  0  0  0  0  0  0  0  0  0  0
  -16.7713  -28.8778   22.9779 C   0  0  0  0  0  0  0  0  0  0  0  0
  -29.6061  -12.3451   18.2671 C   0  0  0  0  0  0  0  0  0  0  0  0
  -18.1272  -28.6453   22.3189 C   0  0  0  0  0  0  0  0  0  0  0  0
  -28.1670  -12.0596   18.7026 C   0  0  0  0  0  0  0  0  0  0  0  0
  -30.5286  -12.5627   19.4652 C   0  0  0  0  0  0  0  0  0  0  0  0
  -28.6328  -13.2910   20.8598 C   0  0  0  0  0  0  0  0  0  0  0  0
  -18.5329  -27.1685   22.3976 C   0  0  1  0  0  0  0  0  0  0  0  0
  -20.6115  -26.6581   25.5364 C   0  0  1  0  0  0  0  0  0  0  0  0
  -27.6531  -13.1292   19.6861 C   0  0  2  0  0  0  0  0  0  0  0  0
  -26.3613  -28.9496   30.1940 C   0  0  0  0  0  0  0  0  0  0  0  0
  -23.5936  -29.9503   24.2602 C   0  0  0  0  0  0  0  0  0  0  0  0
  -25.5053  -30.3410   25.8290 C   0  0  0  0  0  0  0  0  0  0  0  0
  -23.2175  -31.1316   26.4321 C   0  0  0  0  0  0  0  0  0  0  0  0
  -24.3662  -25.7214   30.4671 C   0  0  0  0  0  0  0  0  0  0  0  0
  -23.7289  -28.6563   26.4903 C   0  0  1  0  0  0  0  0  0  0  0  0
  -25.1887  -28.0178   29.9299 C   0  0  2  0  0  0  0  0  0  0  0  0
  -24.0036  -29.9934   25.7458 C   0  0  0  0  0  0  0  0  0  0  0  0
  -25.8599  -11.5450   20.2830 N   0  0  0  0  0  0  0  0  0  0  0  0
  -26.2435  -12.8271   20.1592 N   0  0  0  0  0  0  0  0  0  0  0  0
  -22.0043  -27.0163   25.8123 N   0  0  0  0  0  0  0  0  0  0  0  0
  -29.9800  -13.5922   20.3506 N   0  0  0  0  0  0  0  0  0  0  0  0
  -25.4910  -15.0576   20.4223 N   0  0  0  0  0  0  0  0  0  0  0  0
  -21.8981  -12.5977   21.6206 N   0  0  0  0  0  0  0  0  0  0  0  0
  -30.1083  -15.6652   21.4681 N   0  0  0  0  0  0  0  0  0  0  0  0
  -28.4637  -19.5840   24.2824 N   0  0  0  0  0  0  0  0  0  0  0  0
  -19.0213  -26.8485   23.7218 N   0  0  0  0  0  0  0  0  0  0  0  0
  -24.0824  -28.6770   27.9056 N   0  0  0  0  0  0  0  0  0  0  0  0
  -25.4505  -26.7248   30.6232 N   0  3  0  0  0  0  0  0  0  0  0  0
  -30.1069  -19.6286   25.9333 O   0  0  0  0  0  0  0  0  0  0  0  0
  -22.6845  -14.7345   21.3474 O   0  0  0  0  0  0  0  0  0  0  0  0
  -27.6929  -21.0317   25.9436 O   0  0  0  0  0  0  0  0  0  0  0  0
  -21.2273  -27.5358   23.4328 O   0  0  0  0  0  0  0  0  0  0  0  0
  -21.4172  -28.9919   26.9025 O   0  0  0  0  0  0  0  0  0  0  0  0
  -25.5825  -26.9109   27.8188 O   0  0  0  0  0  0  0  0  0  0  0  0
  -31.8739  -14.9053   20.1692 O   0  0  0  0  0  0  0  0  0  0  0  0
  -21.5936   -7.0357   21.7022 O   0  0  0  0  0  0  0  0  0  0  0  0
  -24.2304  -21.6689   23.6902 O   0  0  0  0  0  0  0  0  0  1  0  0
  -18.6253   -6.8709   26.3461 F   0  0  0  0  0  0  0  0  0  0  0  0
  -22.0426   -5.0800   23.6039 F   0  0  0  0  0  0  0  0  0  0  0  0
  1  2  1  0  0  0  0
  1  7  2  0  0  0  0
  2  8  2  0  0  0  0
  3  6  2  0  0  0  0
  3 10  1  0  0  0  0
  4 11  2  0  0  0  0
  4 19  1  0  0  0  0
  5 12  1  0  0  0  0
  5 19  2  0  0  0  0
  6 20  1  0  0  0  0
  7 22  1  0  0  0  0
  8 24  1  0  0  0  0
  9 13  2  0  0  0  0
  9 23  1  0  0  0  0
 10 26  2  0  0  0  0
 11 27  1  0  0  0  0
 12 27  2  0  0  0  0
 13 28  1  0  0  0  0
 14 15  2  0  0  0  0
 14 29  1  0  0  0  0
 15 30  1  0  0  0  0
 16 20  2  0  0  0  0
 16 26  1  0  0  0  0
 17 25  1  0  0  0  0
 17 28  2  0  0  0  0
 18 30  2  0  0  0  0
 18 31  1  0  0  0  0
 19 32  1  0  0  0  0
 20 36  1  0  0  0  0
 21 32  1  0  0  0  0
 21 33  2  0  0  0  0
 21 37  1  0  0  0  0
 22 24  2  0  0  0  0
 22 43  1  0  0  0  0
 23 25  2  0  0  0  0
 23 44  1  0  0  0  0
 24 52  1  0  0  0  0
 25 45  1  0  0  0  0
 26 69  1  0  0  0  0
 27 81  1  0  0  0  0
 28 82  1  0  0  0  0
 29 31  2  0  0  0  0
 29 81  1  0  0  0  0
 30 83  1  0  0  0  0
 31 84  1  0  0  0  0
 32 63  2  0  0  0  0
 33 64  1  0  0  0  0
 33 67  1  0  0  0  0
 34 35  2  0  0  0  0
 34 38  1  0  0  0  0
 35 82  1  0  0  0  0
 36 70  1  0  0  0  0
 36 74  2  0  0  0  0
 37 68  1  0  0  0  0
 37 75  2  0  0  0  0
 38 70  1  0  0  0  0
 38 76  2  0  0  0  0
 39 53  1  0  0  0  0
 39 71  1  0  0  0  0
 39 77  2  0  0  0  0
 40 60  1  0  0  0  0
 40 65  1  0  0  0  0
 40 78  2  0  0  0  0
 41 61  1  0  0  0  0
 41 72  1  0  0  0  0
 41 79  2  0  0  0  0
 42 66  1  0  0  0  0
 42 69  1  0  0  0  0
 42 80  2  0  0  0  0
 43 46  1  0  0  0  0
 44 53  1  0  0  0  0
 45 65  1  0  0  0  0
 46 48  1  0  0  0  0
 47 49  1  0  0  0  0
 47 50  1  0  0  0  0
 48 52  1  0  0  0  0
 49 54  1  0  0  0  0
 50 66  1  0  0  0  0
 51 54  1  0  0  0  0
 51 66  1  0  0  0  0
 52 71  1  0  0  0  0
 53 65  1  0  0  0  0
 54 64  1  0  0  0  0
 55 61  1  0  0  0  0
 56 62  1  0  0  0  0
 57 62  1  0  0  0  0
 58 62  1  0  0  0  0
 59 73  1  0  0  0  0
 60 62  1  0  0  0  0
 60 72  1  0  0  0  0
 61 73  1  0  0  0  0
 63 64  1  0  0  0  0
M  CHG  1  73   1
M  ISO  4  35 101  42 100  69 100  82 101
M  END
> <Batch ID>
0083

> <Smiles>
CNC(C)C(=O)NC(C(=O)N1Cc2cc([101O:1][101CH:1]=CC(=O)NC(=O)c3cccc([100NH:0][100C:0](=O)N4CCCC(n5nc(-c6ccc(Oc7ccc(F)cc7F)cc6)c(C(N)=O)c5N)C4)c3)ccc2CC1C(=O)NC1CCCc2ccccc21)C(C)(C)C

> <Shape>
0.232

> <Color>
0.188

> <Negative vol penalty>
0.000

$$$$

  -OEChem-04052300093D

 86 95  0     1  0  0  0  0  0999 V2000
  -15.7142  -19.9646   26.4060 C   0  0  0  0  0  0  0  0  0  0  0  0
  -16.9957  -20.0465   25.8707 C   0  0  0  0  0  0  0  0  0  0  0  0
  -28.6123  -18.1164   19.6801 C   0  0  0  0  0  0  0  0  0  0  0  0
  -22.9755   -9.9683   19.9265 C   0  0  0  0  0  0  0  0  0  0  0  0
  -23.8686   -9.7926   22.1645 C   0  0  0  0  0  0  0  0  0  0  0  0
  -29.3201  -16.9621   20.0151 C   0  0  0  0  0  0  0  0  0  0  0  0
  -14.7459  -20.8984   26.0394 C   0  0  0  0  0  0  0  0  0  0  0  0
  -17.3094  -21.0616   24.9677 C   0  0  0  0  0  0  0  0  0  0  0  0
  -21.7676  -23.2443   25.9698 C   0  0  0  0  0  0  0  0  0  0  0  0
  -28.1085  -18.9421   20.6852 C   0  0  0  0  0  0  0  0  0  0  0  0
  -22.2224   -8.8132   20.1363 C   0  0  0  0  0  0  0  0  0  0  0  0
  -23.1154   -8.6375   22.3743 C   0  0  0  0  0  0  0  0  0  0  0  0
  -22.9156  -22.5546   25.5822 C   0  0  0  0  0  0  0  0  0  0  0  0
  -23.3000   -5.3611   21.5607 C   0  0  0  0  0  0  0  0  0  0  0  0
  -23.9338   -4.2749   22.1640 C   0  0  0  0  0  0  0  0  0  0  0  0
  -29.0202  -17.4590   22.3604 C   0  0  0  0  0  0  0  0  0  0  0  0
  -23.0886  -23.9546   23.6254 C   0  0  0  0  0  0  0  0  0  0  0  0
  -27.7085  -20.7904   24.7947 C   0  0  0  0  0  0  0  0  0  0  0  0
  -22.3397   -4.3521   23.9778 C   0  0  0  0  0  0  0  0  0  0  0  0
  -23.7987  -10.4580   20.9405 C   0  0  0  0  0  0  0  0  0  0  0  0
  -29.5240  -16.6334   21.3553 C   0  0  0  0  0  0  0  0  0  0  0  0
  -24.1884  -12.9787   20.9839 C   0  0  0  0  0  0  0  0  0  0  0  0
  -15.0506  -21.9312   25.1387 C   0  0  0  0  0  0  0  0  0  0  0  0
  -21.2645  -24.2889   25.1811 C   0  0  0  0  0  0  0  0  0  0  0  0
  -16.3438  -22.0093   24.5876 C   0  0  0  0  0  0  0  0  0  0  0  0
  -21.9355  -24.6576   24.0065 C   0  0  0  0  0  0  0  0  0  0  0  0
  -26.3942  -20.5868   24.3067 C   0  0  0  0  0  0  0  0  0  0  0  0
  -28.3124  -18.6133   22.0253 C   0  0  0  0  0  0  0  0  0  0  0  0
  -22.2923   -8.1478   21.3602 C   0  0  0  0  0  0  0  0  0  0  0  0
  -23.5747  -22.9079   24.4083 C   0  0  0  0  0  0  0  0  0  0  0  0
  -22.1860   -5.9429   22.1660 C   0  0  0  0  0  0  0  0  0  0  0  0
  -23.4537   -3.7703   23.3726 C   0  0  0  0  0  0  0  0  0  0  0  0
  -21.7058   -5.4383   23.3745 C   0  0  0  0  0  0  0  0  0  0  0  0
  -24.5773  -11.6509   20.7242 C   0  0  0  0  0  0  0  0  0  0  0  0
  -26.4850  -19.7488   23.2173 C   0  0  0  0  0  0  0  0  0  0  0  0
  -25.2736  -13.7336   20.6110 C   0  0  0  0  0  0  0  0  0  0  0  0
  -28.5626  -20.0707   23.9885 C   0  0  0  0  0  0  0  0  0  0  0  0
  -30.2622  -15.4296   21.7032 C   0  0  0  0  0  0  0  0  0  0  0  0
  -22.9563  -13.4846   21.5148 C   0  0  0  0  0  0  0  0  0  0  0  0
  -30.8099  -14.5324   20.6600 C   0  0  0  0  0  0  0  0  0  0  0  0
  -18.5523  -24.8040   23.6055 C   0  0  0  0  0  0  0  0  0  0  0  0
  -19.8490  -27.7368   23.1156 C   0  0  0  0  0  0  0  0  0  0  0  0
  -22.6565  -29.6672   22.9191 C   0  0  0  0  0  0  0  0  0  0  0  0
  -13.9575  -22.8892   24.7361 C   0  0  0  0  0  0  0  0  0  0  0  0
  -20.0402  -25.0405   25.6269 C   0  0  0  0  0  0  0  0  0  0  0  0
  -21.4477  -25.7850   23.1350 C   0  0  0  0  0  0  0  0  0  0  0  0
  -14.4763  -24.1562   24.0611 C   0  0  0  0  0  0  0  0  0  0  0  0
  -29.4443  -12.4851   18.0522 C   0  0  0  0  0  0  0  0  0  0  0  0
  -15.5152  -23.8086   22.9997 C   0  0  0  0  0  0  0  0  0  0  0  0
  -28.0378  -12.1631   18.5561 C   0  0  0  0  0  0  0  0  0  0  0  0
  -30.4412  -12.5808   19.2027 C   0  0  0  0  0  0  0  0  0  0  0  0
  -28.6373  -13.2405   20.7709 C   0  0  0  0  0  0  0  0  0  0  0  0
  -16.7295  -23.1106   23.6241 C   0  0  1  0  0  0  0  0  0  0  0  0
  -19.3244  -25.7497   24.4815 C   0  0  1  0  0  0  0  0  0  0  0  0
  -27.5971  -13.1632   19.6397 C   0  0  2  0  0  0  0  0  0  0  0  0
  -25.4157  -19.2196   22.3410 C   0  0  0  0  0  0  0  0  0  0  0  0
  -23.4013  -32.0205   22.4669 C   0  0  0  0  0  0  0  0  0  0  0  0
  -19.3691  -27.3128   20.1324 C   0  0  0  0  0  0  0  0  0  0  0  0
  -20.9513  -29.1998   19.6807 C   0  0  0  0  0  0  0  0  0  0  0  0
  -18.8481  -29.6161   20.9558 C   0  0  0  0  0  0  0  0  0  0  0  0
  -23.8584  -29.9273   25.6111 C   0  0  0  0  0  0  0  0  0  0  0  0
  -25.1398  -21.1798   24.8778 C   0  0  0  0  0  0  0  0  0  1  0  0
  -20.7374  -28.3502   22.0605 C   0  0  1  0  0  0  0  0  0  0  0  0
  -22.9985  -31.0130   23.5325 C   0  0  2  0  0  0  0  0  0  0  0  0
  -19.9849  -28.5972   20.7225 C   0  0  0  0  0  0  0  0  0  0  0  0
  -25.8131  -11.5639   20.2248 N   0  0  0  0  0  0  0  0  0  0  0  0
  -30.4926  -15.0610   22.9345 N   0  0  0  0  0  0  0  0  0  0  0  0
  -27.8079  -19.4418   23.0329 N   0  0  0  0  0  0  0  0  0  0  0  0
  -26.2100  -12.8466   20.1676 N   0  0  0  0  0  0  0  0  0  0  0  0
  -29.9753  -13.5103   20.2298 N   0  0  0  0  0  0  0  0  0  0  0  0
  -20.2430  -26.4854   23.6102 N   0  0  0  0  0  0  0  0  0  0  0  0
  -25.5086  -15.0629   20.6224 N   0  0  0  0  0  0  0  0  0  0  0  0
  -21.9461  -12.5710   21.8453 N   0  0  0  0  0  0  0  0  0  0  0  0
  -17.5877  -24.0765   24.2760 N   0  0  0  0  0  0  0  0  0  0  0  0
  -21.3077  -29.5537   22.6562 N   0  0  0  0  0  0  0  0  0  0  0  0
  -24.1266  -30.8715   24.4959 N   0  3  0  0  0  0  0  0  0  0  0  0
  -22.7510  -14.7116   21.6754 O   0  0  0  0  0  0  0  0  0  0  0  0
  -31.9470  -14.7897   20.2871 O   0  0  0  0  0  0  0  0  0  0  0  0
  -18.8116  -24.7403   22.4095 O   0  0  0  0  0  0  0  0  0  0  0  0
  -18.8465  -28.3488   23.4925 O   0  0  0  0  0  0  0  0  0  0  0  0
  -23.5019  -28.8044   22.6922 O   0  0  0  0  0  0  0  0  0  0  0  0
  -29.8829  -19.9383   24.0344 O   0  0  0  0  0  0  0  0  0  0  0  0
  -21.5574   -7.0207   21.5654 O   0  0  0  0  0  0  0  0  0  0  0  0
  -24.6951  -22.2359   24.0274 O   0  0  0  0  0  0  0  0  0  1  0  0
  -24.0615   -2.7263   23.9510 F   0  0  0  0  0  0  0  0  0  0  0  0
  -20.6354   -5.9923   23.9602 F   0  0  0  0  0  0  0  0  0  0  0  0
  1  2  1  0  0  0  0
  1  7  2  0  0  0  0
  2  8  2  0  0  0  0
  3  6  1  0  0  0  0
  3 10  2  0  0  0  0
  4 11  2  0  0  0  0
  4 20  1  0  0  0  0
  5 12  1  0  0  0  0
  5 20  2  0  0  0  0
  6 21  2  0  0  0  0
  7 23  1  0  0  0  0
  8 25  1  0  0  0  0
  9 13  2  0  0  0  0
  9 24  1  0  0  0  0
 10 28  1  0  0  0  0
 11 29  1  0  0  0  0
 12 29  2  0  0  0  0
 13 30  1  0  0  0  0
 14 15  2  0  0  0  0
 14 31  1  0  0  0  0
 15 32  1  0  0  0  0
 16 21  1  0  0  0  0
 16 28  2  0  0  0  0
 17 26  1  0  0  0  0
 17 30  2  0  0  0  0
 18 27  1  0  0  0  0
 18 37  2  0  0  0  0
 19 32  2  0  0  0  0
 19 33  1  0  0  0  0
 20 34  1  0  0  0  0
 21 38  1  0  0  0  0
 22 34  1  0  0  0  0
 22 36  2  0  0  0  0
 22 39  1  0  0  0  0
 23 25  2  0  0  0  0
 23 44  1  0  0  0  0
 24 26  2  0  0  0  0
 24 45  1  0  0  0  0
 25 53  1  0  0  0  0
 26 46  1  0  0  0  0
 27 35  2  0  0  0  0
 27 62  1  0  0  0  0
 28 68  1  0  0  0  0
 29 83  1  0  0  0  0
 30 84  1  0  0  0  0
 31 33  2  0  0  0  0
 31 83  1  0  0  0  0
 32 85  1  0  0  0  0
 33 86  1  0  0  0  0
 34 66  2  0  0  0  0
 35 56  1  0  0  0  0
 35 68  1  0  0  0  0
 36 69  1  0  0  0  0
 36 72  1  0  0  0  0
 37 68  1  0  0  0  0
 37 82  1  0  0  0  0
 38 40  1  0  0  0  0
 38 67  2  0  0  0  0
 39 73  1  0  0  0  0
 39 77  2  0  0  0  0
 40 70  1  0  0  0  0
 40 78  2  0  0  0  0
 41 54  1  0  0  0  0
 41 74  1  0  0  0  0
 41 79  2  0  0  0  0
 42 63  1  0  0  0  0
 42 71  1  0  0  0  0
 42 80  2  0  0  0  0
 43 64  1  0  0  0  0
 43 75  1  0  0  0  0
 43 81  2  0  0  0  0
 44 47  1  0  0  0  0
 45 54  1  0  0  0  0
 46 71  1  0  0  0  0
 47 49  1  0  0  0  0
 48 50  1  0  0  0  0
 48 51  1  0  0  0  0
 49 53  1  0  0  0  0
 50 55  1  0  0  0  0
 51 70  1  0  0  0  0
 52 55  1  0  0  0  0
 52 70  1  0  0  0  0
 53 74  1  0  0  0  0
 54 71  1  0  0  0  0
 55 69  1  0  0  0  0
 57 64  1  0  0  0  0
 58 65  1  0  0  0  0
 59 65  1  0  0  0  0
 60 65  1  0  0  0  0
 61 76  1  0  0  0  0
 62 84  1  0  0  0  0
 63 65  1  0  0  0  0
 63 75  1  0  0  0  0
 64 76  1  0  0  0  0
 66 69  1  0  0  0  0
M  CHG  1  76   1
M  ISO  4  38 100  40 100  62 101  84 101
M  END
> <Batch ID>
0083

> <Smiles>
CNC(C)C(=O)NC(C(=O)N1Cc2cc([101O:1][101CH2:1]C3=C(C)N(c4cccc([100C:0](=N)[100C:0](=O)N5CCCC(n6nc(-c7ccc(Oc8ccc(F)cc8F)cc7)c(C(N)=O)c6N)C5)c4)C(=O)C3)ccc2CC1C(=O)NC1CCCc2ccccc21)C(C)(C)C

> <Shape>
0.272

> <Color>
0.218

> <Negative vol penalty>
0.000

$$$$
